##############################################################################
#                                                                            #
# This CIF contains the data in a paper accepted for publication in          #
# Acta Crystallographica Section C. It conforms to the requirements of       #
# Notes for Authors for Acta Crystallographica Section C, and has been       #
# peer reviewed under the auspices of the IUCr Commission on Journals.       #
#                                                                            #
# Full details of the Crystallographic Information File format               #
# are given in the paper "The Crystallographic Information File (CIF):       #
# a New Standard Archive File for Crystallography" by S. R. Hall, F. H.      #
# Allen and I. D. Brown [Acta Cryst. (1991), A47, 655-685].                  #
#                                                                            #
# The current version of the core CIF dictionary is obtainable from          #
# ftp://ftp.iucr.org/pub/cif_core.dic.                                       #
#                                                                            #
# Software is freely available for graphical display of the structure(s)     #
# in this CIF. For information consult the CIF software page                 #
# http://www.iucr.org/resources/cif/software.                                #
#                                                                            #
# This file may be used for bona fide research purposes within the           #
# scientific community so long as proper attribution is given to the journal # 
# article from which it was obtained.                                        #
#                                                                            #
##############################################################################
data_AN_Li_b_0m_a
_audit_creation_method     'SHELXL-2016/6'
_database_code_depnum_ccdc_archive     'CCDC 1881197'
_chemical_name_systematic
;\
Aqua[2-(3,4-dichlorophenyl)acetato-\k<i>O</i>](1,10-phenanthroline-\
\k^2^<i>N</i>,<i>N</i>')lithium(I)
;
_chemical_name_common     ?
_chemical_formula_moiety     'C20 H15 Cl2 Li N2 O3'
_chemical_formula_sum     'C20 H15 Cl2 Li N2 O3'
_chemical_formula_iupac     '[Li (C8 H5 Cl2 O2) (C12 H8 N2) (H2 O)]'
_chemical_formula_weight     409.18
_chemical_melting_point     ?
_space_group_crystal_system     triclinic
_space_group_name_H-M_alt     'P -1'
_space_group_name_Hall     '-P 1'
loop_
    _space_group_symop_operation_xyz
    'x, y, z'
    '-x, -y, -z'
_cell_length_a     7.056(2)
_cell_length_b     10.226(5)
_cell_length_c     13.451(5)
_cell_angle_alpha     87.21(2)
_cell_angle_beta     86.978(13)
_cell_angle_gamma     76.42(2)
_cell_volume     941.5(7)
_cell_formula_units_Z     2
_cell_measurement_reflns_used     8992
_cell_measurement_theta_min     2.98
_cell_measurement_theta_max     26.41
_cell_measurement_temperature     296(2)
_exptl_crystal_description     prism
_exptl_crystal_colour     colorless
_exptl_crystal_size_max     0.32
_exptl_crystal_size_mid     0.10
_exptl_crystal_size_min     0.10
_exptl_crystal_density_diffrn     1.443
_exptl_crystal_density_meas     ?
_exptl_crystal_density_method     ?
_exptl_crystal_F_000     420
_exptl_absorpt_coefficient_mu     0.368
_exptl_absorpt_correction_type     multi-scan
_exptl_absorpt_process_details
;
(SADABS; Bruker, 2010)
;
_exptl_absorpt_correction_T_min     0.590733
_exptl_absorpt_correction_T_max     0.745373
_diffrn_ambient_temperature     296(2)
_diffrn_source     ?
_diffrn_radiation_type     MoK\a
_diffrn_radiation_wavelength     0.71073
_diffrn_measurement_device_type     'Bruker APEXII CCD'
_diffrn_measurement_method     '\f and \w scans'
_diffrn_detector_area_resol_mean     ?
_diffrn_reflns_number     29466
_diffrn_reflns_av_R_equivalents     0.0334
_diffrn_reflns_av_unetI/netI     0.0182
_diffrn_reflns_theta_min     2.973
_diffrn_reflns_theta_max     26.381
_diffrn_reflns_theta_full     25.242
_diffrn_measured_fraction_theta_max     0.992
_diffrn_measured_fraction_theta_full     0.995
_diffrn_reflns_limit_h_min     -8
_diffrn_reflns_limit_h_max     8
_diffrn_reflns_limit_k_min     -12
_diffrn_reflns_limit_k_max     12
_diffrn_reflns_limit_l_min     -16
_diffrn_reflns_limit_l_max     16
_refine_special_details     ?
_reflns_number_total     3827
_reflns_number_gt     3197
_reflns_threshold_expression     'I > 2\s(I)'
_refine_ls_structure_factor_coef     Fsqd
_refine_ls_matrix_type     full
_refine_ls_R_factor_all     0.0546
_refine_ls_R_factor_gt     0.0441
_refine_ls_wR_factor_gt     0.1180
_refine_ls_wR_factor_ref     0.1284
_refine_ls_goodness_of_fit_ref     1.028
_refine_ls_restrained_S_all     1.028
_refine_ls_number_reflns     3827
_refine_ls_number_parameters     259
_refine_ls_number_restraints     2
_refine_ls_hydrogen_treatment     mixed
_refine_ls_weighting_scheme     calc
_refine_ls_weighting_details
              'w=1/[\s^2^(Fo^2^)+(0.0637P)^2^+0.5649P] where P=(Fo^2^+2Fc^2^)/3'
_atom_sites_solution_hydrogens     mixed
_atom_sites_solution_primary     ?
_atom_sites_solution_secondary     ?
_refine_ls_shift/su_max     0.000
_refine_ls_shift/su_mean     0.000
_refine_diff_density_max     0.437
_refine_diff_density_min     -0.444
_refine_ls_extinction_method     none
_refine_ls_extinction_coef     .
loop_
    _atom_type_symbol
    _atom_type_description
    _atom_type_scat_dispersion_real
    _atom_type_scat_dispersion_imag
    _atom_type_scat_source
    'C' 'C' 0.0033 0.0016
                         'International Tables Vol C Tables 4.2.6.8 and 6.1.1.4'
    'H' 'H' 0.0000 0.0000
                         'International Tables Vol C Tables 4.2.6.8 and 6.1.1.4'
    'Cl' 'Cl' 0.1484 0.1585
                         'International Tables Vol C Tables 4.2.6.8 and 6.1.1.4'
    'Li' 'Li' -0.0003 0.0001
                         'International Tables Vol C Tables 4.2.6.8 and 6.1.1.4'
    'N' 'N' 0.0061 0.0033
                         'International Tables Vol C Tables 4.2.6.8 and 6.1.1.4'
    'O' 'O' 0.0106 0.0060
                         'International Tables Vol C Tables 4.2.6.8 and 6.1.1.4'
_computing_data_collection
;
APEX2 (Bruker, 2010)
;
_computing_cell_refinement
;
SAINT (Bruker, 2010)
;
_computing_data_reduction
;
SAINT (Bruker, 2010)
;
_computing_structure_solution
;
SHELXS97 (Sheldrick, 2008)
;
_computing_structure_refinement
;
SHELXL2014 (Sheldrick, 2015)
;
_computing_molecular_graphics
;
SHELXTL (Sheldrick, 2008)
;
_computing_publication_material
;
SHELXTL (Sheldrick, 2008)
;
loop_
    _atom_site_type_symbol
    _atom_site_label
    _atom_site_fract_x
    _atom_site_fract_y
    _atom_site_fract_z
    _atom_site_U_iso_or_equiv
    _atom_site_adp_type
    _atom_site_calc_flag
    _atom_site_occupancy
    _atom_site_disorder_assembly
    _atom_site_disorder_group
    Cl Cl1 0.42417(11) 0.83941(6) -0.04450(4) 0.0642(2) Uani d 1 . .
    Cl Cl2 -0.00534(10) 0.80394(8) 0.00756(5) 0.0734(2) Uani d 1 . .
    O O1 0.9135(2) 0.43625(15) 0.31886(11) 0.0480(4) Uani d 1 . .
    O O2 0.5988(2) 0.51587(16) 0.35839(10) 0.0492(4) Uani d 1 . .
    O O3 1.2490(3) 0.47075(17) 0.45196(12) 0.0525(4) Uani d 1 . .
    H H3A 1.277(4) 0.475(3) 0.5101(9) 0.063 Uiso d 1 . .
    H H3B 1.336(3) 0.493(3) 0.4178(18) 0.063 Uiso d 1 . .
    N N1 1.1877(2) 0.16122(16) 0.34819(12) 0.0385(4) Uani d 1 . .
    N N2 1.1291(2) 0.20964(15) 0.54463(12) 0.0341(3) Uani d 1 . .
    C C1 1.2085(4) 0.1363(2) 0.25181(16) 0.0513(5) Uani d 1 . .
    H H1 1.176828 0.208714 0.206344 0.062 Uiso calc 1 . .
    C C2 1.2751(4) 0.0077(3) 0.21479(18) 0.0564(6) Uani d 1 . .
    H H2 1.285669 -0.004676 0.146514 0.068 Uiso calc 1 . .
    C C3 1.3247(3) -0.0996(2) 0.28053(18) 0.0507(6) Uani d 1 . .
    H H3 1.371415 -0.185925 0.257230 0.061 Uiso calc 1 . .
    C C4 1.3048(3) -0.07914(19) 0.38359(16) 0.0373(4) Uani d 1 . .
    C C5 1.3533(3) -0.18614(19) 0.45715(19) 0.0458(5) Uani d 1 . .
    H H5 1.401208 -0.273927 0.437027 0.055 Uiso calc 1 . .
    C C6 1.3308(3) -0.1617(2) 0.55499(18) 0.0453(5) Uani d 1 . .
    H H6 1.365118 -0.232790 0.601357 0.054 Uiso calc 1 . .
    C C7 1.2549(3) -0.02819(19) 0.58897(15) 0.0351(4) Uani d 1 . .
    C C8 1.2275(3) 0.0026(2) 0.69018(16) 0.0481(5) Uani d 1 . .
    H H8 1.259113 -0.065244 0.739262 0.058 Uiso calc 1 . .
    C C9 1.1543(3) 0.1327(3) 0.71580(16) 0.0518(5) Uani d 1 . .
    H H9 1.136576 0.154414 0.782526 0.062 Uiso calc 1 . .
    C C10 1.1061(3) 0.2335(2) 0.64093(16) 0.0442(5) Uani d 1 . .
    H H10 1.055349 0.321598 0.659800 0.053 Uiso calc 1 . .
    C C11 1.2042(2) 0.08038(17) 0.51855(13) 0.0285(4) Uani d 1 . .
    C C12 1.2321(2) 0.05443(17) 0.41369(14) 0.0300(4) Uani d 1 . .
    C C13 0.7370(3) 0.46480(17) 0.29992(13) 0.0340(4) Uani d 1 . .
    C C14 0.6895(3) 0.4312(2) 0.19580(15) 0.0472(5) Uani d 1 . .
    H H14A 0.802539 0.430821 0.151473 0.057 Uiso calc 1 . .
    H H14B 0.668305 0.340659 0.198980 0.057 Uiso calc 1 . .
    C C15 0.5147(3) 0.52449(19) 0.15057(13) 0.0360(4) Uani d 1 . .
    C C16 0.3249(3) 0.5126(2) 0.17414(15) 0.0442(5) Uani d 1 . .
    H H16 0.304035 0.445914 0.220043 0.053 Uiso calc 1 . .
    C C17 0.1666(3) 0.5981(2) 0.13063(16) 0.0479(5) Uani d 1 . .
    H H17 0.040880 0.588283 0.147095 0.058 Uiso calc 1 . .
    C C18 0.1957(3) 0.6986(2) 0.06227(14) 0.0414(5) Uani d 1 . .
    C C19 0.3828(3) 0.71335(19) 0.03927(13) 0.0369(4) Uani d 1 . .
    C C20 0.5416(3) 0.6266(2) 0.08266(14) 0.0382(4) Uani d 1 . .
    H H20 0.667061 0.636774 0.066162 0.046 Uiso calc 1 . .
    Li Li1 1.0846(5) 0.3505(3) 0.4211(3) 0.0436(8) Uani d 1 . .
loop_
    _atom_site_aniso_label
    _atom_site_aniso_U_11
    _atom_site_aniso_U_22
    _atom_site_aniso_U_33
    _atom_site_aniso_U_12
    _atom_site_aniso_U_13
    _atom_site_aniso_U_23
    Cl1 0.0972(5) 0.0556(4) 0.0443(3) -0.0300(3) -0.0044(3) 0.0129(3)
    Cl2 0.0581(4) 0.0924(5) 0.0540(4) 0.0152(3) -0.0162(3) 0.0057(3)
    O1 0.0454(8) 0.0467(8) 0.0490(9) -0.0027(6) -0.0169(7) 0.0015(7)
    O2 0.0505(9) 0.0629(10) 0.0339(7) -0.0104(7) -0.0034(6) -0.0113(7)
    O3 0.0636(10) 0.0559(9) 0.0484(9) -0.0328(8) -0.0240(8) 0.0125(7)
    N1 0.0474(9) 0.0325(8) 0.0382(9) -0.0138(7) -0.0065(7) 0.0022(6)
    N2 0.0355(8) 0.0285(8) 0.0389(8) -0.0086(6) -0.0027(6) -0.0013(6)
    C1 0.0676(15) 0.0554(13) 0.0367(11) -0.0260(11) -0.0044(10) 0.0019(9)
    C2 0.0663(15) 0.0681(16) 0.0413(12) -0.0280(12) 0.0056(10) -0.0142(11)
    C3 0.0467(12) 0.0476(12) 0.0610(14) -0.0155(10) 0.0082(10) -0.0238(11)
    C4 0.0298(9) 0.0307(9) 0.0535(12) -0.0102(7) -0.0012(8) -0.0081(8)
    C5 0.0384(10) 0.0237(9) 0.0747(15) -0.0046(8) -0.0055(10) -0.0036(9)
    C6 0.0416(11) 0.0282(9) 0.0654(14) -0.0075(8) -0.0118(10) 0.0131(9)
    C7 0.0286(9) 0.0341(9) 0.0438(10) -0.0106(7) -0.0069(7) 0.0094(8)
    C8 0.0490(12) 0.0528(13) 0.0426(11) -0.0143(10) -0.0085(9) 0.0157(9)
    C9 0.0559(13) 0.0654(15) 0.0355(11) -0.0173(11) -0.0002(9) -0.0009(10)
    C10 0.0454(11) 0.0424(11) 0.0446(11) -0.0095(9) 0.0007(9) -0.0068(9)
    C11 0.0235(8) 0.0259(8) 0.0379(9) -0.0094(6) -0.0038(7) 0.0023(7)
    C12 0.0261(8) 0.0266(8) 0.0393(9) -0.0097(6) -0.0035(7) -0.0009(7)
    C13 0.0451(10) 0.0247(8) 0.0326(9) -0.0077(7) -0.0101(8) 0.0017(7)
    C14 0.0562(13) 0.0442(11) 0.0361(10) 0.0024(9) -0.0129(9) -0.0098(9)
    C15 0.0448(10) 0.0375(10) 0.0259(8) -0.0075(8) -0.0078(7) -0.0074(7)
    C16 0.0550(12) 0.0471(11) 0.0344(10) -0.0203(10) -0.0028(9) 0.0041(8)
    C17 0.0419(11) 0.0651(14) 0.0390(11) -0.0174(10) -0.0016(9) 0.0004(10)
    C18 0.0421(11) 0.0494(11) 0.0293(9) -0.0020(9) -0.0079(8) -0.0037(8)
    C19 0.0512(11) 0.0382(10) 0.0225(8) -0.0120(8) -0.0036(7) -0.0020(7)
    C20 0.0420(10) 0.0462(11) 0.0299(9) -0.0156(8) -0.0037(8) -0.0068(8)
    Li1 0.053(2) 0.0339(17) 0.0472(19) -0.0144(14) -0.0205(15) 0.0085(14)
_geom_special_details
;
 All esds (except the esd in the dihedral angle between two l.s. planes)
 are estimated using the full covariance matrix.  The cell esds are taken
 into account individually in the estimation of esds in distances, angles
 and torsion angles; correlations between esds in cell parameters are only
 used when they are defined by crystal symmetry.  An approximate (isotropic)
 treatment of cell esds is used for estimating esds involving l.s. planes.
;
loop_
    _geom_bond_atom_site_label_1
    _geom_bond_atom_site_label_2
    _geom_bond_site_symmetry_2
    _geom_bond_distance
    _geom_bond_publ_flag
    Li1 O1 . 1.918(4) y
    Li1 O3 . 1.950(4) y
    Li1 N1 . 2.164(4) y
    Li1 N2 . 2.132(4) y
    N1 C1 . 1.327(3) y
    N1 C12 . 1.357(2) y
    N2 C10 . 1.324(3) y
    N2 C11 . 1.359(2) y
    Cl1 C19 . 1.737(2) ?
    Cl2 C18 . 1.741(2) ?
    O1 C13 . 1.248(2) ?
    O2 C13 . 1.250(2) ?
    O3 H3A . 0.822(10) ?
    O3 H3B . 0.815(10) ?
    C1 C2 . 1.395(3) ?
    C1 H1 . 0.9300 ?
    C2 C3 . 1.367(4) ?
    C2 H2 . 0.9300 ?
    C3 C4 . 1.407(3) ?
    C3 H3 . 0.9300 ?
    C4 C12 . 1.413(3) ?
    C4 C5 . 1.431(3) ?
    C5 C6 . 1.346(3) ?
    C5 H5 . 0.9300 ?
    C6 C7 . 1.432(3) ?
    C6 H6 . 0.9300 ?
    C7 C8 . 1.405(3) ?
    C7 C11 . 1.416(2) ?
    C8 C9 . 1.364(3) ?
    C8 H8 . 0.9300 ?
    C9 C10 . 1.401(3) ?
    C9 H9 . 0.9300 ?
    C10 H10 . 0.9300 ?
    C11 C12 . 1.443(3) ?
    C13 C14 . 1.531(3) ?
    C14 C15 . 1.507(3) ?
    C14 H14A . 0.9700 ?
    C14 H14B . 0.9700 ?
    C15 C16 . 1.392(3) ?
    C15 C20 . 1.394(3) ?
    C16 C17 . 1.384(3) ?
    C16 H16 . 0.9300 ?
    C17 C18 . 1.390(3) ?
    C17 H17 . 0.9300 ?
    C18 C19 . 1.381(3) ?
    C19 C20 . 1.391(3) ?
    C20 H20 . 0.9300 ?
loop_
    _geom_angle_atom_site_label_1
    _geom_angle_atom_site_label_2
    _geom_angle_atom_site_label_3
    _geom_angle_site_symmetry_1
    _geom_angle_site_symmetry_3
    _geom_angle
    _geom_angle_publ_flag
    C13 O1 Li1 . . 140.53(18) y
    C1 N1 Li1 . . 129.77(17) y
    C12 N1 Li1 . . 112.75(15) y
    C10 N2 Li1 . . 128.55(17) y
    C11 N2 Li1 . . 113.78(16) y
    C1 N1 C12 . . 117.47(18) y
    Li1 O3 H3A . . 119(2) ?
    Li1 O3 H3B . . 129(2) ?
    H3A O3 H3B . . 106(3) ?
    C10 N2 C11 . . 117.48(17) ?
    N1 C1 C2 . . 123.8(2) ?
    N1 C1 H1 . . 118.1 ?
    C2 C1 H1 . . 118.1 ?
    C3 C2 C1 . . 118.9(2) ?
    C3 C2 H2 . . 120.6 ?
    C1 C2 H2 . . 120.6 ?
    C2 C3 C4 . . 119.7(2) ?
    C2 C3 H3 . . 120.1 ?
    C4 C3 H3 . . 120.1 ?
    C3 C4 C12 . . 117.09(19) ?
    C3 C4 C5 . . 123.16(19) ?
    C12 C4 C5 . . 119.75(18) ?
    C6 C5 C4 . . 121.04(18) ?
    C6 C5 H5 . . 119.5 ?
    C4 C5 H5 . . 119.5 ?
    C5 C6 C7 . . 121.15(18) ?
    C5 C6 H6 . . 119.4 ?
    C7 C6 H6 . . 119.4 ?
    C8 C7 C11 . . 117.05(18) ?
    C8 C7 C6 . . 123.39(18) ?
    C11 C7 C6 . . 119.55(18) ?
    C9 C8 C7 . . 119.44(19) ?
    C9 C8 H8 . . 120.3 ?
    C7 C8 H8 . . 120.3 ?
    C8 C9 C10 . . 119.6(2) ?
    C8 C9 H9 . . 120.2 ?
    C10 C9 H9 . . 120.2 ?
    N2 C10 C9 . . 123.3(2) ?
    N2 C10 H10 . . 118.4 ?
    C9 C10 H10 . . 118.4 ?
    N2 C11 C7 . . 123.19(17) ?
    N2 C11 C12 . . 117.59(15) ?
    C7 C11 C12 . . 119.23(16) ?
    N1 C12 C4 . . 122.99(18) ?
    N1 C12 C11 . . 117.75(16) ?
    C4 C12 C11 . . 119.26(16) ?
    O1 C13 O2 . . 125.84(18) ?
    O1 C13 C14 . . 115.85(18) ?
    O2 C13 C14 . . 118.30(18) ?
    C15 C14 C13 . . 115.93(16) ?
    C15 C14 H14A . . 108.3 ?
    C13 C14 H14A . . 108.3 ?
    C15 C14 H14B . . 108.3 ?
    C13 C14 H14B . . 108.3 ?
    H14A C14 H14B . . 107.4 ?
    C16 C15 C20 . . 118.15(18) ?
    C16 C15 C14 . . 122.23(19) ?
    C20 C15 C14 . . 119.62(19) ?
    C17 C16 C15 . . 121.32(19) ?
    C17 C16 H16 . . 119.3 ?
    C15 C16 H16 . . 119.3 ?
    C16 C17 C18 . . 119.9(2) ?
    C16 C17 H17 . . 120.0 ?
    C18 C17 H17 . . 120.0 ?
    C19 C18 C17 . . 119.57(19) ?
    C19 C18 Cl2 . . 121.32(17) ?
    C17 C18 Cl2 . . 119.12(17) ?
    C18 C19 C20 . . 120.31(18) ?
    C18 C19 Cl1 . . 120.77(16) ?
    C20 C19 Cl1 . . 118.92(16) ?
    C19 C20 C15 . . 120.74(18) ?
    C19 C20 H20 . . 119.6 ?
    C15 C20 H20 . . 119.6 ?
    O1 Li1 O3 . . 108.37(17) ?
    O1 Li1 N2 . . 146.7(2) ?
    O3 Li1 N2 . . 101.65(16) ?
    O1 Li1 N1 . . 95.98(16) ?
    O3 Li1 N1 . . 124.7(2) ?
    N2 Li1 N1 . . 78.02(13) ?
loop_
    _geom_hbond_atom_site_label_D
    _geom_hbond_atom_site_label_H
    _geom_hbond_atom_site_label_A
    _geom_hbond_site_symmetry_A
    _geom_hbond_distance_DH
    _geom_hbond_distance_HA
    _geom_hbond_distance_DA
    _geom_hbond_angle_DHA
    _geom_hbond_publ_flag
    O3 H3A O2 2_766 0.822(15) 2.031(18) 2.841(3) 168(3) yes
    O3 H3B O2 1_655 0.82(2) 2.04(2) 2.835(3) 165(3) yes
_shelx_space_group_comment
;
The symmetry employed for this shelxl refinement is uniquely defined
by the following loop, which should always be used as a source of
symmetry information in preference to the above space-group names.
They are only intended as comments.
;
_shelx_estimated_absorpt_T_min     ?
_shelx_estimated_absorpt_T_max     ?
_shelx_hkl_file
;
  -1   0   0  123.19    4.20
   1   0   0  114.99    4.90
   1   0   0  122.49    4.30
  -2   0   0 5289.27  138.69
  -2   0   0 4940.81  139.59
  -2   0   0 5092.79  139.99
   2   0   0 5078.39  139.09
   2   0   0 4982.80  139.99
   2   0   0 5021.90  139.59
  -3   0   0  155.78    6.10
  -3   0   0  145.79    7.20
  -3   0   0  161.88    7.10
  -3   0   0  154.98    5.80
   3   0   0  148.89    7.70
   3   0   0  157.68    6.20
   3   0   0  152.98    6.90
   3   0   0  177.18    5.80
   3   0   0  161.28    5.50
   3   0   0  161.78    7.00
  -4   0   0  183.28    7.50
  -4   0   0  180.98    7.20
  -4   0   0  189.98    8.80
   4   0   0  185.18    7.10
   4   0   0  187.28    9.60
   4   0   0  175.98    8.70
   4   0   0  182.28    7.70
   4   0   0  201.58    6.60
  -5   0   0  195.78   10.50
  -5   0   0  172.68    7.70
  -5   0   0  201.58    8.20
  -5   0   0  183.88   10.10
   5   0   0  199.58    9.90
   5   0   0  170.88   11.10
   5   0   0  195.08    7.60
   5   0   0  180.48    7.00
   5   0   0  170.38   11.30
  -6   0   0   47.80    7.40
  -7   0   0   -0.80    4.60
  -7   0   0    8.70    5.20
  -7   0   0    8.00    3.50
  -7   0   0    9.40    4.10
  -7   0   0   10.70    3.40
   7   0   0    4.00    5.30
   7   0   0    7.00    7.00
   7   0   0    2.20    4.40
   7   0   0    7.80    3.20
  -8   0   0    6.90    4.70
  -8   0   0    5.00    6.70
  -8   0   0   -3.00    6.40
  -8   0   0    9.70    4.40
   8   0   0    7.40    4.10
   8   0   0   -0.90    6.70
   8   0   0  -13.00    8.10
   8   0   0  -13.20    6.00
   8  -1   0   -1.50    3.90
   8  -1   0   12.40    5.60
   8  -1   0    3.30    8.40
  -8   1   0   -3.20    6.80
  -8   1   0   -1.10    3.60
  -8   1   0   -3.00    6.20
  -8   1   0   -1.80    6.00
  -8   1   0   -9.50    3.90
   7  -1   0    3.30    3.30
   7  -1   0   11.90    7.40
   7  -1   0    6.80    5.30
  -7   1   0    1.60    4.40
  -7   1   0    7.10    3.40
  -7   1   0    2.90    3.30
  -7   1   0    2.00    4.50
   6  -1   0    2.40    4.00
   6  -1   0    6.00    5.40
   6  -1   0    3.10    2.50
   6  -1   0    0.60    2.20
  -6   1   0    0.90    2.70
  -6   1   0    2.00    4.00
  -6   1   0    2.00    3.30
  -6   1   0    4.10    2.60
   5  -1   0  617.54   20.10
   5  -1   0  626.24   17.90
   5  -1   0  658.63   22.00
   5  -1   0  535.35   17.30
   5  -1   0  533.25   19.30
  -5   1   0  542.85   18.00
  -5   1   0  490.55   20.10
  -5   1   0  575.94   19.20
  -5   1   0  570.14   18.10
   4  -1   0   36.00    4.50
   4  -1   0   26.10    4.10
   3  -1   0   59.19    3.70
   3  -1   0   72.59    3.40
   3  -1   0   51.59    5.20
  -3   1   0   65.19    3.40
  -3   1   0   58.79    4.20
  -3   1   0   58.29    2.50
  -3   1   0   68.59    3.40
  -3   1   0   69.89    4.80
  -3   1   0   54.39    4.40
   2  -1   0 2622.04   69.09
   2  -1   0 2502.75   69.19
   2  -1   0 2509.55   68.79
   2  -1   0 2424.66   69.49
   2  -1   0 2423.76   69.99
   2  -1   0 2510.75   68.99
  -2   1   0 2519.35   68.79
  -2   1   0 2406.76   68.99
  -2   1   0 2479.85   68.99
  -2   1   0 2575.24   70.09
  -2   1   0 2530.65   69.69
   1  -1   0   26.80    1.50
   1  -1   0   25.10    1.40
   1  -1   0   28.20    1.40
   1  -1   0   25.40    2.00
   1  -1   0   26.60    1.60
  -1   1   0   26.00    1.40
  -1   1   0   25.30    1.70
  -1   1   0   26.40    1.50
  -1   1   0   21.80    1.70
  -1  -1   0 2151.58   55.79
  -1  -1   0 1758.82   55.79
  -1  -1   0 2108.49   55.49
   1   1   0 1758.82   55.59
   1   1   0 2104.99   55.79
   1   1   0 2191.88   55.89
  -3  -1   0  168.58    7.70
  -3  -1   0  178.08    6.80
  -3  -1   0  174.18    6.30
  -3  -1   0  180.98    5.40
  -3  -1   0  170.98    7.20
   3   1   0  166.08    6.90
   3   1   0  181.98    7.40
   3   1   0  170.28    6.20
   3   1   0  162.18    7.80
  -4  -1   0  770.12   23.90
  -4  -1   0  749.03   22.90
  -4  -1   0  762.72   22.40
  -4  -1   0  747.43   22.00
   4   1   0  746.83   24.30
   4   1   0  740.53   23.10
   4   1   0  754.22   24.20
   4   1   0  743.83   22.30
   4   1   0  734.53   24.70
  -5  -1   0  149.29    9.10
  -5  -1   0  161.48    9.40
  -5  -1   0  174.48    7.80
  -5  -1   0  162.58    6.80
  -5  -1   0  155.58    7.20
   5   1   0  161.78    8.10
   5   1   0  163.28    6.90
   5   1   0  156.38   10.00
   5   1   0  161.48    9.40
  -6  -1   0   87.09    6.40
  -6  -1   0   80.09    8.60
  -7  -1   0   14.00    5.40
  -7  -1   0    5.20    3.20
  -7  -1   0   15.50    3.90
  -7  -1   0   11.70    5.60
   7   1   0    7.20    6.50
   7   1   0   13.70    3.60
   7   1   0   10.40    4.70
   7   1   0    0.70    5.50
  -8  -1   0   -0.40    6.40
  -8  -1   0    3.80    3.70
  -8  -1   0    2.60    4.50
  -8  -1   0    6.20    6.70
   8   1   0   -3.00    4.10
   8   1   0   10.30    5.20
   8   1   0    5.40    8.50
   8   1   0   -5.10    6.20
   8  -2   0   12.00    5.10
   8  -2   0   -3.50    3.80
   8  -2   0    1.00    8.70
  -8   2   0    1.50    3.90
  -8   2   0   -3.90    7.50
  -8   2   0   -8.60    4.10
  -8   2   0    9.30    6.90
  -8   2   0   -8.60    5.70
   7  -2   0   52.59    5.90
   7  -2   0   63.09    7.50
   7  -2   0   52.99   11.00
   7  -2   0   43.40    5.40
  -7   2   0   51.69    6.30
  -7   2   0   33.30    7.00
  -7   2   0   42.50    5.50
  -7   2   0   47.10    5.00
   6  -2   0   34.10    4.60
   6  -2   0   38.10    7.10
   6  -2   0   20.40    4.70
   6  -2   0   42.00    4.40
  -6   2   0   48.80    5.30
  -6   2   0   36.00    6.50
  -6   2   0   35.70    4.80
  -6   2   0   27.70    4.20
   5  -2   0  645.94   19.40
   5  -2   0  608.84   19.30
   5  -2   0  630.14   20.30
   5  -2   0  617.04   22.70
  -5   2   0  635.04   19.60
  -5   2   0  637.24   22.50
  -5   2   0  599.74   19.60
  -5   2   0  646.64   20.30
   4  -2   0  107.59    5.20
   4  -2   0  113.09    5.60
   4  -2   0  111.79    7.50
   4  -2   0  104.09    5.80
  -4   2   0  106.99    5.40
  -4   2   0  110.39    7.40
  -4   2   0  110.69    5.30
  -4   2   0  119.19    5.50
  -4   2   0  108.19    6.50
   3  -2   0  715.43   20.60
   3  -2   0  651.53   21.50
   3  -2   0  708.03   21.00
   3  -2   0  677.73   22.30
   3  -2   0  704.83   20.50
  -3   2   0  722.13   20.70
  -3   2   0  738.63   21.90
  -3   2   0  706.13   20.70
  -3   2   0  700.23   20.70
  -3   2   0  713.33   20.60
   2  -2   0  340.27   10.50
   2  -2   0  321.77   10.10
   2  -2   0  321.77   11.00
   2  -2   0  335.97   10.40
   2  -2   0  313.07   10.20
  -2   2   0  328.37   10.10
  -2   2   0  332.47    9.70
  -2   2   0  320.17   10.60
  -2   2   0  311.87   10.10
  -2   2   0  355.26   10.40
   1  -2   0  303.97    8.90
   1  -2   0  290.37    9.00
   1  -2   0  290.07    9.30
   1  -2   0  293.77    8.90
  -1   2   0  295.87    9.30
  -1   2   0  288.37    8.90
  -1   2   0  278.17    8.90
   0  -2   0 2056.19   56.99
   0  -2   0 2095.79   57.19
   0  -2   0 2044.30   57.49
   0   2   0 1979.00   57.49
   0   2   0 2092.69   57.09
   0   2   0 2116.19   56.99
   1   2   0 6324.27  173.08
  -3  -2   0 1056.59   31.10
  -3  -2   0 1052.49   31.70
  -3  -2   0 1077.99   30.90
  -3  -2   0 1041.40   29.90
   3   2   0 1069.69   30.20
   3   2   0 1087.89   31.20
   3   2   0  981.60   31.60
   3   2   0 1037.60   30.80
  -4  -2   0 3546.65   96.69
  -4  -2   0 3306.37   95.09
  -4  -2   0 3353.16   94.49
  -4  -2   0 3356.66   97.19
   4   2   0 3497.15   95.99
   4   2   0 3595.54   97.79
   4   2   0 3460.05   96.59
   4   2   0 3495.25   98.29
  -5  -2   0   73.29    7.40
  -5  -2   0   71.39    3.40
  -5  -2   0   72.19    5.80
  -5  -2   0   64.09    6.70
  -5  -2   0   59.49    2.90
   5   2   0   73.59    6.10
   5   2   0   68.59    7.60
   5   2   0   75.49    5.10
   5   2   0   59.39    9.90
   5   2   0   78.49    7.40
  -6  -2   0 1045.50   34.10
  -6  -2   0 1078.19   35.10
  -6  -2   0 1048.00   29.90
  -6  -2   0 1059.29   32.50
   6   2   0 1056.79   32.60
   6   2   0 1026.80   34.70
   6   2   0 1067.79   31.60
   6   2   0 1059.79   34.10
   6   2   0 1024.90   35.30
  -7  -2   0   16.00    4.00
  -7  -2   0   23.10    6.10
  -7  -2   0   16.20    4.20
  -7  -2   0   22.40    3.30
   7   2   0   24.40    3.90
   7   2   0   29.50    7.80
   7   2   0   15.70    4.80
   7   2   0   23.70    6.30
   7   2   0   19.90    5.90
  -8  -2   0   -1.50    6.60
  -8  -2   0    9.70    4.70
  -8  -2   0    2.10    5.90
  -8  -2   0    0.20    4.00
   8   2   0   -1.50    5.20
   8   2   0   11.90    7.30
   8   2   0    1.40    8.10
   8   2   0    8.00    4.50
   7  -3   0   31.10   14.30
   7  -3   0   63.19    6.60
   7  -3   0   77.99    6.70
   7  -3   0   74.49    8.00
  -7   3   0   61.69    9.20
  -7   3   0   57.39    6.90
  -7   3   0   55.09    6.90
  -7   3   0   51.29    6.60
   6  -3   0    5.50    2.70
   6  -3   0   -1.20    2.80
   6  -3   0    0.80    3.40
   6  -3   0    4.70    5.60
  -6   3   0    0.40    2.60
  -6   3   0    4.70    5.10
  -6   3   0    2.10    2.70
  -6   3   0    3.20    2.90
   5  -3   0    7.80    4.40
   5  -3   0    4.80    3.60
   5  -3   0    2.00    2.90
   5  -3   0    5.30    2.40
  -5   3   0    3.70    2.30
  -5   3   0    4.10    2.60
  -5   3   0    3.90    2.40
  -5   3   0    5.40    4.00
   4  -3   0  520.35   18.30
   4  -3   0  494.65   15.60
   4  -3   0  503.05   16.30
   4  -3   0  494.75   16.60
   4  -3   0  504.75   15.80
  -4   3   0  507.35   15.70
  -4   3   0  504.05   17.30
  -4   3   0  494.95   16.00
  -4   3   0  524.05   15.40
  -4   3   0  521.75   16.00
  -4   3   0  465.15   18.10
   3  -3   0  998.20   28.90
   3  -3   0 1019.00   29.20
   3  -3   0  982.90   28.90
   3  -3   0  999.90   28.60
   3  -3   0  984.50   30.10
  -3   3   0  983.40   28.60
  -3   3   0  977.90   27.70
  -3   3   0  983.00   28.90
  -3   3   0  965.70   28.60
  -3   3   0  965.90   29.50
   2  -3   0 1777.12   50.29
   2  -3   0 1790.52   50.79
   2  -3   0 1734.53   50.79
   2  -3   0 1854.31   50.79
   2  -3   0 1818.82   50.29
  -2   3   0 1820.22   50.29
  -2   3   0 1737.63   50.19
  -2   3   0 1785.02   50.69
   1  -3   0    3.10    1.50
   1  -3   0    3.50    1.20
  -1   3   0    2.40    1.10
  -1   3   0    5.10    1.20
  -1   3   0    3.10    1.40
  -1  -3   0  897.71   26.00
  -1  -3   0  956.80   26.90
  -1  -3   0  898.01   26.10
  -1  -3   0  925.41   26.60
   1   3   0  875.61   26.60
   1   3   0  895.91   26.50
   1   3   0  938.11   26.20
   1   3   0  902.41   26.40
  -2  -3   0  106.79    5.30
  -2  -3   0  123.89    5.40
  -2  -3   0  110.79    5.50
  -2  -3   0  114.69    5.40
  -2  -3   0  113.89    4.90
   2   3   0  110.19    5.30
   2   3   0  121.49    4.90
   2   3   0  101.39    5.30
   2   3   0  112.89    5.50
   2   3   0  113.99    5.20
  -3  -3   0    5.60    2.10
  -3  -3   0   -0.20    1.50
  -3  -3   0    1.80    2.00
  -3  -3   0    0.60    2.40
  -3  -3   0    1.40    1.70
   3   3   0    3.60    2.00
   3   3   0    0.10    2.00
   3   3   0    0.00    1.70
   3   3   0    1.90    1.70
   3   3   0   -1.80    2.50
  -4  -3   0 3174.88   91.19
  -4  -3   0 3257.17   97.99
  -4  -3   0 3367.66   92.19
  -4  -3   0 3262.67   92.39
  -4  -3   0 3244.48   90.89
   4   3   0 3271.07   91.89
   4   3   0 3388.66   97.29
   4   3   0 3183.68   93.19
   4   3   0 3275.07   92.29
  -5  -3   0  377.56   14.80
  -5  -3   0  367.76   11.90
  -5  -3   0  368.76   13.10
  -5  -3   0  378.56   15.40
  -5  -3   0  380.86   14.10
   5   3   0  352.16   15.90
   5   3   0  369.76   14.00
  -6  -3   0  946.61   30.00
  -6  -3   0  979.50   32.30
  -6  -3   0 1017.60   33.50
  -6  -3   0  990.90   31.00
  -6  -3   0  908.01   27.80
   6   3   0  944.71   33.30
   6   3   0  993.00   30.00
   6   3   0 1008.30   32.30
   6   3   0 1009.50   33.40
   6   3   0  994.80   31.00
  -7  -3   0   27.10    4.40
  -7  -3   0   25.00    5.90
  -7  -3   0   26.80    6.90
  -7  -3   0   32.90    5.50
   7   3   0   20.70    6.30
   7   3   0   22.90    7.00
   7   3   0   37.60    5.60
   7   3   0   19.80    4.20
   7   3   0   37.00    7.90
  -8  -3   0   20.20    4.70
  -8  -3   0   26.90    5.50
  -8  -3   0   34.00    8.70
  -8  -3   0   28.30    7.50
   8   3   0   23.30    7.70
   8   3   0   20.30    5.00
   8   3   0   15.00    5.40
   8   3   0   30.70    9.10
   7  -4   0   -1.10    3.90
   7  -4   0   -3.80    7.40
   7  -4   0    4.60    3.70
   7  -4   0   -1.20    4.10
  -7   4   0    0.00    6.70
  -7   4   0    2.00    3.80
  -7   4   0   -1.90    2.70
  -7   4   0  -10.50    6.20
   6  -4   0   33.20    4.50
   6  -4   0   35.90    6.20
   6  -4   0   36.10    7.70
   6  -4   0   39.50    5.40
  -6   4   0   28.50    4.30
  -6   4   0   38.60    4.30
  -6   4   0   29.00    3.90
   5  -4   0    2.00    3.10
   5  -4   0   -0.10    2.30
   5  -4   0    0.80    1.90
   5  -4   0    1.30    4.80
  -5   4   0    4.40    2.60
  -5   4   0    5.10    2.60
  -5   4   0    1.00    1.50
  -5   4   0   -1.00    3.50
  -5   4   0    6.80    4.60
   4  -4   0  252.77    9.60
   4  -4   0  249.48    9.60
   4  -4   0  245.88   10.40
   4  -4   0  260.27   11.70
   4  -4   0  254.07   10.30
  -4   4   0  250.77   10.90
  -4   4   0  240.38    9.60
  -4   4   0  259.87    9.90
  -4   4   0  238.68    9.50
   3  -4   0  432.36   15.40
   3  -4   0  448.26   14.30
   3  -4   0  460.35   14.50
   3  -4   0  446.96   15.10
   3  -4   0  435.36   14.90
  -3   4   0  442.76   14.90
  -3   4   0  453.45   14.30
  -3   4   0  452.75   15.10
  -3   4   0  423.26   14.30
   2  -4   0  591.94   19.10
   2  -4   0  607.04   18.40
   2  -4   0  596.54   18.60
   2  -4   0  611.64   18.30
  -2   4   0  585.14   18.30
  -2   4   0  602.74   18.30
  -2   4   0  598.84   19.10
   1  -4   0   51.99    4.30
   1  -4   0   53.99    3.70
   1  -4   0   59.59    2.10
   1  -4   0   56.99    3.70
  -1   4   0   59.59    4.60
  -1   4   0   57.39    3.50
  -1   4   0   51.59    3.60
   0  -4   0  307.37   10.10
   0  -4   0  306.17   10.40
   0  -4   0  304.57   11.00
   0   4   0  312.17   10.10
   0   4   0  297.17   11.00
   0   4   0  312.57   10.20
  -1  -4   0    2.20    1.70
  -1  -4   0    1.70    1.60
  -1  -4   0    0.20    1.30
  -1  -4   0    3.40    1.10
   1   4   0    1.40    1.60
   1   4   0   -0.20    1.60
   1   4   0   -1.30    1.80
   1   4   0    2.70    1.40
  -2  -4   0    7.50    2.10
  -2  -4   0    6.10    2.00
  -2  -4   0    2.70    2.20
  -2  -4   0    2.00    1.90
  -2  -4   0    6.90    1.90
   2   4   0    1.20    2.20
   2   4   0    4.70    1.90
   2   4   0    3.90    2.00
   2   4   0    2.80    1.70
   2   4   0    3.40    2.00
  -3  -4   0    1.90    2.30
  -3  -4   0    6.40    2.40
  -3  -4   0    1.00    1.90
  -3  -4   0    2.50    2.00
  -3  -4   0    0.90    2.10
   3   4   0    2.90    2.30
   3   4   0    1.50    2.50
   3   4   0    2.00    2.50
  -4  -4   0  151.38    8.00
  -4  -4   0  169.28    7.30
  -4  -4   0  164.28   10.10
  -4  -4   0  160.78    7.30
  -4  -4   0  156.38    8.50
   4   4   0  160.68    8.70
   4   4   0  157.08    7.30
   4   4   0  145.69    8.10
   4   4   0  153.78    8.10
  -5  -4   0  219.98   10.80
  -5  -4   0  209.48    9.20
  -5  -4   0  251.47    9.00
   5   4   0  195.68   10.30
   5   4   0  202.48   11.70
   5   4   0  221.28   10.30
   5   4   0  203.08    9.10
  -6  -4   0  356.06   15.80
  -6  -4   0  349.37   14.60
  -6  -4   0  360.66   16.40
  -6  -4   0  358.76   13.60
  -6  -4   0  317.57   11.90
   6   4   0  338.27   17.00
   6   4   0  362.16   13.50
   6   4   0  357.66   15.50
   6   4   0  339.57   14.50
  -7  -4   0   12.80    6.00
  -7  -4   0    6.90    6.10
  -7  -4   0    5.10    4.30
  -7  -4   0   -2.10    3.90
   7   4   0    4.60    4.00
   7   4   0    1.90    4.60
   7   4   0   -8.10    6.20
   7   4   0   -5.20    6.00
   7   4   0    6.90    5.80
  -8  -4   0  415.56   23.10
  -8  -4   0  454.65   20.90
  -8  -4   0  440.16   19.00
  -8  -4   0  442.26   17.40
   8   4   0  455.95   21.40
   8   4   0  450.75   17.80
   8   4   0  482.05   23.70
   8   4   0  420.06   18.40
   8   4   0  437.96   22.00
   7  -5   0   36.20    5.60
   7  -5   0   17.20    9.20
   7  -5   0   22.80    5.10
   7  -5   0   28.90    4.60
  -7   5   0   30.80    5.10
  -7   5   0   23.90    8.40
  -7   5   0   32.90    5.00
   6  -5   0   60.09    6.60
   6  -5   0   64.19    9.30
   6  -5   0   68.29    8.00
  -6   5   0   53.09    6.60
  -6   5   0   48.80    8.10
  -6   5   0   60.99    7.00
   5  -5   0   13.50    3.90
   5  -5   0    6.30    3.00
   5  -5   0    0.70    4.90
   5  -5   0    3.20    2.80
   5  -5   0    6.10    3.70
  -5   5   0   13.40    4.10
  -5   5   0   10.80    3.30
  -5   5   0    6.40    3.00
  -5   5   0    7.50    5.00
   4  -5   0   19.30    3.60
   4  -5   0   20.80    3.10
   4  -5   0   12.90    3.20
   4  -5   0   17.00    4.10
   4  -5   0    8.00    4.40
  -4   5   0   23.90    5.10
  -4   5   0   19.60    3.00
  -4   5   0   20.00    3.20
  -4   5   0   16.50    3.60
   3  -5   0  233.78   10.10
   3  -5   0  222.78    9.80
   3  -5   0  230.88    9.00
   3  -5   0  227.28   10.00
   3  -5   0  239.18    9.20
  -3   5   0  230.88    9.00
  -3   5   0  221.68    9.60
  -3   5   0  234.68   10.10
  -3   5   0  228.28    9.20
   2  -5   0    7.90    2.10
   2  -5   0    2.30    2.70
   2  -5   0   12.20    2.20
   2  -5   0   11.50    2.30
  -2   5   0    7.90    2.20
  -2   5   0    8.50    3.00
  -2   5   0   10.90    2.20
   1  -5   0  850.91   26.80
   1  -5   0  923.61   27.20
   1  -5   0  943.21   28.50
   1  -5   0  940.61   27.50
  -1   5   0  925.21   27.20
  -1   5   0  922.51   28.30
  -1   5   0  914.01   27.30
   0  -5   0  459.85   14.90
   0  -5   0  469.95   16.10
   0  -5   0  451.45   15.20
   0   5   0  466.65   16.10
   0   5   0  466.55   15.00
   0   5   0  487.15   15.00
  -1  -5   0 2029.80   51.49
  -1  -5   0 2004.00   53.59
  -1  -5   0 1725.63   51.99
  -1  -5   0 1964.90   52.99
   1   5   0 1726.53   52.69
   1   5   0 1794.72   53.19
   1   5   0 1730.23   52.29
   1   5   0 1713.23   51.99
  -2  -5   0 3112.89   85.99
  -2  -5   0 3049.79   85.59
  -2  -5   0 3012.60   84.69
  -2  -5   0 3062.79   84.79
   2   5   0 3049.09   84.89
   2   5   0 3025.40   85.49
   2   5   0 2915.61   85.19
   2   5   0 3004.60   85.69
  -3  -5   0  190.98    8.00
  -3  -5   0  190.58    8.70
  -3  -5   0  193.08    8.80
  -3  -5   0  188.68    8.80
  -3  -5   0  196.08    8.50
   3   5   0  169.58   11.90
   3   5   0  192.98    8.70
   3   5   0  192.58    8.90
   3   5   0  178.38    8.50
  -4  -5   0  270.27   11.80
  -4  -5   0  284.97   11.30
  -4  -5   0  296.47   12.10
  -4  -5   0  294.37   11.10
  -4  -5   0  280.97   12.00
   4   5   0  280.47   11.20
   4   5   0  292.97   12.10
   4   5   0  281.27   12.40
   4   5   0  277.87    8.30
   4   5   0  281.47   11.30
   4   5   0  297.97   12.10
  -5  -5   0   33.10    4.20
  -5  -5   0   33.10    4.70
  -5  -5   0   34.30    5.20
  -5  -5   0   37.30    4.80
  -5  -5   0   25.10    4.40
   5   5   0   29.40    5.00
   5   5   0   30.70    5.60
   5   5   0   38.00    5.60
   5   5   0   37.60    5.30
  -6  -5   0   15.90    3.80
  -6  -5   0   11.90    5.30
  -6  -5   0   10.30    2.80
  -6  -5   0   10.80    4.90
  -6  -5   0   16.30    5.20
   6   5   0   16.60    5.00
   6   5   0   12.60    3.70
   6   5   0   12.70    4.50
   6   5   0   19.70    6.10
  -7  -5   0  179.98   10.40
  -7  -5   0  174.58    8.20
  -7  -5   0  199.18   13.30
  -7  -5   0  183.88   12.30
  -7  -5   0  176.88   12.90
   7   5   0  189.38   11.90
   7   5   0  177.68   10.30
   7   5   0  194.58   13.00
   7   5   0  181.38   14.70
  -8  -5   0   79.49    9.10
  -8  -5   0   62.59    9.80
  -8  -5   0  103.69   12.60
   8   5   0   92.89   11.30
   8   5   0  104.29   15.30
   8   5   0   69.39   10.20
   8   5   0   79.19   11.20
   6  -6   0   -1.40    7.60
   6  -6   0   -2.40    3.80
   6  -6   0    5.10    4.50
   6  -6   0    2.60    6.50
  -6   6   0    4.10    3.80
  -6   6   0    1.70    3.80
  -6   6   0    2.30    5.50
  -6   6   0    5.20    6.50
   5  -6   0  151.18   11.30
   5  -6   0  164.48   10.20
   5  -6   0  175.68    8.80
   5  -6   0  152.58    9.10
   5  -6   0  178.98    9.90
  -5   6   0  156.78   10.50
  -5   6   0  177.48    8.90
  -5   6   0  162.28    9.30
   4  -6   0  197.28   10.20
   4  -6   0  176.38    8.70
  -4   6   0  150.58    8.20
  -4   6   0  171.38    9.40
  -4   6   0  142.39    9.20
   3  -6   0  240.48   11.20
   3  -6   0  221.38   10.10
   3  -6   0  225.58   10.70
   3  -6   0  222.08    9.60
  -3   6   0  267.97   10.10
  -3   6   0  197.98    9.20
   2  -6   0  116.19    7.50
   2  -6   0  118.89    5.80
   2  -6   0  122.89    6.50
  -2   6   0  118.39    7.80
  -2   6   0  121.09    6.40
  -2   6   0  110.89    6.50
   1  -6   0   52.49    4.70
   1  -6   0   52.29    5.60
   1  -6   0   58.49    4.80
   1  -6   0   48.80    3.60
   1  -6   0   56.89    2.90
  -1   6   0   48.00    5.90
  -1   6   0   60.99    4.50
  -1   6   0   50.09    4.80
   0  -6   0 1952.90   57.19
   0  -6   0 2021.60   57.89
   0  -6   0 2032.60   58.89
   0   6   0 2004.50   57.39
   0   6   0 1994.90   58.59
   0   6   0 2037.80   57.29
  -1  -6   0 1660.73   50.19
  -1  -6   0 1747.73   51.39
  -1  -6   0 1841.12   51.99
  -1  -6   0 1698.13   49.10
   1   6   0 1691.33   50.49
   1   6   0 1830.22   53.29
   1   6   0 1758.92   51.59
   1   6   0 1774.92   50.29
  -2  -6   0   11.20    3.40
  -2  -6   0    6.90    2.50
  -2  -6   0   10.80    2.50
   2   6   0   13.00    3.30
   2   6   0    7.50    3.30
   2   6   0   13.10    3.20
  -3  -6   0  221.58    9.20
  -3  -6   0  197.88    9.70
  -3  -6   0  203.88    8.90
  -3  -6   0  193.98    9.80
  -3  -6   0  240.38   11.60
   3   6   0  209.88    9.60
   3   6   0  202.18   10.10
   3   6   0  209.58    9.80
   3   6   0  210.58    9.10
  -4  -6   0    0.80    2.70
  -4  -6   0    7.40    2.90
  -4  -6   0    0.40    3.10
  -4  -6   0    8.20    3.90
  -4  -6   0    4.50    3.20
   4   6   0   -1.60    3.20
   4   6   0    9.80    3.30
   4   6   0    2.90    2.80
   4   6   0    5.60    3.60
   4   6   0    5.30    3.50
  -5  -6   0  177.98   10.40
  -5  -6   0  166.58    8.80
  -5  -6   0  150.28   10.00
  -5  -6   0  178.18   10.20
  -5  -6   0  167.98    8.90
   5   6   0  168.58   10.10
   5   6   0  163.18   10.80
   5   6   0  170.38    9.80
   5   6   0  175.78    9.00
  -6  -6   0   14.50    3.90
  -6  -6   0    4.30    4.40
  -6  -6   0   11.80    3.20
  -6  -6   0   11.70    5.40
  -6  -6   0   11.60    5.00
   6   6   0   11.60    6.20
   6   6   0    8.60    4.40
   6   6   0   11.00    4.80
  -7  -6   0    3.90    4.60
  -7  -6   0    4.00    6.60
  -7  -6   0   11.80    6.40
  -7  -6   0    8.80    9.10
   7   6   0   -2.30    5.60
   7   6   0    0.50    5.80
   7   6   0    2.00    4.70
   7   6   0    0.10    7.10
  -8  -6   0   28.60    7.50
  -8  -6   0   45.90    6.60
  -8  -6   0   35.20    8.30
  -8  -6   0   37.00    4.20
   8   6   0   25.20    9.60
   8   6   0   38.20   10.10
   8   6   0   35.10    7.70
   6  -7   0   12.50    5.40
   6  -7   0   15.20    7.50
   6  -7   0    3.70    6.90
   6  -7   0    7.20    5.30
   6  -7   0    1.90    5.80
  -6   7   0    9.50    8.20
  -6   7   0    1.60    4.40
  -6   7   0    3.50    6.50
  -6   7   0   -0.80    4.70
   5  -7   0    8.00    5.00
   5  -7   0   -7.80    3.70
   5  -7   0   -0.60    4.00
   5  -7   0    3.00    5.30
   5  -7   0    0.90    4.20
  -5   7   0    0.20    3.70
  -5   7   0    8.10    4.90
   4  -7   0   47.60    7.20
   4  -7   0   39.40    6.00
   4  -7   0   54.59    7.10
   4  -7   0   48.90    7.30
   4  -7   0   55.99    6.50
  -4   7   0   40.90    5.80
  -4   7   0   50.49    5.40
  -4   7   0   46.10    6.30
   3  -7   0   92.19    8.40
   3  -7   0   77.79    6.60
   3  -7   0   94.79    8.60
   3  -7   0   96.19    7.20
   3  -7   0   91.39    7.10
  -3   7   0   94.19    7.10
  -3   7   0   84.69    6.70
  -3   7   0   98.59    8.60
   2  -7   0   -0.60    2.90
   2  -7   0    0.20    2.20
   2  -7   0   -2.10    3.50
   2  -7   0   -1.20    2.60
  -2   7   0   -1.10    2.60
  -2   7   0   -2.50    3.80
  -2   7   0    0.00    3.00
   1  -7   0  204.58    9.70
   1  -7   0  211.08    7.30
   1  -7   0  192.38    9.20
  -1   7   0  236.48   11.10
  -1   7   0  213.68    9.20
  -1   7   0  215.78    9.60
   0  -7   0    7.50    6.20
   0  -7   0    5.90    2.70
   0  -7   0    5.60    3.40
   0  -7   0    6.90    1.20
   0   7   0    6.70    3.70
   0   7   0    2.80    2.90
   0   7   0    2.70    2.60
  -1  -7   0   -1.50    1.40
  -1  -7   0    2.80    2.40
  -1  -7   0    2.60    4.80
  -1  -7   0   -0.40    2.90
   1   7   0   -2.80    2.70
   1   7   0    0.10    3.10
   1   7   0   -4.60    2.30
   1   7   0   -5.60    2.80
  -2  -7   0  499.55   17.20
  -2  -7   0  512.75   18.20
  -2  -7   0  482.75   20.30
  -2  -7   0  522.95   16.40
   2   7   0  503.35   17.70
   2   7   0  520.45   17.40
   2   7   0  493.65   18.50
   2   7   0  530.05   22.40
  -3  -7   0   33.80    5.00
  -3  -7   0   30.20    3.90
  -3  -7   0   31.60    4.50
   3   7   0   30.50    4.70
   3   7   0   38.60    5.10
   3   7   0   23.90    4.20
  -4  -7   0   24.30    4.00
  -4  -7   0   18.80    4.30
  -4  -7   0   20.20    4.40
   4   7   0   21.80    4.80
   4   7   0   28.10    4.90
  -5  -7   0  159.28   10.70
  -5  -7   0  169.08   10.40
  -5  -7   0  163.78    9.10
  -5  -7   0  156.18   10.40
  -5  -7   0  140.49   11.10
   5   7   0  158.98   10.40
   5   7   0  157.78   10.70
   5   7   0  173.48    9.50
   5   7   0  161.48   10.90
  -6  -7   0   82.59    8.10
  -6  -7   0   72.99    9.20
  -6  -7   0   77.29    9.20
  -6  -7   0   62.29    9.50
  -6  -7   0   72.99   10.00
   6   7   0   91.39    9.80
   6   7   0   79.89   10.60
   6   7   0   74.09    9.30
   6   7   0   99.99    8.50
  -7  -7   0    3.10    6.40
  -7  -7   0   -2.40    6.60
  -7  -7   0   -6.10    5.40
  -7  -7   0    1.70    4.40
   7   7   0   -8.50    5.40
   7   7   0   -6.50    5.20
   7   7   0   -9.70    6.10
  -8  -7   0   40.60    6.20
  -8  -7   0   25.20    8.80
  -8  -7   0   29.40    8.20
  -8  -7   0   20.90    4.80
   8   7   0   34.00   10.10
   8   7   0   34.10    7.90
   5  -8   0   21.10    6.60
   5  -8   0   16.50    5.80
   5  -8   0    7.50    5.60
   5  -8   0   17.60    6.50
   5  -8   0   15.00    5.90
  -5   8   0   30.60    5.30
  -5   8   0   16.60    4.90
  -5   8   0   26.90    6.60
   4  -8   0    5.80    4.20
   4  -8   0   -4.70    4.80
   4  -8   0    7.30    5.00
   4  -8   0   -0.50    4.30
   4  -8   0   -1.40    4.20
  -4   8   0    1.70    5.00
  -4   8   0    6.00    4.60
  -4   8   0    3.30    4.00
   3  -8   0  563.54   19.30
   3  -8   0  582.74   20.60
   3  -8   0  586.64   20.30
   3  -8   0  596.64   22.40
   3  -8   0  596.94   22.40
  -3   8   0  581.74   20.10
  -3   8   0  585.84   20.40
  -3   8   0  584.24   22.00
   2  -8   0   10.40    4.40
   2  -8   0    5.10    3.40
   2  -8   0   -4.40    3.40
   2  -8   0    1.50    2.20
  -2   8   0    9.30    4.70
  -2   8   0   -0.80    3.00
  -2   8   0    0.90    3.50
   1  -8   0  554.14   20.60
   1  -8   0  530.15   15.70
   1  -8   0  490.75   15.30
   1  -8   0  499.35   18.10
   1  -8   0  535.05   19.10
  -1   8   0  528.75   20.10
  -1   8   0  544.15   21.90
  -1   8   0  500.15   18.30
   0  -8   0  186.58   10.30
   0  -8   0  189.28    9.30
   0  -8   0  179.38   11.00
   0   8   0  193.68    9.20
   0   8   0  187.28   11.40
   0   8   0  184.38    9.70
  -1  -8   0   18.70    4.40
  -1  -8   0   21.40    4.00
  -1  -8   0   33.50    2.80
  -1  -8   0   36.40    5.50
   1   8   0   35.30    4.60
   1   8   0   31.60    5.20
   1   8   0   22.70    4.50
   1   8   0   32.50    4.90
  -2  -8   0   37.40    5.70
  -2  -8   0   33.20    3.80
  -2  -8   0   31.70    5.20
  -2  -8   0   31.30    4.70
   2   8   0   35.30    4.90
   2   8   0   32.20    4.80
   2   8   0   26.80    5.50
   2   8   0   28.90    5.00
  -3  -8   0  194.88   10.90
  -3  -8   0  196.88    8.90
  -3  -8   0  194.68    9.70
  -3  -8   0  199.18   11.30
   3   8   0  202.88   11.10
   3   8   0  198.48   10.50
   3   8   0  184.08   10.60
   3   8   0  192.08    9.70
  -4  -8   0  149.99    9.50
  -4  -8   0  177.98   11.20
  -4  -8   0  173.78   10.80
  -4  -8   0  183.78    9.80
   4   8   0  192.48   11.60
   4   8   0  197.38   11.40
   4   8   0  206.08   11.50
  -5  -8   0    8.20    4.70
  -5  -8   0    0.90    4.10
  -5  -8   0    9.10    4.20
  -5  -8   0    4.90    4.80
  -5  -8   0   10.40    4.00
   5   8   0    3.90    4.20
   5   8   0    6.90    5.10
   5   8   0    5.80    4.90
  -6  -8   0    4.40    5.90
  -6  -8   0   -0.90    5.10
  -6  -8   0    8.20    4.40
  -6  -8   0    3.20    4.80
  -6  -8   0    5.70    5.60
   6   8   0    2.40    5.60
   6   8   0    7.90    5.10
   6   8   0   -2.90    5.60
  -7  -8   0   24.10    7.50
  -7  -8   0   16.20    8.10
  -7  -8   0   14.80    7.00
  -7  -8   0   22.20    5.80
  -7  -8   0   15.20    5.10
   7   8   0   12.20    9.30
   7   8   0   17.60    6.90
   7   8   0   14.50    6.90
   4  -9   0    4.00    5.10
   4  -9   0    3.80    5.50
   4  -9   0    7.70    4.80
   4  -9   0   12.10    6.40
  -4   9   0   -5.40    4.50
  -4   9   0    4.10    5.40
  -4   9   0   -0.50    5.90
  -4   9   0   -5.80    4.30
   3  -9   0   21.20    5.10
   3  -9   0   28.70    6.90
   3  -9   0   26.40    6.70
   3  -9   0   25.50    5.50
   3  -9   0   17.90    3.90
  -3   9   0   15.10    4.50
  -3   9   0   13.90    4.50
  -3   9   0   20.40    6.50
   2  -9   0    2.40    4.30
   2  -9   0    5.40    4.00
   2  -9   0   11.00    5.70
   2  -9   0    5.30    3.40
  -2   9   0    3.50    5.40
  -2   9   0    0.60    4.00
  -2   9   0    6.60    4.10
   1  -9   0  719.03   25.80
   1  -9   0  680.03   19.90
   1  -9   0  685.63   23.20
   1  -9   0  675.33   24.00
  -1   9   0  646.04   24.90
  -1   9   0  659.43   23.20
  -1   9   0  687.93   23.10
   0  -9   0  147.39   11.20
   0  -9   0  154.18   10.20
   0  -9   0  148.59    9.40
   0  -9   0  152.88    7.70
   0   9   0  137.29   10.40
   0   9   0  152.98   11.70
   0   9   0  154.58    9.70
  -1  -9   0   86.59    8.80
  -1  -9   0   85.39    3.50
  -1  -9   0   83.59    9.10
  -1  -9   0   67.29    7.10
   1   9   0   77.09    7.80
   1   9   0   83.89    7.50
   1   9   0   93.59    8.50
   1   9   0   67.09    9.70
  -2  -9   0    2.40    4.50
  -2  -9   0   -5.00    3.90
  -2  -9   0    4.90    3.90
  -2  -9   0    6.90    2.30
   2   9   0   -3.70    5.10
   2   9   0   -0.20    4.10
   2   9   0    0.30    3.80
   2   9   0    7.80    4.40
  -3  -9   0    6.60    3.90
  -3  -9   0    8.30    4.80
  -3  -9   0    8.20    2.80
  -3  -9   0    9.20    4.60
   3   9   0    3.20    4.90
   3   9   0    6.20    4.20
   3   9   0    6.80    4.80
   3   9   0    3.20    4.80
  -4  -9   0   -2.30    3.30
  -4  -9   0   -1.40    3.90
  -4  -9   0    2.60    4.70
  -4  -9   0   -3.60    4.50
   4   9   0    6.00    4.90
   4   9   0    7.30    4.90
   4   9   0   -3.30    4.80
  -5  -9   0  171.48   10.80
  -5  -9   0  180.58   11.00
  -5  -9   0  182.38   12.60
  -5  -9   0  167.18   12.20
   5   9   0  179.68   11.60
   5   9   0  176.68   12.20
   5   9   0  174.18   12.10
  -6  -9   0    4.50    6.00
  -6  -9   0   14.90    6.50
  -6  -9   0    4.40    5.30
  -6  -9   0    5.40    4.60
  -6  -9   0    1.70    5.50
   6   9   0    6.00    6.60
   6   9   0   -0.20    5.60
   6   9   0    7.70    6.50
  -7  -9   0    4.10    6.70
  -7  -9   0    7.60    5.90
  -7  -9   0   -0.60    7.70
  -7  -9   0    8.70    5.40
  -7  -9   0   -5.80    7.80
   7   9   0    1.60    7.30
   3 -10   0   58.89    7.00
   3 -10   0   61.69    9.00
   3 -10   0   68.39    9.90
  -3  10   0   64.29    9.10
  -3  10   0   51.39   10.10
  -3  10   0   49.70    7.30
   2 -10   0    5.50    5.30
   2 -10   0   10.80    6.80
   2 -10   0   14.00    5.00
  -2  10   0    3.10    7.00
  -2  10   0   15.40    5.00
  -2  10   0   13.90    4.80
   1 -10   0   21.00    4.90
   1 -10   0   16.90    2.50
   1 -10   0   30.30    7.00
   1 -10   0   26.60    5.60
  -1  10   0   33.30    5.40
  -1  10   0   28.30    5.50
  -1  10   0   37.10    7.30
   0 -10   0    5.80    3.00
   0 -10   0    5.80    4.70
   0 -10   0    9.10    4.30
   0 -10   0    4.60    5.30
   0  10   0    9.20    6.10
   0  10   0    2.20    4.00
   0  10   0    9.80    4.40
  -1 -10   0    3.70    4.10
  -1 -10   0   -2.50    4.20
  -1 -10   0   -2.70    4.90
   1  10   0    5.00    4.80
   1  10   0   -0.20    4.10
   1  10   0    2.10    5.70
   1  10   0    1.30    4.30
  -2 -10   0   35.70    6.20
  -2 -10   0   39.40    5.60
  -2 -10   0   34.50    6.70
  -2 -10   0   42.40    3.70
   2  10   0   34.20    5.50
   2  10   0   36.50    6.50
   2  10   0   39.40    6.20
   2  10   0   32.30    7.30
  -3 -10   0    4.40    5.50
  -3 -10   0   16.70    4.60
  -3 -10   0   13.40    5.80
  -3 -10   0    6.60    2.90
   3  10   0   13.90    5.40
   3  10   0   16.00    5.60
   3  10   0   11.80    6.10
   3  10   0   16.20    5.00
  -4 -10   0   89.49   11.90
  -4 -10   0   89.59    9.30
  -4 -10   0   85.59    7.70
  -4 -10   0   98.99   11.50
   4  10   0   91.59   10.70
   4  10   0   91.99   10.90
   4  10   0   99.59   11.50
  -5 -10   0   85.49   10.00
  -5 -10   0   75.39   11.00
  -5 -10   0   87.69    9.10
  -5 -10   0   87.59   10.10
   5  10   0   79.39   11.30
   5  10   0   81.89   11.00
   5  10   0   91.19   12.40
  -6 -10   0  219.38   13.80
  -6 -10   0  191.08   14.30
  -6 -10   0  244.78   15.80
  -6 -10   0  220.18   16.70
   6  10   0  237.08   15.70
   2 -11   0   28.70   14.10
   2 -11   0   21.90    5.90
  -2  11   0   26.60    6.20
  -2  11   0   20.10    7.70
  -2  11   0   18.20    5.90
   1 -11   0   16.60    5.20
   1 -11   0   30.00    8.70
  -1  11   0   25.80    6.00
  -1  11   0   21.90    6.20
  -1  11   0   17.30    7.70
   0 -11   0   66.79    8.90
   0 -11   0   64.59    6.50
   0 -11   0   58.49    8.00
   0 -11   0   51.19    9.20
   0  11   0   69.49    9.60
   0  11   0   70.69    9.60
   0  11   0   49.70    6.70
  -1 -11   0   17.00    5.60
  -1 -11   0   11.50    7.00
  -1 -11   0   22.20    4.90
  -1 -11   0   11.90    6.40
   1  11   0   18.80    5.40
   1  11   0   15.30    7.10
   1  11   0   12.60    5.70
   1  11   0    7.30    7.00
  -2 -11   0   69.89    8.80
  -2 -11   0   56.89    8.70
  -2 -11   0   62.89    9.00
   2  11   0   75.69    9.30
   2  11   0   75.49    9.80
   2  11   0   59.99    8.90
   2  11   0   62.69    7.90
  -3 -11   0   23.80    8.20
  -3 -11   0   20.50    7.20
  -3 -11   0   22.20    5.90
   3  11   0   15.10    6.10
   3  11   0   19.40    7.30
   3  11   0   18.60    7.50
   3  11   0   22.90    6.60
  -4 -11   0   16.20    7.50
  -4 -11   0   -5.40    7.30
  -4 -11   0   12.10    5.60
  -4 -11   0    9.80    4.20
   4  11   0   13.60    7.00
   4  11   0    9.80    6.90
   4  11   0   17.30    6.50
  -5 -11   0   19.40    9.10
  -5 -11   0   20.10    6.20
  -5 -11   0   35.80    9.10
  -5 -11   0   19.40    6.00
   5  11   0   34.40    7.70
  -6 -11   0  105.69   12.30
  -6 -11   0  129.89   18.40
   6  11   0  101.29   14.50
   6  11   0  106.99    7.10
   0 -12   0   17.40    4.10
   0 -12   0    9.60    5.50
   0 -12   0   15.20    3.20
   0  12   0    9.90    6.40
   0  12   0   12.10    8.90
   0  12   0    7.10    7.20
  -1 -12   0   15.40    5.50
  -1 -12   0    6.50    5.60
   1  12   0   15.40    8.40
   1  12   0   18.60    7.10
   1  12   0   22.40    6.40
  -2 -12   0    3.20    5.80
   2  12   0   -5.70    6.10
   2  12   0  -10.50    7.10
   2  12   0    4.70    7.20
  -3 -12   0   -1.50    6.80
  -3 -12   0    3.80    5.80
   3  12   0   13.70    8.00
   3  12   0    6.70    6.90
   3  12   0   11.30    7.70
  -4 -12   0   18.50    6.50
   4  12   0   11.10    7.40
   4  12  -1    4.30    7.30
  -4 -12   1   21.20    5.10
  -4 -12   1   17.30    6.90
   3  12  -1    8.10    6.60
  -3 -12   1   10.60    3.70
  -3 -12   1   16.70    6.20
   2  12  -1   53.29    8.00
   2  12  -1   53.89    8.90
  -2 -12   1   59.89    7.80
   1  12  -1   23.20    7.30
   1  12  -1   16.60    8.20
   1  12  -1   24.00    7.00
  -1 -12   1   22.60    6.00
  -1 -12   1   19.80    7.90
   0  12  -1   -7.40    7.70
   0  12  -1    3.40    7.10
   0  12  -1   -0.50    6.00
   0 -12   1   -2.50    5.40
   0 -12   1   -2.90    4.10
   0 -12   1   -0.70    3.00
   5  11  -1  206.28   14.50
  -5 -11   1  216.18   14.10
  -5 -11   1  198.38   16.60
  -5 -11   1  210.28   17.70
  -5 -11   1  203.68   12.90
   4  11  -1  395.46   20.00
   4  11  -1  396.06   18.70
   4  11  -1  391.06   18.50
  -4 -11   1  414.66   18.10
  -4 -11   1  389.96   17.40
  -4 -11   1  392.96   21.60
  -4 -11   1  395.26   20.60
   3  11  -1   11.80    5.90
   3  11  -1   -0.20    6.90
   3  11  -1    5.20    6.10
  -3 -11   1   14.00    7.40
  -3 -11   1    0.40    6.90
  -3 -11   1    1.90    3.20
   2  11  -1   23.60    5.80
   2  11  -1   21.10    6.50
   2  11  -1    7.20    6.90
   2  11  -1   23.50    6.20
  -2 -11   1   22.90    3.10
  -2 -11   1   24.30    5.90
  -2 -11   1   18.70    7.00
  -2 -11   1   17.10    7.90
   1  11  -1   -2.90    6.20
   1  11  -1   -2.30    5.70
   1  11  -1    2.80    4.90
   1  11  -1   -5.60    4.90
  -1 -11   1   -4.30    7.10
  -1 -11   1    1.10    4.70
  -1 -11   1    3.20    6.40
   0  11  -1  140.39   11.20
   0  11  -1  112.29   13.70
   0  11  -1  150.88   11.50
   0 -11   1  137.99   10.70
   0 -11   1  131.29    7.10
   0 -11   1  130.39   15.00
   0 -11   1  149.59   13.10
   0 -11   1  119.69    8.20
  -1  11  -1   43.90    6.80
  -1  11  -1   22.60    7.60
  -1  11  -1   23.10    6.00
   1 -11   1   31.90    6.50
   1 -11   1   25.30    7.80
  -2  11  -1    7.80    5.70
  -2  11  -1    8.00    6.00
   2 -11   1    8.90    5.90
   6  10  -1  125.29   13.10
   6  10  -1  108.29    5.70
  -6 -10   1  111.99   11.40
  -6 -10   1  124.69   15.10
  -6 -10   1   82.99   12.20
  -6 -10   1  111.99   13.80
   5  10  -1  274.97   15.20
   5  10  -1  244.58   15.80
  -5 -10   1  234.08   13.40
  -5 -10   1  244.18   16.00
  -5 -10   1  276.27   14.00
  -5 -10   1  212.98   15.10
   4  10  -1  638.84   25.30
   4  10  -1  695.93   25.10
   4  10  -1  654.63   24.40
  -4 -10   1  668.33   26.00
  -4 -10   1  683.73   26.30
  -4 -10   1  693.53   24.20
  -4 -10   1  684.93   26.90
   3  10  -1  193.98   11.90
   3  10  -1  195.88   12.60
   3  10  -1  181.38   11.50
   3  10  -1  189.68   13.60
  -3 -10   1  146.79   12.80
  -3 -10   1  185.88   11.10
  -3 -10   1  170.58    9.00
  -3 -10   1  177.18   13.30
   2  10  -1  109.29   11.90
   2  10  -1  105.29    9.50
   2  10  -1  100.09    8.60
   2  10  -1   84.19    9.90
  -2 -10   1   95.19    8.60
  -2 -10   1   75.29   10.10
  -2 -10   1   97.69    5.90
  -2 -10   1   89.99    9.70
   1  10  -1   30.60    7.00
   1  10  -1   25.50    6.10
   1  10  -1   25.30    5.00
   1  10  -1   29.40    5.40
  -1 -10   1   29.20    5.80
  -1 -10   1   32.30    5.40
  -1 -10   1   21.10    6.00
  -1 -10   1   24.30    3.40
   0  10  -1   91.39    9.20
   0  10  -1   79.79   11.60
   0  10  -1   83.59    8.30
   0 -10   1   84.39    8.40
   0 -10   1   68.69    9.80
   0 -10   1   94.59    9.80
  -1  10  -1    4.40    4.60
  -1  10  -1    0.90    4.20
  -1  10  -1   -3.20    5.80
   1 -10   1    6.00    6.00
   1 -10   1    5.60    4.70
   1 -10   1    3.60    2.10
   1 -10   1    5.90    5.20
   1 -10   1    7.00    2.20
  -2  10  -1   17.50    5.40
  -2  10  -1   17.60    5.40
   2 -10   1   19.70    7.60
   2 -10   1    6.90    6.10
   2 -10   1   19.10    5.30
   2 -10   1   21.50    3.00
  -3  10  -1   -7.00    5.40
  -3  10  -1    6.20    5.00
   3 -10   1   -0.60    7.40
   3 -10   1   -0.80    5.10
   3 -10   1   11.20    7.10
   3 -10   1    7.40    3.70
   7   9  -1   38.10    8.20
  -7  -9   1   19.70    8.90
  -7  -9   1   18.20    7.10
  -7  -9   1   26.30    9.50
  -7  -9   1   36.70    8.50
  -7  -9   1   20.60    5.80
   6   9  -1   17.30    6.60
   6   9  -1   29.10    6.50
  -6  -9   1   12.20    6.20
  -6  -9   1    6.90    6.70
  -6  -9   1   21.80    6.20
   5   9  -1   17.60    5.90
   5   9  -1   20.60    6.10
  -5  -9   1   30.00    6.10
  -5  -9   1   27.80    6.40
  -5  -9   1   14.20    5.70
  -5  -9   1   19.00    8.30
   4   9  -1  473.15   18.10
   4   9  -1  488.65   19.30
   4   9  -1  485.95   18.90
  -4  -9   1  442.46   17.70
  -4  -9   1  458.45   19.90
  -4  -9   1  456.85   19.70
  -4  -9   1  460.05   17.90
   3   9  -1  381.36   17.30
   3   9  -1  358.56   16.10
   3   9  -1  350.66   15.50
   3   9  -1  394.36   15.40
  -3  -9   1  356.36   14.10
  -3  -9   1  355.16   14.90
  -3  -9   1  383.26   16.70
  -3  -9   1  393.16   17.30
   2   9  -1 2282.17   65.19
   2   9  -1 2217.88   66.19
   2   9  -1 2199.58   66.99
   2   9  -1 2232.08   65.39
  -2  -9   1 2155.78   63.39
  -2  -9   1 2264.37   66.59
  -2  -9   1 2287.37   67.59
  -2  -9   1 2161.38   64.89
   1   9  -1   12.30    5.20
   1   9  -1   15.20    4.70
   1   9  -1   12.10    5.10
   1   9  -1   19.00    4.30
  -1  -9   1   15.30    2.50
  -1  -9   1   21.40    5.40
  -1  -9   1   15.80    4.40
  -1  -9   1   14.10    4.10
   0   9  -1   21.40    4.70
   0   9  -1   12.20    5.40
   0   9  -1   29.90    4.80
   0  -9   1   12.00    5.20
   0  -9   1   25.40    5.10
   0  -9   1   19.90    4.40
   0  -9   1   24.50    3.20
  -1   9  -1  188.78   12.90
  -1   9  -1  196.08   10.50
  -1   9  -1  188.68   10.40
   1  -9   1  177.48   10.40
   1  -9   1  175.68    7.10
   1  -9   1  182.88    7.30
   1  -9   1  158.88    6.80
   1  -9   1  179.98   12.40
   1  -9   1  184.28   10.90
  -2   9  -1   24.80    5.00
  -2   9  -1   20.70    6.20
   2  -9   1   29.30    3.50
   2  -9   1   19.20    4.70
   2  -9   1   30.00    6.20
   2  -9   1   30.80    5.30
  -3   9  -1   -4.40    4.60
  -3   9  -1    2.50    4.20
   3  -9   1   -1.70    3.30
   3  -9   1   -2.60    4.30
   3  -9   1   -3.90    5.60
   3  -9   1   -7.50    5.50
   3  -9   1    0.60    4.70
  -4   9  -1    8.80    5.10
  -4   9  -1   -0.70    5.20
  -4   9  -1   -0.90    4.80
   4  -9   1   -8.60    5.00
   4  -9   1   -5.60    5.30
   4  -9   1    1.80    4.90
   4  -9   1  -10.60    6.50
   7   8  -1    8.40    7.70
   7   8  -1   -7.00    6.10
  -7  -8   1   -3.30    6.30
  -7  -8   1   14.20    7.90
  -7  -8   1   -2.60    4.50
  -7  -8   1  -10.90    6.70
  -7  -8   1   -3.50    5.00
   6   8  -1   63.39    9.10
   6   8  -1   25.80    6.00
   6   8  -1   29.90    6.20
  -6  -8   1   35.10    6.60
  -6  -8   1   38.60    5.70
  -6  -8   1   39.30    7.00
  -6  -8   1   32.00    6.60
  -6  -8   1   36.00    5.80
   5   8  -1   45.00    6.60
   5   8  -1   53.49    7.50
   5   8  -1   45.60    6.30
  -5  -8   1   41.90    6.20
  -5  -8   1   54.39    7.10
  -5  -8   1   42.40    6.30
  -5  -8   1   53.89    6.70
  -5  -8   1   36.60    6.20
   4   8  -1   57.09    8.20
   4   8  -1   50.29    6.50
   4   8  -1   55.19    7.00
  -4  -8   1   34.80    5.70
  -4  -8   1   41.40    6.00
  -4  -8   1   59.09    7.10
  -4  -8   1   35.80    5.30
   3   8  -1   96.29    8.90
   3   8  -1   67.09    7.30
   3   8  -1   89.99    8.10
  -3  -8   1   85.29    7.90
  -3  -8   1   84.59    6.50
  -3  -8   1   96.59    8.70
  -3  -8   1   77.49    7.10
   2   8  -1  662.83   22.40
   2   8  -1  615.24   21.20
   2   8  -1  626.44   21.80
   2   8  -1  621.84   23.10
  -2  -8   1  620.84   20.20
  -2  -8   1  672.83   23.30
  -2  -8   1  610.34   21.20
  -2  -8   1  655.93   22.80
   1   8  -1  267.67   12.50
   1   8  -1  273.67   13.10
   1   8  -1  261.67   11.70
  -1  -8   1  254.97   12.20
  -1  -8   1  262.67   11.50
  -1  -8   1  269.27   12.90
  -1  -8   1  259.97    9.50
   0   8  -1  390.66   14.60
   0   8  -1  380.86   16.60
   0   8  -1  369.46   14.70
   0  -8   1  379.36   16.10
   0  -8   1  387.06   15.50
   0  -8   1  375.26   14.70
  -1   8  -1  211.88   12.00
  -1   8  -1  197.18   10.40
  -1   8  -1  197.28   10.20
   1  -8   1  259.07   11.00
   1  -8   1  213.08    7.80
   1  -8   1  229.48   12.10
  -2   8  -1   -2.40    3.50
  -2   8  -1    6.60    4.60
  -2   8  -1    2.50    3.40
   2  -8   1    8.00    4.20
   2  -8   1    3.80    3.50
   2  -8   1    1.30    2.70
   2  -8   1    4.90    3.60
  -3   8  -1   75.69    7.90
  -3   8  -1   70.39    7.30
  -3   8  -1   70.49    9.10
   3  -8   1   59.19    7.60
   3  -8   1   64.59    9.20
   3  -8   1   70.49    8.80
   3  -8   1   73.59    6.80
   3  -8   1   67.69    7.70
  -4   8  -1   41.00    5.80
  -4   8  -1   36.60    5.60
   4  -8   1   36.90    6.30
   4  -8   1   45.20    6.70
   4  -8   1   39.90    5.70
   4  -8   1   52.79    7.70
   4  -8   1   39.40    6.10
  -5   8  -1   70.89    9.80
  -5   8  -1   63.29    7.30
  -5   8  -1   59.89    7.40
   5  -8   1   89.29   10.40
   5  -8   1   56.69    7.90
   5  -8   1   93.19   10.90
   5  -8   1   61.49    8.10
   5  -8   1   88.39   10.70
   8   7  -1    6.80    6.90
   8   7  -1    1.60    8.70
   8   7  -1    0.50   10.10
  -8  -7   1   18.20    8.10
  -8  -7   1   12.40    5.40
  -8  -7   1   -2.10    7.50
  -8  -7   1    1.40    6.80
   7   7  -1    4.80    8.00
   7   7  -1   -1.10    5.10
   7   7  -1    8.70    6.20
   7   7  -1    7.90    5.60
  -7  -7   1   -9.30    6.40
  -7  -7   1    5.20    4.70
  -7  -7   1   -3.00    5.40
  -7  -7   1   -2.50    4.10
  -7  -7   1    4.20    5.90
   6   7  -1  122.09   10.40
   6   7  -1  127.99   10.70
   6   7  -1  116.69    9.10
  -6  -7   1  132.49    9.00
  -6  -7   1  129.49   10.40
  -6  -7   1  127.29    9.30
  -6  -7   1  115.39   10.90
  -6  -7   1  124.89   11.20
   5   7  -1  157.58   10.30
   5   7  -1  163.28    9.20
   5   7  -1  154.58   10.40
  -5  -7   1  170.38   10.60
  -5  -7   1  172.08    9.20
  -5  -7   1  162.38    9.80
  -5  -7   1  153.38   10.50
   4   7  -1 1289.07   40.20
   4   7  -1 1294.17   39.60
   4   7  -1 1331.17   40.70
  -4  -7   1 1293.27   40.70
  -4  -7   1 1306.37   40.60
  -4  -7   1 1335.97   41.40
  -4  -7   1 1295.07   39.50
  -4  -7   1 1366.36   41.20
   3   7  -1   11.00    3.00
   3   7  -1   15.10    3.80
   2   7  -1  938.31   28.30
   2   7  -1  933.21   29.30
   2   7  -1  906.41   29.70
   2   7  -1  879.61   28.30
  -2  -7   1  924.41   29.20
  -2  -7   1  890.51   27.50
  -2  -7   1  881.01   28.00
   1   7  -1   12.70    3.30
   1   7  -1   21.10    3.30
   1   7  -1   24.90    4.40
   1   7  -1   15.40    3.50
  -1  -7   1   21.60    3.30
  -1  -7   1   23.60    4.60
  -1  -7   1   23.40    2.70
   0   7  -1 2020.80   61.29
   0   7  -1 2082.49   60.09
   0  -7   1 2144.89   60.79
   0  -7   1 2078.69   59.89
  -1   7  -1   12.20    4.20
  -1   7  -1    5.70    3.00
  -1   7  -1    3.70    2.90
   1  -7   1    5.70    1.80
   1  -7   1   12.10    4.70
   1  -7   1    5.10    2.90
   1  -7   1    2.10    3.00
  -2   7  -1  492.25   16.80
  -2   7  -1  495.05   18.40
  -2   7  -1  445.46   16.70
   2  -7   1  485.75   17.10
   2  -7   1  467.35   16.00
   2  -7   1  486.45   18.80
   2  -7   1  468.85   16.80
  -3   7  -1  149.99    9.80
  -3   7  -1  146.29    8.40
  -3   7  -1  137.69    8.70
   3  -7   1  146.29    8.60
   3  -7   1  131.39    9.60
   3  -7   1  148.39    8.50
   3  -7   1  129.09    8.20
   3  -7   1  138.09    9.50
  -4   7  -1   72.69    7.60
  -4   7  -1   85.89    7.40
  -4   7  -1   91.59    7.50
   4  -7   1   80.19    7.50
   4  -7   1   85.79    8.70
   4  -7   1   83.89    8.70
   4  -7   1   74.59    8.50
   4  -7   1   81.49    7.90
  -5   7  -1   28.80    5.10
  -5   7  -1   28.00    5.20
   5  -7   1   33.30    6.00
   5  -7   1   28.30    6.80
   5  -7   1   29.30    5.20
   5  -7   1   26.90    5.70
   5  -7   1   16.00    4.70
  -6   7  -1   70.99    9.30
  -6   7  -1   56.29    9.50
   6  -7   1   70.49    9.40
   6  -7   1   66.79    9.80
   6  -7   1   86.89   13.20
   8   6  -1   40.20    7.60
   8   6  -1   62.49   10.90
   8   6  -1   46.10   10.40
  -8  -6   1   52.79    6.70
  -8  -6   1   59.59    9.20
  -8  -6   1   67.59    9.50
  -8  -6   1   46.30    6.50
   7   6  -1   -1.10    4.30
   7   6  -1    9.10    5.60
   7   6  -1    6.30    5.20
  -7  -6   1   10.50    5.80
  -7  -6   1    6.70    6.30
  -7  -6   1    6.00    5.70
  -7  -6   1   -2.00    3.30
  -7  -6   1    3.20    4.30
   6   6  -1   26.70    5.40
   6   6  -1   27.00    5.20
   6   6  -1   33.80    7.10
   6   6  -1   27.90    4.80
  -6  -6   1   27.40    5.30
  -6  -6   1   19.90    5.30
  -6  -6   1   36.50    4.90
  -6  -6   1   30.80    4.30
  -6  -6   1   28.80    6.20
   5   6  -1   -3.10    3.80
   5   6  -1    5.80    3.20
   5   6  -1    8.90    3.80
   5   6  -1    3.40    4.60
  -5  -6   1   13.60    4.40
  -5  -6   1    3.10    3.50
  -5  -6   1    5.70    3.00
  -5  -6   1    2.10    3.00
  -5  -6   1   13.00    4.40
   4   6  -1  308.57   12.90
  -4  -6   1  320.77   13.30
  -4  -6   1  311.57   13.20
  -4  -6   1  308.57   12.10
  -4  -6   1  313.47   13.00
   3   6  -1   -1.60    2.90
   3   6  -1    3.20    2.80
   3   6  -1   -2.20    2.20
   3   6  -1   -2.70    2.50
  -3  -6   1   -0.10    2.50
  -3  -6   1   -2.20    2.60
  -3  -6   1   -5.90    2.60
  -3  -6   1   -0.80    2.30
  -3  -6   1    5.00    5.80
   2   6  -1 4448.96  122.29
   2   6  -1 4432.36  121.29
   2   6  -1 4311.67  121.49
   2   6  -1 4295.67  122.39
  -2  -6   1 4339.07  121.19
  -2  -6   1 4213.88  120.99
  -2  -6   1 4400.26  122.69
   1   6  -1  787.72   24.40
   1   6  -1  759.12   24.50
   1   6  -1  771.72   25.60
  -1  -6   1  789.92   23.60
  -1  -6   1  800.22   25.90
  -1  -6   1  884.81   27.00
  -1  -6   1  782.02   24.40
   0   6  -1   86.29    5.70
   0   6  -1   86.59    6.60
   0   6  -1   94.59    5.50
   0  -6   1   77.49    5.40
   0  -6   1   91.89    5.80
   0  -6   1   86.79    6.70
  -1   6  -1    0.10    2.00
  -1   6  -1    0.40    2.90
  -1   6  -1   -1.80    2.20
   1  -6   1    1.10    2.40
   1  -6   1    0.70    1.20
   1  -6   1   -0.40    2.10
   1  -6   1   -1.40    2.10
  -2   6  -1  224.48    9.10
  -2   6  -1  207.98   10.20
  -2   6  -1  202.78    9.10
   2  -6   1  214.38    9.20
   2  -6   1  214.28    8.80
   2  -6   1  207.78    9.10
   2  -6   1  205.88   10.10
  -3   6  -1   19.60    3.70
  -3   6  -1   21.90    3.60
  -3   6  -1   26.30    4.40
   3  -6   1   29.60    4.80
   3  -6   1   28.50    4.40
   3  -6   1   22.70    4.30
   3  -6   1   23.90    4.00
   3  -6   1   23.10    3.80
  -4   6  -1    2.70    3.00
  -4   6  -1    4.10    3.20
  -4   6  -1    7.10    5.90
   4  -6   1    1.90    3.60
   4  -6   1    0.60    3.30
   4  -6   1   -1.70    4.20
   4  -6   1   -5.90    3.70
   4  -6   1   -2.30    2.80
  -5   6  -1  128.89    8.90
  -5   6  -1  135.39    9.00
  -5   6  -1  124.69    8.20
   5  -6   1  117.89    9.40
   5  -6   1  120.89    9.30
   5  -6   1  118.59    8.20
   5  -6   1  125.99    8.30
   5  -6   1  114.89   10.80
  -6   6  -1   33.90    5.30
  -6   6  -1   40.40    8.70
  -6   6  -1   30.90    5.20
   6  -6   1   41.40    8.30
   6  -6   1   43.40    6.20
   6  -6   1   41.90    5.70
   6  -6   1   27.00    4.10
   6  -6   1   35.40    5.40
   8   5  -1   -3.40    7.90
   8   5  -1    3.80    5.80
   8   5  -1    3.50    8.80
   8   5  -1   -2.20    5.40
   8   5  -1    8.40    8.80
  -8  -5   1    4.40    4.30
  -8  -5   1   -7.90    5.60
  -8  -5   1    0.60    2.20
  -8  -5   1   -1.10    6.40
   7   5  -1   52.69    9.30
   7   5  -1   48.50    6.40
   7   5  -1   55.59    7.30
   7   5  -1   46.70    9.00
   7   5  -1   57.09    7.70
  -7  -5   1   42.40    5.50
  -7  -5   1   42.00    6.80
  -7  -5   1   55.39    8.20
  -7  -5   1   56.59    8.60
  -7  -5   1   52.59    7.40
   6   5  -1    2.70    6.00
   6   5  -1    7.90    4.20
   6   5  -1   -1.10    4.80
   6   5  -1   -0.60    3.40
  -6  -5   1   -0.20    3.70
  -6  -5   1   -3.70    4.60
  -6  -5   1    5.20    4.90
  -6  -5   1    0.30    3.20
  -6  -5   1    1.80    2.80
   5   5  -1   25.10    4.40
   5   5  -1   14.20    3.90
   5   5  -1   14.20    3.20
   5   5  -1   13.60    5.00
  -5  -5   1   16.50    3.50
  -5  -5   1   18.40    3.40
  -5  -5   1   21.70    4.30
  -5  -5   1   16.20    4.60
  -5  -5   1   18.70    4.00
   4   5  -1  720.73   24.20
   4   5  -1  724.03   24.50
   4   5  -1  698.03   21.40
   4   5  -1  744.03   23.70
   4   5  -1  754.52   23.90
  -4  -5   1  714.13   22.80
  -4  -5   1  753.82   24.60
  -4  -5   1  710.13   23.80
  -4  -5   1  738.13   23.90
  -4  -5   1  763.22   23.60
   3   5  -1   -2.60    2.30
   3   5  -1   -4.90    2.40
   3   5  -1   -1.50    1.90
   3   5  -1   -0.60    2.30
  -3  -5   1   -3.70    1.80
  -3  -5   1   -5.00    2.30
  -3  -5   1   -2.30    2.40
  -3  -5   1   -3.00    2.20
   2   5  -1   96.19    5.30
   2   5  -1   92.49    6.30
   2   5  -1  112.19    5.90
   2   5  -1  106.19    6.20
  -2  -5   1   92.59    5.30
  -2  -5   1   97.39    6.30
  -2  -5   1   92.69    6.20
  -2  -5   1  105.89    5.50
   1   5  -1  120.09    5.60
   1   5  -1  109.99    6.00
   1   5  -1  101.99    6.50
   1   5  -1  111.09    5.80
  -1  -5   1  113.29    5.10
  -1  -5   1  113.49    6.10
  -1  -5   1  109.79    5.40
  -1  -5   1  115.99    6.60
   0   5  -1  314.37   12.10
   0   5  -1  311.17   10.90
   0   5  -1  317.47   11.10
   0  -5   1  309.67   11.00
   0  -5   1  315.87   12.00
   0  -5   1  332.07   11.40
  -1   5  -1  618.64   19.40
  -1   5  -1  658.73   20.50
  -1   5  -1  637.94   19.40
   1  -5   1  570.24   18.10
   1  -5   1  613.64   19.40
   1  -5   1  617.14   20.30
   1  -5   1  640.24   20.50
  -2   5  -1   28.70    3.90
  -2   5  -1   31.20    3.70
  -2   5  -1   32.60    4.00
   2  -5   1   26.50    3.60
   2  -5   1   29.50    4.00
   2  -5   1   28.40    3.90
   2  -5   1   34.50    3.80
  -3   5  -1  637.84   20.50
  -3   5  -1  653.23   20.40
  -3   5  -1  651.03   20.50
  -3   5  -1  649.93   21.10
   3  -5   1  591.94   21.60
   3  -5   1  654.23   20.70
   3  -5   1  648.84   21.30
   3  -5   1  642.84   21.10
   3  -5   1  671.13   21.20
  -4   5  -1  915.11   28.20
  -4   5  -1  902.31   28.40
  -4   5  -1  938.51   28.90
   4  -5   1  924.31   28.70
   4  -5   1  940.11   28.90
   4  -5   1  941.11   28.30
   4  -5   1  909.51   30.10
   4  -5   1  926.01   28.70
  -5   5  -1  166.18    9.00
  -5   5  -1  161.38    8.50
  -5   5  -1  187.38   12.40
  -5   5  -1  161.38    9.30
   5  -5   1  161.78    8.20
   5  -5   1  166.88   11.40
   5  -5   1  162.58    8.90
   5  -5   1  178.28    8.70
   5  -5   1  176.38    9.40
  -6   5  -1   23.20    7.30
  -6   5  -1   20.80    4.70
  -6   5  -1   11.30    3.80
   6  -5   1   25.00    4.40
   6  -5   1   14.70    4.70
   6  -5   1   13.20    7.20
   6  -5   1   16.40    4.60
  -7   5  -1  104.29    9.40
  -7   5  -1   91.59   14.50
  -7   5  -1   86.59    9.50
   7  -5   1   98.29    8.80
   7  -5   1   93.49    9.70
   7  -5   1   95.09   11.10
   7  -5   1  114.19   15.00
   8   4  -1   23.60    6.00
   8   4  -1   12.60    7.60
   8   4  -1    7.60    8.70
   8   4  -1   24.80    7.90
   8   4  -1   13.90    5.10
  -8  -4   1   26.70    6.00
  -8  -4   1   20.60    6.50
  -8  -4   1   16.80    4.70
   7   4  -1   -3.70    6.10
   7   4  -1    6.00    4.40
   7   4  -1    4.10    5.30
   7   4  -1   -2.20    7.00
   7   4  -1    3.90    3.70
  -7  -4   1    5.10    3.60
  -7  -4   1    4.20    5.10
  -7  -4   1    6.10    5.80
  -7  -4   1   -0.30    4.00
   6   4  -1  784.02   24.50
   6   4  -1  796.22   28.60
   6   4  -1  743.33   27.80
   6   4  -1  807.02   26.70
   6   4  -1  757.92   25.30
  -6  -4   1  769.42   24.50
  -6  -4   1  762.82   27.60
  -6  -4   1  745.63   23.60
  -6  -4   1  773.42   26.60
  -6  -4   1  780.92   25.70
   5   4  -1   39.40    4.80
   5   4  -1   40.00    4.80
   5   4  -1   44.60    6.20
   5   4  -1   39.50    6.00
  -5  -4   1   43.00    4.80
  -5  -4   1   42.30    4.90
  -5  -4   1   40.60    6.10
  -5  -4   1   44.90    4.50
  -5  -4   1   46.90    6.30
   4   4  -1  216.98    9.80
   4   4  -1  227.78    9.10
   4   4  -1  210.88   10.70
   4   4  -1  225.08    6.80
   4   4  -1  224.48    9.90
  -4  -4   1  225.68    9.80
  -4  -4   1  228.98   10.20
  -4  -4   1  244.68    9.40
  -4  -4   1  226.48   10.90
  -4  -4   1  227.48    9.00
   3   4  -1    0.50    1.80
   3   4  -1    1.00    2.50
   3   4  -1    2.60    2.40
  -3  -4   1    2.70    2.10
  -3  -4   1    3.40    2.20
  -3  -4   1    7.90    2.30
  -3  -4   1   -0.40    1.70
  -3  -4   1    0.70    2.30
   2   4  -1   72.49    4.20
   2   4  -1   76.59    5.20
   2   4  -1   72.29    4.50
   2   4  -1   71.79    4.80
  -2  -4   1   73.49    4.70
  -2  -4   1   71.89    4.80
  -2  -4   1   70.39    4.20
  -2  -4   1   77.69    4.60
  -2  -4   1   72.69    4.70
   1   4  -1   28.10    4.00
   1   4  -1   23.80    2.60
   1   4  -1   25.30    3.10
   1   4  -1   25.70    3.10
  -1  -4   1   26.70    2.90
  -1  -4   1   31.80    2.70
  -1  -4   1   25.10    3.60
  -1  -4   1   22.40    3.10
   0   4  -1 3721.13  100.89
   0   4  -1 3597.54  101.69
   0   4  -1 3621.74  100.89
   0  -4   1 3650.13  101.79
   0  -4   1 3587.04  100.89
   0  -4   1 3653.63  101.09
  -1   4  -1 1105.79   32.60
  -1   4  -1 1135.49   32.60
  -1   4  -1 1148.29   33.30
   1  -4   1 1096.39   31.40
   1  -4   1 1156.78   33.40
   1  -4   1 1108.69   32.60
   1  -4   1 1122.39   32.60
  -2   4  -1  352.46   11.90
  -2   4  -1  355.36   12.60
  -2   4  -1  350.66   12.00
   2  -4   1  353.26   12.60
   2  -4   1  351.56   12.00
   2  -4   1  360.06   12.30
   2  -4   1  380.76   12.10
  -3   4  -1   44.70    4.30
  -3   4  -1   56.09    4.10
  -3   4  -1   47.70    4.00
  -3   4  -1   46.60    4.70
   3  -4   1   45.90    4.40
   3  -4   1   47.10    5.10
   3  -4   1   53.49    4.40
   3  -4   1   59.19    4.30
   3  -4   1   54.49    4.70
  -4   4  -1   48.80    5.00
  -4   4  -1   54.39    5.10
  -4   4  -1   45.10    2.50
  -4   4  -1   46.40    4.60
   4  -4   1   41.60    5.10
   4  -4   1   42.90    6.50
   4  -4   1   47.50    5.10
   4  -4   1   38.00    4.30
   4  -4   1   47.20    4.70
  -5   4  -1   64.59    5.70
  -5   4  -1   48.90    3.70
  -5   4  -1   71.29    6.10
  -5   4  -1   69.29    8.80
   5  -4   1   52.69    5.60
   5  -4   1   61.79    6.40
   5  -4   1   60.19    5.70
   5  -4   1   56.89    4.50
   5  -4   1   65.29    8.60
  -6   4  -1    3.90    3.50
  -6   4  -1   -3.00    2.20
  -6   4  -1    7.40    3.40
  -6   4  -1   -2.00    5.80
   6  -4   1   -1.70    3.20
   6  -4   1    4.50    3.80
   6  -4   1    2.80    3.20
   6  -4   1   10.60    6.50
  -7   4  -1   82.19    8.30
  -7   4  -1   64.49    5.70
  -7   4  -1   79.49   12.70
  -7   4  -1   90.29    8.40
   7  -4   1   78.99    8.20
   7  -4   1   48.90    9.70
   7  -4   1   72.49    7.10
   7  -4   1   79.09    9.60
   8   3  -1   56.69    9.70
   8   3  -1   72.79   11.60
   8   3  -1   49.20    6.20
   8   3  -1   66.79    7.70
  -8  -3   1   47.20    6.30
  -8  -3   1   57.29    7.30
  -8  -3   1   42.40    7.60
   7   3  -1  177.28    8.70
   7   3  -1  137.09   13.50
   7   3  -1  145.89   13.00
   7   3  -1  162.08    9.70
   7   3  -1  158.98   11.80
  -7  -3   1  166.28   13.00
  -7  -3   1  162.18    8.90
  -7  -3   1  153.78   11.70
  -7  -3   1  159.38    9.80
   6   3  -1   43.90    6.10
   6   3  -1   49.00    7.40
   6   3  -1   29.10    6.40
   6   3  -1   28.90    7.00
  -6  -3   1   28.40    4.30
  -6  -3   1   23.50    5.90
   5   3  -1   28.70    3.70
   5   3  -1   24.70    5.60
   5   3  -1   44.90    4.40
   5   3  -1   32.70    5.30
   5   3  -1   35.20    6.20
  -5  -3   1   33.10    4.80
  -5  -3   1   30.30    4.40
  -5  -3   1   30.00    3.60
  -5  -3   1   33.10    5.40
  -5  -3   1   40.30    5.20
   4   3  -1 1162.28   34.10
   4   3  -1 1088.39   34.60
   4   3  -1 1038.00   34.80
   4   3  -1 1101.99   32.90
  -4  -3   1 1144.09   34.80
  -4  -3   1 1120.49   32.40
  -4  -3   1 1110.69   33.60
  -4  -3   1 1128.89   33.20
  -4  -3   1 1074.89   32.30
   3   3  -1    2.50    1.90
   3   3  -1    5.50    1.10
   3   3  -1    1.80    1.60
   3   3  -1    2.50    2.60
  -3  -3   1    5.30    2.00
  -3  -3   1    2.90    1.70
  -3  -3   1    0.80    2.50
  -3  -3   1    5.50    2.10
  -3  -3   1    4.40    1.70
   2   3  -1 4477.15  128.79
   2   3  -1 4715.03  128.19
   2   3  -1 4523.55  128.49
   2   3  -1 4629.24  128.59
  -2  -3   1 4841.52  128.79
  -2  -3   1 4618.94  128.19
  -2  -3   1 4497.65  128.49
  -2  -3   1 4780.92  128.99
  -2  -3   1 4784.92  128.69
   1   3  -1  715.33   21.20
   1   3  -1  703.93   20.90
   1   3  -1  712.43   20.60
   1   3  -1  701.03   20.70
  -1  -3   1  707.53   20.90
  -1  -3   1  691.63   20.50
  -1  -3   1  723.03   21.30
  -1  -3   1  683.63   20.60
   0   3  -1  998.60   29.20
   0   3  -1 1043.30   29.20
   0   3  -1 1018.90   29.80
   0  -3   1 1025.50   29.30
   0  -3   1 1019.50   29.20
   0  -3   1 1010.00   29.80
  -1   3  -1    9.60    1.60
  -1   3  -1   10.10    1.80
  -1   3  -1   11.00    1.60
   1  -3   1   10.60    1.60
   1  -3   1   15.20    1.30
   1  -3   1   12.30    1.90
   1  -3   1   11.70    1.80
  -2   3  -1 3249.57   97.89
  -2   3  -1 3546.75   96.59
   2  -3   1 3847.82   98.09
   2  -3   1 3470.75   98.29
  -3   3  -1  343.57   11.40
  -3   3  -1  331.57   11.40
  -3   3  -1  329.07   11.40
  -3   3  -1  351.76   10.40
  -3   3  -1  351.26   11.70
   3  -3   1  341.27   11.40
   3  -3   1  337.17   11.40
   3  -3   1  338.77   11.80
   3  -3   1  348.17   11.40
   3  -3   1  338.87   12.70
  -4   3  -1  273.17   10.00
  -4   3  -1  249.38   12.00
  -4   3  -1  279.87    9.20
  -4   3  -1  262.77   10.10
  -4   3  -1  286.27   10.70
   4  -3   1  270.87    9.40
   4  -3   1  263.17   10.50
   4  -3   1  289.07   12.20
   4  -3   1  275.37    9.90
   4  -3   1  265.07    9.80
  -5   3  -1  265.27    9.60
  -5   3  -1  255.87   10.10
  -5   3  -1  248.68   10.30
  -5   3  -1  253.07   12.80
   5  -3   1  252.67   11.00
   5  -3   1  275.47   13.40
   5  -3   1  257.57    9.80
   5  -3   1  257.37   10.00
  -6   3  -1  210.78    9.10
  -6   3  -1  215.48    9.70
  -6   3  -1  210.08    9.90
  -6   3  -1  217.78   13.30
   6  -3   1  217.88   10.80
   6  -3   1  215.48    9.40
   6  -3   1  216.48   13.50
   6  -3   1  201.28    8.50
  -7   3  -1   64.39    7.30
  -7   3  -1   66.09    8.80
  -7   3  -1   49.99    9.40
  -7   3  -1   71.99   11.40
   7  -3   1   81.79    7.20
   7  -3   1   76.19    9.30
   7  -3   1   56.09    5.40
   7  -3   1   76.19   11.90
   8   2  -1   25.60    4.50
   8   2  -1   28.80    5.70
   8   2  -1   33.40    9.60
   8   2  -1   13.50   12.60
  -8  -2   1   33.10    7.40
  -8  -2   1   32.30    5.30
   7   2  -1    6.10    6.90
   7   2  -1   20.60    3.50
   7   2  -1   19.30    6.40
   7   2  -1    7.30    4.20
  -7  -2   1   13.70    5.80
  -7  -2   1   10.70    3.90
  -7  -2   1   -1.90    5.90
  -7  -2   1    7.30    3.40
  -7  -2   1    9.70    2.70
   6   2  -1   11.30    5.00
   6   2  -1   11.00    6.00
   6   2  -1    6.70    3.50
  -6  -2   1    5.40    3.00
  -6  -2   1    6.70    4.80
   5   2  -1    2.70    4.30
   5   2  -1    3.70    2.00
   5   2  -1    1.30    2.70
   5   2  -1   -2.60    3.60
   5   2  -1   -3.60    2.90
  -5  -2   1   -0.60    3.10
  -5  -2   1    4.50    2.20
  -5  -2   1    0.30    3.70
  -5  -2   1    1.90    1.60
  -5  -2   1    7.10    2.60
  -5  -2   1    1.90    1.40
   4   2  -1 1802.32   50.89
   4   2  -1 1723.93   51.79
   4   2  -1 1737.13   51.69
   4   2  -1 1769.42   49.40
   4   2  -1 1710.43   49.90
  -4  -2   1 1757.22   50.79
  -4  -2   1 1777.12   50.19
  -4  -2   1 1818.12   52.99
  -4  -2   1 1726.23   49.00
  -4  -2   1 1667.43   49.40
  -4  -2   1 1730.33   48.60
   3   2  -1  727.63   22.00
   3   2  -1  701.03   22.80
   3   2  -1  726.53   21.10
  -3  -2   1  701.23   21.60
  -3  -2   1  705.23   21.90
  -3  -2   1  742.53   22.90
  -3  -2   1  723.83   21.10
  -3  -2   1  716.53   21.10
   2   2  -1  529.85   15.40
   2   2  -1  509.35   16.80
   2   2  -1  529.45   17.00
   2   2  -1  513.65   16.30
   2   2  -1  537.45   15.90
  -2  -2   1  612.64   16.50
  -2  -2   1  612.24   17.30
  -2  -2   1  516.85   16.20
  -2  -2   1  504.45   16.30
  -2  -2   1  524.45   15.80
   1   2  -1 1449.26   40.00
   1   2  -1 1411.46   39.80
  -1  -2   1 1369.16   40.00
  -1  -2   1 1436.86   40.00
  -1  -2   1 1418.06   40.10
  -1  -2   1 1424.86   39.80
  -1  -2   1 1474.05   40.30
  -1   2  -1   65.89    3.10
  -1   2  -1   69.29    2.50
  -1   2  -1   83.19    3.50
  -1   2  -1   65.69    3.10
   1  -2   1   70.89    2.60
   1  -2   1   68.39    3.20
   1  -2   1   58.69    3.50
   1  -2   1   69.59    3.30
  -2   2  -1    0.60    1.10
  -2   2  -1    1.00    1.10
  -2   2  -1    0.30    1.30
  -2   2  -1    1.10    0.80
  -2   2  -1   -0.10    1.10
   2  -2   1    2.50    1.70
   2  -2   1    0.60    1.10
  -3   2  -1 3081.19   88.69
  -3   2  -1 3152.08   87.39
  -3   2  -1 3065.69   87.39
  -3   2  -1 3167.08   87.79
  -3   2  -1 3139.69   87.19
   3  -2   1 3168.28   88.89
   3  -2   1 3320.17   87.09
   3  -2   1 3149.98   87.79
   3  -2   1 3124.49   87.29
   3  -2   1 3085.39   86.89
  -4   2  -1   22.50    2.90
  -4   2  -1   14.70    3.50
  -4   2  -1   19.50    2.60
  -4   2  -1   18.70    2.60
   4  -2   1   21.40    2.60
   4  -2   1   21.20    2.00
   4  -2   1   29.10    4.60
   4  -2   1   19.30    3.00
  -5   2  -1  168.58    7.80
  -5   2  -1  185.78    8.20
  -5   2  -1  156.98    7.90
  -5   2  -1  165.18   10.20
   5  -2   1  165.08    8.70
   5  -2   1  185.08    7.70
   5  -2   1  177.08   11.10
   5  -2   1  161.58    6.70
  -6   2  -1  238.38   10.20
  -6   2  -1  241.68   10.10
  -6   2  -1  231.88   13.00
  -6   2  -1  240.68   10.50
   6  -2   1  237.98   13.90
   6  -2   1  228.88   10.90
   6  -2   1  242.08    9.90
   6  -2   1  229.68    8.40
  -7   2  -1   37.20    7.40
  -7   2  -1   39.80    5.50
  -7   2  -1   39.00    4.70
  -7   2  -1   32.90    4.80
   7  -2   1   32.90    4.60
   7  -2   1   38.00    5.60
  -8   2  -1   -4.10    5.60
  -8   2  -1   16.30    7.70
  -8   2  -1   -0.20    4.70
  -8   2  -1   -4.60    4.10
   8  -2   1    7.60    4.70
   8  -2   1  -10.60    9.50
   8  -2   1   -3.00    5.70
   8   1  -1    2.40    8.40
   8   1  -1   -0.80    3.70
   8   1  -1    8.40    5.70
  -8  -1   1    7.10    3.90
  -8  -1   1    5.40    4.20
  -8  -1   1   -1.30    6.20
  -8  -1   1   -2.00    7.20
  -8  -1   1    2.80    4.10
   7   1  -1    3.60    5.70
   7   1  -1    4.40    3.00
   7   1  -1    7.10    6.90
  -7  -1   1   12.80    6.00
  -7  -1   1   -0.60    3.10
  -7  -1   1    8.90    3.60
  -7  -1   1    7.30    5.40
  -7  -1   1    4.90    3.40
   6   1  -1  499.35   15.80
   6   1  -1  456.05   19.70
   6   1  -1  469.05   19.40
  -6  -1   1  478.95   16.60
  -6  -1   1  472.15   19.40
  -6  -1   1  520.95   16.20
  -6  -1   1  486.35   18.90
   5   1  -1  348.47   15.40
   5   1  -1  345.57   12.50
   5   1  -1  352.76   14.60
   5   1  -1  356.56   11.60
   5   1  -1  322.67   15.10
  -5  -1   1  351.56   14.70
  -5  -1   1  354.86   11.90
  -5  -1   1  348.07   14.00
  -5  -1   1  350.56   12.30
   4   1  -1  171.28    8.40
   4   1  -1  176.48    9.00
   4   1  -1  177.48    9.60
   4   1  -1  174.08    6.70
   4   1  -1  183.48    7.40
  -4  -1   1  196.48   13.10
  -4  -1   1  187.88    8.40
  -4  -1   1  183.58    6.80
  -4  -1   1  177.38    6.90
  -4  -1   1  168.38    6.00
  -4  -1   1  187.18    7.30
   3   1  -1 1934.61   54.09
   3   1  -1 1955.30   55.19
   3   1  -1 1966.50   55.89
   3   1  -1 1986.90   54.49
   3   1  -1 1938.41   56.09
  -3  -1   1 1866.91   53.99
  -3  -1   1 1874.31   55.09
  -3  -1   1 1952.60   54.49
  -3  -1   1 2006.90   56.09
   2   1  -1 2053.49   55.59
   2   1  -1 1953.80   55.39
   2   1  -1 2038.20   56.09
   2   1  -1 1980.40   56.69
   2   1  -1 2004.70   55.59
   2   1  -1 1992.50   55.39
  -2  -1   1 1999.40   56.09
  -2  -1   1 1963.00   55.29
  -2  -1   1 1943.71   55.39
  -2  -1   1 2057.39   55.69
  -2  -1   1 2058.69   56.79
  -2   1  -1  612.64   18.70
  -2   1  -1  649.24   18.80
  -2   1  -1  660.43   18.80
  -2   1  -1  663.53   18.80
  -2   1  -1  605.94   19.40
   2  -1   1  674.43   18.30
   2  -1   1  638.14   19.60
   2  -1   1  635.74   18.20
   2  -1   1  645.74   19.00
   2  -1   1  636.74   18.60
  -3   1  -1    1.20    1.50
  -3   1  -1    0.70    1.60
  -3   1  -1    0.80    1.40
  -3   1  -1    3.00    2.20
   3  -1   1    2.80    1.30
   3  -1   1    0.70    1.40
   3  -1   1   -0.20    2.40
   3  -1   1    1.70    1.50
   3  -1   1    1.30    0.70
  -4   1  -1  625.84   19.40
  -4   1  -1  654.33   19.90
  -4   1  -1  620.34   19.20
  -4   1  -1  619.34   20.80
   4  -1   1  626.14   19.80
   4  -1   1  621.84   19.80
   4  -1   1  619.94   19.80
   4  -1   1  610.84   21.30
   4  -1   1  631.64   18.20
  -5   1  -1   14.30    3.10
  -5   1  -1   16.20    3.30
  -5   1  -1   16.30    4.70
   5  -1   1   22.40    5.10
   5  -1   1    8.80    1.90
   5  -1   1   11.10    3.10
   5  -1   1    4.30    3.40
   5  -1   1   10.00    3.30
  -6   1  -1  155.78    9.10
  -6   1  -1  158.48   10.80
  -6   1  -1  165.88    8.30
  -6   1  -1  162.98    8.30
   6  -1   1  163.38    8.00
   6  -1   1  152.28   11.20
   6  -1   1  157.48    9.10
   6  -1   1  171.08    9.70
  -7   1  -1  105.99    8.10
  -7   1  -1  116.39    8.10
  -7   1  -1  117.09   17.20
  -7   1  -1  122.09    9.60
   7  -1   1   90.19    9.80
   7  -1   1   98.69    8.60
   7  -1   1  112.59    7.60
   7  -1   1  114.89   12.30
  -8   1  -1    1.20    5.70
  -8   1  -1    4.20    4.00
  -8   1  -1    5.60    7.20
  -8   1  -1   -0.60    6.10
  -8   1  -1   -3.40    4.40
   8  -1   1    2.70    5.20
   8  -1   1    3.70    4.60
   8  -1   1    7.10    9.40
   8   0  -1    5.50    8.80
   8   0  -1   -1.10    6.80
   8   0  -1    7.40    4.20
   8   0  -1   -3.60    3.60
  -8   0   1   -9.60    5.00
  -8   0   1   -6.60    6.10
  -8   0   1    0.60    3.90
  -8   0   1    1.10    6.30
   7   0  -1  423.16   16.00
   7   0  -1  465.25   21.40
   7   0  -1  445.86   15.00
   7   0  -1  441.96   19.10
  -7   0   1  465.95   19.50
  -7   0   1  438.46   15.70
  -7   0   1  448.86   18.80
   6   0  -1  539.15   21.40
   6   0  -1  526.75   17.80
   6   0  -1  546.25   17.00
   6   0  -1  529.85   20.30
  -6   0   1  534.05   18.20
  -6   0   1  520.45   17.20
  -6   0   1  528.15   17.60
  -6   0   1  575.04   21.50
  -6   0   1  532.65   20.40
   5   0  -1  105.29    5.20
   5   0  -1  111.89    8.00
   5   0  -1  111.59    6.00
   5   0  -1   96.69    5.40
   5   0  -1   80.89    8.30
  -5   0   1  109.29    8.50
  -5   0   1  115.99    5.70
  -5   0   1  109.79    6.50
  -5   0   1  106.69    5.50
  -5   0   1  101.89    7.90
   4   0  -1  351.06   14.00
   4   0  -1  378.96   11.80
   4   0  -1  375.26   14.70
   4   0  -1  376.86   12.30
   4   0  -1  383.26   12.10
  -4   0   1  360.06   13.60
  -4   0   1  371.56   12.20
  -4   0   1  383.16   11.90
  -4   0   1  441.96   20.50
  -4   0   1  375.66   12.70
  -4   0   1  376.06   10.90
   3   0  -1  873.61   27.40
   3   0  -1  918.71   25.60
   3   0  -1  899.31   25.20
   3   0  -1  836.22   26.00
   3   0  -1  897.41   27.00
  -3   0   1  866.31   25.20
  -3   0   1  861.81   26.60
  -3   0   1  910.91   25.00
  -3   0   1  917.11   25.60
  -3   0   1  901.81   27.30
   1   0  -1  508.95   14.50
   1   0  -1  527.55   15.00
   1   0  -1  524.15   15.10
   1   0  -1  524.55   15.40
   1   0  -1  514.85   15.40
   1   0  -1  566.84   15.00
  -1   0   1  510.35   15.00
  -1   0   1  515.45   15.00
  -1   0  -1 1072.69   29.70
  -1   0  -1 1075.69   29.40
   1   0   1 1129.99   29.70
   1   0   1 1118.99   29.70
   1   0   1  878.31   29.30
  -3   0  -1 3102.49   87.99
  -3   0  -1 3109.09   89.09
  -3   0  -1 3276.77   87.19
  -3   0  -1 3217.18   88.39
  -3   0  -1 3220.88   88.89
   3   0   1 3122.29   87.99
   3   0   1 3145.19   88.69
   3   0   1 3226.28   89.09
   3   0   1 3125.89   87.09
   3   0   1 3167.48   89.59
   3   0   1 3233.48   89.19
  -4   0  -1  235.88    9.10
  -4   0  -1  222.58    8.70
  -4   0  -1  231.98    9.90
  -4   0  -1  249.58    9.70
   4   0   1  214.78    8.60
   4   0   1  218.68    9.30
   4   0   1  222.08    9.50
   4   0   1  241.38   10.60
  -5   0  -1 1293.27   39.30
  -5   0  -1 1303.17   38.20
  -5   0  -1 1292.47   40.00
  -5   0  -1 1269.87   37.80
   5   0   1 1263.37   39.10
   5   0   1 1275.37   40.70
   5   0   1 1320.57   37.70
   5   0   1 1321.37   38.60
  -6   0  -1   67.99    6.30
  -6   0  -1   60.09    7.30
  -6   0  -1   78.39    8.40
   6   0   1   77.99    6.00
   6   0   1   59.09    6.60
   6   0   1   54.09    7.60
   6   0   1   79.99    7.90
  -7   0  -1   13.90    5.00
  -7   0  -1   15.90    5.80
  -7   0  -1    9.30    3.90
  -7   0  -1    8.70    4.10
  -7   0  -1   13.30    3.80
   7   0   1   12.50    3.70
   7   0   1   22.00    5.60
   7   0   1    7.40    4.30
  -8   0  -1   -4.10    3.90
  -8   0  -1   -1.30    6.50
  -8   0  -1    0.70    5.50
  -8   0  -1   -7.10    6.00
  -8   0  -1   -1.80    4.50
   8   0   1   -5.50    6.10
   8   0   1   -4.80    8.50
   8   0   1   -2.90    4.50
   8   0   1   -5.90    5.30
   8  -1  -1    1.10    3.40
   8  -1  -1   11.60    9.50
  -8   1   1   -0.50    6.40
  -8   1   1   11.00    6.90
  -8   1   1   17.20    6.60
   7  -1  -1  241.68   15.90
   7  -1  -1  236.28    9.40
   7  -1  -1  236.78   11.80
  -7   1   1  224.98   12.60
  -7   1   1  223.78    9.80
  -7   1   1  231.58    9.90
  -7   1   1  239.38   20.50
   6  -1  -1   66.29    5.70
   6  -1  -1   73.49    8.30
   6  -1  -1   74.39    5.20
   6  -1  -1   78.29    9.50
   6  -1  -1   76.99    5.10
  -6   1   1   72.99    5.40
  -6   1   1   64.19    8.40
  -6   1   1   66.99    5.30
  -6   1   1   78.69    7.40
   5  -1  -1   62.39    4.80
   5  -1  -1   60.59    8.00
   5  -1  -1   57.59    6.90
   5  -1  -1   47.50    4.70
   5  -1  -1   72.99    4.30
  -5   1   1   72.19    7.40
  -5   1   1   65.49    4.40
  -5   1   1   54.89    4.50
  -5   1   1   53.09    7.20
   4  -1  -1  683.23   23.30
   4  -1  -1  703.23   22.60
   4  -1  -1  712.13   21.00
   4  -1  -1  715.73   21.10
   4  -1  -1  711.73   20.50
  -4   1   1  716.13   27.10
  -4   1   1  708.63   20.80
  -4   1   1  689.93   20.60
  -4   1   1  695.33   20.00
  -4   1   1  674.53   22.60
   3  -1  -1   54.59    3.40
   3  -1  -1   58.19    3.80
   3  -1  -1   51.59    4.40
   3  -1  -1   58.39    2.70
   3  -1  -1   45.10    4.90
  -3   1   1   54.99    2.80
  -3   1   1   45.30    4.50
  -3   1   1   51.99    2.80
  -3   1   1   54.89    4.30
  -3   1   1   55.89    4.40
  -3   1   1   51.29    2.90
   2  -1  -1   30.50    1.70
   2  -1  -1   26.00    3.10
   2  -1  -1   36.60    3.30
   2  -1  -1   29.90    2.60
  -2   1   1   30.40    1.80
  -2   1   1   30.70    1.80
  -2   1   1   31.00    3.10
  -2   1   1   31.20    2.20
   1  -1  -1    3.10    0.90
   1  -1  -1    1.50    0.40
   1  -1  -1    2.30    1.00
   1  -1  -1    1.40    0.70
  -1   1   1    1.30    1.00
  -1   1   1    2.30    0.80
  -1   1   1    1.10    0.90
  -1   1   1    1.80    0.40
  -1   1   1    2.50    0.40
  -1  -1  -1  700.63   20.70
  -1  -1  -1  665.83   20.80
  -1  -1  -1  735.33   20.50
  -1  -1  -1  663.13   20.00
   1   1   1  683.03   20.60
   1   1   1  759.52   20.50
   1   1   1  762.82   20.10
   1   1   1  678.53   20.40
   1   1   1  780.82   20.80
   1   1   1  804.72   20.80
  -3  -1  -1 1064.79   32.40
  -3  -1  -1 1087.29   31.60
  -3  -1  -1 1118.59   30.30
  -3  -1  -1 1066.19   32.00
  -3  -1  -1 1074.69   31.10
   3   1   1 1086.69   31.10
   3   1   1 1093.39   32.00
   3   1   1 1101.99   31.70
   3   1   1 1054.09   32.50
  -4  -1  -1 3706.03  107.59
  -4  -1  -1 3926.31  106.99
  -4  -1  -1 3756.52  106.39
   4   1   1 3893.41  106.39
   4   1   1 3934.61  108.69
   4   1   1 3906.61  107.79
   4   1   1 3705.03  106.99
  -5  -1  -1   34.50    4.60
  -5  -1  -1   30.20    5.00
  -5  -1  -1   24.10    3.60
  -5  -1  -1   37.10    4.20
   5   1   1   29.20    3.30
   5   1   1   21.10    3.60
   5   1   1   33.60    4.90
   5   1   1   32.20    5.30
   5   1   1   34.10    5.90
  -6  -1  -1   10.00    4.20
  -6  -1  -1    5.30    3.30
   6   1   1    9.30    3.80
   6   1   1   18.60    5.80
  -7  -1  -1   20.50    5.70
  -7  -1  -1   10.40    3.80
  -7  -1  -1   15.30    3.30
  -7  -1  -1   21.50    5.70
  -7  -1  -1   15.10    4.10
   7   1   1   22.40    7.80
   7   1   1   12.10    5.30
   7   1   1    8.00    3.80
   7   1   1   12.60    5.00
  -8  -1  -1   41.20    4.70
  -8  -1  -1   42.00    6.00
  -8  -1  -1   45.60    8.70
  -8  -1  -1   36.70    7.60
   8   1   1   40.00    5.70
   8   1   1   36.00    7.10
   8   1   1   28.30   10.10
   8   1   1   28.40    7.10
   8  -2  -1    9.40    3.60
   8  -2  -1    1.60    4.20
   8  -2  -1   -5.00    9.10
  -8   2   1   -4.20    3.60
  -8   2   1   -0.30    7.80
  -8   2   1   -0.20    5.90
  -8   2   1   -0.20    4.00
  -8   2   1    5.60    6.80
   7  -2  -1   32.80    9.20
   7  -2  -1   25.00    3.30
   7  -2  -1   19.50    3.70
  -7   2   1   17.70    3.50
  -7   2   1   20.40    6.00
  -7   2   1   25.40    6.80
  -7   2   1   16.80    4.60
  -7   2   1   18.00    3.40
   6  -2  -1    8.90    3.10
   6  -2  -1   13.20    5.40
   6  -2  -1   12.00    2.50
   6  -2  -1   17.70    3.40
  -6   2   1   12.80    5.00
  -6   2   1   10.90    3.50
  -6   2   1   11.20    2.60
  -6   2   1   13.10    2.90
   5  -2  -1 3676.73  102.39
   5  -2  -1 3773.22  105.79
   5  -2  -1 3652.93  102.49
   5  -2  -1 3745.03  101.89
  -5   2   1 3687.03  105.09
  -5   2   1 3397.66  101.49
  -5   2   1 3661.33  102.09
  -5   2   1 3814.22  103.19
  -5   2   1 3671.73  101.99
   4  -2  -1    0.60    1.40
   4  -2  -1    0.30    2.30
   4  -2  -1    4.90    3.10
   4  -2  -1    1.90    1.80
  -4   2   1    1.00    1.70
  -4   2   1    2.50    1.50
  -4   2   1    3.20    3.40
  -4   2   1    1.50    2.60
  -4   2   1    0.50    3.10
  -4   2   1    1.30    1.60
   3  -2  -1  197.68    7.20
   3  -2  -1  212.58    7.20
   3  -2  -1  209.68    6.90
   3  -2  -1  188.28    8.80
   3  -2  -1  229.18    7.90
  -3   2   1  215.18    7.00
  -3   2   1  199.98    8.60
  -3   2   1  211.48    6.90
  -3   2   1  200.98    7.30
  -3   2   1  204.08    8.60
   2  -2  -1  149.39    5.00
   2  -2  -1  149.09    5.10
   2  -2  -1  149.29    6.20
   2  -2  -1  132.89    6.50
  -2   2   1  141.09    6.10
  -2   2   1  147.89    6.00
  -2   2   1  151.38    5.00
  -2   2   1  145.39    5.00
  -2   2   1  147.59    5.70
   1  -2  -1   61.79    3.30
   1  -2  -1   66.19    2.60
   1  -2  -1   60.59    3.20
   1  -2  -1   68.49    3.00
   1  -2  -1   65.19    2.60
  -1   2   1   64.79    2.10
  -1   2   1   64.69    2.90
  -1   2   1   57.99    3.30
  -1   2   1   66.89    2.60
  -1   2   1   63.69    2.60
   0   2   1 5515.05  150.88
  -1  -2  -1  287.97    9.00
  -1  -2  -1  290.27    9.20
  -1  -2  -1  301.07    9.30
  -1  -2  -1  292.07    9.30
  -1  -2  -1  291.97    8.90
   1   2   1  290.57    9.20
   1   2   1  283.87    9.30
   1   2   1  276.77    9.20
   1   2   1  295.27    8.90
  -2  -2  -1  372.76   11.70
  -2  -2  -1  346.77   11.90
  -2  -2  -1  366.26   11.70
  -2  -2  -1  355.06   11.10
   2   2   1  370.36   11.70
   2   2   1  350.56   11.90
   2   2   1  346.07   11.60
   2   2   1  332.27   11.10
   2   2   1  354.96   11.70
  -3  -2  -1 1781.82   47.00
  -3  -2  -1 1685.93   46.20
  -3  -2  -1 1580.24   44.90
  -3  -2  -1 1582.24   46.30
  -3  -2  -1 1573.44   45.50
   3   2   1 1552.24   46.20
   3   2   1 1597.64   45.50
   3   2   1 1548.95   46.80
   3   2   1 1552.54   46.00
  -4  -2  -1 9166.58  259.17
  -4  -2  -1 8809.12  253.87
  -4  -2  -1 9032.60  252.77
  -4  -2  -1 9438.26  253.57
   4   2   1 9029.60  254.77
   4   2   1 9363.56  253.57
   4   2   1 9597.14  253.67
  -5  -2  -1  875.01   28.70
  -5  -2  -1  812.42   27.40
  -5  -2  -1  903.81   26.90
  -5  -2  -1  844.72   25.90
  -5  -2  -1  854.61   23.90
   5   2   1  857.01   26.80
   5   2   1  774.32   28.90
   5   2   1  849.61   26.20
   5   2   1  866.81   28.80
  -6  -2  -1  315.07   15.60
  -6  -2  -1  393.26   13.50
  -6  -2  -1  395.86   15.80
  -6  -2  -1  317.17   13.80
  -6  -2  -1  359.26   10.80
   6   2   1  314.27   15.50
   6   2   1  395.56   13.40
   6   2   1  316.47   14.30
   6   2   1  366.96   15.70
   6   2   1  324.07   16.70
  -7  -2  -1   45.90    6.90
  -7  -2  -1   41.10    2.90
  -7  -2  -1   42.80    5.50
  -7  -2  -1   63.09    9.40
   7   2   1   40.40    6.70
   7   2   1   60.99    9.10
   7   2   1   45.00    7.20
   7   2   1   34.80    4.60
   7   2   1   43.50    6.20
  -8  -2  -1   22.60    7.20
  -8  -2  -1   42.30    6.10
  -8  -2  -1   40.60    7.60
   8   2   1   38.80    5.70
   8   2   1   39.40    9.80
   8   2   1   22.20    7.10
   8   2   1   34.10    6.70
   7  -3  -1   85.19    7.40
   7  -3  -1   86.79    6.00
  -7   3   1   65.89    7.40
  -7   3   1   79.79    6.80
  -7   3   1   98.59   12.10
  -7   3   1   79.19    6.50
  -7   3   1   88.79   11.70
   6  -3  -1   15.90    3.60
   6  -3  -1   15.40    2.80
   6  -3  -1   19.10    6.10
  -6   3   1   17.20    3.00
  -6   3   1   15.10    5.70
  -6   3   1   22.10    3.50
  -6   3   1   18.00    3.20
   5  -3  -1   59.09    8.20
   5  -3  -1   37.90    5.70
   5  -3  -1   48.80    4.80
   5  -3  -1   45.00    4.20
  -5   3   1   49.10    4.40
  -5   3   1   53.29    4.60
  -5   3   1   48.40    6.00
  -5   3   1   47.50    6.40
  -5   3   1   45.50    4.80
  -5   3   1   49.90    4.20
   4  -3  -1  246.48   11.50
   4  -3  -1  268.57   10.50
   4  -3  -1  270.47    9.70
   4  -3  -1  284.67    9.60
   4  -3  -1  288.77   12.10
  -4   3   1  252.27   12.10
  -4   3   1  280.67   11.70
  -4   3   1  285.27    9.80
  -4   3   1  265.47    9.50
  -4   3   1  284.87    9.30
  -4   3   1  272.97    9.40
   3  -3  -1  451.45   13.70
   3  -3  -1  468.65   14.70
   3  -3  -1  443.26   13.40
   3  -3  -1  415.96   15.10
   3  -3  -1  431.56   14.20
  -3   3   1  423.06   14.10
  -3   3   1  444.46   13.50
  -3   3   1  431.26   15.00
  -3   3   1  438.16   13.50
  -3   3   1  427.76   12.90
   2  -3  -1 1363.96   38.90
   2  -3  -1 1436.66   39.80
   2  -3  -1 1358.66   39.60
   2  -3  -1 1344.37   38.80
   2  -3  -1 1487.25   40.00
  -2   3   1 1312.97   38.80
  -2   3   1 1373.36   38.90
  -2   3   1 1372.26   39.80
   1  -3  -1 1161.28   32.90
   1  -3  -1 1155.98   32.70
   1  -3  -1 1157.68   33.00
   1  -3  -1 1183.78   33.80
  -1   3   1 1150.08   32.90
  -1   3   1 1201.88   33.80
  -1   3   1 1143.19   32.80
   0  -3  -1  269.47    8.80
   0  -3  -1  267.47    8.40
   0  -3  -1  248.38    9.20
   0   3   1  255.97    9.20
   0   3   1  267.97    8.70
   0   3   1  284.57    8.50
  -1  -3  -1 1230.38   35.00
  -1  -3  -1 1224.18   34.50
  -1  -3  -1 1216.28   34.20
  -1  -3  -1 1226.58   35.20
   1   3   1 1216.98   35.20
   1   3   1 1225.08   35.00
   1   3   1 1213.38   34.90
   1   3   1 1179.98   34.20
   1   3   1 1241.58   34.60
  -2  -3  -1 1618.04   44.60
  -2  -3  -1 1502.85   44.40
  -2  -3  -1 1563.44   44.30
  -2  -3  -1 1588.44   44.30
  -2  -3  -1 1509.45   43.90
   2   3   1 1553.34   44.40
   2   3   1 1548.74   43.90
   2   3   1 1552.24   44.30
   2   3   1 1552.64   44.20
   2   3   1 1550.64   44.50
  -3  -3  -1 3758.42  101.89
  -3  -3  -1 3571.04  100.69
  -3  -3  -1 3521.05  101.49
  -3  -3  -1 3697.03  101.49
  -3  -3  -1 3520.55  100.79
   3   3   1 3634.44  101.59
   3   3   1 3764.32  101.59
   3   3   1 3597.34  100.69
   3   3   1 3663.43  100.79
   3   3   1 3569.84  101.79
  -4  -3  -1 2026.40   57.79
  -4  -3  -1 2108.69   59.39
  -4  -3  -1 2048.30   59.59
  -4  -3  -1 1949.01   64.29
   4   3   1 2112.59   58.59
   4   3   1 2067.99   60.29
   4   3   1 2035.80   57.79
   4   3   1 2099.19   59.79
   4   3   1 2060.69   59.29
  -5  -3  -1    6.70    3.40
  -5  -3  -1   12.30    4.10
  -5  -3  -1    5.70    4.00
  -5  -3  -1    5.30    1.80
   5   3   1    3.30    4.70
   5   3   1    9.10    3.50
   5   3   1    7.10    3.60
   5   3   1    6.40    4.00
  -6  -3  -1 1804.62   53.59
  -6  -3  -1 1805.42   54.59
   6   3   1 1834.22   54.69
   6   3   1 1791.62   52.39
   6   3   1 1790.62   53.59
   6   3   1 1789.22   55.89
  -7  -3  -1   25.30    5.30
  -7  -3  -1   14.50    4.30
  -7  -3  -1   18.40    5.90
  -7  -3  -1   16.00    6.50
   7   3   1    9.50    5.80
   7   3   1   18.30    4.50
   7   3   1   11.00    7.10
   7   3   1   19.20    5.50
   7   3   1   15.70    6.00
  -8  -3  -1   99.59   10.60
  -8  -3  -1  110.89   13.00
  -8  -3  -1  123.19    9.50
  -8  -3  -1  114.29   14.40
   8   3   1   99.39   14.70
   8   3   1  118.99   12.80
   8   3   1  106.99    9.80
   8   3   1  122.69   15.00
   8   3   1  132.39   11.40
   7  -4  -1    6.30    3.50
   7  -4  -1    5.60    8.10
   7  -4  -1    1.70    4.30
   7  -4  -1   10.10    3.20
  -7   4   1    7.90    2.90
  -7   4   1    7.20    2.30
  -7   4   1    3.70    7.00
  -7   4   1    4.20    3.40
  -7   4   1    7.00    3.70
   6  -4  -1   26.80    4.50
  -6   4   1   18.00    3.50
   5  -4  -1   32.00    5.90
   5  -4  -1   27.40    3.60
   5  -4  -1   33.50    4.60
   5  -4  -1   30.00    4.20
  -5   4   1   35.60    3.00
  -5   4   1   36.70    4.80
  -5   4   1   34.10    5.60
  -5   4   1   30.10    3.70
  -5   4   1   28.80    4.20
   4  -4  -1    0.80    3.40
   4  -4  -1   -1.90    2.00
   4  -4  -1   -2.80    2.20
   4  -4  -1   -3.30    2.80
  -4   4   1   -0.20    2.40
  -4   4   1   -1.30    3.00
  -4   4   1   -2.60    1.90
   3  -4  -1  746.63   23.90
   3  -4  -1  753.52   23.80
   3  -4  -1  735.93   22.60
   3  -4  -1  772.82   23.50
   3  -4  -1  798.62   22.70
  -3   4   1  772.92   22.60
  -3   4   1  748.53   24.00
  -3   4   1  748.93   22.60
  -3   4   1  743.33   23.50
   2  -4  -1  774.22   22.90
   2  -4  -1  784.82   24.10
   2  -4  -1  776.02   22.90
   2  -4  -1  771.72   23.20
   2  -4  -1  804.52   24.10
  -2   4   1  776.62   22.90
  -2   4   1  756.22   22.90
  -2   4   1  768.52   24.00
   1  -4  -1   21.10    2.60
   1  -4  -1   18.50    2.70
   1  -4  -1   20.40    1.30
   1  -4  -1   26.70    2.10
   1  -4  -1   20.30    2.70
  -1   4   1   19.60    2.70
  -1   4   1   19.30    2.50
  -1   4   1   20.10    2.90
   0  -4  -1    2.80    1.50
   0  -4  -1    0.40    1.80
   0  -4  -1    2.70    1.20
   0  -4  -1    2.80    1.40
   0   4   1    0.60    1.90
   0   4   1    2.10    1.20
   0   4   1    2.80    1.60
  -1  -4  -1  959.00   27.40
  -1  -4  -1  980.00   29.10
  -1  -4  -1  956.90   28.70
  -1  -4  -1  981.90   28.20
   1   4   1  992.20   28.30
   1   4   1  976.80   28.60
   1   4   1  961.00   29.10
   1   4   1  972.00   28.80
  -2  -4  -1    2.10    1.60
  -2  -4  -1   -0.10    1.70
  -2  -4  -1    2.50    1.80
  -2  -4  -1    2.90    2.00
  -2  -4  -1   -0.40    1.90
   2   4   1    3.70    2.00
   2   4   1    1.50    2.20
   2   4   1    2.70    2.00
   2   4   1    3.30    1.70
   2   4   1    1.40    1.60
  -3  -4  -1  249.08    9.80
  -3  -4  -1  235.78    9.20
  -3  -4  -1  251.57    9.60
  -3  -4  -1  235.88    9.60
  -3  -4  -1  230.38    8.90
   3   4   1  233.58    9.20
   3   4   1  241.68    8.90
   3   4   1  233.98    9.70
   3   4   1  227.78    9.60
   3   4   1  241.68    9.60
   3   4   1  232.88    7.30
  -4  -4  -1    7.90    2.40
  -4  -4  -1    4.50    2.90
  -4  -4  -1    1.80    3.20
  -4  -4  -1    8.50    2.10
   4   4   1   -1.30    3.10
   4   4   1    2.60    3.00
   4   4   1   10.90    3.70
   4   4   1    3.00    2.30
   4   4   1    6.40    2.40
  -5  -4  -1  117.59    6.90
  -5  -4  -1   95.79    5.50
  -5  -4  -1  104.39    7.90
  -5  -4  -1   97.29    7.50
  -5  -4  -1   99.29    7.90
   5   4   1   99.59    9.00
   5   4   1   90.49    7.80
   5   4   1   94.09    7.60
   5   4   1  108.19    6.60
  -6  -4  -1 1604.84   49.80
  -6  -4  -1 1600.44   47.20
  -6  -4  -1 1633.34   48.50
  -6  -4  -1 1520.45   45.40
  -6  -4  -1 1593.74   49.10
   6   4   1 1595.14   48.20
   6   4   1 1655.83   49.20
   6   4   1 1583.94   47.00
   6   4   1 1558.34   49.99
  -7  -4  -1   60.39    7.60
  -7  -4  -1   50.59    8.00
  -7  -4  -1   39.50    7.10
  -7  -4  -1   49.50    6.50
   7   4   1   45.60    8.20
   7   4   1   56.59    7.50
   7   4   1   50.39    6.90
   7   4   1   38.50    7.10
   7   4   1   50.79    8.50
  -8  -4  -1  419.46   22.40
  -8  -4  -1  433.26   17.30
  -8  -4  -1  439.36   19.20
  -8  -4  -1  430.16   20.80
   8   4   1  444.36   23.90
   8   4   1  434.76   17.90
   8   4   1  415.46   22.90
   8   4   1  407.66   18.80
   7  -5  -1   27.10    9.40
   7  -5  -1   27.70    4.10
   7  -5  -1   17.30    4.30
   7  -5  -1   25.40    5.20
  -7   5   1   15.70    4.20
  -7   5   1   32.30    8.10
  -7   5   1   21.40    4.40
   6  -5  -1   56.59    6.20
   6  -5  -1   56.59    5.60
   6  -5  -1   46.70    8.30
  -6   5   1   51.39    6.20
  -6   5   1   48.90    5.90
  -6   5   1   37.60    6.50
  -6   5   1   62.09    9.10
   5  -5  -1  394.86   13.50
   5  -5  -1  378.16   14.10
   5  -5  -1  401.56   16.90
   5  -5  -1  389.26   14.00
   5  -5  -1  381.36   15.30
  -5   5   1  385.46   13.60
  -5   5   1  390.96   14.50
  -5   5   1  384.56   16.30
  -5   5   1  405.26   17.90
  -5   5   1  406.46   13.90
   4  -5  -1    1.90    2.90
   4  -5  -1   -2.90    3.70
   4  -5  -1    3.60    2.30
   4  -5  -1    6.10    2.80
   4  -5  -1    1.10    3.60
  -4   5   1    5.70    2.30
   3  -5  -1  431.66   15.60
   3  -5  -1  427.96   14.10
   3  -5  -1  425.26   15.20
   3  -5  -1  394.26   14.90
  -3   5   1  423.96   14.20
  -3   5   1  487.15   15.70
  -3   5   1  439.66   14.10
  -3   5   1  393.36   16.60
   2  -5  -1  738.33   22.50
   2  -5  -1  789.92   24.10
   2  -5  -1  738.73   24.00
   2  -5  -1  757.82   22.70
   2  -5  -1  736.33   24.00
  -2   5   1  737.43   24.00
  -2   5   1  777.52   22.70
  -2   5   1  734.33   22.70
   1  -5  -1  630.34   19.50
   1  -5  -1  642.14   18.50
   1  -5  -1  650.63   18.20
   1  -5  -1  623.74   19.90
   1  -5  -1  668.13   21.10
  -1   5   1  655.43   21.00
  -1   5   1  616.14   19.60
  -1   5   1  651.53   19.60
   0  -5  -1  290.67   10.00
   0  -5  -1  283.27   11.50
   0  -5  -1  317.97   10.90
   0  -5  -1  306.07   10.30
   0   5   1  298.47   10.50
   0   5   1  296.67   11.70
   0   5   1  301.47   10.20
  -1  -5  -1  411.06   12.00
  -1  -5  -1  407.16   14.50
  -1  -5  -1  398.96   13.20
  -1  -5  -1  404.56   13.80
   1   5   1  396.66   14.30
   1   5   1  389.06   13.60
   1   5   1  409.06   14.00
   1   5   1  404.56   13.20
  -2  -5  -1  569.04   18.50
  -2  -5  -1  571.64   17.40
  -2  -5  -1  572.44   18.70
  -2  -5  -1  546.65   17.60
   2   5   1  553.24   18.30
   2   5   1  557.04   18.60
   2   5   1  538.95   17.30
   2   5   1  573.14   18.40
   2   5   1  555.84   17.60
  -3  -5  -1  399.86   13.80
  -3  -5  -1  420.26   14.80
  -3  -5  -1  389.56   14.50
  -3  -5  -1  407.06   14.50
  -3  -5  -1  420.56   14.20
   3   5   1  403.96   14.40
   3   5   1  383.96   14.20
   3   5   1  388.16   14.40
   3   5   1  424.66   15.00
   3   5   1  407.06   14.80
  -4  -5  -1 1188.78   36.90
  -4  -5  -1 1247.98   37.00
  -4  -5  -1 1135.19   39.40
  -4  -5  -1 1208.08   35.90
  -4  -5  -1 1210.48   36.10
   4   5   1 1160.78   36.60
   4   5   1 1229.38   36.10
   4   5   1 1182.88   37.00
   4   5   1 1222.08   36.20
   4   5   1 1250.37   37.00
  -5  -5  -1  188.08    8.50
  -5  -5  -1  181.28    9.10
  -5  -5  -1  197.08   10.70
  -5  -5  -1  183.98   10.40
   5   5   1  192.18   10.40
   5   5   1  204.88    9.20
   5   5   1  178.88   11.00
   5   5   1  194.78   10.20
  -6  -5  -1   90.79    8.90
  -6  -5  -1  107.99    9.20
  -6  -5  -1   84.89    7.40
  -6  -5  -1   86.09    9.60
  -6  -5  -1  102.39    6.20
   6   5   1  103.49    9.80
   6   5   1  100.69    7.60
   6   5   1   92.69    9.20
  -7  -5  -1   67.99    9.60
  -7  -5  -1   52.89    8.10
  -7  -5  -1   36.30    6.70
  -7  -5  -1   41.10    4.80
  -7  -5  -1   33.60    5.30
   7   5   1   36.10    6.80
   7   5   1   44.30    5.70
   7   5   1   37.90    6.70
   7   5   1   51.09    9.50
  -8  -5  -1  420.56   20.60
  -8  -5  -1  439.46   24.70
  -8  -5  -1  390.76   17.10
  -8  -5  -1  399.86   19.60
   8   5   1  388.36   21.80
   8   5   1  399.66   18.80
   8   5   1  417.56   22.60
   8   5   1  401.36   20.80
   6  -6  -1    2.10    4.10
   6  -6  -1    6.80    7.10
   6  -6  -1    0.20    3.50
   6  -6  -1    7.50    4.70
  -6   6   1    1.90    5.90
  -6   6   1    0.00    3.60
  -6   6   1    3.80    6.80
  -6   6   1    2.80    4.60
   5  -6  -1    1.90    3.00
   5  -6  -1    2.50    3.60
   5  -6  -1    2.40    4.90
   5  -6  -1    0.40    4.10
   5  -6  -1   -1.80    3.30
  -5   6   1    0.80    3.20
  -5   6   1    4.30    4.50
  -5   6   1   -2.60    2.80
  -5   6   1   -2.20    3.40
   4  -6  -1   60.59    7.80
   4  -6  -1   65.09    7.20
   4  -6  -1   64.39    5.60
   4  -6  -1   56.69    6.70
   4  -6  -1   72.59    6.30
  -4   6   1   61.09    5.50
  -4   6   1   73.69    6.00
  -4   6   1   59.99    7.20
   3  -6  -1    2.80    3.10
   3  -6  -1    4.30    2.50
   3  -6  -1    3.90    2.60
   3  -6  -1    4.40    3.60
   3  -6  -1    0.60    3.00
  -3   6   1    5.80    3.50
  -3   6   1    7.10    2.60
  -3   6   1    2.90    2.60
   2  -6  -1   17.00    4.20
   2  -6  -1   21.20    2.60
   2  -6  -1   19.40    3.00
   2  -6  -1   19.40    3.90
   2  -6  -1   21.10    2.80
  -2   6   1   11.90    2.50
  -2   6   1   20.90    3.10
  -2   6   1    9.20    3.40
   1  -6  -1  360.36   13.90
   1  -6  -1  355.76   10.60
   1  -6  -1  354.16   10.50
   1  -6  -1  371.16   12.80
   1  -6  -1  352.46   12.30
  -1   6   1  341.87   12.30
  -1   6   1  345.27   13.80
  -1   6   1  354.16   12.20
   0  -6  -1  586.34   18.60
   0  -6  -1  573.14   17.90
   0  -6  -1  558.04   19.40
   0  -6  -1  536.65   17.40
   0   6   1  567.94   17.80
   0   6   1  580.84   18.10
   0   6   1  525.35   19.10
  -1  -6  -1   77.59    5.80
  -1  -6  -1   84.59    3.40
  -1  -6  -1   84.19    5.20
  -1  -6  -1   80.49    6.20
   1   6   1   92.39    5.40
   1   6   1   75.09    5.70
   1   6   1   72.79    6.20
   1   6   1   93.69    6.20
  -2  -6  -1  760.42   24.40
  -2  -6  -1  734.73   22.20
  -2  -6  -1  794.52   24.30
  -2  -6  -1  706.23   22.80
   2   6   1  728.33   23.70
   2   6   1  718.43   24.10
   2   6   1  715.63   23.50
   2   6   1  749.03   23.30
  -3  -6  -1   -0.50    2.40
  -3  -6  -1    5.90    3.10
  -3  -6  -1   -0.50    2.60
  -3  -6  -1   -2.00    2.10
  -3  -6  -1    1.30    3.00
   3   6   1    2.30    2.90
   3   6   1   -3.60    2.90
   3   6   1    1.40    3.20
   3   6   1   -4.70    2.40
  -4  -6  -1   14.10    3.20
  -4  -6  -1    6.70    3.00
  -4  -6  -1   12.70    3.90
  -4  -6  -1   14.40    4.20
  -4  -6  -1   10.90    3.30
   4   6   1   11.20    3.40
   4   6   1   10.60    3.20
   4   6   1   13.20    3.60
   4   6   1   14.50    4.10
   4   6   1   16.40    4.00
   4   6   1   14.00    1.90
  -5  -6  -1    6.80    3.90
  -5  -6  -1   13.10    3.30
  -5  -6  -1    9.40    3.70
  -5  -6  -1    8.50    4.20
  -5  -6  -1    6.80    4.00
   5   6   1   10.50    3.70
   5   6   1    2.00    4.50
   5   6   1   10.90    5.10
   5   6   1   10.50    3.90
   5   6   1    9.60    4.10
  -6  -6  -1  172.08   11.50
  -6  -6  -1  167.98   11.70
  -6  -6  -1  180.88   10.00
  -6  -6  -1  187.48   10.50
   6   6   1  164.58   11.20
   6   6   1  190.98   11.70
   6   6   1  179.98   12.60
   6   6   1  170.98    9.90
  -7  -6  -1   10.20    3.50
  -7  -6  -1   14.30    5.10
  -7  -6  -1   16.30    6.00
   7   6   1    7.10    4.90
   7   6   1   12.90    6.30
   7   6   1   20.20    8.00
   7   6   1   17.50    6.30
  -8  -6  -1   21.70    5.70
  -8  -6  -1   29.00    8.30
  -8  -6  -1   16.40    8.00
  -8  -6  -1   20.40    3.50
   8   6   1   31.10    9.90
   8   6   1   25.20    7.10
  -6   7   1   -4.80    6.60
  -6   7   1   -5.10    4.00
   5  -7  -1   -7.70    3.40
   5  -7  -1   -2.00    5.10
   5  -7  -1    4.30    4.40
   5  -7  -1   -1.40    4.50
  -5   7   1    0.20    5.20
  -5   7   1   -4.30    4.20
  -5   7   1    2.00    3.40
  -5   7   1   -2.50    3.30
   4  -7  -1  173.28   10.00
   4  -7  -1  188.18    9.60
   4  -7  -1  178.68    9.20
   4  -7  -1  193.08   10.70
   4  -7  -1  181.68   11.50
  -4   7   1  175.08   10.80
  -4   7   1  189.38   11.30
  -4   7   1  180.58    9.40
  -4   7   1  189.98    9.10
   3  -7  -1   62.09    7.60
   3  -7  -1   56.69    5.60
   3  -7  -1   50.29    6.00
   3  -7  -1   56.79    5.80
   3  -7  -1   55.29    7.80
  -3   7   1   57.49    6.10
  -3   7   1   58.79    5.60
  -3   7   1   71.89    8.00
  -2   7   1   70.69    5.90
  -2   7   1   62.09    5.50
   1  -7  -1  618.44   17.80
   1  -7  -1  606.24   19.80
   1  -7  -1  581.94   23.80
   1  -7  -1  644.64   20.60
  -1   7   1  621.44   21.70
  -1   7   1  624.94   19.80
  -1   7   1  594.54   19.90
   0  -7  -1    2.20    3.30
   0  -7  -1    7.10    2.60
   0  -7  -1    7.20    2.00
   0   7   1    3.20    2.70
   0   7   1    6.00    3.60
   0   7   1    3.20    2.40
  -1  -7  -1    0.30    2.30
  -1  -7  -1    0.10    4.10
  -1  -7  -1    2.20    3.60
   1   7   1    6.10    2.90
   1   7   1    0.10    3.30
   1   7   1    6.00    2.60
  -2  -7  -1   41.10    5.00
  -2  -7  -1   34.30    5.50
  -2  -7  -1   35.00    3.40
  -2  -7  -1   32.40    5.50
   2   7   1   41.40    6.00
   2   7   1   33.80    5.00
   2   7   1   48.50    5.30
  -3  -7  -1    3.90    2.50
  -3  -7  -1    2.90    2.90
  -3  -7  -1   -0.40    5.30
   3   7   1    3.40    3.50
   3   7   1    2.80    3.60
   3   7   1   -0.40    3.60
   3   7   1    3.60    3.20
  -4  -7  -1  264.57   12.60
  -4  -7  -1  261.67   11.50
  -4  -7  -1  249.58   12.50
  -4  -7  -1  254.87   11.00
   4   7   1  253.37   11.70
   4   7   1  268.87   11.50
   4   7   1  250.77   12.10
   4   7   1  251.37   12.50
   4   7   1  284.67   12.60
  -5  -7  -1  422.66   16.60
  -5  -7  -1  409.96   17.30
  -5  -7  -1  381.36   15.40
  -5  -7  -1  417.96   17.00
   5   7   1  401.36   15.70
   5   7   1  404.06   16.20
   5   7   1  396.86   17.00
   5   7   1  398.76   16.80
   5   7   1  406.96   17.10
  -6  -7  -1   75.09    9.10
  -6  -7  -1   75.29   10.00
  -6  -7  -1   80.99   10.00
  -6  -7  -1   86.69    8.00
   6   7   1   79.49   10.20
   6   7   1   82.29    9.60
   6   7   1   88.99    8.50
   6   7   1   97.49   10.90
  -7  -7  -1   25.60    7.00
  -7  -7  -1    5.70    5.10
  -7  -7  -1    3.70    4.30
  -7  -7  -1    3.10    5.80
   7   7   1    2.40    6.10
   7   7   1    0.70    6.20
   7   7   1    6.60    5.50
   7   7   1   18.30    9.80
  -8  -7  -1   -6.30    4.70
  -8  -7  -1    2.00    4.00
  -8  -7  -1    9.00    7.80
  -8  -7  -1   -8.10    6.90
   8   7   1   -1.50    9.40
   8   7   1    1.10    7.00
   5  -8  -1   35.00    6.30
   5  -8  -1   40.00    5.90
   5  -8  -1   25.60    6.50
   5  -8  -1   29.20    5.80
   5  -8  -1   24.30    6.80
  -5   8   1   31.70    7.10
  -5   8   1   24.60    5.00
  -5   8   1   25.60    6.30
  -5   8   1   23.40    4.80
   4  -8  -1   67.19    9.30
   4  -8  -1   62.39    7.50
   4  -8  -1   51.09    7.50
   4  -8  -1   63.59    6.20
   4  -8  -1   47.20    7.20
  -4   8   1   60.69    7.60
  -4   8   1   65.29    9.10
  -4   8   1   47.50    6.90
  -4   8   1   57.69    6.90
   3  -8  -1   84.89    7.70
   3  -8  -1   99.29    9.50
   3  -8  -1   76.89    6.30
   3  -8  -1   88.69    7.50
   3  -8  -1   85.49    9.30
  -3   8   1   78.09    7.00
  -3   8   1   90.89    7.40
  -3   8   1   85.19    9.50
   2  -8  -1   -1.50    2.90
   2  -8  -1   -4.10    3.20
   2  -8  -1   -2.00    4.00
   2  -8  -1   -7.00    3.80
  -2   8   1    0.30    4.20
  -2   8   1   -3.20    2.90
  -2   8   1   -3.60    2.90
   1  -8  -1    1.10    1.40
   1  -8  -1   -6.00    3.10
   1  -8  -1   -3.20    3.00
   1  -8  -1    3.50    4.30
  -1   8   1   -2.80    3.30
  -1   8   1    0.00    2.90
  -1   8   1   -1.00    4.20
   0  -8  -1  206.88   10.60
   0  -8  -1  215.68    8.70
   0  -8  -1  199.88    9.60
   0  -8  -1  212.68   11.70
   0   8   1  203.68   10.00
   0   8   1  218.28   12.10
   0   8   1  217.98   10.90
  -1  -8  -1    7.30    3.10
  -1  -8  -1    6.70    3.90
  -1  -8  -1    0.90    3.00
  -1  -8  -1   -2.00    3.50
   1   8   1    6.30    3.60
   1   8   1   -4.00    3.20
   1   8   1   -0.40    3.80
   1   8   1   -0.90    3.00
  -2  -8  -1  556.14   20.10
  -2  -8  -1  537.25   18.70
  -2  -8  -1  549.05   16.70
  -2  -8  -1  562.84   20.80
   2   8   1  548.65   20.60
   2   8   1  536.65   19.40
   2   8   1  465.05   19.90
   2   8   1  571.24   20.10
  -3  -8  -1   59.09    7.60
  -3  -8  -1   46.30    6.00
  -3  -8  -1   50.69    5.00
  -3  -8  -1   49.30    5.50
   3   8   1   57.79    7.30
   3   8   1   50.09    6.70
   3   8   1   62.59    7.30
  -4  -8  -1  572.14   21.60
  -4  -8  -1  573.24   20.50
  -4  -8  -1  607.84   22.20
  -4  -8  -1  582.04   20.20
   4   8   1  605.04   21.90
   4   8   1  560.54   21.40
   4   8   1  585.34   21.80
   4   8   1  590.14   20.70
  -5  -8  -1   10.80    5.40
  -5  -8  -1   13.20    4.50
  -5  -8  -1    2.70    4.10
  -5  -8  -1    7.10    4.80
  -5  -8  -1    7.20    4.20
   5   8   1   13.00    5.20
   5   8   1    3.90    5.20
   5   8   1    6.20    4.30
   5   8   1    8.00    5.30
   5   8   1    2.80    2.00
   5   8   1    8.90    4.90
  -6  -8  -1   15.70    4.50
  -6  -8  -1   -1.50    4.90
  -6  -8  -1    0.40    6.90
  -6  -8  -1    6.30    6.60
  -6  -8  -1   16.00    5.80
   6   8   1    0.70    5.60
   6   8   1   -1.30    5.30
   6   8   1    8.80    6.00
   6   8   1    7.60    6.10
  -7  -8  -1    1.70    7.00
  -7  -8  -1    0.20    6.20
  -7  -8  -1   -3.30    4.70
  -7  -8  -1   -0.10    4.90
   7   8   1    4.40   11.50
   7   8   1   -6.70    6.50
   4  -9  -1   28.10    7.40
   4  -9  -1   29.60    6.20
   4  -9  -1   21.30    5.70
   4  -9  -1   28.60    5.10
   4  -9  -1   28.70    6.70
  -4   9   1   27.90    6.50
  -4   9   1   21.20    5.00
  -4   9   1   22.40    6.50
  -4   9   1   23.80    5.20
   3  -9  -1   -2.80    5.30
   3  -9  -1   -2.40    4.00
   3  -9  -1   -3.00    4.10
   3  -9  -1    7.80    6.10
  -3   9   1    2.00    4.30
  -3   9   1    3.70    3.90
  -3   9   1   -2.10    5.20
   2  -9  -1   -3.90    3.80
   2  -9  -1    2.10    3.50
   2  -9  -1    0.50    5.10
   2  -9  -1   -4.20    5.10
  -2   9   1    2.30    5.50
  -2   9   1   -3.50    3.50
  -2   9   1   -1.00    3.60
   1  -9  -1   80.89    9.40
   1  -9  -1   73.19    3.50
   1  -9  -1   68.59    7.30
   1  -9  -1   84.79    8.30
  -1   9   1   63.69    7.80
  -1   9   1   77.69   10.00
  -1   9   1   75.09    7.10
   0  -9  -1  274.87   11.00
   0  -9  -1  275.57   12.50
   0  -9  -1  277.27   14.30
   0  -9  -1  290.07   13.60
   0   9   1  283.57   14.40
   0   9   1  313.87   12.80
   0   9   1  298.47   13.10
  -1  -9  -1  100.99    9.10
  -1  -9  -1   92.89   11.60
  -1  -9  -1   90.99    7.70
  -1  -9  -1  102.79    8.90
   1   9   1   84.49    7.60
   1   9   1  108.09    9.60
   1   9   1  121.09    9.30
   1   9   1   96.79    8.20
  -2  -9  -1   27.90    5.40
  -2  -9  -1   22.50    4.60
  -2  -9  -1   24.10    5.40
   2   9   1   20.20    6.00
   2   9   1   20.50    4.70
   2   9   1   22.10    5.00
   2   9   1   21.40    5.20
  -3  -9  -1   19.50    4.80
  -3  -9  -1   19.70    5.40
  -3  -9  -1   16.70    4.80
   3   9   1    7.50    4.30
   3   9   1   19.60    5.80
   3   9   1    6.30    4.40
   3   9   1    6.20    4.80
  -4  -9  -1  124.89   10.70
  -4  -9  -1  100.49    9.40
  -4  -9  -1  110.09    9.20
  -4  -9  -1  111.29    7.70
   4   9   1  119.19   10.70
   4   9   1  121.69   10.80
   4   9   1  115.99   10.30
  -5  -9  -1   16.90    5.80
  -5  -9  -1   22.10    5.40
  -5  -9  -1   15.70    5.20
  -5  -9  -1   22.70    5.10
   5   9   1   31.10    6.40
   5   9   1   23.00    3.40
   5   9   1   16.40    5.20
   5   9   1   22.50    6.70
   5   9   1   11.80    5.80
  -6  -9  -1  103.79   12.80
  -6  -9  -1  108.59   12.30
  -6  -9  -1  108.59   10.10
  -6  -9  -1  112.59   11.00
   6   9   1  154.38   13.60
   6   9   1  112.29   12.60
   6   9   1  115.29   11.80
  -7  -9  -1   66.59    8.40
  -7  -9  -1   80.89   13.00
  -7  -9  -1   68.49    9.90
  -7  -9  -1   73.29   10.20
   7   9   1   65.99    9.50
   3 -10  -1    1.60    4.70
   3 -10  -1    5.70    7.60
   3 -10  -1    5.10    7.20
   3 -10  -1   10.10    6.90
  -3  10   1   -2.30    6.50
  -3  10   1    8.00    4.80
  -3  10   1    4.50    4.80
   2 -10  -1   31.00    7.80
   2 -10  -1   31.70    5.30
   2 -10  -1   20.50    7.00
   2 -10  -1   30.00    6.30
  -2  10   1   33.80   12.10
  -2  10   1   33.00    6.50
  -2  10   1   31.10    5.60
   1 -10  -1  454.75   18.90
   1 -10  -1  497.55   21.40
   1 -10  -1  449.16   17.70
  -1  10   1  492.95   18.20
  -1  10   1  466.15   20.90
  -1  10   1  383.26   21.50
   0 -10  -1    2.00    2.70
   0 -10  -1    8.10    4.10
   0 -10  -1    9.20    5.50
   0 -10  -1   -2.80    4.40
   0  10   1   -1.80    4.00
   0  10   1   13.40    6.20
   0  10   1   -0.10    4.00
  -1 -10  -1   36.00    6.20
  -1 -10  -1   35.10    4.90
  -1 -10  -1   37.30    6.60
  -1 -10  -1   50.29    7.10
   1  10   1   44.70    5.80
   1  10   1   33.80    5.70
   1  10   1   44.20    6.80
   1  10   1   33.70    7.10
  -2 -10  -1    4.20    5.30
  -2 -10  -1   -3.00    5.00
  -2 -10  -1    6.10    4.10
  -2 -10  -1   -1.00    4.30
   2  10   1  -10.20    4.70
   2  10   1   -4.80    4.50
   2  10   1   -7.70    3.90
   2  10   1    2.90    5.90
  -3 -10  -1    9.10    5.30
  -3 -10  -1   12.00    5.80
  -3 -10  -1   10.20    4.50
   3  10   1    5.90    5.30
   3  10   1    2.60    4.60
   3  10   1    5.00    5.90
   3  10   1    3.40    5.30
  -4 -10  -1   31.70    6.10
  -4 -10  -1   36.50    7.30
  -4 -10  -1   28.50    6.70
   4  10   1   29.90    6.90
   4  10   1   34.40    6.60
   4  10   1   23.20    6.40
  -5 -10  -1    8.80    6.40
  -5 -10  -1    2.30    5.00
  -5 -10  -1   -0.40    5.70
   5  10   1    2.30    3.40
   5  10   1    8.70    6.40
   5  10   1    5.00    6.70
   5  10   1   13.30    6.30
   5  10   1   -5.50    6.00
  -6 -10  -1   11.10    5.70
  -6 -10  -1    9.40    7.00
  -6 -10  -1    3.50    7.90
   2 -11  -1   23.40    6.20
   2 -11  -1   17.30    8.40
  -2  11   1   12.30    5.60
  -2  11   1   25.00    8.40
  -2  11   1   23.60    6.60
   1 -11  -1    9.10    7.40
   1 -11  -1   -3.00    4.50
  -1  11   1    6.10    6.90
  -1  11   1    7.50    4.90
  -1  11   1    1.40    5.70
   0 -11  -1  114.59   10.00
   0 -11  -1   95.39   11.70
   0 -11  -1  103.39   14.50
   0 -11  -1  100.29    7.10
   0  11   1  116.29   10.50
   0  11   1  131.99   10.60
   0  11   1  116.39   13.20
  -1 -11  -1    6.10    7.30
  -1 -11  -1   11.30    4.30
  -1 -11  -1    0.70    5.90
  -1 -11  -1    7.10    4.50
   1  11   1   12.40    5.60
   1  11   1   -1.80    6.20
   1  11   1    9.50    6.70
   1  11   1    5.60    5.10
  -2 -11  -1  186.48   14.20
  -2 -11  -1  184.38   15.50
  -2 -11  -1  204.78   12.50
  -2 -11  -1  214.68   12.40
   2  11   1  191.18   15.30
   2  11   1  197.58   14.60
   2  11   1  186.98   12.40
   2  11   1  201.98   12.90
  -3 -11  -1  126.69   12.10
  -3 -11  -1  173.68   13.70
  -3 -11  -1  149.69   11.10
  -3 -11  -1  137.49   14.30
   3  11   1  121.09   12.90
   3  11   1  138.79   12.00
   3  11   1   95.79   12.20
   3  11   1  120.39   11.60
  -4 -11  -1   -6.30    6.80
  -4 -11  -1    1.40    4.80
  -4 -11  -1    6.60    7.70
  -4 -11  -1   -7.40    7.00
   4  11   1  -14.80    6.50
   4  11   1   -8.10    6.00
   4  11   1    0.10    6.90
  -5 -11  -1    9.20    7.90
  -5 -11  -1    2.10    7.60
  -5 -11  -1   12.90    8.90
  -5 -11  -1   12.00    5.90
   5  11   1    1.50    6.90
   5  11   1    4.50    4.30
   5  11   1    5.90    7.30
  -6 -11  -1    8.40    6.30
  -6 -11  -1   10.70    9.50
   6  11   1   15.70    8.10
   6  11   1    2.60    3.10
   0 -12  -1   19.80    5.80
   0 -12  -1   23.80    4.10
   0  12   1   28.20    9.10
   0  12   1   42.60    8.20
   0  12   1   15.30    6.20
  -1 -12  -1  157.68   12.40
   1  12   1  176.48   13.30
   1  12   1  164.68   13.80
   1  12   1  170.28   15.20
  -2 -12  -1    7.60    5.80
  -2 -12  -1    5.60    6.00
   2  12   1   -2.50    6.20
   2  12   1   16.40    8.30
   2  12   1   -9.20    6.80
  -3 -12  -1    3.60    5.70
  -3 -12  -1   22.00    7.70
   3  12   1    2.90    7.50
   3  12   1    5.60    6.70
   3  12   1    8.40    7.60
  -4 -12  -1    6.10    6.20
  -4 -12  -1    7.40    8.70
   4  12   1    3.60    6.80
   4  12   1    2.20    7.60
   4  12  -2   32.30    7.70
  -4 -12   2   40.60    7.40
  -4 -12   2   42.80    6.60
   3  12  -2   49.10    8.10
  -3 -12   2   87.39   11.50
   2  12  -2   27.10    7.50
   2  12  -2   22.80    8.90
  -2 -12   2   27.20    3.90
  -2 -12   2   24.10    6.90
   1  12  -2   58.39    8.00
   1  12  -2   71.29    9.50
  -1 -12   2   76.89    9.00
   0  12  -2    6.00    7.70
   0  12  -2   -5.70    5.70
   0 -12   2    1.40    3.30
   0 -12   2    3.30   10.40
   5  11  -2   59.09    8.80
  -5 -11   2   55.59    8.30
  -5 -11   2   95.99   11.60
  -5 -11   2   86.39   11.60
   4  11  -2   87.59   13.20
   4  11  -2   95.59   11.50
  -4 -11   2   74.39    8.90
  -4 -11   2   77.39   10.70
  -4 -11   2   68.39    8.00
  -4 -11   2   55.89    9.80
   3  11  -2  127.39   12.40
   3  11  -2  115.29   12.80
   3  11  -2  141.89   11.70
  -3 -11   2  107.29   10.50
  -3 -11   2  119.59    8.60
  -3 -11   2  121.89   13.70
  -3 -11   2  129.89   13.60
   2  11  -2   56.39    7.30
   2  11  -2   58.99    8.00
   2  11  -2   70.99   10.00
  -2 -11   2   90.39    9.60
  -2 -11   2   75.19    9.70
  -2 -11   2   55.79    9.40
  -2 -11   2   70.69    6.00
   1  11  -2    1.30    5.80
   1  11  -2    7.60    5.60
   1  11  -2    1.10    5.20
  -1 -11   2    3.60    6.70
  -1 -11   2    0.40    2.40
  -1 -11   2    1.00    4.90
  -1 -11   2    5.00    7.20
   0  11  -2   -0.50    4.70
   0  11  -2    8.10    5.40
   0 -11   2   -2.60    6.70
   0 -11   2    0.60    2.00
   0 -11   2   -1.10    2.80
   0 -11   2   -5.20    4.60
   0 -11   2    9.00    9.60
  -1  11  -2  118.19   11.40
  -1  11  -2  100.89   10.40
   1 -11   2  112.39   10.90
   1 -11   2   91.79    4.80
   1 -11   2  102.79    5.90
   1 -11   2  104.29   15.10
   1 -11   2  102.79    5.30
  -2  11  -2   -4.50    6.70
  -2  11  -2    2.10    5.70
   2 -11   2    2.70    2.70
   2 -11   2   -3.70    5.20
   6  10  -2  171.08   13.70
   6  10  -2  140.39    7.40
  -6 -10   2  134.79   15.40
  -6 -10   2  161.38   12.30
  -6 -10   2  169.48   15.80
  -6 -10   2  159.58   14.50
   5  10  -2   60.59    9.10
   5  10  -2   51.59    7.70
  -5 -10   2   64.49    9.00
  -5 -10   2   36.60    8.30
  -5 -10   2   68.39    9.80
  -5 -10   2   76.19    9.90
   4  10  -2  160.18   11.60
   4  10  -2  160.68   12.10
   4  10  -2  173.98   12.40
  -4 -10   2  179.38   13.70
  -4 -10   2  146.19   13.00
  -4 -10   2  171.78   10.90
  -4 -10   2  157.98   17.20
   3  10  -2  545.75   22.20
   3  10  -2  583.14   21.70
   3  10  -2  574.44   21.50
  -3 -10   2  579.64   20.20
  -3 -10   2  545.05   23.40
  -3 -10   2  574.34   23.30
  -3 -10   2  581.94   21.30
   2  10  -2   66.29    9.60
   2  10  -2   87.19    9.00
   2  10  -2   79.59    8.90
  -2 -10   2   83.59    8.80
  -2 -10   2   71.09    6.30
  -2 -10   2   78.49    9.90
  -2 -10   2   79.69    9.00
   1  10  -2  552.04   22.20
   1  10  -2  587.14   21.10
   1  10  -2  573.44   21.20
  -1 -10   2  564.14   23.60
  -1 -10   2  548.45   18.20
  -1 -10   2  589.04   22.40
  -1 -10   2  561.04   20.90
   0  10  -2   39.00    5.60
   0  10  -2   53.19    8.60
   0 -10   2   47.90    6.30
   0 -10   2   43.30    7.40
   0 -10   2   47.90    4.50
   0 -10   2   53.59    7.00
   0 -10   2   45.90    5.00
  -1  10  -2   -4.00    4.60
  -1  10  -2   -0.40    4.20
   1 -10   2    2.20    5.60
   1 -10   2   -2.10    4.30
   1 -10   2    0.30    2.00
   1 -10   2    1.70    5.10
   1 -10   2    4.90    2.40
  -2  10  -2   50.69    6.60
  -2  10  -2   41.40    6.20
   2 -10   2   46.40    5.80
   2 -10   2   29.50    6.50
   2 -10   2   25.30    5.40
   2 -10   2   32.30    7.90
  -3  10  -2   41.50    6.50
  -3  10  -2   26.70    6.30
   3 -10   2   30.10    9.20
   3 -10   2   30.10    5.10
   3 -10   2   37.10    7.70
   3 -10   2   24.90    5.90
   7   9  -2   10.30    6.50
  -7  -9   2   -3.60    5.50
  -7  -9   2    9.50    8.50
  -7  -9   2   -7.10    6.70
  -7  -9   2   -4.40    8.20
  -7  -9   2  -10.30    6.50
   6   9  -2   16.50    6.10
   6   9  -2   16.20   10.10
   6   9  -2    9.90    6.30
  -6  -9   2   14.90    6.60
  -6  -9   2    7.30    5.70
  -6  -9   2   17.40    6.60
  -6  -9   2    6.90    5.00
   5   9  -2  157.18   11.30
   5   9  -2  151.08   11.90
  -5  -9   2  153.98   12.70
  -5  -9   2  156.38   11.50
  -5  -9   2  175.38   12.20
  -5  -9   2  155.28   13.60
   4   9  -2  670.83   24.50
   4   9  -2  660.53   24.00
   4   9  -2  682.13   23.80
  -4  -9   2  664.93   24.30
  -4  -9   2  658.23   25.50
  -4  -9   2  677.63   25.40
  -4  -9   2  685.23   23.60
   3   9  -2   22.70    4.50
   3   9  -2   25.00    5.60
   3   9  -2   22.00    5.00
  -3  -9   2   22.90    5.50
  -3  -9   2   15.50    4.20
  -3  -9   2   25.10    5.00
  -3  -9   2   20.50    5.60
   2   9  -2  618.54   22.70
   2   9  -2  625.44   21.70
   2   9  -2  603.34   21.90
  -2  -9   2  616.04   23.90
  -2  -9   2  604.24   21.70
  -2  -9   2  669.73   23.50
  -2  -9   2  605.84   20.40
   1   9  -2  924.31   30.90
   1   9  -2  937.91   32.00
   1   9  -2  955.30   29.80
   1   9  -2  890.81   29.60
  -1  -9   2  921.01   31.90
  -1  -9   2  911.81   29.70
  -1  -9   2  878.91   27.70
  -1  -9   2  911.41   30.80
   0   9  -2 1192.18   36.90
   0   9  -2 1171.98   37.00
   0   9  -2 1189.48   39.10
   0  -9   2 1140.49   36.70
   0  -9   2 1205.98   38.00
   0  -9   2 1195.68   39.30
  -1   9  -2   20.80    4.70
  -1   9  -2   15.60    4.50
   1  -9   2   19.10    5.50
   1  -9   2   10.90    4.30
   1  -9   2   10.70    2.30
   1  -9   2   15.10    4.60
  -2   9  -2   -2.40    3.80
  -2   9  -2    7.30    6.80
   2  -9   2    3.70    3.10
   2  -9   2   -3.00    4.20
   2  -9   2    0.40    4.40
   2  -9   2    8.10    5.20
  -3   9  -2   82.59    9.10
  -3   9  -2   90.99    9.00
   3  -9   2   83.29    9.40
   3  -9   2   66.99    8.30
   3  -9   2   68.19    9.80
   3  -9   2   93.89    7.80
  -4   9  -2   -8.60    4.60
  -4   9  -2   -5.60    5.60
   4  -9   2  -11.20    5.40
   4  -9   2   -1.40    5.70
   4  -9   2    2.70    6.70
   4  -9   2   -1.60    5.00
   7   8  -2   -1.20    7.00
   7   8  -2    7.50    6.00
  -7  -8   2   -0.80    6.70
  -7  -8   2    9.20    5.00
  -7  -8   2   -2.10    5.30
  -7  -8   2   -1.80    7.80
  -7  -8   2    1.30    6.30
   6   8  -2   96.49   10.00
   6   8  -2   84.19    9.50
   6   8  -2   86.49   10.10
  -6  -8   2   65.19    9.80
  -6  -8   2   97.39   10.70
  -6  -8   2   73.39   10.60
  -6  -8   2   95.39    9.00
   5   8  -2   82.59    9.00
   5   8  -2   82.59    9.00
   5   8  -2   80.19    5.70
  -5  -8   2   91.89    9.40
  -5  -8   2   63.19    9.10
  -5  -8   2   82.69    8.90
  -5  -8   2   75.49    9.40
  -5  -8   2   83.59    8.00
   4   8  -2    5.50    4.00
   4   8  -2    9.80    4.30
   4   8  -2    7.70    3.70
  -4  -8   2   10.60    3.90
  -4  -8   2    1.90    4.50
  -4  -8   2    4.00    4.60
   3   8  -2   25.20    4.50
   3   8  -2   36.00    4.90
   3   8  -2   21.40    4.20
  -3  -8   2   17.10    7.70
  -3  -8   2   27.40    4.30
  -3  -8   2   26.20    5.30
   2   8  -2   20.50    4.40
   2   8  -2   15.00    4.00
   2   8  -2   17.50    4.40
  -2  -8   2   17.00    4.40
  -2  -8   2   15.80    3.40
  -2  -8   2   22.10    4.20
  -2  -8   2   20.70    5.20
   1   8  -2  866.31   28.90
   1   8  -2  897.11   29.70
   1   8  -2  919.01   30.60
   1   8  -2  906.31   28.90
  -1  -8   2  965.90   31.20
  -1  -8   2  898.51   27.50
  -1  -8   2  915.11   28.90
  -1  -8   2  913.21   29.90
   0   8  -2 1045.20   32.30
   0   8  -2 1028.70   33.90
   0  -8   2 1022.50   34.00
   0  -8   2 1023.30   32.80
   0  -8   2  998.30   32.00
  -1   8  -2 2368.66   69.59
  -1   8  -2 2237.38   67.79
  -1   8  -2 2356.26   67.89
   1  -8   2 2384.36   68.09
   1  -8   2 2184.38   65.49
   1  -8   2 2505.85   70.29
   1  -8   2 2367.66   68.49
  -2   8  -2  475.25   18.00
  -2   8  -2  504.35   18.00
   2  -8   2  525.45   20.00
   2  -8   2  477.65   16.80
   2  -8   2  488.95   18.30
   2  -8   2  477.55   18.00
  -3   8  -2    1.60    4.10
  -3   8  -2    4.80    3.90
   3  -8   2    4.80    3.80
   3  -8   2    3.50    4.70
   3  -8   2    5.20    3.90
   3  -8   2    5.90    4.10
  -4   8  -2   -4.20    4.30
  -4   8  -2   -2.30    4.40
  -4   8  -2   -0.70    3.70
   4  -8   2    1.50    4.80
   4  -8   2   -2.00    4.60
   4  -8   2    2.10    4.80
   4  -8   2   -5.90    5.10
  -5   8  -2   80.99   10.70
  -5   8  -2  112.69    9.60
  -5   8  -2  125.49   10.80
   5  -8   2  140.69   12.20
   5  -8   2  132.19   11.60
   5  -8   2  101.99   11.80
   5  -8   2  137.29   12.20
   8   7  -2   97.69   12.40
   8   7  -2   72.69   12.80
  -8  -7   2   77.39    9.90
  -8  -7   2   74.09    9.90
  -8  -7   2   82.39   13.00
  -8  -7   2  128.19   15.70
   7   7  -2  202.98   12.30
   7   7  -2  190.98   14.20
   7   7  -2  183.78   12.70
  -7  -7   2  198.28   15.50
  -7  -7   2  191.68   15.80
  -7  -7   2  179.18   13.50
  -7  -7   2  187.28   11.40
  -7  -7   2  180.38   11.20
   6   7  -2    3.50    4.90
   6   7  -2    1.70    4.60
   6   7  -2   -3.50    4.00
  -6  -7   2   -5.20    4.60
  -6  -7   2    2.50    4.00
  -6  -7   2   15.90    6.40
  -6  -7   2    3.80    3.90
   5   7  -2  138.69    9.50
   5   7  -2  130.59    6.10
   5   7  -2  137.49    9.60
   5   7  -2  146.39    8.80
  -5  -7   2  129.79    9.40
  -5  -7   2  141.49   10.30
  -5  -7   2  153.68    8.70
  -5  -7   2  131.49    9.80
  -5  -7   2  138.49   10.10
   4   7  -2  551.34   19.90
   4   7  -2  556.84   19.70
   4   7  -2  561.74   19.20
  -4  -7   2  549.25   20.10
  -4  -7   2  558.74   20.50
  -4  -7   2  566.24   19.20
  -4  -7   2  533.05   20.20
  -4  -7   2  538.95   20.20
   3   7  -2  155.18    8.30
   3   7  -2  161.18    8.90
  -3  -7   2  172.68    9.50
  -3  -7   2  152.48    8.50
  -3  -7   2  145.19    8.10
  -3  -7   2  151.58    9.70
   2   7  -2  362.16   14.10
   2   7  -2  357.56   13.80
  -2  -7   2  347.67   13.50
  -2  -7   2  363.56   13.20
  -2  -7   2  368.36   15.00
  -2  -7   2  371.36   14.50
   1   7  -2  717.93   23.90
   1   7  -2  728.93   23.00
   1   7  -2  706.33   23.20
   1   7  -2  707.83   24.60
  -1  -7   2  739.53   25.20
  -1  -7   2  706.73   23.00
   0   7  -2 1272.87   40.20
   0   7  -2 1326.37   38.90
   0   7  -2 1272.97   39.00
   0  -7   2 1291.67   38.90
   0  -7   2 1341.87   39.60
   0  -7   2 1290.47   40.90
  -1   7  -2 1938.11   58.89
  -1   7  -2 2146.39   59.09
  -1   7  -2 2064.49   60.49
   1  -7   2 1996.20   58.99
   1  -7   2 2108.39   60.79
   1  -7   2 2060.19   59.39
   1  -7   2 1922.71   56.99
  -2   7  -2  824.42   26.20
  -2   7  -2  715.63   24.50
   2  -7   2  752.82   24.70
   2  -7   2  743.03   24.70
   2  -7   2  758.52   26.00
  -3   7  -2   14.20    4.80
  -3   7  -2   21.20    4.30
   3  -7   2   21.40    4.00
   3  -7   2   16.70    3.90
   3  -7   2   15.10    4.60
   3  -7   2   11.80    4.00
  -4   7  -2  253.97   11.90
  -4   7  -2  260.37   11.60
  -4   7  -2  274.87   12.60
   4  -7   2  259.37   13.20
   4  -7   2  269.57   12.20
   4  -7   2  280.37   13.10
   4  -7   2  265.67   12.90
   4  -7   2  263.77   13.20
  -5   7  -2   -4.30    4.50
  -5   7  -2   -5.80    4.20
  -5   7  -2    3.20    3.90
   5  -7   2    4.00    6.10
   5  -7   2    7.90    4.70
   5  -7   2    9.70    4.70
   5  -7   2   -4.90    4.50
   5  -7   2   13.30    5.20
   8   6  -2   11.40    6.10
   8   6  -2   -6.70    9.10
  -8  -6   2    3.70    4.70
  -8  -6   2    5.00    6.80
  -8  -6   2   12.50    7.00
   7   6  -2   -2.60    4.20
   7   6  -2    0.40    4.90
   7   6  -2    4.80    5.50
   7   6  -2    1.00    7.60
  -7  -6   2   -2.20    3.70
  -7  -6   2   13.00    7.90
  -7  -6   2    5.50    3.80
  -7  -6   2   -2.00    5.30
  -7  -6   2   -1.30    5.30
   6   6  -2   15.60    4.60
   6   6  -2   11.20    3.80
   6   6  -2   17.60    5.30
  -6  -6   2   18.10    4.40
  -6  -6   2   15.70    4.00
  -6  -6   2    8.30    4.80
  -6  -6   2   11.00    3.70
  -6  -6   2   20.70    6.00
   5   6  -2   34.10    4.80
   5   6  -2   44.00    5.70
   5   6  -2   37.60    5.10
  -5  -6   2   38.10    6.00
  -5  -6   2   37.50    4.40
  -5  -6   2   28.00    4.40
  -5  -6   2   38.90    9.50
  -5  -6   2   48.00    7.10
   4   6  -2  531.35   17.40
   4   6  -2  499.55   17.70
  -4  -6   2  502.65   18.80
  -4  -6   2  463.85   17.00
  -4  -6   2  500.65   19.90
  -4  -6   2  500.15   18.20
  -4  -6   2  521.95   18.50
   3   6  -2  536.15   18.50
   3   6  -2  574.44   18.90
   3   6  -2  481.75   19.80
  -3  -6   2  590.64   19.70
  -3  -6   2  564.04   19.10
  -3  -6   2  564.94   18.30
  -3  -6   2  556.84   19.40
   2   6  -2  193.08    8.90
   2   6  -2  241.68    9.70
  -2  -6   2  268.77   11.20
  -2  -6   2  208.88   10.90
  -2  -6   2  216.58    9.20
   1   6  -2    5.60    3.10
   1   6  -2   -2.10    4.40
   1   6  -2    4.20    2.50
  -1  -6   2    8.60    2.60
  -1  -6   2    3.70    2.40
   0   6  -2  788.32   25.90
   0   6  -2  786.22   24.70
   0   6  -2  799.02   24.60
   0  -6   2  794.82   26.00
   0  -6   2  799.12   24.60
   0  -6   2  798.52   25.00
  -1   6  -2    2.60    2.90
  -1   6  -2    2.90    2.50
  -1   6  -2    3.20    2.30
   1  -6   2    4.10    2.70
   1  -6   2    6.00    2.70
   1  -6   2    6.30    2.60
   1  -6   2    5.60    1.70
  -2   6  -2 1518.95   44.10
  -2   6  -2 1483.35   45.10
  -2   6  -2 1507.65   44.30
   2  -6   2 1523.55   45.30
   2  -6   2 1480.95   41.80
   2  -6   2 1495.45   44.30
   2  -6   2 1505.35   44.30
  -3   6  -2 1605.14   47.20
  -3   6  -2 1635.94   47.10
  -3   6  -2 1543.55   46.30
   3  -6   2 1530.35   47.50
   3  -6   2 1640.34   48.10
   3  -6   2 1616.34   47.10
   3  -6   2 1612.64   47.30
  -4   6  -2  751.92   24.30
  -4   6  -2  727.73   23.90
  -4   6  -2  755.72   24.60
   4  -6   2  762.32   24.80
   4  -6   2  729.63   25.80
   4  -6   2  755.52   24.90
   4  -6   2  761.62   24.40
   4  -6   2  747.93   25.00
  -5   6  -2   97.79    8.20
  -5   6  -2   77.09    8.60
  -5   6  -2  109.89    8.70
  -5   6  -2  106.79   11.70
   5  -6   2  104.79    8.10
   5  -6   2  101.69    9.30
   5  -6   2  103.09   11.20
   5  -6   2  108.39    9.00
   5  -6   2   93.39    8.00
  -6   6  -2   79.09   12.90
  -6   6  -2   72.99    9.70
  -6   6  -2  103.09    9.60
   6  -6   2   75.79    9.80
   6  -6   2   92.99    8.90
   6  -6   2   78.09   10.50
   6  -6   2   90.69   12.50
   6  -6   2   76.19    7.20
   8   5  -2    5.10    8.20
   8   5  -2    1.30    5.40
   8   5  -2   -2.10    9.20
   8   5  -2   11.30    7.70
   8   5  -2   -2.70    5.30
  -8  -5   2    3.30    6.40
  -8  -5   2    0.10    4.30
  -8  -5   2    2.80    2.70
   7   5  -2   19.10    5.00
   7   5  -2   11.10    4.00
   7   5  -2   28.60    6.50
  -7  -5   2   19.60    4.30
  -7  -5   2   21.20    6.20
  -7  -5   2   28.00    5.90
  -7  -5   2   20.40    3.70
  -7  -5   2   25.30    7.40
   6   5  -2  144.89   10.00
   6   5  -2  140.39   11.90
   6   5  -2  138.79    8.90
   6   5  -2  141.19    8.30
  -6  -5   2  125.79    9.10
  -6  -5   2  135.49   11.30
  -6  -5   2  126.09   10.00
  -6  -5   2  125.89    7.90
  -6  -5   2  143.09    8.10
   5   5  -2   67.89    7.50
   5   5  -2   74.49    5.80
   5   5  -2   72.69    6.40
   5   5  -2   47.20    6.40
  -5  -5   2   66.69    6.90
  -5  -5   2   53.39    5.50
  -5  -5   2   65.19    7.50
  -5  -5   2   65.69    5.90
  -5  -5   2   58.29    6.50
   4   5  -2   19.70    2.60
   4   5  -2   18.80    3.60
  -4  -5   2   26.40    4.20
  -4  -5   2   24.70    4.00
  -4  -5   2   23.60    4.60
  -4  -5   2   20.30    3.70
  -4  -5   2   21.80    3.30
   3   5  -2   10.60    2.90
   3   5  -2   13.50    2.90
  -3  -5   2   13.20    2.50
  -3  -5   2   16.70    3.10
  -3  -5   2   12.10    2.80
  -3  -5   2   25.10    3.70
  -3  -5   2   16.20    3.20
   2   5  -2 2947.51   83.59
   2   5  -2 3064.89   83.29
   2   5  -2 2946.11   83.39
  -2  -5   2 2834.32   83.09
  -2  -5   2 3005.50   83.99
  -2  -5   2 2940.41   83.69
  -2  -5   2 3036.30   84.39
   1   5  -2  691.03   20.80
   1   5  -2  673.03   21.90
   1   5  -2  673.33   21.20
   1   5  -2  673.83   20.90
  -1  -5   2  660.03   21.10
  -1  -5   2  683.43   21.90
  -1  -5   2  646.84   20.60
   0   5  -2  174.18    8.20
   0   5  -2  165.68    7.10
   0   5  -2  157.88    7.30
   0  -5   2  161.68    7.10
   0  -5   2  179.38    8.20
   0  -5   2  181.58    7.60
  -1   5  -2 2271.77   64.79
  -1   5  -2 2223.88   63.89
  -1   5  -2 2284.47   63.89
   1  -5   2 2272.17   64.89
   1  -5   2 2246.38   63.99
   1  -5   2 2335.57   65.29
   1  -5   2 2133.39   62.59
  -2   5  -2   57.89    4.70
  -2   5  -2   59.99    5.10
   2  -5   2   68.29    5.30
   2  -5   2   64.39    4.90
   2  -5   2   62.79    3.20
   2  -5   2   64.69    5.50
  -3   5  -2  680.03   21.10
  -3   5  -2  694.53   21.70
  -3   5  -2  659.53   21.80
   3  -5   2  697.13   21.90
   3  -5   2  694.93   22.10
   3  -5   2  679.43   22.40
   3  -5   2  693.03   22.70
  -4   5  -2  242.68   10.60
  -4   5  -2  260.97   10.50
  -4   5  -2  244.58   10.10
   4  -5   2  236.98   11.10
   4  -5   2  238.08   10.50
   4  -5   2  229.18   12.30
   4  -5   2  228.78   10.40
   4  -5   2  256.67   10.60
  -5   5  -2   -0.80    3.50
  -5   5  -2    3.00    3.30
  -5   5  -2    3.50    5.20
   5  -5   2    2.30    3.50
   5  -5   2   -0.70    2.80
   5  -5   2   -0.80    5.00
   5  -5   2    9.10    4.30
   5  -5   2    1.30    3.20
  -6   5  -2  530.15   20.10
  -6   5  -2  562.34   19.60
  -6   5  -2  541.95   23.40
   6  -5   2  563.74   19.50
   6  -5   2  516.45   17.20
   6  -5   2  559.84   18.60
   6  -5   2  549.15   23.60
   6  -5   2  517.25   20.50
  -7   5  -2  183.68   11.80
  -7   5  -2  169.88   16.50
   7  -5   2  195.58   17.40
   7  -5   2  187.58   13.50
   8   4  -2    4.40    7.70
   8   4  -2   -2.30    7.40
   8   4  -2   -1.60    4.90
   8   4  -2   14.10    4.70
   8   4  -2    2.10    9.40
  -8  -4   2    4.90    4.00
  -8  -4   2    9.10    5.50
  -8  -4   2   11.20    6.50
   7   4  -2  101.09   11.20
   7   4  -2  116.39    7.80
   7   4  -2   98.09    8.70
   7   4  -2  102.09   16.20
   7   4  -2   99.29   10.30
  -7  -4   2  102.89   10.40
  -7  -4   2  105.29    9.10
  -7  -4   2  101.39    7.70
  -7  -4   2   88.59    5.90
  -7  -4   2   92.59   11.90
   6   4  -2   78.49   10.50
   6   4  -2  101.09    8.70
   6   4  -2   96.99    7.60
   6   4  -2   86.39    6.50
   6   4  -2   81.99    9.90
  -6  -4   2   97.49    6.70
  -6  -4   2   80.59    6.00
  -6  -4   2   65.69    7.40
  -6  -4   2   68.69    9.10
  -6  -4   2   93.49    8.80
   5   4  -2   12.50    4.60
   5   4  -2   15.20    2.90
   5   4  -2    6.90    3.40
  -5  -4   2   15.10    3.10
  -5  -4   2   19.30    3.90
  -5  -4   2   15.20    3.70
  -5  -4   2   14.90    4.40
  -5  -4   2   18.10    2.90
   4   4  -2  424.16   16.20
   4   4  -2  483.75   18.20
   4   4  -2  500.95   15.90
   4   4  -2  474.85   17.80
   4   4  -2  489.35   16.40
  -4  -4   2  498.45   18.10
  -4  -4   2  487.55   16.90
  -4  -4   2  508.15   16.00
  -4  -4   2  507.05   16.60
  -4  -4   2  505.15   16.90
   3   4  -2    0.70    2.10
   3   4  -2    7.40    2.00
   3   4  -2    5.70    1.90
  -3  -4   2    6.30    2.30
  -3  -4   2    3.10    2.10
  -3  -4   2    4.90    2.60
  -3  -4   2    0.10    1.70
  -3  -4   2    3.20    2.00
   2   4  -2  262.97    9.20
   2   4  -2  264.47    9.50
   2   4  -2  257.37    9.50
  -2  -4   2  248.08    9.20
  -2  -4   2  266.07    9.70
  -2  -4   2  270.97    9.90
  -2  -4   2  266.77   10.20
  -2  -4   2  267.27    9.90
   1   4  -2 7734.23  214.38
   1   4  -2 7710.03  214.48
  -1  -4   2 7974.50  215.38
   0   4  -2   -0.70    1.90
   0   4  -2    0.20    1.40
   0  -4   2   -0.50    1.60
   0  -4   2    0.60    1.80
   0  -4   2    1.40    1.60
  -1   4  -2   15.90    2.50
  -1   4  -2   16.40    2.80
  -1   4  -2   19.10    2.50
   1  -4   2   14.00    2.30
   1  -4   2   20.30    2.10
   1  -4   2   16.90    2.80
   1  -4   2   16.10    2.40
  -2   4  -2  194.58    7.70
  -2   4  -2  187.48    7.80
   2  -4   2  201.58   10.00
   2  -4   2  190.68    8.20
   2  -4   2  195.18    7.90
   2  -4   2  183.98    6.70
  -3   4  -2   12.30    2.20
  -3   4  -2   10.40    2.60
  -3   4  -2   12.40    1.80
  -3   4  -2    7.40    2.30
   3  -4   2    9.50    2.60
   3  -4   2    7.90    3.00
   3  -4   2   10.20    2.50
   3  -4   2    8.80    2.50
  -4   4  -2   48.10    4.90
  -4   4  -2   40.70    4.50
  -4   4  -2   42.20    3.00
   4  -4   2   29.70    5.10
   4  -4   2   39.20    4.40
   4  -4   2   44.90    5.00
   4  -4   2   43.60    4.80
   4  -4   2   48.00    5.80
  -5   4  -2  129.49    5.70
  -5   4  -2  131.59   10.40
  -5   4  -2  126.69    7.80
  -5   4  -2  134.89    7.70
   5  -4   2  125.39    6.90
   5  -4   2  141.59    7.70
   5  -4   2  125.69   10.10
   5  -4   2  123.89    8.60
   5  -4   2  121.79    6.20
  -6   4  -2  290.87   10.60
  -6   4  -2  280.17   12.70
  -6   4  -2  304.17   12.70
  -6   4  -2  301.77   16.30
   6  -4   2  290.07   12.50
   6  -4   2  292.07   11.10
   6  -4   2  298.07   16.90
   6  -4   2  314.07   14.20
  -7   4  -2   90.99    9.10
  -7   4  -2   69.29   10.20
  -7   4  -2   71.89    6.30
  -7   4  -2   87.79    9.10
   7  -4   2   74.39    9.40
   7  -4   2   76.39   10.60
   7  -4   2   69.59   10.90
   8   3  -2   -1.00    3.70
   8   3  -2   -3.50    7.90
   8   3  -2    0.20    4.80
   8   3  -2   -2.80    7.00
  -8  -3   2    4.80    4.50
  -8  -3   2    1.00    4.50
  -8  -3   2    2.00    6.20
   7   3  -2    3.40    6.10
   7   3  -2   18.20    6.00
   7   3  -2   26.20    7.80
   7   3  -2    8.50    4.30
   7   3  -2   12.90    3.60
  -7  -3   2    7.90    1.80
  -7  -3   2   10.40    5.20
  -7  -3   2   14.20    6.50
  -7  -3   2   11.10    3.70
  -7  -3   2   13.90    4.20
   6   3  -2   86.99   10.10
   6   3  -2   92.29   10.70
   6   3  -2  117.09    8.70
   6   3  -2  109.49    7.40
   6   3  -2  110.89    6.20
  -6  -3   2   94.19    7.20
  -6  -3   2   85.69    9.90
  -6  -3   2  113.59    9.10
  -6  -3   2  110.59    6.50
  -6  -3   2   81.09    5.50
   5   3  -2   14.40    4.70
   5   3  -2    9.10    3.20
   5   3  -2    8.50    4.70
   5   3  -2   15.60    2.70
   5   3  -2   15.90    3.80
  -5  -3   2   11.00    2.70
  -5  -3   2    7.00    3.50
  -5  -3   2   14.80    2.40
  -5  -3   2   10.60    2.90
  -5  -3   2    6.60    3.90
   4   3  -2 1421.46   41.70
   4   3  -2 1483.85   42.60
   4   3  -2 1409.96   43.70
   4   3  -2 1394.56   43.80
  -4  -3   2 1453.05   43.80
  -4  -3   2 1430.36   41.30
  -4  -3   2 1465.75   41.70
  -4  -3   2 1458.25   42.10
  -4  -3   2 1433.06   42.40
   3   3  -2  223.48    8.50
   3   3  -2  219.98    7.80
   3   3  -2  226.78    8.10
   3   3  -2  234.18    8.70
   3   3  -2  228.18    9.80
  -3  -3   2  229.38    8.10
  -3  -3   2  229.28    9.60
  -3  -3   2  230.48    8.80
  -3  -3   2  237.48    8.80
  -3  -3   2  232.38    8.80
   2   3  -2  286.07    9.50
   2   3  -2  285.67    9.70
   2   3  -2  286.87    9.70
  -2  -3   2  296.77   10.30
  -2  -3   2  300.47   10.00
  -2  -3   2  281.07    9.50
  -2  -3   2  281.77    9.80
  -2  -3   2  284.37   10.50
   1   3  -2 1872.81   53.29
   1   3  -2 1882.01   53.39
   1   3  -2 1896.31   53.19
  -1  -3   2 2000.00   54.09
  -1  -3   2 1864.61   53.19
  -1  -3   2 1894.41   53.49
   0   3  -2 4295.57  118.19
   0   3  -2 4236.78  118.19
   0  -3   2 4309.57  118.79
   0  -3   2 4375.56  118.29
   0  -3   2 4193.38  118.19
  -1   3  -2   46.10    3.20
  -1   3  -2   34.40    2.90
   1  -3   2   37.70    3.20
   1  -3   2   38.80    3.00
   1  -3   2   32.40    2.90
  -2   3  -2 2155.68   62.29
  -2   3  -2 2182.38   61.49
  -2   3  -2 2170.78   61.29
  -2   3  -2 2258.27   62.29
   2  -3   2 2267.37   62.49
   2  -3   2 2251.17   62.29
   2  -3   2 2218.98   62.39
  -3   3  -2   10.90    2.30
  -3   3  -2   14.60    2.20
  -3   3  -2   13.80    2.30
  -3   3  -2   15.70    2.10
   3  -3   2   12.00    2.30
   3  -3   2   17.80    2.40
   3  -3   2   13.90    2.30
   3  -3   2   20.80    3.60
   3  -3   2   13.70    2.60
  -4   3  -2   63.19    5.30
  -4   3  -2   63.29    6.60
  -4   3  -2   57.89    4.80
  -4   3  -2   63.99    3.90
   4  -3   2   74.19    7.00
   4  -3   2   61.39    4.10
   4  -3   2   60.99    5.50
   4  -3   2   61.99    4.60
  -5   3  -2   35.60    5.60
  -5   3  -2   35.80    5.10
  -5   3  -2   44.60    4.40
  -5   3  -2   45.80    5.60
   5  -3   2   52.59    6.80
   5  -3   2   44.60    4.60
   5  -3   2   39.40    3.20
   5  -3   2   42.40    5.20
   5  -3   2   41.40    4.90
  -6   3  -2   -2.20    2.70
  -6   3  -2    6.50    3.80
  -6   3  -2    4.10    3.20
  -6   3  -2    7.40    4.90
   6  -3   2    4.10    6.20
   6  -3   2    2.70    3.10
   6  -3   2   -4.30    3.80
  -7   3  -2   37.60    8.10
  -7   3  -2   28.10    5.10
  -7   3  -2   30.70    5.20
   7  -3   2   53.89    9.90
   7  -3   2   41.40    5.20
   7  -3   2   33.50    6.00
   8   2  -2  -13.40    6.70
   8   2  -2    5.30    4.10
   8   2  -2    5.10    3.80
   8   2  -2   -2.10    8.60
  -8  -2   2    5.50    4.20
  -8  -2   2    3.40    5.90
  -8  -2   2    1.00    3.30
   7   2  -2   18.00    3.30
   7   2  -2   14.40    6.60
   7   2  -2   15.20    7.30
   7   2  -2   14.00    5.30
  -7  -2   2   14.10    4.00
  -7  -2   2   19.90    5.60
  -7  -2   2   17.80    3.20
  -7  -2   2   20.70    7.30
  -7  -2   2   15.20    3.50
   6   2  -2   54.39    7.60
   6   2  -2   81.69    7.90
   6   2  -2   62.69    9.20
   6   2  -2   91.19    5.40
  -6  -2   2   77.09    6.40
  -6  -2   2   92.89    8.30
  -6  -2   2   82.09    5.10
  -6  -2   2   70.29    8.80
  -6  -2   2   60.69    4.00
  -6  -2   2   82.19    5.50
   5   2  -2    1.60    1.70
   5   2  -2   -1.50    2.60
   5   2  -2   -1.60    3.70
   5   2  -2    0.20    2.90
   5   2  -2    0.10    4.10
  -5  -2   2   -5.00    2.80
  -5  -2   2    1.90    1.60
  -5  -2   2    1.50    1.80
  -5  -2   2    1.90    2.30
  -5  -2   2   -3.30    3.30
  -5  -2   2    1.50    1.90
   4   2  -2  209.28    9.40
   4   2  -2  241.78   10.90
   4   2  -2  201.08   10.80
   4   2  -2  225.98    7.90
   4   2  -2  229.28    8.50
  -4  -2   2  231.08    8.70
  -4  -2   2  224.18    8.00
  -4  -2   2  221.38    7.70
  -4  -2   2  215.58    8.20
  -4  -2   2  221.98    9.40
  -4  -2   2  210.38   10.50
   3   2  -2  467.85   16.40
   3   2  -2  491.75   14.50
   3   2  -2  485.65   16.60
   3   2  -2  506.15   15.50
   3   2  -2  437.66   14.80
   3   2  -2  477.35   14.80
  -3  -2   2  498.25   15.10
  -3  -2   2  469.75   14.50
  -3  -2   2  475.75   15.30
  -3  -2   2  482.75   16.40
   2   2  -2 1763.52   49.30
   2   2  -2 1754.72   49.50
   2   2  -2 1801.42   49.20
  -2  -2   2 1724.63   49.10
  -2  -2   2 1696.73   49.50
  -2  -2   2 1770.52   49.50
  -2  -2   2 1833.12   50.49
   1   2  -2 2541.85   69.59
   1   2  -2 2523.55   69.59
  -1  -2   2 2549.65   69.69
  -1  -2   2 2452.05   69.59
   0   2  -2 1837.82   51.79
   0   2  -2 1914.01   51.89
   0  -2   2 1894.01   51.89
   0  -2   2 1871.81   51.89
   0  -2   2 1788.02   51.79
  -1   2  -2 4260.37  115.99
  -1   2  -2 4118.49  115.49
  -1   2  -2 4159.18  115.99
   1  -2   2 4228.78  116.19
   1  -2   2 4275.97  116.09
   1  -2   2 4217.38  115.99
  -2   2  -2  485.05   14.30
  -2   2  -2  474.25   14.80
  -2   2  -2  483.75   14.10
  -2   2  -2  461.55   14.80
   2  -2   2  478.65   14.60
   2  -2   2  490.55   15.10
   2  -2   2  484.05   14.60
   2  -2   2  481.65   14.70
  -3   2  -2 3618.54  100.69
  -3   2  -2 3489.05  102.09
  -3   2  -2 3494.85  100.99
  -3   2  -2 3621.94  100.99
   3  -2   2 3689.73  101.39
   3  -2   2 3660.43  102.39
   3  -2   2 3689.63  100.89
   3  -2   2 3637.04  100.39
   3  -2   2 3804.32  100.19
   4  -2   2   68.29    3.80
  -5   2  -2  401.96   14.40
  -5   2  -2  407.96   14.20
  -5   2  -2  407.36   16.50
  -5   2  -2  408.76   14.30
   5  -2   2  393.96   12.30
   5  -2   2  406.46   15.10
   5  -2   2  402.86   14.10
   5  -2   2  422.06   17.30
  -6   2  -2   79.89    6.80
  -6   2  -2   75.39    6.60
  -6   2  -2   78.19    9.20
   6  -2   2   77.19   10.40
   6  -2   2   68.39    6.30
   6  -2   2   74.49    7.70
  -7   2  -2    1.50    4.80
  -7   2  -2    1.80    3.90
  -7   2  -2   -5.50    5.70
  -7   2  -2   -1.20    3.90
   7  -2   2    3.20   10.80
   7  -2   2    7.20    5.10
   7  -2   2    0.30    3.80
  -8   2  -2   77.59   10.10
  -8   2  -2   62.69   10.60
  -8   2  -2   66.29    9.20
  -8   2  -2   84.49   10.40
   8  -2   2   61.69    7.60
   8  -2   2   86.09   11.70
   8  -2   2   87.79   12.70
   8   1  -2    3.60    3.60
   8   1  -2   -3.40    8.50
   8   1  -2   -4.70    6.70
  -8  -1   2    2.50    3.90
  -8  -1   2    5.00    4.10
  -8  -1   2   -2.70    3.10
  -8  -1   2    0.40    5.90
   7   1  -2   10.20    3.30
   7   1  -2   19.60    6.30
   7   1  -2   13.20    3.00
   7   1  -2   28.40    7.90
  -7  -1   2   27.90    6.20
  -7  -1   2   16.50    4.10
  -7  -1   2   13.70    3.30
  -7  -1   2    2.60    6.60
  -7  -1   2   19.80    3.60
   6   1  -2   11.10    4.10
   6   1  -2   13.00    3.00
   6   1  -2    9.00    5.40
   6   1  -2   12.30    6.10
  -6  -1   2   14.50    3.00
  -6  -1   2   10.80    2.70
  -6  -1   2   13.30    4.90
  -6  -1   2   12.80    5.20
  -6  -1   2    8.70    3.30
   5   1  -2    3.20    4.50
   5   1  -2    8.00    2.20
   5   1  -2    3.10    3.80
   5   1  -2    8.40    1.90
  -5  -1   2    7.10    2.50
  -5  -1   2    7.80    2.10
  -5  -1   2    6.10    1.50
  -5  -1   2    6.50    2.00
  -5  -1   2    3.90    3.20
  -5  -1   2    2.30    3.90
   4   1  -2 1433.26   40.70
   4   1  -2 1380.26   43.10
   4   1  -2 1460.05   42.20
   4   1  -2 1436.96   40.30
   4   1  -2 1407.96   40.90
   4   1  -2 1412.36   43.10
  -4  -1   2 1450.75   43.30
  -4  -1   2 1424.56   40.40
  -4  -1   2 1400.26   42.00
  -4  -1   2 1493.95   41.00
  -4  -1   2 1430.96   40.90
   3   1  -2  257.07   10.20
   3   1  -2  252.37    8.00
   3   1  -2  243.98   10.10
   3   1  -2  250.37    8.60
   3   1  -2  263.27    9.20
   3   1  -2  255.27    8.30
  -3  -1   2  264.47    9.30
  -3  -1   2  252.97    8.40
  -3  -1   2  246.98    8.00
  -3  -1   2  244.98    8.50
  -3  -1   2  247.38   10.10
   2   1  -2  592.14   17.10
   2   1  -2  592.74   17.70
   2   1  -2  599.34   18.60
   2   1  -2  598.94   18.60
  -2  -1   2  612.54   17.50
  -2  -1   2  572.74   18.50
  -2  -1   2  591.84   17.70
  -2  -1   2  600.24   17.30
  -2  -1   2  596.14   17.00
   1   1  -2  141.89    4.40
   1   1  -2  146.69    5.40
   1   1  -2  129.79    4.90
   1   1  -2  132.99    4.40
   1   1  -2  134.59    4.40
   1   1  -2  141.59    4.80
  -1  -1   2  136.49    4.50
  -1  -1   2  133.89    4.40
  -1  -1   2  127.99    4.40
   0   1  -2  615.34   17.40
   0   1  -2  616.24   17.40
   0   1  -2  624.04   17.50
   0   1  -2  580.74   17.30
   0  -1   2  657.63   17.70
   0  -1   2  568.94   17.60
   0  -1   2  605.94   17.40
  -1   1  -2  522.95   15.10
  -1   1  -2  513.25   15.10
  -1   1  -2  522.05   15.00
   1  -1   2  531.35   15.10
   1  -1   2  486.75   15.10
   1  -1   2  505.75   15.30
  -2   1  -2 3777.12  104.49
  -2   1  -2 3706.23  104.39
  -2   1  -2 3732.03  104.99
  -2   1  -2 3866.11  104.39
   2  -1   2 3857.01  104.59
   2  -1   2 3744.03  104.29
   2  -1   2 3848.42  104.69
   2  -1   2 3717.83  103.79
  -3   1  -2 1735.73   49.20
  -3   1  -2 1794.22   49.20
  -3   1  -2 1681.63   48.90
  -3   1  -2 1669.33   49.90
   3  -1   2 1765.62   47.60
   3  -1   2 1677.53   48.70
   3  -1   2 1712.03   47.90
   3  -1   2 1734.23   48.90
   3  -1   2 1772.92   49.50
   3  -1   2 1745.13   50.39
  -4   1  -2    3.60    2.30
  -4   1  -2    9.50    3.10
  -4   1  -2    5.80    2.20
  -4   1  -2    3.30    2.20
   4  -1   2    2.40    3.40
   4  -1   2    3.10    2.50
   4  -1   2    3.60    2.00
   4  -1   2    3.00    2.20
  -5   1  -2   97.89    6.70
  -5   1  -2   98.19    6.40
  -5   1  -2   98.49    8.30
  -5   1  -2   95.69    6.50
   5  -1   2   84.09    6.60
   5  -1   2   94.79    7.10
   5  -1   2   96.29    8.30
   5  -1   2   88.09    6.00
  -6   1  -2   -1.90    2.90
  -6   1  -2    2.80    4.20
  -6   1  -2    4.90    3.20
  -6   1  -2    4.20    3.40
   6  -1   2    1.00    3.50
   6  -1   2    5.00    3.90
   6  -1   2   -0.10    3.20
   6  -1   2    6.90    5.70
  -7   1  -2   34.80    4.80
  -7   1  -2   37.00    5.90
  -7   1  -2   48.70    7.80
  -7   1  -2   33.20    5.10
   7  -1   2   42.20    6.00
   7  -1   2   36.80    5.10
   7  -1   2   35.00    6.30
  -8   1  -2   18.60    5.00
  -8   1  -2   26.60    7.40
  -8   1  -2   38.40    7.20
  -8   1  -2   26.00    5.60
   8  -1   2   26.50   10.30
   8  -1   2   17.70    5.90
   8  -1   2   21.10    6.50
   8   0  -2   70.49    5.70
   8   0  -2   71.39    9.70
   8   0  -2   75.99    6.10
   8   0  -2   56.19   11.10
  -8   0   2   69.89    9.40
  -8   0   2   70.79    6.60
  -8   0   2   83.89   12.10
  -8   0   2   69.19    6.90
  -8   0   2   73.09   10.00
   7   0  -2   28.50    8.30
   7   0  -2   29.60    3.40
   7   0  -2   26.90    6.30
  -7   0   2   26.70    5.30
  -7   0   2   28.70    7.40
  -7   0   2   44.40    7.10
  -7   0   2   27.40    3.50
  -7   0   2   29.40    3.70
   6   0  -2   31.90    5.90
   6   0  -2   33.10    5.00
   6   0  -2   43.30    4.00
   6   0  -2   48.20    7.60
  -6   0   2   50.19    7.30
  -6   0   2   44.10    6.20
  -6   0   2   41.90    6.20
  -6   0   2   40.60    4.60
   5   0  -2  522.75   18.50
   5   0  -2  514.75   15.60
   5   0  -2  508.25   19.40
  -5   0   2  456.95   15.40
  -5   0   2  470.45   16.50
   4   0  -2  244.18   10.80
   4   0  -2  225.68   10.50
   4   0  -2  229.98    8.70
   4   0  -2  238.28    7.60
  -4   0   2  238.38    9.30
  -4   0   2  247.88   10.90
  -4   0   2  240.58    7.80
  -4   0   2  236.78    9.90
  -4   0   2  209.08    8.40
  -4   0   2  237.08    8.10
   3   0  -2  682.63   22.00
   3   0  -2  688.23   20.50
   3   0  -2  670.63   21.70
   3   0  -2  686.53   19.50
  -3   0   2  709.03   22.00
  -3   0   2  713.63   22.20
  -3   0   2  691.33   20.90
  -3   0   2  709.63   19.90
  -3   0   2  665.03   21.10
   1   0  -2  846.82   22.40
   1   0  -2  778.12   22.70
   1   0  -2  747.03   21.50
  -1   0   2  798.52   22.50
  -1   0   2  751.02   21.60
  -1   0   2  778.82   22.70
  -1   0   2  816.72   22.80
  -1   0   2  746.83   21.60
  -1   0   2  787.02   22.00
   0   0  -2 1873.01   55.19
   0   0   2 2094.89   55.39
  -1   0  -2 1282.57   39.50
  -1   0  -2 1402.26   39.30
  -1   0  -2 1487.75   38.50
  -1   0  -2 1304.47   39.20
  -1   0  -2 1413.76   39.40
   1   0   2 1500.75   38.60
   1   0   2 1421.06   39.10
   1   0   2 1412.66   39.20
  -2   0  -2  279.37    9.40
  -2   0  -2  261.97    9.00
  -2   0  -2  290.87    9.40
  -2   0  -2  289.17    9.60
   2   0   2  269.07    9.00
   2   0   2  285.87    9.60
   2   0   2  280.17    9.60
   2   0   2  285.57    9.60
  -3   0  -2   46.40    4.20
  -3   0  -2   43.60    3.80
  -3   0  -2   43.10    4.00
  -3   0  -2   40.40    3.50
   3   0   2   36.70    4.50
   3   0   2   45.10    3.50
   3   0   2   42.50    4.20
   3   0   2   52.59    1.90
   3   0   2   49.90    3.70
   3   0   2   51.49    4.20
  -4   0  -2    3.00    2.60
  -4   0  -2   11.60    2.90
  -4   0  -2   12.40    2.90
   4   0   2    6.70    3.10
   4   0   2    9.30    3.50
   4   0   2   10.90    2.70
  -5   0  -2 1710.83   48.80
  -5   0  -2 1672.13   48.40
  -5   0  -2 1732.93   51.79
  -5   0  -2 1680.33   50.19
   5   0   2 1710.63   49.20
   5   0   2 1678.03   51.09
   5   0   2 1491.35   49.10
   5   0   2 1672.13   49.10
  -6   0  -2    7.80    3.30
  -6   0  -2    2.00    3.80
   6   0   2    0.30    3.90
   6   0   2   14.50    6.20
  -7   0  -2  207.58   10.60
  -7   0  -2  184.98   18.90
  -7   0  -2  208.58   10.90
  -7   0  -2  213.48   12.40
   7   0   2  210.38   10.30
   7   0   2  219.88   12.10
   7   0   2  209.18   11.90
   7   0   2  213.98   15.70
  -8   0  -2    7.40    6.20
  -8   0  -2    5.20    7.30
  -8   0  -2    0.30    6.60
  -8   0  -2    5.90    5.10
  -8   0  -2    2.20    4.40
   8   0   2    5.30    9.50
   8   0   2    8.80    5.70
   8   0   2   11.50    5.70
   8   0   2   10.60    5.90
   8  -1  -2    4.50    2.70
   8  -1  -2    2.20    2.90
   8  -1  -2   -0.10    9.10
  -8   1   2    4.00    3.30
  -8   1   2    1.90    3.40
  -8   1   2    6.60    6.80
  -8   1   2   12.20    6.80
  -8   1   2    4.40    7.20
   7  -1  -2   18.80    2.60
   7  -1  -2   21.20    7.80
   7  -1  -2   11.30    3.70
   7  -1  -2   17.60    3.00
  -7   1   2   19.20    6.40
  -7   1   2   17.50    5.70
  -7   1   2   18.70    3.10
   6  -1  -2   36.20    4.20
   6  -1  -2   47.70    3.90
   6  -1  -2   46.70    5.10
   6  -1  -2   41.60    7.00
   6  -1  -2   44.20    6.30
  -6   1   2   61.79    7.60
  -6   1   2   48.90    7.10
  -6   1   2   47.90    4.30
  -6   1   2   37.80    4.30
  -6   1   2   32.00    5.70
   5  -1  -2  466.25   15.90
   5  -1  -2  491.05   16.30
   5  -1  -2  521.15   18.70
   5  -1  -2  488.15   19.50
   5  -1  -2  509.35   15.10
  -5   1   2  506.85   15.40
  -5   1   2  512.25   19.20
  -5   1   2  494.85   18.30
  -5   1   2  500.15   15.40
  -5   1   2  514.05   17.80
   4  -1  -2  916.71   27.10
   4  -1  -2  845.62   26.00
   4  -1  -2  922.41   28.70
   4  -1  -2  918.91   25.70
   4  -1  -2  895.41   29.00
  -4   1   2  893.11   26.00
  -4   1   2  986.90   29.90
  -4   1   2  910.41   26.30
  -4   1   2  907.21   27.90
  -4   1   2  880.31   25.90
  -4   1   2  947.41   30.60
  -4   1   2  888.81   28.30
   3  -1  -2  667.73   19.50
   3  -1  -2  650.33   20.50
   3  -1  -2  639.14   18.30
   3  -1  -2  627.94   20.70
   3  -1  -2  633.54   18.10
  -3   1   2  645.64   19.00
  -3   1   2  638.64   18.30
  -3   1   2  637.84   20.60
  -3   1   2  650.83   20.70
  -3   1   2  650.83   18.40
  -3   1   2  635.64   20.10
   2  -1  -2 2769.52   75.69
   2  -1  -2 2780.62   77.59
   2  -1  -2 2570.74   77.59
   2  -1  -2 2773.22   77.59
  -2   1   2 2857.61   77.79
  -2   1   2 2823.02   77.49
  -2   1   2 2783.42   76.79
  -2   1   2 2703.43   75.69
  -2   1   2 2858.71   77.59
   1  -1  -2 1972.40   51.39
  -1   1   2 1816.02   51.59
  -1   1   2 1847.42   51.29
  -1   1   2 1760.72   51.89
  -1   1   2 1803.62   51.59
  -1   1   2 1835.62   50.89
   0  -1  -2 1978.70   53.49
   0  -1  -2 2021.00   53.19
   0  -1  -2 1995.40   53.29
   0  -1  -2 1770.32   54.19
   0  -1  -2 1997.20   53.59
   0  -1  -2 2026.50   53.79
   0   1   2 1781.62   54.19
   0   1   2 1973.10   53.59
   0   1   2 1960.40   53.39
   0   1   2 1669.63   53.09
   0   1   2 2090.89   53.89
  -1  -1  -2 3528.85   91.49
  -1  -1  -2 3321.97   91.69
  -1  -1  -2 3311.37   91.89
  -1  -1  -2 3313.67   92.09
   1   1   2 3360.26   92.19
   1   1   2 3205.98   91.99
   1   1   2 3447.26   91.79
   1   1   2 3281.97   91.69
   1   1   2 3226.28   91.69
  -2  -1  -2  427.76   13.00
  -2  -1  -2  419.96   13.30
  -2  -1  -2  426.36   13.40
  -2  -1  -2  421.56   13.60
   2   1   2  401.66   13.70
   2   1   2  430.26   13.50
   2   1   2  434.46   13.40
   2   1   2  396.66   12.80
   2   1   2  434.76   12.50
  -3  -1  -2 2235.98   60.39
  -3  -1  -2 2237.38   62.29
  -3  -1  -2 2254.67   62.79
  -3  -1  -2 2140.19   61.79
  -3  -1  -2 2179.18   62.59
   3   1   2 2186.88   61.69
   3   1   2 2270.87   62.59
   3   1   2 2085.49   60.59
   3   1   2 2192.78   63.09
   3   1   2 2236.58   62.39
  -4  -1  -2  146.99    4.80
  -4  -1  -2  152.28    7.90
  -4  -1  -2  162.08    7.90
  -4  -1  -2  139.79    7.40
  -4  -1  -2  136.89    6.80
   4   1   2  131.49    7.60
   4   1   2  145.79    8.40
   4   1   2  144.99    8.10
  -5  -1  -2   32.90    4.10
  -5  -1  -2   35.30    2.70
  -5  -1  -2   32.40    4.80
  -5  -1  -2   24.50    3.80
   5   1   2   40.50    6.00
   5   1   2   37.80    5.00
   5   1   2   28.00    4.70
   5   1   2   23.00    6.40
   5   1   2   35.70    5.00
  -6  -1  -2  274.37   13.50
  -6  -1  -2  286.57   13.10
  -6  -1  -2  278.77   12.10
  -6  -1  -2  270.07   11.40
   6   1   2  266.57   14.90
   6   1   2  257.17   11.30
   6   1   2  282.07   13.00
   6   1   2  268.87   12.60
  -7  -1  -2   13.80    5.00
  -7  -1  -2    8.40    5.80
  -7  -1  -2   10.80    4.30
  -7  -1  -2   10.70    3.90
  -7  -1  -2   11.70    3.10
   7   1   2    9.50    7.50
   7   1   2    4.40    5.00
   7   1   2    3.30    4.10
   7   1   2    2.90    4.60
  -8  -1  -2   -4.40    4.20
  -8  -1  -2   -9.70    6.00
  -8  -1  -2    7.20    6.70
  -8  -1  -2    1.90    3.40
  -8  -1  -2  -13.50    9.30
   8   1   2    3.50    8.80
   8   1   2   -1.20    5.90
   8   1   2    0.60    6.10
   8  -2  -2    7.20   10.10
   8  -2  -2    0.20    2.20
   8  -2  -2    8.30    2.90
  -8   2   2    0.80    3.60
  -8   2   2   -8.40    6.70
  -8   2   2   20.20    8.30
  -8   2   2   -4.80    6.20
   7  -2  -2   99.59    7.60
   7  -2  -2  104.79    6.00
   7  -2  -2   96.09    5.10
   7  -2  -2   81.19   17.20
  -7   2   2  120.89   11.40
  -7   2   2   92.19    9.10
  -7   2   2  120.19   11.60
  -7   2   2   99.39    6.20
  -7   2   2   90.29    6.10
   6  -2  -2    5.40    2.20
   6  -2  -2    8.90    5.80
   6  -2  -2    4.20    3.10
   6  -2  -2    3.00    2.00
  -6   2   2    6.00    4.70
  -6   2   2    6.80    2.30
  -6   2   2    3.30    2.10
  -6   2   2   -0.80    4.30
   5  -2  -2   48.60    3.60
   5  -2  -2   48.30    5.20
   5  -2  -2   35.20    6.10
  -5   2   2   41.90    4.00
  -5   2   2   45.30    7.20
  -5   2   2   50.39    7.30
  -5   2   2   41.70    3.90
  -5   2   2   46.80    3.70
   4  -2  -2   73.59    3.80
   4  -2  -2   72.79    5.30
   4  -2  -2   74.29    3.50
   4  -2  -2   84.19    6.70
  -4   2   2   89.09    8.00
  -4   2   2   74.69    4.50
  -4   2   2   95.79    6.90
  -4   2   2   75.99    3.70
  -4   2   2   67.79    6.30
  -4   2   2   71.09    3.80
   3  -2  -2  875.21   24.40
   3  -2  -2  882.81   25.80
   3  -2  -2  854.71   24.20
   3  -2  -2  830.72   26.50
  -3   2   2  884.41   26.80
  -3   2   2  824.42   24.30
  -3   2   2  853.41   25.30
  -3   2   2  883.11   26.60
  -3   2   2  846.22   24.30
   2  -2  -2 1794.62   50.39
   2  -2  -2 1883.51   51.59
   2  -2  -2 1838.92   51.89
   2  -2  -2 1870.61   51.79
  -2   2   2 1876.91   51.89
  -2   2   2 1805.62   50.39
  -2   2   2 1724.13   50.39
  -2   2   2 1844.12   52.19
  -2   2   2 1852.51   51.59
  -2   2   2 1800.02   50.69
   1  -2  -2  196.38    8.20
   1  -2  -2  214.78    6.60
   1  -2  -2  217.88    7.60
   1  -2  -2  218.78    6.60
  -1   2   2  218.98    7.70
  -1   2   2  212.48    6.60
  -1   2   2  206.38    6.50
  -1   2   2  223.38    6.50
  -1   2   2  226.38    7.10
  -1  -2  -2 1945.71   53.89
  -1  -2  -2 1898.91   53.79
  -1  -2  -2 1952.80   54.09
  -1  -2  -2 1892.01   53.69
   1   2   2 1928.71   53.89
   1   2   2 1964.80   54.19
   1   2   2 1967.40   53.89
   1   2   2 1857.61   53.39
   1   2   2 1921.61   53.69
   1   2   2 1901.31   53.49
  -2  -2  -2 1604.14   44.50
  -2  -2  -2 1547.05   44.40
  -2  -2  -2 1567.94   44.80
  -2  -2  -2 1522.35   43.20
  -2  -2  -2 1473.05   43.90
  -2  -2  -2 1555.94   43.90
   2   2   2 1582.24   44.40
   2   2   2 1558.34   43.90
   2   2   2 1574.44   44.00
   2   2   2 1557.14   44.50
   2   2   2 1659.43   44.60
   2   2   2 1496.55   43.10
  -3  -2  -2  150.68    5.50
  -3  -2  -2  139.89    6.70
  -3  -2  -2  145.59    4.70
  -3  -2  -2  147.89    7.30
  -3  -2  -2  139.29    6.10
  -3  -2  -2  144.99    6.80
   3   2   2  147.29    6.80
   3   2   2  147.39    7.20
   3   2   2  144.89    7.00
   3   2   2  151.98    6.30
   3   2   2  157.18    5.70
  -4  -2  -2  264.17   10.30
  -4  -2  -2  288.17   11.10
  -4  -2  -2  277.77    8.40
  -4  -2  -2  301.77   11.90
  -4  -2  -2  298.57   11.60
   4   2   2  283.77   11.50
   4   2   2  294.97   11.90
   4   2   2  287.97   12.20
   4   2   2  264.57   11.40
   4   2   2  241.78    9.40
  -5  -2  -2   51.29    6.80
  -5  -2  -2   52.19    6.00
  -5  -2  -2   35.60    5.20
  -5  -2  -2   44.80    5.50
   5   2   2   36.30    4.80
   5   2   2   30.70    4.80
   5   2   2   52.39    6.00
   5   2   2   49.60    6.60
  -6  -2  -2  395.36   14.80
  -6  -2  -2  424.26   17.00
  -6  -2  -2  379.66   12.10
  -6  -2  -2  409.46   15.70
  -6  -2  -2  396.36   17.00
   6   2   2  388.06   16.00
   6   2   2  396.86   16.60
   6   2   2  394.46   18.20
   6   2   2  390.86   14.60
   6   2   2  421.86   16.80
  -7  -2  -2   30.10    2.70
  -7  -2  -2   27.70    5.30
  -7  -2  -2   48.10    6.90
  -7  -2  -2   39.90    7.20
  -7  -2  -2   30.60    6.00
   7   2   2   34.90    5.00
   7   2   2   34.00    6.40
   7   2   2   33.90    7.00
   7   2   2   41.40    6.60
   7   2   2   31.40    7.90
  -8  -2  -2    8.30    6.70
  -8  -2  -2   18.50    5.60
  -8  -2  -2    9.50    6.50
   8   2   2    8.10    6.60
   8   2   2    8.70    5.50
   8   2   2   14.00    6.50
   8   2   2   15.40    9.10
   7  -3  -2   36.60    3.80
   7  -3  -2   38.70    5.20
   7  -3  -2   46.30    5.00
  -7   3   2   39.90    5.30
  -7   3   2   32.50    3.70
  -7   3   2   27.80    7.40
  -7   3   2   25.20    4.80
  -7   3   2   50.49    8.10
   6  -3  -2    7.30    6.00
   6  -3  -2    5.10    3.50
   6  -3  -2    3.50    2.20
  -6   3   2    1.10    4.90
  -6   3   2    4.70    2.20
  -6   3   2    2.90    2.40
  -6   3   2    3.30    2.00
  -6   3   2    7.20    3.10
  -6   3   2   -1.60    5.10
   5  -3  -2   51.19    3.70
   5  -3  -2   67.99    6.30
   5  -3  -2   53.69    4.10
   5  -3  -2   66.99    8.50
  -5   3   2   54.99    7.60
  -5   3   2   52.19    4.20
  -5   3   2   70.29    4.90
  -5   3   2   48.40    4.60
  -5   3   2   60.09    5.30
  -5   3   2   51.99    8.30
   4  -3  -2  212.58   10.40
   4  -3  -2  219.88    9.40
   4  -3  -2  222.98    7.40
  -4   3   2  227.78   10.50
  -4   3   2  217.98   10.50
  -4   3   2  210.08    7.70
  -4   3   2  213.08    8.70
  -4   3   2  217.98    7.70
   3  -3  -2 4689.63  127.69
   3  -3  -2 4799.12  128.99
   3  -3  -2 4679.93  129.79
   3  -3  -2 4756.32  129.29
  -3   3   2 4539.75  127.79
  -3   3   2 4750.72  129.09
  -3   3   2 4164.78  127.69
  -3   3   2 4767.12  129.59
  -3   3   2 4629.34  129.99
  -3   3   2 4720.93  127.79
   2  -3  -2  793.12   24.20
   2  -3  -2  806.12   23.00
   2  -3  -2  833.02   24.50
   2  -3  -2  793.82   24.00
  -2   3   2  775.72   23.00
  -2   3   2  820.62   23.00
  -2   3   2  825.72   24.00
  -2   3   2  795.72   24.30
  -2   3   2  795.02   22.50
   1  -3  -2 5082.79  138.99
   1  -3  -2 4936.51  137.99
   1  -3  -2 5152.58  139.09
  -1   3   2 4912.21  137.69
  -1   3   2 5033.20  139.09
   0  -3  -2   23.70    2.90
   0  -3  -2   26.60    2.30
   0  -3  -2   28.20    2.50
   0  -3  -2   29.40    2.20
   0   3   2   33.10    2.20
   0   3   2   25.00    3.20
   0   3   2   23.00    2.90
   0   3   2   29.30    2.50
  -1  -3  -2 1052.99   30.70
  -1  -3  -2 1035.40   30.10
  -1  -3  -2 1068.09   30.90
  -1  -3  -2 1095.69   30.70
  -1  -3  -2 1048.60   30.60
   1   3   2 1065.69   30.60
   1   3   2 1047.60   30.60
   1   3   2 1031.30   29.80
   1   3   2 1054.29   30.90
  -2  -3  -2   71.69    4.90
  -2  -3  -2   67.09    4.10
  -2  -3  -2   68.09    4.40
  -2  -3  -2   68.39    3.90
  -2  -3  -2   60.49    4.30
   2   3   2   64.19    3.20
   2   3   2   62.29    4.40
   2   3   2   72.59    4.30
   2   3   2   72.99    4.20
   2   3   2   63.09    3.70
   2   3   2   63.99    4.10
  -3  -3  -2  686.83   21.60
  -3  -3  -2  668.73   20.90
  -3  -3  -2  659.93   20.00
  -3  -3  -2  655.43   20.80
   3   3   2  647.94   20.70
   3   3   2  657.43   20.00
   3   3   2  650.03   20.90
   3   3   2  644.34   21.00
   3   3   2  658.13   20.10
  -4  -3  -2   34.20    5.40
  -4  -3  -2   31.40    4.20
  -4  -3  -2   39.70    3.60
   4   3   2   40.10    4.30
   4   3   2   47.40    6.10
   4   3   2   30.40    3.50
   4   3   2   52.79    5.70
  -5  -3  -2  803.02   25.70
  -5  -3  -2  840.52   26.70
  -5  -3  -2  834.12   24.20
  -5  -3  -2  809.82   27.30
   5   3   2  818.12   28.20
   5   3   2  845.62   27.30
   5   3   2  844.12   26.90
   5   3   2  837.02   25.70
  -6  -3  -2  427.06   17.50
  -6  -3  -2  417.26   16.60
  -6  -3  -2  398.56   17.90
   6   3   2  405.66   18.90
   6   3   2  440.06   17.40
   6   3   2  453.55   15.60
   6   3   2  405.56   16.90
  -7  -3  -2  195.88   11.60
  -7  -3  -2  217.08   13.50
  -7  -3  -2  206.28   13.10
   7   3   2  184.48   12.50
   7   3   2  185.18   13.30
   7   3   2  201.48   10.60
   7   3   2  183.38   14.80
   7   3   2  175.88   12.80
  -8  -3  -2   31.30    8.70
  -8  -3  -2   34.10    8.20
  -8  -3  -2   31.40    6.50
  -8  -3  -2   27.90    5.50
   8   3   2   42.20    7.80
   8   3   2   19.10    9.70
   8   3   2   18.10    5.80
   8   3   2   28.50    7.50
   7  -4  -2    4.40    8.50
   7  -4  -2    1.00    2.70
   7  -4  -2    0.00    2.30
   7  -4  -2    6.90    4.40
  -7   4   2   -3.80    6.50
  -7   4   2   -2.30    2.90
  -7   4   2    0.00    3.00
  -7   4   2   -0.50    7.70
  -7   4   2   -2.70    3.00
  -7   4   2    1.50    2.20
   6  -4  -2   -2.30    2.30
   6  -4  -2   -0.90    3.60
   6  -4  -2    1.90    2.10
   6  -4  -2   -2.20    5.90
  -6   4   2    0.50    2.40
  -6   4   2   -2.20    8.10
  -6   4   2   -0.20    2.30
  -6   4   2   11.70    5.60
  -6   4   2    0.40    1.90
  -6   4   2   -1.70    2.50
  -6   4   2   -1.20    2.40
   5  -4  -2  142.99    6.10
   5  -4  -2  137.59   10.50
   5  -4  -2  143.39    8.90
   5  -4  -2  130.69    6.50
  -5   4   2  148.79    6.70
  -5   4   2  145.69   10.00
  -5   4   2  146.59    6.50
  -5   4   2  136.89   10.10
  -5   4   2  143.59    5.80
  -5   4   2  130.79    7.60
   4  -4  -2  313.17   12.50
   4  -4  -2  323.07   11.60
   4  -4  -2  314.57   13.20
   4  -4  -2  319.47   10.50
  -4   4   2  294.47   10.60
  -4   4   2  312.37   10.50
  -4   4   2  321.47    9.40
  -4   4   2  307.77    9.20
  -4   4   2  299.17   13.40
  -4   4   2  316.17   11.90
   3  -4  -2   63.99    3.80
   3  -4  -2   71.29    3.90
   3  -4  -2   65.39    5.40
   3  -4  -2   65.49    5.00
   3  -4  -2   72.89    6.00
  -3   4   2   74.69    5.50
  -3   4   2   68.79    5.80
  -3   4   2   67.79    3.80
  -3   4   2   69.19    4.10
   2  -4  -2 1452.75   42.60
   2  -4  -2 1457.75   41.30
   2  -4  -2 1441.66   41.70
   2  -4  -2 1449.06   41.10
   2  -4  -2 1492.25   42.80
  -2   4   2 1436.46   41.20
  -2   4   2 1460.35   41.10
  -2   4   2 1461.55   42.70
   1  -4  -2 2599.94   71.89
   1  -4  -2 2616.04   72.09
   1  -4  -2 2549.15   70.89
   1  -4  -2 2525.05   70.49
   1  -4  -2 2459.15   69.79
  -1   4   2 2433.76   70.59
  -1   4   2 2537.65   70.49
  -1   4   2 2586.64   72.09
   0  -4  -2    6.90    1.40
   0   4   2    6.00    1.50
  -1  -4  -2  860.01   25.40
  -1  -4  -2  839.42   25.70
  -1  -4  -2  869.41   24.80
  -1  -4  -2  846.12   25.30
   1   4   2  869.41   24.80
   1   4   2  816.22   23.90
   1   4   2  811.52   25.60
   1   4   2  839.22   25.30
   1   4   2  832.42   25.30
  -2  -4  -2 1324.77   38.60
  -2  -4  -2 1302.37   38.20
  -2  -4  -2 1312.27   37.50
  -2  -4  -2 1269.17   38.00
  -2  -4  -2 1320.37   38.10
   2   4   2 1262.67   37.40
   2   4   2 1308.27   37.40
   2   4   2 1282.97   38.10
   2   4   2 1296.47   38.00
   2   4   2 1317.57   38.20
  -3  -4  -2  888.21   26.60
  -3  -4  -2  869.51   26.70
  -3  -4  -2  907.31   27.40
  -3  -4  -2  856.91   27.10
   3   4   2  875.31   27.30
   3   4   2  863.91   27.20
   3   4   2  905.61   27.30
   3   4   2  881.41   25.00
   3   4   2  915.71   26.70
   3   4   2  885.41   26.80
  -4  -4  -2   22.80    3.80
  -4  -4  -2   26.30    3.60
  -4  -4  -2   20.90    3.80
  -4  -4  -2   28.00    3.60
   4   4   2   21.80    3.90
   4   4   2   32.50    4.20
   4   4   2   29.60    4.60
   4   4   2   23.30    3.90
   4   4   2   31.00    4.20
  -5  -4  -2  178.08    8.70
  -5  -4  -2  176.48   10.80
  -5  -4  -2  171.28    9.50
  -5  -4  -2  163.58    9.80
  -5  -4  -2  172.38    7.30
   5   4   2  177.98    7.70
   5   4   2  160.68    8.30
   5   4   2  155.08   10.60
   5   4   2  172.18    9.70
   5   4   2  146.19    9.50
  -6  -4  -2   76.39    8.00
  -6  -4  -2   74.39    9.80
  -6  -4  -2   46.10    4.50
   6   4   2   89.29    9.00
   6   4   2   72.69    8.70
   6   4   2   46.50    7.40
  -7  -4  -2    2.10    5.10
  -7  -4  -2   -5.60    5.20
  -7  -4  -2   11.30    6.10
  -7  -4  -2    2.00    4.10
   7   4   2   -1.90    5.70
   7   4   2    5.20    7.10
   7   4   2    9.40    6.10
   7   4   2   -3.50    4.10
  -8  -4  -2  240.38   17.70
  -8  -4  -2  253.67   15.40
  -8  -4  -2  255.87   16.40
  -8  -4  -2  245.18   13.30
   8   4   2  266.37   15.60
   8   4   2  248.68   26.20
   8   4   2  226.88   18.30
   8   4   2  257.67   13.80
   6  -5  -2   -2.90    2.50
   6  -5  -2   -2.90    2.50
   6  -5  -2   -2.20    4.20
   6  -5  -2   -8.40    6.00
  -6   5   2    1.00    3.00
  -6   5   2   -5.00    5.50
  -6   5   2   -6.00    2.80
  -6   5   2   -9.70    5.70
  -6   5   2   -2.30    2.60
   5  -5  -2   18.50    5.70
   5  -5  -2   16.00    4.60
   5  -5  -2   23.10    2.90
  -5   5   2   16.50    3.80
  -5   5   2   23.40    3.20
  -5   5   2   34.70    5.90
  -5   5   2   26.10    3.10
   4  -5  -2  270.87   11.70
   4  -5  -2  229.68    9.00
   4  -5  -2  255.97   10.90
  -4   5   2  207.28    8.80
  -4   5   2  241.98    9.20
  -4   5   2  238.38   10.70
   3  -5  -2   39.70    5.80
   3  -5  -2   21.00    3.70
   3  -5  -2   32.20    3.60
   3  -5  -2   36.80    3.60
   3  -5  -2   30.00    4.60
  -3   5   2   31.20    3.80
  -3   5   2   26.20    4.00
  -3   5   2   28.10    4.30
  -3   5   2   23.60    3.40
   2  -5  -2 1719.03   50.89
   2  -5  -2 1825.92   51.79
   2  -5  -2 1766.52   52.39
   2  -5  -2 1810.62   52.39
   2  -5  -2 1774.72   50.69
  -2   5   2 1761.32   50.69
  -2   5   2 1813.92   52.49
  -2   5   2 1841.02   50.69
   1  -5  -2 2008.10   56.49
   1  -5  -2 2062.29   59.19
   1  -5  -2 2056.19   57.99
   1  -5  -2 2028.50   57.49
  -1   5   2 2117.29   59.39
  -1   5   2 2023.40   57.69
  -1   5   2 2012.20   57.49
   0  -5  -2  912.91   27.70
   0  -5  -2  955.20   28.50
   0  -5  -2  958.60   27.90
   0  -5  -2  962.00   29.40
   0   5   2  952.20   28.20
   0   5   2  985.90   28.00
   0   5   2  930.21   29.40
  -1  -5  -2 3656.63  102.49
  -1  -5  -2 3604.54  102.29
  -1  -5  -2 3521.15  101.59
  -1  -5  -2 3734.03  103.09
   1   5   2 3615.34  102.59
   1   5   2 3718.73  101.79
   1   5   2 3777.02  103.19
   1   5   2 3648.03  102.29
  -2  -5  -2   54.09    4.50
  -2  -5  -2   50.09    5.00
  -2  -5  -2   54.19    5.30
  -2  -5  -2   54.49    5.10
   2   5   2   65.59    5.10
   2   5   2   52.49    5.30
   2   5   2   48.40    5.30
   2   5   2   47.70    3.90
  -3  -5  -2 1267.87   38.40
  -3  -5  -2 1285.17   38.20
  -3  -5  -2 1324.27   38.70
  -3  -5  -2 1263.77   37.60
   3   5   2 1223.78   38.30
   3   5   2 1261.57   37.90
   3   5   2 1302.57   38.40
   3   5   2 1347.57   39.10
   3   5   2 1241.08   36.40
   3   5   2 1274.27   38.20
  -4  -5  -2   46.90    5.60
  -4  -5  -2   48.10    4.80
  -4  -5  -2   49.40    5.20
   4   5   2   48.10    5.30
   4   5   2   44.60    5.90
   4   5   2   55.89    6.30
   4   5   2   38.20    4.90
   4   5   2   43.90    6.00
  -5  -5  -2   41.00    4.80
  -5  -5  -2   33.60    5.90
  -5  -5  -2   45.50    6.90
  -5  -5  -2   44.40    5.80
  -5  -5  -2   42.10    4.90
   5   5   2   33.70    5.40
   5   5   2   42.40    6.20
   5   5   2   46.10    6.50
   5   5   2   53.89    5.50
   5   5   2   41.30    5.80
  -6  -5  -2   47.80    7.10
  -6  -5  -2   64.59    8.40
  -6  -5  -2   61.79    6.70
  -6  -5  -2   54.99    8.60
  -6  -5  -2   63.49    5.30
   6   5   2   57.59    8.70
   6   5   2   55.39    6.70
   6   5   2   61.19    8.70
  -7  -5  -2  105.69   11.80
  -7  -5  -2   69.69    5.40
  -7  -5  -2   58.19    7.60
  -7  -5  -2   80.59   13.40
  -7  -5  -2   85.29   10.20
   7   5   2   72.69    8.70
   7   5   2   97.29   11.00
   7   5   2   86.59   10.90
   7   5   2   92.69   11.70
  -8  -5  -2  129.99   21.80
  -8  -5  -2  123.79   13.50
  -8  -5  -2  131.39   10.90
  -8  -5  -2  153.98   14.00
   8   5   2  140.79   13.40
   8   5   2  157.58   16.40
   8   5   2  122.79   15.20
   6  -6  -2    7.90    3.10
   6  -6  -2   -0.20    4.70
   6  -6  -2    1.90    6.90
   6  -6  -2    3.30    3.10
  -6   6   2    2.30    3.00
  -6   6   2   -3.30    6.30
  -6   6   2    1.20    6.40
  -6   6   2    3.30    3.40
  -6   6   2   -5.50    3.60
   5  -6  -2   -7.60    4.40
   5  -6  -2   -1.80    3.20
   5  -6  -2    0.80    4.20
   5  -6  -2    2.20    2.70
  -5   6   2    4.40    2.60
  -5   6   2    9.50    5.00
  -5   6   2    0.90    2.80
  -5   6   2    1.40    3.90
   4  -6  -2   11.60    4.70
   4  -6  -2   16.90    4.60
   4  -6  -2   14.90    3.70
   4  -6  -2   14.90    2.90
   4  -6  -2   16.00    3.10
  -4   6   2   10.80    4.40
  -4   6   2   15.30    3.20
  -4   6   2   11.80    4.30
  -4   6   2   14.80    2.80
   3  -6  -2  166.28    9.00
   3  -6  -2  133.19    7.70
   3  -6  -2  155.28    9.40
   3  -6  -2  144.99    7.30
  -3   6   2  138.39    7.20
  -3   6   2  148.39    6.80
  -3   6   2  154.48    9.20
   2  -6  -2   67.79    4.30
   2  -6  -2   63.29    6.20
   2  -6  -2   62.79    6.60
   2  -6  -2   60.49    5.00
   2  -6  -2   59.29    4.90
  -2   6   2   56.09    6.50
  -2   6   2   69.09    5.00
  -2   6   2   55.19    4.40
   1  -6  -2   12.50    2.20
   1  -6  -2   16.50    3.30
   1  -6  -2   12.20    2.80
   1  -6  -2   15.70    1.90
  -1   6   2   14.20    3.50
  -1   6   2   12.20    2.40
  -1   6   2   10.40    2.40
   0  -6  -2  187.98    8.40
   0  -6  -2  189.88    7.50
   0  -6  -2  197.28    7.90
   0  -6  -2  195.38    9.30
   0   6   2  195.48    8.30
   0   6   2  201.68    7.90
   0   6   2  186.08    9.60
  -1  -6  -2  709.33   21.70
  -1  -6  -2  664.53   21.10
  -1  -6  -2  694.63   22.10
  -1  -6  -2  690.43   22.80
   1   6   2  690.33   21.30
   1   6   2  663.73   22.20
   1   6   2  681.13   22.80
   1   6   2  665.63   21.70
  -2  -6  -2 1383.16   40.90
  -2  -6  -2 1395.86   42.10
  -2  -6  -2 1418.36   42.00
  -2  -6  -2 1415.26   42.30
   2   6   2 1400.76   41.10
   2   6   2 1444.26   42.00
   2   6   2 1392.76   42.20
   2   6   2 1393.96   41.80
   2   6   2 1372.56   40.00
  -3  -6  -2  669.63   21.80
  -3  -6  -2  653.23   21.90
  -3  -6  -2  622.44   20.70
  -3  -6  -2  646.94   21.80
   3   6   2  646.54   21.70
   3   6   2  656.83   21.70
   3   6   2  640.54   21.80
   3   6   2  641.14   20.70
   3   6   2  630.04   20.60
  -4  -6  -2   -4.70    3.20
  -4  -6  -2   -0.70    3.20
  -4  -6  -2   -4.20    2.50
  -4  -6  -2    6.40    2.80
   4   6   2   -4.60    3.50
   4   6   2    2.60    2.80
   4   6   2   -0.40    2.70
   4   6   2   -1.10    1.50
   4   6   2   -0.30    3.40
   4   6   2    6.30    3.20
  -5  -6  -2   86.99    7.30
  -5  -6  -2   90.29    6.80
  -5  -6  -2  104.19    8.80
   5   6   2  105.49    7.70
   5   6   2   97.39    9.40
   5   6   2  115.49    9.20
   5   6   2  105.39    7.80
   5   6   2  122.49    8.80
  -6  -6  -2   32.70    6.40
  -6  -6  -2   39.30    7.60
  -6  -6  -2   41.30    7.60
  -6  -6  -2   28.00    4.70
  -6  -6  -2   39.20    6.40
   6   6   2   30.30    6.10
   6   6   2   42.80    7.30
   6   6   2   34.70    5.20
   6   6   2   25.80    5.80
  -7  -6  -2   20.80    6.40
  -7  -6  -2   19.10    8.00
  -7  -6  -2   12.60    3.40
  -7  -6  -2   25.90    6.90
  -7  -6  -2   13.10    4.90
   7   6   2    9.00    5.10
   7   6   2   13.00    6.20
   7   6   2   29.10    8.00
   7   6   2   19.10    7.10
  -8  -6  -2    9.20    5.30
  -8  -6  -2    9.10    7.10
  -8  -6  -2   -5.30    7.50
   8   6   2    7.70    7.10
   8   6   2   16.90    9.40
   5  -7  -2   -1.20    5.10
   5  -7  -2   -6.70    4.70
   5  -7  -2   -1.20    4.10
   5  -7  -2    4.60    3.40
   5  -7  -2    2.30    3.40
  -5   7   2    1.50    3.40
  -5   7   2    9.50    4.80
  -5   7   2    9.00    6.00
  -5   7   2    1.40    3.20
   4  -7  -2   39.60    5.70
   4  -7  -2   39.70    5.60
   4  -7  -2   36.10    7.10
   4  -7  -2   38.10    6.40
   4  -7  -2   45.80    5.60
  -4   7   2   42.40    5.90
  -4   7   2   40.70    6.00
  -4   7   2   49.20    5.80
  -4   7   2   42.00    5.30
   3  -7  -2   80.59    6.30
   3  -7  -2   86.79    6.40
   3  -7  -2   75.19    6.10
   3  -7  -2   81.19    8.00
   3  -7  -2   79.19    8.40
  -3   7   2   71.19    5.80
  -3   7   2   86.89    6.40
  -3   7   2   79.59    8.30
   2  -7  -2   40.30    5.00
   2  -7  -2   46.60    7.10
   2  -7  -2   51.29    7.30
   2  -7  -2   43.50    5.50
  -2   7   2   40.70    5.70
  -2   7   2   49.10    5.30
  -2   7   2   40.20    4.70
   1  -7  -2  223.18   10.80
   1  -7  -2  211.68    7.00
   1  -7  -2  218.18    9.10
   1  -7  -2  211.98    9.60
  -1   7   2  213.38   10.90
  -1   7   2  209.18    9.20
  -1   7   2  203.48    8.80
   0  -7  -2   18.40    2.50
   0  -7  -2   21.20    3.10
   0  -7  -2   14.30    4.40
   0  -7  -2   15.00    3.80
   0   7   2   16.30    3.00
   0   7   2   18.20    3.10
   0   7   2   19.90    4.40
  -1  -7  -2  477.85   16.40
  -1  -7  -2  484.05   16.70
   1   7   2  490.15   18.10
   1   7   2  480.35   17.00
   1   7   2  508.75   16.60
  -2  -7  -2  753.52   24.00
  -2  -7  -2  798.62   27.10
   2   7   2  756.42   24.90
   2   7   2  747.13   25.90
   2   7   2  725.83   25.40
   2   7   2  799.32   24.30
  -3  -7  -2 1073.69   33.00
  -3  -7  -2 1100.09   34.50
   3   7   2 1051.69   33.90
   3   7   2 1080.59   34.20
   3   7   2 1066.79   32.40
   3   7   2 1112.09   34.10
  -4  -7  -2  153.58    9.80
  -4  -7  -2  150.78    9.60
  -4  -7  -2  150.08    8.70
   4   7   2  142.39    6.60
   4   7   2  160.28    9.50
   4   7   2  166.08    9.50
   4   7   2  146.89    8.80
   4   7   2  142.99    8.50
   4   7   2  137.79    9.90
  -5  -7  -2  381.66   16.30
  -5  -7  -2  339.87   14.50
  -5  -7  -2  392.16   17.40
  -5  -7  -2  373.56   16.10
   5   7   2  368.16   15.40
   5   7   2  379.96   16.10
   5   7   2  358.36   14.90
   5   7   2  353.86   15.90
   5   7   2  371.46   16.30
  -6  -7  -2   -1.80    4.80
  -6  -7  -2    5.70    6.40
  -6  -7  -2   -0.80    5.10
  -6  -7  -2    3.60    4.00
   6   7   2    4.10    4.20
   6   7   2    0.60    4.90
   6   7   2    7.90    4.40
   6   7   2    5.70    5.90
   6   7   2    8.70    5.70
  -7  -7  -2    5.00    8.30
  -7  -7  -2   16.30    7.00
  -7  -7  -2   12.10    5.40
  -7  -7  -2   11.70    4.30
  -7  -7  -2    9.70    6.80
   7   7   2    6.50    7.70
   7   7   2   11.50    7.40
   7   7   2    7.80    5.80
   7   7   2   11.60    6.80
  -8  -7  -2    2.20    6.80
  -8  -7  -2    8.90    7.90
  -8  -7  -2    4.10    5.50
  -8  -7  -2    5.30    4.20
   8   7   2   12.20    7.70
   8   7   2   -0.60    9.60
   5  -8  -2   50.49    7.10
   5  -8  -2   44.90    5.50
   5  -8  -2   52.59    7.40
   5  -8  -2   43.50    6.50
  -5   8   2   38.90    5.00
  -5   8   2   51.39    8.50
  -5   8   2   37.50    6.70
  -5   8   2   60.19    7.60
   4  -8  -2    9.20    4.00
   4  -8  -2    7.00    4.10
   4  -8  -2   11.10    5.50
   4  -8  -2   17.00    4.40
   4  -8  -2    9.10    5.60
  -4   8   2   20.40    5.60
  -4   8   2   10.40    3.70
  -4   8   2   16.80    4.10
  -4   8   2    6.20    5.30
   3  -8  -2   78.59    6.60
   3  -8  -2   84.09    9.30
   3  -8  -2   84.29    7.20
   3  -8  -2   66.09    9.50
  -3   8   2   66.49    9.00
  -3   8   2   82.49    6.60
  -3   8   2   74.99    6.90
   2  -8  -2   88.29    9.10
   2  -8  -2   75.49    7.10
   2  -8  -2   82.29    8.90
   2  -8  -2   78.59    6.90
  -2   8   2   83.19    9.00
  -2   8   2   85.79    6.40
  -2   8   2   79.29    6.70
   1  -8  -2  140.79    5.20
   1  -8  -2  144.09    8.70
   1  -8  -2  132.49    7.80
   1  -8  -2  143.29   10.30
  -1   8   2  135.09   10.50
  -1   8   2  136.49    8.00
  -1   8   2  136.29    7.70
   0  -8  -2  193.18    9.00
   0  -8  -2  187.88   11.20
   0  -8  -2  177.28    7.90
   0  -8  -2  183.58    9.70
   0   8   2  190.78    9.10
   0   8   2  201.28   11.60
   0   8   2  192.88    9.50
  -1  -8  -2  682.43   22.10
  -1  -8  -2  658.03   23.00
  -1  -8  -2  671.93   24.00
  -1  -8  -2  663.53   21.90
   1   8   2  687.53   22.10
   1   8   2  677.33   23.40
   1   8   2  645.84   22.20
   1   8   2  662.83   23.80
  -2  -8  -2   35.00    4.70
  -2  -8  -2   28.20    5.10
  -2  -8  -2   41.00    5.50
  -2  -8  -2   35.00    5.60
   2   8   2   52.79    7.00
   2   8   2   24.60    4.80
   2   8   2   32.50    5.70
  -3  -8  -2   27.80    4.90
  -3  -8  -2   22.80    4.20
  -3  -8  -2   23.50    5.00
  -3  -8  -2   25.20    5.30
   3   8   2   25.20    4.90
   3   8   2   17.60    5.00
   3   8   2   26.30    5.10
  -4  -8  -2  363.16   14.30
  -4  -8  -2  355.66   15.40
  -4  -8  -2  356.96   15.60
  -4  -8  -2  359.26   16.70
   4   8   2  329.37   12.50
   4   8   2  342.57   15.60
   4   8   2  346.07   13.90
   4   8   2  344.17   15.40
   4   8   2  341.47   15.40
   4   8   2  351.46   14.50
  -5  -8  -2    0.50    4.70
  -5  -8  -2   -1.50    4.80
  -5  -8  -2    3.60    4.20
  -5  -8  -2    6.00    4.20
  -5  -8  -2    2.80    5.60
   5   8   2   -2.70    4.30
   5   8   2   -1.50    4.90
   5   8   2   -0.20    4.60
   5   8   2   -2.40    5.20
   5   8   2   -2.90    1.80
   5   8   2    2.20    4.40
  -6  -8  -2    6.20    5.60
  -6  -8  -2   -1.50    6.70
  -6  -8  -2    4.20    6.70
  -6  -8  -2    7.30    4.40
   6   8   2   -1.80    6.10
   6   8   2    2.00    4.50
   6   8   2   -4.20    5.60
   6   8   2   -4.70    5.70
   6   8   2    3.50    5.30
  -7  -8  -2   14.50    7.60
  -7  -8  -2    7.60    5.50
  -7  -8  -2    1.50    4.90
  -7  -8  -2    7.00    6.60
   7   8   2   11.10    7.70
   4  -9  -2    8.70    4.30
   4  -9  -2   14.50    6.90
   4  -9  -2    9.60    5.30
   4  -9  -2    4.50    6.90
  -4   9   2    8.10    4.30
  -4   9   2    6.10    4.30
  -4   9   2   15.40    6.80
  -4   9   2    5.00    6.60
   3  -9  -2    8.70    4.30
   3  -9  -2    1.00    5.70
   3  -9  -2    3.50    6.10
   3  -9  -2   10.10    4.50
  -3   9   2    8.70    3.90
  -3   9   2    8.80    5.40
   2  -9  -2    2.80    4.00
   2  -9  -2   -0.40    4.80
   2  -9  -2    3.40    3.60
   2  -9  -2    2.20    5.30
  -2   9   2    0.00    5.10
  -2   9   2   -3.20    3.40
  -2   9   2   -0.10    3.60
   1  -9  -2   30.60    4.40
   1  -9  -2   37.30    2.60
   1  -9  -2   30.60    5.20
   1  -9  -2   35.80    6.20
  -1   9   2   29.30    5.10
  -1   9   2   36.10    6.60
  -1   9   2   33.00    5.10
   0  -9  -2   85.59    5.80
   0  -9  -2   76.69    9.60
   0  -9  -2   77.29    7.30
   0  -9  -2   64.39    7.90
   0   9   2   94.79   10.10
   0   9   2   77.79    7.90
   0   9   2   80.19    7.40
  -1  -9  -2   -2.30    3.30
  -1  -9  -2    4.60    4.10
  -1  -9  -2    2.30    4.60
  -1  -9  -2    2.40    5.60
   1   9   2   -6.80    4.40
   1   9   2    4.30    4.40
   1   9   2   -5.70    3.80
  -2  -9  -2   46.00    6.20
  -2  -9  -2   44.20    6.70
  -2  -9  -2   43.60    6.80
  -2  -9  -2   41.20    5.30
   2   9   2   33.20    6.30
   2   9   2   32.60    5.40
   2   9   2   31.00    5.50
   2   9   2   29.90    4.80
  -3  -9  -2   -5.10    3.50
  -3  -9  -2    0.70    4.30
  -3  -9  -2   -4.70    4.00
  -3  -9  -2   -8.30    3.90
   3   9   2    3.90    5.00
   3   9   2   -4.30    4.50
   3   9   2   -0.30    4.80
  -4  -9  -2  148.99   10.00
  -4  -9  -2  156.58   11.20
  -4  -9  -2  147.89   11.00
  -4  -9  -2  156.78   12.20
   4   9   2  153.38   10.50
   4   9   2  142.09   11.20
   4   9   2  151.58   11.80
   4   9   2  147.79   11.60
  -5  -9  -2  565.34   23.90
  -5  -9  -2  555.74   22.00
  -5  -9  -2  539.45   20.50
  -5  -9  -2  540.05   22.30
   5   9   2  527.45   17.40
   5   9   2  561.44   22.40
   5   9   2  535.65   22.30
   5   9   2  549.15   20.80
   5   9   2  587.74   22.30
  -6  -9  -2   70.69   11.00
  -6  -9  -2   65.19    8.70
  -6  -9  -2   63.59    9.10
  -6  -9  -2   58.79    8.40
  -6  -9  -2   56.29    7.20
   6   9   2   75.79   10.90
   6   9   2   56.89    7.60
   6   9   2   69.39    8.90
   6   9   2   53.59    8.10
   6   9   2   81.39   12.70
  -7  -9  -2   25.30    6.60
  -7  -9  -2   42.10   10.30
  -7  -9  -2   25.10    6.80
  -7  -9  -2   41.40    8.90
   7   9   2   18.40    9.90
   7   9   2   29.90    8.50
   3 -10  -2   98.29   11.00
   3 -10  -2   81.29    9.20
   3 -10  -2   97.79   12.40
   3 -10  -2   91.59   14.00
  -3  10   2  100.09   12.70
  -3  10   2   92.59    9.20
  -3  10   2   85.09   12.20
   2 -10  -2   19.90    7.10
   2 -10  -2    9.60    4.40
   2 -10  -2    2.80    6.50
   2 -10  -2    0.80    4.90
  -2  10   2    1.60    4.30
  -2  10   2    7.70    4.60
   1 -10  -2  183.28   13.30
   1 -10  -2  211.08   14.50
   1 -10  -2  197.88   11.00
   1 -10  -2  209.88   12.20
  -1  10   2  192.78   14.50
  -1  10   2  198.38   11.10
  -1  10   2  174.58   17.00
   0 -10  -2   13.20    5.70
   0 -10  -2    4.30    4.10
   0 -10  -2    5.70    4.80
   0 -10  -2    7.90    2.90
   0  10   2   13.70    4.40
   0  10   2   19.90    6.60
   0  10   2    5.90    4.60
  -1 -10  -2   11.00    3.90
  -1 -10  -2   16.00    4.70
  -1 -10  -2    1.80    5.20
  -1 -10  -2    9.80    5.10
   1  10   2   10.20    4.70
   1  10   2    6.60    6.00
   1  10   2    6.10    4.30
   1  10   2   11.80    5.60
  -2 -10  -2   48.90    6.60
  -2 -10  -2   49.30    6.10
  -2 -10  -2   51.99    7.50
  -2 -10  -2   55.49    7.80
   2  10   2   54.19    6.40
   2  10   2   42.90    6.60
   2  10   2   48.30    6.60
   2  10   2   50.89    7.90
  -3 -10  -2  167.58   12.90
  -3 -10  -2  173.88   10.80
  -3 -10  -2  159.88   12.20
  -3 -10  -2  172.48   11.90
   3  10   2  184.88   13.50
   3  10   2  154.18   11.90
   3  10   2  175.38   12.30
  -4 -10  -2   19.50    6.40
  -4 -10  -2   18.30    5.20
  -4 -10  -2   22.80    7.20
  -4 -10  -2   14.00    5.90
   4  10   2   12.50    6.50
   4  10   2    7.10    6.00
   4  10   2   13.00    6.20
   4  10   2   15.10    5.70
  -5 -10  -2   85.59   12.10
  -5 -10  -2   85.69   11.30
  -5 -10  -2   98.69   14.10
  -5 -10  -2   89.59    9.70
   5  10   2   92.89   12.00
   5  10   2  115.79   13.50
   5  10   2  105.69    7.40
   5  10   2  112.89   13.50
   5  10   2   83.09   11.30
  -6 -10  -2    2.90    6.40
  -6 -10  -2    2.40    7.60
  -6 -10  -2   -3.30    5.30
   6  10   2    0.20    6.60
   6  10   2    1.70    7.40
   2 -11  -2  -10.20    6.60
   2 -11  -2   -2.00    5.20
  -2  11   2   -1.30    4.70
  -2  11   2    2.80    7.10
  -2  11   2    5.80    5.50
   1 -11  -2   62.49   10.20
   1 -11  -2   55.59    6.90
  -1  11   2   52.39    9.10
  -1  11   2   66.69    9.40
  -1  11   2   75.39   10.00
   0 -11  -2   84.89   13.00
   0 -11  -2  118.19   12.00
   0 -11  -2  100.99    6.90
   0 -11  -2  108.29    9.70
   0  11   2  110.99   10.40
   0  11   2   99.39   10.20
   0  11   2  107.89   13.40
  -1 -11  -2   35.60    8.20
  -1 -11  -2   57.79    7.30
  -1 -11  -2   71.39    8.70
  -1 -11  -2   53.09    7.90
   1  11   2   52.99    9.00
   1  11   2   38.50    8.20
   1  11   2   52.89    6.60
   1  11   2   36.00    6.30
  -2 -11  -2   58.89    8.70
  -2 -11  -2   34.10    5.90
  -2 -11  -2   27.00    7.50
  -2 -11  -2   48.70    7.60
   2  11   2   35.10    6.40
   2  11   2   35.00    7.60
   2  11   2   39.90    8.50
   2  11   2   27.40    5.80
  -3 -11  -2    9.20    5.80
  -3 -11  -2    0.20    6.50
  -3 -11  -2    7.90    5.20
  -3 -11  -2    1.00    6.90
   3  11   2    5.80    7.60
   3  11   2    3.00    6.90
   3  11   2    3.40    5.80
  -4 -11  -2   40.70    8.60
  -4 -11  -2   48.30    7.30
  -4 -11  -2   24.60    8.00
  -4 -11  -2   26.60    8.70
   4  11   2   34.50   13.20
   4  11   2   21.50    7.20
   4  11   2   20.50    7.70
   4  11   2   30.00    7.10
  -5 -11  -2   -0.70    8.10
  -5 -11  -2  -12.30   13.80
  -5 -11  -2    5.50    7.50
  -5 -11  -2    0.50    5.60
   5  11   2   -0.10    7.20
   5  11   2    3.00    6.70
   5  11   2    5.80    4.50
  -6 -11  -2    7.80    8.60
  -6 -11  -2   -1.40    6.00
   6  11   2    3.70    2.60
   6  11   2    2.70    7.30
   6  11   2   22.70    8.60
   0 -12  -2    3.00    3.60
   0 -12  -2    6.50    5.50
   0  12   2   16.60    8.30
   0  12   2    9.50    7.30
   0  12   2    4.90    5.70
  -1 -12  -2   15.30    5.70
   1  12   2   23.90    6.40
   1  12   2    8.10    7.60
   1  12   2   10.10    7.30
  -2 -12  -2   17.50    5.90
  -2 -12  -2   15.00    6.10
   2  12   2   22.30    7.00
   2  12   2   15.00    7.20
   2  12   2   12.20    8.40
  -3 -12  -2   14.30    6.80
  -3 -12  -2   24.40    6.60
   3  12   2   -2.80    8.20
   3  12   2   17.30    7.30
  -4 -12  -2    5.80    8.70
  -4 -12  -2   20.70    6.80
   4  12   2    8.30    7.30
   4  12   2   18.20    8.50
   4  12  -3   25.00    7.60
  -4 -12   3   17.00    7.20
   3  12  -3   30.10    7.40
  -3 -12   3   26.80    7.10
  -3 -12   3   28.50    5.90
   2  12  -3  146.89   13.50
  -2 -12   3  151.28    9.10
  -2 -12   3  153.58   12.90
   1  12  -3   -6.80    8.00
   1  12  -3    9.90    6.70
  -1 -12   3   -1.20    5.70
  -1 -12   3    4.70    4.00
  -1 -12   3   -0.60    3.40
   0  12  -3   -2.90    5.90
   0  12  -3  -16.80    7.50
   0 -12   3    3.70    2.90
   0 -12   3   -1.50    3.80
   0 -12   3   -5.30    6.40
   5  11  -3   62.59    8.90
  -5 -11   3   82.29   11.50
  -5 -11   3   56.09   10.80
  -5 -11   3   46.40   12.90
   4  11  -3  184.78   15.40
   4  11  -3  180.78   13.30
  -4 -11   3  188.68   17.50
  -4 -11   3  202.68   13.00
  -4 -11   3  180.08   12.30
   3  11  -3   11.70    6.30
   3  11  -3   -2.60    6.50
   3  11  -3   10.30    5.90
  -3 -11   3   -0.80    7.50
  -3 -11   3   11.10    5.60
  -3 -11   3   -0.10    4.70
  -3 -11   3    6.50    7.50
   2  11  -3    2.70    5.50
   2  11  -3    1.00    6.30
   2  11  -3   -1.60    5.70
  -2 -11   3    1.10    7.00
  -2 -11   3   -2.40    6.30
  -2 -11   3    4.80    8.20
   1  11  -3  116.39   11.20
   1  11  -3  118.09   12.30
   1  11  -3  126.09   11.30
  -1 -11   3  120.59   10.60
  -1 -11   3   97.89   13.20
  -1 -11   3  116.89    7.50
  -1 -11   3  123.19   13.50
   0  11  -3   50.29    7.40
   0  11  -3   43.30    7.00
   0 -11   3   44.00    4.60
   0 -11   3   44.60    6.10
   0 -11   3   54.29    7.60
   0 -11   3   42.30    8.40
  -1  11  -3    5.80    5.50
  -1  11  -3    1.70    6.20
   1 -11   3   -4.60    5.40
   1 -11   3   -3.30    3.40
   1 -11   3   -0.80    2.80
  -2  11  -3    1.60    6.90
  -2  11  -3    3.70    5.90
   2 -11   3    3.50    6.40
   2 -11   3    4.10    4.00
   6  10  -3   41.50   11.40
   6  10  -3   26.30    7.40
   6  10  -3   42.40    6.50
  -6 -10   3   48.30    8.90
  -6 -10   3   46.90    7.10
  -6 -10   3   38.80    8.80
  -6 -10   3   42.30    9.50
   5  10  -3   60.19    8.10
   5  10  -3   80.49   12.40
  -5 -10   3   74.39    9.00
  -5 -10   3   98.39   12.40
  -5 -10   3   67.29    9.70
   4  10  -3   42.70    7.10
   4  10  -3   45.90    7.00
   4  10  -3   42.00    7.10
  -4 -10   3   38.80    7.90
  -4 -10   3   37.10    6.10
  -4 -10   3   49.10    8.60
  -4 -10   3   41.60    6.50
   3  10  -3  314.27   15.10
   3  10  -3  300.97   15.30
   3  10  -3  296.47   14.70
  -3 -10   3  312.27   14.60
  -3 -10   3  293.67   16.00
  -3 -10   3  279.77   13.60
  -3 -10   3  274.67   16.50
   2  10  -3   27.70    5.60
   2  10  -3   39.30    6.30
   2  10  -3   37.00    6.70
  -2 -10   3   30.20    6.40
  -2 -10   3   23.60    6.70
  -2 -10   3   37.70    5.80
  -2 -10   3   28.80    7.90
   1  10  -3   21.70    5.50
   1  10  -3   36.60    6.70
   1  10  -3   22.40    5.00
  -1 -10   3   21.40    5.70
  -1 -10   3   20.60    6.30
  -1 -10   3   31.70    4.30
  -1 -10   3   18.90    5.00
   0  10  -3   49.00    6.30
   0 -10   3   42.00    7.00
   0 -10   3   45.60    5.50
   0 -10   3   54.99    7.50
  -1  10  -3    3.50    4.80
  -1  10  -3    5.60    4.50
   1 -10   3    9.40    6.20
   1 -10   3    5.10    5.60
   1 -10   3    9.30    5.00
   1 -10   3    2.10    2.50
  -2  10  -3   41.80    6.60
  -2  10  -3   46.00    6.80
   2 -10   3   45.70    6.80
   2 -10   3   40.70    8.50
   2 -10   3   41.10    5.20
  -3  10  -3    2.80    5.50
  -3  10  -3    7.50    6.30
   3 -10   3    6.90    4.90
   3 -10   3   -3.30    5.50
   3 -10   3   13.20    8.20
   7   9  -3    8.10    6.50
  -7  -9   3    4.60    8.60
  -7  -9   3    3.90    7.10
  -7  -9   3    1.00    6.90
  -7  -9   3    4.70    5.30
   6   9  -3   29.20    6.60
   6   9  -3   18.90    3.10
   6   9  -3   30.60    7.00
  -6  -9   3    5.20    6.40
  -6  -9   3   13.80    7.20
  -6  -9   3    8.60    4.90
  -6  -9   3   17.50    7.00
   5   9  -3   21.40    5.80
   5   9  -3   34.50    6.70
  -5  -9   3   38.20    6.90
  -5  -9   3   37.70    6.60
  -5  -9   3   34.80    7.00
  -5  -9   3   34.30    5.70
   4   9  -3   15.30    5.20
   4   9  -3    4.90    4.50
   4   9  -3    9.30    5.00
  -4  -9   3   10.40    5.00
  -4  -9   3    8.80    5.80
  -4  -9   3   12.80    4.60
  -4  -9   3   16.80    5.50
   3   9  -3  167.28   10.70
   3   9  -3  170.28   10.70
   3   9  -3  179.68   10.40
  -3  -9   3  147.89    9.80
  -3  -9   3  178.08   11.50
  -3  -9   3  170.48   12.20
  -3  -9   3  165.78   10.00
   2   9  -3  797.02   27.50
   2   9  -3  771.52   26.90
   2   9  -3  827.12   26.90
  -2  -9   3  854.31   28.40
  -2  -9   3  788.22   26.70
  -2  -9   3  828.72   29.20
  -2  -9   3  750.22   26.00
   1   9  -3   27.40    5.40
   1   9  -3   32.70    5.70
   1   9  -3   55.39    7.20
  -1  -9   3   41.30    6.10
  -1  -9   3   35.00    6.20
  -1  -9   3   28.50    5.00
  -1  -9   3   32.90    4.30
   0   9  -3  196.38   10.60
   0   9  -3  197.28   10.20
   0  -9   3  181.98   11.00
   0  -9   3  160.88   12.20
   0  -9   3  179.38   10.30
   0  -9   3  161.78    8.20
  -1   9  -3  173.18   10.60
  -1   9  -3  181.18   10.00
   1  -9   3  157.78   10.50
   1  -9   3  169.98   12.50
   1  -9   3  187.18   10.50
   1  -9   3  159.68    7.50
  -2   9  -3    9.00    4.30
  -2   9  -3    2.70    4.60
   2  -9   3    4.30    4.30
   2  -9   3    3.70    4.80
   2  -9   3    7.70    5.80
  -3   9  -3   -1.00    4.90
  -3   9  -3    6.60    5.00
   3  -9   3    5.50    4.90
   3  -9   3    9.40    4.80
   3  -9   3    6.80    4.50
   3  -9   3    4.60    6.00
  -4   9  -3   10.10    5.30
  -4   9  -3   16.00    6.10
   4  -9   3    6.60    7.20
   4  -9   3   10.20    5.90
   4  -9   3   14.80    6.40
   4  -9   3   21.00    6.80
   7   8  -3   17.20    7.60
   7   8  -3    2.00    5.50
  -7  -8   3    4.60    6.90
  -7  -8   3   -1.00    5.70
  -7  -8   3    9.20    5.40
  -7  -8   3   11.00    8.30
  -7  -8   3   17.60    6.40
   6   8  -3   30.50    6.00
   6   8  -3   37.50    6.90
   6   8  -3   34.20    5.30
   6   8  -3   42.10    6.30
  -6  -8   3   39.80    7.00
  -6  -8   3   34.80    6.20
  -6  -8   3   37.60    7.90
  -6  -8   3   38.40    5.80
  -6  -8   3   30.60    6.50
   5   8  -3   -0.40    2.70
   5   8  -3    1.70    4.10
   5   8  -3    5.90    4.40
  -5  -8   3   -5.00    4.60
  -5  -8   3    5.30    3.90
  -5  -8   3    0.70    5.00
  -5  -8   3   -0.50    4.60
   4   8  -3  105.69    8.50
   4   8  -3   90.19    8.40
   4   8  -3   93.49    7.90
  -4  -8   3  109.59    9.10
  -4  -8   3   99.19    8.10
  -4  -8   3  125.29   10.00
   3   8  -3  290.17   12.90
   3   8  -3  285.97   12.90
   3   8  -3  295.37   12.40
  -3  -8   3  289.47   14.30
  -3  -8   3  274.37   13.40
  -3  -8   3  273.67   12.50
  -3  -8   3  289.67   12.80
   2   8  -3  239.68   11.10
   2   8  -3  240.98   11.40
   2   8  -3  234.78   11.50
  -2  -8   3  239.88   11.30
  -2  -8   3  246.48   12.30
  -2  -8   3  230.88   10.70
  -2  -8   3  247.08   13.10
   1   8  -3 1410.86   43.40
   1   8  -3 1432.96   44.10
   1   8  -3 1465.05   43.40
  -1  -8   3 1414.06   44.10
  -1  -8   3 1412.26   43.30
  -1  -8   3 1493.65   45.60
   0   8  -3  109.29    8.30
   0   8  -3  109.59    7.80
   0  -8   3  107.69    8.30
   0  -8   3  125.09    9.60
   0  -8   3  102.19    6.40
   0  -8   3  103.49    8.50
  -1   8  -3   53.39    6.80
  -1   8  -3   54.09    7.10
   1  -8   3   33.40    6.00
   1  -8   3   57.59    7.20
   1  -8   3   33.60    3.70
   1  -8   3   55.59    7.20
  -2   8  -3   63.39    7.30
  -2   8  -3   51.19    7.30
   2  -8   3   59.69    7.50
   2  -8   3   36.80    5.50
   2  -8   3   52.89    7.10
   2  -8   3   50.59    6.60
  -3   8  -3  434.96   23.00
  -3   8  -3  446.26   17.20
   3  -8   3  449.26   18.90
   3  -8   3  452.45   17.70
   3  -8   3  426.76   17.00
   3  -8   3  438.06   17.40
  -4   8  -3   10.70    5.00
  -4   8  -3   23.00    4.10
  -4   8  -3   26.40    5.40
   4  -8   3   18.90    5.90
   4  -8   3   15.10    5.60
   4  -8   3   20.60    6.00
   4  -8   3   15.40    5.70
   4  -8   3   16.20    5.40
  -5   8  -3   -0.10    5.30
  -5   8  -3    5.90    6.30
   5  -8   3   13.00    5.60
   5  -8   3    6.20    6.30
   5  -8   3    4.80    7.10
   5  -8   3    9.30    7.10
   7   7  -3   38.80    6.40
   7   7  -3   73.49   11.40
   7   7  -3   67.99    9.60
   7   7  -3   71.09   11.40
  -7  -7   3   51.19    6.40
  -7  -7   3   48.20    6.60
  -7  -7   3   51.39    9.30
  -7  -7   3   56.29   10.90
   6   7  -3  361.06   15.20
   6   7  -3  356.26   15.80
   6   7  -3  326.57   14.40
  -6  -7   3  360.16   15.70
  -6  -7   3  329.37   14.50
  -6  -7   3  358.76   17.80
  -6  -7   3  335.67   16.10
  -6  -7   3  338.17   17.70
   5   7  -3  129.59    9.10
   5   7  -3  129.89    9.20
   5   7  -3  127.09    6.60
  -5  -7   3  125.39    9.70
  -5  -7   3  135.19   10.50
  -5  -7   3  121.19    8.30
  -5  -7   3  127.99    9.40
  -5  -7   3  114.09    9.40
   4   7  -3  105.19    7.50
   4   7  -3  105.49    7.80
   4   7  -3   99.59    7.90
  -4  -7   3  102.09    7.40
  -4  -7   3   98.39    8.50
  -4  -7   3  108.99    8.80
  -4  -7   3   83.09    8.30
   3   7  -3  208.18   10.20
   3   7  -3  238.68   10.00
   3   7  -3  161.28   14.40
  -3  -7   3  206.78   11.20
  -3  -7   3  197.18    9.60
  -3  -7   3  206.98   10.40
  -3  -7   3  217.68   11.00
   2   7  -3   88.29    6.40
   2   7  -3   81.09    6.60
   2   7  -3   89.09    6.80
  -2  -7   3   84.69    6.30
  -2  -7   3   87.89    8.10
  -2  -7   3   86.69    6.50
  -2  -7   3   88.49    7.20
   1   7  -3   78.09    6.60
   1   7  -3   81.89    6.60
  -1  -7   3   76.49    7.60
  -1  -7   3   75.09    6.40
   0   7  -3 1091.09   34.10
   0   7  -3 1163.58   34.10
   0  -7   3 1106.09   34.10
   0  -7   3 1162.08   35.90
   0  -7   3 1103.29   34.40
   0  -7   3 1054.89   32.80
  -1   7  -3   77.39    6.90
  -1   7  -3   89.79    7.10
   1  -7   3   66.89    5.00
   1  -7   3   83.59    7.00
   1  -7   3   70.89    6.90
   1  -7   3   73.89    8.20
  -2   7  -3  576.94   20.10
  -2   7  -3  602.74   20.00
   2  -7   3  569.94   20.00
   2  -7   3  550.24   17.50
   2  -7   3  606.74   21.50
   2  -7   3  573.44   20.20
  -3   7  -3  728.63   23.30
  -3   7  -3  718.93   24.90
  -3   7  -3  754.42   24.70
   3  -7   3  750.52   24.90
   3  -7   3  778.02   26.20
   3  -7   3  759.72   25.20
   3  -7   3  744.43   25.30
  -4   7  -3   15.60    5.30
  -4   7  -3   15.30    3.40
  -4   7  -3   17.80    4.60
   4  -7   3    9.20    4.50
   4  -7   3   17.20    5.00
   4  -7   3   12.70    4.50
   4  -7   3   10.90    4.80
   4  -7   3   14.50    5.30
  -5   7  -3   -4.40    4.30
  -5   7  -3    4.70    5.50
   5  -7   3    1.20    5.20
   5  -7   3    4.90    5.90
   5  -7   3   -7.20    5.00
   5  -7   3   -2.60    4.60
   5  -7   3   -1.10    5.00
   8   6  -3   11.00    5.60
   8   6  -3   -4.30    9.00
  -8  -6   3   10.20    4.90
  -8  -6   3   13.00    7.00
  -8  -6   3    8.40    7.40
  -8  -6   3   -0.50    4.40
   7   6  -3    3.10    4.40
   7   6  -3    8.50    7.90
   7   6  -3    5.80    4.70
   7   6  -3   15.90    5.70
  -7  -6   3    2.10    3.90
  -7  -6   3    7.20    5.20
  -7  -6   3    5.10    5.30
  -7  -6   3   10.20    8.40
  -7  -6   3   -2.00    4.80
   6   6  -3   66.99    7.40
   6   6  -3   92.29    8.20
   6   6  -3   78.69    8.50
  -6  -6   3   81.99    7.30
  -6  -6   3   70.49   10.50
  -6  -6   3   61.29    8.80
   5   6  -3  400.06   15.10
   5   6  -3  400.16   14.60
   5   6  -3  385.46   15.40
   5   6  -3  378.96   12.80
  -5  -6   3  376.56   15.50
  -5  -6   3  396.96   16.10
  -5  -6   3  396.66   15.80
  -5  -6   3  390.06   14.50
  -5  -6   3  384.96   16.90
   4   6  -3  323.57   13.20
   4   6  -3  286.47   11.20
   4   6  -3  305.47   12.50
   4   6  -3  315.87   12.20
  -4  -6   3  287.17   12.00
  -4  -6   3  326.97   13.10
  -4  -6   3  298.07   13.30
  -4  -6   3  315.67   13.40
   3   6  -3  591.84   20.00
   3   6  -3  607.64   19.80
   3   6  -3  582.94   19.80
  -3  -6   3  603.54   20.60
  -3  -6   3  585.64   19.60
  -3  -6   3  628.94   22.40
  -3  -6   3  615.84   21.20
   2   6  -3  257.17   14.10
   2   6  -3  266.67   10.20
   2   6  -3  262.17   10.40
  -2  -6   3  248.68   10.10
  -2  -6   3  220.48   15.00
  -2  -6   3  242.58   10.30
  -2  -6   3  258.47   11.40
   1   6  -3  408.66   13.90
   1   6  -3  374.56   13.80
  -1  -6   3  389.56   15.00
  -1  -6   3  394.06   14.20
  -1  -6   3  405.26   13.90
   0   6  -3  246.58   10.30
   0   6  -3  262.47   10.80
   0  -6   3  261.17   10.50
   0  -6   3  245.48   11.00
   0  -6   3  253.07   10.30
  -1   6  -3  408.96   14.60
   1  -6   3  418.76   15.60
   1  -6   3  408.56   14.60
   1  -6   3  385.46   13.00
  -2   6  -3  591.34   20.10
  -2   6  -3  579.44   21.50
   2  -6   3  616.64   20.30
   2  -6   3  606.24   20.10
   2  -6   3  577.14   18.10
   2  -6   3  635.44   21.20
  -3   6  -3   11.00    2.50
  -3   6  -3   18.60    4.00
   3  -6   3   11.80    4.00
   3  -6   3   17.70    3.60
   3  -6   3   10.20    3.60
  -4   6  -3  331.27   13.20
  -4   6  -3  306.47   13.40
  -4   6  -3  310.67   11.70
   4  -6   3  332.27   13.50
   4  -6   3  321.67   13.80
   4  -6   3  312.17   13.10
   4  -6   3  325.07   14.10
   4  -6   3  302.97   14.70
  -5   6  -3  758.02   31.90
  -5   6  -3  791.42   30.10
  -5   6  -3  817.72   26.90
   5  -6   3  813.92   26.90
   5  -6   3  831.02   29.60
   5  -6   3  834.82   26.50
   5  -6   3  819.62   28.00
   5  -6   3  833.22   26.70
  -6   6  -3   41.60    6.10
  -6   6  -3   27.80    5.80
  -6   6  -3   19.70    7.40
   6  -6   3   22.80    6.70
   6  -6   3   45.60    9.10
   6  -6   3   33.90    5.30
   6  -6   3   25.10    4.40
   8   5  -3    3.60    7.90
   8   5  -3    7.20    8.30
   8   5  -3    3.50    5.10
   8   5  -3    5.40    5.20
  -8  -5   3   -0.90    5.60
  -8  -5   3    4.40    4.20
  -8  -5   3   -3.20    3.30
  -8  -5   3   -5.70    6.10
   7   5  -3   10.50    5.80
   7   5  -3   18.60    4.30
   7   5  -3   17.60    8.00
   7   5  -3   11.90    4.50
  -7  -5   3   15.30    4.00
  -7  -5   3   12.10    5.50
  -7  -5   3   16.00    5.30
  -7  -5   3   13.50    7.60
   6   5  -3   79.29    8.40
   6   5  -3   78.79   10.60
   6   5  -3   78.29    7.40
   6   5  -3   75.79    6.80
  -6  -5   3   67.09    6.70
  -6  -5   3   62.79    7.60
  -6  -5   3   87.29    6.80
  -6  -5   3   59.69    8.00
  -6  -5   3   71.39    8.60
   5   5  -3    3.90    2.80
   5   5  -3   -1.60    3.20
   5   5  -3    5.60    3.20
   5   5  -3    2.30    2.10
  -5  -5   3    7.30    2.90
  -5  -5   3    2.70    4.00
  -5  -5   3   -5.10    2.60
  -5  -5   3    0.50    3.40
  -5  -5   3   -0.10    3.30
   4   5  -3 2663.33   76.49
   4   5  -3 2564.74   75.49
   4   5  -3 2738.23   77.19
   4   5  -3 2671.13   76.49
  -4  -5   3 2659.33   77.09
  -4  -5   3 2523.25   76.09
  -4  -5   3 2796.52   78.79
  -4  -5   3 2765.52   77.39
  -4  -5   3 2905.11   79.79
   3   5  -3  716.43   21.20
   3   5  -3  683.73   21.40
   3   5  -3  692.23   21.70
  -3  -5   3  696.03   22.00
  -3  -5   3  657.93   21.10
  -3  -5   3  670.13   21.60
  -3  -5   3  704.93   23.00
  -3  -5   3  576.64   26.00
   2   5  -3  489.25   16.40
   2   5  -3  499.45   16.40
   2   5  -3  532.15   17.20
  -2  -5   3  484.95   16.80
  -2  -5   3  482.95   16.80
  -2  -5   3  509.35   17.70
  -2  -5   3  480.35   16.10
   1   5  -3  852.61   25.10
   1   5  -3  831.92   25.10
   1   5  -3  793.22   25.20
  -1  -5   3  818.62   25.00
  -1  -5   3  809.12   25.30
  -1  -5   3  836.12   26.20
   0   5  -3  186.78    7.60
   0   5  -3  163.28    7.60
   0  -5   3  179.08    7.70
   0  -5   3  168.48    7.60
   0  -5   3  175.58    8.40
  -1   5  -3  628.64   20.10
  -1   5  -3  611.14   20.10
   1  -5   3  613.04   19.00
   1  -5   3  639.84   21.00
   1  -5   3  652.03   20.30
   1  -5   3  657.93   20.30
  -2   5  -3   30.40    3.70
  -2   5  -3   31.20    4.30
   2  -5   3   32.50    4.80
   2  -5   3   37.20    3.30
   2  -5   3   36.60    4.60
   2  -5   3   36.80    4.00
  -3   5  -3   83.09    4.70
  -3   5  -3   92.89    6.30
  -3   5  -3   91.69    6.70
   3  -5   3   94.19    6.80
   3  -5   3   84.29    6.70
   3  -5   3   87.99    6.30
   3  -5   3   74.19    4.80
  -4   5  -3  911.91   27.70
  -4   5  -3  924.91   29.00
  -4   5  -3  891.11   29.10
   4  -5   3  929.01   29.00
   4  -5   3  952.90   29.10
   4  -5   3  925.71   28.50
   4  -5   3  914.21   29.60
   4  -5   3  960.20   31.00
  -5   5  -3  394.06   12.30
  -5   5  -3  396.86   15.90
  -5   5  -3  424.46   18.70
  -5   5  -3  396.56   16.80
   5  -5   3  395.76   14.70
   5  -5   3  400.26   15.60
   5  -5   3  396.06   16.50
   5  -5   3  425.66   18.40
   5  -5   3  420.06   14.80
  -6   5  -3   15.80    5.00
  -6   5  -3   22.40    6.90
  -6   5  -3   19.20    2.30
  -6   5  -3   16.00    4.90
   6  -5   3   30.70    4.70
   6  -5   3   14.30    3.20
   6  -5   3   22.30    5.00
   6  -5   3   30.00    6.30
   6  -5   3   33.80    8.70
   8   4  -3   11.40    4.40
   8   4  -3   28.10    8.90
   8   4  -3   15.50    9.30
   8   4  -3   12.80    4.80
   8   4  -3   23.00    7.80
  -8  -4   3   14.30    2.60
  -8  -4   3   24.70    5.50
  -8  -4   3   14.30    4.20
  -8  -4   3   15.80    6.80
   7   4  -3   32.30    4.70
   7   4  -3   59.99    9.20
   7   4  -3   44.80    6.30
   7   4  -3   38.90   12.10
   7   4  -3   39.30    9.90
  -7  -4   3   56.49    9.70
  -7  -4   3   43.10    5.80
  -7  -4   3   42.20    5.60
  -7  -4   3   50.99    6.60
  -7  -4   3   41.40    6.80
   6   4  -3   63.39    8.90
   6   4  -3   63.79    7.70
   6   4  -3   77.89    6.00
   6   4  -3   71.79    8.90
   6   4  -3   81.99    6.50
  -6  -4   3   76.69    6.10
  -6  -4   3   67.89    9.50
  -6  -4   3   69.49    8.30
  -6  -4   3   74.79    6.10
  -6  -4   3   66.99    7.10
   5   4  -3    4.30    2.90
   5   4  -3   10.20    4.80
   5   4  -3   10.10    2.70
   5   4  -3    7.20    3.50
  -5  -4   3   10.60    3.70
  -5  -4   3   10.60    4.50
  -5  -4   3    4.00    3.10
  -5  -4   3    2.60    2.50
  -5  -4   3    9.90    2.80
   4   4  -3   88.49    5.80
   4   4  -3   82.79    5.00
   4   4  -3   96.79    7.20
  -4  -4   3   88.19    7.40
  -4  -4   3   88.79    6.20
  -4  -4   3   82.89    6.20
  -4  -4   3   83.79    5.40
  -4  -4   3   97.39    6.40
   3   4  -3  214.28    8.80
   3   4  -3  222.28   11.40
   3   4  -3  257.17    9.30
   3   4  -3  248.08    8.50
  -3  -4   3  218.88    8.60
  -3  -4   3  226.78   10.20
  -3  -4   3  243.28    9.70
  -3  -4   3  227.48    9.30
  -3  -4   3  224.38    9.10
   2   4  -3 1395.36   39.70
   2   4  -3 1368.06   39.50
   2   4  -3 1381.86   39.70
  -2  -4   3 1387.76   40.60
  -2  -4   3 1372.46   40.60
  -2  -4   3 1401.06   40.10
  -2  -4   3 1314.57   39.40
   1   4  -3 4756.72  133.39
   1   4  -3 4799.02  133.39
   1   4  -3 4794.22  133.29
  -1  -4   3 5014.30  134.49
  -1  -4   3 4667.23  133.29
  -1  -4   3 4899.41  133.59
   0   4  -3   56.39    4.00
   0   4  -3   59.09    4.20
   0  -4   3   57.59    3.60
   0  -4   3   59.39    4.20
   0  -4   3   59.29    4.90
   0  -4   3   52.59    4.10
  -1   4  -3  130.19    6.20
  -1   4  -3  138.59    6.50
   1  -4   3  147.89    7.00
   1  -4   3  143.59    6.50
   1  -4   3  133.09    6.40
  -2   4  -3  857.61   25.80
  -2   4  -3  829.52   25.80
   2  -4   3  873.31   25.90
   2  -4   3  841.72   24.90
   2  -4   3  833.02   25.90
   2  -4   3  870.31   26.30
  -3   4  -3  528.95   16.00
  -3   4  -3  518.85   15.70
  -3   4  -3  513.35   17.40
  -3   4  -3  529.15   17.30
   3  -4   3  530.45   16.40
   3  -4   3  503.95   17.50
   3  -4   3  538.75   17.40
  -4   4  -3  101.89    6.80
  -4   4  -3   84.29    6.20
  -4   4  -3   75.39    4.40
  -4   4  -3  101.59    8.30
   4  -4   3   87.39    6.20
   4  -4   3   92.09    8.30
   4  -4   3   80.89    5.70
   4  -4   3   82.19    6.90
   4  -4   3   81.79    5.50
  -5   4  -3   62.59    4.50
  -5   4  -3   46.10    6.10
  -5   4  -3   52.79    5.60
  -5   4  -3   59.79    9.00
   5  -4   3   50.39    4.80
   5  -4   3   53.29    5.20
   5  -4   3   59.89    9.00
   5  -4   3   59.99    7.20
   5  -4   3   61.69    6.20
  -6   4  -3  292.17   10.70
  -6   4  -3  305.27   15.10
  -6   4  -3  253.77   14.00
  -6   4  -3  285.97   16.10
   6  -4   3  285.07   11.30
   6  -4   3  293.47   14.10
   6  -4   3  288.77   12.60
   6  -4   3  266.67    9.20
   6  -4   3  286.57   16.90
  -7   4  -3  104.29   14.00
  -7   4  -3  106.19    7.50
  -7   4  -3  126.59   10.40
  -7   4  -3  104.69   10.20
   7  -4   3  108.79   15.10
   7  -4   3  122.99   12.10
   7  -4   3  100.69   11.00
   8   3  -3   -4.50    3.50
   8   3  -3    0.60    4.00
   8   3  -3    7.50    9.20
   8   3  -3  -10.30    7.00
  -8  -3   3   -5.40    5.80
  -8  -3   3   -3.40    4.10
   7   3  -3  130.89   13.00
   7   3  -3  137.59   10.80
   7   3  -3  127.79    7.30
  -7  -3   3  116.89    6.30
  -7  -3   3  126.29   11.10
  -7  -3   3  130.89    7.70
  -7  -3   3  136.19   13.30
  -7  -3   3  118.59    8.50
   6   3  -3   33.70    6.80
   6   3  -3   57.29    4.90
   6   3  -3   60.79    6.20
   6   3  -3   39.30    7.50
   6   3  -3   50.49    7.20
  -6  -3   3   46.60    6.20
  -6  -3   3   55.09    7.60
  -6  -3   3   56.79    5.20
   5   3  -3   42.50    4.90
   5   3  -3   45.50    5.50
   5   3  -3   43.40    4.10
   5   3  -3   37.10    5.80
   5   3  -3   29.20    5.80
  -5  -3   3   39.80    4.20
  -5  -3   3   33.50    3.80
  -5  -3   3   44.50    6.50
  -5  -3   3   35.50    4.40
  -5  -3   3   39.40    4.90
   4   3  -3   72.79    4.70
   4   3  -3   74.29    5.70
   4   3  -3   74.29    5.50
   4   3  -3   78.49    7.20
   4   3  -3   73.19    5.10
  -4  -3   3   74.09    4.60
  -4  -3   3   74.09    5.40
  -4  -3   3   79.39    5.80
  -4  -3   3   74.79    6.90
  -4  -3   3   74.99    5.30
   3   3  -3  820.42   23.00
   3   3  -3  835.82   22.90
   3   3  -3  705.23   22.50
   3   3  -3  688.33   23.00
  -3  -3   3  921.91   24.10
  -3  -3   3  698.33   22.50
  -3  -3   3  705.83   23.10
   2   3  -3 2004.10   56.09
   2   3  -3 2061.89   56.09
   2   3  -3 1985.80   55.89
  -2  -3   3 2000.60   56.39
  -2  -3   3 2004.20   56.09
  -2  -3   3 1888.21   55.89
  -2  -3   3 2027.90   57.29
   1   3  -3  366.06   11.80
   1   3  -3  372.66   11.70
   1   3  -3  365.06   11.70
  -1  -3   3  369.96   11.90
  -1  -3   3  380.26   11.90
   0   3  -3  350.06   11.30
   0   3  -3  348.57   11.20
   0  -3   3  345.97   11.30
   0  -3   3  338.67   11.20
   0  -3   3  340.77   11.80
   0  -3   3  342.77   11.10
  -1   3  -3 1273.37   36.40
  -1   3  -3 1274.57   36.50
   1  -3   3 1294.27   36.50
   1  -3   3 1287.07   36.90
   1  -3   3 1238.58   36.40
   1  -3   3 1217.38   35.90
  -2   3  -3 1457.65   41.80
  -2   3  -3 1503.95   42.50
  -2   3  -3 1572.24   43.40
  -2   3  -3 1455.05   43.30
   2  -3   3 1514.85   43.60
   2  -3   3 1546.95   43.60
   2  -3   3 1521.45   43.30
   2  -3   3 1498.55   42.80
  -3   3  -3  934.21   27.50
  -3   3  -3  949.51   28.40
  -3   3  -3  933.31   28.50
   3  -3   3  947.81   28.00
   3  -3   3  935.11   28.80
   3  -3   3  962.80   28.20
   3  -3   3  966.80   28.40
  -4   3  -3  106.49    5.30
  -4   3  -3   99.69    6.50
  -4   3  -3  105.39    6.30
  -4   3  -3  111.79    8.10
   4  -3   3  107.59    6.40
   4  -3   3  106.89    5.40
   4  -3   3   96.99    7.00
   4  -3   3  108.89    8.10
  -5   3  -3  410.06   14.00
  -5   3  -3  406.06   14.80
  -5   3  -3  412.76   15.10
  -5   3  -3  392.46   16.90
   5  -3   3  426.06   15.90
   5  -3   3  401.86   12.90
   5  -3   3  411.56   14.80
   5  -3   3  402.26   17.40
   5  -3   3  416.26   13.10
  -6   3  -3   64.59    9.60
  -6   3  -3   57.39    5.70
  -6   3  -3   52.79    5.70
  -6   3  -3   63.59    6.90
   6  -3   3   54.79    6.80
   6  -3   3   52.19    8.20
   6  -3   3   55.49    8.00
  -7   3  -3  151.48   13.70
  -7   3  -3  158.58   10.70
  -7   3  -3  151.38    9.30
   7  -3   3  161.28   10.60
   7  -3   3  168.78   11.90
   7  -3   3  156.28   15.10
   8   2  -3   14.80    9.30
   8   2  -3    3.60    3.30
   8   2  -3   -6.10    7.30
  -8  -2   3    2.30    6.20
  -8  -2   3    0.50    3.30
  -8  -2   3   11.10    4.10
   7   2  -3   29.90   12.10
   7   2  -3    1.40    5.90
   7   2  -3    4.10    2.60
   7   2  -3   -3.80    2.90
  -7  -2   3   -5.00    4.40
  -7  -2   3    3.70    6.20
  -7  -2   3    6.50    3.20
  -7  -2   3   -2.70    2.70
  -7  -2   3    3.90    2.90
   6   2  -3  445.16   17.40
   6   2  -3  443.86   19.50
   6   2  -3  444.46   15.00
   6   2  -3  459.85   19.90
   6   2  -3  460.05   14.60
  -6  -2   3  453.05   14.90
  -6  -2   3  448.16   15.10
  -6  -2   3  442.66   14.50
  -6  -2   3  456.15   15.60
  -6  -2   3  451.15   19.30
  -6  -2   3  455.55   17.60
   5   2  -3    7.80    3.00
   5   2  -3    6.80    2.30
   5   2  -3   10.80    2.00
   5   2  -3    9.70    4.30
   5   2  -3   -1.50    4.20
  -5  -2   3    9.20    2.20
  -5  -2   3   13.20    4.50
  -5  -2   3    9.90    2.50
  -5  -2   3    9.00    2.50
  -5  -2   3    8.10    2.10
  -5  -2   3    2.10    3.10
   4   2  -3  879.71   29.10
   4   2  -3  908.11   26.10
   4   2  -3  890.71   26.30
   4   2  -3  888.61   29.20
   4   2  -3  903.11   27.60
  -4  -2   3  897.21   27.60
  -4  -2   3  922.21   29.30
  -4  -2   3  889.31   26.40
  -4  -2   3  938.01   26.90
  -4  -2   3  889.91   26.10
   3   2  -3  162.18    6.10
   3   2  -3  164.28    6.60
   3   2  -3  184.98    6.80
   3   2  -3  156.98    8.00
  -3  -2   3  157.98    5.90
  -3  -2   3  160.48    7.90
  -3  -2   3  167.28    6.50
  -3  -2   3  160.68    6.80
   2   2  -3  371.66   11.30
   2   2  -3  337.57   10.70
   2   2  -3  327.87   10.70
   2   2  -3  351.36   10.50
   2   2  -3  345.57   12.30
  -2  -2   3  330.17   10.60
  -2  -2   3  334.97   10.80
  -2  -2   3  337.87   12.10
  -2  -2   3  340.97   10.90
   1   2  -3  680.33   19.50
   1   2  -3  665.73   19.20
  -1  -2   3  669.93   19.60
  -1  -2   3  663.43   19.50
   0   2  -3  109.49    4.50
   0   2  -3  108.79    4.60
   0  -2   3  116.49    4.60
   0  -2   3  116.69    4.70
   0  -2   3  111.99    4.60
  -1   2  -3 4447.25  122.19
  -1   2  -3 4492.15  122.19
   1  -2   3 4441.36  122.09
   1  -2   3 4352.96  122.09
   1  -2   3 4405.96  122.29
  -2   2  -3   12.40    2.10
  -2   2  -3   18.10    2.30
  -2   2  -3   17.40    2.40
   2  -2   3   19.30    2.60
   2  -2   3   18.30    2.70
   2  -2   3   22.40    2.90
   2  -2   3   15.60    2.20
  -3   2  -3  211.78    8.00
  -3   2  -3  217.98    8.50
  -3   2  -3  217.98    8.40
  -3   2  -3  214.78    9.30
   3  -2   3  216.18    9.10
   3  -2   3  218.88    7.80
   3  -2   3  207.08    8.50
   3  -2   3  230.68    9.10
  -4   2  -3  439.16   14.70
  -4   2  -3  409.46   14.60
  -4   2  -3  424.46   16.10
  -4   2  -3  422.76   14.30
   4  -2   3  425.76   15.30
   4  -2   3  430.66   14.60
   4  -2   3  431.46   12.60
   4  -2   3  437.26   13.20
   4  -2   3  423.76   16.40
  -5   2  -3  123.89    9.10
  -5   2  -3  114.29    6.80
  -5   2  -3  119.49    7.20
  -5   2  -3  112.79    7.30
   5  -2   3  116.39    3.90
   5  -2   3  132.49    9.50
   5  -2   3  122.09    8.30
   5  -2   3  124.89    7.20
  -6   2  -3   21.80    5.90
  -6   2  -3    6.80    3.70
  -6   2  -3   12.20    3.40
  -6   2  -3   16.60    3.70
   6  -2   3   12.40    6.20
   6  -2   3   11.00    3.80
   6  -2   3   15.40    4.50
  -7   2  -3   16.90    4.90
  -7   2  -3    8.80    7.00
  -7   2  -3   11.80    6.60
   7  -2   3   12.00    4.50
   7  -2   3    5.10    5.00
   7  -2   3    6.10    7.90
  -8   2  -3   11.30    6.00
  -8   2  -3   14.90    5.40
  -8   2  -3    0.80    7.60
  -8   2  -3   26.10    6.30
   8  -2   3   23.80    7.20
   8  -2   3   25.60   10.90
   8   1  -3   26.50    3.30
   8   1  -3   21.00    9.60
   8   1  -3   15.40    8.20
   8   1  -3   23.10    3.30
  -8  -1   3   21.90    7.20
  -8  -1   3   22.80    3.90
  -8  -1   3   25.00    3.80
   7   1  -3    3.00    2.50
   7   1  -3    7.20    6.10
   7   1  -3    7.50    2.50
  -7  -1   3    7.80    3.00
  -7  -1   3    8.20    5.50
  -7  -1   3   -1.80    6.40
  -7  -1   3    9.00    2.80
  -7  -1   3   12.40    4.10
   6   1  -3   21.90    5.90
   6   1  -3   34.00    7.10
   6   1  -3   32.60    3.80
  -6  -1   3   42.40    6.80
  -6  -1   3   38.90    5.70
  -6  -1   3   30.90    4.20
  -6  -1   3   26.00    3.70
  -6  -1   3   31.30    4.10
  -6  -1   3   31.80    4.60
  -6  -1   3   33.50    3.70
   5   1  -3   -3.80    3.40
   5   1  -3    1.90    1.70
   5   1  -3   -5.20    4.00
   5   1  -3   -4.20    2.30
  -5  -1   3    1.20    2.40
  -5  -1   3   -0.70    1.50
  -5  -1   3   -3.40    3.60
  -5  -1   3   -0.20    1.80
  -5  -1   3   -4.10    3.00
   4   1  -3    4.90    3.80
   4   1  -3    3.80    2.40
   4   1  -3    7.20    2.30
   4   1  -3    7.80    3.60
   4   1  -3    8.90    1.40
  -4  -1   3   10.50    2.70
  -4  -1   3    7.50    1.50
  -4  -1   3   13.20    2.60
  -4  -1   3    7.90    1.80
  -4  -1   3    3.80    3.10
   3   1  -3  912.31   26.60
   3   1  -3  908.21   28.00
   3   1  -3  899.61   26.40
   3   1  -3  897.31   25.30
   3   1  -3  853.41   27.70
   3   1  -3  893.81   26.50
  -3  -1   3  935.31   28.00
  -3  -1   3  903.31   25.80
  -3  -1   3  882.81   25.40
  -3  -1   3  893.31   26.50
  -3  -1   3  879.81   26.40
   2   1  -3  483.05   13.70
   2   1  -3  477.85   14.30
   2   1  -3  487.05   14.70
   2   1  -3  486.45   14.10
   2   1  -3  471.65   15.60
   2   1  -3  461.25   14.80
  -2  -1   3  470.35   14.30
  -2  -1   3  482.55   14.00
  -2  -1   3  470.45   14.70
  -2  -1   3  460.95   15.50
  -2  -1   3  478.45   13.80
   1   1  -3 5107.29  140.09
   1   1  -3 5053.29  139.89
   0   1  -3  569.54   16.70
   0   1  -3  576.74   16.70
   0   1  -3  531.65   17.20
   0   1  -3  592.34   16.80
   0   1  -3  590.64   17.00
   0  -1   3  579.74   16.80
   0  -1   3  578.54   16.70
   0  -1   3  578.14   17.10
   0  -1   3  590.34   16.70
  -1   1  -3  127.49    4.80
  -1   1  -3  120.39    4.70
  -1   1  -3  118.99    4.70
   1  -1   3  117.39    4.90
   1  -1   3  122.09    4.90
   1  -1   3  116.89    4.70
   1  -1   3  126.09    4.50
  -2   1  -3  230.78    8.60
  -2   1  -3  243.78    8.30
  -2   1  -3  228.28    8.20
  -2   1  -3  231.28    8.20
   2  -1   3  238.08    7.00
   2  -1   3  217.38    8.30
   2  -1   3  234.08    8.10
   2  -1   3  244.68    8.50
  -3   1  -3  131.09    6.20
  -3   1  -3  140.19    6.30
  -3   1  -3  123.79    6.70
  -3   1  -3  144.59    6.30
   3  -1   3  125.39    6.70
   3  -1   3  123.49    5.40
   3  -1   3  139.19    6.80
   3  -1   3  149.29    6.20
  -4   1  -3 1253.27   35.80
  -4   1  -3 1179.48   36.60
  -4   1  -3 1222.08   35.60
  -4   1  -3 1189.28   35.40
   4  -1   3 1193.58   37.40
   4  -1   3 1202.18   35.30
   4  -1   3 1228.38   33.60
   4  -1   3 1175.48   36.10
   4  -1   3 1176.28   34.90
  -5   1  -3    9.20    4.30
  -5   1  -3   15.70    3.40
  -5   1  -3   16.50    3.40
  -5   1  -3   10.60    3.30
   5  -1   3   16.20    3.30
   5  -1   3    8.00    3.90
   5  -1   3   17.00    5.20
  -6   1  -3  120.09    8.20
  -6   1  -3  118.59    7.90
  -6   1  -3  108.69    7.80
  -6   1  -3  116.89    9.90
   6  -1   3  121.99    7.70
   6  -1   3   99.79   10.20
   6  -1   3  118.99    7.80
   6  -1   3   99.29    8.70
  -7   1  -3   47.30    7.50
  -7   1  -3   64.29    9.00
  -7   1  -3   47.00    6.80
  -7   1  -3   65.89    8.40
   7  -1   3   37.10   11.70
   7  -1   3   49.90    6.90
   7  -1   3   63.59    7.80
   7  -1   3   54.29    6.30
  -8   1  -3   12.60    6.20
  -8   1  -3    7.00    5.40
  -8   1  -3    1.70    7.10
  -8   1  -3    1.10    5.00
   8  -1   3    7.90    6.50
   8  -1   3   -3.40    9.50
   8   0  -3    7.20    2.20
   8   0  -3   22.50    9.10
   8   0  -3   15.00    2.60
   8   0  -3   12.40    7.90
  -8   0   3   11.70   10.10
  -8   0   3   15.10    7.20
  -8   0   3   14.70    3.20
  -8   0   3   11.90    3.50
   7   0  -3   38.60    4.10
   7   0  -3   34.10    5.00
   7   0  -3   44.70    7.70
  -7   0   3   38.30    4.80
  -7   0   3   38.80    6.00
  -7   0   3   40.60    6.50
  -7   0   3   32.00    4.60
  -7   0   3   32.70    8.10
   6   0  -3   -4.00    3.00
   6   0  -3   -0.80    5.60
   6   0  -3   -0.40    1.80
   6   0  -3   -0.70    1.60
   6   0  -3   -5.40    4.60
  -6   0   3   -1.00    2.00
  -6   0   3   -2.50    1.90
  -6   0   3   -2.00    3.70
  -6   0   3   -4.30    4.70
   5   0  -3  262.87   10.40
   5   0  -3  269.57    8.80
   5   0  -3  267.27   13.10
   5   0  -3  270.47    8.60
   5   0  -3  265.97   12.80
  -5   0   3  272.27   13.20
  -5   0   3  278.37   12.00
  -5   0   3  278.37    9.30
  -5   0   3  277.77   11.30
  -5   0   3  272.17    9.00
  -5   0   3  268.37    9.40
   4   0  -3   48.60    6.40
   4   0  -3   54.99    4.40
   4   0  -3   48.20    5.70
   4   0  -3   59.39    2.60
   4   0  -3   52.29    2.80
  -4   0   3   56.69    3.80
  -4   0   3   57.19    3.30
  -4   0   3   57.69    3.00
  -4   0   3   59.79    5.20
  -4   0   3   61.49    5.20
  -4   0   3   69.89    6.10
   3   0  -3  213.08    9.30
   3   0  -3  216.28    8.00
   3   0  -3  219.18    6.40
   3   0  -3  215.28    6.40
   3   0  -3  209.98    9.10
  -3   0   3  219.38    8.40
  -3   0   3  210.48    8.20
  -3   0   3  225.68    9.50
  -3   0   3  216.08    9.20
  -3   0   3  206.68    6.50
  -3   0   3  214.28    6.80
   2   0  -3 7105.69  188.18
   2   0  -3 6691.23  188.78
   2   0  -3 6759.62  188.28
  -2   0   3 6743.23  188.18
  -2   0   3 7001.60  188.98
  -2   0   3 6763.92  188.78
   1   0  -3 2102.89   57.49
   1   0  -3 2060.09   57.49
   1   0  -3 2070.79   56.19
   1   0  -3 1984.10   57.59
  -1   0   3 2116.09   57.59
  -1   0   3 2064.19   56.29
  -1   0   3 1891.61   56.39
  -1   0   3 2083.09   57.39
  -1   0   3 2081.89   57.09
  -1   0   3 2020.60   56.19
   0   0   3 5579.24  153.18
  -1   0  -3  859.11   23.20
  -1   0  -3  813.82   24.00
  -1   0  -3  825.02   23.70
  -1   0  -3  829.62   23.90
   1   0   3  803.72   23.70
   1   0   3  828.92   23.60
   1   0   3  860.11   23.30
   1   0   3  812.42   24.10
   1   0   3  813.12   24.00
  -2   0  -3  363.66   11.90
  -2   0  -3  355.46   12.10
  -2   0  -3  367.66   12.10
  -2   0  -3  389.86   12.30
   2   0   3  362.46   12.20
   2   0   3  389.26   12.20
   2   0   3  377.76   12.40
   2   0   3  397.66   10.50
   2   0   3  375.86   11.90
  -3   0  -3 2466.65   70.49
  -3   0  -3 2517.95   70.99
  -3   0  -3 2551.74   70.79
  -3   0  -3 2444.06   71.19
   3   0   3 2553.04   71.09
   3   0   3 2543.25   70.49
   3   0   3 2507.55   71.09
  -4   0  -3   28.70    4.10
  -4   0  -3   34.20    4.50
  -4   0  -3   28.60    3.50
  -4   0  -3   33.00    4.80
   4   0   3   31.40    4.50
   4   0   3   31.60    1.50
   4   0   3   25.30    3.50
   4   0   3   26.40    3.90
   4   0   3   29.40    4.00
   4   0   3   24.20    3.20
  -5   0  -3  916.61   28.30
  -5   0  -3  903.61   29.40
  -5   0  -3  919.61   28.80
  -5   0  -3  895.81   27.90
   5   0   3  899.31   30.60
   5   0   3  885.61   28.70
   5   0   3  875.31   28.00
   5   0   3  921.51   27.70
  -6   0  -3  348.77   13.50
  -6   0  -3  316.47   15.00
  -6   0  -3  336.77   13.60
  -6   0  -3  295.17   19.90
   6   0   3  343.47   13.10
   6   0   3  349.07   17.00
   6   0   3  333.97   13.70
   6   0   3  350.76   14.60
  -7   0  -3  108.49   10.10
  -7   0  -3  114.09    8.60
   7   0   3  106.09    8.40
   7   0   3   93.19   10.00
   7   0   3  102.89    9.00
  -8   0  -3   11.90    6.60
  -8   0  -3   12.10    5.80
  -8   0  -3   -9.20    6.50
  -8   0  -3    5.60    4.90
   8   0   3   24.60   10.30
   8   0   3   -5.40    5.90
   8   0   3   10.20    6.10
   8   0   3    7.30    5.80
   8  -1  -3  -13.10    8.60
  -8   1   3   -5.20    6.20
  -8   1   3    0.20    2.70
  -8   1   3  -16.70    7.60
  -8   1   3   -0.20    4.70
  -8   1   3   -6.70    7.40
   7  -1  -3   79.09    3.90
   7  -1  -3   79.69    3.90
   7  -1  -3   75.69    7.10
  -7   1   3   81.29   10.20
  -7   1   3   76.49    5.40
  -7   1   3   80.89   10.30
  -7   1   3   70.39    9.70
  -7   1   3   83.99    5.30
   6  -1  -3  412.36   18.60
   6  -1  -3  406.86   14.90
   6  -1  -3  396.86   12.40
  -6   1   3  428.86   18.20
  -6   1   3  419.86   17.40
  -6   1   3  402.96   13.10
  -6   1   3  410.46   16.30
   5  -1  -3   60.39    8.40
   5  -1  -3   84.09    3.60
   5  -1  -3   89.59    8.10
   5  -1  -3   86.09    3.40
   5  -1  -3   86.69    5.90
  -5   1   3   80.99    7.40
  -5   1   3   84.79    8.50
  -5   1   3   92.69    4.20
  -5   1   3   98.19    8.60
  -5   1   3   87.09    4.80
   4  -1  -3  249.78   11.20
   4  -1  -3  234.78    7.10
   4  -1  -3  236.08    9.50
   4  -1  -3  250.17    7.20
  -4   1   3  238.88   10.30
  -4   1   3  238.98    7.50
  -4   1   3  250.07   11.00
  -4   1   3  249.08   10.50
  -4   1   3  240.18    8.90
  -4   1   3  247.18   11.10
  -4   1   3  238.18    7.60
   3  -1  -3    7.90    2.90
   3  -1  -3   13.10    2.20
   3  -1  -3   10.60    2.70
  -3   1   3   13.90    2.20
  -3   1   3   12.60    2.90
  -3   1   3   13.00    1.90
  -3   1   3   13.10    2.80
  -3   1   3   11.00    2.70
  -3   1   3   13.20    1.20
   2  -1  -3   -0.80    1.70
  -2   1   3    3.90    2.20
  -2   1   3    4.00    1.90
  -2   1   3    0.70    1.80
  -2   1   3    2.40    1.50
   1  -1  -3 1177.08   33.80
   1  -1  -3 1214.18   32.90
   1  -1  -3 1185.88   32.90
   1  -1  -3 1234.48   34.70
   1  -1  -3 1126.99   34.80
  -1   1   3 1182.48   33.00
  -1   1   3 1231.68   34.60
  -1   1   3 1244.48   34.40
  -1   1   3 1115.29   33.20
  -1   1   3 1222.68   33.90
  -1   1   3 1252.37   34.60
   0  -1  -3 5925.41  155.38
   0   1   3 5714.93  155.58
   0   1   3 5338.37  155.28
  -1  -1  -3 3179.58   90.29
  -1  -1  -3 3383.16   90.09
  -1  -1  -3 3107.99   90.39
  -1  -1  -3 3208.88   90.49
  -1  -1  -3 3366.96   90.69
  -1  -1  -3 3350.66   90.89
   1   1   3 3292.07   90.69
   1   1   3 3189.68   90.39
   1   1   3 3268.07   90.29
   1   1   3 3329.87   90.59
   1   1   3 3303.57   90.99
   1   1   3 3324.97   90.39
  -2  -1  -3 1214.28   32.60
  -2  -1  -3 1098.69   33.00
  -2  -1  -3 1145.49   32.80
   2   1   3 1097.89   32.50
   2   1   3 1112.99   32.70
   2   1   3 1193.48   33.40
   2   1   3 1149.98   33.00
   2   1   3 1136.39   33.60
  -3  -1  -3  124.79    6.40
  -3  -1  -3  115.69    5.60
  -3  -1  -3  130.39    6.30
  -3  -1  -3  128.29    6.50
   3   1   3  120.29    6.60
   3   1   3  123.39    6.30
   3   1   3  113.29    5.60
   3   1   3  126.69    6.50
  -4  -1  -3  354.46   13.00
  -4  -1  -3  361.36   13.50
  -4  -1  -3  387.86   13.70
  -4  -1  -3  346.57   12.60
   4   1   3  372.66   10.70
   4   1   3  340.97   14.10
   4   1   3  369.06   13.50
   4   1   3  338.47   13.30
   4   1   3  360.96   12.50
  -5  -1  -3  270.57   11.70
  -5  -1  -3  245.08   11.60
  -5  -1  -3  239.78   10.30
  -5  -1  -3  248.68   10.80
   5   1   3  245.58   10.20
   5   1   3  241.58   11.10
   5   1   3  222.18   11.30
   5   1   3  262.77   12.70
   5   1   3  245.98   11.80
  -6  -1  -3  262.37   13.00
  -6  -1  -3  252.57   12.60
  -6  -1  -3  243.88   11.00
  -6  -1  -3  241.78   11.60
   6   1   3  220.28   12.30
   6   1   3  249.68   11.00
   6   1   3  261.07   12.00
   6   1   3  242.68   14.50
   6   1   3  267.07   12.80
  -7  -1  -3   28.70    6.00
  -7  -1  -3   16.90    4.80
  -7  -1  -3   30.50    5.30
  -7  -1  -3   22.90    5.80
   7   1   3   30.60    5.60
   7   1   3   27.40    7.90
   7   1   3   17.60    5.60
   7   1   3   32.50    5.00
  -8  -1  -3   -5.10    6.10
  -8  -1  -3   -3.70    5.70
  -8  -1  -3    3.20    4.50
  -8  -1  -3    7.30    3.70
  -8  -1  -3    5.20    6.70
   8   1   3    1.20    8.50
   8   1   3    3.30    5.60
   8   1   3  -12.20    5.20
   8   1   3   15.80    6.40
   7  -2  -3   50.59    7.00
  -7   2   3   52.79    6.20
  -7   2   3   50.59    7.70
  -7   2   3   37.90    7.20
   6  -2  -3  198.78   13.10
   6  -2  -3  183.78    9.50
   6  -2  -3  190.98    6.30
  -6   2   3  201.68   11.70
  -6   2   3  184.88    7.10
  -6   2   3  197.38   11.90
  -6   2   3  180.48    7.30
  -6   2   3  180.08    7.30
  -6   2   3  183.58   12.30
   5  -2  -3   56.89    7.00
   5  -2  -3   66.99    3.00
   5  -2  -3   70.29    6.00
   5  -2  -3   63.39    2.70
  -5   2   3   68.49    4.80
  -5   2   3   77.09    7.60
  -5   2   3   59.99    7.30
  -5   2   3   66.89    3.70
  -5   2   3   80.79    8.30
  -5   2   3   56.49    3.70
  -5   2   3   58.79    7.80
   4  -2  -3   46.40    2.20
   4  -2  -3   49.00    2.00
   4  -2  -3   50.09    5.10
   4  -2  -3   44.00    6.10
  -4   2   3   47.30    2.80
  -4   2   3   50.79    6.00
  -4   2   3   61.39    6.80
  -4   2   3   50.59    2.80
  -4   2   3   50.09    5.70
  -4   2   3   66.69    6.50
  -4   2   3   44.20    4.40
   3  -2  -3   14.90    3.20
  -3   2   3   16.70    3.00
  -3   2   3   16.20    3.10
  -3   2   3   15.10    3.10
   2  -2  -3  351.26   12.00
  -2   2   3  355.86   11.90
  -2   2   3  356.46   12.50
  -2   2   3  363.86   11.00
  -2   2   3  354.56   10.10
  -2   2   3  371.56   12.10
  -2   2   3  343.87   12.50
  -2   2   3  346.27   10.10
   1  -2  -3 1180.38   34.00
   1  -2  -3 1162.18   33.10
   1  -2  -3 1243.28   34.10
   1  -2  -3 1148.09   32.70
  -1   2   3 1181.38   33.50
  -1   2   3 1164.68   32.80
  -1   2   3 1189.68   34.40
  -1   2   3 1129.59   33.30
  -1   2   3 1186.28   34.10
  -1  -2  -3  482.15   14.80
  -1  -2  -3  503.55   14.80
  -1  -2  -3  478.05   14.90
  -1  -2  -3  494.65   14.70
  -1  -2  -3  501.95   15.30
  -1  -2  -3  501.25   15.10
  -1  -2  -3  485.55   15.00
   1   2   3  499.15   14.80
   1   2   3  493.85   15.40
   1   2   3  499.35   15.20
   1   2   3  480.65   14.60
   1   2   3  472.15   14.80
   1   2   3  450.55   14.90
  -2  -2  -3 3877.41  108.79
  -2  -2  -3 3955.40  108.49
  -2  -2  -3 4029.00  109.39
  -2  -2  -3 4012.10  108.99
  -2  -2  -3 3778.32  108.49
   2   2   3 3943.01  108.79
   2   2   3 3860.11  107.89
   2   2   3 3739.23  108.49
   2   2   3 3942.21  109.49
   2   2   3 4053.69  108.49
   2   2   3 3958.90  109.09
  -3  -2  -3   32.60    4.00
  -3  -2  -3   30.40    3.50
  -3  -2  -3   36.30    4.30
  -3  -2  -3   33.00    3.00
  -3  -2  -3   40.10    4.00
   3   2   3   33.20    3.10
   3   2   3   36.00    4.60
   3   2   3   29.10    4.50
   3   2   3   30.70    3.40
   3   2   3   39.40    4.10
  -4  -2  -3  857.71   27.30
  -4  -2  -3  886.11   26.50
  -4  -2  -3  903.51   27.30
  -4  -2  -3  761.62   32.10
   4   2   3  889.41   26.40
   4   2   3  843.92   28.00
   4   2   3  856.31   27.20
   4   2   3  894.41   25.20
   4   2   3  921.11   27.60
  -5  -2  -3  365.76   15.00
  -5  -2  -3  362.76   14.40
  -5  -2  -3  354.06   13.70
  -5  -2  -3  392.36   15.40
  -5  -2  -3  360.86   11.10
   5   2   3  417.96   15.30
   5   2   3  376.46   13.70
   5   2   3  386.76   16.00
   5   2   3  381.06   15.30
   5   2   3  387.46   11.30
  -6  -2  -3  168.88    9.20
  -6  -2  -3  177.78   10.60
  -6  -2  -3  154.48   11.10
  -6  -2  -3  160.78   11.00
   6   2   3  168.38    9.00
   6   2   3  156.88   10.50
   6   2   3  170.88   10.50
   6   2   3  169.98   10.70
   6   2   3  183.98   12.60
  -7  -2  -3    6.20    5.00
  -7  -2  -3   -3.20    3.70
  -7  -2  -3    4.60    5.50
  -7  -2  -3   -0.70    1.90
  -7  -2  -3   -1.50    4.30
   7   2   3   -0.70    4.80
   7   2   3   -8.00    3.90
   7   2   3   -1.60    4.70
   7   2   3    1.90    5.40
   7   2   3    3.50    6.70
  -8  -2  -3   25.80    7.40
  -8  -2  -3   39.20    8.40
  -8  -2  -3   29.90    5.30
   8   2   3   37.00    7.40
   8   2   3   26.00    9.10
   8   2   3   26.70    7.20
   8   2   3   18.60    5.60
   7  -3  -3   25.10    9.90
   7  -3  -3   33.20    5.10
  -7   3   3   34.90    8.00
  -7   3   3   32.20    7.60
  -7   3   3   27.60    4.10
   6  -3  -3   64.69    7.10
  -6   3   3   66.19    9.30
  -6   3   3   52.89    4.60
  -6   3   3   76.49   10.00
  -6   3   3   66.79    4.40
  -6   3   3   74.59    5.30
   5  -3  -3  961.50   27.80
   5  -3  -3  990.20   28.00
   5  -3  -3 1016.70   31.00
   5  -3  -3  999.40   33.00
  -5   3   3 1010.80   32.80
  -5   3   3 1042.90   32.70
  -5   3   3 1006.40   33.20
  -5   3   3  983.90   28.50
  -5   3   3  980.70   29.30
  -5   3   3 1002.20   32.70
  -5   3   3  978.40   28.50
  -5   3   3  985.20   29.90
   4  -3  -3  336.57   10.20
   4  -3  -3  347.47   14.00
   4  -3  -3  347.87   13.00
   4  -3  -3  339.27   10.30
  -4   3   3  341.17   13.60
  -4   3   3  337.37   11.10
  -4   3   3  344.77   10.60
  -4   3   3  330.27   10.60
  -4   3   3  360.26   14.40
  -4   3   3  340.57   12.40
   3  -3  -3  276.27   10.30
   3  -3  -3  238.08   10.30
   3  -3  -3  256.07    7.70
   3  -3  -3  241.98    7.70
  -3   3   3  250.67    7.90
  -3   3   3  242.68    8.30
  -3   3   3  252.67    9.80
  -3   3   3  259.57    7.90
  -3   3   3  242.08   10.10
   2  -3  -3 1345.27   37.20
   2  -3  -3 1317.67   37.30
   2  -3  -3 1256.87   35.40
   2  -3  -3 1117.79   35.20
  -2   3   3 1267.67   37.20
  -2   3   3 1296.07   36.70
  -2   3   3 1236.98   35.40
  -2   3   3 1290.57   35.30
   1  -3  -3  791.82   22.90
   1  -3  -3  825.32   24.50
   1  -3  -3  802.62   24.40
   1  -3  -3  800.32   23.10
   1  -3  -3  824.12   23.20
  -1   3   3  811.02   24.60
  -1   3   3  822.92   23.30
  -1   3   3  786.42   23.70
  -1   3   3  825.92   23.00
  -1   3   3  779.12   23.10
   0  -3  -3 2352.96   63.39
   0  -3  -3 2236.28   63.79
   0  -3  -3 2247.88   64.49
   0  -3  -3 2270.37   63.69
   0  -3  -3 2336.27   64.39
   0   3   3 2325.17   63.79
   0   3   3 2190.28   63.79
   0   3   3 2274.87   64.69
   0   3   3 2333.67   64.59
  -1  -3  -3 1462.15   40.60
  -1  -3  -3 1396.86   40.00
  -1  -3  -3 1455.25   40.70
  -1  -3  -3 1377.16   40.40
  -1  -3  -3 1428.26   40.80
   1   3   3 1383.86   40.40
   1   3   3 1398.76   40.80
   1   3   3 1386.66   40.40
   1   3   3 1437.26   40.60
   1   3   3 1411.36   40.00
  -2  -3  -3   41.70    3.50
  -2  -3  -3   46.60    3.90
  -2  -3  -3   43.10    4.20
  -2  -3  -3   43.30    3.50
  -2  -3  -3   42.50    3.80
   2   3   3   42.20    3.70
   2   3   3   43.80    3.80
   2   3   3   44.60    3.40
   2   3   3   42.10    3.70
  -3  -3  -3 1290.07   38.60
  -3  -3  -3 1293.47   37.80
  -3  -3  -3 1366.16   39.50
  -3  -3  -3 1286.17   38.00
  -3  -3  -3 1335.97   38.80
   3   3   3 1306.37   38.00
   3   3   3 1280.47   38.80
   3   3   3 1329.37   38.60
   3   3   3 1293.57   37.90
   3   3   3 1330.37   38.90
  -4  -3  -3 1111.39   33.50
  -4  -3  -3 1096.99   32.70
  -4  -3  -3 1092.39   31.90
  -4  -3  -3 1047.10   33.50
  -4  -3  -3 1130.39   34.40
   4   3   3 1130.59   33.80
   4   3   3 1070.09   32.60
   4   3   3 1104.89   33.60
   4   3   3 1115.89   32.00
   4   3   3 1070.39   34.10
  -5  -3  -3   26.10    3.90
  -5  -3  -3   25.50    4.80
  -5  -3  -3   27.10    4.40
  -5  -3  -3   37.70    5.60
   5   3   3   28.00    4.90
   5   3   3   30.20    5.10
   5   3   3   35.20    6.10
   5   3   3   27.50    3.80
   5   3   3   31.80    3.70
  -6  -3  -3   -2.00    3.10
  -6  -3  -3   -1.00    4.20
  -6  -3  -3    2.40    3.80
  -6  -3  -3    0.20    3.90
   6   3   3   -3.80    4.40
   6   3   3    3.00    4.20
   6   3   3   -8.00    5.50
   6   3   3    3.30    3.50
  -7  -3  -3  183.18   12.40
  -7  -3  -3  178.38   11.60
  -7  -3  -3  184.78   10.20
  -7  -3  -3  162.48   12.50
   7   3   3  157.38   12.40
   7   3   3  178.58   13.50
   7   3   3  159.68   10.10
   7   3   3  173.18   12.50
   7   3   3  161.68   12.40
  -8  -3  -3   73.99   12.00
  -8  -3  -3   71.99   10.60
  -8  -3  -3   75.49    8.80
   8   3   3   64.49    8.90
   8   3   3   80.19    9.70
   8   3   3   80.49   10.20
   8   3   3   65.19   12.00
   7  -4  -3    6.90    8.20
   7  -4  -3   15.50    4.90
  -7   4   3   11.90    2.80
  -7   4   3   11.90    3.80
  -7   4   3   18.00    9.30
  -7   4   3   25.20    7.80
  -7   4   3    8.40    3.50
  -7   4   3   14.30    2.80
   6  -4  -3   24.60    4.90
   6  -4  -3   16.40    6.80
  -6   4   3   18.00    2.90
  -6   4   3   30.40    3.70
  -6   4   3   24.30    6.60
  -6   4   3   24.50    2.90
  -6   4   3   22.20    9.20
  -6   4   3   23.00    3.50
  -6   4   3   14.80    3.10
  -6   4   3   37.90    7.00
   5  -4  -3  730.43   26.00
   5  -4  -3  751.92   24.70
   5  -4  -3  731.73   21.30
  -5   4   3  722.53   21.90
  -5   4   3  721.83   21.70
  -5   4   3  734.93   26.30
  -5   4   3  727.53   21.80
  -5   4   3  748.63   23.50
  -5   4   3  732.83   21.50
  -5   4   3  753.02   26.30
   4  -4  -3  103.29    7.60
   4  -4  -3   92.89    8.00
   4  -4  -3  102.39    4.50
   4  -4  -3   97.49    4.50
  -4   4   3  115.59    7.10
  -4   4   3   99.59    4.90
  -4   4   3  102.09    9.90
  -4   4   3  116.69    7.40
  -4   4   3   99.89    4.70
   3  -4  -3  131.49    5.10
   3  -4  -3  125.89    7.00
   3  -4  -3  133.39    7.50
   3  -4  -3  114.19    4.90
   3  -4  -3  133.99    6.90
  -3   4   3  125.29    7.70
  -3   4   3  127.69    6.70
  -3   4   3  133.89    5.10
  -3   4   3  130.09    4.70
  -3   4   3  129.39    7.20
  -3   4   3  126.89    5.20
   2  -4  -3   24.10    2.40
   2  -4  -3   35.00    4.20
   2  -4  -3   29.00    4.20
   2  -4  -3   22.40    2.50
  -2   4   3   17.00    2.40
  -2   4   3   19.80    2.50
  -2   4   3   21.70    2.80
  -2   4   3   27.10    3.70
  -2   4   3   30.10    3.20
   1  -4  -3  508.85   15.20
   1  -4  -3  503.85   16.90
   1  -4  -3  506.95   16.90
   1  -4  -3  517.55   15.00
   1  -4  -3  508.35   15.60
  -1   4   3  489.55   15.90
  -1   4   3  522.05   15.30
  -1   4   3  512.35   15.00
  -1   4   3  499.15   15.40
  -1   4   3  511.15   17.10
   0  -4  -3   83.99    4.00
   0  -4  -3   77.39    4.40
   0  -4  -3   87.49    5.30
   0  -4  -3   86.39    5.20
   0  -4  -3   78.69    4.10
   0   4   3   81.69    4.50
   0   4   3   79.59    4.50
   0   4   3   77.99    5.50
   0   4   3   84.39    4.10
  -1  -4  -3   50.89    4.00
  -1  -4  -3   49.90    4.00
  -1  -4  -3   48.40    4.20
  -1  -4  -3   51.19    3.50
   1   4   3   41.00    4.00
   1   4   3   48.60    2.80
   1   4   3   46.30    4.40
   1   4   3   45.20    3.50
   1   4   3   48.60    3.90
   1   4   3   46.30    4.10
  -2  -4  -3  570.14   18.20
  -2  -4  -3  559.94   17.80
  -2  -4  -3  560.14   17.80
  -2  -4  -3  536.05   17.70
  -2  -4  -3  520.75   17.10
   2   4   3  538.25   17.90
   2   4   3  560.54   17.70
   2   4   3  532.55   16.80
   2   4   3  529.75   17.00
   2   4   3  561.14   18.00
   2   4   3  543.05   17.10
  -3  -4  -3   60.29    4.80
  -3  -4  -3   56.39    4.60
  -3  -4  -3   49.10    5.70
  -3  -4  -3   66.59    5.20
  -3  -4  -3   59.99    5.30
   3   4   3   49.40    5.00
   3   4   3   60.79    3.40
   3   4   3   59.19    5.10
   3   4   3   63.39    4.80
   3   4   3   70.89    5.40
   3   4   3   48.30    5.40
  -4  -4  -3   39.80    4.80
  -4  -4  -3   42.80    6.20
  -4  -4  -3   44.50    5.70
  -4  -4  -3   44.30    4.10
   4   4   3   40.90    4.70
   4   4   3   44.50    4.60
   4   4   3   43.60    6.00
   4   4   3   46.90    6.20
  -5  -4  -3   42.90    5.70
  -5  -4  -3   34.50    5.50
  -5  -4  -3   39.30    4.00
  -5  -4  -3   34.60    4.80
   5   4   3   42.80    6.80
   5   4   3   39.00    6.20
   5   4   3   35.30    5.30
   5   4   3   35.80    4.70
   5   4   3   42.70    5.70
  -6  -4  -3   -0.20    4.00
  -6  -4  -3    1.10    5.10
  -6  -4  -3    3.30    4.30
   6   4   3   -4.90    5.10
   6   4   3    7.40    4.80
   6   4   3    1.10    3.70
   6   4   3    8.30    4.90
  -7  -4  -3   68.19    9.60
  -7  -4  -3   60.59    8.80
  -7  -4  -3   75.19   11.10
   7   4   3   44.90    7.30
   7   4   3   67.29    8.30
   7   4   3   62.99    8.20
   7   4   3   46.70    8.70
  -8  -4  -3    2.20    6.80
  -8  -4  -3   -9.20    8.30
  -8  -4  -3   -2.00    6.30
  -8  -4  -3    1.30    4.90
   8   4   3    4.30    8.70
   8   4   3   17.80    7.50
   8   4   3   -0.40    7.10
   6  -5  -3   47.30    8.50
   6  -5  -3   50.19    6.20
  -6   5   3   60.99    7.10
  -6   5   3   47.20    8.20
  -6   5   3   55.99    5.10
  -6   5   3   43.30    5.00
  -6   5   3   42.50    7.90
  -6   5   3   50.69    9.70
   5  -5  -3    2.00    2.00
   5  -5  -3    1.50    1.90
   5  -5  -3   -1.10    3.90
   5  -5  -3   -2.00    4.80
  -5   5   3    3.40    2.20
  -5   5   3    2.10    4.90
  -5   5   3    7.50    3.60
  -5   5   3    2.80    2.00
   4  -5  -3   56.99    7.10
   4  -5  -3   41.40    4.00
   4  -5  -3   56.99    4.00
   4  -5  -3   59.89    5.60
   4  -5  -3   47.40    7.00
  -4   5   3   48.90    4.00
  -4   5   3   58.29    6.90
  -4   5   3   61.29    6.70
  -4   5   3   48.70    4.40
   3  -5  -3  285.87   10.30
   3  -5  -3  250.67   10.80
   3  -5  -3  281.57   12.10
   3  -5  -3  295.97   11.20
   3  -5  -3  296.47   12.00
  -3   5   3  272.27    9.50
  -3   5   3  269.47    9.70
  -3   5   3  270.17   12.10
  -3   5   3  283.07   11.90
   2  -5  -3  143.79    6.10
   2  -5  -3  153.78    6.40
   2  -5  -3  142.19   11.40
   2  -5  -3  144.79    8.20
  -2   5   3  147.19    8.20
  -2   5   3  142.49    6.30
  -2   5   3  148.29    6.00
   1  -5  -3  289.47   10.40
   1  -5  -3  298.07   11.90
   1  -5  -3  310.27   11.80
   1  -5  -3  294.37    9.30
  -1   5   3  285.37   10.20
  -1   5   3  302.87   11.90
  -1   5   3  301.27   10.10
   0  -5  -3  888.71   26.60
   0  -5  -3  881.41   27.60
   0  -5  -3  860.01   25.90
   0  -5  -3  912.41   25.90
   0   5   3  902.71   26.00
   0   5   3  858.51   26.30
   0   5   3  839.42   27.50
  -1  -5  -3 3066.69   86.89
  -1  -5  -3 3120.89   88.39
  -1  -5  -3 3138.79   87.59
  -1  -5  -3 3188.88   87.79
   1   5   3 3142.89   87.89
   1   5   3 2996.20   85.59
   1   5   3 3138.59   88.49
   1   5   3 3124.89   87.59
  -2  -5  -3 3549.04   98.29
  -2  -5  -3 3384.16   97.89
  -2  -5  -3 3580.64   98.19
  -2  -5  -3 3483.45   97.99
  -2  -5  -3 3420.96   96.99
   2   5   3 3549.84   97.19
   2   5   3 3546.85   97.89
   2   5   3 3431.66   97.79
   2   5   3 3382.46   96.59
   2   5   3 3517.15   98.19
   2   5   3 3376.66   96.99
  -3  -5  -3  380.66   14.20
  -3  -5  -3  378.46   13.70
  -3  -5  -3  409.76   14.70
  -3  -5  -3  412.06   15.30
   3   5   3  373.46   12.60
   3   5   3  389.46   14.10
   3   5   3  387.56   14.00
   3   5   3  428.76   14.70
   3   5   3  384.16   14.70
   3   5   3  378.76   14.40
  -4  -5  -3   11.60    3.60
  -4  -5  -3   11.60    2.90
  -4  -5  -3   20.30    3.50
  -4  -5  -3    6.10    3.20
   4   5   3    9.90    3.00
   4   5   3   13.30    3.90
   4   5   3    6.40    3.70
   4   5   3    8.30    5.60
  -5  -5  -3   92.49    8.10
  -5  -5  -3   83.69    8.30
  -5  -5  -3   87.39    8.10
  -5  -5  -3   89.99    6.90
  -5  -5  -3   84.09    5.90
   5   5   3   87.59    6.40
   5   5   3   59.89    8.50
   5   5   3   95.49    9.00
   5   5   3   87.29    6.90
   5   5   3   78.29    7.50
  -6  -5  -3   14.20    2.90
  -6  -5  -3    9.20    4.90
  -6  -5  -3   12.00    3.90
  -6  -5  -3    3.90    5.10
  -6  -5  -3   13.30    5.10
   6   5   3   13.80    5.40
   6   5   3   14.10    3.20
   6   5   3    8.90    5.00
   6   5   3   17.00    4.20
   6   5   3    6.80    5.60
  -7  -5  -3   13.40    6.20
  -7  -5  -3    1.50    5.10
   7   5   3   -8.90    6.10
   7   5   3    5.20    5.10
   7   5   3    1.80    6.30
   7   5   3    4.10    7.50
  -8  -5  -3   27.30    7.80
  -8  -5  -3   28.80    8.10
  -8  -5  -3   25.60    5.90
   8   5   3   22.90    9.50
   8   5   3   24.60    7.90
   6  -6  -3  115.49    5.60
   6  -6  -3  106.39   10.80
   6  -6  -3  123.09    5.80
   6  -6  -3  123.99   12.90
  -6   6   3  110.29    7.00
  -6   6   3  136.59   13.60
  -6   6   3  113.59   13.60
  -6   6   3  112.99    7.10
  -6   6   3  115.29   14.40
  -6   6   3  102.49    9.70
   5  -6  -3  153.38   10.80
   5  -6  -3  167.58   11.20
   5  -6  -3  154.68    7.00
   5  -6  -3  160.78    7.00
  -5   6   3  145.99    7.50
  -5   6   3  165.08   12.40
  -5   6   3  149.59    7.10
  -5   6   3  148.79   10.30
   4  -6  -3   -2.40    3.90
   4  -6  -3    0.00    2.30
   4  -6  -3    4.90    3.80
  -4   6   3   -3.40    3.70
  -4   6   3    2.40    4.20
  -4   6   3    3.20    2.50
  -4   6   3   -1.60    2.10
   3  -6  -3   69.09    7.50
   3  -6  -3   74.39    7.40
   3  -6  -3   61.99    6.90
   3  -6  -3   64.19    4.70
  -3   6   3   62.69    5.10
  -3   6   3   64.49    4.60
  -3   6   3   65.59    7.60
   2  -6  -3  591.94   20.80
   2  -6  -3  590.84   20.60
   2  -6  -3  581.24   18.80
  -2   6   3  595.64   20.80
  -2   6   3  572.94   18.20
  -2   6   3  588.54   18.50
   1  -6  -3    4.00    2.50
   1  -6  -3   -0.10    1.20
   1  -6  -3   -0.10    1.90
   1  -6  -3   -0.90    1.80
   1  -6  -3   -0.50    3.00
  -1   6   3   -1.60    3.20
  -1   6   3    1.20    1.90
  -1   6   3    1.30    2.00
   0  -6  -3  238.58    8.90
   0  -6  -3  237.78   10.60
   0  -6  -3  236.88    8.70
   0  -6  -3  230.38    9.50
   0   6   3  232.98    9.40
   0   6   3  244.28    9.10
   0   6   3  223.08   10.70
  -1  -6  -3   15.00    2.60
  -1  -6  -3   15.80    3.10
  -1  -6  -3   19.00    3.10
  -1  -6  -3   17.50    3.70
   1   6   3   20.90    3.50
   1   6   3   12.50    3.20
   1   6   3   16.70    3.80
   1   6   3   18.10    2.90
  -2  -6  -3   25.30    3.40
  -2  -6  -3   28.80    4.00
  -2  -6  -3   26.80    4.20
  -2  -6  -3   25.60    4.00
   2   6   3   23.60    3.40
   2   6   3   19.60    3.70
   2   6   3   23.40    3.70
   2   6   3   23.00    4.00
  -3  -6  -3  215.68   10.20
  -3  -6  -3  221.68   10.70
  -3  -6  -3  197.78    8.90
  -3  -6  -3  206.58   10.00
  -3  -6  -3  221.18   10.10
   3   6   3  209.38   11.20
   3   6   3  194.48    8.20
   3   6   3  198.68   10.40
   3   6   3  202.98    9.00
   3   6   3  202.28   10.20
   3   6   3  203.78    9.10
  -4  -6  -3  146.89    9.60
  -4  -6  -3  132.89    8.70
  -4  -6  -3  138.09    8.00
  -4  -6  -3  140.29    8.00
  -4  -6  -3  136.29   13.00
   4   6   3  146.09    8.10
   4   6   3  129.79    5.50
   4   6   3  131.09    8.30
   4   6   3  134.29    8.80
   4   6   3  135.69    9.10
   4   6   3  142.59    8.20
  -5  -6  -3  380.16   17.20
  -5  -6  -3  391.06   16.20
  -5  -6  -3  362.26   14.20
  -5  -6  -3  377.56   15.90
  -5  -6  -3  368.86   14.70
   5   6   3  351.06   16.10
   5   6   3  385.36   15.80
   5   6   3  381.56   14.70
   5   6   3  375.46   14.60
   5   6   3  366.86   15.90
  -6  -6  -3    4.30    5.60
  -6  -6  -3   -5.40    3.50
  -6  -6  -3    9.30    4.90
  -6  -6  -3    4.00    5.10
  -6  -6  -3    2.80    2.90
   6   6   3   13.80    6.10
   6   6   3   -2.40    5.00
   6   6   3    6.00    3.50
   6   6   3   -0.80    3.80
   6   6   3    3.10    4.90
  -7  -6  -3  206.48   11.90
  -7  -6  -3  181.58    9.40
  -7  -6  -3  198.88   13.90
  -7  -6  -3  216.68   16.20
  -7  -6  -3  211.68   13.80
   7   6   3  186.08   12.20
   7   6   3  192.58   14.90
   7   6   3  195.88   14.40
   7   6   3  177.88   14.90
  -8  -6  -3   10.00    5.60
  -8  -6  -3   -0.80    7.90
  -8  -6  -3   -4.10    6.50
   8   6   3   -1.80    7.30
   8   6   3   15.70    9.40
   5  -7  -3   54.19    5.70
   5  -7  -3   52.29    5.50
   5  -7  -3   53.19    7.60
  -5   7   3   52.99    6.30
  -5   7   3   50.59    5.50
  -5   7   3   66.29    8.90
  -5   7   3   63.79    9.20
   4  -7  -3  104.49    6.50
   4  -7  -3   88.09   10.10
   4  -7  -3   83.69    8.90
   4  -7  -3   85.29    6.50
  -4   7   3   90.49    6.50
  -4   7   3  105.09    9.50
  -4   7   3   98.59    6.20
  -4   7   3   88.89   10.00
   3  -7  -3   16.40    4.40
   3  -7  -3   23.20    3.50
   3  -7  -3   25.10    4.90
   3  -7  -3   21.70    5.10
  -3   7   3   32.00    4.50
  -3   7   3   26.20    5.40
  -3   7   3   23.80    3.50
   2  -7  -3    6.80    4.10
   2  -7  -3    3.00    2.70
   2  -7  -3    2.60    2.70
   2  -7  -3   -0.10    3.60
  -2   7   3    5.50    2.90
  -2   7   3    5.00    2.40
  -2   7   3    5.70    4.40
   1  -7  -3   -0.10    1.30
   1  -7  -3    2.00    3.50
   1  -7  -3    2.70    2.10
  -1   7   3    1.00    3.70
  -1   7   3   -3.70    2.00
  -1   7   3    4.70    2.60
   0  -7  -3    5.30    2.90
   0  -7  -3    9.40    2.50
   0  -7  -3    7.70    3.60
   0  -7  -3    5.40    2.00
   0   7   3    0.30    3.70
   0   7   3    5.40    2.60
   0   7   3    5.60    2.50
  -1  -7  -3   33.80    5.00
  -1  -7  -3   36.30    4.60
  -1  -7  -3   42.80    4.90
  -1  -7  -3   38.10    4.70
   1   7   3   33.10    4.50
   1   7   3   29.30    4.30
   1   7   3   32.00    4.90
   1   7   3   44.70    6.30
  -2  -7  -3    4.80    2.70
  -2  -7  -3    5.50    3.00
  -2  -7  -3    8.30    3.50
  -2  -7  -3    8.80    3.50
   2   7   3   10.40    3.50
   2   7   3    9.40    4.00
   2   7   3   14.50    4.30
  -3  -7  -3  321.17   16.70
  -3  -7  -3  382.56   14.30
  -3  -7  -3  388.36   15.50
   3   7   3  395.96   13.80
   3   7   3  385.66   13.70
   3   7   3  393.96   15.40
   3   7   3  395.76   15.30
   3   7   3  405.66   15.90
  -4  -7  -3  175.48    9.50
  -4  -7  -3  190.28   11.50
  -4  -7  -3  162.48   11.30
  -4  -7  -3  178.68   10.50
  -4  -7  -3  194.98   10.90
   4   7   3  191.68    9.90
   4   7   3  199.68   10.90
   4   7   3  197.58   10.60
   4   7   3  175.98    7.60
   4   7   3  167.98   10.80
   4   7   3  190.38    9.70
  -5  -7  -3  596.44   21.50
  -5  -7  -3  643.64   24.40
  -5  -7  -3  630.64   23.20
  -5  -7  -3  564.04   23.40
  -5  -7  -3  629.84   23.10
   5   7   3  653.13   23.20
   5   7   3  605.54   23.40
   5   7   3  634.34   21.90
   5   7   3  633.34   22.10
   5   7   3  636.14   22.90
  -6  -7  -3    8.70    5.60
  -6  -7  -3   11.20    6.20
  -6  -7  -3    2.80    4.90
  -6  -7  -3    1.60    4.20
   6   7   3    5.40    5.70
   6   7   3    0.70    4.90
   6   7   3   -2.60    4.60
   6   7   3    1.60    4.00
   6   7   3   -1.00    5.60
  -7  -7  -3  286.77   14.60
  -7  -7  -3  237.68   17.90
  -7  -7  -3  275.17   17.00
  -7  -7  -3  304.07   16.90
  -7  -7  -3  275.57   13.10
   7   7   3  273.37   14.90
   7   7   3  305.97   17.20
   7   7   3  295.97   19.80
   7   7   3  284.37   17.20
  -8  -7  -3   -6.20    5.50
  -8  -7  -3   -6.90    6.70
  -8  -7  -3   -1.60    8.40
   8   7   3   -6.90    8.20
   8   7   3  -16.00    9.00
   5  -8  -3    7.70    3.90
   5  -8  -3   14.50    4.60
   5  -8  -3   10.70    6.10
   5  -8  -3    4.50    5.20
  -5   8   3    6.30    6.00
  -5   8   3   11.30    3.60
  -5   8   3   28.20    8.30
  -5   8   3   13.20    4.30
   4  -8  -3   82.89    7.30
   4  -8  -3   92.39   10.50
   4  -8  -3   74.19    7.20
   4  -8  -3   69.99    8.60
  -4   8   3   92.19    6.80
  -4   8   3   95.89    7.30
  -4   8   3   79.59   10.50
  -4   8   3  108.39   11.20
   3  -8  -3  104.09    9.60
   3  -8  -3  106.39    7.40
   3  -8  -3   94.29   10.60
   3  -8  -3  100.39    7.50
  -3   8   3   89.29    9.80
  -3   8   3  109.39    7.40
  -3   8   3  114.69    7.00
   2  -8  -3   18.20    5.80
   2  -8  -3   21.20    3.80
   2  -8  -3   12.30    4.70
   2  -8  -3   16.00    3.70
  -2   8   3   15.30    5.40
  -2   8   3   18.50    3.80
  -2   8   3   19.70    3.60
   1  -8  -3   23.60    4.20
   1  -8  -3   17.90    2.10
   1  -8  -3   21.90    3.60
   1  -8  -3   16.70    5.30
   1  -8  -3   20.40    5.10
  -1   8   3   16.50    3.70
  -1   8   3   15.10    3.30
  -1   8   3   12.90    5.00
   0  -8  -3  316.47   14.80
   0  -8  -3  316.27   11.60
   0  -8  -3  318.77   12.40
   0  -8  -3  320.57   13.40
   0   8   3  337.47   12.70
   0   8   3  317.87   15.20
   0   8   3  326.97   12.90
  -1  -8  -3   -0.10    3.20
  -1  -8  -3    3.10    2.80
  -1  -8  -3   -0.20    2.70
  -1  -8  -3    0.10    4.00
   1   8   3   -0.10    3.10
   1   8   3    4.30    4.70
   1   8   3    4.20    3.70
   1   8   3    4.50    4.10
  -2  -8  -3 1078.99   34.90
  -2  -8  -3 1066.19   35.80
  -2  -8  -3 1126.49   36.30
  -2  -8  -3 1123.39   37.00
   2   8   3 1264.57   36.40
   2   8   3 1101.09   36.30
   2   8   3 1278.97   37.60
  -3  -8  -3  133.29    9.20
  -3  -8  -3  129.89    9.60
  -3  -8  -3  135.89    9.20
  -3  -8  -3  128.59    8.00
   3   8   3  132.89   10.00
   3   8   3  111.49    9.20
   3   8   3  127.39    8.30
   3   8   3  141.79    9.70
   3   8   3  137.09    7.00
  -4  -8  -3   52.59    7.10
  -4  -8  -3   38.10    5.10
  -4  -8  -3   32.60    5.50
  -4  -8  -3   39.00    5.90
   4   8   3   36.10    5.80
   4   8   3   35.10    5.20
   4   8   3   50.39    8.10
   4   8   3   43.70    5.20
   4   8   3   36.50    6.10
   4   8   3   33.40    4.80
  -5  -8  -3  106.69   10.30
  -5  -8  -3  130.39   11.60
  -5  -8  -3  112.89    9.30
  -5  -8  -3  119.79    9.30
  -5  -8  -3  133.89   10.90
   5   8   3  102.99    5.20
   5   8   3  109.79    9.80
   5   8   3  115.59   11.00
   5   8   3  105.89    9.20
   5   8   3  123.39   10.40
   5   8   3  101.39    9.20
  -6  -8  -3   30.50    7.60
  -6  -8  -3   26.50    7.00
  -6  -8  -3   15.70    5.90
  -6  -8  -3   21.00    5.20
  -6  -8  -3   22.10    6.70
   6   8   3   31.40    6.40
   6   8   3   10.70    6.60
   6   8   3   22.80    6.60
   6   8   3   11.00    6.80
   6   8   3   13.40    5.10
  -7  -8  -3  137.19   15.10
  -7  -8  -3  139.19   10.90
  -7  -8  -3  138.39   11.40
  -7  -8  -3  146.29   13.80
   7   8   3  156.38   15.00
   4  -9  -3   -0.20    4.60
   4  -9  -3    9.50    6.90
   4  -9  -3   -2.30    6.20
  -4   9   3    9.70    7.20
  -4   9   3   -0.10    4.10
  -4   9   3    3.00    4.00
  -4   9   3    0.10    6.20
   3  -9  -3   25.40    7.10
   3  -9  -3   27.00    4.90
   3  -9  -3   30.90    6.80
   3  -9  -3   24.30    4.10
  -3   9   3   32.70    8.00
  -3   9   3   22.50    6.40
  -3   9   3   38.00    4.80
   2  -9  -3   28.30    6.30
   2  -9  -3   12.60    4.40
   2  -9  -3   16.10    4.40
   2  -9  -3   17.90    6.40
  -2   9   3   22.80    6.10
  -2   9   3   11.00    4.20
  -2   9   3   12.70    3.90
   1  -9  -3   -0.90    5.10
   1  -9  -3    0.30    5.20
   1  -9  -3    6.80    1.60
   1  -9  -3    6.70    3.40
   1  -9  -3   11.50    4.50
  -1   9   3   15.90    5.80
  -1   9   3    3.00    3.80
  -1   9   3    3.20    3.50
   0  -9  -3  228.38   10.80
   0  -9  -3  234.98    9.60
   0  -9  -3  238.18   13.20
   0  -9  -3  209.58   11.60
   0   9   3  246.68   13.90
   0   9   3  251.67   11.10
   0   9   3  243.38   11.60
  -1  -9  -3    4.50    4.10
  -1  -9  -3   10.10    4.90
  -1  -9  -3    9.80    3.90
  -1  -9  -3    2.80    3.50
   1   9   3    6.10    4.40
   1   9   3   10.50    4.80
   1   9   3   11.40    5.20
   1   9   3   11.20    4.10
  -2  -9  -3   38.60    5.80
  -2  -9  -3   40.20    6.20
  -2  -9  -3   43.00    5.30
   2   9   3   39.20    5.80
   2   9   3   43.30    6.60
   2   9   3   62.89    8.00
  -3  -9  -3  154.18    9.50
  -3  -9  -3  151.28   10.70
  -3  -9  -3  126.79   10.00
  -3  -9  -3  157.58   11.10
   3   9   3  157.38   10.90
   3   9   3  123.49   11.00
   3   9   3  149.39   10.90
   3   9   3  153.68    9.60
  -4  -9  -3   84.19    8.20
  -4  -9  -3   70.99   10.10
  -4  -9  -3   89.29   10.00
  -4  -9  -3   72.19    9.20
   4   9   3   70.59    6.90
   4   9   3   63.69    7.90
   4   9   3   79.89    8.80
   4   9   3   83.09   10.00
   4   9   3   72.79   10.00
  -5  -9  -3   44.20    6.80
  -5  -9  -3   60.39    7.80
  -5  -9  -3   43.50    6.10
  -5  -9  -3   39.40    7.50
   5   9   3   66.99    8.80
   5   9   3   49.10    5.10
   5   9   3   60.99    8.40
   5   9   3   46.70    7.90
   5   9   3   55.09    7.60
   5   9   3   42.10    6.40
  -6  -9  -3   19.20    6.00
  -6  -9  -3   17.50    5.90
  -6  -9  -3   16.70    8.60
  -6  -9  -3   29.40    7.70
  -6  -9  -3   19.50    6.90
   6   9   3   16.50    7.50
   6   9   3    9.60    7.50
   6   9   3   16.20    6.70
   6   9   3   15.00    6.70
   6   9   3    9.30    6.00
  -7  -9  -3  145.09   16.80
  -7  -9  -3   83.49   11.10
  -7  -9  -3   93.29   11.70
  -7  -9  -3  118.59   14.00
   7   9   3   79.09   16.30
   7   9   3   87.59   14.40
   3 -10  -3   17.10    6.30
   3 -10  -3    7.50    7.80
   3 -10  -3   14.90    5.20
  -3  10   3    7.80    6.90
  -3  10   3   13.20    4.80
  -3  10   3   22.50    5.20
   2 -10  -3    9.20    5.30
   2 -10  -3    8.10    4.20
   2 -10  -3    6.40    7.30
   2 -10  -3   14.60    7.10
  -2  10   3   13.40    4.50
  -2  10   3    9.90    6.70
   1 -10  -3   27.60    6.90
   1 -10  -3   39.90    5.80
   1 -10  -3   38.40    8.00
   1 -10  -3   40.60    5.40
  -1  10   3   38.10    8.50
  -1  10   3   41.70    5.50
  -1  10   3   40.60   12.20
   0 -10  -3   72.69   10.60
   0 -10  -3   34.20    5.70
   0 -10  -3   54.59    5.40
   0 -10  -3   54.29    7.40
   0  10   3   46.00    6.20
   0  10   3   45.40    7.50
  -1 -10  -3   -0.40    3.20
  -1 -10  -3    2.50    4.50
  -1 -10  -3    4.20    5.30
  -1 -10  -3   -3.50    3.50
   1  10   3   -3.30    3.80
   1  10   3   -2.10    5.50
   1  10   3   -6.10    5.30
   1  10   3   -2.90    4.20
  -2 -10  -3   96.29    9.10
  -2 -10  -3  112.89   10.80
  -2 -10  -3  107.79    8.60
  -2 -10  -3  108.29   10.10
   2  10   3  104.49   11.00
   2  10   3   82.19    8.50
   2  10   3  111.09   10.40
   2  10   3  116.19   10.20
  -3 -10  -3   17.40    4.80
  -3 -10  -3   12.70    5.20
  -3 -10  -3   12.30    5.50
  -3 -10  -3   11.10    5.80
   3  10   3   17.10    5.80
   3  10   3    5.90    6.20
   3  10   3   16.90    6.50
  -4 -10  -3  143.79   13.10
  -4 -10  -3  164.98   10.90
  -4 -10  -3  177.18   13.00
  -4 -10  -3  151.38   12.90
   4  10   3  145.49   10.10
   4  10   3  165.48   13.20
   4  10   3  151.48   11.60
   4  10   3  155.28   13.30
   4  10   3  168.98   13.80
  -5 -10  -3   -2.00    5.80
  -5 -10  -3    4.00    5.20
  -5 -10  -3   -2.60    7.10
  -5 -10  -3    8.80    6.30
   5  10   3   -9.00    5.60
   5  10   3    6.90    7.30
   5  10   3   15.50    6.70
   5  10   3   -1.30    3.40
   5  10   3  -20.30    9.70
  -6 -10  -3    1.20    6.20
  -6 -10  -3    1.20    5.80
  -6 -10  -3   -5.60    8.40
   6  10   3    7.80    8.00
   6  10   3    2.00    7.50
   2 -11  -3    7.70    5.20
   2 -11  -3    2.90    7.00
  -2  11   3    7.30    7.60
  -2  11   3   -8.50    6.20
  -2  11   3   -1.40    4.90
   1 -11  -3   14.00    7.80
   1 -11  -3   20.50    5.20
  -1  11   3    9.80    7.10
  -1  11   3   10.50    5.00
  -1  11   3   11.00    5.40
   0 -11  -3  131.79   10.10
   0 -11  -3  128.59   14.40
   0 -11  -3  133.49   12.20
   0 -11  -3  120.89    7.40
   0  11   3  135.69   11.20
   0  11   3  132.39   15.00
   0  11   3  122.69   10.90
   0  11   3  134.69   13.20
  -1 -11  -3    5.20    4.60
  -1 -11  -3    1.60    6.30
  -1 -11  -3    6.20    4.10
  -1 -11  -3   11.40    7.20
   1  11   3   10.30    5.50
   1  11   3   10.80    5.50
   1  11   3   12.20    6.90
   1  11   3   11.70    7.60
  -2 -11  -3   89.59   12.20
  -2 -11  -3   76.79    9.40
  -2 -11  -3   84.69   12.60
  -2 -11  -3   89.79    9.60
   2  11   3   82.29   10.10
   2  11   3   84.49   12.40
   2  11   3   95.79   10.90
  -3 -11  -3   60.89    9.60
  -3 -11  -3   61.69    9.10
  -3 -11  -3   64.89    9.10
  -3 -11  -3   54.19    7.50
   3  11   3   64.49    8.30
   3  11   3   92.89   12.50
   3  11   3   70.79    9.60
  -4 -11  -3   29.70    7.00
  -4 -11  -3   31.50    8.80
  -4 -11  -3   36.70    8.10
  -4 -11  -3   23.40    8.00
   4  11   3   26.70    7.30
   4  11   3   29.90    8.40
   4  11   3   31.00    7.20
   4  11   3   23.30    5.80
  -5 -11  -3   17.00    6.40
  -5 -11  -3   -7.20    8.50
  -5 -11  -3    5.70    8.00
   5  11   3    3.50    4.50
   5  11   3   10.40    7.60
   5  11   3   12.10    7.50
  -6 -11  -3    5.50    9.60
   6  11   3    8.00    7.80
   0 -12  -3    1.50    3.50
   0 -12  -3    4.70    6.50
   0 -12  -3   -1.50    5.40
   0  12   3   -7.00    5.60
   0  12   3   -2.40    7.80
   0  12   3    9.00    6.50
  -1 -12  -3    4.90    5.70
  -1 -12  -3    4.00    5.30
   1  12   3   -8.20    6.80
   1  12   3  -12.60    7.30
   1  12   3   -0.40    5.70
  -2 -12  -3    8.40    5.70
  -2 -12  -3   13.50    6.20
   2  12   3    8.70    8.10
   2  12   3    4.60    6.30
  -3 -12  -3    2.00    6.10
  -3 -12  -3   -2.60    7.10
   3  12   3    4.50    6.70
   3  12   3    3.70    8.40
  -4 -12  -3    4.70    8.70
  -4 -12  -3   12.60    6.00
   4  12   3    8.40    6.60
   4  12   3   -8.70    7.90
   4  12   3    4.80    7.10
   3  12  -4   83.59    9.90
  -3 -12   4   93.99   10.70
  -3 -12   4  124.69   13.00
   2  12  -4   -8.50    6.30
  -2 -12   4   -5.60    4.70
  -2 -12   4  -13.40    5.90
   1  12  -4   -6.10    5.80
  -1 -12   4   -3.90    5.70
  -1 -12   4   -6.10    4.10
   5  11  -4  152.38   13.30
  -5 -11   4  168.18   15.00
  -5 -11   4  159.88   13.40
  -5 -11   4  168.58   19.20
   4  11  -4    3.50    6.10
   4  11  -4    0.00    7.50
  -4 -11   4    8.00    6.30
  -4 -11   4    4.90    8.30
  -4 -11   4   -1.80    5.40
   3  11  -4   44.70    8.40
   3  11  -4   50.39    7.50
  -3 -11   4   48.90    7.40
  -3 -11   4   45.20    9.30
  -3 -11   4   42.00    6.50
   2  11  -4   52.39    8.40
   2  11  -4   27.00    7.00
   2  11  -4   32.30    7.50
  -2 -11   4   43.10    5.80
  -2 -11   4   44.10    8.50
  -2 -11   4   40.20    7.00
   1  11  -4   -1.20    6.10
   1  11  -4   14.10    6.10
   1  11  -4    2.80    5.60
  -1 -11   4    7.90    5.20
  -1 -11   4    7.40    8.00
  -1 -11   4    3.80    3.90
  -1 -11   4   11.50    7.50
   0  11  -4   -4.30    5.10
   0  11  -4   -1.70    6.40
   0 -11   4    3.00    6.20
   0 -11   4   -1.60    3.60
  -1  11  -4   70.99    9.20
  -1  11  -4   56.79    8.00
   1 -11   4   59.89    6.30
   1 -11   4   57.29    8.00
   6  10  -4    4.30    6.90
   6  10  -4    6.50    4.10
   6  10  -4   13.30    8.40
  -6 -10   4    7.70    6.10
  -6 -10   4    5.70    8.50
  -6 -10   4    4.50    8.30
  -6 -10   4   21.90    9.30
   5  10  -4    6.60    6.90
   5  10  -4    1.00    5.60
  -5 -10   4    4.50    6.30
  -5 -10   4   -4.90    7.30
  -5 -10   4    0.00    5.00
  -5 -10   4    4.80    6.90
   4  10  -4   -1.00    5.60
   4  10  -4    2.70    5.30
   4  10  -4    1.30    5.40
  -4 -10   4   -5.90    4.40
  -4 -10   4    6.30    6.50
  -4 -10   4    5.10    6.80
  -4 -10   4    3.80    5.40
   3  10  -4   47.70    6.70
   3  10  -4   37.50    6.50
   3  10  -4   42.70    6.50
  -3 -10   4   45.60    7.70
  -3 -10   4   49.40    6.60
  -3 -10   4   37.10    7.90
   2  10  -4   83.49    9.10
   2  10  -4   78.29    9.50
   2  10  -4   60.99    9.40
  -2 -10   4   59.59    7.80
  -2 -10   4   73.09    9.00
  -2 -10   4   85.89   10.50
  -2 -10   4   75.29   10.90
   1  10  -4  155.28   10.80
   1  10  -4  160.98   10.90
   1  10  -4  166.78   11.70
  -1 -10   4  143.99   12.40
  -1 -10   4  176.38   10.80
  -1 -10   4  166.98   13.30
  -1 -10   4  162.48   10.90
   0  10  -4    7.80    4.70
   0  10  -4    5.20    5.10
   0 -10   4   11.60    3.50
   0 -10   4    8.10    5.30
   0 -10   4   16.80    5.80
   0 -10   4   -2.70    5.90
  -1  10  -4  101.99   10.00
  -1  10  -4   92.49    9.80
   1 -10   4  110.39   13.20
   1 -10   4   79.99   10.70
   1 -10   4   95.09    6.40
   1 -10   4   90.79   10.00
  -2  10  -4    0.40    4.90
   2 -10   4    2.10    7.40
   2 -10   4    0.30    5.30
  -3  10  -4   -1.30    5.60
  -3  10  -4   13.10    7.20
   3 -10   4    1.30    6.20
   3 -10   4    6.30    5.70
   3 -10   4   -1.70    8.90
   6   9  -4    2.70    3.40
   6   9  -4    5.10    6.00
   6   9  -4    2.70    5.90
  -6  -9   4    2.90    4.80
  -6  -9   4   11.00    7.90
  -6  -9   4   -4.10    6.80
  -6  -9   4    4.70    7.10
   5   9  -4   26.20    4.70
   5   9  -4   35.40    6.80
   5   9  -4   16.50    5.50
   5   9  -4   29.20    6.20
  -5  -9   4   16.10    6.10
  -5  -9   4   22.20    6.60
  -5  -9   4   25.40    5.50
  -5  -9   4   22.50    6.40
   4   9  -4   28.40    5.50
   4   9  -4   26.20    5.70
   4   9  -4   19.40    5.30
  -4  -9   4   27.70    5.90
  -4  -9   4   26.60    6.30
  -4  -9   4   22.90    6.50
  -4  -9   4   26.40    5.10
   3   9  -4  223.28   11.50
   3   9  -4  203.58   11.70
   3   9  -4  205.08   11.60
  -3  -9   4  218.28   13.00
  -3  -9   4  211.48   11.60
  -3  -9   4  198.58   13.40
  -3  -9   4  215.18   12.10
   2   9  -4  175.78   10.40
   2   9  -4  200.78   11.20
   2   9  -4  215.48   11.40
  -2  -9   4  204.18   10.60
  -2  -9   4  196.58   13.20
  -2  -9   4  196.28   12.10
  -2  -9   4  193.08   10.90
   1   9  -4    9.60    4.30
   1   9  -4   10.50    4.40
   1   9  -4    2.90    4.20
  -1  -9   4    0.20    4.80
  -1  -9   4    1.90    4.00
  -1  -9   4    2.70    4.10
   0   9  -4    0.40    3.90
   0   9  -4    5.30    4.20
   0  -9   4    2.50    2.80
   0  -9   4    6.40    5.10
   0  -9   4    4.70    4.20
   0  -9   4   -2.60    4.00
  -1   9  -4   19.20    5.00
  -1   9  -4   26.30    5.10
   1  -9   4   27.80    5.60
   1  -9   4   23.80    3.30
   1  -9   4   14.50    5.90
   1  -9   4   22.90    5.00
  -2   9  -4   -1.20    4.60
  -2   9  -4    5.80    4.40
   2  -9   4    2.20    4.40
   2  -9   4   -8.10    5.40
   2  -9   4   -8.50    4.20
   2  -9   4    0.90    2.10
  -3   9  -4   55.09    7.00
  -3   9  -4   41.20    6.60
  -3   9  -4   40.60    6.00
   3  -9   4   61.09    8.80
   3  -9   4   51.59    8.30
   3  -9   4   60.59    7.60
  -4   9  -4   92.29    7.30
  -4   9  -4  110.69   11.30
  -4   9  -4  102.69   12.30
   4  -9   4  103.79   12.30
   4  -9   4   83.09   10.30
   4  -9   4   85.89   12.30
   4  -9   4   89.89   11.50
   7   8  -4   -1.50    7.30
   7   8  -4  -13.20    5.40
   7   8  -4   -6.00    8.60
  -7  -8   4   -9.50    6.10
  -7  -8   4    0.60    6.90
  -7  -8   4   -4.30    4.70
  -7  -8   4   -1.10    6.20
   6   8  -4    2.50    5.20
   6   8  -4    2.80    3.10
   6   8  -4    0.90    5.00
   6   8  -4    4.60    5.00
  -6  -8   4    5.40    4.50
  -6  -8   4    3.70    5.40
  -6  -8   4   -3.70    5.10
  -6  -8   4   13.80    6.10
  -6  -8   4   15.10    7.10
   5   8  -4   75.39    8.60
   5   8  -4   75.99    8.70
   5   8  -4   60.39    6.40
   5   8  -4   65.69    8.10
  -5  -8   4   46.70    6.90
  -5  -8   4   71.39    8.10
  -5  -8   4   52.89    7.00
  -5  -8   4   66.89    8.40
   4   8  -4    1.20    3.70
   4   8  -4    5.90    4.10
   4   8  -4    3.40    4.10
  -4  -8   4    3.30    3.90
  -4  -8   4    3.20    4.60
  -4  -8   4   -5.80    4.40
  -4  -8   4    3.00    4.50
   3   8  -4    4.70    3.50
   3   8  -4    7.80    4.00
   3   8  -4   -0.40    3.20
  -3  -8   4    2.00    4.20
  -3  -8   4    3.60    3.70
  -3  -8   4   -0.60    4.10
  -3  -8   4   -0.90    3.90
   2   8  -4   20.70    4.50
   2   8  -4   24.20    4.00
   2   8  -4   27.90    4.50
  -2  -8   4   22.40    4.70
  -2  -8   4   23.00    5.00
  -2  -8   4   18.30    5.20
  -2  -8   4   25.80    4.70
   1   8  -4   75.49    7.00
   1   8  -4   71.59    7.50
   1   8  -4   78.79    7.30
  -1  -8   4   72.19    9.00
  -1  -8   4   72.89    7.70
  -1  -8   4   71.89    7.40
   0   8  -4  151.38    9.50
   0   8  -4  161.68    9.30
   0  -8   4  155.18    7.90
   0  -8   4  162.48   10.00
   0  -8   4  158.48   11.00
   0  -8   4  155.38    9.30
  -1   8  -4   -0.40    3.20
  -1   8  -4    7.60    3.80
   1  -8   4    1.70    4.70
   1  -8   4   -1.30    2.40
   1  -8   4    2.50    3.70
   1  -8   4    3.50    3.60
  -2   8  -4   16.70    4.40
  -2   8  -4   15.00    4.50
   2  -8   4   17.70    4.30
   2  -8   4    8.30    4.90
   2  -8   4   16.10    4.50
   2  -8   4   10.40    2.50
  -3   8  -4  147.69   10.00
  -3   8  -4  127.19    7.00
  -3   8  -4  138.09   10.30
   3  -8   4  136.29    9.80
   3  -8   4  123.39   11.10
   3  -8   4  138.69   10.10
  -4   8  -4   48.10    6.70
  -4   8  -4   37.00    6.00
  -4   8  -4   39.30    5.10
   4  -8   4   33.00    6.40
   4  -8   4   23.30    6.70
   4  -8   4   38.00    6.90
   4  -8   4   43.20    6.60
   4  -8   4   36.90    9.80
  -5   8  -4    3.30    6.60
  -5   8  -4   14.50    6.10
   5  -8   4    5.80    7.20
   5  -8   4   -0.90    6.30
   5  -8   4    8.50    6.80
   5  -8   4    8.10    5.70
   7   7  -4   93.19   11.70
   7   7  -4  114.89   10.40
   7   7  -4  107.29   15.80
   7   7  -4   89.39    9.80
  -7  -7   4   79.69   12.50
  -7  -7   4  127.69   14.30
  -7  -7   4  110.29   11.20
  -7  -7   4  104.29    9.30
  -7  -7   4  104.19   15.60
   6   7  -4   35.20    5.90
   6   7  -4   37.70    5.50
   6   7  -4   39.50    5.70
   6   7  -4   44.90    8.80
   6   7  -4   41.70    4.90
  -6  -7   4   65.09    9.30
  -6  -7   4   27.10    7.90
  -6  -7   4   36.50    6.20
  -6  -7   4   32.70    5.70
   5   7  -4  177.48   10.00
   5   7  -4  176.48    8.20
   5   7  -4  173.98   10.20
  -5  -7   4  181.18   11.00
  -5  -7   4  171.08   10.80
  -5  -7   4  142.09   11.70
  -5  -7   4  147.59   10.40
  -5  -7   4  179.48    9.60
   4   7  -4  344.97   13.90
   4   7  -4  331.37   13.40
   4   7  -4  347.97   14.20
  -4  -7   4  325.37   13.50
  -4  -7   4  336.97   15.00
  -4  -7   4  355.86   15.40
  -4  -7   4  342.07   14.80
   3   7  -4   48.80    6.30
   3   7  -4   76.59    6.80
   3   7  -4   61.09    6.20
  -3  -7   4   56.19    7.00
  -3  -7   4   56.89    6.20
  -3  -7   4   48.80    7.40
  -3  -7   4   48.60    7.00
   2   7  -4   -1.60    2.50
   2   7  -4    1.90    3.20
   2   7  -4    4.10    3.00
  -2  -7   4   -0.60    3.10
  -2  -7   4   -0.50    2.60
  -2  -7   4    0.10    3.40
   1   7  -4  295.47   12.30
   1   7  -4  288.57   12.00
   1   7  -4  303.67   12.40
  -1  -7   4  286.77   12.70
  -1  -7   4  289.17   12.20
  -1  -7   4  301.57   13.50
   0   7  -4  352.36   13.80
   0   7  -4  371.86   14.60
   0  -7   4  357.46   14.90
   0  -7   4  329.47   13.70
   0  -7   4  339.97   13.70
   0  -7   4  331.37   12.50
  -1   7  -4 1611.34   47.80
   1  -7   4 1661.73   48.10
   1  -7   4 1625.54   49.30
   1  -7   4 1570.44   47.80
   1  -7   4 1555.14   46.20
  -2   7  -4  340.27   14.30
   2  -7   4  357.96   15.50
   2  -7   4  371.16   14.60
   2  -7   4  330.77   12.10
   2  -7   4  369.96   14.40
  -3   7  -4    5.80    2.30
  -3   7  -4    7.10    3.70
  -3   7  -4    6.90    3.80
   3  -7   4    3.10    4.20
   3  -7   4    7.90    3.80
   3  -7   4    3.20    2.40
   3  -7   4    6.70    4.00
  -4   7  -4  104.29    9.00
  -4   7  -4   96.89    5.70
  -4   7  -4   90.09    8.90
   4  -7   4   98.99    9.00
   4  -7   4   98.69   10.30
   4  -7   4  103.99    9.00
   4  -7   4   89.09    9.20
   4  -7   4  105.99   10.20
  -5   7  -4   43.30    6.70
  -5   7  -4   27.60    6.20
  -5   7  -4   32.80    7.70
   5  -7   4   24.20    5.80
   5  -7   4   34.50    7.00
   5  -7   4   38.40    8.30
   5  -7   4   46.80    6.30
   8   6  -4    8.80    8.50
   8   6  -4   28.30    9.30
   8   6  -4    8.90    5.20
  -8  -6   4   21.70    9.70
  -8  -6   4   29.80   11.40
  -8  -6   4   16.90    7.20
  -8  -6   4   16.00    5.00
   7   6  -4   59.49    8.40
   7   6  -4   59.39    8.00
   7   6  -4   60.39    8.00
   7   6  -4   61.99   10.10
  -7  -6   4   51.19    6.20
  -7  -6   4   51.79    5.70
  -7  -6   4   76.59   11.20
  -7  -6   4   71.89    9.90
   6   6  -4   65.49    7.40
   6   6  -4   72.69    7.60
   6   6  -4   59.39    8.50
   6   6  -4   68.59    9.50
  -6  -6   4   64.29    8.30
  -6  -6   4   69.49    7.30
  -6  -6   4   81.19   11.20
  -6  -6   4   71.29    8.10
  -6  -6   4   68.19    8.90
   5   6  -4   16.20    3.20
   5   6  -4   18.70    4.10
   5   6  -4   14.70    3.90
  -5  -6   4   15.00    4.10
  -5  -6   4   17.20    6.00
  -5  -6   4   13.50    4.40
  -5  -6   4   26.00    4.80
  -5  -6   4   14.70    3.40
   4   6  -4   99.99    7.20
   4   6  -4   95.09    7.10
   4   6  -4   74.39    6.40
   4   6  -4  103.49    6.80
  -4  -6   4  108.99    8.00
  -4  -6   4   92.99    6.80
  -4  -6   4   94.59    7.50
  -4  -6   4   77.79    8.30
  -4  -6   4  102.29    8.80
   3   6  -4   12.50    3.10
   3   6  -4   13.90    3.10
   3   6  -4   15.40    3.30
  -3  -6   4   10.30    3.80
  -3  -6   4   13.80    3.10
  -3  -6   4   13.10    3.70
   2   6  -4  786.82   25.00
   2   6  -4  788.32   25.30
  -2  -6   4  819.62   26.90
  -2  -6   4  794.42   25.00
   1   6  -4  161.08    8.10
   1   6  -4  163.08    8.30
   1   6  -4  171.28    8.40
  -1  -6   4  212.98    9.10
  -1  -6   4  181.18    8.50
  -1  -6   4  208.28    9.90
   0   6  -4   55.69    5.30
   0   6  -4   40.90    5.20
   0  -6   4   45.40    5.30
   0  -6   4   53.49    6.20
   0  -6   4   48.30    4.40
   0  -6   4   44.20    4.80
  -1   6  -4  517.25   17.20
  -1   6  -4  478.65   17.10
   1  -6   4  504.35   17.30
   1  -6   4  502.45   18.30
   1  -6   4  477.15   16.00
   1  -6   4  492.05   17.30
  -2   6  -4  663.93   22.20
  -2   6  -4  695.53   22.10
   2  -6   4  666.73   22.30
   2  -6   4  645.54   20.50
   2  -6   4  674.33   23.10
   2  -6   4  658.93   22.00
  -3   6  -4  177.18    7.10
  -3   6  -4  186.68    9.50
  -3   6  -4  190.88   10.00
   3  -6   4  186.38   10.50
   3  -6   4  192.98   10.30
   3  -6   4  180.68    7.70
   3  -6   4  183.48    9.60
  -4   6  -4  160.58    9.20
  -4   6  -4  141.19    9.40
   4  -6   4  139.39    9.60
   4  -6   4  145.39   10.90
   4  -6   4  147.89   10.30
   4  -6   4  149.29    9.40
  -5   6  -4   28.00    5.60
  -5   6  -4   26.10    6.50
   5  -6   4   21.10    4.60
   5  -6   4   16.40    7.10
   5  -6   4   25.60    5.90
   5  -6   4   31.40    5.50
   5  -6   4   19.30    4.80
  -6   6  -4   60.09    9.30
  -6   6  -4   81.79   10.20
  -6   6  -4   68.49    9.90
   6  -6   4   61.89    8.80
   6  -6   4   60.49    8.20
   8   5  -4   13.80    5.30
   8   5  -4    6.30    4.40
   8   5  -4    9.10    7.90
   8   5  -4   19.10    8.80
  -8  -5   4    7.00    4.40
  -8  -5   4   19.60    7.70
  -8  -5   4    7.70    6.00
   7   5  -4   14.50    7.20
   7   5  -4    7.10    3.90
   7   5  -4    9.90    5.70
   7   5  -4    4.90    4.20
  -7  -5   4   18.70    5.90
  -7  -5   4   15.30    4.20
  -7  -5   4   13.00    4.20
  -7  -5   4   17.60    8.00
  -7  -5   4   16.20    4.90
   6   5  -4   68.59    7.90
   6   5  -4   64.49    7.10
   6   5  -4   58.49    6.30
   6   5  -4   43.30    7.90
  -6  -5   4   70.09   10.70
  -6  -5   4   63.69    7.50
  -6  -5   4   70.89    6.50
  -6  -5   4   58.69    7.90
  -6  -5   4   53.19    6.90
   5   5  -4  646.54   21.40
   5   5  -4  722.43   25.50
   5   5  -4  653.93   21.70
   5   5  -4  598.74   23.90
   5   5  -4  644.34   20.80
  -5  -5   4  651.13   21.50
  -5  -5   4  668.13   22.60
  -5  -5   4  696.33   22.80
  -5  -5   4  707.43   22.90
  -5  -5   4  743.33   25.40
   4   5  -4  109.19    6.80
   4   5  -4  111.19    6.90
   4   5  -4  116.09    6.70
   4   5  -4  109.29    7.10
  -4  -5   4   98.49    7.90
  -4  -5   4  110.19    6.70
  -4  -5   4  112.89    7.60
  -4  -5   4  125.29    7.60
  -4  -5   4  110.99    8.80
   3   5  -4  224.98    8.90
   3   5  -4  220.88    9.20
   3   5  -4  213.78    9.10
  -3  -5   4  226.38    9.70
  -3  -5   4  212.88   10.20
  -3  -5   4  212.98   10.60
  -3  -5   4  213.08    8.90
   2   5  -4 2433.06   69.69
   2   5  -4 2473.55   69.79
   2   5  -4 2527.45   69.69
  -2  -5   4 2453.35   70.19
  -2  -5   4 2465.15   71.09
  -2  -5   4 2413.56   69.69
   1   5  -4   24.00    3.00
   1   5  -4   22.40    3.30
   1   5  -4   36.70    4.20
  -1  -5   4   22.50    3.70
  -1  -5   4   31.20    4.00
  -1  -5   4   34.40    4.20
   0   5  -4   -0.60    2.10
   0   5  -4    0.60    2.20
   0  -5   4    2.70    3.50
   0  -5   4   -0.10    1.60
   0  -5   4    0.30    2.50
   0  -5   4   -0.50    2.10
  -1   5  -4  916.31   27.70
  -1   5  -4  927.51   27.60
   1  -5   4  911.11   27.70
   1  -5   4  853.21   26.70
   1  -5   4  874.21   27.60
   1  -5   4  920.11   30.30
  -2   5  -4  618.44   21.30
  -2   5  -4  611.34   20.40
   2  -5   4  630.44   20.70
   2  -5   4  657.63   24.20
   2  -5   4  614.24   19.20
   2  -5   4  607.24   20.40
  -3   5  -4  891.21   25.30
  -3   5  -4  871.31   27.70
  -3   5  -4  882.41   30.00
   3  -5   4  877.91   28.10
   3  -5   4  906.51   27.80
   3  -5   4  879.91   26.40
   3  -5   4  835.42   33.20
  -4   5  -4    1.40    3.50
  -4   5  -4    7.30    3.50
  -4   5  -4    2.70    1.90
   4  -5   4   12.80    4.40
   4  -5   4   -1.30    3.50
   4  -5   4    2.50    3.30
   4  -5   4   -1.60    4.60
   4  -5   4    6.00    3.20
  -5   5  -4    2.00    2.10
  -5   5  -4    6.00    5.10
  -5   5  -4    8.80    4.00
  -5   5  -4    6.80    4.40
   5  -5   4    7.90    4.80
   5  -5   4    0.00    3.20
   5  -5   4   15.70    6.40
   5  -5   4    6.50    3.90
   5  -5   4    5.10    3.50
  -6   5  -4  279.37   17.10
  -6   5  -4  294.67   14.20
  -6   5  -4  277.27   10.10
   6  -5   4  297.67   14.60
   6  -5   4  272.17   11.00
   6  -5   4  295.37   18.30
   6  -5   4  312.67   15.70
   6  -5   4  281.77   11.30
   8   4  -4   -7.20    8.20
   8   4  -4    0.40    4.10
  -8  -4   4    0.00    3.10
  -8  -4   4    0.30    3.80
  -8  -4   4    4.70    6.00
  -8  -4   4    6.70    4.90
   7   4  -4   13.90    3.50
   7   4  -4   14.00    4.00
   7   4  -4   19.10    8.10
   7   4  -4   19.80    5.90
  -7  -4   4   20.80    4.80
  -7  -4   4   26.90    8.60
  -7  -4   4   22.50    4.00
  -7  -4   4   14.90    5.80
  -7  -4   4   29.90    4.10
   6   4  -4   69.19    7.90
   6   4  -4   74.69   11.10
   6   4  -4   82.09    6.00
   6   4  -4   80.89    6.60
  -6  -4   4   71.89    9.50
  -6  -4   4   80.09    8.30
  -6  -4   4   76.69    7.10
  -6  -4   4   73.49    7.90
  -6  -4   4   80.59    6.10
   5   4  -4   31.80    3.80
   5   4  -4   38.40    5.60
   5   4  -4   34.80    4.50
   5   4  -4   32.60    4.70
   5   4  -4   36.80    6.20
  -5  -4   4   41.70    5.10
  -5  -4   4   39.70    6.20
  -5  -4   4   39.00    4.80
  -5  -4   4   31.70    4.10
  -5  -4   4   31.80    4.60
   4   4  -4   37.60    4.40
   4   4  -4   37.80    4.50
   4   4  -4   43.90    4.30
   4   4  -4   31.90    3.80
   4   4  -4   33.20    5.40
  -4  -4   4   49.10    4.60
  -4  -4   4   42.80    5.30
  -4  -4   4   44.50    5.20
  -4  -4   4   29.60    4.30
   3   4  -4 2466.65   72.29
   3   4  -4 2549.74   72.39
   3   4  -4 2626.34   72.09
   3   4  -4 2545.25   72.19
  -3  -4   4 2626.14   73.49
  -3  -4   4 2693.23   74.89
  -3  -4   4 2525.15   72.39
  -3  -4   4 2523.55   72.09
  -3  -4   4 2540.45   72.79
   2   4  -4  202.48    7.90
   2   4  -4  194.48    7.50
   2   4  -4  191.98    7.50
  -2  -4   4  179.88    7.50
  -2  -4   4  173.88    8.80
  -2  -4   4  185.98    8.00
   1   4  -4   61.59    3.90
   1   4  -4   55.79    4.60
   1   4  -4   62.29    4.20
  -1  -4   4   57.59    4.30
  -1  -4   4   48.50    5.20
  -1  -4   4   60.19    4.50
   0   4  -4 4985.10  136.49
   0   4  -4 4848.71  136.39
   0  -4   4 4983.10  137.39
   0  -4   4 5012.90  136.49
   0  -4   4 4932.81  136.29
   0  -4   4 4771.92  136.39
  -1   4  -4 2328.97   65.39
  -1   4  -4 2274.07   65.39
   1  -4   4 2320.87   65.59
   1  -4   4 2372.96   66.19
   1  -4   4 2313.77   65.49
   1  -4   4 2230.18   64.89
  -2   4  -4  395.06   13.80
  -2   4  -4  397.36   12.70
  -2   4  -4  394.26   13.90
   2  -4   4  411.26   14.00
   2  -4   4  399.46   13.20
   2  -4   4  392.36   14.00
   2  -4   4  403.66   14.30
  -3   4  -4   66.39    5.80
  -3   4  -4   69.39    4.10
  -3   4  -4   69.99    5.30
   3  -4   4   69.49    6.10
   3  -4   4   73.49    5.50
   3  -4   4   72.79    5.40
   3  -4   4   66.39    5.00
  -4   4  -4  362.26   13.80
  -4   4  -4  352.26   12.10
  -4   4  -4  368.36   15.30
  -4   4  -4  356.86   13.90
   4  -4   4  366.86   12.40
   4  -4   4  346.67   15.60
   4  -4   4  369.96   13.30
   4  -4   4  348.07   14.40
   4  -4   4  367.86   13.70
  -5   4  -4   -2.10    3.60
  -5   4  -4    1.80    2.30
  -5   4  -4    3.50    4.60
  -5   4  -4   -2.10    3.20
   5  -4   4    3.20    5.30
   5  -4   4   -1.00    2.40
   5  -4   4   -1.60    3.20
   5  -4   4   -1.00    2.60
   5  -4   4   -2.20    3.80
  -6   4  -4  209.18   14.10
  -6   4  -4  183.58   10.90
  -6   4  -4  186.78   11.20
  -6   4  -4  183.58    8.70
   6  -4   4  187.48    7.60
   6  -4   4  193.48   14.70
   6  -4   4  196.38   12.50
   6  -4   4  187.98   10.80
   6  -4   4  178.28    7.30
  -7   4  -4   46.60    9.60
  -7   4  -4   73.39   10.00
   7  -4   4   90.49   12.30
   7  -4   4   71.59   11.80
   8   3  -4   -1.70    7.60
   8   3  -4    7.10    3.50
  -8  -3   4   -1.70    3.80
  -8  -3   4   13.10    6.50
  -8  -3   4    0.70    2.10
  -8  -3   4    1.10    4.30
   7   3  -4  172.08    8.30
   7   3  -4  172.38    7.90
  -7  -3   4  159.68    8.30
  -7  -3   4  167.28    8.00
  -7  -3   4  174.58    9.60
  -7  -3   4  171.98   12.20
  -7  -3   4  160.68   14.80
   6   3  -4    9.80    4.10
   6   3  -4    0.80    2.30
   6   3  -4   -1.20    5.30
   6   3  -4    2.10    2.80
  -6  -3   4    0.80    3.10
  -6  -3   4    1.00    4.10
  -6  -3   4    2.00    2.50
  -6  -3   4    1.90    2.80
  -6  -3   4    3.80    5.80
   5   3  -4   46.10    5.00
   5   3  -4   66.19    4.30
   5   3  -4   65.59    8.30
   5   3  -4   67.09    5.80
  -5  -3   4   62.29    7.50
  -5  -3   4   51.49    6.10
  -5  -3   4   48.90    4.50
  -5  -3   4   55.49    5.40
  -5  -3   4   58.99    5.20
   4   3  -4  502.75   16.80
   4   3  -4  471.65   16.20
   4   3  -4  489.55   18.80
  -4  -3   4  504.55   15.80
  -4  -3   4  518.65   19.00
  -4  -3   4  503.35   16.80
  -4  -3   4  511.05   16.50
   3   3  -4  102.49    5.00
   3   3  -4  104.29    4.70
   3   3  -4  104.59    5.10
   3   3  -4   96.39    5.50
   3   3  -4   92.59    6.70
  -3  -3   4   98.79    5.30
  -3  -3   4  103.39    5.20
  -3  -3   4   87.69    7.80
  -3  -3   4   98.09    4.80
   2   3  -4 1232.38   34.50
   2   3  -4 1213.98   36.10
   2   3  -4 1210.38   34.40
   2   3  -4 1204.78   34.60
   2   3  -4 1179.28   35.00
  -2  -3   4 1178.48   34.50
  -2  -3   4 1190.08   34.40
  -2  -3   4 1195.88   34.80
   1   3  -4  204.78    7.90
   1   3  -4  219.48    7.60
   1   3  -4  222.88    7.90
  -1  -3   4  233.88    8.10
  -1  -3   4  217.78    8.00
   0   3  -4 2154.08   60.29
   0   3  -4 2108.89   60.29
   0  -3   4 2111.49   60.29
   0  -3   4 2207.78   60.39
   0  -3   4 2123.49   60.39
  -1   3  -4   75.79    4.50
  -1   3  -4   82.19    4.70
  -1   3  -4   82.39    4.10
   1  -3   4   82.29    4.50
   1  -3   4   83.09    4.90
   1  -3   4   78.49    4.60
  -2   3  -4 2119.99   60.49
  -2   3  -4 2113.59   60.59
  -2   3  -4 2072.69   59.89
   2  -3   4 2144.49   60.89
   2  -3   4 2171.48   60.79
   2  -3   4 2201.98   60.69
   2  -3   4 2100.99   60.19
  -3   3  -4 1055.49   33.00
  -3   3  -4 1104.89   32.30
  -3   3  -4 1067.89   33.90
  -3   3  -4 1119.29   33.00
   3  -3   4 1136.49   32.90
   3  -3   4 1107.29   33.60
   3  -3   4 1129.89   32.80
   3  -3   4 1130.99   33.00
  -4   3  -4  233.28   10.30
  -4   3  -4  236.38   11.50
  -4   3  -4  226.38    9.90
  -4   3  -4  234.28    9.00
   4  -3   4  244.28   10.00
   4  -3   4  242.88    9.10
   4  -3   4  236.38   12.10
   4  -3   4  237.08    8.20
   4  -3   4  214.38   10.60
  -5   3  -4  193.28    9.60
  -5   3  -4  182.48    8.20
  -5   3  -4  174.48   10.40
  -5   3  -4  188.28   11.50
   5  -3   4  182.78    6.50
   5  -3   4  182.08   12.00
   5  -3   4  184.48    7.40
   5  -3   4  186.58    9.30
   5  -3   4  180.08   10.50
  -6   3  -4   96.39    8.00
  -6   3  -4   95.99    8.50
  -6   3  -4   88.19   11.90
  -6   3  -4   94.59    8.40
   6  -3   4   83.59   11.60
   6  -3   4   96.99    8.10
   6  -3   4   79.79    9.60
  -7   3  -4   26.50    5.50
  -7   3  -4   37.30    6.40
  -7   3  -4   28.60    5.10
  -7   3  -4   17.40    7.10
   7  -3   4   15.70    8.80
   7  -3   4   26.80    7.30
   7  -3   4   21.10    5.60
   8   2  -4   57.69   10.50
   8   2  -4   41.00    5.00
   8   2  -4   44.50    4.80
  -8  -2   4   37.50    7.80
  -8  -2   4   39.80    4.80
  -8  -2   4   36.30    4.20
   7   2  -4   16.70    7.60
   7   2  -4    5.00    2.50
   7   2  -4    3.70    3.00
   7   2  -4    7.60    7.20
  -7  -2   4    7.10    7.20
  -7  -2   4    3.70    2.70
  -7  -2   4   -1.70    3.10
  -7  -2   4    5.10    4.90
  -7  -2   4    0.80    2.30
  -7  -2   4    3.60    3.40
  -7  -2   4    5.30    2.50
   6   2  -4  119.99   11.60
   6   2  -4  139.29   11.50
  -6  -2   4  106.29   10.90
  -6  -2   4  111.99    6.90
  -6  -2   4  117.89    6.80
  -6  -2   4  149.79    9.60
  -6  -2   4  125.59    7.40
  -6  -2   4  125.29    6.30
   5   2  -4   35.90    3.20
   5   2  -4   40.90    6.00
   5   2  -4   41.10    3.60
   5   2  -4   45.80    5.30
  -5  -2   4   34.80    4.50
  -5  -2   4   37.30    4.20
  -5  -2   4   42.70    6.20
  -5  -2   4   40.90    4.80
  -5  -2   4   40.70    3.60
   4   2  -4  171.08    7.90
   4   2  -4  174.38    6.50
   4   2  -4  174.98    6.60
   4   2  -4  181.68    9.90
   4   2  -4  176.18    7.90
  -4  -2   4  174.98    7.30
  -4  -2   4  175.78    7.40
  -4  -2   4  168.38    6.60
  -4  -2   4  172.68    8.00
  -4  -2   4  180.08    9.70
   3   2  -4    4.50    1.30
   3   2  -4    5.40    3.00
   3   2  -4    3.40    1.40
  -3  -2   4    1.90    2.60
  -3  -2   4    3.80    1.60
  -3  -2   4    5.60    1.80
  -3  -2   4    2.80    1.40
   2   2  -4 1686.03   47.10
   2   2  -4 1707.83   48.00
   2   2  -4 1683.93   47.00
   2   2  -4 1686.83   48.80
   2   2  -4 1695.43   47.00
  -2  -2   4 1651.03   47.20
  -2  -2   4 1663.03   47.10
  -2  -2   4 1648.04   47.00
  -1  -2   4 6254.97  172.38
   0   2  -4  326.17   11.40
   0   2  -4  349.47   11.10
   0   2  -4  343.07   11.10
   0  -2   4  348.37   11.10
   0  -2   4  359.66   11.50
   0  -2   4  355.46   11.20
  -1   2  -4  843.72   24.60
  -1   2  -4  819.92   24.40
  -1   2  -4  835.32   24.50
   1  -2   4  833.02   24.60
   1  -2   4  841.62   24.50
   1  -2   4  811.82   24.60
  -2   2  -4   62.69    4.50
  -2   2  -4   61.19    4.40
  -2   2  -4   56.79    3.80
  -2   2  -4   64.09    4.10
   2  -2   4   54.09    4.50
   2  -2   4   62.69    4.30
   2  -2   4   62.39    4.40
  -3   2  -4 2679.33   76.29
  -3   2  -4 2658.03   77.39
  -3   2  -4 2762.92   76.69
  -3   2  -4 2658.53   76.59
   3  -2   4 2753.22   76.49
   3  -2   4 2735.53   77.19
   3  -2   4 2739.03   76.89
   3  -2   4 2752.42   76.09
  -4   2  -4   96.29    5.70
  -4   2  -4  117.39    6.70
  -4   2  -4   98.89    6.30
   4  -2   4  100.39    3.70
   4  -2   4   84.29    8.00
   4  -2   4   86.49    6.80
   4  -2   4   92.39    4.80
  -5   2  -4    7.80    3.40
  -5   2  -4   17.00    3.50
  -5   2  -4   12.10    4.40
  -5   2  -4   16.10    3.20
   5  -2   4   15.00    3.60
   5  -2   4   21.30    5.50
   5  -2   4   10.50    4.20
  -6   2  -4   38.10    4.90
  -6   2  -4   54.19    7.60
  -6   2  -4   46.00    6.40
  -6   2  -4   60.89    7.10
   6  -2   4   46.50    6.30
   6  -2   4   55.59    5.80
   6  -2   4   40.30    7.50
  -7   2  -4   86.19    9.00
  -7   2  -4   79.69    9.10
  -7   2  -4   82.59    9.10
  -7   2  -4   88.19   10.10
   7  -2   4   96.29    9.60
   7  -2   4   82.19   10.70
   7  -2   4   92.09   12.00
   8   1  -4   34.80    9.80
   8   1  -4   32.70    8.60
   8   1  -4   21.80    3.10
   8   1  -4   26.70    3.30
  -8  -1   4   29.60    7.60
  -8  -1   4   23.90    3.50
  -8  -1   4   23.00    4.20
  -8  -1   4   32.90    5.90
   7   1  -4    1.10    1.80
   7   1  -4   11.40    8.20
   7   1  -4   19.10    6.90
  -7  -1   4    7.40    5.20
  -7  -1   4    0.30    2.70
  -7  -1   4   13.60    7.50
  -7  -1   4    3.80    2.50
  -7  -1   4    7.70    4.30
  -7  -1   4    4.30    2.20
  -7  -1   4    6.60    2.10
  -6  -1   4   13.50    5.70
   5   1  -4  190.38    9.00
   5   1  -4  199.88    6.80
   5   1  -4  212.18   12.00
   5   1  -4  207.88   11.50
   5   1  -4  203.88    6.90
  -5  -1   4  197.28    9.80
  -5  -1   4  191.78    7.10
  -5  -1   4  199.48    7.70
  -5  -1   4  218.18    9.20
  -5  -1   4  216.48   11.80
   4   1  -4    4.10    2.30
   4   1  -4    7.30    1.30
   4   1  -4    3.20    1.20
   4   1  -4    1.30    3.60
  -4  -1   4    4.00    2.40
  -4  -1   4    6.40    2.60
  -4  -1   4    3.20    1.60
  -4  -1   4    5.10    1.40
  -4  -1   4    3.70    3.70
   3   1  -4    4.20    2.90
   3   1  -4    2.00    1.90
   3   1  -4    3.40    2.20
   3   1  -4    3.10    1.50
   3   1  -4    2.80    0.90
  -3  -1   4    2.10    1.70
  -3  -1   4    2.20    2.00
  -3  -1   4   -1.20    2.20
  -3  -1   4    1.30    1.10
  -3  -1   4    0.50    1.20
   2   1  -4  614.74   17.40
   2   1  -4  590.04   18.50
   2   1  -4  590.54   17.00
   2   1  -4  611.44   19.20
   2   1  -4  583.74   18.20
   2   1  -4  612.74   17.40
  -2  -1   4  582.84   18.30
  -2  -1   4  572.64   17.40
  -2  -1   4  602.94   19.20
  -2  -1   4  585.44   17.20
  -2  -1   4  590.34   19.10
  -2  -1   4  587.54   17.10
   1   1  -4   27.40    3.20
   1   1  -4   28.40    1.40
   1   1  -4   22.30    2.80
   1   1  -4   29.50    2.00
   1   1  -4   25.60    2.60
   1   1  -4   25.30    2.10
  -1  -1   4   26.50    3.00
  -1  -1   4   31.90    2.70
  -1  -1   4   26.90    2.00
  -1  -1   4   26.20    1.40
  -1  -1   4   26.60    2.00
   0   1  -4 3282.97   86.49
   0   1  -4 3023.30   85.99
   0   1  -4 2853.51   86.49
   0   1  -4 3163.88   85.99
   0  -1   4 3134.49   86.09
   0  -1   4 3186.48   85.99
   0  -1   4 3117.59   86.59
   0  -1   4 3133.69   86.09
  -1   1  -4 1589.84   44.60
  -1   1  -4 1595.44   44.80
  -1   1  -4 1580.24   44.60
  -1   1  -4 1583.84   44.30
   1  -1   4 1597.84   44.90
   1  -1   4 1566.94   44.80
   1  -1   4 1523.65   43.50
   1  -1   4 1582.04   44.50
  -2   1  -4 3529.25  100.39
  -2   1  -4 3460.15  100.19
  -2   1  -4 3581.04  100.39
  -2   1  -4 3631.24  100.39
   2  -1   4 3583.44  100.59
   2  -1   4 3572.64  100.59
   2  -1   4 3838.92   99.09
   2  -1   4 3675.23  100.19
  -3   1  -4 1636.04   48.20
  -3   1  -4 1692.13   47.80
  -3   1  -4 1623.44   47.60
  -3   1  -4 1682.43   47.80
   3  -1   4 1684.73   47.70
   3  -1   4 1630.24   46.20
   3  -1   4 1680.73   48.20
   3  -1   4 1630.04   48.10
  -4   1  -4  989.00   30.40
  -4   1  -4  995.40   30.30
  -4   1  -4  989.80   31.30
  -4   1  -4 1015.10   30.40
   4  -1   4 1030.50   28.70
   4  -1   4  979.80   29.00
   4  -1   4  996.70   32.10
   4  -1   4  984.70   30.10
   4  -1   4 1011.40   31.00
  -5   1  -4   81.99    6.50
  -5   1  -4   75.89    7.70
  -5   1  -4   66.99    6.50
  -5   1  -4   62.39    6.20
   5  -1   4   72.39    6.30
   5  -1   4   74.09    5.30
   5  -1   4   59.99    7.20
   5  -1   4   70.49    8.20
  -6   1  -4   55.29    8.30
  -6   1  -4   55.09    6.80
  -6   1  -4   55.29    6.50
   6  -1   4   61.69    6.70
   6  -1   4   40.70    5.90
   6  -1   4   44.90    7.70
   6  -1   4   59.69    5.80
  -7   1  -4   54.89    6.60
  -7   1  -4   72.19    8.50
  -7   1  -4   65.19    8.40
  -7   1  -4   49.60    7.50
   7  -1   4   70.89   10.70
   7  -1   4   40.80    6.00
   7  -1   4   49.90    7.20
  -8   1  -4   26.30    7.90
  -8   1  -4   29.30    6.40
  -8   1  -4   22.30    7.00
  -8   1  -4   27.40    6.80
   8  -1   4   24.30   10.60
   8  -1   4   17.90    7.50
   8   0  -4    7.00    9.20
  -8   0   4    9.30    6.60
  -8   0   4   20.40    6.80
  -8   0   4   11.80    2.80
  -8   0   4    7.70    3.80
   7   0  -4  103.69   11.90
   7   0  -4  100.59    8.00
   7   0  -4   90.69   12.70
  -7   0   4   95.39    4.20
  -7   0   4   87.59   12.90
  -7   0   4  101.99    5.90
  -7   0   4   92.89   10.60
  -7   0   4   95.19    5.10
   6   0  -4   95.09    6.90
   6   0  -4  100.39    3.50
   6   0  -4  106.99   10.50
   6   0  -4   91.19   10.60
  -6   0   4  112.09    9.00
  -6   0   4  103.49    5.30
  -6   0   4   94.69    8.40
  -6   0   4   99.89    4.80
  -6   0   4  105.99   10.50
  -6   0   4  101.69    5.80
   5   0  -4   32.80    4.80
   5   0  -4   32.10    6.00
   5   0  -4   30.50    1.70
   5   0  -4   30.80    1.80
   5   0  -4   36.20    5.50
  -5   0   4   30.60    3.10
  -5   0   4   34.50    4.50
  -5   0   4   30.00    5.70
  -5   0   4   26.00    3.20
  -5   0   4   27.10    4.30
  -5   0   4   26.70    2.50
   4   0  -4  246.68    9.20
   4   0  -4  204.28   10.40
  -4   0   4  205.68    6.60
  -4   0   4  196.98    9.00
  -4   0   4  185.98    6.80
  -4   0   4  223.48   10.50
   3   0  -4  106.29    6.80
   3   0  -4  114.99    5.70
  -3   0   4  108.99    6.90
  -3   0   4  109.89    3.60
  -3   0   4  110.89    5.40
  -3   0   4  111.39    6.50
  -3   0   4  112.79    3.90
  -3   0   4  111.29    6.10
   2   0  -4  419.36   14.20
   2   0  -4  423.46   11.90
   2   0  -4  420.36   14.50
   2   0  -4  446.46   13.80
   2   0  -4  428.96   11.90
  -2   0   4  420.16   12.10
  -2   0   4  425.36   14.00
  -2   0   4  414.26   12.10
  -2   0   4  422.26   13.00
  -2   0   4  424.46   14.50
  -2   0   4  429.06   14.60
   1   0  -4  241.68    7.30
   1   0  -4  253.07    8.50
   1   0  -4  240.68    8.70
   1   0  -4  242.48    8.80
  -1   0   4  232.18    7.40
  -1   0   4  234.48    8.40
  -1   0   4  247.58    8.80
  -1   0   4  242.48    7.10
  -1   0   4  243.48    7.40
  -1   0   4  241.58    8.70
   0   0  -4  964.80   27.50
   0   0  -4  945.91   26.80
   0   0  -4  998.00   28.20
   0   0  -4 1021.30   28.00
   0   0  -4  940.91   27.50
   0   0  -4 1002.40   28.50
   0   0   4  996.10   28.30
   0   0   4  909.11   27.60
   0   0   4  967.80   28.20
   0   0   4  993.10   27.50
   0   0   4  946.41   26.80
   0   0   4  975.00   27.90
  -1   0  -4 4666.93  129.49
  -1   0  -4 4626.64  129.09
  -1   0  -4 4603.34  129.39
  -1   0  -4 4891.61  129.39
  -1   0  -4 4861.51  128.69
   1   0   4 4638.74  128.79
   1   0   4 4547.04  129.59
   1   0   4 4719.33  129.09
   1   0   4 4646.54  129.39
  -2   0  -4   54.49    3.70
  -2   0  -4   49.50    3.70
  -2   0  -4   52.29    3.60
  -2   0  -4   59.59    2.30
  -2   0  -4   55.79    3.90
   2   0   4   52.49    4.30
   2   0   4   51.99    3.50
   2   0   4   54.09    2.50
   2   0   4   53.09    3.60
   2   0   4   52.79    4.20
  -3   0  -4 2774.62   77.69
  -3   0  -4 2748.82   77.39
  -3   0  -4 2713.83   77.79
  -3   0  -4 2663.03   77.89
   3   0   4 2673.13   78.19
   3   0   4 2808.32   78.09
   3   0   4 2869.01   77.39
   3   0   4 2793.02   77.89
  -4   0  -4  243.58   10.00
  -4   0  -4  252.67   10.30
  -4   0  -4  268.77   10.60
  -4   0  -4  251.57   10.80
   4   0   4  248.58   10.80
   4   0   4  239.08   11.40
   4   0   4  248.28    9.80
  -5   0  -4 2199.78   64.59
  -5   0  -4 2209.48   63.89
  -5   0  -4 2143.29   63.09
  -5   0  -4 2209.98   63.49
   5   0   4 2125.79   65.49
   5   0   4 2147.29   62.69
   5   0   4 2248.38   62.99
   5   0   4 2237.28   64.09
  -6   0  -4   45.70    6.40
  -6   0  -4   59.59    6.70
  -6   0  -4   43.60    5.50
  -6   0  -4   48.20    5.70
   6   0   4   51.99    6.10
   6   0   4   46.90    5.20
   6   0   4   45.90    7.50
   6   0   4   36.60    5.70
  -7   0  -4   15.10    5.60
  -7   0  -4    5.40    4.80
  -7   0  -4   13.80    5.60
   7   0   4    8.10    5.60
   7   0   4   15.30    4.60
   7   0   4   14.60    8.70
   7   0   4    9.90    4.60
  -8   0  -4   14.80    6.50
  -8   0  -4   11.60    5.10
  -8   0  -4   -1.90    7.00
  -8   0  -4    2.80    6.60
   8   0   4    1.90    7.20
   8   0   4    6.20    5.30
   8   0   4    6.30    9.80
   8  -1  -4  -12.50    9.10
  -8   1   4   -2.20    8.00
  -8   1   4   -7.80    6.40
  -8   1   4    1.80    2.30
  -8   1   4   -0.30    2.10
   7  -1  -4    2.30    8.30
  -7   1   4    1.40    6.10
  -7   1   4    2.20    4.90
  -7   1   4   -2.60    1.90
  -7   1   4   -1.30    1.80
  -7   1   4    7.50    7.10
   6  -1  -4   99.39    7.50
   6  -1  -4  115.09   11.40
  -6   1   4  107.89   10.50
  -6   1   4   87.89    4.20
  -6   1   4  104.09    9.40
  -6   1   4   92.19    5.70
  -6   1   4  105.59   11.00
   5  -1  -4   74.79    8.80
   5  -1  -4   71.69    6.00
  -5   1   4   74.19    5.40
  -5   1   4   67.39    7.00
  -5   1   4   75.39    3.20
  -5   1   4   81.09    8.30
  -5   1   4   91.49    7.60
  -5   1   4   79.09    8.30
   4  -1  -4  203.88   10.60
   4  -1  -4  210.88    9.00
  -4   1   4  201.38    6.10
  -4   1   4  199.38    9.80
  -4   1   4  211.58   10.50
  -4   1   4  220.98   10.70
  -4   1   4  204.38    8.60
  -4   1   4  214.28    9.40
   3  -1  -4  111.69    5.80
  -3   1   4  102.09    6.30
  -3   1   4   92.99    5.30
  -3   1   4   95.69    6.30
  -3   1   4  101.89    6.60
  -3   1   4   96.89    5.40
   2  -1  -4 2260.67   63.19
  -2   1   4 2242.18   63.79
  -2   1   4 2257.67   63.59
  -2   1   4 2187.88   62.59
  -2   1   4 2223.18   63.49
   1  -1  -4  251.07    8.70
   1  -1  -4  235.08    8.20
   1  -1  -4  226.08    8.90
   1  -1  -4  236.38    7.10
  -1   1   4  242.98    8.90
  -1   1   4  252.57    7.40
  -1   1   4  237.28    8.30
  -1   1   4  238.58    7.20
   0  -1  -4 5065.69  144.99
   0  -1  -4 5365.66  144.89
   0  -1  -4 5272.47  144.49
   0   1   4 5181.88  144.49
   0   1   4 5466.05  144.79
   0   1   4 5108.49  143.99
  -1  -1  -4  315.97   10.30
  -1  -1  -4  322.17   10.70
  -1  -1  -4  317.97   10.10
  -1  -1  -4  332.47   10.10
  -1  -1  -4  339.17   10.90
  -1  -1  -4  340.47   10.60
   1   1   4  324.57   10.70
   1   1   4  322.67   10.10
   1   1   4  318.87   10.20
   1   1   4  313.47   10.90
   1   1   4  304.37   10.50
  -2  -1  -4  618.34   18.80
  -2  -1  -4  646.64   17.80
  -2  -1  -4  610.64   19.10
  -2  -1  -4  583.54   18.70
  -2  -1  -4  655.03   19.50
  -2  -1  -4  596.24   18.60
   2   1   4  604.84   19.30
   2   1   4  598.04   19.50
   2   1   4  619.74   18.70
   2   1   4  648.44   18.90
   2   1   4  622.04   18.60
  -3  -1  -4  506.25   16.80
  -3  -1  -4  519.25   16.50
  -3  -1  -4  538.75   14.50
  -3  -1  -4  499.95   16.90
  -3  -1  -4  522.75   17.20
   3   1   4  500.65   16.80
   3   1   4  514.95   17.60
   3   1   4  514.15   15.80
   3   1   4  505.25   16.30
   3   1   4  523.95   17.30
  -4  -1  -4  255.57   10.10
  -4  -1  -4  254.77   10.80
  -4  -1  -4  264.77   12.20
  -4  -1  -4  264.57   10.50
   4   1   4  247.18   11.40
   4   1   4  262.27   10.80
   4   1   4  255.07    8.50
   4   1   4  231.88   10.70
   4   1   4  247.98    9.80
  -5  -1  -4   75.79    6.80
  -5  -1  -4  100.59    7.90
  -5  -1  -4   90.59    7.30
  -5  -1  -4   98.39    7.70
   5   1   4   95.69    6.90
   5   1   4   90.39    9.20
   5   1   4   83.39    3.40
   5   1   4   93.39    8.00
   5   1   4   87.09    8.20
  -6  -1  -4  244.08   12.40
  -6  -1  -4  231.08   12.60
  -6  -1  -4  252.87   11.20
  -6  -1  -4  239.78   11.60
   6   1   4  228.88   12.60
   6   1   4  253.77   12.70
   6   1   4  228.48   10.70
   6   1   4  221.88   13.50
   6   1   4  238.88   11.50
  -7  -1  -4   15.00    5.20
  -7  -1  -4   15.10    5.50
  -7  -1  -4   16.30    4.70
   7   1   4   15.20    4.90
   7   1   4   12.20    6.00
   7   1   4   15.30    4.60
  -8  -1  -4   17.00    5.50
  -8  -1  -4    9.00    7.10
  -8  -1  -4   13.20    7.30
  -8  -1  -4   16.70    6.40
   8   1   4   17.70    6.10
   8   1   4   12.80    7.00
   8   1   4    6.70    9.10
   7  -2  -4   -6.60    8.00
   7  -2  -4    3.40    3.90
  -7   2   4   14.60    7.00
  -7   2   4    6.20    7.80
  -7   2   4    2.00    1.60
  -7   2   4   -3.80    5.60
  -7   2   4   -0.30    1.50
   6  -2  -4   59.59    7.00
   6  -2  -4   56.09    8.50
  -6   2   4   52.39    3.10
  -6   2   4   67.29    8.90
  -6   2   4   54.49    3.10
  -6   2   4   76.89    9.60
  -6   2   4   52.29    5.40
  -6   2   4   64.09    9.30
   5  -2  -4  260.27   11.20
   5  -2  -4  248.58   13.40
  -5   2   4  253.67    7.80
  -5   2   4  245.98   13.20
  -5   2   4  258.37   10.30
  -5   2   4  269.07   13.20
  -5   2   4  274.77   12.40
  -5   2   4  261.77   14.30
   4  -2  -4    1.60    3.80
   4  -2  -4   -3.20    2.70
  -4   2   4    2.20    2.00
  -4   2   4    2.00    2.90
  -4   2   4   -0.30    3.20
  -4   2   4   -1.80    3.20
  -4   2   4    1.80    3.70
  -4   2   4   -2.10    2.20
  -3   2   4   11.90    2.00
  -3   2   4   15.00    3.20
  -3   2   4   10.60    2.40
  -3   2   4   14.60    3.70
  -3   2   4   11.30    3.40
   2  -2  -4 1804.82   50.09
  -2   2   4 1756.42   50.59
  -2   2   4 1692.33   49.00
  -2   2   4 1757.72   49.99
  -2   2   4 1691.73   47.70
  -2   2   4 1668.23   47.70
  -2   2   4 1752.02   49.99
  -2   2   4 1805.52   50.69
   1  -2  -4   87.59    4.80
   1  -2  -4   83.99    3.90
   1  -2  -4   84.09    3.20
  -1   2   4   79.59    3.10
  -1   2   4   78.19    4.00
  -1   2   4   77.99    3.40
  -1   2   4   84.79    5.10
  -1   2   4   76.59    4.70
   0  -2  -4 8508.85  224.38
   0  -2  -4 8378.36  224.68
   0  -2  -4 7923.61  223.38
   0   2   4 7668.93  224.08
   0   2   4 8252.87  224.68
   0   2   4 8271.87  224.68
   1   2   4 9999.00  272.37
   1   2   4 9941.30  272.57
   1   2   4 9857.01  272.27
  -2  -2  -4 1244.58   37.70
  -2  -2  -4 1295.47   38.60
  -2  -2  -4 1349.07   38.30
  -2  -2  -4 1268.47   37.60
  -2  -2  -4 1325.27   38.00
  -2  -2  -4 1357.36   37.30
   2   2   4 1291.77   37.40
   2   2   4 1371.36   38.60
   2   2   4 1347.97   38.00
   2   2   4 1298.87   37.70
   2   2   4 1317.37   37.90
   2   2   4 1328.87   38.90
  -3  -2  -4  432.36   15.00
  -3  -2  -4  429.96   13.20
  -3  -2  -4  435.16   12.70
  -3  -2  -4  408.76   14.50
  -3  -2  -4  416.06   14.00
  -3  -2  -4  395.46   14.30
   3   2   4  417.96   14.40
   3   2   4  435.76   14.90
   3   2   4  413.16   13.50
   3   2   4  423.86   13.90
  -4  -2  -4    8.80    2.10
  -4  -2  -4   11.20    3.30
  -4  -2  -4    7.90    2.80
   4   2   4    6.10    2.90
   4   2   4    6.20    1.80
   4   2   4    6.20    2.50
   4   2   4    8.00    3.40
  -5  -2  -4  719.73   22.40
  -5  -2  -4  753.22   26.60
  -5  -2  -4  747.13   25.50
  -5  -2  -4  771.02   24.40
   5   2   4  763.42   26.80
   5   2   4  762.52   24.20
   5   2   4  813.12   25.80
   5   2   4  779.62   25.70
   5   2   4  735.13   22.30
  -6  -2  -4    0.90    3.60
  -6  -2  -4    2.50    4.50
   6   2   4    7.50    5.70
   6   2   4    5.40    4.60
  -7  -2  -4  185.58   10.70
  -7  -2  -4  191.28   12.40
  -7  -2  -4  179.18   16.40
  -7  -2  -4  170.88    7.20
   7   2   4  180.88   10.60
   7   2   4  163.28   11.80
   7   2   4  205.08   13.50
   7   2   4  162.08   12.60
  -8  -2  -4   -3.60    5.90
  -8  -2  -4    4.70    6.30
  -8  -2  -4    3.60    7.10
  -8  -2  -4    0.40    5.10
   8   2   4   10.00    6.80
   8   2   4    4.60    5.90
   8   2   4   -3.10    8.50
   7  -3  -4   20.80    5.10
   7  -3  -4   18.50    8.30
  -7   3   4   24.70    6.50
  -7   3   4   13.80    8.10
  -7   3   4   24.80    4.20
  -7   3   4   21.70    5.60
  -7   3   4   22.60    3.00
   6  -3  -4   11.70    6.30
   6  -3  -4    1.80    3.80
  -6   3   4   -0.30    2.80
  -6   3   4    2.80    1.20
  -6   3   4    7.30    3.00
  -6   3   4    5.30    4.80
  -6   3   4    2.80    5.60
  -6   3   4   -6.00    5.70
  -6   3   4   -9.10    5.30
   5  -3  -4  145.99   11.00
   5  -3  -4  158.08    9.20
  -5   3   4  151.08    7.30
  -5   3   4  138.49   10.20
  -5   3   4  143.29   11.00
  -5   3   4  150.98    5.20
  -5   3   4  163.88    8.30
  -5   3   4  159.38    5.20
  -5   3   4  162.08   11.00
  -5   3   4  165.28   10.50
   4  -3  -4  277.87   12.00
   4  -3  -4  268.27   12.60
  -4   3   4  295.37   11.40
  -4   3   4  296.37   13.30
  -4   3   4  290.47   10.10
  -4   3   4  281.97    8.50
  -4   3   4  289.37   12.40
  -3   3   4    9.30    3.30
  -3   3   4   13.10    1.90
  -3   3   4   10.40    1.10
  -3   3   4   13.70    2.80
  -3   3   4   12.50    3.20
  -3   3   4   10.80    3.30
   2  -3  -4  738.93   23.10
   2  -3  -4  742.93   20.60
   2  -3  -4  734.33   20.70
  -2   3   4  719.03   21.60
  -2   3   4  726.03   20.80
  -2   3   4  747.13   20.80
  -2   3   4  740.03   22.60
  -2   3   4  738.73   23.20
  -2   3   4  731.43   23.80
   1  -3  -4    3.40    1.10
   1  -3  -4    3.10    2.20
   1  -3  -4    1.20    1.20
   1  -3  -4   -1.90    1.70
  -1   3   4    3.40    1.50
  -1   3   4    0.00    0.90
  -1   3   4    1.80    2.30
  -1   3   4    4.00    1.30
  -1   3   4    0.90    2.20
  -1   3   4   -1.70    1.40
   0  -3  -4  870.81   26.90
   0  -3  -4  964.90   26.60
   0  -3  -4  929.71   27.20
   0  -3  -4  933.01   27.70
   0  -3  -4  970.50   28.10
   0   3   4  905.51   27.30
   0   3   4  904.31   28.00
   0   3   4  943.11   26.60
   0   3   4  964.60   28.10
   0   3   4  895.11   27.00
  -1  -3  -4 7413.36  206.38
  -1  -3  -4 7303.07  206.28
  -1  -3  -4 7630.44  206.38
  -1  -3  -4 7683.83  206.78
  -1  -3  -4 7653.63  206.58
   1   3   4 7271.47  205.78
   1   3   4 7755.22  206.98
   1   3   4 7386.96  206.38
   1   3   4 7356.06  206.08
   1   3   4 7335.17  206.38
   1   3   4 7703.53  206.88
  -2  -3  -4  220.48    9.00
  -2  -3  -4  216.48    8.20
  -2  -3  -4  227.78    8.80
  -2  -3  -4  229.08    9.20
  -2  -3  -4  229.58    8.20
  -2  -3  -4  228.78    8.40
  -2  -3  -4  232.98    8.70
   2   3   4  223.28    8.60
   2   3   4  217.78    9.10
   2   3   4  230.28    8.20
   2   3   4  219.58    8.30
   2   3   4  221.28    9.60
   2   3   4  239.08    9.10
  -3  -3  -4  175.38    7.90
  -3  -3  -4  168.38    7.00
  -3  -3  -4  166.38    8.00
  -3  -3  -4  170.68    6.50
  -3  -3  -4  171.98    8.60
  -3  -3  -4  165.38    7.30
   3   3   4  169.28    7.40
   3   3   4  173.28    7.80
   3   3   4  172.98    7.40
   3   3   4  162.68    8.30
   3   3   4  159.18    8.10
  -4  -3  -4   -3.60    3.00
  -4  -3  -4   -0.10    2.60
  -4  -3  -4    0.30    2.30
  -4  -3  -4    1.10    2.00
  -4  -3  -4   -2.00    2.60
   4   3   4   -1.90    2.50
   4   3   4    1.40    2.40
   4   3   4   -2.60    3.10
   4   3   4    0.60    3.10
   4   3   4    3.10    2.00
  -5  -3  -4  161.28    5.50
  -5  -3  -4  154.38    9.90
  -5  -3  -4  174.88    9.40
  -5  -3  -4  123.09    9.10
  -5  -3  -4  123.29    7.90
   5   3   4  139.99    8.10
   5   3   4  138.09    9.80
   5   3   4  129.49    9.60
   5   3   4  128.39    9.10
   5   3   4  147.19    6.50
  -6  -3  -4   45.30    6.30
  -6  -3  -4   39.90    5.10
  -6  -3  -4   29.80    5.90
  -6  -3  -4   37.10    5.70
   6   3   4   36.90    6.30
   6   3   4   34.40    5.70
   6   3   4   35.70    5.00
   6   3   4   31.60    7.20
   6   3   4   39.70    4.20
  -7  -3  -4   11.70    8.00
  -7  -3  -4   14.80    5.50
  -7  -3  -4   11.00    4.30
  -7  -3  -4    4.00    6.20
   7   3   4   16.80    8.70
   7   3   4   11.60    4.80
   7   3   4   12.70    6.10
   7   3   4    8.60    6.40
  -8  -3  -4   34.90    8.00
  -8  -3  -4   33.20    7.20
  -8  -3  -4   32.40    9.10
   8   3   4   30.10    8.00
   8   3   4   27.30    7.20
   8   3   4   26.50   10.40
   7  -4  -4    1.20    5.00
  -7   4   4   16.70   10.10
  -7   4   4   -6.50    3.70
  -7   4   4   -2.60    3.20
  -7   4   4   -5.40    5.70
  -7   4   4    1.20    3.00
   6  -4  -4   53.69    7.90
   6  -4  -4   44.60    8.10
  -6   4   4   39.40    7.80
  -6   4   4   47.90    4.80
  -6   4   4   47.20    9.80
  -6   4   4   46.50    5.50
  -6   4   4   41.50    7.90
  -6   4   4   49.90    3.30
  -6   4   4   49.90    3.10
  -6   4   4   40.60    6.30
   5  -4  -4   19.10    5.60
   5  -4  -4   11.50    4.20
  -5   4   4   18.80    5.20
  -5   4   4   10.80    2.40
  -5   4   4   13.80    5.70
  -5   4   4    6.40    4.70
  -5   4   4   14.20    2.00
  -5   4   4   25.60    5.70
  -5   4   4   13.30    3.80
   4  -4  -4  166.48    9.50
  -4   4   4  163.08    5.90
  -4   4   4  163.58    8.90
  -4   4   4  162.98   10.70
  -4   4   4  157.98    6.50
  -4   4   4  162.28    5.90
  -4   4   4  171.88   10.20
  -4   4   4  174.48    9.10
   3  -4  -4  128.49    7.90
   3  -4  -4  132.49    4.70
   3  -4  -4  131.79    4.60
  -3   4   4  131.39    4.90
  -3   4   4  135.19    5.40
  -3   4   4  133.99    5.00
  -3   4   4  130.99    7.10
  -3   4   4  119.19    7.50
  -3   4   4  138.29    8.30
   2  -4  -4   80.49    3.90
   2  -4  -4   80.59    6.30
   2  -4  -4   84.69    5.80
  -2   4   4   85.69    4.90
  -2   4   4   82.19    3.90
  -2   4   4   81.79    6.90
  -2   4   4   86.39    4.30
  -2   4   4   82.39    3.70
  -2   4   4   91.69    6.30
   1  -4  -4   17.30    2.00
   1  -4  -4   15.50    2.10
   1  -4  -4   17.50    3.40
   1  -4  -4   14.80    3.00
   1  -4  -4   16.90    2.20
  -1   4   4   17.40    2.10
  -1   4   4   12.50    1.70
  -1   4   4   14.80    3.40
  -1   4   4   15.80    2.20
  -1   4   4   17.10    2.00
  -1   4   4   16.70    3.30
   0  -4  -4 1221.98   35.00
   0  -4  -4 1239.88   36.30
   0  -4  -4 1242.78   36.00
   0  -4  -4 1123.99   35.00
   0  -4  -4 1157.28   34.70
   0   4   4 1188.88   36.30
   0   4   4 1210.68   35.30
   0   4   4 1233.78   34.60
   0   4   4 1241.28   36.30
   0   4   4 1246.18   35.20
  -1  -4  -4  786.52   23.50
  -1  -4  -4  788.02   23.50
  -1  -4  -4  733.03   22.60
  -1  -4  -4  758.92   23.80
  -1  -4  -4  800.82   23.40
   1   4   4  725.23   22.60
   1   4   4  758.22   24.00
   1   4   4  745.23   23.20
   1   4   4  770.12   23.80
   1   4   4  735.63   23.40
   1   4   4  749.92   23.30
  -2  -4  -4  181.58    8.00
  -2  -4  -4  189.58    7.70
  -2  -4  -4  187.88    8.20
  -2  -4  -4  202.08    8.60
  -2  -4  -4  194.38    8.40
   2   4   4  175.68    7.60
   2   4   4  192.98    8.60
   2   4   4  179.68    7.50
   2   4   4  185.78    7.50
   2   4   4  169.58    8.50
   2   4   4  186.98    8.00
  -3  -4  -4 2387.86   68.19
  -3  -4  -4 2313.57   67.39
  -3  -4  -4 2497.95   70.79
  -3  -4  -4 2315.17   67.79
   3   4   4 2321.47   66.19
   3   4   4 2327.57   67.79
   3   4   4 2383.46   67.49
   3   4   4 2424.56   68.29
   3   4   4 2361.96   67.59
  -4  -4  -4  378.96   14.80
  -4  -4  -4  425.26   15.10
  -4  -4  -4  374.46   13.90
  -4  -4  -4  384.36   13.50
  -4  -4  -4  401.86   16.10
   4   4   4  389.16   15.10
   4   4   4  376.36   14.90
   4   4   4  391.86   13.90
   4   4   4  387.26   14.70
   4   4   4  390.46   13.80
  -5  -4  -4    2.80    3.90
  -5  -4  -4    7.30    2.20
  -5  -4  -4    5.00    3.90
  -5  -4  -4   -0.90    3.90
  -5  -4  -4    2.10    3.40
   5   4   4    5.80    3.50
   5   4   4    0.20    4.40
   5   4   4   -0.90    4.40
   5   4   4    2.60    2.50
   5   4   4   -0.50    3.80
  -6  -4  -4    3.10    4.90
  -6  -4  -4   -8.90    4.30
  -6  -4  -4    2.60    4.40
   6   4   4   -2.40    4.80
   6   4   4    4.80    4.80
   6   4   4    7.00    3.80
   6   4   4   -0.90    2.50
   6   4   4   -7.70    5.30
  -7  -4  -4    6.30    5.30
  -7  -4  -4   -6.60    6.10
   7   4   4    0.60    7.40
   7   4   4   -2.90    6.30
   7   4   4    6.30    6.30
   7   4   4    4.00    4.60
  -8  -4  -4    4.00    6.40
  -8  -4  -4    1.30    8.70
  -8  -4  -4   -3.30    5.80
   8   4   4    1.10    6.70
   8   4   4   -1.90    7.50
   8   4   4  -10.40    8.80
   6  -5  -4   15.30    5.40
  -6   5   4   15.70    4.10
  -6   5   4   24.20    3.20
  -6   5   4   27.30    7.30
  -6   5   4   19.10    7.30
  -6   5   4   21.20    2.50
  -6   5   4   26.90    9.00
   5  -5  -4   86.99    8.70
  -5   5   4   72.99    5.30
  -5   5   4   83.39    9.70
  -5   5   4   79.59    7.90
  -5   5   4   79.49   10.20
  -5   5   4   77.29    4.60
   4  -5  -4  212.78   11.10
   4  -5  -4  197.68    7.30
   4  -5  -4  202.48    6.90
  -4   5   4  197.98   11.70
  -4   5   4  198.88    7.30
  -4   5   4  202.58   12.70
  -4   5   4  184.58    7.40
  -4   5   4  212.88   10.70
   3  -5  -4  230.58    8.20
   3  -5  -4  244.98   10.60
   3  -5  -4  271.37   11.60
   3  -5  -4  228.38    7.80
  -3   5   4  228.88    7.50
  -3   5   4  242.68   11.20
  -3   5   4  221.88    8.10
  -3   5   4  239.18    9.70
  -3   5   4  228.18    8.30
  -3   5   4  228.48   11.50
   2  -5  -4  139.59    5.60
   2  -5  -4  142.39    6.00
   2  -5  -4  138.09    7.80
   2  -5  -4  146.79    8.60
  -2   5   4  142.59    5.90
  -2   5   4  139.79    8.40
  -2   5   4  140.89    5.70
  -2   5   4  131.99    7.30
  -2   5   4  140.99    6.10
   1  -5  -4  161.08    6.50
   1  -5  -4  164.38    7.00
   1  -5  -4  167.28    8.70
   1  -5  -4  162.58    8.50
   1  -5  -4  172.28    6.30
  -1   5   4  169.58    6.80
  -1   5   4  181.38    5.90
  -1   5   4  162.98    6.90
  -1   5   4  158.68    8.80
  -1   5   4  168.18    6.60
   0  -5  -4  547.95   17.10
   0  -5  -4  526.45   18.30
   0  -5  -4  550.44   17.50
   0  -5  -4  554.74   16.90
   0   5   4  551.94   17.50
   0   5   4  544.35   15.40
   0   5   4  525.85   18.70
   0   5   4  560.34   18.80
  -1  -5  -4  831.82   26.70
  -1  -5  -4  827.12   24.80
  -1  -5  -4  843.92   25.50
  -1  -5  -4  821.42   25.80
   1   5   4  816.22   26.40
   1   5   4  821.92   24.80
   1   5   4  836.92   25.70
   1   5   4  805.42   25.70
   1   5   4  820.02   25.50
  -2  -5  -4  218.28    8.90
  -2  -5  -4  231.18   10.40
  -2  -5  -4  207.48    9.70
  -2  -5  -4  212.68    9.70
  -2  -5  -4  233.28    9.70
   2   5   4  219.48   12.10
   2   5   4  212.88   10.00
   2   5   4  208.78    8.30
   2   5   4  220.38    8.90
   2   5   4  213.78    9.90
   2   5   4  217.28    8.90
  -3  -5  -4 1370.06   39.20
  -3  -5  -4 1302.07   39.50
  -3  -5  -4 1332.47   39.90
  -3  -5  -4 1319.47   40.00
  -3  -5  -4 1336.77   40.50
   3   5   4 1334.97   39.10
   3   5   4 1304.17   39.70
   3   5   4 1291.77   39.20
   3   5   4 1338.17   40.20
   3   5   4 1296.07   38.10
   3   5   4 1315.97   39.70
  -4  -5  -4   -1.30    3.00
  -4  -5  -4    1.90    2.10
  -4  -5  -4    3.10    3.40
  -4  -5  -4    0.00    2.80
  -4  -5  -4    2.80    3.60
   4   5   4    0.10    2.80
   4   5   4    5.00    3.60
   4   5   4   -3.70    3.30
   4   5   4   -0.40    3.90
   4   5   4   -3.00    2.90
  -5  -5  -4  322.17   16.50
  -5  -5  -4  359.96   15.70
  -5  -5  -4  323.27   13.60
  -5  -5  -4  346.67   14.90
  -5  -5  -4  338.07   12.80
   5   5   4  352.46   13.80
   5   5   4  344.07   13.20
   5   5   4  347.17   14.70
   5   5   4  345.87   15.50
   5   5   4  342.67   15.40
  -6  -5  -4   11.10    4.70
  -6  -5  -4   27.00    5.70
  -6  -5  -4    7.80    2.70
  -6  -5  -4    0.80    5.20
   6   5   4   13.80    5.90
   6   5   4   16.10    5.60
   6   5   4   18.70    5.40
   6   5   4   12.70    3.40
  -7  -5  -4   98.39   10.90
  -7  -5  -4   61.29    7.30
  -7  -5  -4   75.89   11.60
  -7  -5  -4   84.09   11.20
   7   5   4   85.69    9.70
   7   5   4   74.69    9.50
   7   5   4   72.09   11.20
   7   5   4   65.09   10.50
  -8  -5  -4   14.70    7.70
  -8  -5  -4   -3.20    5.10
  -8  -5  -4  -10.80    6.60
   8   5   4   -5.40    7.80
   8   5   4  -11.70    8.90
   6  -6  -4   19.40    5.80
  -6   6   4   20.70    2.90
  -6   6   4   30.00    7.90
  -6   6   4   21.90    5.30
  -6   6   4   22.00    8.30
  -6   6   4   24.20    3.10
   5  -6  -4   13.50    5.40
  -5   6   4   28.50    8.30
  -5   6   4    6.50    6.10
  -5   6   4   16.90    5.10
  -5   6   4   18.80    2.90
  -5   6   4   19.90    2.90
   4  -6  -4  189.38   11.60
   4  -6  -4  196.08    7.40
   4  -6  -4  196.38    7.70
  -4   6   4  206.68   12.30
  -4   6   4  200.48    7.90
  -4   6   4  196.98   11.30
  -4   6   4  197.78    7.70
   3  -6  -4   18.90    5.00
   3  -6  -4   15.50    4.00
   3  -6  -4   22.70    2.90
  -3   6   4   20.50    2.60
  -3   6   4   18.80    2.90
  -3   6   4   18.50    4.50
   2  -6  -4  490.95   16.10
   2  -6  -4  496.25   18.60
   2  -6  -4  488.85   24.10
   2  -6  -4  487.15   15.60
  -2   6   4  498.65   15.90
  -2   6   4  498.65   18.60
  -2   6   4  501.15   15.70
   1  -6  -4   14.30    3.60
   0  -6  -4  186.08    7.60
   0  -6  -4  178.78    9.40
   0  -6  -4  170.28    9.30
   0  -6  -4  184.78    7.50
   0  -6  -4  192.38    8.40
   0   6   4  193.78    7.80
   0   6   4  195.58   10.00
   0   6   4  187.48    8.30
  -1  -6  -4  477.25   17.30
  -1  -6  -4  481.05   16.00
  -1  -6  -4  454.95   15.30
  -1  -6  -4  476.35   16.30
   1   6   4  462.55   13.50
   1   6   4  490.85   17.90
   1   6   4  443.46   16.10
   1   6   4  448.16   17.30
   1   6   4  460.75   16.50
  -2  -6  -4    2.80    2.90
  -2  -6  -4    4.00    2.80
  -2  -6  -4    3.70    2.60
  -2  -6  -4    4.80    5.90
   2   6   4    6.90    3.20
   2   6   4    4.30    2.80
   2   6   4    7.20    3.50
   2   6   4    6.50    2.20
   2   6   4    6.50    3.50
   2   6   4    2.50    2.40
  -3  -6  -4    8.90    5.40
  -3  -6  -4   15.70    4.00
  -3  -6  -4   18.40    3.50
  -3  -6  -4   16.40    3.50
  -3  -6  -4   20.90    4.50
   3   6   4   15.10    2.80
   3   6   4   12.70    4.20
   3   6   4   12.50    3.80
   3   6   4   14.40    3.40
   3   6   4   10.70    3.20
  -4  -6  -4  127.99    8.90
  -4  -6  -4  147.79    9.70
  -4  -6  -4  161.28    9.30
  -4  -6  -4  150.58    8.30
  -4  -6  -4  152.68    8.40
   4   6   4  124.29    9.70
   4   6   4  145.19    9.10
   4   6   4  150.48    8.40
   4   6   4  142.79    6.10
   4   6   4  147.49    8.80
   4   6   4  136.69    8.70
  -5  -6  -4    3.20    4.60
  -5  -6  -4    6.90    3.00
  -5  -6  -4    2.60    3.80
  -5  -6  -4    6.10    4.00
  -5  -6  -4   11.00    4.70
   5   6   4    2.30    3.80
   5   6   4    8.70    4.60
   5   6   4    0.60    5.20
   5   6   4    9.50    4.30
   5   6   4    8.00    3.80
  -6  -6  -4  118.39    9.10
  -6  -6  -4  113.69   10.40
  -6  -6  -4   91.39   11.10
  -6  -6  -4  102.39   10.40
  -6  -6  -4   94.39    7.30
   6   6   4   83.29   11.00
   6   6   4   99.09   11.10
   6   6   4  126.39   10.40
   6   6   4  107.49    8.10
   6   6   4   99.39    9.10
  -7  -6  -4   10.00    5.10
  -7  -6  -4    7.90    7.40
  -7  -6  -4   20.20    6.70
  -7  -6  -4   27.00    7.30
   7   6   4   -2.40    6.90
   7   6   4   16.70    9.10
   7   6   4    9.00    6.10
   7   6   4   28.30    8.00
  -8  -6  -4   10.30    7.60
  -8  -6  -4    3.80    5.40
  -8  -6  -4   -1.00    8.40
   8   6   4    9.10    9.10
   8   6   4    9.50    8.50
   5  -7  -4    3.30    5.30
   5  -7  -4    3.80    2.30
   5  -7  -4    7.90    2.50
  -5   7   4    2.10    6.90
  -5   7   4    8.30    3.10
  -5   7   4    4.40    2.90
  -5   7   4    1.30    5.10
   4  -7  -4   97.19    8.90
   4  -7  -4   85.69    5.40
   4  -7  -4   89.59    5.90
   4  -7  -4   81.29   10.30
  -4   7   4   87.49    6.10
  -4   7   4   91.59   10.60
  -4   7   4   80.99    9.90
  -4   7   4   91.99    5.80
   3  -7  -4   26.10    5.70
   3  -7  -4   32.10    4.30
   3  -7  -4   33.70    4.80
   3  -7  -4   27.40    5.30
  -3   7   4   30.80    3.60
  -3   7   4   17.50    5.20
  -3   7   4   27.20    3.20
   2  -7  -4  299.47   13.60
   2  -7  -4  278.67   11.30
   2  -7  -4  290.77   11.60
   2  -7  -4  275.37   13.70
  -2   7   4  286.87   14.00
  -2   7   4  290.27   11.10
  -2   7   4  302.47   10.80
   1  -7  -4   68.49    7.80
   1  -7  -4   79.59    6.00
   1  -7  -4   80.99    7.50
   1  -7  -4   80.79    4.10
   1  -7  -4   83.39    5.30
  -1   7   4   75.89    5.40
  -1   7   4   61.69    8.40
  -1   7   4   74.49    5.70
   0  -7  -4    2.20    3.50
   0  -7  -4    1.70    1.90
   0  -7  -4   -1.60    2.30
   0  -7  -4   -2.50    3.00
   0  -7  -4    2.70    2.60
   0   7   4   -1.10    3.60
   0   7   4   -2.50    2.20
   0   7   4    1.00    2.60
  -1  -7  -4   10.70    2.70
  -1  -7  -4   18.30    4.10
  -1  -7  -4   18.00    3.20
   1   7   4   13.20    3.70
   1   7   4   12.30    3.60
   1   7   4   16.90    4.50
  -2  -7  -4   45.70    6.20
  -2  -7  -4   50.89    6.80
  -2  -7  -4   41.80    5.20
  -2  -7  -4   46.90    6.00
   2   7   4   47.70    6.90
   2   7   4   40.30    5.30
   2   7   4   50.69    6.20
   2   7   4   41.30    5.30
   2   7   4   47.80    3.90
  -3  -7  -4  357.66   15.00
  -3  -7  -4  343.17   14.40
  -3  -7  -4  351.86   13.50
  -3  -7  -4  341.67   14.20
   3   7   4  320.37   12.70
   3   7   4  350.76   14.30
   3   7   4  344.87   14.80
   3   7   4  352.16   14.90
   3   7   4  329.57   12.60
  -4  -7  -4  179.38   11.20
  -4  -7  -4  172.38   10.70
  -4  -7  -4  181.68    9.60
  -4  -7  -4  191.98   10.80
  -4  -7  -4  170.98   10.00
   4   7   4  183.28    9.60
   4   7   4  174.88    9.70
   4   7   4  170.48   11.00
   4   7   4  181.88    7.80
   4   7   4  190.08   10.90
   4   7   4  189.28   10.80
  -5  -7  -4    5.70    4.80
  -5  -7  -4    0.60    3.30
  -5  -7  -4   -0.80    3.80
  -5  -7  -4   16.70    5.40
   5   7   4    6.30    5.80
   5   7   4    2.80    4.80
   5   7   4    9.90    4.50
   5   7   4   -2.00    4.00
   5   7   4    6.40    4.50
  -6  -7  -4   85.59    8.00
  -6  -7  -4   79.89    8.70
  -6  -7  -4   78.09   11.60
  -6  -7  -4   93.39   11.20
  -6  -7  -4   86.19   10.40
   6   7   4   68.69    8.40
   6   7   4   84.49    8.70
   6   7   4   81.49   10.70
   6   7   4   76.79   10.30
   6   7   4   75.39    8.60
  -7  -7  -4    7.50    6.80
  -7  -7  -4   13.60    6.90
  -7  -7  -4   -2.80    8.80
  -7  -7  -4    6.30    5.20
   7   7   4   11.70   14.30
   7   7   4    3.60    4.40
   7   7   4    5.50    7.40
   7   7   4  -10.30    8.20
   7   7   4    3.00    8.40
  -8  -7  -4   28.90    6.80
  -8  -7  -4   35.90    9.80
  -8  -7  -4   25.10    8.00
   8   7   4   21.40   10.20
   8   7   4   25.70    9.10
   5  -8  -4   12.00    3.30
   5  -8  -4   16.60    3.50
   5  -8  -4    2.30    6.20
  -5   8   4   19.80    4.20
  -5   8   4   18.40    8.80
  -5   8   4    5.00    6.30
  -5   8   4   11.20    3.70
   4  -8  -4   26.30    6.00
   4  -8  -4   35.50    4.50
   4  -8  -4   33.50    7.10
  -4   8   4   31.50    4.20
  -4   8   4   31.60    3.90
  -4   8   4   44.70    7.90
  -4   8   4   30.40    6.40
   3  -8  -4   -7.10    5.10
   3  -8  -4    2.70    3.10
   3  -8  -4   -1.70    3.10
   3  -8  -4   -5.50    4.60
  -3   8   4   -0.70    3.00
  -3   8   4   -3.00    2.80
  -3   8   4    6.70    5.10
   2  -8  -4  321.77   15.10
   2  -8  -4  313.07   12.00
   2  -8  -4  310.87   12.70
   2  -8  -4  304.17   15.40
  -2   8   4  305.67   12.20
  -2   8   4  319.37   12.00
  -2   8   4  303.67   15.50
   1  -8  -4   53.49    3.60
   1  -8  -4   54.89    7.20
   1  -8  -4   54.69    5.60
   1  -8  -4   41.50    6.00
   1  -8  -4   51.39    5.50
  -1   8   4   47.00    6.00
  -1   8   4   49.70    6.80
  -1   8   4   57.89    5.70
   0  -8  -4   61.79    5.70
   0  -8  -4   65.39    5.00
   0  -8  -4   73.69    8.10
   0  -8  -4   53.69    7.90
   0  -8  -4   58.59    6.60
   0   8   4   71.19    6.70
   0   8   4   45.30    6.60
   0   8   4   65.89    6.00
  -1  -8  -4  239.58   12.00
  -1  -8  -4  262.57   11.80
  -1  -8  -4  234.88   10.30
  -1  -8  -4  247.78   12.90
   1   8   4  230.88   11.30
   1   8   4  227.58   13.30
   1   8   4  224.48   11.90
  -2  -8  -4  826.22   26.40
  -2  -8  -4  796.92   27.30
  -2  -8  -4  832.62   28.50
  -2  -8  -4  837.02   27.80
   2   8   4  806.72   27.20
   2   8   4  850.71   26.60
   2   8   4  810.92   27.40
   2   8   4  850.51   27.90
   2   8   4  814.72   28.50
  -3  -8  -4   40.10    5.60
  -3  -8  -4   47.60    6.10
  -3  -8  -4   43.20    5.90
  -3  -8  -4   34.30    4.60
   3   8   4   40.10    6.00
   3   8   4   39.60    6.20
   3   8   4   38.80    5.70
   3   8   4   56.39    8.70
   3   8   4   46.80    6.60
   3   8   4   49.70    5.20
  -4  -8  -4   -2.00    4.40
  -4  -8  -4    0.00    3.80
  -4  -8  -4   -1.60    3.90
  -4  -8  -4   -2.40    4.40
   4   8   4    6.10    4.90
   4   8   4   -0.90    4.80
   4   8   4   -2.30    3.90
   4   8   4    2.80    3.80
   4   8   4    0.20    2.80
   4   8   4   -2.40    4.30
  -5  -8  -4  178.38   13.20
  -5  -8  -4  171.18   12.10
  -5  -8  -4  182.38   11.10
  -5  -8  -4  157.78   10.30
  -5  -8  -4  179.98   12.30
   5   8   4  165.88   10.90
   5   8   4  148.49    6.80
   5   8   4  164.18   11.10
   5   8   4  172.78   11.50
   5   8   4  174.38   11.90
   5   8   4  155.18   12.60
  -6  -8  -4   27.40    6.90
  -6  -8  -4   18.50    5.50
  -6  -8  -4   17.10    6.40
  -6  -8  -4    9.50    4.70
  -6  -8  -4   13.00    7.20
   6   8   4    5.80    5.70
   6   8   4    9.10    6.40
   6   8   4   16.80    7.40
   6   8   4   20.50    6.70
   6   8   4   26.00    5.90
  -7  -8  -4    7.40    5.10
  -7  -8  -4   22.20    7.90
  -7  -8  -4   11.50    8.70
  -7  -8  -4   21.70    6.60
   7   8   4   21.50    5.80
   7   8   4   21.50    8.60
   4  -9  -4    2.40    6.70
   4  -9  -4    2.40    4.30
   4  -9  -4    7.00    5.70
   4  -9  -4    0.30    8.20
  -4   9   4   -0.40    7.50
  -4   9   4    2.10    7.80
  -4   9   4   -0.90    3.70
  -4   9   4   -0.50    4.00
   3  -9  -4   19.40    7.20
   3  -9  -4   13.40    4.20
   3  -9  -4   27.90    6.80
   3  -9  -4   17.10    4.30
  -3   9   4   23.50    4.30
  -3   9   4   18.20    6.10
  -3   9   4   18.50    4.40
   2  -9  -4  224.38   13.80
   2  -9  -4  194.28   11.00
   2  -9  -4  230.38   14.20
   2  -9  -4  204.28   10.30
  -2   9   4  212.48   14.20
  -2   9   4  217.58   10.30
  -2   9   4  212.98   10.60
   1  -9  -4    4.90    3.80
   1  -9  -4    0.00    5.30
   1  -9  -4    4.00    5.00
   1  -9  -4    5.80    1.70
   1  -9  -4    0.90    3.30
  -1   9   4    8.00    5.40
  -1   9   4   -0.30    3.50
  -1   9   4    2.10    3.60
   0  -9  -4   63.89    6.70
   0  -9  -4   62.49    8.80
   0  -9  -4   73.19    7.80
   0  -9  -4   67.49    5.70
   0  -9  -4   53.19    7.20
   0   9   4   65.19    6.90
   0   9   4   71.29    7.60
   0   9   4   46.30    7.20
  -1  -9  -4   66.39    9.30
  -1  -9  -4   68.59    6.60
  -1  -9  -4   51.59    6.60
  -1  -9  -4   67.59    7.90
   1   9   4   46.90    6.90
   1   9   4   64.89    9.20
   1   9   4   55.19    8.00
   1   9   4   63.49    8.10
  -2  -9  -4    5.90    4.40
  -2  -9  -4    3.80    3.50
  -2  -9  -4    3.10    3.80
  -2  -9  -4   11.70    4.80
   2   9   4   -0.30    5.00
   2   9   4    7.20    4.80
   2   9   4    9.70    4.50
  -3  -9  -4   22.20    4.50
  -3  -9  -4   33.70    6.00
  -3  -9  -4   31.10    5.60
  -3  -9  -4   23.20    5.50
   3   9   4   28.20    5.00
   3   9   4   27.10    6.20
   3   9   4   25.60    6.40
   3   9   4   32.10    4.90
   3   9   4   39.20    6.50
  -4  -9  -4   23.00    5.10
  -4  -9  -4   23.90    5.80
  -4  -9  -4   17.40    5.20
  -4  -9  -4   26.00    5.90
   4   9   4   21.70    6.40
   4   9   4   21.80    4.40
   4   9   4   24.80    6.80
   4   9   4   22.20    5.20
   4   9   4   32.90    6.60
  -5  -9  -4    7.60    5.30
  -5  -9  -4    2.80    6.00
  -5  -9  -4    5.70    4.90
  -5  -9  -4    0.50    6.20
   5   9   4    5.60    2.80
   5   9   4   -1.00    5.80
   5   9   4    9.80    6.80
   5   9   4    0.90    6.20
   5   9   4   -1.60    5.00
   5   9   4   11.00    5.60
  -6  -9  -4    3.40    7.30
  -6  -9  -4    0.70    6.10
  -6  -9  -4   -7.30    7.30
  -6  -9  -4   -4.30    4.70
  -6  -9  -4    5.60    5.10
   6   9   4    4.40    6.20
   6   9   4   13.50   11.40
   6   9   4   17.20    6.50
   6   9   4   -0.60    5.70
  -7  -9  -4   -2.50    6.20
  -7  -9  -4   -4.60    5.80
  -7  -9  -4    1.90   10.10
  -7  -9  -4    4.20    7.50
   7   9   4    6.80    9.90
   7   9   4    4.10    9.10
   7   9   4    3.50    6.30
   3 -10  -4  101.39   15.30
   3 -10  -4   77.39    8.20
   3 -10  -4   91.39   10.70
   3 -10  -4   60.69    9.80
  -3  10   4   70.19    8.30
  -3  10   4   54.29    6.40
  -3  10   4   70.99    9.70
   2 -10  -4    5.00    5.20
   2 -10  -4   10.00    7.60
   2 -10  -4    4.20    6.60
   2 -10  -4    5.80    4.50
  -2  10   4    6.80    6.30
  -2  10   4    9.40    4.40
  -2  10   4    0.90    4.20
   1 -10  -4   70.59    3.60
   1 -10  -4   62.89    7.50
   1 -10  -4   84.49    9.20
   1 -10  -4   78.69   10.90
   1 -10  -4   82.69   11.50
  -1  10   4   67.69   10.00
  -1  10   4   64.09    8.80
  -1  10   4   70.09    8.10
   0 -10  -4  146.79    7.70
   0 -10  -4  133.79   12.40
   0 -10  -4  144.79   10.60
   0 -10  -4  125.89   11.80
   0 -10  -4  147.59    9.20
   0  10   4  139.29    9.90
   0  10   4  141.49   12.10
  -1 -10  -4   43.10    6.10
  -1 -10  -4   45.80    5.70
  -1 -10  -4   40.80    7.00
  -1 -10  -4   60.89    7.00
   1  10   4   39.80    6.90
   1  10   4   48.10    6.60
   1  10   4   45.60    8.20
  -2 -10  -4   43.00    5.80
  -2 -10  -4   32.40    6.60
  -2 -10  -4   31.80    5.90
  -2 -10  -4   29.20    5.30
   2  10   4   43.90    6.50
   2  10   4   39.10    7.60
   2  10   4   29.90    6.00
  -3 -10  -4   82.99   10.00
  -3 -10  -4   90.19   10.00
  -3 -10  -4  111.39   10.90
  -3 -10  -4  101.79    9.10
   3  10   4   78.49    9.30
   3  10   4   91.29   11.60
   3  10   4   86.09   11.50
   3  10   4   76.89   11.10
   3  10   4   89.29    9.50
  -4 -10  -4  265.07   15.60
  -4 -10  -4  286.77   16.10
  -4 -10  -4  253.97   13.60
  -4 -10  -4  256.97   15.40
   4  10   4  260.97   15.70
   4  10   4  303.77   14.50
   4  10   4  258.07   16.00
   4  10   4  258.07   13.00
  -5 -10  -4   66.99    8.70
  -5 -10  -4   66.29    9.30
  -5 -10  -4   57.19    9.40
  -5 -10  -4   51.29    8.80
   5  10   4   54.69    9.80
   5  10   4   51.39    8.60
   5  10   4   66.29   12.50
   5  10   4   55.79    8.30
   5  10   4   64.59    8.80
   5  10   4   59.89    6.80
  -6 -10  -4    8.10   11.00
  -6 -10  -4   13.00    6.80
  -6 -10  -4    5.60    5.90
   6  10   4   16.10    8.50
   6  10   4   10.10    7.00
   2 -11  -4   15.10    7.10
   2 -11  -4   25.00    5.60
  -2  11   4   31.90    8.90
  -2  11   4   31.90    5.60
  -2  11   4   26.80    6.30
   1 -11  -4   14.00    7.70
   1 -11  -4    4.00    4.50
  -1  11   4   15.70    5.20
  -1  11   4   -3.80    7.10
   0 -11  -4  108.29    9.60
   0 -11  -4  102.39   18.60
   0 -11  -4  107.39   11.80
   0 -11  -4   78.29   12.70
   0 -11  -4  118.79    7.30
   0  11   4  122.49   13.00
   0  11   4   92.89   10.40
   0  11   4  133.79   10.70
  -1 -11  -4    4.90    6.30
  -1 -11  -4    0.70    4.80
  -1 -11  -4   -1.40    6.80
   1  11   4    3.40    5.20
   1  11   4   -1.00    6.70
   1  11   4    3.20    6.90
  -2 -11  -4   36.30    8.60
  -2 -11  -4   23.90    5.60
  -2 -11  -4   25.90    5.90
  -2 -11  -4   37.40    7.00
   2  11   4   34.00    7.90
   2  11   4   21.30    6.00
   2  11   4   25.30    8.20
  -3 -11  -4   -4.20    7.30
  -3 -11  -4   -0.20    5.90
  -3 -11  -4    7.70    6.70
  -3 -11  -4   -4.40    4.90
   3  11   4    1.90    5.70
   3  11   4   -1.30    6.70
   3  11   4  -12.70    7.00
   3  11   4    9.40    6.10
   3  11   4   -1.90    5.70
  -4 -11  -4   24.30    7.90
  -4 -11  -4   14.60    7.50
  -4 -11  -4   14.30    7.10
   4  11   4   42.20    7.50
   4  11   4   27.10    7.50
   4  11   4   32.50    6.10
   4  11   4   25.00    7.60
  -5 -11  -4  199.28   13.70
  -5 -11  -4  204.68   17.40
   5  11   4  216.08   16.70
   5  11   4  241.98   16.80
   5  11   4  222.98   11.60
   0 -12  -4   -0.40    5.10
   0 -12  -4    6.50    3.90
   0 -12  -4    0.90    6.90
   0  12   4    1.10    8.00
   0  12   4   10.50    7.40
   0  12   4   -3.70    5.70
  -1 -12  -4   30.00    6.00
  -1 -12  -4   28.20    7.80
  -1 -12  -4   26.70    5.60
   1  12   4   25.40    8.70
   1  12   4   20.80    6.70
  -2 -12  -4   -0.10    5.50
  -2 -12  -4   -0.80    5.70
   2  12   4   -1.70    8.00
   2  12   4    4.60    8.90
   2  12   4   -8.80    5.90
  -3 -12  -4   19.10    7.30
   3  12   4   21.20    8.00
   3  12   4   29.90    7.80
   3  12   4   38.10    9.70
   3  12   4   24.30    8.10
  -4 -12  -4   20.40    9.70
  -4 -12  -4    5.80    6.10
   4  12   4   25.50    7.40
   4  12   4   24.10    8.40
   4  12   4   30.10    9.40
   4  11  -5   72.79   10.00
   4  11  -5   54.89    8.20
  -4 -11   5   77.29   12.10
  -4 -11   5   59.59    8.20
  -4 -11   5   58.69   11.00
   3  11  -5    2.90    6.00
   3  11  -5    3.10    6.70
  -3 -11   5    1.20    5.70
  -3 -11   5    3.40    8.50
  -3 -11   5    1.50    5.80
   2  11  -5   -0.40   10.60
   2  11  -5    3.50    6.70
   2  11  -5    4.50    5.80
  -2 -11   5    7.00    5.10
  -2 -11   5   -1.70    6.90
  -2 -11   5   -0.20    5.80
   1  11  -5   36.40    7.70
   1  11  -5   36.60    6.90
   1  11  -5   38.20    7.60
  -1 -11   5   34.10    6.50
  -1 -11   5   31.50    5.40
   0  11  -5  136.39   11.90
   0  11  -5  134.29   13.40
   0 -11   5  138.99    9.30
   0 -11   5  151.18   12.50
  -1  11  -5   27.80    8.20
  -1  11  -5   35.60    7.00
   1 -11   5   43.30    7.70
   1 -11   5   41.60    4.80
   5  10  -5   16.70    6.70
   5  10  -5    3.40    6.90
   5  10  -5   10.20    5.00
  -5 -10   5    0.40    7.70
  -5 -10   5    3.70    7.20
  -5 -10   5   18.90    8.50
  -5 -10   5   18.00    5.80
   4  10  -5   29.40    6.90
   4  10  -5   20.80    6.20
  -4 -10   5   23.00    8.70
  -4 -10   5   24.40    7.50
  -4 -10   5   34.10    6.40
  -4 -10   5   16.60    6.50
   3  10  -5   12.20    5.60
   3  10  -5   12.70    5.90
   3  10  -5    8.80    5.50
  -3 -10   5   10.90    5.40
  -3 -10   5   16.40    5.40
  -3 -10   5    4.90    6.70
  -3 -10   5   10.30    6.10
   2  10  -5  142.29   10.80
   2  10  -5  154.48   11.20
   2  10  -5  152.28   10.90
  -2 -10   5  144.59   12.20
  -2 -10   5  131.89   10.30
  -2 -10   5  122.39   12.90
   1  10  -5  170.08   11.10
   1  10  -5  161.98   11.60
  -1 -10   5  155.68    9.60
  -1 -10   5  153.78   12.50
  -1 -10   5  138.09   11.00
  -1 -10   5  160.18   13.50
   0  10  -5   72.19    9.40
   0  10  -5   88.19    9.60
   0 -10   5   90.89   12.60
   0 -10   5   93.99    9.70
   0 -10   5   76.29    7.30
   0 -10   5   85.09   10.60
  -1  10  -5   12.50    5.70
  -1  10  -5    3.30    5.20
   1 -10   5   10.70    7.70
   1 -10   5    2.30    9.20
   1 -10   5    8.20    3.30
   1 -10   5    6.90    5.10
  -2  10  -5  171.28   12.60
  -2  10  -5  194.28   13.20
   2 -10   5  190.38   13.40
   2 -10   5  172.08   16.40
   2 -10   5  169.98    8.30
   6   9  -5   21.40    6.70
   6   9  -5   29.70    4.80
   6   9  -5   30.40    6.40
  -6  -9   5   45.10    8.50
  -6  -9   5   30.70    9.80
  -6  -9   5   27.60    6.10
  -6  -9   5   14.80    7.90
   5   9  -5   12.90    5.30
   5   9  -5    8.90    4.50
   5   9  -5    9.50    5.50
   5   9  -5   16.20    5.80
  -5  -9   5   15.00    7.10
  -5  -9   5    8.30    6.50
  -5  -9   5   29.30    7.70
  -5  -9   5   13.50    5.10
   4   9  -5   53.09    6.60
   4   9  -5   51.79    6.90
   4   9  -5   44.20    6.30
  -4  -9   5   52.09    7.30
  -4  -9   5   80.79   10.10
  -4  -9   5   47.90    7.50
  -4  -9   5   62.89    9.00
   3   9  -5   39.20    5.80
   3   9  -5   46.20    7.50
   3   9  -5   38.20    5.40
  -3  -9   5   48.80    6.70
  -3  -9   5   40.20    6.00
  -3  -9   5   36.00    7.40
  -3  -9   5   38.10    5.70
   2   9  -5    5.10    4.50
   2   9  -5    9.80    4.10
   2   9  -5   11.50    4.60
  -2  -9   5   13.00    5.80
  -2  -9   5    8.00    4.70
  -2  -9   5   12.40    5.00
  -2  -9   5    1.80    4.90
   1   9  -5   32.00    5.40
   1   9  -5   23.70    4.80
   1   9  -5   35.80    5.50
  -1  -9   5   28.20    6.20
  -1  -9   5   29.40    4.60
  -1  -9   5   39.10    5.80
  -1  -9   5   40.10    6.10
   0   9  -5  233.28   12.50
   0   9  -5  254.67   12.20
   0  -9   5  238.08   14.00
   0  -9   5  241.28   12.60
   0  -9   5  233.68   13.00
   0  -9   5  235.98   10.80
  -1   9  -5   78.39    8.70
  -1   9  -5   73.19   11.30
   1  -9   5   96.79   11.10
   1  -9   5  106.49    9.90
   1  -9   5  121.89    9.70
   1  -9   5  100.99    6.80
  -2   9  -5   -1.40    4.40
  -2   9  -5    1.20    4.90
   2  -9   5    4.80    5.10
   2  -9   5    7.60    5.00
   2  -9   5    3.40    2.90
   2  -9   5    7.20    6.20
  -3   9  -5   38.50    4.90
  -3   9  -5   35.60    6.40
  -3   9  -5   32.90    7.00
   3  -9   5   26.80    6.40
   3  -9   5   16.00    7.00
  -4   9  -5    0.00    5.70
   4  -9   5    9.80    7.90
   7   8  -5   15.80    7.50
   7   8  -5    3.80    5.70
   7   8  -5    2.30    9.30
  -7  -8   5   15.20    7.50
  -7  -8   5   -2.40    7.10
  -7  -8   5    5.10    6.50
  -7  -8   5    9.60    5.40
   6   8  -5   31.00    6.00
   6   8  -5   32.90    4.50
   6   8  -5   44.10    6.80
   6   8  -5   26.10    9.30
   6   8  -5   41.80    6.30
  -6  -8   5   28.40    6.90
  -6  -8   5   41.20    7.50
  -6  -8   5   22.30    8.90
  -6  -8   5   37.60    5.70
   5   8  -5   42.10    6.00
   5   8  -5   41.20    5.20
   5   8  -5   44.70    6.30
   5   8  -5   60.79    8.30
  -5  -8   5   52.99    7.90
  -5  -8   5   40.80    7.00
  -5  -8   5   46.60    8.70
   4   8  -5  159.98    9.70
   4   8  -5  140.89    9.80
   4   8  -5  154.98    9.80
  -4  -8   5  141.89    9.50
  -4  -8   5  150.58   11.10
  -4  -8   5  130.89   11.30
  -4  -8   5  148.49   11.20
   3   8  -5    5.50    3.60
   3   8  -5    0.80    3.30
   3   8  -5   -2.00    3.60
  -3  -8   5   13.50    4.70
  -3  -8   5    1.30    3.80
  -3  -8   5    9.90    4.80
  -3  -8   5    6.00    4.30
   2   8  -5   -4.80    3.10
   2   8  -5   -3.50    3.60
   2   8  -5    2.50    3.30
  -2  -8   5   -0.50    3.60
  -2  -8   5    0.20    4.10
  -2  -8   5    2.70    3.80
  -2  -8   5   -1.70    3.60
   1   8  -5    0.40    3.60
   1   8  -5    5.90    3.60
   1   8  -5   -0.70    3.00
  -1  -8   5   -2.60    4.10
  -1  -8   5    0.60    2.90
  -1  -8   5   -2.30    3.40
  -1  -8   5   -4.40    3.50
   0   8  -5   18.90    4.30
   0   8  -5    6.50    3.90
   0  -8   5   20.30    4.50
   0  -8   5   17.10    3.40
   0  -8   5   18.00    4.80
   0  -8   5   13.20    4.30
  -1   8  -5  125.79    8.30
  -1   8  -5  111.29    8.50
   1  -8   5  128.79    9.00
   1  -8   5  113.49    8.70
   1  -8   5  106.19    6.80
   1  -8   5  102.19   10.20
  -2   8  -5    1.20    4.00
  -2   8  -5   -1.50    3.90
   2  -8   5   -5.40    4.60
   2  -8   5   -7.80    3.70
   2  -8   5    0.80    2.60
   2  -8   5    3.50    4.00
  -3   8  -5   22.50    2.80
  -3   8  -5   23.80    5.20
  -3   8  -5   14.40    5.00
   3  -8   5   18.00    6.10
   3  -8   5    9.50    5.20
   3  -8   5   21.20    3.00
   3  -8   5   18.00    5.80
  -4   8  -5  152.98   11.80
  -4   8  -5  149.39   11.50
   4  -8   5  167.48   12.90
   4  -8   5  129.19   12.50
   4  -8   5  145.89   12.70
   7   7  -5   22.30    8.50
   7   7  -5   26.00    6.80
   7   7  -5   18.70    6.70
   7   7  -5   25.80    5.50
  -7  -7   5   16.20    6.90
  -7  -7   5   10.50    4.70
  -7  -7   5   15.80    7.10
  -7  -7   5    5.80    6.10
   6   7  -5   59.19    6.50
   6   7  -5   83.79    8.60
   6   7  -5   68.69    8.80
   6   7  -5   72.19    8.40
   6   7  -5   76.19   10.50
  -6  -7   5   59.19    7.30
  -6  -7   5   63.99    9.50
  -6  -7   5   77.99    8.30
  -6  -7   5   96.09   12.50
  -6  -7   5   71.79    9.20
   5   7  -5   75.89    7.60
   5   7  -5   66.39    7.40
   5   7  -5   77.19    7.60
   5   7  -5   60.99    6.40
  -5  -7   5   69.39   10.30
  -5  -7   5   69.59    9.20
  -5  -7   5   66.79    7.40
  -5  -7   5   65.29    8.80
   4   7  -5  241.88   11.10
   4   7  -5  236.68   11.30
   4   7  -5  244.48   11.10
   4   7  -5  252.97   11.50
  -4  -7   5  241.58   11.20
  -4  -7   5  235.78   12.40
  -4  -7   5  244.48   13.00
  -4  -7   5  245.88   13.30
   3   7  -5   51.59    6.50
   3   7  -5   42.00    5.70
   3   7  -5   55.09    5.90
  -3  -7   5   53.09    7.10
  -3  -7   5   48.30    6.10
  -3  -7   5   46.50    5.70
  -3  -7   5   39.70    5.70
   2   7  -5   64.99    6.10
   2   7  -5   67.69    7.00
   2   7  -5   73.09    6.40
  -2  -7   5   67.59    7.90
  -2  -7   5   76.69    6.70
   1   7  -5 1628.34   48.00
   1   7  -5 1612.24   47.90
   1   7  -5 1574.94   47.70
  -1  -7   5 1679.23   49.90
  -1  -7   5 1606.94   48.40
  -1  -7   5 1564.24   47.80
   0   7  -5    5.00    3.40
   0   7  -5    1.60    3.50
   0  -7   5    8.60    3.90
   0  -7   5    7.70    4.00
   0  -7   5    6.60    3.00
   0  -7   5    4.50    3.70
  -1   7  -5  943.51   30.70
  -1   7  -5  972.60   30.50
   1  -7   5  977.10   32.20
   1  -7   5  933.31   29.30
   1  -7   5  978.40   30.80
   1  -7   5  981.60   30.80
  -2   7  -5   69.19    7.30
  -2   7  -5   81.79    6.80
   2  -7   5   61.29    7.10
   2  -7   5   54.69    8.10
   2  -7   5   56.09    5.30
   2  -7   5   65.89    7.30
  -3   7  -5    5.50    3.90
  -3   7  -5    2.80    1.80
  -3   7  -5   10.50    4.10
   3  -7   5    6.50    4.60
   3  -7   5    4.00    4.60
   3  -7   5    4.00    2.80
   3  -7   5    3.40    3.80
  -4   7  -5   -0.60    4.30
  -4   7  -5    1.60    4.40
   4  -7   5    1.10    4.90
   4  -7   5   -2.40    4.50
   4  -7   5   -1.80    4.80
   4  -7   5   -1.30    5.70
  -5   7  -5   -4.70    5.10
  -5   7  -5   10.90    5.80
  -5   7  -5    4.20    6.40
   5  -7   5    5.60    7.40
   5  -7   5    1.70    6.30
   5  -7   5    0.60    4.80
   5  -7   5    0.20    5.20
   7   6  -5    9.90    8.60
   7   6  -5   14.50    4.60
   7   6  -5   11.40    4.90
   7   6  -5   10.70    5.90
  -7  -6   5   15.70   13.30
  -7  -6   5   11.80    5.90
  -7  -6   5    7.60    4.20
  -7  -6   5    7.50    5.40
  -7  -6   5    6.30    5.30
   6   6  -5   16.30    4.60
   6   6  -5   13.10    4.10
   6   6  -5   10.00    4.00
   6   6  -5    7.50    3.40
  -6  -6   5    9.70    4.80
  -6  -6   5   12.60    4.70
  -6  -6   5    6.90    4.20
  -6  -6   5   10.30    3.90
  -6  -6   5    6.00    6.50
   5   6  -5   51.69    6.30
   5   6  -5   58.49    5.90
   5   6  -5   67.89    6.60
   5   6  -5   53.89    7.90
  -5  -6   5   62.39    7.20
  -5  -6   5   59.89    6.40
  -5  -6   5   48.10    6.30
  -5  -6   5   61.59    9.30
  -5  -6   5   61.09    7.50
   4   6  -5    5.40    3.40
   4   6  -5    8.70    3.10
   4   6  -5   12.40    3.30
   4   6  -5   10.60    3.30
  -4  -6   5   13.30    4.60
  -4  -6   5    6.30    3.70
  -4  -6   5    3.00    3.70
  -4  -6   5    9.90    3.30
   3   6  -5  285.77   11.30
   3   6  -5  267.17   12.50
   3   6  -5  268.67   10.90
  -3  -6   5  262.97   17.20
  -3  -6   5  267.47   12.60
  -3  -6   5  262.77   11.00
  -3  -6   5  273.27   12.00
   2   6  -5  118.19    7.20
   2   6  -5  124.29    7.00
   2   6  -5  121.09    6.70
  -2  -6   5  121.89    7.50
  -2  -6   5  122.69    8.60
  -2  -6   5  129.19    7.30
   1   6  -5  152.28   10.50
   1   6  -5  144.49    7.30
   1   6  -5  138.69    7.70
  -1  -6   5  124.09    8.80
  -1  -6   5  139.39    7.90
  -1  -6   5  134.69    7.50
   0   6  -5    0.30    3.10
   0   6  -5   -3.10    2.70
   0  -6   5    1.20    2.30
   0  -6   5   -2.60    3.30
   0  -6   5   -2.80    2.70
   0  -6   5    0.00    3.20
  -1   6  -5  420.76   15.60
  -1   6  -5  416.06   15.90
   1  -6   5  361.56   18.00
   1  -6   5  410.16   14.40
   1  -6   5  426.26   15.60
   1  -6   5  441.26   15.60
  -2   6  -5   -5.30    3.30
   2  -6   5   -3.50    3.30
   2  -6   5   -3.90    4.10
   2  -6   5   -0.20    3.00
  -3   6  -5  175.98    9.90
  -3   6  -5  190.08   10.30
   3  -6   5  153.18   12.00
   3  -6   5  185.98    9.90
   3  -6   5  161.98   10.10
   3  -6   5  170.88    8.10
  -4   6  -5    1.90    4.30
  -4   6  -5    0.10    3.80
   4  -6   5   -4.20    3.90
   4  -6   5   -2.00    4.60
  -5   6  -5   -5.90    5.20
  -5   6  -5   -0.90    4.70
  -5   6  -5    9.40    5.20
   5  -6   5   -1.90    4.20
   5  -6   5    3.50    4.30
   5  -6   5    8.40    5.80
   5  -6   5    7.50    5.30
   5  -6   5  -10.00    6.60
  -6   6  -5   -1.00    7.50
  -6   6  -5   -5.40    5.80
  -6   6  -5    6.30    5.80
   6  -6   5    0.30    5.20
   6  -6   5    4.50    8.30
   6  -6   5   -0.50    8.40
   6  -6   5   16.40    7.10
   8   5  -5    8.70    4.80
   8   5  -5   12.30    9.30
   8   5  -5    9.40    5.10
   8   5  -5   21.40    8.00
  -8  -5   5    9.50    6.80
  -8  -5   5   16.10    5.30
  -8  -5   5   15.00    6.20
  -8  -5   5    6.50    4.20
   7   5  -5    8.30    3.90
   7   5  -5   15.60    7.80
   7   5  -5    9.50    3.70
   7   5  -5    9.00    5.30
  -7  -5   5    9.90    4.60
  -7  -5   5   14.20    5.60
  -7  -5   5    7.00    4.70
  -7  -5   5    7.80    5.20
  -7  -5   5   11.70    8.30
   6   5  -5   49.30    8.30
   6   5  -5   49.50    6.00
   6   5  -5   54.99    7.60
   6   5  -5   48.90    6.40
  -6  -5   5   42.90    6.50
  -6  -5   5   48.50    6.20
  -6  -5   5   52.69    8.50
  -6  -5   5   51.29    6.00
  -6  -5   5   53.19    8.00
   5   5  -5   60.29    9.70
   5   5  -5   58.09    6.00
   5   5  -5   60.29    6.20
   5   5  -5   72.49   10.00
  -5  -5   5   69.99    7.00
  -5  -5   5   65.59    8.60
  -5  -5   5   66.29    5.90
  -5  -5   5   55.99    6.70
   4   5  -5 2179.98   66.99
   4   5  -5 2199.68   64.29
   4   5  -5 2288.67   63.99
   4   5  -5 2216.38   63.99
   4   5  -5 2288.57   66.19
  -4  -5   5 2226.28   64.09
  -4  -5   5 2189.08   64.89
  -4  -5   5 2289.37   65.89
  -4  -5   5 2311.47   66.99
  -4  -5   5 2221.58   64.49
   3   5  -5  162.28    7.50
   3   5  -5  157.98    8.20
   3   5  -5  160.88    7.70
   3   5  -5  150.88    8.80
  -3  -5   5  155.98    9.10
  -3  -5   5  163.38    8.30
  -3  -5   5  144.69    9.10
  -3  -5   5  155.78    7.50
   2   5  -5  367.36   12.90
   2   5  -5  391.46   13.20
   2   5  -5  381.56   13.40
  -2  -5   5  380.96   14.70
  -2  -5   5  366.16   13.60
  -2  -5   5  374.16   13.30
   1   5  -5    7.30    2.70
   1   5  -5    7.60    2.40
   1   5  -5    3.10    2.00
  -1  -5   5    4.10    2.40
  -1  -5   5    8.60    3.20
  -1  -5   5    6.40    2.50
   0   5  -5  171.78    8.10
   0   5  -5  183.08    8.00
   0  -5   5  174.58    8.10
   0  -5   5  185.88    8.30
   0  -5   5  175.28    7.80
   0  -5   5  170.58    8.80
  -1   5  -5 2030.30   59.69
  -1   5  -5 2094.99   59.69
   1  -5   5 2152.08   60.79
   1  -5   5 2022.60   59.79
   1  -5   5 2142.39   59.89
   1  -5   5 1998.70   59.09
  -2   5  -5   10.20    3.10
  -2   5  -5    9.90    3.30
   2  -5   5    6.90    2.70
   2  -5   5    9.80    3.40
   2  -5   5    6.40    3.10
   2  -5   5    5.80    3.00
  -3   5  -5  357.16   14.20
  -3   5  -5  378.16   14.10
   3  -5   5  363.86   14.80
   3  -5   5  362.76   13.30
   3  -5   5  368.96   14.20
   3  -5   5  371.16   14.50
  -4   5  -5   58.99    4.50
  -4   5  -5   71.89    8.20
  -4   5  -5   61.29    7.10
  -4   5  -5   55.79    7.10
   4  -5   5   53.79    6.60
   4  -5   5   58.09    5.90
   4  -5   5   64.19    8.00
   4  -5   5   50.99    6.80
  -5   5  -5  192.18   10.60
  -5   5  -5  159.38   14.70
  -5   5  -5  163.48    7.60
   5  -5   5  163.88    8.50
   5  -5   5  174.18   12.00
   5  -5   5  186.48   13.70
   5  -5   5  169.58   10.50
  -6   5  -5   60.89    5.80
  -6   5  -5   82.19   12.30
  -6   5  -5   59.79    7.20
  -6   5  -5   51.89    6.70
   6  -5   5   51.89   10.80
   6  -5   5   50.79    6.70
   6  -5   5   56.39    8.10
   8   4  -5   30.30    4.80
   8   4  -5   41.80    4.80
   8   4  -5   53.49   11.30
  -8  -4   5   32.20    5.80
  -8  -4   5   48.10    8.30
  -8  -4   5   51.19    7.20
  -8  -4   5   28.20    5.60
   7   4  -5   -8.60    4.70
   7   4  -5   -3.20    3.90
   7   4  -5    2.40    3.10
   7   4  -5   -0.20    6.40
  -7  -4   5    1.60    4.20
  -7  -4   5  -16.40    7.20
  -7  -4   5    1.50    3.10
  -7  -4   5   -2.50    3.40
  -7  -4   5   -2.30    4.90
   6   4  -5  112.49    7.10
   6   4  -5  100.69    6.50
   6   4  -5  103.59    8.40
   6   4  -5  115.59   12.20
  -6  -4   5  108.19    7.70
  -6  -4   5  105.79    8.20
  -6  -4   5   97.99    8.80
  -6  -4   5   81.09   10.40
  -6  -4   5  108.29    6.90
   5   4  -5    5.40    3.00
   5   4  -5   -0.90    2.60
   5   4  -5   -0.60    2.10
   5   4  -5   -9.00    4.10
   5   4  -5   -3.80    2.80
  -5  -4   5   -0.90    2.70
  -5  -4   5   -0.20    2.30
  -5  -4   5   -8.10    4.50
  -5  -4   5   -0.40    2.90
  -5  -4   5   -1.40    2.70
   4   4  -5  305.17   11.60
   4   4  -5  284.77   11.90
   4   4  -5  314.27   11.20
   4   4  -5  321.27   14.50
   4   4  -5  302.17   11.90
  -4  -4   5  292.57   11.70
  -4  -4   5  302.67   11.20
  -4  -4   5  338.07   14.10
  -4  -4   5  292.17   12.70
  -4  -4   5  320.67   12.10
   3   4  -5  428.16   15.00
   3   4  -5  422.46   14.20
   3   4  -5  429.66   14.20
   3   4  -5  443.96   16.70
   3   4  -5  441.26   14.10
  -3  -4   5  418.66   16.30
  -3  -4   5  421.56   14.30
  -3  -4   5  421.56   14.30
  -3  -4   5  436.36   14.90
   2   4  -5  109.69    7.30
   2   4  -5  133.79    6.00
   2   4  -5  121.39    5.50
   2   4  -5  128.39    6.30
  -2  -4   5  124.99    6.40
  -2  -4   5  129.19    6.20
   1   4  -5 4770.22  132.99
   1   4  -5 5006.70  133.79
   1   4  -5 4949.90  133.59
  -1  -4   5 4610.24  133.79
  -1  -4   5 4692.63  133.49
  -1  -4   5 4840.92  133.59
   0   4  -5   12.40    2.60
   0   4  -5   14.40    2.50
   0  -4   5   15.30    2.70
   0  -4   5   15.10    2.70
   0  -4   5   13.10    2.50
  -1   4  -5    5.60    2.30
  -1   4  -5    3.70    2.30
   1  -4   5    5.10    2.00
   1  -4   5    3.20    2.30
   1  -4   5    1.90    2.40
  -2   4  -5   51.59    3.90
  -2   4  -5   48.30    5.00
   2  -4   5   52.89    4.90
   2  -4   5   50.79    4.70
   2  -4   5   52.09    5.10
   2  -4   5   53.69    5.40
  -3   4  -5   50.89    4.10
  -3   4  -5   44.80    5.10
  -3   4  -5   55.79    5.70
   3  -4   5   56.49    5.50
   3  -4   5   57.09    6.40
   3  -4   5   43.20    5.10
   3  -4   5   53.09    5.30
  -4   4  -5   98.99    5.50
  -4   4  -5  102.69    7.60
  -4   4  -5  105.99    7.00
  -4   4  -5   92.59    8.30
   4  -4   5   78.69    6.70
   4  -4   5   79.59    7.90
   4  -4   5   94.69    7.10
   4  -4   5   86.69    6.60
  -5   4  -5  101.79    6.10
  -5   4  -5   85.79    7.90
  -5   4  -5   94.59    8.20
  -5   4  -5   85.89    9.90
   5  -4   5   87.99    6.50
   5  -4   5   89.09   10.10
   5  -4   5   92.09    7.80
   5  -4   5   99.09    9.30
  -6   4  -5   10.70    4.80
  -6   4  -5   15.00    5.90
  -6   4  -5    1.90    4.50
   6  -4   5   16.40    9.10
   6  -4   5    7.80    5.70
   6  -4   5    7.30    4.80
   6  -4   5    1.80    2.50
  -7   4  -5   23.60    4.60
  -7   4  -5   15.90    6.80
  -7   4  -5   25.70    6.50
  -7   4  -5   25.10    8.40
   7  -4   5   24.50   10.40
   7  -4   5   17.60    7.40
   8   3  -5   53.59    6.50
   8   3  -5   76.19   11.10
   8   3  -5   54.09    5.30
  -8  -3   5   44.00    7.60
  -8  -3   5   50.49    6.30
  -8  -3   5   63.19    7.70
  -8  -3   5   59.89    6.60
  -8  -3   5   60.49    6.00
   7   3  -5   99.39    6.20
   7   3  -5  110.39   13.20
  -7  -3   5   96.39   12.80
  -7  -3   5  107.69   10.30
  -7  -3   5  103.89    7.80
  -7  -3   5  114.69    6.90
  -7  -3   5  117.79    7.90
   6   3  -5  135.29    6.70
   6   3  -5  131.99    6.40
   6   3  -5  115.09   12.30
   6   3  -5  144.19    9.20
  -6  -3   5  132.09    6.90
  -6  -3   5  122.19    9.20
  -6  -3   5  141.49    9.60
  -6  -3   5  125.69   11.40
  -6  -3   5  133.29    7.70
   5   3  -5   67.39    8.60
   5   3  -5   67.69    5.90
   5   3  -5   58.59    5.00
   5   3  -5   50.59    5.80
   5   3  -5   54.89    4.60
  -5  -3   5   50.49    4.50
  -5  -3   5   60.19    7.60
  -5  -3   5   48.50    6.00
  -5  -3   5   50.19    5.20
   4   3  -5  162.88    7.20
   4   3  -5  165.68    7.70
   4   3  -5  143.99    9.80
   4   3  -5  156.88    8.10
  -4  -3   5  172.28    7.00
  -4  -3   5  163.88    7.70
  -4  -3   5  163.48    7.80
  -4  -3   5  169.68    9.80
   3   3  -5    2.70    1.80
   3   3  -5    1.50    2.40
   3   3  -5   -1.10    1.40
   3   3  -5    2.70    1.60
   3   3  -5    5.30    3.30
  -3  -3   5    1.90    1.90
  -3  -3   5    1.90    1.90
  -3  -3   5    1.50    1.70
  -3  -3   5   -0.40    3.30
   2   3  -5 2102.19   58.49
   2   3  -5 2048.59   60.49
   2   3  -5 2084.19   59.79
   2   3  -5 2108.89   58.99
   2   3  -5 2146.79   58.89
  -2  -3   5 2105.09   59.09
  -2  -3   5 2046.00   58.89
   1   3  -5   84.19    4.60
   1   3  -5   80.39    3.80
   1   3  -5   69.19    5.20
   1   3  -5   83.39    4.50
  -1  -3   5   79.69    4.60
  -1  -3   5   93.19    4.80
  -1  -3   5   82.59    5.00
   0   3  -5  537.45   16.70
   0   3  -5  511.35   16.20
   0   3  -5  510.95   16.50
   0  -3   5  524.75   16.70
   0  -3   5  547.75   17.00
   0  -3   5  535.05   16.70
  -1   3  -5 1296.37   37.80
  -1   3  -5 1308.07   37.70
  -1   3  -5 1289.87   37.50
  -1   3  -5 1264.87   36.00
   1  -3   5 1313.97   38.00
   1  -3   5 1298.17   37.70
   1  -3   5 1291.37   37.80
  -2   3  -5 1109.19   33.10
  -2   3  -5 1063.09   33.10
  -2   3  -5 1108.29   32.60
   2  -3   5 1150.88   33.60
   2  -3   5 1151.38   33.20
   2  -3   5 1107.29   33.10
  -3   3  -5  181.88    8.40
  -3   3  -5  186.48    9.10
  -3   3  -5  191.98    7.80
  -3   3  -5  189.68    8.80
   3  -3   5  196.68    8.40
   3  -3   5  187.98    9.20
   3  -3   5  195.08    8.60
  -4   3  -5   13.30    4.10
  -4   3  -5   10.10    3.50
  -4   3  -5   17.40    2.90
  -4   3  -5    9.20    3.20
   4  -3   5    9.20    3.20
   4  -3   5    9.00    3.70
   4  -3   5   10.10    3.30
   4  -3   5   10.40    2.60
  -5   3  -5    5.60    3.40
  -5   3  -5    4.20    3.50
  -5   3  -5   13.80    4.00
  -5   3  -5    8.20    4.30
   5  -3   5   12.90    4.70
   5  -3   5   11.90    3.90
   5  -3   5    5.70    2.50
   5  -3   5    3.10    0.40
   5  -3   5    9.00    5.70
  -6   3  -5   72.09    7.00
   6  -3   5   77.49    8.20
   6  -3   5   90.69   11.60
   6  -3   5   67.69    7.90
   6  -3   5   72.79    3.80
  -7   3  -5  157.88   10.50
  -7   3  -5  154.78   12.20
  -7   3  -5  161.48   11.70
  -7   3  -5  191.28   15.00
   7  -3   5  151.08   16.50
   7  -3   5  165.08   14.10
   8   2  -5    1.90    2.30
   8   2  -5    3.80    2.10
   8   2  -5   -6.70    7.70
  -8  -2   5   -0.60    2.90
  -8  -2   5    5.80    4.10
  -8  -2   5   -2.00    5.90
  -8  -2   5   -0.20    2.50
  -8  -2   5    2.50    2.90
   7   2  -5    0.80    6.40
   7   2  -5    5.10    2.10
   7   2  -5    4.90    2.00
  -7  -2   5   -5.80    4.90
  -7  -2   5    3.00    2.50
  -7  -2   5    4.10    3.00
  -7  -2   5    9.70    7.90
  -7  -2   5    2.90    3.10
  -7  -2   5   -1.20    2.70
   6   2  -5  268.67    9.60
   6   2  -5  291.77   15.90
   6   2  -5  269.87    9.30
  -6  -2   5  297.67   13.20
  -6  -2   5  258.37   10.50
  -6  -2   5  269.77   11.50
  -6  -2   5  265.47   15.60
  -6  -2   5  290.67   10.00
   5   2  -5    1.70    1.50
   5   2  -5    2.00    2.60
   5   2  -5    0.30    4.20
  -5  -2   5   -0.20    1.90
  -5  -2   5    2.50    2.80
  -5  -2   5   -0.90    2.90
  -5  -2   5   -0.20    4.40
  -5  -2   5    0.50    1.80
   4   2  -5  339.67   12.80
   4   2  -5  325.67   12.10
   4   2  -5  349.67   11.00
   4   2  -5  332.47   14.80
   4   2  -5  327.57   12.70
   4   2  -5  345.67   10.80
  -4  -2   5  334.47   12.20
  -4  -2   5  339.17   12.30
  -4  -2   5  333.37   11.50
  -4  -2   5  345.87   11.00
   3   2  -5  176.58    6.50
   3   2  -5  172.08    7.70
   3   2  -5  155.08    5.80
   3   2  -5  162.98    7.50
   3   2  -5  159.18    6.10
   3   2  -5  152.48    8.50
  -3  -2   5  149.49    6.30
  -3  -2   5  156.88    6.10
  -3  -2   5  158.28    8.90
  -3  -2   5  155.38    6.40
   2   2  -5    9.50    3.00
   2   2  -5   12.60    1.90
   2   2  -5    9.50    2.70
   2   2  -5   10.40    2.60
   2   2  -5   12.20    1.50
   2   2  -5   13.00    1.70
  -2  -2   5   11.30    1.80
  -2  -2   5   10.50    1.80
  -2  -2   5   10.50    1.50
   1   2  -5 1301.77   38.40
   1   2  -5 1336.17   37.50
   1   2  -5 1293.57   38.40
   1   2  -5 1363.76   37.60
   1   2  -5 1301.77   36.60
  -1  -2   5 1354.46   37.60
  -1  -2   5 1300.67   37.60
  -1  -2   5 1280.17   38.30
   0   2  -5   27.30    3.00
   0   2  -5   33.50    2.90
   0   2  -5   30.40    2.80
   0   2  -5   30.40    3.10
   0  -2   5   31.00    2.80
   0  -2   5   35.90    3.20
   0  -2   5   29.10    3.40
  -1   2  -5 8639.14  232.38
  -1   2  -5 8306.97  232.38
   1  -2   5 8271.07  232.68
   1  -2   5 8284.07  232.58
   1  -2   5 8783.82  232.38
  -2   2  -5 1753.52   49.70
  -2   2  -5 1685.43   49.60
  -2   2  -5 1704.43   49.50
  -2   2  -5 1729.73   49.50
   2  -2   5 1726.73   49.50
   2  -2   5 1772.62   49.90
   2  -2   5 1729.13   49.99
  -3   2  -5   66.19    4.70
  -3   2  -5   71.99    5.70
  -3   2  -5   59.79    4.80
  -3   2  -5   74.59    5.40
   3  -2   5   72.09    5.50
   3  -2   5   70.49    5.80
  -4   2  -5   17.00    3.00
  -4   2  -5   14.70    4.00
  -4   2  -5   13.70    3.40
  -4   2  -5   17.10    3.80
   4  -2   5   11.90    3.70
   4  -2   5   13.00    3.80
   4  -2   5   23.90    3.40
   4  -2   5   11.10    3.30
  -5   2  -5  425.76   16.00
  -5   2  -5  421.26   15.40
  -5   2  -5  402.96   17.20
  -5   2  -5  441.46   15.90
   5  -2   5  424.66   18.20
   5  -2   5  417.16   13.60
   5  -2   5  438.16   17.10
   5  -2   5  437.66   15.80
  -6   2  -5   94.29    9.80
  -6   2  -5   78.69    7.90
  -6   2  -5   73.69    7.90
   6  -2   5   55.59    6.80
   6  -2   5   71.89    7.80
   6  -2   5   81.69   11.50
  -7   2  -5    3.30    5.00
  -7   2  -5   13.10    6.80
  -7   2  -5    4.30    4.70
  -7   2  -5    1.00    4.80
   7  -2   5   13.30    9.00
   7  -2   5    4.20    5.40
   7  -2   5   -8.50    6.00
   8   1  -5   -4.70    8.70
  -8  -1   5   -1.30    2.50
  -8  -1   5   -3.20    6.10
  -8  -1   5   -2.80    9.80
  -8  -1   5   -5.50    2.90
   7   1  -5  124.69   12.90
  -7  -1   5  111.19    6.80
  -7  -1   5  121.99    5.80
  -7  -1   5  119.09    9.70
  -7  -1   5  126.59   14.50
  -7  -1   5  114.49   10.70
  -7  -1   5  117.39    7.10
  -7  -1   5  120.29    6.80
   6   1  -5  473.65   14.60
   6   1  -5  478.65   20.90
   6   1  -5  491.05   13.90
   6   1  -5  469.85   17.40
  -6  -1   5  479.35   16.30
  -6  -1   5  528.15   17.90
  -6  -1   5  470.85   14.80
  -6  -1   5  463.15   20.80
  -6  -1   5  455.95   15.20
  -6  -1   5  511.25   18.60
   5   1  -5  303.57   14.50
   5   1  -5  301.77   12.20
   5   1  -5  307.87    9.30
   5   1  -5  302.57    9.20
  -5  -1   5  327.17   14.60
  -5  -1   5  298.07    9.80
  -5  -1   5  301.07   10.30
  -5  -1   5  314.17   12.40
  -5  -1   5  302.67   12.50
   4   1  -5  622.54   20.30
   4   1  -5  627.54   22.20
   4   1  -5  621.04   17.90
   4   1  -5  626.34   18.00
  -4  -1   5  626.44   20.50
  -4  -1   5  633.14   24.60
  -4  -1   5  638.44   18.70
  -4  -1   5  617.84   18.20
  -4  -1   5  629.64   20.00
   3   1  -5  180.38    8.20
   3   1  -5  175.68    7.70
   3   1  -5  180.98    8.90
  -3  -1   5  167.48    6.20
  -3  -1   5  181.88   13.40
  -3  -1   5  170.28    6.00
  -3  -1   5  168.98    6.80
  -3  -1   5  170.18   10.30
  -3  -1   5  173.48    7.90
   2   1  -5   39.60    2.30
   2   1  -5   38.60    4.20
   2   1  -5   33.20    4.40
   2   1  -5   37.80    2.50
   2   1  -5   37.70    3.70
  -2  -1   5   39.60    2.60
  -2  -1   5   42.10    2.60
  -2  -1   5   37.20    4.50
  -2  -1   5   39.40    3.90
  -2  -1   5   33.80    3.80
   1   1  -5 1287.07   36.30
   1   1  -5 1330.37   37.80
   1   1  -5 1319.67   37.20
   1   1  -5 1278.37   36.30
   1   1  -5 1259.27   37.40
  -1  -1   5 1269.87   36.40
  -1  -1   5 1254.47   36.40
  -1  -1   5 1319.17   37.50
  -1  -1   5 1273.07   37.50
   0   1  -5  474.75   15.30
   0   1  -5  460.95   14.30
   0   1  -5  471.15   14.80
   0   1  -5  470.25   13.30
   0   1  -5  475.75   14.30
   0   1  -5  455.65   14.40
   0  -1   5  456.45   14.50
   0  -1   5  486.35   15.20
   0  -1   5  447.56   14.40
   0  -1   5  483.35   14.40
  -1   1  -5  424.66   13.70
  -1   1  -5  443.66   13.30
  -1   1  -5  429.56   14.00
  -1   1  -5  442.76   13.80
   1  -1   5  412.76   14.10
   1  -1   5  438.46   13.70
   1  -1   5  443.56   14.10
   1  -1   5  432.26   12.80
  -2   1  -5  613.84   20.00
  -2   1  -5  600.94   19.80
  -2   1  -5  660.63   20.10
  -2   1  -5  655.63   20.00
   2  -1   5  684.63   20.00
   2  -1   5  656.23   20.50
   2  -1   5  652.13   20.50
  -3   1  -5  436.86   15.00
  -3   1  -5  421.76   15.30
  -3   1  -5  462.75   15.30
  -3   1  -5  458.15   15.20
   3  -1   5  443.16   15.70
   3  -1   5  457.75   15.00
   3  -1   5  436.66   13.10
   3  -1   5  455.45   12.90
   3  -1   5  448.36   15.70
  -4   1  -5  448.96   15.70
  -4   1  -5  450.85   16.60
  -4   1  -5  469.05   15.90
  -4   1  -5  443.36   15.80
   4  -1   5  435.46   16.50
   4  -1   5  452.05   15.80
   4  -1   5  447.36   13.90
   4  -1   5  462.65   16.70
  -5   1  -5   -2.10    3.40
  -5   1  -5    0.40    3.00
  -5   1  -5   -3.70    2.70
  -5   1  -5   -6.30    3.00
   5  -1   5   -7.30    2.90
   5  -1   5    1.60    1.40
   5  -1   5   -2.00    5.00
   5  -1   5    1.30    2.00
   5  -1   5   -0.70    3.80
  -6   1  -5  168.98    9.70
  -6   1  -5  172.58   10.10
  -6   1  -5  163.88   11.00
  -6   1  -5  170.08   10.00
   6  -1   5  150.28    7.80
   6  -1   5  170.28    9.80
   6  -1   5  177.48   12.60
   6  -1   5  172.38   11.40
  -7   1  -5   10.90    4.80
  -7   1  -5   11.20    4.90
  -7   1  -5    7.50    5.10
  -7   1  -5   -1.20    5.40
   7  -1   5    8.80    6.20
   7  -1   5   30.40    8.90
   7  -1   5   12.20    5.40
  -8   1  -5   17.10    7.70
  -8   1  -5   19.10    7.10
  -8   1  -5   16.70    7.30
  -8   1  -5   14.70    5.70
   8  -1   5   13.90    8.20
   8  -1   5   18.80   11.20
  -8   0   5   -0.10    6.90
  -8   0   5    5.00    6.50
   7   0  -5    1.80    3.90
   7   0  -5   -2.60    6.40
  -7   0   5   16.80    8.60
  -7   0   5    2.10    1.70
  -7   0   5    3.70    5.10
  -7   0   5   -0.50    1.50
  -7   0   5    0.60    2.50
  -7   0   5   -1.00    5.50
   6   0  -5  133.79   12.30
   6   0  -5  132.79    8.30
  -6   0   5  121.49    4.70
  -6   0   5  120.19   10.70
  -6   0   5  125.69    9.50
  -6   0   5  133.49    9.70
  -6   0   5  105.89    7.10
  -6   0   5  110.09    4.80
   5   0  -5   57.59    7.60
   5   0  -5   49.70    5.80
  -5   0   5   60.79    2.80
  -5   0   5   57.89    6.50
  -5   0   5   68.99    6.80
  -5   0   5   52.69    8.00
  -5   0   5   53.29    5.30
   4   0  -5  683.63   23.10
   4   0  -5  646.14   21.20
  -4   0   5  657.43   21.00
  -4   0   5  645.94   21.70
  -4   0   5  638.74   18.50
  -4   0   5  673.23   23.00
   3   0  -5 1519.35   45.20
   3   0  -5 1572.14   46.50
   3   0  -5 1531.45   45.70
  -3   0   5 1630.74   47.00
  -3   0   5 1610.54   47.00
  -3   0   5 1561.94   43.10
  -3   0   5 1494.35   42.90
  -3   0   5 1536.45   45.50
  -3   0   5 1565.74   44.60
   2   0  -5  146.29    4.50
   2   0  -5  146.99    7.10
   2   0  -5  134.59    7.00
   2   0  -5  143.99    4.50
   2   0  -5  142.09    6.50
  -2   0   5  141.79    4.70
  -2   0   5  146.19    6.90
  -2   0   5  141.29    5.30
  -2   0   5  141.89    4.70
  -2   0   5  130.79    6.30
  -2   0   5  149.79    7.20
   1   0  -5   87.29    3.40
   1   0  -5   87.89    4.50
   1   0  -5   85.29    3.40
   1   0  -5   78.79    4.50
   1   0  -5   83.49    5.40
  -1   0   5   86.29    2.80
  -1   0   5   85.89    3.60
  -1   0   5   87.49    4.70
  -1   0   5   80.29    3.40
  -1   0   5   80.79    4.90
  -1   0   5   80.59    4.70
   0   0  -5  810.42   24.60
   0   0  -5  806.12   23.50
   0   0  -5  802.12   22.60
   0   0  -5  851.01   24.00
   0   0  -5  825.12   24.20
   0   0   5  833.32   24.50
   0   0   5  823.12   23.50
   0   0   5  820.82   22.60
   0   0   5  787.12   24.30
   0   0   5  780.52   23.70
   0   0   5  810.52   23.90
  -1   0  -5   81.09    3.60
  -1   0  -5   86.59    3.80
  -1   0  -5   75.69    4.80
  -1   0  -5   82.99    4.40
  -1   0  -5   85.29    4.30
  -1   0  -5   77.19    4.20
   1   0   5   78.99    4.00
   1   0   5   80.49    4.70
   1   0   5   79.89    3.60
   1   0   5   76.69    4.50
  -2   0  -5  380.16   13.20
  -2   0  -5  480.65   13.70
  -2   0  -5  443.76   14.00
   2   0   5  353.36   13.80
   2   0   5  390.36   13.20
  -3   0  -5 3599.74  104.09
  -3   0  -5 3776.92  104.69
  -3   0  -5 3527.35  104.39
  -3   0  -5 3749.92  104.59
   3   0   5 4030.60  105.19
   3   0   5 3710.63  104.49
   3   0   5 3790.12  104.99
   3   0   5 3660.33  105.09
  -4   0  -5   31.00    3.80
  -4   0  -5   42.20    5.40
  -4   0  -5   42.80    6.70
  -4   0  -5   24.50    3.60
   4   0   5   33.10    4.60
   4   0   5   24.10    4.10
   4   0   5   29.40    4.20
  -5   0  -5    8.30    3.50
  -5   0  -5   11.70    3.80
  -5   0  -5    8.90    3.70
  -5   0  -5    9.30    3.60
   5   0   5   13.40    3.60
   5   0   5    8.70    2.90
   5   0   5    2.40    3.80
   5   0   5    4.70    5.20
  -6   0  -5   27.00    4.60
  -6   0  -5   26.60    5.00
  -6   0  -5   23.40    5.30
  -6   0  -5   19.80    4.60
   6   0   5   15.00    7.00
   6   0   5   18.80    5.20
   6   0   5   26.30    3.90
   6   0   5   27.50    4.40
  -7   0  -5  475.05   19.50
  -7   0  -5  493.05   18.80
  -7   0  -5  492.65   19.30
  -7   0  -5  471.05   20.80
   7   0   5  482.05   22.50
   7   0   5  463.45   17.60
   7   0   5  490.25   20.80
   7   0   5  475.05   18.50
  -8   0  -5  121.69   14.30
  -8   0  -5  118.19   13.30
  -8   0  -5  149.79   13.40
  -8   0  -5  115.69   11.30
   8   0   5  119.79   10.40
   8   0   5  135.99   16.20
   8   0   5  126.59   14.20
   7  -1  -5   14.80    4.50
  -7   1   5   14.70    2.80
  -7   1   5   29.90    7.20
  -7   1   5   16.50    5.60
  -7   1   5   16.50    8.30
   6  -1  -5   15.50    4.30
  -6   1   5   14.10    3.50
  -6   1   5   25.40    5.90
  -6   1   5   18.50    6.40
  -6   1   5   14.50    4.70
   5  -1  -5    2.80    3.20
  -5   1   5   -9.10    4.20
  -5   1   5    1.20    2.50
  -5   1   5   -0.90    3.20
  -5   1   5    2.60    4.50
  -5   1   5    6.20    4.20
   4  -1  -5  842.82   26.50
  -4   1   5  836.52   26.10
  -4   1   5  853.91   28.30
  -4   1   5  848.32   27.20
  -4   1   5  863.81   28.10
  -4   1   5  817.52   26.30
   3  -1  -5  283.47   10.90
  -3   1   5  273.17   11.90
  -3   1   5  288.77   11.60
  -3   1   5  278.47   11.40
  -3   1   5  282.67   10.30
  -3   1   5  284.07   10.40
  -3   1   5  281.27   10.60
   2  -1  -5  283.17   11.20
   2  -1  -5  279.37   10.30
  -2   1   5  279.47   10.70
  -2   1   5  278.27    8.00
  -2   1   5  272.87    7.90
  -2   1   5  274.77   10.80
  -2   1   5  275.07    9.90
  -2   1   5  260.87   10.60
   1  -1  -5    0.60    1.60
   1  -1  -5    0.10    1.30
   1  -1  -5    0.20    0.70
   1  -1  -5   -0.70    2.20
  -1   1   5   -0.70    1.00
  -1   1   5   -1.50    1.40
  -1   1   5    0.30    0.80
  -1   1   5    2.10    2.10
  -1   1   5    0.30    1.70
   0  -1  -5 1131.09   33.40
   0  -1  -5 1196.88   33.40
   0  -1  -5 1168.28   34.00
   0  -1  -5 1112.49   32.70
   0  -1  -5 1197.08   32.60
   0   1   5 1110.39   33.50
   0   1   5 1118.19   32.90
   0   1   5 1167.78   32.60
   0   1   5 1145.39   32.20
   0   1   5 1165.18   33.80
  -1  -1  -5 5287.77  148.39
  -1  -1  -5 5113.29  149.19
  -1  -1  -5 5505.65  149.09
  -1  -1  -5 5369.46  149.49
  -1  -1  -5 5416.06  149.49
  -1  -1  -5 5407.26  148.79
   1   1   5 5268.97  148.39
   1   1   5 5465.55  149.29
   1   1   5 5504.95  148.79
   1   1   5 5577.64  149.39
   1   1   5 5527.15  149.79
  -2  -1  -5  841.72   25.70
  -2  -1  -5  823.82   25.30
  -2  -1  -5  863.91   26.00
  -2  -1  -5  889.61   24.40
  -2  -1  -5  860.91   25.50
  -2  -1  -5  847.92   25.30
   2   1   5  859.71   25.30
   2   1   5  852.41   25.30
   2   1   5  843.12   25.90
   2   1   5  827.12   26.20
  -3  -1  -5  216.58    8.70
  -3  -1  -5  219.68    6.60
  -3  -1  -5  203.28    8.90
  -3  -1  -5  210.88    8.30
  -3  -1  -5  214.88    9.20
  -3  -1  -5  223.78    9.10
   3   1   5  217.28    9.80
   3   1   5  200.18    8.80
   3   1   5  210.98    8.60
   3   1   5  206.88    9.40
   3   1   5  211.08    8.00
  -4  -1  -5   15.60    3.40
  -4  -1  -5   11.50    3.30
  -4  -1  -5    9.90    2.80
  -4  -1  -5   11.30    3.00
   4   1   5   19.50    2.90
   4   1   5   10.70    2.80
   4   1   5   15.80    3.30
   4   1   5    8.40    3.50
  -5  -1  -5  107.49    8.40
  -5  -1  -5   96.79    7.40
  -5  -1  -5  117.89    8.00
   5   1   5  100.39    8.60
   5   1   5   93.69    8.50
   5   1   5  101.59    9.80
   5   1   5  103.29    4.90
   5   1   5  107.39    7.30
  -6  -1  -5   12.30    4.50
  -6  -1  -5   13.60    4.10
  -6  -1  -5    8.60    4.60
  -6  -1  -5    8.00    3.90
   6   1   5    3.30    4.90
   6   1   5    3.20    5.80
   6   1   5   14.40    3.90
   6   1   5    2.00    3.80
  -7  -1  -5    3.50    5.60
  -7  -1  -5   -2.40    5.00
  -7  -1  -5   -7.80    4.90
  -7  -1  -5   -0.70    6.10
   7   1   5    2.60    6.10
   7   1   5   -6.00    4.10
   7   1   5    5.30    7.30
   7   1   5    6.50    4.30
  -8  -1  -5   86.69   13.10
  -8  -1  -5   63.39   10.10
  -8  -1  -5  102.29   12.60
  -8  -1  -5   73.49   10.10
   8   1   5   86.39   13.20
   8   1   5   56.59    8.90
   8   1   5   78.09    9.90
   7  -2  -5    4.30    4.30
  -7   2   5   -4.50    4.00
  -7   2   5   -0.60    2.90
  -7   2   5  -12.60    8.40
  -7   2   5    0.20    6.00
  -7   2   5  -18.50    7.60
   6  -2  -5    0.80    3.80
  -6   2   5    2.50    3.50
  -6   2   5   23.80    6.10
  -6   2   5    9.10    6.20
  -6   2   5    9.00    5.90
  -6   2   5    8.90    4.70
  -6   2   5    1.90    2.90
   5  -2  -5    1.70    3.30
  -5   2   5    6.50    4.50
  -5   2   5    1.60    2.90
  -5   2   5   -2.10    2.70
  -5   2   5   -6.90    4.30
  -5   2   5    3.50    4.60
  -5   2   5   -0.60    3.50
   4  -2  -5   83.89    6.80
  -4   2   5   97.79    5.80
  -4   2   5   80.79    6.70
  -4   2   5  100.49    6.60
  -4   2   5   82.89    7.80
  -4   2   5   91.69    8.30
  -4   2   5  101.29    7.80
   3  -2  -5   -0.40    2.60
  -3   2   5    6.20    2.50
  -3   2   5    0.80    2.70
  -3   2   5   -1.20    2.40
  -3   2   5   -1.20    3.00
  -3   2   5    1.50    1.80
   2  -2  -5 3648.64   99.79
  -2   2   5 3478.25   96.99
  -2   2   5 3326.37   97.09
  -2   2   5 3655.63  100.39
  -2   2   5 3649.63  100.39
  -2   2   5 3599.94   99.69
  -2   2   5 3484.25   98.79
  -2   2   5 3581.34   99.79
   1  -2  -5    1.10    1.30
   1  -2  -5   -0.10    1.90
   1  -2  -5    1.80    0.90
   1  -2  -5   -2.50    2.30
  -1   2   5    0.90    0.90
  -1   2   5   -1.40    2.30
  -1   2   5    1.10    1.60
  -1   2   5    0.50    2.00
  -1   2   5   -1.20    1.00
   0  -2  -5  706.13   21.30
   0  -2  -5  670.73   20.50
   0  -2  -5  667.73   19.60
   0  -2  -5  622.74   19.80
   0  -2  -5  682.23   20.50
   0   2   5  653.33   20.00
   0   2   5  691.13   21.10
   0   2   5  699.83   19.70
   0   2   5  680.83   19.70
   0   2   5  655.93   20.60
   0   2   5  657.43   21.10
  -1  -2  -5    1.70    1.60
  -1  -2  -5    0.40    1.70
  -1  -2  -5    3.60    1.40
  -1  -2  -5    0.50    2.10
  -1  -2  -5    1.10    1.60
  -1  -2  -5    0.30    1.60
   1   2   5    1.30    1.90
   1   2   5    1.20    2.10
   1   2   5   -0.90    1.60
   1   2   5    2.20    1.30
   1   2   5   -1.90    1.90
   1   2   5   -1.80    2.00
  -2  -2  -5  105.59    5.40
  -2  -2  -5  110.69    5.40
  -2  -2  -5  110.39    5.90
  -2  -2  -5  108.59    5.50
  -2  -2  -5  102.49    5.70
   2   2   5  119.89    6.70
   2   2   5  112.49    5.20
   2   2   5  108.29    5.70
   2   2   5  104.49    5.30
   2   2   5  115.59    6.20
   2   2   5  114.49    5.40
  -3  -2  -5  125.29    7.10
  -3  -2  -5  110.09    6.50
  -3  -2  -5  123.29    4.80
  -3  -2  -5  133.09    5.90
  -3  -2  -5  123.39    6.30
  -3  -2  -5  116.09    6.60
   3   2   5  124.49    7.70
   3   2   5  107.79    7.00
   3   2   5  113.59    6.60
   3   2   5  124.49    6.10
   3   2   5  114.89    6.20
  -4  -2  -5    0.30    1.20
  -4  -2  -5    0.60    3.00
  -4  -2  -5    0.70    2.50
  -4  -2  -5   -6.80    5.20
  -4  -2  -5    1.10    3.00
  -4  -2  -5    3.70    2.10
   4   2   5   -0.70    1.70
   4   2   5    1.20    2.50
   4   2   5   -0.30    2.80
   4   2   5   -6.60    2.90
   4   2   5   -2.30    3.40
  -5  -2  -5  695.03   24.30
  -5  -2  -5  745.63   24.10
  -5  -2  -5  691.83   21.70
  -5  -2  -5  714.33   24.60
  -5  -2  -5  697.93   23.30
   5   2   5  716.43   24.50
   5   2   5  708.43   25.70
   5   2   5  702.23   21.40
   5   2   5  707.73   24.70
   5   2   5  735.93   23.30
  -6  -2  -5  238.48   12.90
  -6  -2  -5  219.98   12.80
  -6  -2  -5  229.68   11.20
  -6  -2  -5  218.28    9.00
   6   2   5  233.68   13.80
   6   2   5  256.87   11.30
   6   2   5  245.28   13.10
   6   2   5  242.38   12.80
   6   2   5  211.98    7.30
  -7  -2  -5    8.50    9.40
  -7  -2  -5   -6.70    4.60
  -7  -2  -5   -0.60    5.30
  -7  -2  -5   -2.30    6.30
  -7  -2  -5   -1.40    2.40
   7   2   5   -2.10    7.60
   7   2   5    0.50    4.50
   7   2   5   -3.80    6.30
   7   2   5   -1.70    6.00
   7   2   5   -4.20    4.50
  -8  -2  -5   -8.90    6.70
  -8  -2  -5    3.60    5.40
  -8  -2  -5   -3.00    7.40
  -8  -2  -5    5.20    7.80
   8   2   5    5.70    7.40
   8   2   5    2.80    9.10
   8   2   5    1.60    5.70
   7  -3  -5   46.40    6.50
  -7   3   5   51.29    9.60
  -7   3   5   42.30    7.90
  -7   3   5   34.30    4.20
  -7   3   5   29.00    9.20
  -7   3   5   49.10    7.40
   6  -3  -5   78.59    8.20
  -6   3   5   87.09    9.70
  -6   3   5   64.89    9.00
  -6   3   5   71.79    7.10
  -6   3   5   87.19   11.50
  -6   3   5   80.09    6.70
  -6   3   5   72.39    8.90
   5  -3  -5  384.76   15.30
  -5   3   5  385.06   16.90
  -5   3   5  371.26   15.90
  -5   3   5  361.36   13.30
  -5   3   5  356.56   16.30
  -5   3   5  392.76   14.60
  -5   3   5  408.36   17.70
   4  -3  -5  112.99    7.80
  -4   3   5  123.19    8.00
  -4   3   5  126.29    7.70
  -4   3   5  119.89    6.20
  -4   3   5  110.39    9.40
  -4   3   5  113.19    8.10
  -4   3   5  127.89    9.30
   3  -3  -5   -3.00    2.70
  -3   3   5    1.20    2.60
  -3   3   5    2.40    3.50
  -3   3   5   -2.70    2.50
  -3   3   5   -3.60    2.80
  -3   3   5   -0.20    1.70
   2  -3  -5   89.89    2.90
   2  -3  -5   90.09    2.90
   2  -3  -5   83.39    6.10
  -2   3   5   93.09    4.80
  -2   3   5   88.49    3.30
  -2   3   5   78.29    6.80
  -2   3   5   85.69    6.20
  -2   3   5   86.69    6.20
  -2   3   5   83.69    5.30
  -2   3   5   85.29    3.40
   1  -3  -5  323.87   11.90
   1  -3  -5  313.57   10.60
   1  -3  -5  328.67   10.00
  -1   3   5  319.37   11.00
  -1   3   5  314.37    9.80
  -1   3   5  304.77   12.10
  -1   3   5  312.07   12.30
  -1   3   5  318.87   10.20
   0  -3  -5 1814.62   51.59
   0  -3  -5 1857.71   52.09
   0  -3  -5 1844.72   50.79
   0  -3  -5 1758.12   51.19
   0   3   5 1760.02   51.79
   0   3   5 1758.52   51.29
   0   3   5 1728.93   52.39
   0   3   5 1927.21   52.69
   0   3   5 1831.42   50.79
   0   3   5 1848.42   51.39
  -1  -3  -5   -0.50    1.70
  -1  -3  -5    1.30    1.80
  -1  -3  -5   -1.90    1.70
  -1  -3  -5   -0.20    2.00
  -1  -3  -5    1.10    2.30
  -1  -3  -5    2.50    1.70
   1   3   5    0.10    2.30
   1   3   5    0.00    1.60
   1   3   5    0.60    2.20
   1   3   5    2.70    2.10
  -2  -3  -5  972.10   28.60
  -2  -3  -5  930.81   28.10
  -2  -3  -5  891.81   27.90
  -2  -3  -5  964.60   27.80
  -2  -3  -5  920.81   27.90
  -2  -3  -5  956.30   28.90
   2   3   5  956.60   27.90
   2   3   5  888.01   29.10
   2   3   5  911.31   28.60
   2   3   5  972.00   28.70
   2   3   5  960.60   28.00
   2   3   5  944.01   28.10
  -3  -3  -5 1040.20   31.30
  -3  -3  -5 1088.49   32.80
  -3  -3  -5 1053.69   32.40
  -3  -3  -5 1059.19   31.00
  -3  -3  -5 1202.58   34.80
  -3  -3  -5 1013.30   31.80
   3   3   5 1069.79   33.60
   3   3   5 1059.69   32.30
   3   3   5 1071.69   33.00
   3   3   5 1075.69   32.00
   3   3   5 1055.49   32.10
  -4  -3  -5   24.40    4.50
  -4  -3  -5   13.60    3.20
  -4  -3  -5   23.40    2.70
  -4  -3  -5   22.00    3.90
  -4  -3  -5   25.60    4.10
   4   3   5   19.00    2.90
   4   3   5   24.40    3.80
   4   3   5   22.70    3.40
   4   3   5   19.00    4.30
   4   3   5   20.00    4.20
  -5  -3  -5  331.77   13.30
  -5  -3  -5  325.27   10.40
  -5  -3  -5  315.07   14.30
  -5  -3  -5  315.57   11.10
  -5  -3  -5  343.87   15.00
  -5  -3  -5  369.26   14.50
   5   3   5  338.17   14.60
   5   3   5  316.77   15.00
   5   3   5  327.37   11.90
   5   3   5  341.07   13.30
   5   3   5  329.07   14.80
  -6  -3  -5  256.27   13.60
  -6  -3  -5  252.87   12.10
  -6  -3  -5  242.48   13.80
  -6  -3  -5  259.87   12.80
   6   3   5  231.68   14.10
   6   3   5  270.67   14.00
   6   3   5  268.87   13.70
   6   3   5  250.27    9.20
   6   3   5  264.37   12.10
  -7  -3  -5   -7.70    4.50
  -7  -3  -5   13.60    6.40
  -7  -3  -5    5.30    9.10
  -7  -3  -5   -2.10    5.20
   7   3   5    0.80    5.90
   7   3   5   -0.10    6.40
   7   3   5   -0.90    4.80
  -8  -3  -5   -4.80    7.10
  -8  -3  -5    4.30    5.20
  -8  -3  -5   -1.00    8.10
  -8  -3  -5   -4.30    6.50
   8   3   5    8.90    6.50
   8   3   5   17.80    7.80
   8   3   5   -9.10    8.70
   7  -4  -5    2.90    4.90
  -7   4   5    0.00   10.90
  -7   4   5    3.50    3.90
  -7   4   5   -8.00    6.40
  -7   4   5    5.20    6.80
   6  -4  -5    6.20    4.80
  -6   4   5    2.00    3.90
  -6   4   5    1.80    7.00
  -6   4   5   10.30    3.00
  -6   4   5    5.00    6.20
  -6   4   5   -2.70    6.30
  -6   4   5   -1.60    6.20
   5  -4  -5   33.30    5.40
  -5   4   5   37.90    7.20
  -5   4   5   41.30    6.40
  -5   4   5   36.30    5.00
  -5   4   5   30.20    5.90
  -5   4   5   42.70    4.90
  -5   4   5   48.00    7.50
   4  -4  -5  195.48   10.40
  -4   4   5  189.08    5.90
  -4   4   5  203.98   11.50
  -4   4   5  208.18   12.20
  -4   4   5  185.28    7.80
  -4   4   5  185.88   10.10
  -4   4   5  208.58   10.30
  -3   4   5   37.40    2.40
  -3   4   5   37.00    5.60
  -3   4   5   35.00    3.50
  -3   4   5   23.70    4.70
  -3   4   5   32.20    4.90
  -3   4   5   29.90    4.00
   2  -4  -5  236.18    7.70
   2  -4  -5  241.38    7.50
   2  -4  -5  224.28   10.50
  -2   4   5  234.18   10.70
  -2   4   5  239.18   11.30
  -2   4   5  246.38    9.30
  -2   4   5  232.58    7.80
  -2   4   5  238.78    8.60
   1  -4  -5  146.99    6.00
   1  -4  -5  163.68    6.20
   1  -4  -5  156.98    7.70
   1  -4  -5  149.79    5.50
   1  -4  -5  137.79    7.70
  -1   4   5  149.88    6.20
  -1   4   5  152.28    6.60
  -1   4   5  146.39    8.50
  -1   4   5  156.58    6.20
  -1   4   5  153.18    5.70
  -1   4   5  148.59    8.20
   0  -4  -5 2015.70   58.59
   0  -4  -5 2117.79   60.39
   0  -4  -5 2045.20   59.19
   0  -4  -5 2010.20   58.99
   0  -4  -5 2132.69   60.09
   0   4   5 2145.99   60.49
   0   4   5 2137.19   58.59
   0   4   5 2041.00   59.49
   0   4   5 2023.00   60.39
   0   4   5 2198.08   59.29
  -1  -4  -5 3896.51  111.09
  -1  -4  -5 3956.00  110.89
  -1  -4  -5 3943.01  110.19
  -1  -4  -5 4120.89  111.69
  -1  -4  -5 3937.71  111.09
   1   4   5 3976.00  111.19
   1   4   5 3959.80  110.79
   1   4   5 4107.89  111.89
   1   4   5 3940.41  110.99
   1   4   5 3847.01  110.19
   1   4   5 4024.00  111.49
  -2  -4  -5  703.03   22.30
  -2  -4  -5  666.63   21.50
  -2  -4  -5  724.63   22.60
  -2  -4  -5  705.93   22.50
  -2  -4  -5  690.13   21.90
   2   4   5  694.13   22.90
   2   4   5  680.13   21.40
   2   4   5  692.73   21.80
   2   4   5  697.53   22.50
   2   4   5  666.83   21.40
   2   4   5  682.13   22.30
  -3  -4  -5  275.47    9.90
  -3  -4  -5  265.47   10.50
  -3  -4  -5  257.47   10.70
  -3  -4  -5  272.57   11.50
  -3  -4  -5  264.57   11.00
  -3  -4  -5  248.98   10.30
   3   4   5  244.38   11.40
   3   4   5  237.78   13.40
   3   4   5  256.67    9.40
   3   4   5  270.27   10.90
   3   4   5  252.27   10.80
   3   4   5  283.77   11.00
  -4  -4  -5  615.34   19.80
  -4  -4  -5  625.84   20.30
  -4  -4  -5  613.74   19.10
  -4  -4  -5  645.94   21.30
  -4  -4  -5  633.74   22.30
  -4  -4  -5  635.34   21.20
   4   4   5  503.85   24.70
   4   4   5  618.54   21.60
   4   4   5  609.04   21.40
   4   4   5  625.14   20.30
  -5  -4  -5   92.69    8.90
  -5  -4  -5   73.99    6.90
  -5  -4  -5   67.79    9.40
  -5  -4  -5   82.49    8.30
  -5  -4  -5   85.49    5.10
   5   4   5   93.59    7.70
   5   4   5   87.29    8.50
   5   4   5   84.19    6.40
   5   4   5   93.29    9.50
   5   4   5   81.59    8.60
  -6  -4  -5   22.80    5.60
  -6  -4  -5    5.60    4.10
  -6  -4  -5   13.30    4.10
  -6  -4  -5    3.80    5.30
   6   4   5   14.70    6.70
   6   4   5    7.60    3.00
   6   4   5   19.80    5.20
   6   4   5   14.00    5.50
   6   4   5    7.20    4.10
  -7  -4  -5    1.90    6.00
  -7  -4  -5    5.60    4.40
  -7  -4  -5    2.90    5.50
  -7  -4  -5    8.50    6.50
   7   4   5    2.70    5.00
   7   4   5    3.40    6.70
   7   4   5    1.30    6.70
  -8  -4  -5   17.50   15.70
  -8  -4  -5    8.00    7.40
  -8  -4  -5    6.90    7.00
   8   4   5    4.20    8.10
   8   4   5    9.20    9.80
   6  -5  -5   -0.70    4.90
  -6   5   5   13.60    8.00
  -6   5   5   -2.00    4.40
  -6   5   5    2.50    5.60
  -6   5   5   -0.30    8.90
   5  -5  -5  125.69   10.40
  -5   5   5  134.39    4.70
  -5   5   5  139.09   12.30
  -5   5   5  125.99    9.70
  -5   5   5  109.69   12.90
  -5   5   5  144.19   11.30
   4  -5  -5  172.68   10.40
  -4   5   5  152.58    6.40
  -4   5   5  148.99   12.40
  -4   5   5  170.38   11.40
  -4   5   5  155.18   10.10
  -4   5   5  143.09    5.80
  -4   5   5  150.18    9.10
   3  -5  -5  131.79    9.00
   3  -5  -5  135.39    4.80
   3  -5  -5  136.09    5.00
  -3   5   5  124.19    5.40
  -3   5   5  136.69    5.30
  -3   5   5  134.49    7.40
  -3   5   5  130.09    9.20
  -3   5   5  134.79    5.90
  -3   5   5  111.49   10.30
  -3   5   5  138.49    9.10
   2  -5  -5  284.17   12.50
   2  -5  -5  283.87    9.70
   2  -5  -5  299.37   12.20
  -2   5   5  278.67   10.20
  -2   5   5  288.67   12.60
  -2   5   5  295.97   10.00
  -2   5   5  281.27   13.40
  -2   5   5  282.07    9.60
   1  -5  -5    1.70    1.40
   1  -5  -5   -0.80    1.70
   1  -5  -5   -0.60    2.50
   1  -5  -5   -0.70    1.40
   1  -5  -5   -1.20    2.80
  -1   5   5   -1.80    1.80
  -1   5   5   -0.10    3.30
  -1   5   5    1.40    1.50
  -1   5   5   -3.70    1.90
  -1   5   5   -1.40    3.00
   0  -5  -5  184.68    9.00
   0  -5  -5  174.28    7.50
   0  -5  -5  165.08   10.60
   0  -5  -5  174.88    8.80
   0  -5  -5  188.98    7.20
   0   5   5  190.18    9.60
   0   5   5  177.98    7.90
   0   5   5  181.48    8.20
   0   5   5  171.08    7.20
   0   5   5  173.28    9.50
  -1  -5  -5  689.83   22.80
  -1  -5  -5  666.23   22.20
  -1  -5  -5  696.03   21.90
  -1  -5  -5  689.93   21.20
  -1  -5  -5  706.93   22.00
   1   5   5  702.73   22.00
   1   5   5  676.73   22.40
   1   5   5  690.03   21.20
   1   5   5  696.43   22.40
   1   5   5  665.93   21.90
   1   5   5  673.03   22.90
  -2  -5  -5   21.20    3.10
  -2  -5  -5   13.50    3.10
  -2  -5  -5   11.90    3.20
  -2  -5  -5   11.30    5.50
   2   5   5    9.60    3.40
   2   5   5    8.70    2.70
   2   5   5   14.80    3.60
   2   5   5    9.20    2.60
   2   5   5   13.80    2.90
   2   5   5   14.20    3.60
  -3  -5  -5  429.16   15.00
  -3  -5  -5  440.46   16.20
  -3  -5  -5  471.85   17.00
  -3  -5  -5  444.06   15.90
  -3  -5  -5  413.96   15.50
   3   5   5  407.96   14.00
   3   5   5  401.36   16.00
   3   5   5  408.76   15.00
   3   5   5  398.26   14.70
   3   5   5  424.86   15.50
   3   5   5  404.66   15.60
  -4  -5  -5  100.39    8.50
  -4  -5  -5   99.59    7.60
  -4  -5  -5   96.29    9.20
   4   5   5  105.99    7.20
   4   5   5   90.79    7.20
   4   5   5   95.69    8.70
   4   5   5   91.59    7.50
   4   5   5  108.29    7.80
  -5  -5  -5   45.50    7.30
  -5  -5  -5   52.79    5.50
  -5  -5  -5   50.29    6.90
  -5  -5  -5   38.40    5.40
   5   5   5   42.00    6.60
   5   5   5   49.10    6.80
   5   5   5   44.10    5.40
   5   5   5   57.99    7.40
   5   5   5   39.90    6.10
  -6  -5  -5    9.10    5.00
  -6  -5  -5   -2.50    4.50
  -6  -5  -5  -11.30    4.70
   6   5   5   -4.00    6.20
   6   5   5    5.40    4.60
   6   5   5    1.80    3.20
   6   5   5   -9.00    5.00
   6   5   5    3.20    5.00
  -7  -5  -5   43.90    8.30
  -7  -5  -5   38.60    5.00
  -7  -5  -5   48.40    7.30
  -7  -5  -5   43.30    8.00
   7   5   5   37.20    6.80
   7   5   5   40.60    8.20
   7   5   5   31.10    4.20
   7   5   5   31.30    8.20
  -8  -5  -5  -10.30    7.90
  -8  -5  -5   -9.30    6.40
  -8  -5  -5    5.20    5.80
   8   5   5    0.20    9.60
   8   5   5    6.30    8.30
   6  -6  -5   31.90    6.70
  -6   6   5   52.09    8.30
  -6   6   5   43.50    6.60
  -6   6   5   35.10    9.90
   5  -6  -5   -0.20    4.60
  -5   6   5    2.90    2.00
  -5   6   5   -1.10    7.80
  -5   6   5    3.10    4.90
  -5   6   5   -5.20    6.10
  -5   6   5    0.40    1.90
   4  -6  -5   -3.20    4.60
   4  -6  -5    0.30    1.30
  -4   6   5    2.60    2.10
  -4   6   5    1.30    6.30
  -4   6   5   -1.40    4.90
  -4   6   5   -4.40    2.00
  -4   6   5    0.50    4.40
   3  -6  -5    7.10    2.20
   3  -6  -5   11.30    1.90
   3  -6  -5   13.50    4.80
   3  -6  -5   10.00    3.60
  -3   6   5    9.80    4.60
  -3   6   5    5.90    5.20
  -3   6   5   12.50    4.90
  -3   6   5    7.80    2.10
  -3   6   5    8.70    2.40
   2  -6  -5  355.36   15.20
   2  -6  -5  355.56   12.20
   2  -6  -5  358.46   11.80
   2  -6  -5  365.86   14.90
  -2   6   5  350.86   16.30
  -2   6   5  356.36   15.40
  -2   6   5  361.46   11.90
  -2   6   5  352.36   12.10
  -2   6   5  348.07   11.80
   1  -6  -5   85.69    7.30
   1  -6  -5   65.09    5.30
   1  -6  -5   70.69    4.20
   1  -6  -5   74.49    5.10
   1  -6  -5   70.69    7.10
  -1   6   5   72.59    7.80
  -1   6   5   70.29    5.20
  -1   6   5   69.19    3.30
  -1   6   5   69.09    7.20
   0  -6  -5  533.45   18.00
   0  -6  -5  558.14   17.30
   0  -6  -5  532.55   17.60
   0  -6  -5  526.75   19.30
   0   6   5  567.44   20.00
   0   6   5  563.34   18.20
   0   6   5  552.54   17.40
   0   6   5  530.25   20.00
  -1  -6  -5   -1.20    3.10
  -1  -6  -5    0.80    2.00
  -1  -6  -5   -2.50    2.90
  -1  -6  -5   -0.80    2.40
  -1  -6  -5   -3.10    2.20
   1   6   5   -2.00    2.20
   1   6   5    0.40    2.90
   1   6   5    3.00    2.70
   1   6   5    0.50    2.90
  -2  -6  -5   33.30    5.20
  -2  -6  -5   30.30    4.30
  -2  -6  -5   26.60    3.50
   2   6   5   19.90    4.10
   2   6   5   34.50    4.40
   2   6   5   18.20    4.30
   2   6   5   36.80    5.10
   2   6   5   28.10    3.60
   2   6   5   30.40    3.70
  -3  -6  -5  257.97   11.80
  -3  -6  -5  263.47   11.00
  -3  -6  -5  274.97   11.80
  -3  -6  -5  275.47   12.10
   3   6   5  261.47   11.60
   3   6   5  251.77   12.40
   3   6   5  266.77   12.40
   3   6   5  263.67   10.40
   3   6   5  259.67   10.90
   3   6   5  256.17   10.80
  -4  -6  -5   13.90    4.40
  -4  -6  -5   21.50    4.80
  -4  -6  -5   30.20    4.40
  -4  -6  -5   10.20    4.10
  -4  -6  -5   16.80    3.70
   4   6   5   26.30    3.60
   4   6   5   15.60    4.20
   4   6   5   24.00    4.20
   4   6   5   11.70    4.90
   4   6   5   18.60    4.20
   4   6   5   22.40    4.90
  -5  -6  -5   48.20    6.70
  -5  -6  -5   47.50    6.60
  -5  -6  -5   44.40    6.30
  -5  -6  -5   48.80    6.30
  -5  -6  -5   48.50    5.80
   5   6   5   44.80    6.60
   5   6   5   43.70    7.00
   5   6   5   56.59    7.00
   5   6   5   55.19    7.20
   5   6   5   37.00    5.20
  -6  -6  -5   92.39    9.80
  -6  -6  -5   63.79    6.80
  -6  -6  -5   80.69    8.60
  -6  -6  -5   72.19    8.20
  -6  -6  -5   83.79   10.50
   6   6   5   79.19    8.00
   6   6   5   90.39    8.70
   6   6   5   61.49    8.20
   6   6   5   79.19    9.70
   6   6   5   58.39    8.40
  -7  -6  -5    3.70    7.90
  -7  -6  -5   -1.10    5.00
  -7  -6  -5    0.20    6.30
  -7  -6  -5    7.00    6.00
   7   6   5   -1.10    7.20
   7   6   5    6.90    6.30
   7   6   5   -4.70    3.70
   7   6   5    4.20    7.30
  -8  -6  -5    6.20    8.50
  -8  -6  -5   -2.00    3.60
  -8  -6  -5   -2.90    6.80
  -8  -6  -5   -1.20    5.60
   8   6   5   -3.00    8.80
   8   6   5  -14.60    8.40
   5  -7  -5   -0.40    5.40
  -5   7   5    3.30    2.60
  -5   7   5    6.80    5.60
  -5   7   5  -12.20    7.80
   4  -7  -5   34.20    7.20
   4  -7  -5   33.20    3.70
   4  -7  -5   31.90    3.70
  -4   7   5   34.00    8.60
  -4   7   5   28.00    6.50
  -4   7   5   33.70    4.70
  -4   7   5   34.30    7.30
  -4   7   5   30.20    3.40
   3  -7  -5  103.49    9.00
   3  -7  -5   83.79    5.60
   3  -7  -5   79.89    9.80
  -3   7   5   80.09    5.30
  -3   7   5   79.99    9.50
  -3   7   5   85.79   10.90
  -3   7   5   96.09    5.90
   2  -7  -5   -3.60    4.50
   2  -7  -5    0.00    2.40
   2  -7  -5   -3.70    3.80
   2  -7  -5   -0.90    2.30
  -2   7   5    4.50    5.60
  -2   7   5   -3.10    4.10
  -2   7   5    0.00    2.40
  -2   7   5    0.40    2.30
   1  -7  -5   79.59    5.30
   1  -7  -5   62.09    8.20
   1  -7  -5   73.79    4.40
   1  -7  -5   69.59    7.90
   1  -7  -5   79.99    6.00
  -1   7   5   70.09    5.40
  -1   7   5   65.49    9.00
  -1   7   5   73.49    5.80
  -1   7   5   70.59    8.00
   0  -7  -5  407.16   14.70
   0  -7  -5  399.46   13.90
   0  -7  -5  408.06   13.80
   0  -7  -5  384.56   16.10
   0  -7  -5  394.96   16.10
   0   7   5  417.16   16.70
   0   7   5  381.96   14.40
   0   7   5  383.56   16.70
  -1  -7  -5   -0.50    2.50
  -1  -7  -5    0.40    2.90
  -1  -7  -5    0.20    2.30
  -1  -7  -5   -6.30    3.40
  -1  -7  -5   -5.70    3.30
   1   7   5   -0.80    2.90
   1   7   5   -1.50    3.70
   1   7   5    2.60    3.10
   1   7   5   -0.30    2.50
  -2  -7  -5  360.16   14.80
  -2  -7  -5  378.26   15.50
  -2  -7  -5  396.86   15.10
  -2  -7  -5  394.56   14.10
   2   7   5  385.36   15.00
   2   7   5  370.36   14.00
   2   7   5  368.86   15.20
   2   7   5  382.46   14.80
   2   7   5  364.76   12.40
   2   7   5  378.16   16.20
  -3  -7  -5   31.10    4.50
  -3  -7  -5   31.30    5.20
  -3  -7  -5   32.20    5.20
  -3  -7  -5   33.00    5.00
   3   7   5   33.90    4.40
   3   7   5   41.30    5.60
   3   7   5   26.90    5.40
   3   7   5   26.80    5.00
   3   7   5   25.60    5.50
   3   7   5   32.10    4.10
  -4  -7  -5  123.89    9.70
  -4  -7  -5  116.79    8.40
  -4  -7  -5  122.79    8.70
  -4  -7  -5  113.89   10.20
  -4  -7  -5  117.09    9.40
   4   7   5  114.99    9.60
   4   7   5  124.19    6.60
   4   7   5  140.39    8.80
   4   7   5  117.59    9.50
   4   7   5  138.99    8.60
   4   7   5  117.19    9.40
  -5  -7  -5    2.90    3.70
  -5  -7  -5   -4.10    3.90
  -5  -7  -5    3.00    4.90
  -5  -7  -5    3.90    5.20
  -5  -7  -5    0.30    4.40
   5   7   5   -6.00    4.70
   5   7   5    7.30    4.50
   5   7   5   -9.70    5.10
   5   7   5   -1.20    4.50
   5   7   5   -6.30    4.30
  -6  -7  -5   37.80    8.40
  -6  -7  -5   44.90    5.60
  -6  -7  -5   40.50    6.90
  -6  -7  -5   57.79    8.00
   6   7   5   37.50    7.00
   6   7   5   41.20    6.10
   6   7   5   38.20    7.90
   6   7   5   40.90    6.50
   6   7   5   32.60    7.20
  -7  -7  -5    1.00    6.00
  -7  -7  -5    7.60    6.80
  -7  -7  -5   -3.80    5.10
   7   7   5    5.20    4.80
   7   7   5    4.10    7.90
   7   7   5    7.20   12.40
  -8  -7  -5   -4.60    7.40
   4  -8  -5   72.49    5.30
   4  -8  -5   70.19    5.80
   4  -8  -5   52.89    7.90
  -4   8   5   65.39    6.20
  -4   8   5   71.39    9.60
  -4   8   5   58.49    5.80
  -4   8   5   76.39   11.50
   3  -8  -5   38.30    4.30
   3  -8  -5   49.50    5.00
   3  -8  -5   28.70    6.50
   3  -8  -5   31.50    6.30
  -3   8   5   36.50    7.00
  -3   8   5   27.40    3.80
  -3   8   5   34.70    8.80
  -3   8   5   45.20    5.70
   2  -8  -5    7.80    4.70
   2  -8  -5    9.10    3.20
   2  -8  -5    7.80    3.30
   2  -8  -5   11.60    6.00
  -2   8   5    3.90    5.40
  -2   8   5    9.50    3.10
  -2   8   5   13.20    3.40
   1  -8  -5    1.40    5.20
   1  -8  -5    4.60    3.30
   1  -8  -5    9.40    4.60
   1  -8  -5    4.20    1.90
   1  -8  -5    7.30    2.80
  -1   8   5    7.40    3.20
  -1   8   5    3.20    4.90
  -1   8   5    1.50    2.80
   0  -8  -5   36.40    6.00
   0  -8  -5   52.29    6.40
   0  -8  -5   47.40    5.10
   0  -8  -5   52.59    7.40
   0  -8  -5   50.69    5.40
   0   8   5   52.59    6.60
   0   8   5   47.60    7.20
   0   8   5   52.99    7.50
   0   8   5   52.39    7.40
  -1  -8  -5   19.60    3.70
  -1  -8  -5   28.30    4.60
  -1  -8  -5   17.70    3.90
  -1  -8  -5   24.30    5.30
  -1  -8  -5   12.70    4.80
   1   8   5   33.20    5.30
   1   8   5   24.50    4.80
   1   8   5   17.80    5.90
   1   8   5   18.50    5.00
   1   8   5   10.20    6.40
  -2  -8  -5  100.79    8.30
  -2  -8  -5  106.29    9.50
  -2  -8  -5  104.89    7.60
   2   8   5   99.19    8.70
   2   8   5  108.99    8.90
   2   8   5   91.79    7.40
   2   8   5   91.39    9.70
  -3  -8  -5   -6.50    3.60
  -3  -8  -5   -1.10    3.90
  -3  -8  -5   -7.60    4.00
  -3  -8  -5   -4.80    3.20
   3   8   5   -1.00    4.50
   3   8   5    1.20    3.60
   3   8   5   -1.70    3.10
   3   8   5   -2.40    2.60
   3   8   5    3.50    4.60
   3   8   5   -7.10    3.70
  -4  -8  -5   11.10    5.20
  -4  -8  -5   11.30    4.90
  -4  -8  -5   12.30    4.50
  -4  -8  -5   12.30    4.00
   4   8   5   22.40    5.40
   4   8   5    7.90    5.60
   4   8   5   16.70    5.60
   4   8   5   17.50    4.50
   4   8   5   14.70    4.50
   4   8   5   17.60    3.50
  -5  -8  -5   28.00    6.80
  -5  -8  -5   22.30    5.10
  -5  -8  -5   15.60    6.70
  -5  -8  -5   12.30    5.00
  -5  -8  -5   24.90    6.40
   5   8   5   23.50    7.00
   5   8   5   23.10    5.90
   5   8   5   42.00    7.00
   5   8   5   22.00    5.60
   5   8   5   22.30    3.10
   5   8   5   26.30    6.10
  -6  -8  -5   12.00    6.80
  -6  -8  -5   21.40    7.00
  -6  -8  -5   22.30    5.90
  -6  -8  -5   12.50    4.80
  -6  -8  -5   22.50    8.50
   6   8   5   18.50    6.90
   6   8   5   13.40    6.10
   6   8   5   15.20    7.20
   6   8   5    9.40    5.50
   6   8   5   22.20    7.60
  -7  -8  -5   93.79   11.10
  -7  -8  -5  109.39   13.30
  -7  -8  -5  119.19   10.80
  -7  -8  -5  115.29   11.90
   7   8   5   83.59   17.50
   7   8   5  109.09   16.10
   7   8   5  106.29   11.00
   4  -9  -5    4.50    6.30
   4  -9  -5   12.50    3.70
   4  -9  -5   12.90    4.20
   4  -9  -5   10.40    7.10
  -4   9   5   13.90    6.90
  -4   9   5   22.90    4.20
  -4   9   5   23.80   11.00
  -4   9   5   16.00    4.00
   3  -9  -5    5.50    6.60
   3  -9  -5   10.80    4.00
   3  -9  -5    7.60    3.60
   3  -9  -5    2.70    6.60
  -3   9   5   11.00   10.80
  -3   9   5    8.80    3.80
  -3   9   5    9.90    3.80
   2  -9  -5   20.60    6.20
   2  -9  -5   -0.60    3.20
   2  -9  -5    6.30    3.90
   2  -9  -5    5.30    5.80
  -2   9   5    2.60    3.50
   1  -9  -5  131.39    8.10
   1  -9  -5  127.19   10.80
   1  -9  -5  128.79    5.90
   1  -9  -5  125.79   10.70
   1  -9  -5  115.89    9.00
  -1   9   5  148.59   12.60
  -1   9   5  143.49    8.80
  -1   9   5  136.29    8.40
   0  -9  -5  851.41   30.20
   0  -9  -5  844.82   26.90
   0  -9  -5  815.72   29.90
   0  -9  -5  850.91   26.40
   0  -9  -5  833.42   28.10
   0   9   5  840.82   30.70
   0   9   5  862.61   27.70
   0   9   5  855.71   29.70
  -1  -9  -5   22.40    5.90
  -1  -9  -5   32.00    4.50
  -1  -9  -5   37.50    5.50
  -1  -9  -5   34.60    6.30
  -1  -9  -5   43.60    6.30
   1   9   5   38.10    6.20
   1   9   5   42.70    6.40
   1   9   5   48.70    6.10
   1   9   5   47.80    7.60
  -2  -9  -5   88.19    8.30
  -2  -9  -5   84.79    7.80
  -2  -9  -5   78.79    8.90
  -2  -9  -5   69.19    8.80
   2   9   5   75.69    7.80
   2   9   5   82.99   10.80
   2   9   5   70.79    8.90
   2   9   5   72.09    9.30
   2   9   5   76.79    9.20
  -3  -9  -5   -5.80    4.60
  -3  -9  -5    1.60    4.40
  -3  -9  -5    5.50    4.00
  -3  -9  -5   -2.40    4.40
   3   9   5    2.50    5.70
   3   9   5    9.00    4.40
   3   9   5    1.50    5.20
   3   9   5   -2.00    7.20
   3   9   5   -2.80    4.90
   3   9   5    0.10    2.60
  -4  -9  -5   -0.40    5.30
  -4  -9  -5    5.10    5.90
  -4  -9  -5   -4.60    4.80
  -4  -9  -5    5.80    4.20
   4   9   5    4.60    5.90
   4   9   5    2.20    4.50
   4   9   5   -0.60    5.60
   4   9   5    1.20    3.70
   4   9   5    2.80    3.80
   4   9   5    6.40    5.90
  -5  -9  -5   63.19    8.00
  -5  -9  -5   58.79    9.00
  -5  -9  -5   67.29    9.30
  -5  -9  -5   63.89    9.00
   5   9   5   49.90    7.00
   5   9   5   59.29    8.30
   5   9   5   51.29    8.00
   5   9   5   54.89    8.60
   5   9   5   81.89   10.10
   5   9   5   44.80    5.80
  -6  -9  -5   79.99   12.40
  -6  -9  -5   95.19   11.10
  -6  -9  -5   84.59   10.10
  -6  -9  -5  106.69   15.00
   6   9   5   99.09   13.70
   6   9   5  129.59   18.00
   6   9   5   74.39   11.40
   6   9   5   89.39   11.70
  -7  -9  -5   31.90    8.90
  -7  -9  -5   18.20    6.90
  -7  -9  -5   18.30    6.90
   7   9   5    5.30    9.30
   7   9   5    3.90    6.70
   7   9   5    9.70    9.00
   3 -10  -5   70.19    9.60
   3 -10  -5   52.59   12.70
   3 -10  -5   42.80    8.60
  -3  10   5   60.39    7.90
  -3  10   5   60.69    8.50
  -3  10   5   50.59    9.20
   2 -10  -5    6.40    5.10
   2 -10  -5    0.80    4.50
   2 -10  -5   -2.50    7.70
  -2  10   5    0.00    4.20
  -2  10   5    4.80    4.10
  -2  10   5    1.30    6.70
   1 -10  -5    2.10    6.20
   1 -10  -5   -1.50    3.60
   1 -10  -5   -0.40    5.90
   1 -10  -5    2.80    5.00
   1 -10  -5   -1.80    1.80
  -1  10   5  -12.70    6.80
  -1  10   5   -6.40    6.00
  -1  10   5   -4.90    3.90
   0 -10  -5    9.30    3.90
   0 -10  -5    7.30    5.90
   0 -10  -5    4.50    4.70
   0 -10  -5    5.90    3.30
   0  10   5    6.60    6.50
   0  10   5    4.60    6.30
  -1 -10  -5   51.89    6.00
  -1 -10  -5   44.80    6.80
  -1 -10  -5   47.40    7.60
  -1 -10  -5   50.59    7.50
  -1 -10  -5   37.70    7.10
   1  10   5   52.89    7.80
   1  10   5   84.29   11.20
  -2 -10  -5  473.45   18.10
  -2 -10  -5  445.46   19.50
  -2 -10  -5  478.05   19.00
  -2 -10  -5  431.06   20.40
   2  10   5  491.35   20.10
   2  10   5  483.05   18.50
   2  10   5  493.75   20.70
  -3 -10  -5   12.20    4.80
  -3 -10  -5    9.50    6.00
  -3 -10  -5    9.90    5.40
  -3 -10  -5   10.90    5.90
   3  10   5    6.60    5.30
   3  10   5    4.30    6.40
   3  10   5    6.30    6.50
   3  10   5   10.50    5.50
   3  10   5   16.40   10.40
  -4 -10  -5   47.90    7.70
  -4 -10  -5   65.59    8.80
  -4 -10  -5   59.99    9.10
  -4 -10  -5   84.99    9.50
   4  10   5   50.09    7.20
   4  10   5   49.80    8.30
   4  10   5   59.89    8.70
  -5 -10  -5   29.10    8.40
  -5 -10  -5   26.80    6.10
  -5 -10  -5   20.30    8.70
  -5 -10  -5   36.90    7.60
   5  10   5   42.60   13.30
   5  10   5   33.90    6.50
   5  10   5   22.30    8.20
   5  10   5   46.20    8.10
   5  10   5   42.00    6.50
  -6 -10  -5   16.90    7.60
  -6 -10  -5   21.60    6.60
   6  10   5   15.20    7.30
   6  10   5   15.70    8.30
   6  10   5    3.20    8.50
   1 -11  -5   16.60    5.20
   1 -11  -5   15.10    7.50
  -1  11   5   13.50    5.30
  -1  11   5   17.50    7.90
   0 -11  -5    0.10    4.30
   0 -11  -5    3.90    6.80
   0 -11  -5   16.00    7.20
   0 -11  -5    6.30    3.60
   0  11   5   -3.10    8.70
   0  11   5   -1.10    5.30
   0  11   5    1.70    6.90
  -1 -11  -5    9.60    4.50
  -1 -11  -5   14.40    5.20
  -1 -11  -5   16.90    6.80
   1  11   5   10.90    8.10
   1  11   5   13.80    7.20
   1  11   5   10.10    7.90
   1  11   5   10.50    5.60
  -2 -11  -5  226.88   12.60
  -2 -11  -5  231.48   19.30
  -2 -11  -5  206.78   16.30
  -2 -11  -5  216.08   12.90
   2  11   5  208.28   15.30
   2  11   5  224.88   16.70
   2  11   5  206.28   13.20
   2  11   5  204.08   16.60
   2  11   5  226.38   14.00
  -3 -11  -5   80.69   11.40
  -3 -11  -5   49.70    9.70
  -3 -11  -5   68.19    9.70
   3  11   5   67.09    8.10
   3  11   5   44.30    8.80
   3  11   5   54.69    8.20
   3  11   5   85.89   11.80
  -4 -11  -5  336.37   27.20
  -4 -11  -5  285.77   18.00
  -4 -11  -5  277.27   18.00
   4  11   5  299.37   18.40
   4  11   5  278.67   14.90
   4  11   5  312.17   16.90
   4  11   5  317.57   18.00
  -5 -11  -5   29.40    6.90
   5  11   5   26.10    8.90
   5  11   5   31.20    8.50
   5  11   5   21.30    5.70
  -1 -12  -5    3.30    5.20
  -1 -12  -5   -1.20    6.00
  -1 -12  -5   12.20    5.30
   1  12   5   -2.30    8.10
   1  12   5   -2.70    7.10
   1  12   5   -4.50    6.00
  -2 -12  -5   14.00    6.60
  -2 -12  -5   22.90    6.60
  -2 -12  -5   17.00    6.30
   2  12   5   26.40   10.20
   2  12   5    8.60    9.00
   2  12   5   19.20    7.20
   2  12   5   16.50    7.50
  -3 -12  -5    5.90    7.00
   3  12   5    3.20    7.80
   3  12   5  -16.30    6.60
   3  12   5    2.30    8.60
   3  12   5   10.90    8.10
   4  12   5   71.99   11.10
   4  11  -6   -9.00    6.40
   4  11  -6   -0.40    7.40
  -4 -11   6    5.40    9.60
  -4 -11   6   -1.00    7.70
  -4 -11   6   -3.90    6.30
   3  11  -6   19.70    7.40
   3  11  -6   19.90    6.70
  -3 -11   6   16.30    6.60
  -3 -11   6   22.20    7.00
  -3 -11   6   28.60    9.30
   2  11  -6   40.30    7.60
   2  11  -6   42.40    7.70
  -2 -11   6   40.60    6.60
  -2 -11   6   44.90    7.50
  -2 -11   6   42.60    7.40
   1  11  -6  223.98   15.00
   1  11  -6  209.88   14.20
  -1 -11   6  221.88   12.50
  -1 -11   6  207.68   14.40
  -1 -11   6  202.28   13.00
   0  11  -6    3.30    6.10
   0 -11   6    7.30    4.30
   0 -11   6    5.80    6.20
  -1  11  -6   22.40    6.90
   5  10  -6   10.70    6.50
   5  10  -6    5.30    6.80
   5  10  -6   -5.00    5.10
  -5 -10   6   -1.90    5.70
  -5 -10   6    5.30    9.20
  -5 -10   6   15.40    8.90
   4  10  -6    9.50    6.00
   4  10  -6   -0.40    5.80
  -4 -10   6   13.80    5.70
  -4 -10   6    9.20    7.30
  -4 -10   6    8.40    6.80
  -4 -10   6   14.50   12.50
   3  10  -6  219.68   14.00
   3  10  -6  249.78   13.70
   3  10  -6  226.78   13.80
  -3 -10   6  247.28   15.70
  -3 -10   6  255.77   13.80
  -3 -10   6  224.88   17.10
  -3 -10   6  240.38   14.30
   2  10  -6  104.39   10.40
   2  10  -6  116.19   10.50
   2  10  -6  119.19   11.20
  -2 -10   6  119.99   12.30
  -2 -10   6   99.99   10.10
  -2 -10   6  113.59   10.60
  -2 -10   6  120.39   14.40
  -2 -10   6  114.39    9.70
   1  10  -6   43.70    6.40
   1  10  -6   40.50    7.30
   1  10  -6   41.10    7.20
  -1 -10   6   47.90    7.70
  -1 -10   6   42.40    7.70
  -1 -10   6   40.90    5.80
  -1 -10   6   38.10    8.80
   0  10  -6  133.39   11.50
   0  10  -6  115.79   10.60
   0 -10   6   97.09   11.90
   0 -10   6  116.59    8.60
   0 -10   6  105.19   13.30
  -1  10  -6    3.60    5.30
  -1  10  -6   -0.20    5.80
   1 -10   6    4.60    3.70
   1 -10   6   -9.50    7.50
  -2  10  -6   89.19   12.70
  -2  10  -6   65.29    8.10
   2 -10   6   44.50   10.20
   2 -10   6   74.69    7.00
   6   9  -6   21.30    5.40
   6   9  -6   20.00   10.10
   6   9  -6   11.30    6.30
   6   9  -6   24.60    6.40
  -6  -9   6   21.20    8.20
  -6  -9   6   24.00   18.10
  -6  -9   6   27.30    9.20
  -6  -9   6   31.00    6.20
   5   9  -6   43.60    6.60
   5   9  -6   47.70    6.90
   5   9  -6   52.89    6.60
  -5  -9   6   43.00    7.90
  -5  -9   6   57.59    7.20
  -5  -9   6   61.89    8.80
  -5  -9   6   50.99    9.10
   4   9  -6   55.89    6.80
   4   9  -6   45.50    6.60
   4   9  -6   54.19    8.80
  -4  -9   6   51.09    8.00
  -4  -9   6   61.09    8.70
  -4  -9   6   57.99    8.60
  -4  -9   6   77.49   10.90
   3   9  -6   15.20    5.20
   3   9  -6   14.10    4.90
   3   9  -6   20.10    5.20
  -3  -9   6   24.90    5.90
  -3  -9   6   18.80    6.70
  -3  -9   6   23.70    5.90
   2   9  -6   45.50    7.50
   2   9  -6   63.29    7.10
   2   9  -6   53.29    6.20
  -2  -9   6   62.39    8.50
  -2  -9   6   56.69    7.00
  -2  -9   6   80.19    9.40
  -2  -9   6   63.29    8.30
   1   9  -6   20.30    4.50
   1   9  -6   22.10    5.20
   1   9  -6   22.20    5.10
  -1  -9   6   16.60    6.30
  -1  -9   6   20.40    5.10
  -1  -9   6   18.40    5.70
  -1  -9   6   22.50    4.50
   0   9  -6   -1.60    4.20
   0   9  -6   -7.80    4.10
   0  -9   6   -0.30    5.00
   0  -9   6   -2.30    3.20
   0  -9   6   -6.30    4.50
   0  -9   6   -5.20    4.20
  -1   9  -6   46.40    6.90
  -1   9  -6   50.79    6.50
   1  -9   6   49.30    7.20
   1  -9   6   46.10    6.50
   1  -9   6   46.30    6.30
   1  -9   6   46.60    7.40
  -2   9  -6    1.30    5.00
  -2   9  -6    5.60    5.60
   2  -9   6   10.10    5.30
   2  -9   6   -1.80    6.40
   2  -9   6    8.40    5.80
   2  -9   6   11.60    3.50
  -3   9  -6    5.50    6.40
  -3   9  -6   17.20    5.80
   3  -9   6   10.20    3.60
   3  -9   6    6.30    7.20
   3  -9   6   24.80    7.00
   6   8  -6   73.09    9.90
   6   8  -6   80.09    8.30
   6   8  -6   73.99   11.90
   6   8  -6   96.89   10.00
  -6  -8   6   90.49    9.80
  -6  -8   6  115.69   12.50
  -6  -8   6   65.99    8.70
  -6  -8   6   74.39   12.00
   5   8  -6    4.20    6.60
   5   8  -6    3.30    4.60
   5   8  -6   13.90    4.90
   5   8  -6    9.80    4.60
   5   8  -6   18.10    5.10
  -5  -8   6    6.00    4.50
  -5  -8   6    8.70    5.90
  -5  -8   6   12.00    6.10
  -5  -8   6   -4.30    6.40
   4   8  -6    4.50    4.10
   4   8  -6   -5.90    3.80
   4   8  -6    0.70    4.10
  -4  -8   6    0.20    3.70
  -4  -8   6    1.30    5.20
  -4  -8   6   -1.90    4.60
  -4  -8   6   -7.60    5.10
   3   8  -6    2.90    3.50
   3   8  -6    6.30    3.70
  -3  -8   6    8.10    4.20
  -3  -8   6    2.70    4.30
  -3  -8   6   -0.50    4.80
  -3  -8   6    5.60    4.30
   2   8  -6  191.28   10.30
   2   8  -6  192.58   10.00
   2   8  -6  177.68   10.30
  -2  -8   6  196.38   12.50
  -2  -8   6  210.58   11.30
  -2  -8   6  185.98   10.60
   1   8  -6  440.46   16.70
   1   8  -6  448.06   17.20
   1   8  -6  436.96   16.70
  -1  -8   6  436.96   17.60
  -1  -8   6  440.46   16.60
  -1  -8   6  443.46   17.10
  -1  -8   6  434.96   18.70
   0   8  -6   72.59    7.90
   0   8  -6   72.49    7.50
   0  -8   6   78.39    7.70
   0  -8   6   81.79    8.00
   0  -8   6   63.69    9.10
   0  -8   6   77.09    6.70
  -1   8  -6   41.90    5.60
  -1   8  -6   50.39    6.10
   1  -8   6   38.20    5.60
   1  -8   6   51.29    7.10
   1  -8   6   52.79    6.20
   1  -8   6   48.20    5.90
  -2   8  -6   41.10    5.70
  -2   8  -6   27.60    9.20
   2  -8   6   41.60    5.50
   2  -8   6   25.70    5.80
   2  -8   6   31.80    5.40
   2  -8   6   28.80    6.20
  -3   8  -6   29.70    5.90
  -3   8  -6   31.60    5.70
   3  -8   6   30.60    6.40
   3  -8   6   30.80    6.40
   3  -8   6   34.80    6.60
  -4   8  -6    5.00    6.40
  -4   8  -6    3.80    5.20
   4  -8   6    4.00    7.30
   4  -8   6    8.50    6.40
   4  -8   6   14.00    6.80
   7   7  -6    9.20    8.90
   7   7  -6   27.60    7.10
   7   7  -6   13.30    5.30
  -7  -7   6   19.40    7.10
  -7  -7   6   34.20    7.20
  -7  -7   6   19.50    5.30
  -7  -7   6   21.00    6.60
   6   7  -6   11.30    8.10
   6   7  -6   10.30    4.80
   6   7  -6    9.80    4.40
   6   7  -6    8.40    4.80
   6   7  -6    7.90    3.90
  -6  -7   6    8.50    5.30
  -6  -7   6    3.30    7.70
  -6  -7   6    5.60    5.00
  -6  -7   6   12.10    5.60
  -6  -7   6   11.00    4.20
   5   7  -6   58.19    8.90
   5   7  -6   64.39    7.70
   5   7  -6   74.79    7.70
   5   7  -6   71.09    7.60
   5   7  -6   84.99    7.60
  -5  -7   6   66.49    7.80
  -5  -7   6   71.99   11.00
  -5  -7   6   78.29    9.90
  -5  -7   6   86.99    9.90
   4   7  -6   33.50    4.90
   4   7  -6   40.20    6.20
   4   7  -6   24.50    4.60
   4   7  -6   51.39    7.00
  -4  -7   6   37.50    6.00
  -4  -7   6   35.90    6.10
  -4  -7   6   31.80    6.20
  -4  -7   6   35.10    4.80
   3   7  -6  200.38    9.70
   3   7  -6  202.08    9.70
   3   7  -6  177.88   10.20
  -3  -7   6  200.78   11.70
  -3  -7   6  191.28   11.10
  -3  -7   6  206.98   11.60
  -3  -7   6  205.38   10.30
   2   7  -6  337.87   12.90
   2   7  -6  331.27   13.60
   2   7  -6  322.77   13.20
  -2  -7   6  303.17   14.30
  -2  -7   6  337.37   13.60
  -2  -7   6  335.17   15.40
   1   7  -6   71.69    6.80
   1   7  -6  101.49    6.80
   1   7  -6   83.79    7.70
  -1  -7   6   98.49    7.90
  -1  -7   6   97.79    7.30
  -1  -7   6   92.09    7.50
   0   7  -6   19.70    4.40
   0   7  -6   22.30    4.10
   0  -7   6   20.80    4.50
   0  -7   6   21.10    4.30
   0  -7   6   15.40    3.60
   0  -7   6   11.30    4.40
  -1   7  -6  100.09    8.20
  -1   7  -6   84.89    7.60
   1  -7   6   82.19    9.00
   1  -7   6  106.39    8.20
   1  -7   6   84.29    6.50
   1  -7   6   84.69    7.90
  -2   7  -6    0.70    3.90
  -2   7  -6    0.60    3.60
   2  -7   6    2.60    2.80
   2  -7   6    1.40    3.50
   2  -7   6    0.90    3.80
   2  -7   6    1.30    4.20
  -3   7  -6   40.20    6.40
  -3   7  -6   37.00    5.40
   3  -7   6   32.70    6.00
   3  -7   6   29.80    5.70
   3  -7   6   51.69    5.80
   3  -7   6   40.00    6.00
  -4   7  -6  212.78   12.50
  -4   7  -6  204.68   12.40
   4  -7   6  194.68   13.00
   4  -7   6  228.18   13.80
   4  -7   6  218.48   13.10
  -5   7  -6   47.60    8.30
  -5   7  -6   32.50    7.00
  -5   7  -6   52.29    7.80
   5  -7   6   62.89    8.80
   5  -7   6   44.80    7.30
   5  -7   6   50.69    6.70
   5  -7   6   61.49   16.80
   7   6  -6   36.90    5.80
   7   6  -6   38.70    7.00
   7   6  -6   26.50    5.30
   7   6  -6   54.49    9.60
  -7  -6   6   37.70    6.60
  -7  -6   6   23.00    5.10
  -7  -6   6   39.70    7.10
  -7  -6   6   29.80    6.30
   6   6  -6   11.20    7.10
   6   6  -6   11.50    4.90
   6   6  -6   10.00    4.00
   6   6  -6   12.90    4.00
   6   6  -6   17.30    4.30
  -6  -6   6   13.40    4.90
  -6  -6   6   23.20    7.90
  -6  -6   6    8.90    4.10
  -6  -6   6   12.30    5.00
  -6  -6   6   20.30    5.10
   5   6  -6   12.20    3.70
   5   6  -6    9.30    3.60
   5   6  -6    5.10    6.00
   5   6  -6   10.70    3.60
   5   6  -6    7.00    3.70
  -5  -6   6    8.40    3.90
  -5  -6   6    8.40    4.50
  -5  -6   6    9.80    6.30
  -5  -6   6   11.50    3.80
  -5  -6   6    5.50    4.30
   4   6  -6   38.10    4.90
   4   6  -6   28.80    6.60
   4   6  -6   25.20    3.80
   4   6  -6   40.40    5.40
   4   6  -6   37.90    4.70
  -4  -6   6   39.20    5.60
  -4  -6   6   34.80    4.50
  -4  -6   6   37.10    6.50
  -4  -6   6   34.10    5.70
   3   6  -6   60.39    5.60
   3   6  -6   59.89    8.40
   3   6  -6   63.69    6.40
  -3  -6   6   73.39    7.40
  -3  -6   6   59.79    7.50
  -3  -6   6   59.49    6.10
   2   6  -6   -2.30    2.10
   2   6  -6    9.80    3.10
   2   6  -6   -2.10    2.70
  -2  -6   6   -2.40    3.50
  -2  -6   6   -2.80    2.80
  -2  -6   6    0.20    2.80
   1   6  -6   74.79    6.00
   1   6  -6   84.09    6.50
   1   6  -6   82.99    5.60
  -1  -6   6   76.79    6.30
  -1  -6   6   79.19    6.40
  -1  -6   6   80.19    6.50
  -1  -6   6   73.99    7.30
   0   6  -6  306.07   12.20
   0   6  -6  298.07   12.50
   0  -6   6  292.17   12.50
   0  -6   6  295.27   12.50
   0  -6   6  294.37   11.90
   0  -6   6  306.17   13.60
  -1   6  -6    7.00    3.30
  -1   6  -6    1.40    3.50
   1  -6   6    1.10    3.20
   1  -6   6   -2.40    2.60
   1  -6   6    2.40    3.50
   1  -6   6   -2.00    3.90
  -2   6  -6  316.17   13.40
  -2   6  -6  315.97   13.10
   2  -6   6  334.77   14.40
   2  -6   6  337.07   13.60
   2  -6   6  320.07   13.90
   2  -6   6  307.27   12.30
  -3   6  -6  151.38    9.70
  -3   6  -6  142.99    8.80
   3  -6   6  161.38    9.40
   3  -6   6  139.29    8.00
   3  -6   6  149.19    9.70
   3  -6   6  158.68   10.20
  -4   6  -6   26.30    5.20
  -4   6  -6   34.60    6.70
   4  -6   6   29.00    5.00
   4  -6   6   29.00    4.50
   4  -6   6   19.80    4.60
   4  -6   6   26.00    6.30
  -5   6  -6  117.29   10.80
  -5   6  -6  133.79   11.30
  -5   6  -6  106.39   12.60
   5  -6   6  128.19   13.70
   5  -6   6  124.29    8.70
   5  -6   6  121.19   10.10
   5  -6   6  141.19   12.70
   7   5  -6   61.39    7.10
   7   5  -6   68.39    7.80
   7   5  -6   72.49   10.90
   7   5  -6   81.79   10.20
  -7  -5   6   81.49    9.70
  -7  -5   6   49.40    6.30
  -7  -5   6   71.09    9.70
   6   5  -6  136.29    9.70
   6   5  -6  129.89    8.10
   6   5  -6  135.09    8.70
   6   5  -6  140.69    8.20
  -6  -5   6  156.28   13.00
  -6  -5   6  140.89   10.20
  -6  -5   6  140.39    8.60
  -6  -5   6  145.89   10.10
  -6  -5   6  132.99    9.40
   5   5  -6    1.40    5.10
   5   5  -6   -0.40    3.00
   5   5  -6    0.20    3.00
   5   5  -6    3.10    3.30
  -5  -5   6   -5.80    3.40
  -5  -5   6   -1.20    3.40
  -5  -5   6   -3.20    2.60
  -5  -5   6   -3.10    3.50
  -5  -5   6   -3.00    5.40
   4   5  -6  417.36   14.90
   4   5  -6  406.16   14.40
   4   5  -6  383.76   17.80
   4   5  -6  398.96   15.40
   4   5  -6  448.66   18.50
  -4  -5   6  405.36   15.60
  -4  -5   6  404.36   16.60
  -4  -5   6  414.36   14.80
  -4  -5   6  416.16   14.90
  -4  -5   6  412.56   17.40
   3   5  -6    5.30    3.30
   3   5  -6    3.70    4.10
   3   5  -6    0.40    2.20
   3   5  -6    1.80    2.20
   3   5  -6    4.40    2.80
  -3  -5   6    0.50    3.50
  -3  -5   6    3.70    3.90
  -3  -5   6    4.10    2.70
  -3  -5   6    3.90    2.50
   2   5  -6   23.10    3.40
   2   5  -6   24.60    3.70
   2   5  -6   21.10    4.20
   2   5  -6   21.30    3.20
  -2  -5   6   25.10    3.60
  -2  -5   6   21.40    3.40
   1   5  -6 1299.87   38.90
   1   5  -6 1299.57   38.20
   1   5  -6 1347.47   38.90
  -1  -5   6 1322.57   40.60
  -1  -5   6 1305.97   38.90
  -1  -5   6 1263.27   39.10
  -1  -5   6 1304.87   39.00
   0   5  -6  409.96   15.10
   0   5  -6  439.36   15.10
   0  -5   6  400.66   15.10
   0  -5   6  453.55   15.40
   0  -5   6  433.36   15.10
   0  -5   6  438.06   16.40
  -1   5  -6 1369.56   41.90
  -1   5  -6 1385.26   40.00
  -1   5  -6 1446.96   42.00
   1  -5   6 1464.75   43.20
   1  -5   6 1380.26   41.60
   1  -5   6 1408.66   42.20
  -2   5  -6    7.30    3.50
   2  -5   6   -2.20    2.80
   2  -5   6   -0.40    3.20
   2  -5   6    3.40    3.40
   2  -5   6    8.90    3.80
  -3   5  -6  264.47   12.20
  -3   5  -6  281.37   12.00
   3  -5   6  278.07   12.80
   3  -5   6  277.17   11.50
   3  -5   6  277.27   12.20
   3  -5   6  289.97   12.60
  -4   5  -6   48.60    4.70
  -4   5  -6   46.10    5.40
  -4   5  -6   40.00    5.60
  -4   5  -6   35.80    5.70
   4  -5   6   45.20    5.60
   4  -5   6   40.10    4.90
   4  -5   6   36.10    5.90
   4  -5   6   39.80    5.10
  -5   5  -6   33.80    5.30
  -5   5  -6   37.00    6.10
  -5   5  -6   33.80    4.00
   5  -5   6   36.00    5.80
   5  -5   6   40.30    4.60
   5  -5   6   40.90    8.10
   5  -5   6   32.50    4.90
   5  -5   6   30.40    6.30
  -6   5  -6  180.88   14.60
  -6   5  -6  188.58   13.00
  -6   5  -6  197.88   13.10
   6  -5   6  174.78   14.40
   6  -5   6  176.68    9.80
   6  -5   6  183.38   16.60
   7   4  -6   25.80    8.90
   7   4  -6   14.60    3.50
   7   4  -6   16.90    3.40
   7   4  -6   20.30    5.60
  -7  -4   6   14.90    3.80
  -7  -4   6   13.40    5.60
  -7  -4   6   15.10   15.00
  -7  -4   6   18.00    4.50
   6   4  -6    2.60    3.80
   6   4  -6    2.30    3.80
   6   4  -6    2.80    2.80
   6   4  -6    5.90    6.40
  -6  -4   6    5.40    4.10
  -6  -4   6    8.60    3.60
  -6  -4   6    4.00    3.00
  -6  -4   6   10.70    6.60
   5   4  -6   17.40    3.80
   5   4  -6   11.50    3.10
   5   4  -6    6.80    3.20
   5   4  -6   11.60    5.20
  -5  -4   6    6.40    4.10
  -5  -4   6    7.20    2.80
  -5  -4   6    9.10    3.40
  -5  -4   6    6.50    3.10
  -5  -4   6    9.60    5.30
   4   4  -6   38.50    5.00
   4   4  -6   36.40    4.70
   4   4  -6   23.40    4.30
   4   4  -6   23.00    5.90
   4   4  -6   41.60    4.40
  -4  -4   6   57.79    7.50
  -4  -4   6   43.50    5.30
  -4  -4   6   27.70    3.80
  -4  -4   6   41.00    5.00
   3   4  -6  510.85   16.50
   3   4  -6  498.35   16.20
   3   4  -6  484.15   18.70
   3   4  -6  497.45   17.70
   3   4  -6  506.15   16.30
  -3  -4   6  528.75   17.10
  -3  -4   6  521.45   16.60
   2   4  -6  157.98    7.40
   2   4  -6  171.48    6.60
   2   4  -6  164.48    7.10
   2   4  -6  158.48    8.70
   2   4  -6  175.08    8.40
  -2  -4   6  161.78    7.40
  -2  -4   6  160.98    7.40
   1   4  -6  106.39    5.70
   1   4  -6  101.99    4.80
   1   4  -6  100.29    6.20
   1   4  -6  109.09    5.90
  -1  -4   6   96.69    6.20
  -1  -4   6  104.89    5.90
  -1  -4   6  107.09    5.90
   0   4  -6   47.10    3.70
   0   4  -6   45.60    4.60
   0   4  -6   47.70    4.10
   0  -4   6   47.60    4.60
   0  -4   6   41.10    4.40
   0  -4   6   49.40    4.70
  -1   4  -6  167.28    8.10
  -1   4  -6  197.28    8.90
  -1   4  -6  219.08    8.80
   1  -4   6  199.88    8.70
   1  -4   6  207.08    9.00
   1  -4   6  217.98    9.00
  -2   4  -6  438.36   15.70
  -2   4  -6  448.76   15.50
  -2   4  -6  432.06   14.70
   2  -4   6  440.16   16.10
   2  -4   6  444.56   16.10
   2  -4   6  422.16   15.30
  -3   4  -6   14.30    3.60
  -3   4  -6   18.80    3.80
  -3   4  -6   13.50    2.70
  -3   4  -6   15.90    3.90
   3  -4   6   13.80    3.60
   3  -4   6   13.20    3.90
   3  -4   6   12.90    3.40
   3  -4   6   12.60    4.10
  -4   4  -6  355.86   12.80
  -4   4  -6  360.36   15.40
  -4   4  -6  356.36   14.60
  -4   4  -6  321.37   16.40
   4  -4   6  354.16   15.30
   4  -4   6  365.96   14.10
   4  -4   6  354.16   14.20
   4  -4   6  355.76   15.10
  -5   4  -6   28.20    4.90
  -5   4  -6   36.40    5.70
  -5   4  -6   28.60    3.80
  -5   4  -6   23.30    5.70
   5  -4   6   33.20    3.50
   5  -4   6   26.10    7.20
   5  -4   6   26.20    4.30
   5  -4   6   22.90    4.90
   5  -4   6   25.20    6.20
  -6   4  -6    4.70    3.50
  -6   4  -6   -4.90    5.10
  -6   4  -6    4.40    5.10
  -6   4  -6    9.00    6.30
   6  -4   6    0.10    6.10
   6  -4   6    0.20    3.10
   6  -4   6    7.00    7.90
   6  -4   6    5.30    5.10
   8   3  -6   20.60    2.90
   8   3  -6   18.10    2.80
   8   3  -6   26.80   10.00
  -8  -3   6   15.40    3.70
  -8  -3   6   19.40    4.60
  -8  -3   6   19.60    7.00
  -8  -3   6   19.50    4.20
   7   3  -6   89.89   13.10
   7   3  -6   61.99    5.00
   7   3  -6   65.29    4.90
  -7  -3   6   70.49    6.10
  -7  -3   6   70.39    6.60
  -7  -3   6   73.49   11.50
  -7  -3   6   65.99    9.80
  -7  -3   6   67.79    7.80
   6   3  -6   96.49   12.20
   6   3  -6   99.39    5.50
  -6  -3   6  102.19    8.50
  -6  -3   6   91.49    6.70
  -6  -3   6   83.59   11.70
  -6  -3   6   88.99    8.00
  -6  -3   6   99.39    6.10
   5   3  -6  553.74   18.50
   5   3  -6  547.45   18.90
   5   3  -6  540.95   17.00
   5   3  -6  536.85   21.40
  -5  -3   6  553.34   21.90
  -5  -3   6  530.25   17.90
  -5  -3   6  533.15   18.50
  -5  -3   6  535.35   17.20
   4   3  -6  554.14   21.20
   4   3  -6  559.04   17.50
   4   3  -6  540.25   19.20
   4   3  -6  571.84   17.40
   4   3  -6  565.54   18.20
  -4  -3   6  556.74   17.60
  -4  -3   6  558.14   18.20
  -4  -3   6  579.14   21.20
  -4  -3   6  557.14   18.10
   3   3  -6   55.79    5.70
   3   3  -6   63.39    4.30
   3   3  -6   59.19    3.80
   3   3  -6   60.89    4.00
   3   3  -6   51.49    6.80
  -3  -3   6   65.89    4.60
  -3  -3   6   49.60    4.30
  -3  -3   6   62.99    7.00
  -3  -3   6   59.99    4.30
   2   3  -6 1316.87   37.50
   2   3  -6 1355.66   40.10
   2   3  -6 1369.36   38.30
   2   3  -6 1328.77   39.50
   2   3  -6 1314.17   39.10
  -2  -3   6 1285.07   38.30
  -2  -3   6 1304.47   39.50
  -2  -3   6 1328.17   38.40
   1   3  -6  659.13   19.50
   1   3  -6  648.44   20.20
   1   3  -6  623.24   18.40
   1   3  -6  633.24   19.50
  -1  -3   6  599.54   19.40
  -1  -3   6  627.14   20.30
  -1  -3   6  597.84   19.40
   0   3  -6 1159.18   34.00
   0   3  -6 1192.88   34.50
   0   3  -6 1189.38   34.60
   0  -3   6 1194.28   34.60
   0  -3   6 1135.69   34.60
   0  -3   6 1177.18   35.00
  -1   3  -6 1628.34   50.19
  -1   3  -6 1701.33   49.20
  -1   3  -6 1740.03   49.40
   1  -3   6 1672.83   49.50
   1  -3   6 1744.13   49.70
   1  -3   6 1771.32   49.40
  -2   3  -6   17.00    2.70
  -2   3  -6   10.70    3.00
  -2   3  -6   12.40    2.70
   2  -3   6    9.60    2.70
   2  -3   6   14.20    3.30
   2  -3   6   13.60    3.00
  -3   3  -6  832.22   26.00
  -3   3  -6  804.12   26.50
  -3   3  -6  830.32   25.50
  -3   3  -6  822.22   26.20
   3  -3   6  833.12   26.00
   3  -3   6  831.52   26.00
   3  -3   6  843.82   26.80
   3  -3   6  815.42   26.20
  -4   3  -6  140.99    8.20
  -4   3  -6  120.99    8.20
   4  -3   6  148.39    9.60
  -5   3  -6  116.39    8.80
  -5   3  -6  126.39   10.00
  -5   3  -6  135.29    7.60
  -5   3  -6  121.99    8.70
   5  -3   6  115.39    6.80
   5  -3   6  130.89    8.80
   5  -3   6  125.39   11.30
   5  -3   6  129.49   10.30
  -6   3  -6   16.20    6.80
  -6   3  -6    9.10    4.70
  -6   3  -6   12.30    6.00
  -6   3  -6   13.10    4.90
   6  -3   6   15.90    2.70
   6  -3   6   13.40    5.00
   6  -3   6   17.70    6.70
  -7   3  -6   -8.10    6.80
  -7   3  -6    0.40    5.30
  -7   3  -6   -9.40    5.90
  -7   3  -6    5.80    5.00
   7  -3   6    1.90    6.80
   7  -3   6   -2.80    8.70
   8   2  -6   23.40    9.70
  -8  -2   6   30.50    6.80
  -8  -2   6   23.50    4.10
  -8  -2   6   25.10    4.80
  -8  -2   6   41.30    5.20
  -8  -2   6   23.50    7.60
   7   2  -6   89.49    3.70
   7   2  -6   99.89   13.60
   7   2  -6   96.89    4.60
  -7  -2   6   98.69    6.70
  -7  -2   6   91.59    5.60
  -7  -2   6  103.69   13.20
   6   2  -6   51.89    3.40
   6   2  -6   49.00    3.40
   6   2  -6   41.90    7.70
  -6  -2   6   42.90    5.60
  -6  -2   6   41.70    7.90
  -6  -2   6   49.90    4.40
  -6  -2   6   42.20    5.10
  -6  -2   6   39.70    5.30
   5   2  -6  192.18    6.80
   5   2  -6  188.88    6.70
   5   2  -6  201.78   12.20
  -5  -2   6  184.38    9.20
  -5  -2   6  181.28   11.70
  -5  -2   6  183.88    7.30
  -5  -2   6  191.18    7.90
   4   2  -6  518.45   18.40
   4   2  -6  542.25   17.60
   4   2  -6  541.35   20.30
   4   2  -6  545.25   18.90
  -4  -2   6  552.84   20.40
  -4  -2   6  555.24   18.40
  -4  -2   6  549.25   16.60
  -4  -2   6  549.15   17.10
  -4  -2   6  533.25   17.50
   3   2  -6 1090.49   34.00
   3   2  -6 1143.69   35.60
   3   2  -6 1100.09   34.40
   3   2  -6 1158.78   32.40
   3   2  -6 1156.68   32.50
   3   2  -6 1164.48   32.80
  -3  -2   6 1122.29   32.60
  -3  -2   6 1092.29   32.70
  -3  -2   6 1187.08   35.90
  -3  -2   6 1142.79   32.90
   2   2  -6   13.70    1.80
   2   2  -6   12.40    2.20
   2   2  -6   15.80    1.90
   2   2  -6   13.50    3.10
   2   2  -6   15.20    3.10
   2   2  -6   14.50    3.30
  -2  -2   6   11.10    2.90
  -2  -2   6   13.30    2.20
  -2  -2   6   10.00    2.00
   1   2  -6 3799.22  108.09
   1   2  -6 4008.10  107.99
   1   2  -6 3812.22  107.29
   1   2  -6 3749.02  107.19
   1   2  -6 4259.67  108.89
  -1  -2   6 3701.43  108.29
  -1  -2   6 3754.92  107.29
  -1  -2   6 3893.81  107.39
   0   2  -6 2603.54   74.69
   0   2  -6 2580.14   74.39
   0   2  -6 2751.12   74.79
   0   2  -6 2734.03   75.29
   0  -2   6 2807.22   74.79
   0  -2   6 2554.34   74.79
   0  -2   6 2636.74   75.49
  -1   2  -6  409.76   13.10
  -1   2  -6  421.26   13.70
  -1   2  -6  408.36   13.80
  -1   2  -6  404.96   13.70
   1  -2   6  410.16   14.00
   1  -2   6  422.96   13.80
   1  -2   6  409.86   14.30
  -2   2  -6   38.40    4.40
  -2   2  -6   37.40    3.90
  -2   2  -6   37.70    4.10
  -2   2  -6   38.80    3.90
   2  -2   6   32.20    4.70
   2  -2   6   41.10    4.50
   2  -2   6   29.30    5.30
  -3   2  -6  395.06   14.00
  -3   2  -6  361.36   13.60
  -3   2  -6  375.66   13.90
  -3   2  -6  378.56   13.40
   3  -2   6  366.46   13.60
   3  -2   6  378.86   14.10
   3  -2   6  381.36   14.40
  -4   2  -6  644.34   21.40
  -4   2  -6  641.64   21.30
  -4   2  -6  655.83   22.20
  -4   2  -6  674.53   21.60
   4  -2   6  685.13   21.40
   4  -2   6  584.84   21.70
   4  -2   6  630.34   20.30
   4  -2   6  596.54   22.00
  -5   2  -6   51.99    7.00
  -5   2  -6   59.79    6.30
  -5   2  -6   45.90    7.50
   5  -2   6   53.89    7.60
   5  -2   6   61.49    8.30
   5  -2   6   57.59    6.90
   5  -2   6   57.69    4.60
  -6   2  -6  147.09    9.20
  -6   2  -6  145.39   11.70
  -6   2  -6  135.79    9.90
   6  -2   6  145.49   10.00
   6  -2   6  135.99    5.60
   6  -2   6  146.39   11.60
   6  -2   6  160.58   13.80
  -7   2  -6   63.99    9.30
  -7   2  -6   57.19    7.30
  -7   2  -6   51.69    7.40
  -7   2  -6   67.09    9.10
   7  -2   6   54.79   10.90
   7  -2   6   53.09    8.30
   7   1  -6   -0.50    6.90
  -7  -1   6    3.10    1.90
  -7  -1   6    5.10    2.00
  -7  -1   6    4.00    8.70
  -7  -1   6   -4.60    4.90
  -7  -1   6    3.70    3.30
  -7  -1   6    7.00    5.00
   6   1  -6   16.90    4.30
   6   1  -6    8.40    6.40
  -6  -1   6   10.30    4.40
  -6  -1   6   13.30    2.10
  -6  -1   6   13.90    4.90
   5   1  -6  168.88   11.20
   5   1  -6  151.18    8.60
  -5  -1   6  159.98    5.80
  -5  -1   6  161.88    6.40
  -5  -1   6  161.18    8.60
  -5  -1   6  155.68   10.90
  -5  -1   6  165.88    9.10
   4   1  -6  105.09    3.90
   4   1  -6  108.69    7.00
   4   1  -6  115.59    8.80
   4   1  -6  104.79    3.80
   4   1  -6  108.09    7.90
  -4  -1   6  103.19    8.50
  -4  -1   6  112.29    6.20
  -4  -1   6  101.59    4.90
  -4  -1   6  105.29    4.50
  -4  -1   6  104.79    8.30
   3   1  -6 1675.53   49.20
   3   1  -6 1760.42   49.20
   3   1  -6 1777.02   51.89
   3   1  -6 1764.52   52.59
   3   1  -6 1771.72   51.39
  -3  -1   6 1846.82   52.99
  -3  -1   6 1796.02   51.69
  -3  -1   6 1761.32   49.40
  -3  -1   6 1819.72   52.89
  -3  -1   6 1823.12   51.59
  -3  -1   6 1747.63   49.99
  -3  -1   6 1724.93   49.60
   2   1  -6  670.33   21.80
   2   1  -6  709.03   20.20
   2   1  -6  692.33   22.50
   2   1  -6  717.13   22.50
   2   1  -6  689.83   20.20
  -2  -1   6  708.93   22.10
  -2  -1   6  694.13   20.40
  -2  -1   6  705.23   20.40
  -2  -1   6  703.03   22.10
  -2  -1   6  694.33   22.60
  -2  -1   6  678.33   19.90
   1   1  -6  472.45   14.20
   1   1  -6  466.25   15.10
   1   1  -6  473.85   15.50
   1   1  -6  443.86   14.30
   1   1  -6  445.46   15.80
  -1  -1   6  453.85   15.40
  -1  -1   6  463.85   15.40
  -1  -1   6  456.25   14.30
  -1  -1   6  478.25   14.20
   0   1  -6  184.28    7.40
   0   1  -6  181.18    6.90
   0   1  -6  180.08    5.40
   0   1  -6  169.68    6.50
   0   1  -6  173.68    6.70
   0   1  -6  171.68    7.70
   0  -1   6  174.78    6.70
   0  -1   6  176.78    6.90
   0  -1   6  164.98    7.40
   0  -1   6  160.68    6.80
  -1   1  -6  668.43   20.00
  -1   1  -6  682.23   20.60
  -1   1  -6  665.03   20.90
  -1   1  -6  684.23   20.50
  -1   1  -6  690.93   19.80
   1  -1   6  667.03   20.80
   1  -1   6  661.03   19.60
   1  -1   6  693.33   20.50
   1  -1   6  624.24   21.00
  -2   1  -6    8.40    2.40
  -2   1  -6    8.20    2.20
  -2   1  -6   10.30    2.20
  -2   1  -6    8.90    2.20
   2  -1   6   12.00    2.90
   2  -1   6   11.90    2.90
  -3   1  -6   49.60    7.10
  -3   1  -6   48.50    5.00
  -3   1  -6   49.50    4.70
  -3   1  -6   49.99    4.80
   3  -1   6   47.50    5.70
   3  -1   6   50.39    5.40
   3  -1   6   44.50    4.50
  -4   1  -6   26.90    3.90
  -4   1  -6   29.00    4.00
  -4   1  -6   28.90    4.40
  -4   1  -6   23.30    3.90
   4  -1   6   23.40    3.80
   4  -1   6   17.90    4.20
   4  -1   6   22.90    4.50
  -5   1  -6  258.57   11.50
  -5   1  -6  248.28   11.30
  -5   1  -6  221.48   12.90
  -5   1  -6  230.08   12.00
   5  -1   6  223.88   13.70
   5  -1   6  251.87    8.90
   5  -1   6  244.18   11.10
   5  -1   6  240.08    8.50
   5  -1   6  226.78   12.50
  -6   1  -6  109.29    9.00
  -6   1  -6  111.89    8.80
  -6   1  -6  114.29    9.00
  -6   1  -6  107.29   10.30
   6  -1   6  104.29   10.70
   6  -1   6  104.69    6.30
   6  -1   6  114.29    9.00
   6  -1   6  114.09   11.50
  -7   1  -6   45.10    6.60
  -7   1  -6   38.60    7.60
  -7   1  -6   38.00    7.00
  -7   1  -6   31.80    6.00
   7  -1   6   35.70   10.00
   7  -1   6   49.99    8.20
   7  -1   6   32.60    6.10
   7   0  -6    0.50    4.60
  -7   0   6    5.50    3.20
  -7   0   6    4.00    5.80
  -7   0   6   17.10    8.90
  -7   0   6    5.50    5.80
   6   0  -6   94.69   12.00
   6   0  -6   95.39    7.90
  -6   0   6   75.99    7.20
  -6   0   6  112.89    9.10
  -6   0   6  112.29    9.90
   5   0  -6    8.00    3.60
   5   0  -6   11.20    5.20
  -5   0   6    9.60    3.20
  -5   0   6   13.40    4.20
  -5   0   6   16.30    5.40
  -5   0   6    9.70    3.40
   4   0  -6   19.90    3.90
   4   0  -6   22.20    4.80
  -4   0   6   34.70    5.00
  -4   0   6   21.50    5.00
  -4   0   6   19.20    4.30
  -4   0   6   20.70    3.20
  -4   0   6   22.10    1.40
  -4   0   6   21.20    5.00
   3   0  -6  165.28    9.30
   3   0  -6  168.68    8.90
   3   0  -6  164.78    8.10
  -3   0   6  162.78    6.80
  -3   0   6  186.28    9.30
  -3   0   6  152.48    7.90
  -3   0   6  154.38    5.30
  -3   0   6  170.38    9.30
  -3   0   6  167.98    5.50
  -3   0   6  172.28    8.40
   2   0  -6 4190.18  120.89
   2   0  -6 4537.45  123.09
   2   0  -6 4339.37  123.59
  -2   0   6 4401.96  122.99
  -2   0   6 4537.95  123.99
  -2   0   6 4342.67  121.09
  -2   0   6 4525.45  123.49
  -2   0   6 4428.76  121.19
   1   0  -6 1819.52   50.49
   1   0  -6 1803.92   50.49
   1   0  -6 1795.12   52.49
   1   0  -6 1884.11   51.89
   1   0  -6 1853.71   51.89
  -1   0   6 1788.72   50.79
  -1   0   6 1805.42   51.99
  -1   0   6 1799.72   52.19
  -1   0   6 1765.12   50.49
  -1   0   6 1798.42   52.19
   0   0  -6  825.12   24.40
   0   0  -6  831.72   24.40
   0   0  -6  864.81   26.00
   0   0  -6  878.91   25.40
   0   0  -6  842.12   24.90
   0   0   6  838.32   25.00
   0   0   6  845.22   24.50
   0   0   6  786.02   24.70
   0   0   6  831.82   25.60
  -1   0  -6  486.25   16.50
  -1   0  -6  505.55   15.40
  -1   0  -6  477.05   15.70
  -1   0  -6  504.75   15.10
  -1   0  -6  508.55   16.40
  -1   0  -6  512.45   15.80
   1   0   6  500.05   16.60
   1   0   6  509.25   16.20
   1   0   6  512.35   15.00
   1   0   6  505.15   15.70
  -2   0  -6    1.10    2.00
  -2   0  -6    0.90    1.60
  -2   0  -6    1.20    2.30
  -2   0  -6    0.30    1.80
  -2   0  -6    4.60    1.40
  -2   0  -6    1.70    2.00
   2   0   6    0.60    2.40
   2   0   6    0.70    2.30
   2   0   6    0.80    1.70
   2   0   6    1.30    1.90
  -3   0  -6 1915.81   54.89
  -3   0  -6 1881.51   54.59
  -3   0  -6 1862.41   53.99
  -3   0  -6 1818.92   53.99
   3   0   6 1860.11   54.69
   3   0   6 1895.81   54.09
   3   0   6 1904.81   53.89
   3   0   6 1850.71   54.99
  -4   0  -6   -3.20    2.40
  -4   0  -6    4.50    2.90
  -4   0  -6    2.70    2.90
  -4   0  -6   -0.10    2.70
   4   0   6   -4.40    3.10
   4   0   6   -2.20    3.10
   4   0   6   -3.90    2.60
  -5   0  -6  231.08   10.80
  -5   0  -6  206.48   10.60
  -5   0  -6  231.98   11.40
  -5   0  -6  218.38   11.00
   5   0   6  219.58   10.40
   5   0   6  211.48   12.60
   5   0   6  214.78   11.90
   5   0   6  222.58    9.00
   5   0   6  211.08    8.10
  -6   0  -6  175.28   11.50
  -6   0  -6  175.08   10.30
  -6   0  -6  167.78   10.30
  -6   0  -6  158.58   10.10
   6   0   6  155.68    9.80
   6   0   6  166.98    8.30
   6   0   6  172.68   13.60
   6   0   6  154.78   11.80
  -7   0  -6   -2.70    5.50
  -7   0  -6    1.60    5.80
  -7   0  -6    0.10    4.50
  -7   0  -6    2.20    5.00
   7   0   6   -4.40    7.60
   7   0   6    1.40    6.50
   7   0   6    6.50    3.80
   7   0   6    4.30    5.60
  -8   0  -6   39.20    8.50
  -8   0  -6   18.90    7.30
  -8   0  -6   34.80    8.70
  -8   0  -6   25.00    6.60
   8   0   6   30.90    9.00
   8   0   6   49.50   12.10
   8   0   6   25.60    5.70
   7  -1  -6    3.10    4.50
  -7   1   6    7.60    9.10
  -7   1   6   -4.40    4.70
  -7   1   6   15.70    7.10
  -7   1   6    5.50    5.50
  -7   1   6    6.60    3.40
   6  -1  -6   28.20    5.00
  -6   1   6   35.50    4.60
  -6   1   6   28.50    5.10
  -6   1   6   44.60    7.00
  -6   1   6   32.50    5.80
  -6   1   6   23.90    6.80
   5  -1  -6   -4.60    3.20
  -5   1   6   -1.30    3.10
  -5   1   6   -5.60    2.90
  -5   1   6   -2.80    4.70
  -5   1   6    2.60    3.20
  -5   1   6    0.10    4.60
  -5   1   6    3.20    4.30
   4  -1  -6   68.39    6.20
  -4   1   6   69.69    5.90
  -4   1   6   72.99    8.00
  -4   1   6   55.69    7.30
  -4   1   6   63.79    5.70
  -4   1   6   66.99    6.00
  -4   1   6   49.70    9.10
   3  -1  -6  132.49    7.30
  -3   1   6  127.59    8.20
  -3   1   6  120.19    7.50
  -3   1   6  122.39    6.10
  -3   1   6  124.89    7.60
  -3   1   6  122.59    6.70
   2  -1  -6  657.23   20.80
   2  -1  -6  642.84   21.50
   2  -1  -6  635.44   17.80
  -2   1   6  610.44   21.10
  -2   1   6  651.53   18.40
  -2   1   6  646.14   22.80
  -2   1   6  633.34   18.20
  -2   1   6  674.23   20.40
   1  -1  -6 4580.84  126.79
   1  -1  -6 4562.24  127.49
   1  -1  -6 4700.23  125.49
   1  -1  -6 4464.65  126.59
   1  -1  -6 4521.25  125.19
  -1   1   6 4521.55  127.29
  -1   1   6 4585.24  127.19
  -1   1   6 4443.66  125.19
  -1   1   6 4618.24  125.59
  -1   1   6 4609.44  126.89
   0  -1  -6 3776.12  101.29
   0  -1  -6 3624.14  101.49
   0  -1  -6 3484.45  100.49
   0  -1  -6 3724.83  102.09
   0   1   6 3612.94   99.79
   0   1   6 3724.73  100.49
   0   1   6 3483.95  100.79
   0   1   6 3475.15  101.59
   0   1   6 3799.22  101.99
  -1  -1  -6   18.40    2.30
  -1  -1  -6   27.00    3.50
  -1  -1  -6   26.40    4.10
  -1  -1  -6   19.40    2.40
  -1  -1  -6   15.20    2.40
   1   1   6   19.70    3.00
   1   1   6   13.00    2.50
   1   1   6   16.20    2.30
   1   1   6   15.70    2.20
   1   1   6   16.20    2.70
  -2  -1  -6   60.49    5.00
  -2  -1  -6   62.59    4.20
  -2  -1  -6   63.29    4.50
  -2  -1  -6   57.99    5.10
  -2  -1  -6   64.99    4.60
   2   1   6   63.99    4.20
   2   1   6   67.69    4.60
   2   1   6   63.19    5.40
   2   1   6   54.29    5.30
  -3  -1  -6 1387.86   42.30
  -3  -1  -6 1552.94   44.10
  -3  -1  -6 1397.36   42.40
  -3  -1  -6 1522.25   47.40
  -3  -1  -6 1362.96   42.10
  -3  -1  -6 1450.35   40.40
   3   1   6 1610.74   46.10
   3   1   6 1421.56   43.10
   3   1   6 1390.46   43.50
   3   1   6 1428.66   42.40
   3   1   6 1406.36   41.90
  -4  -1  -6  479.55   16.60
  -4  -1  -6  467.65   17.10
  -4  -1  -6  466.35   16.00
  -4  -1  -6  489.55   17.40
  -4  -1  -6  495.35   17.10
   4   1   6  473.05   15.60
   4   1   6  438.56   19.60
   4   1   6  488.05   17.20
   4   1   6  475.65   17.70
   4   1   6  497.95   18.40
  -5  -1  -6  350.76   14.40
  -5  -1  -6  335.67   14.10
  -5  -1  -6  304.37   13.30
  -5  -1  -6  336.17   14.30
   5   1   6  349.96   13.60
   5   1   6  332.97   14.90
   5   1   6  312.87   11.30
   5   1   6  331.47   15.50
   5   1   6  334.77   14.40
  -6  -1  -6   10.10    4.50
  -6  -1  -6    3.20    4.20
  -6  -1  -6   13.80    5.20
  -6  -1  -6    8.80    4.60
   6   1   6    2.20    5.20
   6   1   6    8.00    3.60
   6   1   6   10.80    4.50
   6   1   6   -1.60    6.10
  -7  -1  -6   37.20    6.70
  -7  -1  -6   60.19    8.50
  -7  -1  -6   49.80    7.30
  -7  -1  -6   42.30    6.40
  -7  -1  -6   48.30    7.90
   7   1   6   45.10    9.20
   7   1   6   36.40    5.70
   7   1   6   40.70    8.10
   7   1   6   36.20    5.90
  -8  -1  -6   27.20    8.60
  -8  -1  -6   22.10    4.70
  -8  -1  -6   38.10    7.90
  -8  -1  -6   21.10    5.90
  -8  -1  -6   32.80    7.80
   8   1   6   19.90   10.30
   8   1   6   35.60    8.30
   8   1   6   17.90    5.80
   7  -2  -6    4.60    4.70
  -7   2   6   -3.30    6.80
  -7   2   6    2.60    8.90
  -7   2   6    6.40    8.50
  -7   2   6   -0.10    3.50
  -7   2   6    4.60    4.60
   6  -2  -6   -2.20    3.80
  -6   2   6    2.90    6.40
  -6   2   6   -1.50    6.00
  -6   2   6    5.60    6.70
  -6   2   6    5.70    3.90
  -6   2   6    0.30    3.50
  -6   2   6   -3.30    4.30
   5  -2  -6    7.90    4.00
  -5   2   6   16.00    5.20
  -5   2   6    1.90    4.60
  -5   2   6   14.50    4.00
  -5   2   6   -4.40    4.40
  -5   2   6    7.70    3.30
   4  -2  -6   60.19    6.40
  -4   2   6   55.49    6.00
  -4   2   6   49.90    5.80
  -4   2   6   48.70    6.40
  -4   2   6   60.59    5.40
  -4   2   6   59.09   11.10
  -4   2   6   51.69    7.40
   3  -2  -6    9.40    3.30
  -3   2   6   17.30    2.90
  -3   2   6   16.10    3.40
  -3   2   6   16.40    6.00
  -3   2   6   17.40    4.20
   2  -2  -6   51.69    5.30
  -2   2   6   45.50    5.40
  -2   2   6   44.40    2.40
  -2   2   6   50.99    4.90
  -2   2   6   46.50    2.20
  -2   2   6   51.49    5.40
  -2   2   6   56.29    4.50
  -2   2   6   51.89    7.20
   1  -2  -6    9.10    2.80
   1  -2  -6   21.30    3.70
   1  -2  -6   14.60    2.40
   1  -2  -6   16.90    2.00
  -1   2   6   21.60    3.40
  -1   2   6   19.90    3.80
  -1   2   6   16.30    2.10
  -1   2   6   18.60    2.20
  -1   2   6   18.80    3.00
   0  -2  -6 1546.55   44.90
   0  -2  -6 1493.45   43.30
   0  -2  -6 1514.85   44.10
   0  -2  -6 1506.35   44.10
   0  -2  -6 1521.35   43.20
   0   2   6 1578.94   43.10
   0   2   6 1534.75   44.70
   0   2   6 1561.34   43.00
   0   2   6 1605.64   44.80
   0   2   6 1442.26   44.20
   0   2   6 1464.85   43.50
  -1  -2  -6 1182.28   34.40
  -1  -2  -6 1162.98   34.80
  -1  -2  -6 1216.88   34.30
  -1  -2  -6 1217.78   35.40
  -1  -2  -6 1185.98   35.50
  -1  -2  -6 1195.78   34.70
   1   2   6 1195.78   35.60
   1   2   6 1155.38   35.10
   1   2   6 1210.98   35.80
   1   2   6 1238.08   35.50
   1   2   6 1163.68   34.40
   1   2   6 1181.38   34.20
  -2  -2  -6    5.20    2.30
  -2  -2  -6    9.70    2.20
  -2  -2  -6    9.60    2.60
  -2  -2  -6   10.10    2.00
  -2  -2  -6    5.70    2.50
  -2  -2  -6    5.50    2.50
   2   2   6    2.70    2.20
   2   2   6    4.50    2.80
   2   2   6    5.10    1.90
   2   2   6    6.30    2.60
   2   2   6    8.00    3.10
  -3  -2  -6   88.49    5.80
  -3  -2  -6   84.19    5.90
  -3  -2  -6   90.29    6.40
  -3  -2  -6   74.09    5.10
  -3  -2  -6   90.99    7.20
  -3  -2  -6   92.69    6.10
   3   2   6   87.79    6.90
   3   2   6   91.39    6.30
   3   2   6   84.09    5.70
   3   2   6   82.29    7.20
  -4  -2  -6  656.83   23.40
  -4  -2  -6  655.23   18.40
  -4  -2  -6  631.94   20.90
  -4  -2  -6  626.34   21.40
  -4  -2  -6  645.44   21.50
  -4  -2  -6  622.24   20.20
   4   2   6  639.74   21.40
   4   2   6  633.54   22.80
   4   2   6  626.74   22.00
   4   2   6  628.94   20.20
  -5  -2  -6 1136.89   35.60
  -5  -2  -6 1219.38   37.20
  -5  -2  -6 1159.68   36.80
  -5  -2  -6 1146.79   34.40
   5   2   6 1145.29   35.50
   5   2   6 1203.98   37.40
   5   2   6 1173.58   36.70
   5   2   6 1128.99   34.10
   5   2   6 1124.99   37.70
  -6  -2  -6  316.27   15.40
  -6  -2  -6  310.27   14.40
  -6  -2  -6  354.76   14.40
  -6  -2  -6  330.97   12.30
  -6  -2  -6  324.57   15.40
   6   2   6  328.47   16.00
   6   2   6  308.47   16.50
   6   2   6  328.27   15.60
   6   2   6  316.47   11.00
   6   2   6  347.27   14.30
  -7  -2  -6  152.98   10.40
  -7  -2  -6  135.19   12.00
  -7  -2  -6  122.79    7.50
  -7  -2  -6  134.69   11.50
  -7  -2  -6  110.99   11.90
   7   2   6  115.59   10.00
   7   2   6  121.79   10.80
   7   2   6  122.99   12.80
   7   2   6  112.69   12.50
   7   2   6  117.09   13.00
  -8  -2  -6   -3.30    7.20
  -8  -2  -6   18.50    8.90
  -8  -2  -6    4.40    7.00
  -8  -2  -6    1.40    5.10
   8   2   6    8.40    8.30
   8   2   6    1.60    5.50
   8   2   6    0.90    9.20
   7  -3  -6   12.20    4.90
  -7   3   6   -5.80   10.40
  -7   3   6   -4.60    9.60
  -7   3   6    3.80    3.90
  -7   3   6    6.40    6.30
  -7   3   6    4.30    4.40
   6  -3  -6   -0.60    4.70
  -6   3   6    3.10    3.90
  -6   3   6   -2.20    6.00
  -6   3   6   -7.00    6.30
  -6   3   6    5.70    5.40
  -6   3   6    4.30    3.50
  -6   3   6    5.70    6.70
   5  -3  -6   51.89    7.70
  -5   3   6   56.79    5.80
  -5   3   6   48.10    7.20
  -5   3   6   47.50    6.90
  -5   3   6   46.70    7.50
  -5   3   6   44.80    6.60
  -5   3   6   58.59    7.60
   4  -3  -6  332.37   13.60
  -4   3   6  316.57   13.20
  -4   3   6  303.57   14.20
  -4   3   6  306.77   14.60
  -4   3   6  316.67   14.80
  -4   3   6  317.77   13.10
  -4   3   6  311.97   11.70
   3  -3  -6   -1.60    3.00
  -3   3   6    2.90    3.00
  -3   3   6   -3.60    3.20
  -3   3   6    1.70    2.90
  -3   3   6   -1.30    2.10
  -3   3   6   -1.90    4.20
   2  -3  -6 2793.12   78.59
  -2   3   6 2721.53   77.29
  -2   3   6 2696.23   75.59
  -2   3   6 2799.82   78.79
  -2   3   6 2856.01   79.29
  -2   3   6 2555.94   75.59
  -2   3   6 2802.62   79.29
  -2   3   6 2767.02   77.99
   1  -3  -6    4.50    1.80
   1  -3  -6    4.70    1.40
   1  -3  -6    1.60    2.50
  -1   3   6    4.60    1.70
  -1   3   6    2.10    1.30
  -1   3   6    1.60    2.80
  -1   3   6    0.50    2.20
   0  -3  -6 4146.08  114.39
   0  -3  -6 4002.40  112.69
   0  -3  -6 4149.38  113.79
   0  -3  -6 3992.70  113.29
   0   3   6 4150.68  112.79
   0   3   6 3953.60  112.89
   0   3   6 3908.41  113.59
   0   3   6 4004.80  114.29
   0   3   6 4318.97  114.39
   0   3   6 4049.59  112.39
  -1  -3  -6  173.78    8.00
   1   3   6  177.78    7.20
   1   3   6  168.28    7.20
   1   3   6  196.28    8.40
  -2  -3  -6 1279.67   38.50
  -2  -3  -6 1264.37   37.60
  -2  -3  -6 1234.78   36.20
  -2  -3  -6 1243.88   36.50
  -2  -3  -6 1196.78   36.70
  -2  -3  -6 1238.48   36.60
   2   3   6 1236.78   37.90
   2   3   6 1266.97   36.70
   2   3   6 1245.18   37.30
   2   3   6 1241.68   36.40
   2   3   6 1280.37   36.60
   2   3   6 1206.28   37.20
  -3  -3  -6    6.40    2.60
  -3  -3  -6    1.20    2.70
  -3  -3  -6    0.50    2.60
  -3  -3  -6    5.00    2.60
  -3  -3  -6    2.80    2.00
  -3  -3  -6    8.40    3.00
   3   3   6   -4.70    2.30
   3   3   6   -7.30    3.00
   3   3   6   -1.30    3.40
   3   3   6    5.00    3.10
   3   3   6    4.10    4.80
  -4  -3  -6   19.10    4.00
  -4  -3  -6   16.80    3.10
  -4  -3  -6    8.80    3.40
  -4  -3  -6   18.20    4.20
  -4  -3  -6   19.60    2.70
  -4  -3  -6   13.50    3.60
   4   3   6   14.70    5.50
   4   3   6   14.40    4.40
   4   3   6   17.80    3.30
   4   3   6   19.00    4.70
  -5  -3  -6  402.26   16.00
  -5  -3  -6  372.46   14.90
  -5  -3  -6  373.76   16.40
  -5  -3  -6  356.36   13.00
  -5  -3  -6  377.66   15.80
  -5  -3  -6  371.06   11.60
   5   3   6  382.56   14.90
   5   3   6  388.66   17.10
   5   3   6  384.16   16.00
   5   3   6  393.06   13.80
   5   3   6  384.16   16.80
  -6  -3  -6  422.96   14.20
  -6  -3  -6  443.46   17.80
  -6  -3  -6  416.86   18.70
  -6  -3  -6  452.65   17.20
  -6  -3  -6  466.05   18.80
   6   3   6  459.65   18.60
   6   3   6  414.96   14.60
   6   3   6  440.96   17.00
   6   3   6  416.16   19.70
   6   3   6  411.76   18.60
  -7  -3  -6   22.20    6.40
  -7  -3  -6   36.70    5.80
  -7  -3  -6   12.90    6.00
  -7  -3  -6   28.00    7.10
   7   3   6   26.80    7.30
   7   3   6   36.20    7.30
   7   3   6   15.90    5.60
   7   3   6   36.10    8.50
  -8  -3  -6   10.10    9.90
  -8  -3  -6    3.60    5.00
  -8  -3  -6    5.50    7.50
  -8  -3  -6    1.30    7.00
   8   3   6   29.60    8.90
   8   3   6   20.30   10.20
   8   3   6   15.10    6.80
   6  -4  -6   13.70    5.40
  -6   4   6    6.10    7.20
  -6   4   6    4.00    8.40
  -6   4   6   13.20    8.00
  -6   4   6    8.10    6.70
  -6   4   6    5.90    4.70
  -6   4   6   13.80    3.60
   5  -4  -6   -0.50    4.50
  -5   4   6    4.10    5.10
  -5   4   6    5.30    5.90
  -5   4   6    9.30    4.90
  -5   4   6    1.20    4.10
  -5   4   6   -1.50    5.80
  -5   4   6    1.10    2.70
   4  -4  -6   77.09    8.10
  -4   4   6   78.39    5.80
  -4   4   6   80.79    8.80
  -4   4   6   92.09    9.20
  -4   4   6   88.49    7.90
  -4   4   6   78.29    8.10
   3  -4  -6   68.49    7.00
  -3   4   6   70.29    7.00
  -3   4   6   62.49    4.90
  -3   4   6   60.89    2.60
  -3   4   6   70.79    7.60
  -3   4   6   61.89    2.80
  -3   4   6   64.39    7.90
  -3   4   6   60.09    6.00
   2  -4  -6   97.49    3.80
   2  -4  -6   89.09    7.00
   2  -4  -6   95.59    3.60
  -2   4   6   87.69    3.90
  -2   4   6   79.99   10.40
  -2   4   6   90.79    7.40
  -2   4   6   91.89    4.10
  -2   4   6  102.09    5.70
  -2   4   6   92.59    5.80
   1  -4  -6   71.09    4.60
   1  -4  -6   78.29    3.60
   1  -4  -6   77.49    4.10
   1  -4  -6   69.29    6.30
  -1   4   6   78.09    3.90
  -1   4   6   67.39    5.30
  -1   4   6   58.19    6.60
  -1   4   6   75.59    4.50
  -1   4   6   79.79    7.10
   0  -4  -6 2324.07   66.69
   0  -4  -6 2312.77   65.89
   0  -4  -6 2294.57   65.19
   0  -4  -6 2327.87   66.99
   0  -4  -6 2299.97   65.49
   0   4   6 2324.07   65.79
   0   4   6 2332.07   65.79
   0   4   6 2386.36   65.09
   0   4   6 2372.56   67.39
   0   4   6 2229.78   66.19
  -1  -4  -6 2830.22   79.19
  -1  -4  -6 2855.11   84.19
  -1  -4  -6 2747.72   82.59
  -1  -4  -6 2832.32   79.19
   1   4   6 2796.82   78.99
   1   4   6 2725.13   79.49
   1   4   6 2792.72   78.59
   1   4   6 2693.33   79.79
   1   4   6 2823.22   79.39
   1   4   6 2788.62   78.19
  -2  -4  -6  627.74   20.60
  -2  -4  -6  650.43   21.80
  -2  -4  -6  648.44   20.60
  -2  -4  -6  625.34   20.00
  -2  -4  -6  652.53   20.40
  -2  -4  -6  627.54   20.70
  -2  -4  -6  607.74   22.20
   2   4   6  618.74   21.60
   2   4   6  650.33   21.40
   2   4   6  623.44   21.00
   2   4   6  651.83   20.50
   2   4   6  644.74   20.50
   2   4   6  640.44   20.10
  -3  -4  -6    6.20    2.90
  -3  -4  -6   -1.30    2.70
  -3  -4  -6    3.90    2.30
  -3  -4  -6    7.70    3.30
  -3  -4  -6    5.00    2.60
  -3  -4  -6    9.30    3.50
   3   4   6    4.00    2.20
   3   4   6    8.00    2.80
   3   4   6    9.20    3.00
  -4  -4  -6  592.84   19.00
  -4  -4  -6  614.24   21.80
  -4  -4  -6  583.54   18.70
  -4  -4  -6  517.45   23.70
  -4  -4  -6  624.64   21.00
  -4  -4  -6  583.14   20.00
   4   4   6  578.24   20.80
   4   4   6  619.34   20.30
   4   4   6  630.54   20.30
   4   4   6  637.54   21.90
   4   4   6  593.84   21.30
  -5  -4  -6   14.60    4.00
  -5  -4  -6   13.50    2.70
  -5  -4  -6    9.50    4.20
  -5  -4  -6   11.10    4.80
  -5  -4  -6   14.90    4.80
  -5  -4  -6   11.70    2.60
   5   4   6    7.70    5.30
   5   4   6    6.80    5.20
   5   4   6    7.70    5.00
   5   4   6   16.90    3.70
   5   4   6    9.90    3.90
  -6  -4  -6  233.88    9.50
  -6  -4  -6  278.27   14.90
  -6  -4  -6  265.57   12.60
  -6  -4  -6  254.27   13.70
  -6  -4  -6  268.27   14.10
   6   4   6  242.38   10.70
   6   4   6  251.97   15.30
   6   4   6  270.57   14.80
   6   4   6  250.07   12.70
   6   4   6  263.87   14.10
  -7  -4  -6    6.20    6.10
  -7  -4  -6   -1.20    6.80
  -7  -4  -6    0.00    5.70
  -7  -4  -6    7.50    4.40
   7   4   6    7.90    7.90
   7   4   6    1.20    6.70
   7   4   6    0.60    7.10
   7   4   6   -1.70    5.80
   7   4   6    4.50    2.70
  -8  -4  -6   26.70    7.80
  -8  -4  -6   34.30    8.70
   8   4   6   18.00    8.70
   8   4   6   10.80    9.80
   6  -5  -6   12.90    5.70
  -6   5   6   17.00    9.30
  -6   5   6   23.10    7.00
  -6   5   6   20.70    9.30
  -6   5   6   16.60    5.50
  -6   5   6   22.20    3.00
   5  -5  -6  117.89   10.70
  -5   5   6  118.89   10.70
  -5   5   6  114.09   10.30
  -5   5   6  129.59   11.00
  -5   5   6  118.59   13.80
  -5   5   6  131.09    6.30
  -5   5   6  127.69   13.20
   4  -5  -6    5.90    4.30
  -4   5   6   -2.50    5.70
  -4   5   6   -1.80    4.10
  -4   5   6    2.10    5.30
  -4   5   6   -0.90    2.40
  -4   5   6   -4.20    4.00
   3  -5  -6   55.99    7.50
  -3   5   6   55.99    8.10
  -3   5   6   56.49    7.30
  -3   5   6   61.59    3.50
  -3   5   6   68.09    6.00
  -3   5   6   65.89    7.90
  -3   5   6   61.89    5.00
  -3   5   6   61.79    3.60
   2  -5  -6   56.99    3.70
   2  -5  -6   67.19    7.20
   2  -5  -6   60.99    3.30
  -2   5   6   62.99    4.00
  -2   5   6   74.99    7.70
  -2   5   6   60.59    8.50
  -2   5   6   69.89    5.10
  -2   5   6   66.29    3.80
  -2   5   6   64.99    5.10
   1  -5  -6   97.69    5.30
   1  -5  -6  104.89    7.40
   1  -5  -6   96.39    4.70
   1  -5  -6  109.99    8.20
   1  -5  -6   93.29    7.80
  -1   5   6  100.09    5.70
  -1   5   6  129.89   11.30
  -1   5   6  115.79    5.10
  -1   5   6  102.49    5.30
   0  -5  -6 1301.67   40.30
   0  -5  -6 1322.87   39.20
   0  -5  -6 1371.96   40.80
   0  -5  -6 1311.47   39.00
   0  -5  -6 1318.57   38.40
   0   5   6 1330.67   38.50
   0   5   6 1330.77   41.10
   0   5   6 1308.67   39.60
   0   5   6 1407.56   41.00
   0   5   6 1281.07   39.10
   0   5   6 1372.06   39.70
  -1  -5  -6  869.21   27.10
  -1  -5  -6  873.71   26.20
  -1  -5  -6  904.51   27.00
  -1  -5  -6  826.42   27.30
  -1  -5  -6  895.51   28.00
   1   5   6  807.92   27.50
   1   5   6  864.21   26.20
   1   5   6  862.11   28.20
   1   5   6  921.81   33.60
   1   5   6  833.82   27.00
   1   5   6  889.31   27.30
  -2  -5  -6    5.50    3.00
  -2  -5  -6    5.60    3.10
  -2  -5  -6    6.10    3.00
  -2  -5  -6    6.40    2.60
  -2  -5  -6    6.00    2.80
   2   5   6    4.30    2.70
   2   5   6   -0.50    3.70
   2   5   6   -0.70    3.00
   2   5   6    2.80    2.70
   2   5   6    8.90    2.80
   2   5   6   -1.70    3.20
  -3  -5  -6    8.20    3.10
  -3  -5  -6    6.80    3.30
  -3  -5  -6   10.00    3.00
  -3  -5  -6   11.00    4.60
   3   5   6    6.10    3.10
   3   5   6    7.40    3.30
   3   5   6    5.60    2.60
   3   5   6    7.50    3.50
   3   5   6    6.50    3.60
   3   5   6    3.10    3.90
  -4  -5  -6    1.20    3.40
  -4  -5  -6   -1.20    2.50
  -4  -5  -6   -0.30    3.50
  -4  -5  -6   -3.20    3.40
  -4  -5  -6    0.90    2.50
   4   5   6   -3.80    4.00
   4   5   6    1.60    3.40
   4   5   6   -5.20    3.40
   4   5   6   -2.60    3.10
   4   5   6   -0.60    3.70
  -5  -5  -6   38.40    4.80
  -5  -5  -6   36.70    6.10
  -5  -5  -6   28.30    5.20
  -5  -5  -6   37.30    6.50
   5   5   6   26.80    5.10
   5   5   6   29.60    6.20
   5   5   6   35.80    4.80
   5   5   6   33.40    5.60
   5   5   6   28.80    6.30
  -6  -5  -6    2.80    4.90
  -6  -5  -6   -7.20    5.30
  -6  -5  -6    0.40    2.70
  -6  -5  -6    4.80    4.80
   6   5   6    3.50    5.40
   6   5   6    5.80    6.20
   6   5   6    2.10    5.80
   6   5   6    5.40    4.60
   6   5   6    1.90    3.50
  -7  -5  -6  163.38   13.40
  -7  -5  -6  152.28   13.40
  -7  -5  -6  141.19   14.90
   7   5   6  141.99    8.40
   7   5   6  159.28   14.60
   7   5   6  134.49   12.20
   7   5   6  150.28   14.70
   7   5   6  147.99   14.20
  -8  -5  -6    5.20    7.50
  -8  -5  -6   -1.10    8.50
   8   5   6    4.20    8.90
   8   5   6   -5.20    9.00
   5  -6  -6    2.30    5.10
  -5   6   6   16.60    5.70
  -5   6   6    4.00    7.40
  -5   6   6   19.00    8.80
   4  -6  -6  324.77   16.00
  -4   6   6  340.97   18.20
  -4   6   6  348.37   15.90
  -4   6   6  370.56   17.60
  -4   6   6  333.57   13.80
  -4   6   6  308.27   11.10
  -4   6   6  318.67   10.50
   3  -6  -6   32.50    2.70
   3  -6  -6   28.30    3.90
   3  -6  -6   22.80    5.70
  -3   6   6   28.50    3.70
  -3   6   6   34.20    4.30
  -3   6   6   32.30    6.20
  -3   6   6   24.80    5.80
  -3   6   6   27.10    4.20
  -3   6   6   29.50    6.90
   2  -6  -6  683.53   23.80
   2  -6  -6  695.23   20.90
   2  -6  -6  683.43   24.20
  -2   6   6  681.33   24.30
  -2   6   6  689.33   21.30
  -2   6   6  688.03   21.00
  -2   6   6  682.93   25.20
  -2   6   6  677.33   20.80
  -2   6   6  659.23   20.60
   1  -6  -6    0.50    2.10
   1  -6  -6    0.60    1.80
   1  -6  -6   -2.00    2.00
   1  -6  -6   -2.10    4.20
   1  -6  -6   -1.10    3.10
  -1   6   6   -3.50    2.00
  -1   6   6   -2.30    4.10
  -1   6   6    0.20    2.50
  -1   6   6   -7.20    3.70
  -1   6   6   -2.90    2.30
  -1   6   6    0.00    1.70
   0  -6  -6  172.88    8.90
   0  -6  -6  162.58    7.80
   0  -6  -6  163.38    9.30
   0  -6  -6  169.18    7.10
   0  -6  -6  148.89    9.10
   0   6   6  175.38    8.50
   0   6   6  150.58   10.20
   0   6   6  162.78    7.40
   0   6   6  162.78    8.60
   0   6   6  179.08    8.90
   0   6   6  174.38   11.00
  -1  -6  -6  142.19    8.50
  -1  -6  -6  124.69    8.20
  -1  -6  -6  126.59    8.60
  -1  -6  -6  136.49    6.90
   1   6   6  136.49    7.00
   1   6   6  127.59    8.30
   1   6   6  138.79    9.30
   1   6   6  137.99    7.90
   1   6   6  130.79    7.90
  -2  -6  -6    1.90    3.10
  -2  -6  -6    1.90    3.00
  -2  -6  -6    4.70    3.50
  -2  -6  -6    3.90    2.80
  -2  -6  -6    0.70    3.00
   2   6   6    5.60    3.30
   2   6   6    4.90    3.00
   2   6   6    2.90    2.50
   2   6   6    6.20    6.20
   2   6   6    9.60    4.00
   2   6   6    3.90    3.80
  -3  -6  -6  850.71   27.40
  -3  -6  -6  852.71   27.00
  -3  -6  -6  843.52   27.90
  -3  -6  -6  814.42   29.70
  -3  -6  -6  870.71   28.60
  -3  -6  -6  872.21   28.30
   3   6   6  874.61   27.90
   3   6   6  870.01   27.10
   3   6   6  834.92   28.40
   3   6   6  844.82   26.70
   3   6   6  865.81   27.20
   3   6   6  866.61   28.50
  -4  -6  -6  133.69    8.00
  -4  -6  -6  137.49    8.60
  -4  -6  -6  147.29    9.60
  -4  -6  -6  137.19    9.60
  -4  -6  -6  112.19    9.00
   4   6   6  148.39    8.70
   4   6   6  123.69   10.20
   4   6   6  129.49    9.40
   4   6   6  128.69    9.40
   4   6   6  137.89    6.80
   4   6   6  139.99    9.10
  -5  -6  -6  113.39    7.40
  -5  -6  -6  118.79    9.50
  -5  -6  -6   93.09    9.90
  -5  -6  -6  116.99   10.70
  -5  -6  -6  102.49    8.80
   5   6   6  106.39    9.70
   5   6   6  121.79    9.90
   5   6   6   95.79    8.70
   5   6   6  103.89    9.20
   5   6   6   93.79   11.10
  -6  -6  -6  264.17   14.90
  -6  -6  -6  254.47   11.00
  -6  -6  -6  265.77   14.80
  -6  -6  -6  259.67   13.30
  -6  -6  -6  287.07   16.10
   6   6   6  250.97   13.30
   6   6   6  265.37   15.90
   6   6   6  248.08   15.90
   6   6   6  286.17   15.10
   6   6   6  251.77   12.60
  -7  -6  -6   -3.90    6.90
  -7  -6  -6   11.30    6.80
  -7  -6  -6    2.00    5.60
  -7  -6  -6    4.00    3.30
  -7  -6  -6   -3.60    8.40
   7   6   6   -6.40    7.60
   7   6   6    2.40    8.10
   7   6   6    0.70    8.70
   7   6   6   -2.90    3.90
   7   6   6   -3.40    7.40
  -8  -6  -6   47.20   10.20
  -8  -6  -6   38.00    7.30
  -8  -6  -6   41.90    9.10
   8   6   6   20.10   10.90
   5  -7  -6    3.70    5.70
  -5   7   6    4.20    1.80
  -5   7   6   11.20   14.40
  -5   7   6    1.20    6.00
  -5   7   6    4.70    2.00
   4  -7  -6   17.30    5.90
  -4   7   6   26.50    6.50
  -4   7   6   33.20    4.30
  -4   7   6   29.60    7.50
  -4   7   6   18.20    8.90
   3  -7  -6    3.70    1.90
   3  -7  -6    6.70    2.60
   3  -7  -6    1.00    5.40
  -3   7   6   -0.10    4.90
  -3   7   6   -3.30    5.20
  -3   7   6    2.70    6.00
  -3   7   6    6.70    2.60
   2  -7  -6   99.59    9.10
   2  -7  -6   94.09    5.40
   2  -7  -6  101.39    6.00
   2  -7  -6   79.39    9.80
  -2   7   6   91.09    6.00
  -2   7   6   91.99   10.20
  -2   7   6   94.49   11.30
   1  -7  -6   66.39    4.60
   1  -7  -6   63.69    5.50
   1  -7  -6   71.19    7.90
   1  -7  -6   71.39    8.20
   1  -7  -6   60.69    5.00
  -1   7   6   63.39    9.30
  -1   7   6   59.19    5.20
  -1   7   6   56.99    7.10
  -1   7   6   62.29    5.70
   0  -7  -6   -0.30    3.30
   0  -7  -6   -8.40    3.50
   0  -7  -6    0.00    2.30
   0  -7  -6   -4.50    2.40
   0  -7  -6    1.70    2.90
   0   7   6    0.00    3.30
   0   7   6   -7.80    4.40
   0   7   6    1.60    3.10
  -1  -7  -6   21.80    4.10
  -1  -7  -6   25.40    5.10
  -1  -7  -6   21.50    3.50
  -1  -7  -6   16.80    4.90
  -1  -7  -6   19.30    3.90
   1   7   6   23.80    4.60
   1   7   6   13.90    5.40
   1   7   6   11.60    3.30
   1   7   6   19.10    2.30
   1   7   6    5.90    4.30
   1   7   6   11.50    4.00
  -2  -7  -6  189.68   10.50
  -2  -7  -6  184.58   10.00
  -2  -7  -6  188.18    9.00
  -2  -7  -6  165.38   10.20
   2   7   6  176.38    9.10
   2   7   6  191.58   11.30
   2   7   6  188.28   10.60
   2   7   6  177.28   10.10
   2   7   6  175.88    9.90
   2   7   6  187.98    7.60
  -3  -7  -6   -1.10    3.40
  -3  -7  -6   -3.50    3.10
  -3  -7  -6   -3.90    3.70
  -3  -7  -6    1.20    3.80
  -3  -7  -6   -7.20    3.10
   3   7   6   -1.40    6.00
   3   7   6   -5.80    3.20
   3   7   6   -1.10    4.50
   3   7   6   -3.30    3.50
   3   7   6    1.60    3.00
   3   7   6    0.00    4.60
  -4  -7  -6  111.39    8.50
  -4  -7  -6  109.29    9.10
  -4  -7  -6  119.19    8.80
  -4  -7  -6  113.39    9.70
  -4  -7  -6  107.39    9.60
  -4  -7  -6  110.09    8.10
   4   7   6  109.19   10.50
   4   7   6  122.49   10.00
   4   7   6  111.49    8.70
   4   7   6  112.79    8.70
   4   7   6  115.89    7.00
   4   7   6  114.29    9.40
  -5  -7  -6   48.10    6.30
  -5  -7  -6   38.00    7.00
  -5  -7  -6   52.09    7.20
  -5  -7  -6   47.90    7.40
  -5  -7  -6   47.00    7.30
   5   7   6   43.30    7.00
   5   7   6   40.90    6.10
   5   7   6   56.39    8.40
   5   7   6   46.30    8.00
   5   7   6   58.99    8.90
  -6  -7  -6  159.38   13.00
  -6  -7  -6  160.88   10.30
  -6  -7  -6  188.58   14.90
  -6  -7  -6  163.48    9.60
  -6  -7  -6  142.19   13.00
   6   7   6  161.48   11.20
   6   7   6  158.58   12.00
   6   7   6  162.48   13.00
   6   7   6  160.88   14.50
   6   7   6  174.28   13.30
  -7  -7  -6   -5.40    6.30
  -7  -7  -6   -1.10    8.00
  -7  -7  -6   -2.10    5.30
  -7  -7  -6    0.60    4.10
   7   7   6  -10.50    7.50
   7   7   6   -2.70    9.00
   7   7   6    4.00    4.90
   4  -8  -6    4.80    6.80
   4  -8  -6    8.40    2.40
   4  -8  -6   10.20    2.30
  -4   8   6   24.70    8.60
  -4   8   6   10.30    3.10
  -4   8   6   11.80    6.70
   3  -8  -6   58.29    5.40
   3  -8  -6   44.60    7.00
   3  -8  -6   39.80    4.50
   3  -8  -6   30.20    6.80
  -3   8   6   48.40    5.60
  -3   8   6   49.00    7.50
  -3   8   6   43.50   10.00
   2  -8  -6   72.59    9.50
   2  -8  -6   82.69    6.70
   2  -8  -6   83.69    6.20
   2  -8  -6   83.99    9.90
  -2   8   6   87.79   11.70
  -2   8   6   86.99    6.50
  -2   8   6   95.79   11.20
   1  -8  -6   10.20    4.90
   1  -8  -6    8.50    5.70
   1  -8  -6   17.90    3.00
   1  -8  -6   16.00    3.80
   1  -8  -6   14.60    2.60
  -1   8   6   15.30    3.60
  -1   8   6   22.10    6.20
  -1   8   6    9.80    5.70
   0  -8  -6  338.77   13.80
   0  -8  -6  332.77   12.50
   0  -8  -6  307.27   15.20
   0  -8  -6  330.47   15.70
   0  -8  -6  322.57   12.60
   0   8   6  362.06   15.20
   0   8   6  344.87   16.50
   0   8   6  330.77   13.50
   0   8   6  325.97   12.90
   0   8   6  319.87   15.90
  -1  -8  -6   11.80    3.90
  -1  -8  -6   16.00    5.40
  -1  -8  -6    8.20    3.40
  -1  -8  -6    7.10    3.50
  -1  -8  -6   16.70    5.00
   1   8   6    9.40    4.90
   1   8   6   16.80    4.90
   1   8   6    6.50    5.70
   1   8   6   15.10    4.60
  -2  -8  -6   -2.50    3.70
  -2  -8  -6   -1.90    3.20
  -2  -8  -6   -3.90    4.30
  -2  -8  -6    0.80    4.20
  -2  -8  -6    4.00    3.80
   2   8   6   -0.80    4.10
   2   8   6    3.20    2.20
   2   8   6   -0.70    5.50
   2   8   6   -7.00    3.60
   2   8   6   -0.60    4.20
   2   8   6    1.40    4.30
  -3  -8  -6   33.40    5.60
  -3  -8  -6   45.80    6.60
  -3  -8  -6   36.80    5.70
  -3  -8  -6   30.70    4.60
   3   8   6   25.00    5.80
   3   8   6   28.70    5.50
   3   8   6   25.30    4.80
   3   8   6   31.30    5.20
   3   8   6   31.50    4.20
   3   8   6   21.90    6.20
  -4  -8  -6  118.99   10.40
  -4  -8  -6  131.49    9.30
  -4  -8  -6  146.89   10.50
  -4  -8  -6  114.49   11.00
   4   8   6  130.99   11.70
   4   8   6  157.88   10.20
   4   8   6  133.29   10.60
   4   8   6  129.59    9.20
   4   8   6  131.19   11.10
   4   8   6  129.39   11.00
  -5  -8  -6   27.00    6.40
  -5  -8  -6   20.50    6.30
  -5  -8  -6   23.70    5.80
  -5  -8  -6   25.10    6.00
  -5  -8  -6   27.20    5.20
   5   8   6   19.70    5.70
   5   8   6   31.70    7.30
   5   8   6   24.40    3.40
   5   8   6   23.30    6.40
   5   8   6   15.80    7.10
   5   8   6   21.10    6.10
  -6  -8  -6  124.49   15.10
  -6  -8  -6  111.79   10.30
  -6  -8  -6  121.49   11.00
  -6  -8  -6  135.09   12.20
  -6  -8  -6  135.29   14.00
   6   8   6  112.19   12.80
   6   8   6  127.29   11.60
   6   8   6  126.69   12.80
   6   8   6  147.59   14.00
   6   8   6  101.59   15.60
  -7  -8  -6   57.49    9.20
  -7  -8  -6   66.79    8.80
  -7  -8  -6   88.09   11.70
  -7  -8  -6   61.39   10.70
   7   8   6   65.59   10.60
   7   8   6   68.69   10.70
   7   8   6   95.59   14.40
   3  -9  -6   35.30    7.90
   3  -9  -6   37.50    4.80
  -3   9   6   48.00    6.40
  -3   9   6   47.10    8.20
   2  -9  -6   11.80    6.70
   2  -9  -6   10.40    4.10
   2  -9  -6    0.20    6.10
   2  -9  -6   20.10    4.10
  -2   9   6   13.20    9.00
  -2   9   6   17.70    4.10
   1  -9  -6   -3.90    3.90
   1  -9  -6    1.10    3.20
   1  -9  -6   -3.10    2.10
   1  -9  -6   -1.90    5.50
   1  -9  -6    1.20    5.20
  -1   9   6   -0.60    6.10
  -1   9   6    6.80    7.10
  -1   9   6    1.90    3.70
   0  -9  -6   65.89    8.00
   0  -9  -6   60.59    9.20
   0  -9  -6   54.99    7.60
   0  -9  -6   68.59    6.50
   0   9   6   62.99    8.00
   0   9   6   75.09    9.30
   0   9   6   57.89    8.60
   0   9   6   72.89    7.00
   0   9   6   58.99    7.90
  -1  -9  -6   22.90    4.40
  -1  -9  -6   13.40    5.40
  -1  -9  -6   29.00    4.90
  -1  -9  -6   11.80    4.60
  -1  -9  -6   14.00    5.70
   1   9   6   19.90    4.60
   1   9   6   17.70    5.10
   1   9   6   24.30    7.00
   1   9   6   32.20    6.30
   1   9   6   28.50    6.70
  -2  -9  -6   43.60    5.40
  -2  -9  -6   50.49    7.70
  -2  -9  -6   28.90    6.30
  -2  -9  -6   67.39    8.50
  -2  -9  -6   43.70    7.10
   2   9   6   50.89    7.90
   2   9   6   34.20    5.20
   2   9   6   41.10    6.60
   2   9   6   56.89    7.10
   2   9   6   37.10    6.50
  -3  -9  -6   60.09    8.90
  -3  -9  -6   79.09    8.00
  -3  -9  -6   95.39    9.50
  -3  -9  -6   75.89    9.90
  -3  -9  -6   53.49    6.90
   3   9   6   84.29    9.90
   3   9   6   60.29    7.70
   3   9   6   69.09    8.60
   3   9   6   66.29    8.90
   3   9   6   65.19    5.70
   3   9   6   64.09    8.80
  -4  -9  -6   66.09    9.90
  -4  -9  -6   83.39   10.40
  -4  -9  -6   60.09    8.20
  -4  -9  -6   79.29   10.70
   4   9   6   72.69    9.70
   4   9   6   67.79    9.50
   4   9   6   73.19    7.50
   4   9   6   78.39   10.50
   4   9   6   57.09    7.80
   4   9   6   62.19    8.50
  -5  -9  -6   91.39   12.80
  -5  -9  -6   69.29   10.50
  -5  -9  -6   80.99    9.50
  -5  -9  -6   75.59    9.00
   5   9   6   80.09   11.60
   5   9   6   57.79    6.60
   5   9   6   62.59    7.50
   5   9   6   84.59   12.60
   5   9   6   55.19    8.20
   5   9   6   62.09    8.00
  -6  -9  -6    4.20    6.50
  -6  -9  -6   14.00    8.50
  -6  -9  -6    9.00    6.20
  -6  -9  -6    0.10    5.20
   6   9   6   13.00    8.10
   6   9   6   -1.00    6.30
   6   9   6    4.70    7.00
   2 -10  -6   45.10    5.50
   2 -10  -6   51.29    9.10
   2 -10  -6   26.10    5.80
   2 -10  -6   43.60   10.10
  -2  10   6   22.90    7.70
  -2  10   6   38.20    5.30
   1 -10  -6   -0.70    4.70
   1 -10  -6    0.10    2.20
   1 -10  -6   -4.90    3.50
   1 -10  -6  -10.50    7.00
  -1  10   6   -3.50    6.70
  -1  10   6   -2.60    3.90
  -1  10   6   -3.60    8.30
   0 -10  -6   -8.60    6.30
   0 -10  -6   -3.50    3.70
   0 -10  -6   -4.20    5.80
   0 -10  -6    3.10    5.30
   0 -10  -6    0.00    4.80
   0  10   6   -5.30    4.30
   0  10   6  -10.20    6.10
   0  10   6   21.90    7.40
   0  10   6   12.40    7.70
   0  10   6   15.30    4.90
  -1 -10  -6   -4.00    3.90
  -1 -10  -6    2.70    5.60
  -1 -10  -6   -0.30    5.80
  -1 -10  -6   -4.00    4.70
  -1 -10  -6   -3.90    3.80
   1  10   6   -3.30    4.80
   1  10   6    1.70    6.20
   1  10   6   -5.00    5.20
   1  10   6    0.30    4.40
   1  10   6   -3.40    6.50
  -2 -10  -6  134.19   12.40
  -2 -10  -6  136.09   10.70
  -2 -10  -6  140.29    9.70
  -2 -10  -6  147.39   12.00
  -2 -10  -6  129.69   11.90
   2  10   6  153.28   10.80
   2  10   6  165.88   12.90
   2  10   6  169.68   14.10
   2  10   6  132.49   12.30
   2  10   6  139.09   11.40
  -3 -10  -6   70.79   10.10
  -3 -10  -6   78.69   10.90
  -3 -10  -6   64.19    9.40
  -3 -10  -6   51.79    8.30
  -3 -10  -6   64.89    8.60
   3  10   6   79.89   12.00
   3  10   6   75.89    9.80
   3  10   6   57.79    8.30
   3  10   6   66.39   10.20
   3  10   6   41.50    7.60
  -4 -10  -6    1.20    6.60
  -4 -10  -6   19.90    7.10
  -4 -10  -6   12.40    5.50
  -4 -10  -6    7.00    6.30
   4  10   6   10.10    6.90
   4  10   6    5.60    6.30
   4  10   6    6.90    5.20
   4  10   6   19.10    7.70
   4  10   6   16.60    7.30
  -5 -10  -6   -4.30    6.50
  -5 -10  -6    0.60    7.60
  -5 -10  -6    1.10    5.20
   5  10   6   -0.20    7.50
   5  10   6    3.20    7.30
   5  10   6   -2.70    5.40
   5  10   6  -14.00    6.50
   5  10   6    5.40    4.30
  -6 -10  -6   17.10    6.80
  -6 -10  -6   20.80    8.10
   6  10   6   33.90    9.40
   6  10   6   24.30    7.80
   6  10   6   13.30    7.90
   1 -11  -6    8.40    2.20
   1 -11  -6    6.80    7.20
   1 -11  -6    4.90    4.70
  -1  11   6    9.30    5.20
  -1  11   6    5.80    7.80
   0 -11  -6   33.50    5.70
   0 -11  -6   34.00    8.10
   0 -11  -6   27.20    5.60
   0  11   6   29.80    6.30
   0  11   6   27.00    8.60
   0  11   6   26.50    6.40
  -1 -11  -6   10.70    7.10
  -1 -11  -6   20.50    5.20
  -1 -11  -6   16.30    5.10
   1  11   6   16.70    5.90
   1  11   6   13.80    7.70
   1  11   6   15.60    6.20
   1  11   6   20.60    8.80
  -2 -11  -6   50.69    6.90
  -2 -11  -6   50.49    6.80
   2  11   6   55.29    8.00
   2  11   6   46.40    9.40
   2  11   6   58.39    7.80
   2  11   6   60.89    9.20
  -3 -11  -6   -1.20    5.00
  -3 -11  -6   16.50    6.60
   3  11   6    0.90    7.10
   3  11   6    0.40    6.70
   3  11   6   13.00    6.70
   3  11   6    0.50    6.50
  -4 -11  -6   29.30    8.10
  -4 -11  -6   32.20    7.50
   4  11   6   35.20    8.60
   4  11   6   20.50    8.00
   4  11   6   24.60    9.00
  -5 -11  -6  118.19   12.50
   5  11   6  102.99   15.30
   5  11   6  107.99   15.50
  -1 -12  -6    3.90    6.30
  -1 -12  -6   -4.30    5.50
  -1 -12  -6    9.40    5.70
   1  12   6    9.30    8.90
   1  12   6    2.40    6.20
  -2 -12  -6   11.90    7.30
  -2 -12  -6   12.80    6.50
  -2 -12  -6    4.50    5.70
   2  12   6   12.60    8.60
   2  12   6   15.30   10.80
   2  12   6    7.50    8.20
   2  12   6    6.30    6.80
  -3 -12  -6    0.20    7.30
  -3 -12  -6   -0.40    6.60
   3  12   6   -5.70    8.60
   3  12   6   16.10    9.00
   3  12   6    0.40    7.30
   3  12   6    1.60    8.50
   3  11  -7   21.90    7.30
   3  11  -7   19.70    7.30
  -3 -11   7   18.80    6.60
  -3 -11   7   13.40    7.00
  -3 -11   7    3.70    7.70
   2  11  -7   41.70    7.90
   2  11  -7   32.00    7.70
  -2 -11   7   49.10    8.50
  -2 -11   7   46.40    8.00
  -2 -11   7   42.80    8.00
   1  11  -7   34.90    7.20
   1  11  -7   42.10    8.40
  -1 -11   7   36.20    6.60
  -1 -11   7   39.20    7.70
   0  11  -7  133.79   16.50
   0  11  -7  151.88   13.00
   0 -11   7  159.48   13.50
   0 -11   7  151.68   11.00
   5  10  -7   54.39   11.40
   5  10  -7   39.50    7.40
   5  10  -7   48.90    8.10
   5  10  -7   48.70    7.80
  -5 -10   7   78.89   11.50
  -5 -10   7   87.39   11.60
  -5 -10   7   51.19   11.50
   4  10  -7   30.30    6.80
   4  10  -7   29.20    7.20
  -4 -10   7   35.30    9.20
  -4 -10   7   29.70    8.70
  -4 -10   7   24.60    6.60
   3  10  -7   65.79    8.10
   3  10  -7  102.79   11.00
  -3 -10   7  104.99   13.10
  -3 -10   7   85.39   10.90
  -3 -10   7   81.19   12.30
   2  10  -7    2.50    4.80
   2  10  -7    1.90   10.00
  -2 -10   7    6.70    4.70
  -2 -10   7    2.50    5.10
  -2 -10   7   -4.80    6.40
  -2 -10   7    6.80    6.10
   1  10  -7   32.60    6.90
   1  10  -7   41.70    6.70
   1  10  -7   35.40    6.20
  -1 -10   7   48.30    7.30
  -1 -10   7   34.90    7.60
  -1 -10   7   44.00    6.30
   0  10  -7   17.60    5.90
   0  10  -7   10.80    6.40
   0 -10   7   19.10    4.80
   0 -10   7   10.60    9.40
   0 -10   7   19.60    6.20
  -1  10  -7    1.40    6.80
  -1  10  -7    7.10    5.70
   1 -10   7   18.30    4.60
   1 -10   7   11.00    6.50
  -2  10  -7  206.48   15.70
  -2  10  -7  233.98   14.90
   2 -10   7  206.78   14.70
   2 -10   7  205.68   11.00
   5   9  -7  309.77   19.30
   5   9  -7  280.37   15.10
   5   9  -7  266.07   15.00
   5   9  -7  316.37   15.50
  -5  -9   7  293.67   19.70
  -5  -9   7  305.67   18.50
  -5  -9   7  324.67   15.50
  -5  -9   7  255.27   18.70
   4   9  -7   71.49    9.90
   4   9  -7   60.79    8.60
   4   9  -7   74.89    9.70
   4   9  -7   55.19    8.90
  -4  -9   7   46.90    8.60
  -4  -9   7   78.89    9.60
   3   9  -7   16.10    5.60
   3   9  -7   17.40    5.00
   3   9  -7   25.80    5.60
  -3  -9   7   23.30    6.60
  -3  -9   7   22.20    5.70
  -3  -9   7   12.10    5.90
  -3  -9   7   14.60    6.60
   2   9  -7   28.30    5.60
   2   9  -7   27.70    5.00
   2   9  -7   35.40    6.20
  -2  -9   7   33.00    9.70
  -2  -9   7   31.50    5.70
  -2  -9   7   25.60    6.00
  -2  -9   7   31.20    7.00
   1   9  -7   19.00    4.60
   1   9  -7   17.20    5.00
   1   9  -7   10.00    5.10
  -1  -9   7   16.50    5.30
  -1  -9   7   17.40    5.60
  -1  -9   7    8.50    4.20
  -1  -9   7   16.90    6.40
   0   9  -7  105.79   10.50
   0   9  -7  111.79   10.00
   0  -9   7   91.29    8.40
   0  -9   7  121.49   10.10
   0  -9   7  111.49   12.50
   0  -9   7  115.69   10.40
  -1   9  -7    8.70    5.10
  -1   9  -7   -3.40    4.90
   1  -9   7    1.80    5.40
   1  -9   7    2.50    3.80
   1  -9   7    0.60    6.30
   1  -9   7    2.60    5.10
  -2   9  -7  115.89   11.20
  -2   9  -7   96.49   11.40
   2  -9   7   98.09   10.90
   2  -9   7  106.59    8.20
   2  -9   7  100.89   14.40
  -3   9  -7   -1.70    6.90
  -3   9  -7   -2.30    5.50
   3  -9   7    8.80    8.30
   3  -9   7    2.70   12.80
   3  -9   7   11.80    4.10
   6   8  -7    4.90    8.80
   6   8  -7    8.90    5.20
   6   8  -7  -11.20    4.90
   6   8  -7    2.60    4.90
  -6  -8   7   -9.80    7.10
  -6  -8   7   -0.30    5.00
  -6  -8   7    5.00    6.90
   5   8  -7    4.70    7.60
   5   8  -7   16.70    5.50
   5   8  -7   18.20    5.20
   5   8  -7   22.20    5.50
   5   8  -7   23.50    4.90
  -5  -8   7   28.90    7.20
  -5  -8   7    9.30    6.20
  -5  -8   7   20.60    5.50
  -5  -8   7   16.80    8.50
   4   8  -7   10.50    6.40
   4   8  -7    2.60    4.40
   4   8  -7   12.10    4.90
   4   8  -7   11.60    4.90
   4   8  -7   14.00    4.50
  -4  -8   7    9.60    6.20
  -4  -8   7   15.40    5.50
  -4  -8   7   10.00    5.80
  -4  -8   7   20.80    6.10
   3   8  -7  137.79    9.20
   3   8  -7  128.99    8.60
   3   8  -7  146.09   10.00
  -3  -8   7  135.49    9.80
  -3  -8   7  142.09   11.10
  -3  -8   7  122.29   11.60
  -3  -8   7  133.79   11.30
   2   8  -7   96.09    8.70
   2   8  -7  111.79    7.90
   2   8  -7  107.19    8.70
  -2  -8   7   97.69    8.60
  -2  -8   7   97.49    8.80
  -2  -8   7  111.19    9.50
  -2  -8   7  106.39   11.00
   1   8  -7    7.70    4.10
   1   8  -7    8.40    3.50
   1   8  -7   10.50    4.40
  -1  -8   7    0.60    4.90
  -1  -8   7    4.20    4.50
  -1  -8   7    3.10    3.50
  -1  -8   7    6.90    4.30
   0   8  -7   23.50    5.30
   0   8  -7   25.70    5.20
   0  -8   7   28.30    4.50
   0  -8   7   25.30    5.10
   0  -8   7   22.00    5.60
   0  -8   7   21.70    5.30
  -1   8  -7  126.19    9.70
  -1   8  -7  127.59   10.10
   1  -8   7  102.39   11.40
   1  -8   7  128.19   10.20
   1  -8   7  132.29    8.50
   1  -8   7  119.29    9.40
  -2   8  -7   26.80    5.70
  -2   8  -7   25.20    5.30
   2  -8   7   29.70    6.30
   2  -8   7   20.00    6.40
   2  -8   7   24.60    4.40
   2  -8   7   25.80    6.10
  -3   8  -7  135.49   11.60
  -3   8  -7  135.29   11.40
   3  -8   7  126.59    8.60
   3  -8   7  124.99   12.20
   3  -8   7  155.18   13.10
  -4   8  -7  241.78   14.60
  -4   8  -7  217.88   15.20
   4  -8   7  237.38   16.40
   4  -8   7  209.98   16.20
   7   7  -7    7.50    9.50
   7   7  -7    4.10    5.00
   7   7  -7   17.70    6.90
  -7  -7   7    8.30    5.20
  -7  -7   7    7.60    6.60
  -7  -7   7    0.20    7.10
  -7  -7   7   15.30    6.30
   6   7  -7   15.30    4.80
   6   7  -7   18.00    8.60
   6   7  -7   18.10    4.90
  -6  -7   7   18.40    9.00
  -6  -7   7   23.90    5.10
  -6  -7   7   25.60    6.10
  -6  -7   7   29.80    6.70
   5   7  -7   15.40    4.20
   5   7  -7   22.50    4.40
   5   7  -7   29.10    5.20
   5   7  -7   11.90    4.70
  -5  -7   7    5.50    5.70
  -5  -7   7   25.40    5.60
  -5  -7   7   14.60    7.20
   4   7  -7    9.10    4.20
   4   7  -7   12.70    4.50
   4   7  -7    2.90    5.50
   4   7  -7    8.40    3.90
  -4  -7   7    6.20    4.70
  -4  -7   7    8.20    4.20
  -4  -7   7   -2.40    5.50
  -4  -7   7    0.40    5.00
   3   7  -7  324.17   16.10
   3   7  -7  335.57   13.90
   3   7  -7  370.26   14.60
   3   7  -7  369.16   13.80
  -3  -7   7  352.06   16.20
  -3  -7   7  357.46   16.40
  -3  -7   7  345.97   14.40
   2   7  -7   15.40    4.30
   2   7  -7   25.00    3.80
   2   7  -7   13.60    4.10
  -2  -7   7   20.00    5.00
  -2  -7   7   18.10    4.30
  -2  -7   7   15.20    4.40
  -2  -7   7   15.10    4.60
   1   7  -7  228.68   11.00
   1   7  -7  211.78   11.10
   1   7  -7  235.58   10.20
  -1  -7   7  230.88   11.50
  -1  -7   7  231.18   12.90
  -1  -7   7  212.88   11.20
  -1  -7   7  220.58   11.00
   0   7  -7   10.80    4.00
   0   7  -7   12.90    4.10
   0  -7   7   11.70    4.10
   0  -7   7    6.30    3.90
   0  -7   7   12.70    3.80
   0  -7   7   12.80    4.50
  -1   7  -7   23.00    3.00
  -1   7  -7   23.40    4.30
  -1   7  -7   28.40    5.00
   1  -7   7   24.40    4.30
   1  -7   7   20.70    5.20
   1  -7   7   12.80    4.40
   1  -7   7   22.00    4.60
  -2   7  -7   55.59    6.20
  -2   7  -7   66.99    7.80
   2  -7   7   42.50    5.60
   2  -7   7   52.89    6.30
   2  -7   7   67.19    8.90
   2  -7   7   59.09    8.30
  -3   7  -7   -2.90    4.40
  -3   7  -7   -0.90    4.30
   3  -7   7   -1.40    3.30
   3  -7   7   -0.70    4.90
   3  -7   7   -0.70    5.10
   3  -7   7    3.20    4.70
  -4   7  -7   86.39   10.20
  -4   7  -7   50.99    7.70
  -4   7  -7   51.39    7.60
   4  -7   7   63.39    8.70
   4  -7   7   65.49    7.60
   4  -7   7   62.99    7.90
  -5   7  -7   -5.20    6.60
  -5   7  -7   -4.40    6.20
  -5   7  -7   -6.00    6.00
   5  -7   7   -0.10    7.50
   5  -7   7  -14.60    7.70
   5  -7   7    0.10    5.30
   5  -7   7    8.90    6.40
   7   6  -7   -5.80    4.10
   7   6  -7    2.20    5.10
   7   6  -7    4.30    8.10
   7   6  -7   -1.80    5.60
  -7  -6   7   -4.40    5.50
  -7  -6   7    2.30    6.10
  -7  -6   7   -5.90    5.40
   6   6  -7   23.10    5.10
   6   6  -7   22.80    4.50
   6   6  -7   20.80    5.10
   6   6  -7   22.70    7.60
   6   6  -7   20.90    4.70
  -6  -6   7   16.70    5.70
  -6  -6   7   23.60    5.20
  -6  -6   7   33.90    9.80
  -6  -6   7   21.70    5.30
   5   6  -7  117.49   12.50
   5   6  -7   96.99    8.00
   5   6  -7  109.09    9.30
   5   6  -7  111.59    8.00
   5   6  -7  120.09    9.10
  -5  -6   7  119.89   10.30
  -5  -6   7   98.69    8.10
  -5  -6   7  108.99    9.50
  -5  -6   7  133.29   11.70
   4   6  -7   24.50    4.20
   4   6  -7   37.60    5.00
   4   6  -7   27.20    6.30
   4   6  -7   34.10    5.30
   4   6  -7   21.20    3.90
  -4  -6   7   33.90    5.80
  -4  -6   7   38.00    6.50
  -4  -6   7   28.30    4.70
  -4  -6   7   26.30    4.30
   3   6  -7   90.59    9.00
   3   6  -7   78.99    5.90
   3   6  -7   74.09    6.30
   3   6  -7   87.39    7.00
   3   6  -7   92.99    8.30
  -3  -6   7   82.59    7.00
  -3  -6   7   85.89    8.60
  -3  -6   7   96.59    9.00
  -3  -6   7   73.39    8.80
   2   6  -7  283.77   11.40
   2   6  -7  283.57   10.70
   2   6  -7  260.77   12.60
   2   6  -7  255.37   11.50
  -2  -6   7  284.97   13.60
  -2  -6   7  264.07   11.60
  -2  -6   7  263.57   12.20
  -2  -6   7  261.67   11.80
   1   6  -7  109.99    7.90
   1   6  -7  110.19    6.30
   1   6  -7  105.89    7.60
   1   6  -7  118.09    7.50
  -1  -6   7  113.39    7.70
  -1  -6   7  114.29    7.60
  -1  -6   7   97.39    8.60
  -1  -6   7  115.39    7.90
   0   6  -7  248.38   10.90
   0  -6   7  220.28   10.70
  -1   6  -7   67.99    7.20
  -1   6  -7   71.29    4.60
  -1   6  -7   69.09    6.90
   1  -6   7   78.99    7.60
   1  -6   7   56.89    8.10
   1  -6   7   70.89    7.20
   1  -6   7   67.89    6.40
  -2   6  -7   19.40    4.30
  -2   6  -7   15.60    4.50
   2  -6   7   15.00    4.40
   2  -6   7   10.50    4.20
   2  -6   7   13.80    4.60
   2  -6   7   18.90    3.80
  -3   6  -7  170.48    9.90
  -3   6  -7  168.48   10.50
   3  -6   7  168.78   10.10
   3  -6   7  154.48   10.50
   3  -6   7  148.79   10.70
   3  -6   7  154.28    8.80
  -4   6  -7   -5.50    4.20
  -4   6  -7    2.60    5.00
  -4   6  -7    5.10    4.80
   4  -6   7   -1.20    3.80
   4  -6   7    9.00    5.50
   4  -6   7   -2.10    4.40
   4  -6   7    6.40    5.00
  -5   6  -7    6.90    6.30
  -5   6  -7    8.60    6.00
  -5   6  -7    3.70    5.50
   5  -6   7   -1.60    6.90
   5  -6   7    1.90    4.50
   5  -6   7   10.40    9.50
   5  -6   7   -0.90    5.00
   7   5  -7   20.80    8.20
   7   5  -7   36.50    6.30
   7   5  -7   21.60    4.50
  -7  -5   7   19.70    6.00
  -7  -5   7   17.70    5.80
  -7  -5   7   23.20    5.50
  -7  -5   7   22.50    4.80
   6   5  -7   13.40    4.60
   6   5  -7   11.60    3.70
   6   5  -7    8.50    4.30
   6   5  -7   11.20    6.90
   6   5  -7   12.10    3.90
  -6  -5   7   25.30    8.00
  -6  -5   7    5.90    4.30
  -6  -5   7   10.30    5.00
  -6  -5   7    7.60    3.70
  -6  -5   7   16.70    4.90
   5   5  -7   90.79    8.30
   5   5  -7   80.09    6.60
   5   5  -7   77.79    6.60
   5   5  -7   64.39    6.10
  -5  -5   7   62.49    8.30
  -5  -5   7   63.79    6.40
  -5  -5   7   59.19    8.40
  -5  -5   7   80.09    7.20
  -5  -5   7   73.99    8.00
   4   5  -7   24.40    3.80
   4   5  -7   27.70    3.60
   4   5  -7   29.50    4.40
   4   5  -7   23.80    5.90
  -4  -5   7   42.20    6.90
  -4  -5   7   21.40    3.80
  -4  -5   7   18.50    5.00
  -4  -5   7   20.80    3.90
   3   5  -7   85.79    6.00
   3   5  -7   84.69    8.60
   3   5  -7   87.79    7.90
   3   5  -7   84.79    5.40
   3   5  -7   87.39    6.40
  -3  -5   7   84.69    6.40
  -3  -5   7   94.89    6.80
  -3  -5   7   76.49    8.00
   2   5  -7    6.00    2.10
   2   5  -7    7.50    2.60
   2   5  -7    2.60    3.30
   2   5  -7    7.60    2.90
  -2  -5   7    1.20    2.70
  -2  -5   7    7.10    2.90
  -2  -5   7    3.90    3.00
   1   5  -7  813.82   26.30
   1   5  -7  815.82   25.10
   1   5  -7  840.82   26.00
   1   5  -7  811.72   26.00
  -1  -5   7  888.11   28.10
  -1  -5   7  787.42   26.50
  -1  -5   7  858.41   26.30
   0   5  -7    1.70    2.30
   0   5  -7    1.60    3.00
   0   5  -7   -1.40    2.60
   0  -5   7    2.00    2.70
   0  -5   7   -4.20    2.60
  -1   5  -7 1941.51   57.49
  -1   5  -7 1973.00   57.39
  -1   5  -7 1902.91   55.09
   1  -5   7 2050.69   57.69
   1  -5   7 1968.80   57.79
   1  -5   7 1917.31   57.39
   1  -5   7 2047.20   58.89
  -3   5  -7  173.58    9.60
  -3   5  -7  183.78    8.40
  -3   5  -7  170.28   10.10
   3  -5   7  176.58    9.40
   3  -5   7  176.98   10.30
   3  -5   7  174.08   11.00
   3  -5   7  178.98   10.10
  -4   5  -7   48.30    5.80
  -4   5  -7   41.50    6.00
  -4   5  -7   49.00    5.30
  -4   5  -7   47.90    6.70
   4  -5   7   48.60    6.10
   4  -5   7   39.00    6.30
   4  -5   7   52.89    7.10
  -5   5  -7   35.70    5.90
  -5   5  -7   16.30    3.80
  -5   5  -7   20.20    5.80
  -5   5  -7   16.20    6.20
   5  -5   7   19.70    6.70
   5  -5   7   23.40    4.10
   5  -5   7   14.40    4.70
   5  -5   7   25.30    7.90
   5  -5   7   27.80    6.20
  -6   5  -7   28.30    7.10
  -6   5  -7   35.90    8.30
  -6   5  -7   26.40    4.80
  -6   5  -7   26.20    6.80
   6  -5   7   23.90    7.80
   6  -5   7   27.50    6.70
   6  -5   7   24.90    9.50
   7   4  -7   -9.10    6.80
   7   4  -7    2.60    3.10
  -7  -4   7   -1.10    5.10
  -7  -4   7   -2.60    5.00
  -7  -4   7    6.90    3.40
  -7  -4   7   -2.40    4.30
   6   4  -7   68.79    7.50
   6   4  -7   68.79    5.80
   6   4  -7   71.89    5.90
   6   4  -7   54.29   10.10
  -6  -4   7   48.40    6.90
  -6  -4   7   67.79    8.00
  -6  -4   7   70.19    6.30
  -6  -4   7   43.30    6.00
  -6  -4   7   49.60    9.30
   5   4  -7   -3.60    2.60
   5   4  -7    0.70    4.70
   5   4  -7   -2.50    3.70
   5   4  -7    1.90    3.80
  -5  -4   7    2.00    2.70
  -5  -4   7   -4.30    2.70
  -5  -4   7    1.40    3.20
  -5  -4   7   -6.80    5.10
   4   4  -7  222.78   12.90
   4   4  -7  242.58    9.80
   4   4  -7  245.48    9.70
   4   4  -7  248.58    9.50
   4   4  -7  243.48   11.60
  -4  -4   7  247.28   13.50
  -4  -4   7  228.48    9.80
  -4  -4   7  245.78   10.50
  -4  -4   7  235.58    9.90
   3   4  -7  156.38    9.00
   3   4  -7  114.29    6.40
   3   4  -7  148.69    7.10
   3   4  -7  113.79    5.90
  -3  -4   7  140.09    7.20
  -3  -4   7  165.08    9.70
  -3  -4   7  153.18    7.50
   2   4  -7  178.18    9.40
   2   4  -7  178.08    6.80
   2   4  -7  174.98    9.10
   2   4  -7  170.88    8.60
   2   4  -7  179.18    8.00
  -2  -4   7  183.48    8.10
  -2  -4   7  184.78    9.10
  -2  -4   7  178.28    8.10
   1   4  -7  171.78    7.60
   1   4  -7  165.08    8.10
   1   4  -7  165.08    6.40
   1   4  -7  168.88    7.80
  -1  -4   7  171.18    7.90
  -1  -4   7  157.28    7.60
  -1  -4   7  162.18    8.30
   0   4  -7  681.33   21.40
   0   4  -7  684.23   20.50
   0   4  -7  675.13   21.20
   0  -4   7  663.03   21.70
   0  -4   7  609.74   22.10
   0  -4   7  650.33   21.40
  -1   4  -7   58.19    5.30
  -1   4  -7   63.79    5.80
   1  -4   7   55.79    5.60
   1  -4   7   54.79    5.50
   1  -4   7   61.09    5.70
  -2   4  -7  947.41   29.50
  -2   4  -7  882.61   28.70
  -2   4  -7  856.51   32.40
   2  -4   7  920.01   29.40
   2  -4   7  914.21   28.80
   2  -4   7  955.70   28.90
  -3   4  -7    3.70    3.20
  -3   4  -7   -2.90    2.30
  -3   4  -7    2.90    3.50
  -3   4  -7    0.90    3.50
   3  -4   7    1.50    3.40
   3  -4   7    0.20    2.80
   3  -4   7   -4.20    3.70
   3  -4   7   -1.40    3.00
  -4   4  -7  203.08   11.30
  -4   4  -7  188.28   10.80
  -4   4  -7  199.08   10.30
  -4   4  -7  198.48    9.10
   4  -4   7  194.38    9.80
   4  -4   7  184.38   10.50
   4  -4   7  185.48   11.60
   4  -4   7  184.38   10.40
  -5   4  -7   10.10    5.30
  -5   4  -7    8.50    5.00
  -5   4  -7    7.00    3.40
  -5   4  -7    4.40    4.40
   5  -4   7    2.20    4.10
   5  -4   7    3.30    4.60
   5  -4   7    2.20    5.30
   5  -4   7    2.90    2.60
  -6   4  -7  138.69   11.40
  -6   4  -7  131.99   12.80
  -6   4  -7  129.69   11.50
  -6   4  -7  118.49    9.20
   6  -4   7  115.19    8.30
   6  -4   7  151.58   14.90
   6  -4   7  109.39   13.10
   7   3  -7   22.90    2.60
   7   3  -7   42.70    9.30
   7   3  -7   26.30    2.70
  -7  -3   7   26.50    5.50
  -7  -3   7   24.40    5.90
  -7  -3   7   20.40    3.40
  -7  -3   7   22.70    4.10
   6   3  -7  110.59    5.50
   6   3  -7  119.69    5.70
  -6  -3   7  120.09    6.50
  -6  -3   7  101.19    7.10
  -6  -3   7  119.29   12.40
  -6  -3   7  112.29    8.90
   5   3  -7   49.30    7.10
   5   3  -7   32.70    6.30
   5   3  -7   31.00    4.00
   5   3  -7   42.30    4.00
  -5  -3   7   35.10    3.90
  -5  -3   7   29.50    4.20
  -5  -3   7   29.60    3.40
  -5  -3   7   41.90    7.20
   4   3  -7 1378.96   43.50
   4   3  -7 1350.96   39.20
   4   3  -7 1370.06   39.80
   4   3  -7 1359.66   39.20
   4   3  -7 1340.27   41.50
  -4  -3   7 1307.17   39.60
  -4  -3   7 1358.76   40.00
  -4  -3   7 1425.76   43.80
  -4  -3   7 1368.06   39.50
   3   3  -7  280.97   10.10
   3   3  -7  276.47   12.00
   3   3  -7  286.77    9.80
   3   3  -7  273.97    9.60
   3   3  -7  290.47   13.20
  -3  -3   7  289.47   10.50
  -3  -3   7  271.07   12.90
  -3  -3   7  266.47    9.60
  -3  -3   7  281.97   10.20
   2   3  -7  161.18    5.70
   2   3  -7  161.68    8.70
   2   3  -7  153.28    6.90
   2   3  -7  156.08    8.40
   2   3  -7  160.28    6.70
  -2  -3   7  153.28    8.10
  -2  -3   7  164.58    7.10
  -2  -3   7  149.88    7.00
   1   3  -7   28.90    4.00
   1   3  -7   28.80    4.30
   1   3  -7   28.70    3.50
   1   3  -7   32.80    2.30
   1   3  -7   29.30    4.30
  -1  -3   7   29.50    3.80
  -1  -3   7   33.10    4.00
  -1  -3   7   29.90    4.30
   0   3  -7  176.48    7.30
   0   3  -7  182.08    7.80
   0   3  -7  184.58    8.00
   0  -3   7  179.88    8.60
   0  -3   7  186.28    8.00
   0  -3   7  207.98    8.30
  -1   3  -7  542.35   17.90
  -1   3  -7  530.05   18.90
  -1   3  -7  552.74   17.80
   1  -3   7  531.05   18.10
   1  -3   7  537.45   18.30
  -2   3  -7   22.50    5.50
  -2   3  -7   21.60    3.30
  -2   3  -7   19.10    3.50
  -2   3  -7   24.40    3.40
   2  -3   7   28.00    4.40
   2  -3   7   21.70    3.50
   2  -3   7   29.10    4.00
  -3   3  -7  447.46   16.70
  -3   3  -7  460.45   16.90
  -3   3  -7  457.35   16.00
   3  -3   7  473.65   17.50
   3  -3   7  463.35   16.50
   3  -3   7  460.05   17.00
  -4   3  -7  135.79    8.80
  -4   3  -7  130.49    7.50
  -4   3  -7  131.59    8.40
  -4   3  -7  115.89    8.90
   4  -3   7  125.59    7.60
   4  -3   7  137.29    9.30
   4  -3   7  128.69    8.70
   4  -3   7  128.79    9.50
  -5   3  -7  127.89    9.50
  -5   3  -7  120.69   10.00
  -5   3  -7  139.09    9.30
   5  -3   7  139.09   11.00
   5  -3   7  132.29    9.40
   5  -3   7  128.59    7.60
  -6   3  -7  137.99    9.70
  -6   3  -7  132.29   10.70
  -6   3  -7  149.49   12.40
  -6   3  -7  155.48   11.30
   6  -3   7  139.69    7.70
   6  -3   7  153.38   11.70
   6  -3   7  168.28   15.10
   6  -3   7  150.08   13.00
  -7   3  -7    4.50    6.80
  -7   3  -7    2.40    5.90
  -7   3  -7    4.00    6.90
  -7   3  -7    7.80    5.80
   7  -3   7   10.60    8.10
   7  -3   7   -4.30    9.70
   7   2  -7  -12.40    7.30
  -7  -2   7   -6.40    4.70
  -7  -2   7   -0.50    2.20
   6   2  -7   60.39    3.00
   6   2  -7   62.89   11.50
  -6  -2   7   62.99    5.60
  -6  -2   7   55.29    7.70
  -6  -2   7   61.09    4.70
  -6  -2   7   69.39    9.70
   5   2  -7   83.99    3.90
   5   2  -7   83.29    4.00
   5   2  -7   84.79    9.90
   5   2  -7   80.59    7.30
   5   2  -7   90.69    8.20
  -5  -2   7   95.39    7.60
  -5  -2   7   71.99    9.80
  -5  -2   7   82.39    4.80
  -5  -2   7   82.49    6.50
  -5  -2   7   83.39    5.30
   4   2  -7   27.00    5.00
   4   2  -7   31.30    4.90
   4   2  -7   23.20    5.80
  -4  -2   7   44.70    6.40
  -4  -2   7   31.00    4.00
  -4  -2   7   24.70    3.60
  -4  -2   7   36.90    4.50
   3   2  -7  509.65   16.30
   3   2  -7  505.45   18.20
   3   2  -7  505.25   18.90
   3   2  -7  517.85   15.70
   3   2  -7  530.95   17.80
  -3  -2   7  518.25   16.10
  -3  -2   7  504.55   18.00
  -3  -2   7  501.55   15.60
  -3  -2   7  523.15   16.00
   2   2  -7  102.49    7.10
   2   2  -7  110.89    5.00
   2   2  -7  112.69    7.10
   2   2  -7  105.99    3.80
   2   2  -7  102.09    6.50
  -2  -2   7  103.39    5.20
  -2  -2   7  103.99    6.90
  -2  -2   7  106.19    5.20
   1   2  -7 1330.57   37.40
   1   2  -7 1297.27   38.00
   1   2  -7 1259.67   38.20
   1   2  -7 1293.37   37.30
   1   2  -7 1260.07   38.90
  -1  -2   7 1296.07   37.40
  -1  -2   7 1294.67   38.70
  -1  -2   7 1303.87   37.50
   0   2  -7    2.20    2.10
   0   2  -7    4.30    1.90
   0   2  -7    5.60    2.90
   0   2  -7    2.20    2.60
   0   2  -7    2.90    2.10
   0  -2   7    2.70    1.90
   0  -2   7    3.20    2.40
   0  -2   7    3.70    2.20
  -1   2  -7 1388.36   40.90
  -1   2  -7 1345.47   40.00
  -1   2  -7 1444.96   41.30
  -1   2  -7 1420.66   41.00
   1  -2   7 1402.46   41.70
   1  -2   7 1421.36   41.40
   1  -2   7 1390.56   40.80
  -2   2  -7   76.39    5.90
  -2   2  -7   78.79    6.20
  -2   2  -7   87.39    5.20
  -2   2  -7   90.09    5.50
   2  -2   7   84.59    5.60
   2  -2   7   91.89    6.30
   2  -2   7   72.79    6.30
  -3   2  -7  177.78    8.80
  -3   2  -7  195.18    9.10
  -3   2  -7  182.68    8.70
  -3   2  -7  193.48    9.30
   3  -2   7  184.38   10.00
   3  -2   7  189.88    9.10
   3  -2   7  189.68    9.70
  -4   2  -7  158.48    9.70
  -4   2  -7  158.08    9.20
  -4   2  -7  163.28    8.60
  -4   2  -7  166.08    9.20
   4  -2   7  143.69    9.80
   4  -2   7  140.39    7.80
   4  -2   7  166.58    8.80
   4  -2   7  140.99    9.90
  -5   2  -7   19.10    4.80
  -5   2  -7   22.20    4.20
  -5   2  -7   16.40    4.50
  -5   2  -7   24.60    4.50
   5  -2   7   14.60    5.10
   5  -2   7   20.60    5.30
   5  -2   7   25.10    3.40
   5  -2   7   25.30    5.00
  -6   2  -7   48.90   10.90
  -6   2  -7   69.29    8.80
  -6   2  -7   66.59    8.10
  -6   2  -7   61.29    8.60
   6  -2   7   63.59    5.10
   6  -2   7   48.70    6.50
   6  -2   7   89.39   11.10
   6  -2   7   57.39   10.50
  -7   2  -7   39.50    7.60
  -7   2  -7   53.69    7.30
  -7   2  -7   41.60    7.20
  -7   2  -7   50.29    8.00
   7  -2   7   57.89   11.50
   7  -2   7   41.40    8.90
   7   1  -7    8.70    8.00
  -7  -1   7    3.40    4.00
  -7  -1   7   -2.10    4.90
  -7  -1   7   15.40    6.20
   6   1  -7   54.09    7.70
   6   1  -7   51.19    9.70
  -6  -1   7   57.29    8.60
  -6  -1   7   51.79    6.30
  -6  -1   7   52.59    3.10
  -6  -1   7   48.00    6.30
  -6  -1   7   53.79    3.30
   5   1  -7   28.80    4.80
   5   1  -7   23.90    6.20
  -5  -1   7   16.60    3.60
  -5  -1   7   26.10    5.30
  -5  -1   7   21.70    2.60
  -5  -1   7   24.90    6.40
   4   1  -7   59.69    2.70
   4   1  -7   71.29    8.30
   4   1  -7   65.69    2.70
   4   1  -7   62.19    6.50
   4   1  -7   62.29    6.30
  -4  -1   7   61.89    6.80
  -4  -1   7   60.49    5.00
  -4  -1   7   62.89    6.80
  -4  -1   7   67.99    7.70
  -4  -1   7   57.09    4.10
  -4  -1   7   62.59    3.50
   3   1  -7  255.97   11.20
   3   1  -7  225.48    7.80
   3   1  -7  247.38    7.70
   3   1  -7  230.98   11.30
   3   1  -7  246.38   10.30
  -3  -1   7  241.08   12.20
  -3  -1   7  246.78   12.20
  -3  -1   7  237.38    8.20
  -3  -1   7  226.98    8.20
  -3  -1   7  248.68   10.50
  -3  -1   7  239.38    8.10
  -3  -1   7  236.18   10.50
   2   1  -7  638.34   18.80
   2   1  -7  625.04   18.80
   2   1  -7  620.24   20.50
   2   1  -7  621.74   21.10
   2   1  -7  634.24   21.40
  -2  -1   7  646.14   19.10
  -2  -1   7  633.24   18.00
  -2  -1   7  661.43   22.40
  -2  -1   7  644.64   21.00
  -2  -1   7  646.64   19.10
   1   1  -7 1739.83   50.89
   1   1  -7 1817.52   52.79
   1   1  -7 1786.32   50.79
   1   1  -7 1843.22   51.89
  -1  -1   7 1792.62   52.29
  -1  -1   7 1880.41   52.39
  -1  -1   7 1754.92   50.99
  -1  -1   7 1784.02   50.79
   0   1  -7   57.39    4.10
   0   1  -7   59.99    5.30
   0   1  -7   56.59    4.40
   0   1  -7   60.09    2.20
   0   1  -7   57.49    4.20
   0   1  -7   59.59    3.90
   0  -1   7   54.09    4.40
   0  -1   7   51.09    4.80
   0  -1   7   52.59    4.00
   0  -1   7   56.59    4.20
  -1   1  -7   50.79    4.10
  -1   1  -7   63.69    4.00
  -1   1  -7   55.39    3.40
  -1   1  -7   60.19    4.60
  -1   1  -7   54.49    4.60
   1  -1   7   46.30    4.40
   1  -1   7   50.49    3.30
   1  -1   7   50.99    5.00
   1  -1   7   47.70    4.60
  -2   1  -7   25.70    3.40
  -2   1  -7   21.30    3.60
  -2   1  -7   28.20    3.50
  -2   1  -7   28.90    3.60
   2  -1   7   24.50    2.00
   2  -1   7   23.50    3.70
   2  -1   7   27.30    3.50
   2  -1   7   26.60    4.00
  -3   1  -7   50.19    5.20
  -3   1  -7   44.90    5.00
  -3   1  -7   39.40    5.20
  -3   1  -7   45.90    4.80
   3  -1   7   42.90    5.90
   3  -1   7   46.30    4.80
   3  -1   7   46.80    5.90
  -4   1  -7  295.27   16.40
  -4   1  -7  314.77   12.90
  -4   1  -7  334.67   13.00
  -4   1  -7  311.97   13.10
   4  -1   7  316.47   13.70
   4  -1   7  309.27    9.30
   4  -1   7  302.97   12.50
   4  -1   7  299.87   13.90
  -5   1  -7   54.89    7.00
  -5   1  -7   62.19    7.00
  -5   1  -7   49.60    6.90
  -5   1  -7   65.99    7.40
   5  -1   7   59.29    7.20
   5  -1   7   53.39    6.80
  -6   1  -7    8.80    4.70
  -6   1  -7    7.10    4.20
  -6   1  -7   11.30    4.80
   6  -1   7    4.50    2.10
   6  -1   7   13.10    6.30
   6  -1   7   14.50    4.90
   6  -1   7    2.40    2.20
   6  -1   7    4.10    7.30
  -7   1  -7   40.40    6.90
  -7   1  -7   25.70    6.50
  -7   1  -7   53.69    8.50
  -7   1  -7   39.60    6.90
   7  -1   7   50.69    9.00
   7  -1   7   45.10   10.40
   7   0  -7   -5.60    4.40
  -7   0   7  -10.30    5.10
  -7   0   7   -6.90    6.20
  -7   0   7   -7.20    5.00
  -7   0   7   -7.40    3.80
  -7   0   7  -14.40   16.00
   6   0  -7  156.38   10.10
  -6   0   7  148.39   10.40
  -6   0   7  150.98   11.60
  -6   0   7  139.89   13.50
  -6   0   7  152.78    9.80
  -6   0   7  154.08   10.60
   5   0  -7   77.69    7.20
  -5   0   7   57.49    7.30
  -5   0   7   63.49    6.80
  -5   0   7   68.59    9.50
  -5   0   7   59.49    6.50
   4   0  -7  446.76   16.40
  -4   0   7  445.96   18.20
  -4   0   7  445.26   16.30
  -4   0   7  439.96   15.00
  -4   0   7  446.46   17.00
  -4   0   7  440.46   18.00
  -3   0   7   26.00    4.40
  -3   0   7   32.20    5.00
  -3   0   7   26.10    4.70
  -3   0   7   33.30    3.30
  -3   0   7   36.60    2.60
   2   0  -7   65.19    6.50
   2   0  -7   76.09    3.30
   2   0  -7   78.19    5.70
  -2   0   7   73.69    3.40
  -2   0   7   74.89    3.80
  -2   0   7   80.49    6.40
  -2   0   7   75.69    3.60
  -2   0   7   71.19    5.60
   1   0  -7   13.40    1.80
   1   0  -7   11.30    3.10
   1   0  -7   21.10    2.70
   1   0  -7   14.70    2.50
   1   0  -7   11.00    3.40
  -1   0   7   12.40    2.10
  -1   0   7   13.00    3.50
  -1   0   7   11.40    2.80
  -1   0   7   12.00    2.90
  -1   0   7   15.40    1.90
   0   0  -7  354.76   11.80
   0   0  -7  377.36   12.90
   0   0  -7  365.26   12.30
   0   0  -7  358.16   11.70
   0   0  -7  363.46   13.40
   0   0   7  351.46   12.30
   0   0   7  357.86   11.70
   0   0   7  350.96   12.20
   0   0   7  350.16   13.10
  -1   0  -7 3916.01  107.49
  -1   0  -7 3918.61  108.89
  -1   0  -7 3853.51  107.79
  -1   0  -7 3776.32  107.69
  -1   0  -7 4003.50  108.59
  -1   0  -7 3782.52  106.79
   1   0   7 3793.82  108.19
   1   0   7 3927.61  108.89
   1   0   7 3869.21  107.69
  -2   0  -7  365.76   12.90
  -2   0  -7  370.26   11.70
  -2   0  -7  390.36   17.90
  -2   0  -7  365.26   14.10
  -2   0  -7  363.06   13.40
  -2   0  -7  357.96   12.20
   2   0   7  356.86   12.20
   2   0   7  354.76   13.50
   2   0   7  352.86   13.80
   2   0   7  354.96   12.60
  -3   0  -7 1027.90   31.30
  -3   0  -7 1011.40   31.10
  -3   0  -7 1009.00   31.00
  -3   0  -7 1056.89   31.70
   3   0   7  990.80   32.10
   3   0   7 1032.20   31.00
   3   0   7 1010.50   31.90
  -4   0  -7  423.26   15.90
  -4   0  -7  440.86   16.20
  -4   0  -7  427.96   15.70
  -4   0  -7  363.16   18.20
   4   0   7  437.46   17.20
   4   0   7  438.76   15.50
   4   0   7  434.86   16.90
  -5   0  -7   28.30    5.30
  -5   0  -7   21.60    4.60
  -5   0  -7   24.80    4.90
  -5   0  -7   16.00    4.30
   5   0   7    9.30    4.90
   5   0   7   18.40    4.50
   5   0   7   17.50    3.00
   5   0   7   17.60    2.90
  -6   0  -7   12.10    5.00
  -6   0  -7   17.60    4.80
  -6   0  -7   21.30    5.50
  -6   0  -7   24.60    5.40
   6   0   7    8.60    7.10
   6   0   7   18.70    2.50
   6   0   7   22.50    6.60
   6   0   7   19.60    2.70
   6   0   7   15.20    4.70
   6   0   7   14.40    3.40
  -7   0  -7   20.30    5.70
  -7   0  -7   27.00    6.70
  -7   0  -7   29.40    6.80
  -7   0  -7   29.80    7.30
   7   0   7   21.20    4.10
   7   0   7   16.40    7.20
   7   0   7   20.60    9.30
   7  -1  -7   14.70    5.10
  -7   1   7   16.60    5.70
  -7   1   7   10.20    8.20
  -7   1   7   20.00    6.40
  -7   1   7   19.50    4.70
   6  -1  -7    6.50    4.90
  -6   1   7    1.80    6.50
  -6   1   7   13.40    4.60
  -6   1   7    7.70    4.30
  -6   1   7    9.90    4.80
  -6   1   7    8.90    6.10
   5  -1  -7  134.89    9.00
  -5   1   7  139.39   10.30
  -5   1   7   95.69   11.10
  -5   1   7  123.99    8.60
  -5   1   7  137.49    8.70
  -5   1   7  138.79   11.00
  -5   1   7  150.68    9.00
   4  -1  -7    0.60    3.20
  -4   1   7    6.80    4.30
  -4   1   7    4.20    3.10
  -4   1   7    1.70    4.30
  -4   1   7   -0.90    3.90
  -4   1   7    5.10    3.10
  -4   1   7    1.90    2.50
   3  -1  -7  479.65   18.00
   3  -1  -7  474.55   17.20
  -3   1   7  479.75   15.50
  -3   1   7  481.95   17.70
  -3   1   7  483.45   18.40
  -3   1   7  486.85   16.70
  -3   1   7  489.55   18.00
   2  -1  -7  216.78    6.70
   2  -1  -7  216.48    6.70
   2  -1  -7  230.58   10.80
  -2   1   7  228.68   10.30
  -2   1   7  217.28    7.40
  -2   1   7  224.68    9.50
  -2   1   7  212.98    7.10
  -2   1   7  223.78    7.70
  -2   1   7  231.48   10.30
   1  -1  -7  108.79    4.30
   1  -1  -7   99.09    7.10
   1  -1  -7  100.39    4.30
   1  -1  -7   99.29    5.60
   1  -1  -7   94.29    6.20
  -1   1   7  102.59    7.80
  -1   1   7  100.49    4.40
  -1   1   7   96.19    6.20
  -1   1   7  106.69    3.80
  -1   1   7  103.99    5.00
  -1   1   7  104.79    6.40
   0  -1  -7   71.19    4.20
   0  -1  -7   73.89    4.90
   0  -1  -7   71.59    4.00
   0  -1  -7   74.09    4.80
   0  -1  -7   71.39    6.10
   0   1   7   74.39    5.70
   0   1   7   72.99    5.50
   0   1   7   72.59    4.20
   0   1   7   63.59    4.60
   0   1   7   72.59    3.10
  -1  -1  -7 2387.36   66.09
  -1  -1  -7 2368.56   66.79
  -1  -1  -7 2273.77   65.69
  -1  -1  -7 2328.97   65.79
  -1  -1  -7 2358.16   66.99
  -1  -1  -7 2217.28   64.99
   1   1   7 2303.97   64.99
   1   1   7 2338.77   66.49
   1   1   7 2417.46   65.89
   1   1   7 2343.87   67.09
  -2  -1  -7  383.56   14.60
  -2  -1  -7  346.27   12.80
  -2  -1  -7  431.06   17.90
  -2  -1  -7  364.46   12.50
  -2  -1  -7  390.06   12.20
  -2  -1  -7  357.36   13.60
   2   1   7  355.56   13.70
   2   1   7  356.66   12.90
   2   1   7  365.96   12.40
   2   1   7  371.56   14.30
  -3  -1  -7   57.09    5.80
  -3  -1  -7   51.09    5.30
  -3  -1  -7   50.39    3.80
  -3  -1  -7   54.49    5.60
  -3  -1  -7   46.10    5.80
  -3  -1  -7   54.49    5.50
   3   1   7   57.79    6.60
   3   1   7   52.19    5.60
   3   1   7   65.79    5.60
   3   1   7   60.89    6.30
  -4  -1  -7  253.27   11.10
  -4  -1  -7  225.98   10.40
  -4  -1  -7  245.48   10.80
  -4  -1  -7  248.78   12.40
  -4  -1  -7  217.98   12.00
   4   1   7  250.67   11.20
   4   1   7  236.18    9.80
   4   1   7  236.18   12.10
   4   1   7  251.57   10.70
   4   1   7  236.88   12.00
  -5  -1  -7  247.78   12.30
  -5  -1  -7  236.38   10.50
  -5  -1  -7  242.48   12.10
  -5  -1  -7  238.28   11.70
  -5  -1  -7  253.37   12.30
   5   1   7  239.58   13.10
   5   1   7  250.37   11.50
   5   1   7  227.18    9.60
   5   1   7  230.58   12.20
   5   1   7  251.07   14.00
  -6  -1  -7   66.39    8.50
  -6  -1  -7   82.19    8.80
  -6  -1  -7   88.29    9.30
  -6  -1  -7   74.59    7.00
  -6  -1  -7   74.19    8.40
   6   1   7   68.29    4.80
   6   1   7   77.29   11.30
   6   1   7   57.99    7.70
   6   1   7   74.29    8.10
  -7  -1  -7    9.20    5.90
  -7  -1  -7    5.20    5.60
  -7  -1  -7    4.20    5.70
  -7  -1  -7    1.20    3.90
  -7  -1  -7    0.60    4.70
   7   1   7    6.10    5.60
   7   1   7  -15.60    7.90
   7   1   7    4.90    4.10
   7   1   7    8.70    7.00
  -8  -1  -7   -3.70    8.00
  -8  -1  -7   20.40    8.10
  -8  -1  -7   19.20    9.00
  -8  -1  -7   18.20    6.30
  -8  -1  -7    3.60    4.90
   8   1   7   10.40    8.70
   8   1   7    8.90   10.80
   8   1   7    3.70    5.30
   7  -2  -7  118.39   10.60
  -7   2   7   97.89    9.10
  -7   2   7   83.49   13.30
  -7   2   7  120.39   16.60
  -7   2   7   92.59   10.10
   6  -2  -7  185.28   11.80
  -6   2   7  170.98   11.80
  -6   2   7  174.68   11.00
  -6   2   7  175.48   15.30
  -6   2   7  164.98   10.50
  -6   2   7  190.98   14.30
  -6   2   7  171.38   14.30
   5  -2  -7    0.10    3.60
  -5   2   7   -4.60    3.50
  -5   2   7    2.30    3.50
  -5   2   7    7.70    5.30
  -5   2   7    2.70    3.70
  -5   2   7   -8.90    4.70
  -5   2   7   -2.60    5.70
   4  -2  -7   -2.50    3.20
  -4   2   7    2.40    4.30
  -4   2   7    1.50    3.30
  -4   2   7    1.80    2.80
  -4   2   7   -1.40    4.30
  -4   2   7    2.40    2.80
  -4   2   7    3.30    4.00
   3  -2  -7  209.28   10.50
  -3   2   7  240.58   11.10
  -3   2   7  232.68    9.80
  -3   2   7  244.78   12.00
  -3   2   7  228.58    9.30
  -3   2   7  230.58   16.00
  -3   2   7  233.68   10.80
   2  -2  -7  847.12   26.40
   2  -2  -7  796.52   27.00
  -2   2   7  859.11   26.40
  -2   2   7  811.22   23.60
  -2   2   7  794.12   23.30
  -2   2   7  836.12   27.10
  -2   2   7  833.52   25.70
  -2   2   7  821.52   26.50
  -2   2   7  842.82   27.10
   1  -2  -7   58.79    3.00
   1  -2  -7   46.20    4.40
   1  -2  -7   50.59    5.30
   1  -2  -7   53.39    5.80
   1  -2  -7   56.59    3.00
  -1   2   7   42.80    5.10
  -1   2   7   51.19    3.80
  -1   2   7   57.49    5.50
  -1   2   7   51.19    3.20
  -1   2   7   52.39    5.00
   0  -2  -7  274.07    9.80
   0  -2  -7  301.57   11.00
   0  -2  -7  294.97   10.80
   0  -2  -7  292.67   11.80
   0  -2  -7  273.87   10.40
   0   2   7  315.97   11.80
   0   2   7  291.87    9.40
   0   2   7  275.17   10.30
   0   2   7  281.67   11.20
   0   2   7  290.67    9.80
   0   2   7  257.67   11.30
  -1  -2  -7 1422.26   41.80
  -1  -2  -7 1448.26   41.80
  -1  -2  -7 1399.46   42.70
  -1  -2  -7 1426.26   42.40
  -1  -2  -7 1380.96   41.00
  -1  -2  -7 1403.96   41.40
   1   2   7 1358.66   42.70
   1   2   7 1491.85   42.80
   1   2   7 1423.46   41.00
   1   2   7 1593.24   42.80
   1   2   7 1412.66   41.40
   1   2   7 1516.05   42.30
  -2  -2  -7 1158.28   33.20
  -2  -2  -7 1148.89   33.50
  -2  -2  -7 1181.48   34.30
  -2  -2  -7 1167.38   34.70
  -2  -2  -7 1161.18   33.70
  -2  -2  -7 1101.59   34.30
   2   2   7 1122.99   33.30
   2   2   7 1140.29   34.60
   2   2   7 1084.69   33.50
   2   2   7 1061.69   34.90
   2   2   7 1162.78   34.50
  -3  -2  -7 2667.13   78.69
  -3  -2  -7 2719.93   78.79
  -3  -2  -7 2837.12   79.89
  -3  -2  -7 2713.53   78.69
  -3  -2  -7 2756.42   77.29
  -3  -2  -7 2868.51   79.39
   3   2   7 2744.93   78.89
   3   2   7 2778.62   80.49
   3   2   7 2808.62   79.89
   3   2   7 2816.02   78.69
   3   2   7 2809.92   78.89
  -4  -2  -7  834.42   23.80
  -4  -2  -7  823.32   26.80
  -4  -2  -7  831.22   27.40
  -4  -2  -7  804.22   25.80
  -4  -2  -7  813.72   26.30
   4   2   7  835.92   26.30
   4   2   7  863.51   27.90
   4   2   7  811.52   27.00
   4   2   7  805.62   25.80
   4   2   7  838.42   28.50
  -5  -2  -7  257.57   12.00
  -5  -2  -7  276.47   12.90
  -5  -2  -7  274.57   13.40
  -5  -2  -7  266.27   12.80
  -5  -2  -7  258.97   11.20
   5   2   7  251.37   13.10
   5   2   7  276.17   10.90
   5   2   7  260.77   14.10
   5   2   7  268.77   14.30
   5   2   7  278.07   12.20
  -6  -2  -7    7.60    4.60
  -6  -2  -7   18.80    5.30
  -6  -2  -7   15.60    3.70
  -6  -2  -7   12.90    5.00
  -6  -2  -7   18.90    5.10
   6   2   7    8.60    6.50
   6   2   7    9.10    6.10
   6   2   7   -5.50    5.30
   6   2   7    8.40    2.90
   6   2   7    6.90    4.70
  -7  -2  -7   93.19   11.40
  -7  -2  -7   82.39   11.30
  -7  -2  -7   99.39    9.80
  -7  -2  -7  101.89   11.20
  -7  -2  -7   94.49    7.40
   7   2   7   70.69    9.10
   7   2   7   78.69   10.80
   7   2   7   96.09   12.80
   7   2   7   68.09    9.10
   7   2   7   80.79   11.60
  -8  -2  -7   15.40    6.10
  -8  -2  -7   17.10    3.90
  -8  -2  -7   24.10   14.30
  -8  -2  -7   17.00    8.20
  -8  -2  -7   17.00    9.00
   8   2   7   16.40    6.40
   8   2   7   13.80   10.80
   8   2   7   23.80    9.10
   6  -3  -7  314.47   15.20
  -6   3   7  316.17   20.40
  -6   3   7  328.67   15.00
  -6   3   7  332.27   13.90
  -6   3   7  352.16   19.60
  -6   3   7  327.27   16.00
  -6   3   7  329.27   18.20
   5  -3  -7  155.58   10.50
  -5   3   7  131.49   11.20
  -5   3   7  160.88   12.90
  -5   3   7  142.69   10.30
  -5   3   7  178.18   13.60
  -5   3   7  146.09    8.70
  -5   3   7  154.98   10.50
   4  -3  -7   47.40    7.00
  -4   3   7   36.50    5.80
  -4   3   7   33.80    5.00
  -4   3   7   32.10    4.10
  -4   3   7   40.60    6.20
  -4   3   7   25.60    6.40
  -4   3   7   28.60    5.80
   3  -3  -7   -3.50    3.00
  -3   3   7    0.90    3.20
  -3   3   7    3.80    4.00
  -3   3   7    3.80    3.10
  -3   3   7   -2.00    2.40
  -3   3   7    1.70    4.10
   2  -3  -7  186.38    5.70
   2  -3  -7  205.98    9.80
   2  -3  -7  188.08    5.70
  -2   3   7  201.48   10.10
  -2   3   7  197.18    8.60
  -2   3   7  199.88    9.10
  -2   3   7  180.48    6.50
  -2   3   7  191.28    6.30
   1  -3  -7  123.29    5.10
   1  -3  -7  128.39    5.30
   1  -3  -7  109.09    7.20
   1  -3  -7  130.39    8.00
   1  -3  -7  130.09    6.40
  -1   3   7  125.29    8.10
  -1   3   7  125.59    5.10
  -1   3   7  114.49    6.80
  -1   3   7  116.59    5.60
  -1   3   7  120.99    8.00
   0  -3  -7 2530.35   70.99
   0  -3  -7 2436.96   71.09
   0  -3  -7 2581.14   72.09
   0  -3  -7 2386.26   70.49
   0  -3  -7 2401.76   69.99
   0   3   7 2750.82   73.79
   0   3   7 2586.44   69.79
   0   3   7 2412.96   71.79
   0   3   7 2450.55   70.29
   0   3   7 2492.35   69.89
   0   3   7 2390.86   71.09
  -1  -3  -7  121.89    6.70
  -1  -3  -7  110.79    9.60
  -1  -3  -7  107.09    7.10
  -1  -3  -7  122.39    6.40
  -1  -3  -7  109.99    5.60
   1   3   7  116.19    7.00
   1   3   7  108.49    7.00
   1   3   7  100.59    6.60
   1   3   7  105.49    5.40
   1   3   7  110.39    7.10
   1   3   7  110.39    5.70
  -2  -3  -7   16.60    2.90
  -2  -3  -7   11.80    3.40
  -2  -3  -7   13.00    2.90
  -2  -3  -7   18.30    3.10
  -2  -3  -7   23.40    3.10
  -2  -3  -7   20.60    3.70
   2   3   7   16.20    3.40
   2   3   7   13.00    2.70
   2   3   7   14.10    3.70
   2   3   7   12.60    3.00
   2   3   7   12.70    3.40
   2   3   7   13.60    2.80
  -3  -3  -7 2307.77   65.59
  -3  -3  -7 2283.27   64.49
  -3  -3  -7 2247.18   65.49
  -3  -3  -7 2261.57   65.69
  -3  -3  -7 2314.77   66.29
  -3  -3  -7 2220.18   67.09
   3   3   7 2265.27   65.99
   3   3   7 2349.67   67.29
   3   3   7 2293.87   65.49
   3   3   7 2287.17   66.69
   3   3   7 2316.47   67.59
  -4  -3  -7   20.20    2.70
  -4  -3  -7   12.80    3.90
  -4  -3  -7   19.60    4.20
  -4  -3  -7   17.70    4.20
  -4  -3  -7   21.10    4.30
  -4  -3  -7   13.40    3.40
   4   3   7   20.00    5.00
   4   3   7   15.20    3.90
   4   3   7   13.80    3.50
   4   3   7   14.20    7.40
   4   3   7   11.40    5.00
  -5  -3  -7  105.29    4.60
  -5  -3  -7   92.39    6.90
  -5  -3  -7  102.99    8.70
  -5  -3  -7   99.79    9.40
  -5  -3  -7   97.09    8.90
  -5  -3  -7  106.49    8.40
   5   3   7   98.59    9.30
   5   3   7  107.99   10.10
   5   3   7   99.29    7.20
   5   3   7  105.39    9.70
   5   3   7  112.39    8.40
  -6  -3  -7   38.50    6.70
  -6  -3  -7   37.60    6.10
  -6  -3  -7   50.99    6.40
  -6  -3  -7   45.80    6.80
  -6  -3  -7   50.19    5.70
   6   3   7   53.99    5.80
   6   3   7   42.60    7.80
   6   3   7   65.59    8.30
   6   3   7   30.70    6.80
   6   3   7   42.70    7.30
  -7  -3  -7   21.20    6.40
  -7  -3  -7   18.50    6.30
  -7  -3  -7   17.90    6.90
  -7  -3  -7   16.60    5.10
  -7  -3  -7   11.10    3.10
   7   3   7   16.50    6.60
   7   3   7   16.90    7.60
   7   3   7   13.60    8.10
   7   3   7   11.60    7.40
   7   3   7   14.70    2.70
  -8  -3  -7   20.00    6.10
  -8  -3  -7   18.50    8.20
  -8  -3  -7    8.30    8.40
   8   3   7   22.80    9.60
   8   3   7    0.00    9.90
   8   3   7   13.20    6.60
   6  -4  -7   -1.00    4.60
  -6   4   7    7.50    7.50
  -6   4   7   13.40    4.10
  -6   4   7    1.70    6.50
  -6   4   7   17.20    9.50
  -6   4   7   10.40    5.10
   5  -4  -7    9.80    5.50
  -5   4   7   14.80    6.00
  -5   4   7    5.50    6.70
  -5   4   7   15.40    5.30
  -5   4   7   15.60    3.70
  -5   4   7    4.20    5.00
  -5   4   7    7.10    6.50
   4  -4  -7  166.08   10.60
  -4   4   7  156.48   12.60
  -4   4   7  168.28    8.50
  -4   4   7  137.79   10.70
  -4   4   7  171.78   12.00
  -4   4   7  165.78   10.60
   3  -4  -7  112.69    8.70
  -3   4   7  111.39   10.60
  -3   4   7  128.79    9.30
  -3   4   7  130.09    8.50
  -3   4   7  122.89    7.00
  -3   4   7  125.49    9.20
   2  -4  -7   64.39    2.90
   2  -4  -7   65.29    2.80
   2  -4  -7   58.89    6.80
  -2   4   7   64.49    3.40
  -2   4   7   67.89    5.40
  -2   4   7   59.09    7.40
  -2   4   7   58.39    5.50
  -2   4   7   63.39    8.10
  -2   4   7   73.09    3.80
   1  -4  -7  116.69    5.30
   1  -4  -7  122.09    4.90
   1  -4  -7  123.09    7.90
   1  -4  -7  120.69    6.30
  -1   4   7  116.39    5.20
  -1   4   7  126.89    7.00
  -1   4   7  117.99    5.90
  -1   4   7  119.59    8.50
   0  -4  -7  939.91   27.30
   0  -4  -7  944.71   29.10
   0  -4  -7  936.01   28.50
   0  -4  -7  879.11   28.90
   0   4   7  903.01   28.10
   0   4   7  920.51   27.40
   0   4   7  953.60   28.00
   0   4   7  971.20   29.80
   0   4   7  900.31   28.90
   0   4   7  918.81   29.80
  -1  -4  -7 2275.37   63.89
  -1  -4  -7 2199.78   64.79
  -1  -4  -7 2441.46   70.19
  -1  -4  -7 2156.18   64.09
   1   4   7 2210.48   63.19
   1   4   7 2215.68   65.19
   1   4   7 2226.58   63.49
   1   4   7 2122.99   64.69
   1   4   7 2249.87   64.19
  -2  -4  -7   -3.30    2.00
  -2  -4  -7   -0.40    2.30
  -2  -4  -7   -2.50    2.30
  -2  -4  -7   -1.00    2.80
  -2  -4  -7   -2.50    2.30
  -2  -4  -7    5.40    2.90
   2   4   7   -1.40    2.60
   2   4   7    0.30    3.20
   2   4   7   -5.60    3.00
   2   4   7   -0.60    2.80
   2   4   7   -4.30    2.30
  -3  -4  -7  173.48    9.60
  -3  -4  -7  177.88    7.90
  -3  -4  -7  166.58    8.70
  -3  -4  -7  156.78    8.50
  -3  -4  -7  160.38    8.20
  -3  -4  -7  167.08   10.10
   3   4   7  156.58    9.80
   3   4   7  173.48   10.70
   3   4   7  168.18    8.70
   3   4   7  178.08    9.40
   3   4   7  172.78    8.60
   3   4   7  179.38    8.20
  -4  -4  -7  751.22   25.40
  -4  -4  -7  780.12   26.20
  -4  -4  -7  725.93   23.60
  -4  -4  -7  732.63   24.50
  -4  -4  -7  722.63   22.90
  -4  -4  -7  732.03   24.90
   4   4   7  759.02   24.70
   4   4   7  774.32   26.20
   4   4   7  748.53   24.90
   4   4   7  761.42   25.80
   4   4   7  767.42   24.50
  -5  -4  -7  229.38   12.80
  -5  -4  -7  206.38   11.80
  -5  -4  -7  204.08   11.20
  -5  -4  -7  211.98    8.30
  -5  -4  -7  204.88    9.30
  -5  -4  -7  218.18   12.10
   5   4   7  219.18   10.70
   5   4   7  217.18   12.80
   5   4   7  229.78   13.60
   5   4   7  214.88   12.40
   5   4   7  207.58   10.90
  -6  -4  -7  542.35   16.90
  -6  -4  -7  549.15   22.70
  -6  -4  -7  585.64   21.20
  -6  -4  -7  584.24   22.60
  -6  -4  -7  550.04   17.80
  -6  -4  -7  590.44   22.20
   6   4   7  582.94   23.40
   6   4   7  562.14   21.00
   6   4   7  555.04   19.40
   6   4   7  578.74   23.90
   6   4   7  580.34   22.50
  -7  -4  -7   16.60    7.40
  -7  -4  -7   21.90    6.90
  -7  -4  -7   24.90    7.00
  -7  -4  -7   20.40    5.80
   7   4   7   22.50    3.70
   7   4   7   31.00    8.50
   7   4   7   13.70    7.80
   7   4   7   18.20    6.50
   7   4   7   23.50    8.50
  -8  -4  -7    4.20    7.60
  -8  -4  -7   -0.80    8.40
  -8  -4  -7   -6.80    5.60
   8   4   7   -3.40    8.70
   8   4   7    7.60   10.60
   6  -5  -7   15.60    6.30
  -6   5   7    2.30    5.70
  -6   5   7   -3.50    7.80
  -6   5   7   13.10    6.60
  -6   5   7    9.50    3.50
   5  -5  -7  377.66   17.60
  -5   5   7  394.36   17.90
  -5   5   7  397.86   18.00
  -5   5   7  397.56   14.00
  -5   5   7  398.06   17.90
  -5   5   7  411.56   21.40
  -5   5   7  440.36   21.40
   4  -5  -7    7.40    5.40
  -4   5   7  -10.90    6.00
  -4   5   7    6.30    3.00
  -4   5   7    5.30    6.10
  -4   5   7   -0.20    4.80
   3  -5  -7  188.98   11.30
  -3   5   7  177.08    6.10
  -3   5   7  168.08   11.30
  -3   5   7  167.68   10.80
  -3   5   7  187.08   12.00
  -3   5   7  177.88    8.50
  -3   5   7  182.48   12.60
   2  -5  -7   26.70    2.50
   2  -5  -7   21.60    2.80
   2  -5  -7   19.00    4.60
  -2   5   7   21.30    5.40
  -2   5   7   19.50    3.50
  -2   5   7   24.10    3.40
  -2   5   7   22.80    3.00
  -2   5   7   23.10    3.60
   1  -5  -7   77.49    5.30
   1  -5  -7   79.09    4.30
   1  -5  -7   87.29    4.90
   1  -5  -7   77.29    7.60
  -1   5   7   70.79    8.50
  -1   5   7   80.19    6.30
  -1   5   7   83.79    4.60
  -1   5   7   82.89    5.30
  -1   5   7   79.49    5.50
  -1   5   7   71.69    7.60
   0  -5  -7  260.77   10.00
   0  -5  -7  261.37    9.40
   0  -5  -7  244.88   11.60
   0  -5  -7  257.67   10.40
   0   5   7  237.38   10.90
   0   5   7  269.77    9.60
   0   5   7  242.78   10.40
   0   5   7  254.87   12.50
   0   5   7  248.58   11.50
  -1  -5  -7  136.99    6.90
  -1  -5  -7  137.59    7.70
  -1  -5  -7  129.89    8.20
  -1  -5  -7  135.89    7.50
   1   5   7  134.39    8.60
   1   5   7  135.39    8.00
   1   5   7  135.49    8.90
   1   5   7  129.89    8.40
   1   5   7  135.79    6.80
  -2  -5  -7  528.95   19.90
  -2  -5  -7  494.95   17.80
  -2  -5  -7  511.65   17.30
  -2  -5  -7  502.15   18.30
  -2  -5  -7  497.65   18.00
   2   5   7  490.85   19.10
   2   5   7  512.25   17.80
   2   5   7  541.65   18.70
   2   5   7  525.45   17.40
   2   5   7  520.35   19.20
   2   5   7  544.55   23.40
  -3  -5  -7  357.16   14.70
  -3  -5  -7  355.76   14.20
  -3  -5  -7  352.96   14.40
  -3  -5  -7  372.96   13.50
   3   5   7  359.66   14.80
   3   5   7  359.96   15.20
   3   5   7  330.57   16.60
   3   5   7  352.26   13.50
   3   5   7  361.56   13.40
  -4  -5  -7   36.30    4.70
  -4  -5  -7   30.50    5.00
  -4  -5  -7   42.60    6.00
  -4  -5  -7   45.00    5.70
  -4  -5  -7   37.40    5.00
   4   5   7   30.60    5.00
   4   5   7   34.90    5.20
   4   5   7   34.80    4.80
   4   5   7   40.80    6.30
   4   5   7   40.20    5.70
  -5  -5  -7  800.42   26.90
  -5  -5  -7  794.52   27.80
  -5  -5  -7  782.12   25.00
  -5  -5  -7  824.72   28.20
  -5  -5  -7  824.22   28.80
   5   5   7  808.02   26.90
   5   5   7  821.42   27.10
   5   5   7  808.22   28.50
   5   5   7  822.02   28.00
   5   5   7  804.92   28.80
  -6  -5  -7   18.80    5.40
  -6  -5  -7    9.10    3.10
  -6  -5  -7    3.90    6.30
  -6  -5  -7   10.60    4.70
  -6  -5  -7    6.40    5.10
   6   5   7   17.40    5.50
   6   5   7    3.80    6.40
   6   5   7   -3.10    3.90
   6   5   7    7.50    6.30
   6   5   7   14.60    5.90
  -7  -5  -7   80.99   11.80
  -7  -5  -7   90.09   12.60
  -7  -5  -7  109.09   14.40
   7   5   7   94.39   14.10
   7   5   7   76.99   10.50
   7   5   7   60.89    9.70
   7   5   7   52.89    7.40
  -8  -5  -7   28.50   10.30
  -8  -5  -7   32.20    9.30
   8   5   7   55.59   12.10
   5  -6  -7   50.39    8.00
  -5   6   7   53.89   10.10
  -5   6   7   51.59    7.60
  -5   6   7   55.69    7.70
   4  -6  -7  223.78   13.30
  -4   6   7  233.98   16.80
  -4   6   7  227.38   14.00
  -4   6   7  205.38   11.60
  -4   6   7  223.28    8.90
  -4   6   7  235.98   15.10
   3  -6  -7   -1.30    4.70
  -3   6   7    6.20    3.40
  -3   6   7    5.30    6.50
  -3   6   7   -6.60    2.90
  -3   6   7   -5.90    5.00
  -3   6   7    2.00    2.00
  -3   6   7    2.60    1.90
  -3   6   7    2.50    5.20
   2  -6  -7   -0.30    4.30
   2  -6  -7    0.00    2.50
   2  -6  -7    2.00    1.90
  -2   6   7   -0.70    2.80
  -2   6   7    0.30    2.20
  -2   6   7    1.20    2.60
  -2   6   7   -4.00    4.70
  -2   6   7   -2.00    2.00
   1  -6  -7  501.95   18.50
   1  -6  -7  497.55   19.00
   1  -6  -7  476.65   17.10
   1  -6  -7  473.95   16.10
   1  -6  -7  471.05   15.30
  -1   6   7  473.95   15.60
  -1   6   7  482.35   19.70
  -1   6   7  470.85   16.10
  -1   6   7  501.85   17.10
  -1   6   7  473.95   19.20
  -1   6   7  474.75   15.40
   0  -6  -7  194.98   10.50
   0  -6  -7  189.18   11.00
   0  -6  -7  193.88    9.00
   0  -6  -7  211.68    8.30
   0  -6  -7  184.48   10.20
   0   6   7  193.48   12.00
   0   6   7  188.28   10.00
   0   6   7  204.18    9.60
   0   6   7  212.48   11.40
   0   6   7  211.88    8.60
   0   6   7  206.48   10.00
  -1  -6  -7  140.89    8.90
  -1  -6  -7  129.39    8.00
  -1  -6  -7  131.49    7.10
  -1  -6  -7  132.69    7.80
  -1  -6  -7  145.79    9.10
   1   6   7  119.29    9.10
   1   6   7  138.69    8.20
   1   6   7  127.59    9.50
   1   6   7  147.29    8.60
   1   6   7  142.19    7.30
  -2  -6  -7   66.49    7.10
  -2  -6  -7   66.89    6.70
  -2  -6  -7   56.89    6.60
  -2  -6  -7   67.39    5.90
   2   6   7   64.79    6.70
   2   6   7   60.29    7.20
   2   6   7   57.29    8.30
   2   6   7   56.89    8.00
  -3  -6  -7  458.45   18.10
  -3  -6  -7  511.25   18.10
  -3  -6  -7  474.65   17.90
  -3  -6  -7  472.55   17.00
  -3  -6  -7  463.45   17.70
  -3  -6  -7  458.25   17.10
   3   6   7  474.35   18.50
   3   6   7  489.75   17.70
   3   6   7  431.96   18.60
   3   6   7  446.86   18.20
   3   6   7  457.35   16.80
  -4  -6  -7  126.99    9.50
  -4  -6  -7  106.99    8.00
  -4  -6  -7  107.69    7.60
  -4  -6  -7  109.89    9.40
  -4  -6  -7  120.19    8.50
  -4  -6  -7  111.39    9.00
   4   6   7  119.59    8.60
   4   6   7  113.89   10.50
   4   6   7  129.49    6.90
   4   6   7  113.69    9.40
   4   6   7  114.39    9.40
   4   6   7  121.49    8.90
  -5  -6  -7   56.89    7.10
  -5  -6  -7   52.39    7.60
  -5  -6  -7   47.20    6.60
  -5  -6  -7   58.39    8.20
  -5  -6  -7   57.99    6.20
   5   6   7   51.59    7.90
   5   6   7   48.90    6.80
   5   6   7   55.59    6.60
   5   6   7   59.79    7.60
   5   6   7   58.49    8.60
  -6  -6  -7   74.89    9.50
  -6  -6  -7   76.59    8.90
  -6  -6  -7   75.59    6.70
  -6  -6  -7   81.49   11.10
   6   6   7   89.89   11.30
   6   6   7   68.29    9.70
   6   6   7   85.59    9.00
   6   6   7   76.59    9.80
   6   6   7   82.19   10.60
  -7  -6  -7    0.30    3.50
  -7  -6  -7    1.50    6.30
  -7  -6  -7    3.30    7.10
  -7  -6  -7    2.10    5.60
   7   6   7   -9.70    7.90
   7   6   7   -1.00    4.60
   7   6   7   13.00    8.50
   5  -7  -7    5.50    6.40
  -5   7   7   10.00    7.10
   4  -7  -7   54.49    8.40
  -4   7   7   61.89    4.20
  -4   7   7   88.49   11.50
  -4   7   7   55.39   16.20
  -4   7   7   67.39   10.70
  -4   7   7   59.59    4.20
   3  -7  -7    3.80    2.80
   3  -7  -7    2.80    1.80
   3  -7  -7    2.20    5.30
  -3   7   7    3.00    5.90
  -3   7   7    1.60    5.50
  -3   7   7    4.90    2.40
  -3   7   7    2.60    6.90
  -3   7   7    2.50    2.40
   2  -7  -7   57.19    4.90
   2  -7  -7   39.80    5.90
   2  -7  -7   51.29    7.60
  -2   7   7   48.40    7.70
  -2   7   7   60.79    4.60
  -2   7   7   59.49    5.20
  -2   7   7   59.79    7.70
  -2   7   7   65.99    4.80
  -2   7   7   49.00    6.10
   1  -7  -7    0.60    2.20
   1  -7  -7    0.00    2.60
   1  -7  -7   -3.20    3.80
   1  -7  -7   -9.80    4.60
   1  -7  -7    1.80    2.40
  -1   7   7    0.70    2.60
  -1   7   7   -8.60    5.10
  -1   7   7    3.10    2.90
  -1   7   7   -2.10    5.00
  -1   7   7   -4.10    3.40
  -1   7   7   -0.20    1.70
   0  -7  -7   57.49    6.40
   0  -7  -7   51.69    7.00
   0  -7  -7   58.09    6.20
   0  -7  -7   71.59    5.30
   0  -7  -7   67.59    8.40
   0   7   7   57.79    7.20
   0   7   7   72.59    8.10
   0   7   7   56.79    8.70
   0   7   7   54.99    6.70
   0   7   7   58.39    5.70
   0   7   7   60.99    3.40
  -1  -7  -7   -3.30    3.10
  -1  -7  -7   -8.00    3.90
  -1  -7  -7    2.10    2.60
  -1  -7  -7   -3.50    3.90
   1   7   7   -8.70    4.00
   1   7   7    3.80    3.80
   1   7   7   -2.80    3.10
   1   7   7    5.60    3.70
  -2  -7  -7  126.09    8.90
  -2  -7  -7   90.29    7.40
  -2  -7  -7  129.79    8.70
  -2  -7  -7  112.29    9.20
  -2  -7  -7  123.29    9.20
   2   7   7  112.19    7.70
   2   7   7  116.89    8.70
  -3  -7  -7    2.10    4.00
  -3  -7  -7    4.40    4.10
  -3  -7  -7   -0.80    4.10
  -3  -7  -7    1.00    3.40
  -3  -7  -7    2.00    4.10
   3   7   7    2.50    4.60
   3   7   7    0.20    4.00
   3   7   7    8.70    4.80
   3   7   7    1.90    3.60
   3   7   7   -1.70    3.40
   3   7   7    4.40    3.60
  -4  -7  -7    2.30    4.80
  -4  -7  -7    6.40    4.10
  -4  -7  -7    8.40    4.50
  -4  -7  -7    2.90    4.10
  -4  -7  -7    3.60    4.50
  -4  -7  -7    3.40    4.60
   4   7   7    2.00    5.30
   4   7   7   14.70    3.70
   4   7   7    4.30    4.50
   4   7   7    4.60    4.20
   4   7   7    5.80    5.30
   4   7   7    9.00    5.20
  -5  -7  -7    2.40    5.00
  -5  -7  -7    7.30    3.90
  -5  -7  -7   11.20    5.50
  -5  -7  -7    6.90    4.10
  -5  -7  -7    1.70    4.40
  -5  -7  -7    4.40    5.70
   5   7   7    1.10    5.20
   5   7   7   -0.10    6.30
   5   7   7    1.70    5.10
   5   7   7   -8.10    4.70
  -6  -7  -7   58.19    8.20
  -6  -7  -7   46.60    7.10
  -6  -7  -7   61.09   10.00
  -6  -7  -7   71.49    9.10
  -6  -7  -7   41.90    6.90
   6   7   7   51.99    7.00
   6   7   7   70.69   10.00
   6   7   7   49.40    7.30
   6   7   7   49.20    8.30
   6   7   7   52.09    8.70
  -7  -7  -7   14.90    6.70
  -7  -7  -7    8.00    8.60
  -7  -7  -7   12.20    4.50
  -7  -7  -7   11.60    6.70
   7   7   7    0.80    5.30
   7   7   7    5.70    8.90
   7   7   7    3.80    8.70
   4  -8  -7    0.80    6.00
  -4   8   7    6.20   11.00
   3  -8  -7    0.40    5.70
   3  -8  -7    1.50    2.20
   3  -8  -7    5.70    2.70
  -3   8   7    1.60    2.80
  -3   8   7    6.10    2.70
  -3   8   7   -3.00    5.90
  -3   8   7  -11.50    6.90
   2  -8  -7  281.47   11.40
   2  -8  -7  282.27   15.50
   2  -8  -7  290.87   10.80
   2  -8  -7  288.07   15.10
  -2   8   7  304.07   16.70
  -2   8   7  272.87   11.30
  -2   8   7  282.97   11.10
  -2   8   7  284.57   17.50
   1  -8  -7   35.70    4.00
   1  -8  -7   35.00    4.50
   1  -8  -7   45.40    4.70
   1  -8  -7   37.40    6.40
   1  -8  -7   31.80    6.40
  -1   8   7   32.60    4.50
  -1   8   7   47.90    8.10
  -1   8   7   36.40    4.20
  -1   8   7   37.30    7.20
   0  -8  -7   81.29    6.10
   0  -8  -7   78.29    7.40
   0  -8  -7   73.79    9.00
   0  -8  -7   73.49    6.60
   0  -8  -7   68.89    8.70
   0   8   7   75.69    8.60
   0   8   7   70.69   10.40
   0   8   7   74.59    6.70
   0   8   7   79.49   10.20
   0   8   7   74.89    7.60
  -1  -8  -7   77.29    9.40
  -1  -8  -7   78.19    7.60
  -1  -8  -7   62.19    8.90
  -1  -8  -7   65.59   11.10
  -1  -8  -7   65.09    6.40
   1   8   7   66.59    8.10
   1   8   7   57.99    8.10
   1   8   7   71.69    8.30
   1   8   7   52.19    6.20
  -2  -8  -7  138.09   10.10
  -2  -8  -7  142.89    8.80
  -2  -8  -7  126.59   10.20
  -2  -8  -7  135.59   10.10
  -2  -8  -7  139.59    9.80
   2   8   7  127.19    9.30
   2   8   7  141.49   12.30
   2   8   7  140.79    6.50
   2   8   7  126.59   10.50
   2   8   7  132.39   10.70
   2   8   7  148.89   10.30
  -3  -8  -7   34.50    5.90
  -3  -8  -7   36.10    6.30
  -3  -8  -7   32.40    5.80
  -3  -8  -7   27.60    5.40
  -3  -8  -7   34.60    5.10
   3   8   7   36.40    7.30
   3   8   7   29.00    6.20
   3   8   7   41.40    6.00
   3   8   7   47.80    5.80
   3   8   7   43.60    6.50
  -4  -8  -7   11.20    4.90
  -4  -8  -7   13.80    5.80
  -4  -8  -7    8.60    4.80
  -4  -8  -7   26.50    5.80
  -4  -8  -7   15.50    4.80
   4   8   7   11.00    4.00
   4   8   7   18.50    5.10
   4   8   7   16.30    5.10
   4   8   7   17.90    6.50
   4   8   7   19.40    6.20
   4   8   7   15.00    6.60
  -5  -8  -7   34.60    6.80
  -5  -8  -7   27.50    5.90
  -5  -8  -7   31.90    6.20
  -5  -8  -7   30.80    6.90
  -5  -8  -7   24.30    5.30
   5   8   7   30.60    6.90
   5   8   7   22.80    7.00
   5   8   7   20.80    6.50
   5   8   7   26.40    4.00
   5   8   7   19.10    8.80
   5   8   7   22.70    5.90
  -6  -8  -7   11.10    5.60
  -6  -8  -7   24.70    7.70
  -6  -8  -7    5.60    7.90
  -6  -8  -7   11.60    4.90
  -6  -8  -7   14.10    5.40
   6   8   7   15.40   11.00
   6   8   7   14.40    6.40
   6   8   7   10.90    7.00
   6   8   7   21.30    8.10
   6   8   7   16.10    7.10
  -7  -8  -7    7.90    4.70
  -7  -8  -7   10.00    6.30
  -7  -8  -7   17.20    7.90
   7   8   7   10.90    6.60
   7   8   7   11.40    9.30
   7   8   7   -5.10    8.80
   3  -9  -7   -4.90    6.00
   3  -9  -7   -1.10    2.70
   3  -9  -7   -0.40    3.40
  -3   9   7   -9.20    7.50
  -3   9   7    2.20    3.40
  -3   9   7    1.00    3.30
   2  -9  -7   -1.80    7.10
   2  -9  -7   -3.00    3.50
   2  -9  -7   -0.80    6.00
   2  -9  -7    4.70    4.00
  -2   9   7    0.90    6.40
  -2   9   7    4.90    3.50
  -2   9   7    3.20    3.50
   1  -9  -7   94.39    8.40
   1  -9  -7  103.49    7.00
   1  -9  -7   84.59    5.90
   1  -9  -7   84.69   10.80
   1  -9  -7   83.09   11.10
  -1   9   7  105.59   13.70
  -1   9   7   95.69    7.60
  -1   9   7   97.69    8.00
  -1   9   7   77.89   14.60
   0  -9  -7   -0.10    3.00
   0  -9  -7   -5.70    4.70
   0  -9  -7    1.20    3.10
   0  -9  -7   10.40    4.20
   0  -9  -7   -7.50    5.20
   0   9   7    2.90    6.30
   0   9   7   -3.70    3.60
   0   9   7    6.60    7.10
   0   9   7   -0.20    4.00
  -1  -9  -7   60.39    7.20
  -1  -9  -7   41.10    6.50
  -1  -9  -7   48.10    7.30
  -1  -9  -7   36.80    4.90
  -1  -9  -7   26.60    5.40
   1   9   7   41.10    7.00
   1   9   7   44.30    5.60
   1   9   7   32.80    7.40
   1   9   7   44.20    6.30
   1   9   7   39.60    7.00
  -2  -9  -7    6.90    4.50
  -2  -9  -7    1.00    3.90
  -2  -9  -7    6.60    4.40
  -2  -9  -7    6.90    5.10
  -2  -9  -7    0.80    4.80
   2   9   7   -0.40    5.10
   2   9   7    7.60    4.60
   2   9   7    2.40    5.30
   2   9   7    6.80    5.40
   2   9   7   11.40    6.60
  -3  -9  -7    4.70    5.10
  -3  -9  -7    3.30    5.30
  -3  -9  -7    1.70    4.20
  -3  -9  -7   10.60    5.50
  -3  -9  -7    2.40    5.20
   3   9   7   -3.60    5.10
   3   9   7    0.20    5.00
   3   9   7   -3.30    9.50
   3   9   7    4.10    3.20
   3   9   7   -2.50    6.40
   3   9   7    1.30    5.40
  -4  -9  -7   51.99    7.70
  -4  -9  -7   59.59    8.50
  -4  -9  -7   40.60    7.50
  -4  -9  -7   51.89    7.60
  -4  -9  -7   40.80    6.80
   4   9   7   44.50    6.70
   4   9   7   45.00    6.00
   4   9   7   54.09    8.60
   4   9   7   41.40    8.10
   4   9   7   75.09   11.30
  -5  -9  -7    9.10    5.60
  -5  -9  -7   17.10    7.80
  -5  -9  -7    6.90    7.80
  -5  -9  -7    7.30    6.10
   5   9   7    5.80    5.80
   5   9   7    5.90    7.30
   5   9   7   16.60    8.10
   5   9   7   17.60    7.00
   5   9   7    7.50    6.60
  -6  -9  -7   -3.10    5.10
  -6  -9  -7   -0.30    6.10
  -6  -9  -7   -2.30    6.80
  -6  -9  -7   -2.90    6.00
   6   9   7   -9.00    6.80
   6   9   7    9.20    8.80
   6   9   7  -12.50    6.20
   2 -10  -7    5.50    4.90
   2 -10  -7    9.40    5.10
   2 -10  -7    9.20    7.30
  -2  10   7   13.70    8.10
  -2  10   7   13.30    4.90
  -2  10   7   10.00    4.40
   1 -10  -7   59.99    9.90
   1 -10  -7   55.59    6.80
   1 -10  -7   49.30    5.20
   1 -10  -7   54.19    7.70
  -1  10   7   55.59    8.00
  -1  10   7   61.79    9.90
  -1  10   7   57.39    9.90
  -1  10   7   71.69    8.50
   0 -10  -7   15.20    5.50
   0 -10  -7   28.50    7.50
   0 -10  -7   14.60    4.00
   0 -10  -7    0.80    9.00
   0 -10  -7   14.20    4.10
   0  10   7   21.40    5.00
   0  10   7    9.00    7.50
   0  10   7    9.90    8.10
   0  10   7    9.00    5.00
   0  10   7    5.70    7.20
  -1 -10  -7   64.29    9.00
  -1 -10  -7   81.69   10.10
  -1 -10  -7   77.79    8.60
  -1 -10  -7   76.69    8.00
  -1 -10  -7   90.29   13.00
   1  10   7   63.99    9.00
   1  10   7   65.29    9.80
   1  10   7   90.49    9.10
   1  10   7   71.29    9.70
   1  10   7   83.19   11.70
  -2 -10  -7  122.89   12.10
  -2 -10  -7  132.59    9.70
  -2 -10  -7  124.99   12.00
  -2 -10  -7  113.79   12.80
  -2 -10  -7  116.49   10.40
   2  10   7  115.09   14.30
   2  10   7  112.29   11.50
   2  10   7  149.09   13.40
   2  10   7  148.79   13.10
   2  10   7  148.29   10.80
  -3 -10  -7   23.70    7.60
  -3 -10  -7   47.80    6.70
  -3 -10  -7   27.00    6.50
  -3 -10  -7   44.40    7.50
  -3 -10  -7   37.40    7.60
   3  10   7   23.00    6.30
   3  10   7   45.10    8.80
   3  10   7   41.30    7.30
   3  10   7   25.90    7.60
   3  10   7   34.80    7.20
  -4 -10  -7    6.10    6.60
  -4 -10  -7   14.50    7.10
  -4 -10  -7    7.00    5.30
  -4 -10  -7    7.40    5.70
   4  10   7    2.40    5.80
   4  10   7   23.60    8.40
   4  10   7   14.30    6.40
   4  10   7   23.00    8.60
   4  10   7   11.60    4.40
   4  10   7   18.70    7.50
  -5 -10  -7    2.00    5.90
  -5 -10  -7    2.60    5.50
  -5 -10  -7    1.30    7.30
   5  10   7    1.70    4.80
   5  10   7  -14.80    7.70
   5  10   7    7.90    8.30
   5  10   7  -12.10    7.00
   5  10   7    4.70    5.80
   1 -11  -7   15.10    8.00
  -1  11   7    5.20    5.70
  -1  11   7    5.60    8.80
   0 -11  -7  125.79   10.00
   0 -11  -7  117.09   12.70
   0 -11  -7  110.89    8.90
   0  11   7  146.29   14.10
   0  11   7  122.79   10.90
   0  11   7  135.99   16.30
  -1 -11  -7    6.20    4.70
  -1 -11  -7   -1.70    6.20
  -1 -11  -7    7.60    5.20
   1  11   7    5.20    6.00
   1  11   7  -13.80    9.20
   1  11   7   -7.20    7.60
   1  11   7   -6.20    5.30
  -2 -11  -7    9.90    6.00
  -2 -11  -7    3.80    4.80
  -2 -11  -7   -2.30    6.40
   2  11   7    8.00    6.50
   2  11   7   23.60    6.90
   2  11   7   10.80    8.00
   2  11   7   -6.80    8.10
  -3 -11  -7   47.10    6.80
  -3 -11  -7   39.20    9.50
  -3 -11  -7   37.10    8.00
   3  11   7   47.80    8.40
   3  11   7   29.60    7.40
   3  11   7   49.20   10.00
   3  11   7   32.00    8.20
  -4 -11  -7    7.60    6.30
  -4 -11  -7    0.00    7.70
  -4 -11  -7    5.70    7.60
   4  11   7    3.90    8.20
   4  11   7    5.10    6.80
   4  11   7    5.30    8.10
   4  11   7   -3.50    8.10
   4  10  -8   49.90    7.60
   4  10  -8   45.20    8.40
   4  10  -8   42.40    7.60
   4  10  -8   47.60    8.80
  -4 -10   8   52.89    8.10
  -4 -10   8   53.29   11.30
  -4 -10   8   37.40    9.60
   3  10  -8  130.79   11.60
   3  10  -8  148.09   18.20
   3  10  -8  144.99   12.30
  -3 -10   8  157.68   15.70
  -3 -10   8  144.29   12.40
  -3 -10   8  144.29   12.60
  -3 -10   8  146.99   15.30
   2  10  -8   33.00    6.70
   2  10  -8   42.00    6.80
  -2 -10   8   33.50    8.10
  -2 -10   8   31.20    6.90
  -2 -10   8   36.20    8.20
   1  10  -8   64.89    9.90
   1  10  -8   83.19   10.90
  -1 -10   8   63.29    9.30
  -1 -10   8   64.59    9.40
  -1 -10   8   59.19    8.20
   0  10  -8   33.10    7.10
   0 -10   8   33.30    7.30
   0 -10   8   31.00    6.00
  -1  10  -8    6.90    3.80
  -1  10  -8   14.40    6.50
   1 -10   8    6.30    5.10
   1 -10   8    6.50    6.40
   5   9  -8   10.70    6.00
   5   9  -8   11.80    6.40
   5   9  -8   19.40    8.80
   5   9  -8    6.00    5.40
  -5  -9   8   16.60    6.10
  -5  -9   8   10.00   16.00
  -5  -9   8   22.60    8.50
   4   9  -8   43.60    7.30
   4   9  -8   37.10    6.50
   4   9  -8   57.89    9.00
   4   9  -8   44.80    8.80
  -4  -9   8   46.30    7.00
  -4  -9   8   26.90    7.70
  -4  -9   8   41.60   14.40
  -4  -9   8   31.80    9.30
   3   9  -8  291.47   14.60
   3   9  -8  289.77   15.30
   3   9  -8  284.67   13.60
   3   9  -8  265.17   16.10
  -3  -9   8  260.97   17.20
  -3  -9   8  272.07   14.30
  -3  -9   8  274.47   16.70
  -3  -9   8  269.57   14.90
  -3  -9   8  278.87   16.40
   2   9  -8  130.59   11.40
   2   9  -8  121.79   10.70
   2   9  -8  108.09    8.90
   2   9  -8  125.19   11.00
  -2  -9   8  100.59   10.10
  -2  -9   8  119.39   10.90
  -2  -9   8  129.19   11.90
  -2  -9   8  101.09   13.00
   1   9  -8  147.39   10.60
   1   9  -8  150.88   10.00
   1   9  -8  143.89   11.00
   1   9  -8  172.78   11.60
  -1  -9   8  145.89   14.70
  -1  -9   8  139.99   10.50
  -1  -9   8  155.08   11.40
  -1  -9   8  145.29   12.00
   0   9  -8   21.70    6.30
   0   9  -8   17.40    6.10
   0   9  -8   15.80    4.30
   0  -9   8   18.90    7.60
   0  -9   8   21.10    4.90
   0  -9   8   24.80    6.00
   0  -9   8   26.50    6.30
  -1   9  -8   44.40    7.00
  -1   9  -8   64.99    6.00
  -1   9  -8   43.30    7.20
   1  -9   8   43.70    7.10
   1  -9   8   46.10    8.70
   1  -9   8   52.49    8.10
   1  -9   8   56.79    7.70
  -2   9  -8    6.30    7.10
  -2   9  -8    7.50    5.80
   2  -9   8    5.50    5.90
   2  -9   8    1.90    4.20
   2  -9   8   -2.70    8.00
   6   8  -8   30.10    6.60
   6   8  -8   17.50    9.50
   6   8  -8   37.30    6.80
   6   8  -8   22.80    6.60
  -6  -8   8   19.90    8.50
  -6  -8   8   32.70    8.50
  -6  -8   8   23.50    6.00
   5   8  -8   20.20    4.90
   5   8  -8   14.80    5.90
   5   8  -8   11.50    7.70
   5   8  -8   20.50    5.50
  -5  -8   8   13.60    5.50
  -5  -8   8   11.90    7.80
  -5  -8   8   31.00    7.20
  -5  -8   8   22.90   10.00
   4   8  -8   17.60    5.60
   4   8  -8   12.20    6.40
   4   8  -8   15.30    4.50
   4   8  -8   10.90    5.40
   4   8  -8   13.40    4.70
  -4  -8   8   13.60    6.90
  -4  -8   8    8.70    6.00
  -4  -8   8   18.50    5.10
  -4  -8   8    9.80    6.90
   3   8  -8   15.70    6.00
   3   8  -8   10.90    4.60
   3   8  -8    8.70    3.90
  -3  -8   8    6.90    5.10
  -3  -8   8   12.60    5.40
  -3  -8   8    4.80    5.90
  -3  -8   8   11.90    5.20
  -3  -8   8    9.20    5.90
   2   8  -8   37.70    5.50
   2   8  -8   49.90    6.50
   1   8  -8  503.25   19.40
   1   8  -8  546.85   19.80
   1   8  -8  505.75   18.70
   1   8  -8  520.15   19.90
  -1  -8   8  512.35   19.70
  -1  -8   8  533.65   20.30
  -1  -8   8  518.15   21.80
  -1  -8   8  534.05   20.20
   0   8  -8   20.90    5.20
   0   8  -8   16.90    4.90
   0   8  -8   13.10    3.90
   0  -8   8   19.50    5.30
   0  -8   8   22.40    5.10
   0  -8   8   10.70    4.10
   0  -8   8    9.70    5.40
  -1   8  -8    8.30    5.30
  -1   8  -8   12.50    3.00
  -1   8  -8   16.30    5.30
   1  -8   8    4.70    5.00
   1  -8   8    5.60    4.90
   1  -8   8   14.70    6.00
   1  -8   8   17.50    4.40
  -2   8  -8   -5.50    4.90
  -2   8  -8   -1.70    4.90
   2  -8   8   -6.20    5.00
   2  -8   8    2.60    3.90
   2  -8   8    1.50    6.10
   2  -8   8   -3.60    5.60
  -3   8  -8   17.70    6.90
  -3   8  -8   14.90    6.20
   3  -8   8   25.80    5.10
   3  -8   8   25.50    8.10
   3  -8   8   11.60    7.00
   6   7  -8   11.60    5.20
   6   7  -8    2.00    8.10
   6   7  -8    3.10    5.30
   6   7  -8    4.70    4.70
  -6  -7   8    9.10    6.10
  -6  -7   8   -3.90    7.00
  -6  -7   8    2.20    4.80
   5   7  -8    8.50    4.00
   5   7  -8    8.40    4.90
   5   7  -8   17.00    4.50
   5   7  -8    3.00    6.80
   5   7  -8   12.30    5.00
  -5  -7   8    0.90    6.10
  -5  -7   8   13.90    4.90
  -5  -7   8    3.40    7.70
  -5  -7   8   10.50    5.50
   4   7  -8   26.00    6.80
   4   7  -8   34.30    5.20
   4   7  -8   40.90    6.10
   4   7  -8   34.30    6.20
   4   7  -8   23.70    4.40
  -4  -7   8   24.60    7.20
  -4  -7   8   28.20    5.10
  -4  -7   8   33.20    6.20
  -4  -7   8   19.60    6.30
   3   7  -8  111.79    8.40
   3   7  -8  123.09    7.50
   3   7  -8  113.79   10.70
   3   7  -8  121.39    8.90
   3   7  -8  107.59   10.10
  -3  -7   8  126.69    9.80
  -3  -7   8  130.79    9.10
  -3  -7   8  126.19    9.40
  -3  -7   8  119.39   11.10
  -3  -7   8  124.39   10.60
   2   7  -8    2.80    2.80
   2   7  -8    4.40    3.80
   2   7  -8    7.10    4.40
   2   7  -8    3.60    3.80
  -2  -7   8    2.30    3.90
  -2  -7   8    3.20    4.00
  -2  -7   8    0.50    3.90
  -2  -7   8   -1.00    4.50
   1   7  -8  751.02   24.90
   1   7  -8  753.82   24.80
   1   7  -8  732.73   24.80
   1   7  -8  717.23   23.80
  -1  -7   8  748.43   27.10
  -1  -7   8  751.32   25.20
  -1  -7   8  707.13   25.10
  -1  -7   8  716.33   24.90
   0   7  -8  141.89    8.10
   0   7  -8  142.79    9.80
   0   7  -8  150.98    9.50
   0  -7   8  158.78    9.50
   0  -7   8  162.58   10.00
   0  -7   8  145.69    9.90
   0  -7   8  150.98   11.10
  -1   7  -8  236.18   12.30
  -1   7  -8  225.28   11.70
  -1   7  -8  230.38    8.70
   1  -7   8  239.98   12.30
   1  -7   8  220.68   12.30
   1  -7   8  229.38   11.40
   1  -7   8  231.28   13.40
  -2   7  -8  106.99    9.20
  -2   7  -8  104.09   10.00
   2  -7   8  117.49    9.70
   2  -7   8  111.29   10.40
   2  -7   8  114.19    8.60
   2  -7   8  103.29   10.20
  -3   7  -8    0.60    4.80
  -3   7  -8    3.20    5.30
   3  -7   8  -10.50    5.20
   3  -7   8    4.30    5.50
   3  -7   8    4.40    4.20
   3  -7   8    4.00    5.90
  -4   7  -8  166.08   12.90
  -4   7  -8  131.99   12.90
  -4   7  -8  130.09   12.20
   4  -7   8  144.79   10.70
   4  -7   8  144.29   14.40
   4  -7   8  151.48   13.40
   7   6  -8    8.30    5.30
   7   6  -8   -3.00    8.80
   7   6  -8    2.20    4.20
   7   6  -8    5.10    6.10
  -7  -6   8    2.20    6.70
  -7  -6   8    0.80    5.60
  -7  -6   8    0.90    4.60
   6   6  -8   10.00    7.70
   6   6  -8   17.10    4.50
   6   6  -8    7.20    5.20
   6   6  -8    6.80    4.30
  -6  -6   8   10.50    6.30
  -6  -6   8   -5.30    4.00
  -6  -6   8   -0.80    4.70
  -6  -6   8   16.10    4.90
   5   6  -8   99.99    7.90
   5   6  -8   81.09    9.20
   5   6  -8  103.49    7.90
   5   6  -8   97.09    9.00
   5   6  -8   75.29   14.20
  -5  -6   8   77.39    8.00
  -5  -6   8  102.59   12.60
  -5  -6   8  101.29    9.70
  -5  -6   8   82.19   10.10
   4   6  -8   24.70    4.30
   4   6  -8   26.20    3.70
   4   6  -8   13.00    3.60
   4   6  -8   10.40    5.50
   4   6  -8   19.10    5.10
  -4  -6   8   22.00    5.80
  -4  -6   8   22.00    5.50
  -4  -6   8   17.40    4.20
  -4  -6   8   26.40    6.30
   3   6  -8    4.30    4.50
   3   6  -8   -0.20    3.20
   3   6  -8    6.20    2.60
   3   6  -8    2.00    3.20
   3   6  -8   -1.30    4.60
  -3  -6   8    3.90    4.10
  -3  -6   8    3.50    3.60
  -3  -6   8    5.70    3.60
  -3  -6   8    5.60    5.10
  -3  -6   8    0.70    4.30
   2   6  -8   21.70    4.40
   2   6  -8   26.10    3.30
   2   6  -8   22.30    4.30
   2   6  -8   20.50    4.90
  -2  -6   8   16.80    4.40
  -2  -6   8   19.30    4.10
  -2  -6   8   25.30    5.50
  -2  -6   8   20.80    4.30
   1   6  -8   14.50    3.70
   1   6  -8   10.50    4.10
   1   6  -8   13.00    3.80
   1   6  -8   13.90    2.70
  -1  -6   8   15.00    3.90
  -1  -6   8   10.50    4.10
  -1  -6   8    2.30    3.50
  -1  -6   8    6.80    4.40
   0   6  -8    4.30    2.80
   0   6  -8   -3.20    3.50
   0   6  -8    5.80    3.70
   0  -6   8    2.40    3.40
   0  -6   8    3.20    4.20
   0  -6   8   -2.30    3.70
  -1   6  -8  111.49    7.90
  -1   6  -8  113.99    5.30
  -1   6  -8  109.49    8.30
   1  -6   8   99.69    8.10
   1  -6   8   96.19    9.20
   1  -6   8  109.19    8.20
   1  -6   8  119.89    8.20
  -2   6  -8    6.40    3.90
  -2   6  -8    5.20    4.20
   2  -6   8    2.00    4.20
   2  -6   8    1.60    4.30
   2  -6   8    7.30    4.00
   2  -6   8    5.70    3.70
  -3   6  -8   50.69    6.50
  -3   6  -8   41.80    5.80
   3  -6   8   42.40    6.10
   3  -6   8   51.79    7.20
   3  -6   8   35.50    6.20
   3  -6   8   41.30    6.00
  -4   6  -8    5.30    5.30
  -4   6  -8    7.20    5.30
  -4   6  -8    5.20    5.10
   4  -6   8   14.70    6.40
   4  -6   8   14.30    6.10
   4  -6   8   13.20    5.20
   4  -6   8    6.80    4.80
  -5   6  -8    2.50    6.10
  -5   6  -8   -7.90    5.90
  -5   6  -8  -10.70    6.00
   5  -6   8   -5.90    7.40
   5  -6   8   -0.30    4.80
   5  -6   8    7.10    5.70
   7   5  -8   -1.00    4.00
   7   5  -8   -3.70    3.50
   7   5  -8    8.80    9.10
  -7  -5   8   -2.80    6.20
  -7  -5   8    3.80    5.40
  -7  -5   8   -4.60    4.90
  -7  -5   8   -4.80    3.80
   6   5  -8   10.00    3.70
   6   5  -8   -1.70    3.70
   6   5  -8    0.00    4.80
   6   5  -8    0.00    6.90
   6   5  -8    0.10    4.10
  -6  -5   8   11.90    4.80
  -6  -5   8    1.00    5.20
  -6  -5   8    8.00    4.40
  -6  -5   8    6.00    4.00
  -6  -5   8   -5.00    7.90
   5   5  -8   39.20    4.40
   5   5  -8   33.00    4.20
   5   5  -8   45.10    5.60
   5   5  -8   33.20    7.30
   5   5  -8   38.80    6.20
  -5  -5   8   34.50    6.00
  -5  -5   8   45.00    6.30
  -5  -5   8   36.30    7.70
  -5  -5   8   35.60    4.60
  -5  -5   8   41.50    5.40
   4   5  -8   11.00    3.60
   4   5  -8   14.60    4.60
   4   5  -8    6.60    5.20
   4   5  -8    9.10    3.20
  -4  -5   8   14.30    4.10
  -4  -5   8    7.20    5.90
  -4  -5   8    7.40    3.40
   3   5  -8   -3.50    2.80
   3   5  -8    3.30    4.20
   3   5  -8    2.20    4.00
   3   5  -8    0.60    2.80
   3   5  -8    4.40    2.20
  -3  -5   8   -5.60    3.90
  -3  -5   8   -2.50    3.00
  -3  -5   8   -2.80    3.10
   2   5  -8   32.50    3.60
   2   5  -8   32.20    3.90
   2   5  -8   31.70    5.10
   2   5  -8   27.40    4.90
   2   5  -8   28.70    4.10
  -2  -5   8   34.50    5.00
  -2  -5   8   43.80    5.70
  -2  -5   8   32.10    4.30
   1   5  -8  682.03   21.00
   1   5  -8  693.73   22.40
   1   5  -8  691.33   22.30
   1   5  -8  658.43   22.50
  -1  -5   8  666.83   22.40
  -1  -5   8  681.33   23.20
  -1  -5   8  685.63   22.50
   0   5  -8   37.50    4.70
   0   5  -8   30.50    4.50
   0   5  -8   22.20    4.20
   0  -5   8   26.80    4.30
   0  -5   8   27.90    4.40
   0  -5   8   27.30    4.90
  -1   5  -8 1458.55   43.90
  -1   5  -8 1496.55   43.80
   1  -5   8 1495.65   44.00
   1  -5   8 1407.66   44.10
   1  -5   8 1418.16   44.00
  -2   5  -8  176.28    9.70
  -2   5  -8  172.68   10.10
   2  -5   8  165.88   10.10
   2  -5   8  168.08    9.70
   2  -5   8  197.78   10.70
   2  -5   8  164.98    9.60
  -3   5  -8   50.69    7.10
  -3   5  -8   46.70    6.10
  -3   5  -8   56.19    5.80
  -3   5  -8   35.50    5.30
   3  -5   8   50.19    7.20
   3  -5   8   44.30    6.40
   3  -5   8   49.70    7.20
   3  -5   8   44.30    6.80
  -4   5  -8  353.26   16.40
  -4   5  -8  339.87   15.20
   4  -5   8  352.56   16.80
   4  -5   8  337.37   15.30
   4  -5   8  359.36   15.40
   4  -5   8  368.86   15.60
  -5   5  -8  256.37   14.40
  -5   5  -8  213.68   14.60
  -5   5  -8  248.08   14.10
  -5   5  -8  228.58   11.50
   5  -5   8  238.18   15.80
   5  -5   8  231.88   10.20
   5  -5   8  244.98   13.80
   5  -5   8  251.57   12.80
   7   4  -8   35.10   10.00
   7   4  -8   12.50    3.10
   7   4  -8   15.40    3.00
  -7  -4   8   10.90    3.80
  -7  -4   8   10.80    4.50
  -7  -4   8   22.70    5.80
  -7  -4   8   16.90    6.10
   6   4  -8    0.40    7.10
   6   4  -8    3.40    2.90
   6   4  -8    0.90    2.60
   6   4  -8    1.20    4.90
  -6  -4   8    7.50    8.80
  -6  -4   8   -3.70    3.90
  -6  -4   8   -1.50    3.50
  -6  -4   8    1.00    3.20
   5   4  -8    5.80    6.20
   5   4  -8    9.60    3.50
   5   4  -8   15.20    4.90
   5   4  -8    6.20    4.90
  -5  -4   8   11.90    3.50
  -5  -4   8   10.40    6.50
  -5  -4   8    7.30    3.10
  -5  -4   8    8.00    3.70
   4   4  -8  101.99    8.80
   4   4  -8   97.99    6.00
   4   4  -8   94.49    9.80
   4   4  -8   89.39    6.40
   4   4  -8   94.99    5.70
  -4  -4   8   94.79    6.10
  -4  -4   8   95.59    6.50
  -4  -4   8  114.29   10.40
  -4  -4   8  101.89    7.10
   3   4  -8  743.63   24.70
   3   4  -8  690.93   22.30
   3   4  -8  729.43   22.30
   3   4  -8  706.83   25.10
   3   4  -8  708.33   21.40
  -3  -4   8  729.23   24.70
  -3  -4   8  711.53   22.90
  -3  -4   8  670.93   22.50
   2   4  -8    0.90    3.40
   2   4  -8    2.80    2.60
   2   4  -8   -0.20    2.20
   2   4  -8    2.10    1.50
   2   4  -8   -0.70    3.30
  -2  -4   8    2.00    2.50
  -2  -4   8   -0.40    2.40
  -2  -4   8    1.70    3.30
   1   4  -8  468.95   16.70
   1   4  -8  482.95   14.80
   1   4  -8  500.25   16.30
   1   4  -8  469.45   16.30
  -1  -4   8  482.45   17.40
  -1  -4   8  478.95   16.50
  -1  -4   8  462.75   16.40
   0   4  -8   -1.40    2.00
   0   4  -8    2.30    2.40
   0   4  -8   -1.40    2.50
   0  -4   8   -2.90    2.70
   0  -4   8    1.60    2.60
   0  -4   8   -1.90    2.50
  -1   4  -8    4.30    3.20
  -1   4  -8    3.10    2.80
   1  -4   8    1.50    3.20
   1  -4   8    2.80    3.40
   1  -4   8    4.30    3.40
  -2   4  -8  982.40   31.30
  -2   4  -8  993.30   31.60
  -2   4  -8 1020.60   32.00
  -2   4  -8 1042.20   31.40
   2  -4   8 1009.80   32.20
   2  -4   8 1009.40   31.80
   2  -4   8 1031.90   32.60
  -3   4  -8  435.96   16.00
  -3   4  -8  427.96   17.00
  -3   4  -8  414.26   16.60
  -3   4  -8  461.05   17.50
   3  -4   8  449.16   17.00
   3  -4   8  476.25   17.40
   3  -4   8  460.45   18.10
  -4   4  -8   10.30    4.30
  -4   4  -8    6.70    4.50
  -4   4  -8    5.70    4.10
  -4   4  -8   10.10    4.30
   4  -4   8   10.20    5.30
   4  -4   8    6.50    4.60
   4  -4   8    6.50    4.30
   4  -4   8    8.70    4.40
  -5   4  -8   33.20    4.80
  -5   4  -8   24.90    5.90
  -5   4  -8   26.40    5.70
  -5   4  -8   34.10    6.40
   5  -4   8   31.70    3.60
   5  -4   8   33.60    6.70
   5  -4   8   24.10    6.00
   5  -4   8   44.10    7.60
   5  -4   8   31.60    5.00
  -6   4  -8   23.60    6.50
  -6   4  -8   13.00    6.60
  -6   4  -8   28.60    7.60
  -6   4  -8   27.00    5.20
   6  -4   8   27.70    9.50
   6  -4   8   17.10    8.30
   7   3  -8   22.50    2.40
   7   3  -8   33.20    9.30
  -7  -3   8   24.70    4.50
  -7  -3   8   25.90    6.20
  -7  -3   8   23.70    3.50
  -7  -3   8   24.20    6.10
   6   3  -8   25.80    3.60
   6   3  -8   25.60    2.70
   6   3  -8   20.20    7.60
  -6  -3   8   23.40    4.90
  -6  -3   8   21.60    3.40
  -6  -3   8   28.20    8.80
  -6  -3   8   22.20    3.70
   5   3  -8   21.70    6.20
   5   3  -8   26.40    3.80
   5   3  -8   28.10    5.40
  -5  -3   8   23.20    3.70
  -5  -3   8   22.40    3.30
  -5  -3   8   31.20    4.10
  -5  -3   8   24.00    7.00
   4   3  -8  426.16   14.10
   4   3  -8  425.76   14.10
   4   3  -8  405.66   17.90
   4   3  -8  432.06   17.20
   4   3  -8  425.46   14.10
  -4  -3   8  460.95   19.00
  -4  -3   8  436.66   17.30
  -4  -3   8  407.66   14.20
  -4  -3   8  443.06   15.00
  -4  -3   8  422.46   14.50
   3   3  -8  157.88    6.00
   3   3  -8  141.49    7.50
   3   3  -8  154.48   10.00
   3   3  -8  155.38    7.30
   3   3  -8  148.89    9.40
  -3  -3   8  157.18    7.50
  -3  -3   8  163.58    7.40
  -3  -3   8  163.88    9.50
   2   3  -8   56.89    4.60
   2   3  -8   63.59    2.90
   2   3  -8   56.59    6.80
   2   3  -8   70.79    6.40
   2   3  -8   59.39    4.40
  -2  -3   8   62.19    4.90
  -2  -3   8   55.19    5.80
  -2  -3   8   61.09    4.80
   1   3  -8  283.57   11.70
   1   3  -8  231.38    9.40
   1   3  -8  275.67    9.90
  -1  -3   8  221.88   10.70
  -1  -3   8  220.98    9.60
  -1  -3   8  239.28    9.70
   0   3  -8   24.80    3.30
   0   3  -8   30.00    3.70
   0  -3   8   22.00    3.20
   0  -3   8   23.30    3.80
   0  -3   8   28.00    3.70
  -1   3  -8 1221.28   36.40
  -1   3  -8 1237.58   37.50
  -1   3  -8 1288.67   37.70
   1  -3   8 1253.97   37.50
   1  -3   8 1270.27   38.00
   1  -3   8 1239.68   38.20
  -2   3  -8   36.80    4.60
  -2   3  -8   40.80    5.20
  -2   3  -8   28.30    3.90
  -2   3  -8   36.50    4.80
   2  -3   8   39.30    5.00
   2  -3   8   40.20    5.70
   2  -3   8   38.00    5.30
  -3   3  -8   23.50    4.10
  -3   3  -8   14.70    3.70
  -3   3  -8   23.70    3.90
  -3   3  -8   26.10    4.50
   3  -3   8   15.50    4.50
   3  -3   8   20.70    4.80
   3  -3   8   20.00    4.20
  -4   3  -8  114.49    8.70
  -4   3  -8  100.39    7.50
  -4   3  -8  106.69    7.90
  -4   3  -8  115.19    9.10
   4  -3   8   92.89    7.40
   4  -3   8  128.59    9.50
   4  -3   8  110.09    9.70
   4  -3   8   98.79    8.60
  -5   3  -8   67.09    8.50
  -5   3  -8   45.90    6.60
  -5   3  -8   54.79    7.10
   5  -3   8   55.19    7.20
   5  -3   8   48.20    6.30
   5  -3   8   47.70    7.80
   5  -3   8   63.99    7.40
  -6   3  -8  169.38   13.60
  -6   3  -8  165.78   12.20
  -6   3  -8  171.78   12.30
  -6   3  -8  161.88   11.00
   6  -3   8  171.18   15.90
   6  -3   8  142.69    8.90
   6  -3   8  157.58   14.30
   7   2  -8    0.60    8.30
  -7  -2   8    1.70    2.30
  -7  -2   8   -6.50    5.10
  -7  -2   8    0.00    2.00
  -6  -2   8    2.40    4.00
  -6  -2   8    8.00    4.70
  -6  -2   8    4.50    2.20
  -6  -2   8    8.20    8.00
   5   2  -8    9.40    5.70
   5   2  -8   -6.30    3.60
   5   2  -8    8.50    4.60
   5   2  -8    2.60    1.50
   5   2  -8    5.80    1.50
  -5  -2   8   -2.50    4.20
  -5  -2   8   -2.30    5.80
  -5  -2   8    1.60    2.40
  -5  -2   8   -1.40    2.00
  -5  -2   8    7.20    3.10
   4   2  -8  126.89    8.70
   4   2  -8  134.99    9.60
   4   2  -8  129.69    5.40
   4   2  -8  121.59   10.60
  -4  -2   8  124.29    6.50
  -4  -2   8  126.59    6.10
  -4  -2   8  116.29    6.20
  -4  -2   8  134.79   10.90
  -4  -2   8  124.69    9.10
   3   2  -8  148.99    9.60
   3   2  -8  155.38    6.20
   3   2  -8  148.69    9.70
   3   2  -8  155.98    6.50
   3   2  -8  164.18    8.90
  -3  -2   8  155.28    6.80
  -3  -2   8  158.08   10.00
  -3  -2   8  161.48    9.30
  -3  -2   8  155.68    6.70
  -3  -2   8  153.68    6.00
   2   2  -8    2.30    3.40
   2   2  -8    1.50    2.10
   2   2  -8    0.60    2.90
   2   2  -8   -0.70    2.80
   2   2  -8    0.10    1.60
  -2  -2   8   -0.60    1.90
  -2  -2   8   -0.90    2.90
  -2  -2   8   -0.50    1.90
   1   2  -8 2114.89   62.09
   1   2  -8 2195.78   63.29
   1   2  -8 2142.59   61.19
   1   2  -8 2174.78   62.09
   1   2  -8 2159.08   61.09
  -1  -2   8 2152.78   61.39
  -1  -2   8 2117.49   62.69
  -1  -2   8 2177.18   61.29
  -1  -2   8 2198.68   62.39
   0   2  -8   34.90    4.20
   0   2  -8   29.30    4.40
   0   2  -8   39.70    3.80
   0   2  -8   39.00    4.60
   0   2  -8   33.90    2.30
   0  -2   8   33.50    3.70
   0  -2   8   34.20    5.10
   0  -2   8   23.50    3.20
   0  -2   8   30.60    4.00
  -1   2  -8  971.30   28.90
  -1   2  -8 1027.80   30.60
  -1   2  -8 1004.20   30.10
  -1   2  -8  968.60   30.10
   1  -2   8  998.40   30.70
   1  -2   8  982.50   31.10
   1  -2   8  994.00   30.00
  -2   2  -8   41.60    4.20
  -2   2  -8   36.70    5.30
  -2   2  -8   41.60    4.90
   2  -2   8   45.40    6.00
   2  -2   8   34.50    4.70
   2  -2   8   41.10    5.20
  -3   2  -8  451.45   16.70
  -3   2  -8  440.66   16.50
  -3   2  -8  437.06   16.30
  -3   2  -8  476.35   16.70
   3  -2   8  480.35   16.60
   3  -2   8  450.45   17.50
   3  -2   8  480.25   17.80
  -4   2  -8  953.10   30.30
  -4   2  -8  928.31   30.40
  -4   2  -8  944.01   30.60
  -4   2  -8  935.51   30.10
   4  -2   8  937.01   31.40
   4  -2   8  959.50   31.60
   4  -2   8  939.31   30.10
  -5   2  -8   63.89    7.30
  -5   2  -8   66.09    7.80
  -5   2  -8   69.59    8.40
  -5   2  -8   57.49    7.80
   5  -2   8   55.19    7.80
   5  -2   8   58.49    9.20
   5  -2   8   55.09    5.90
   5  -2   8   50.29    7.00
  -6   2  -8   58.49    9.10
  -6   2  -8   80.89    9.30
  -6   2  -8   59.69    7.30
  -6   2  -8   82.49    9.00
   6  -2   8   60.49    7.40
   6  -2   8   58.79    5.90
   6  -2   8   66.39   10.20
   6  -2   8   68.89    9.00
  -7   2  -8   94.69   12.60
  -7   2  -8   89.89   11.70
  -7   2  -8   85.49    9.20
  -7   2  -8   79.89    9.50
   7  -2   8   67.79   12.20
   7  -2   8   75.19   11.10
  -7  -1   8  -16.10    9.90
  -7  -1   8    4.50    4.80
  -7  -1   8   -8.20    4.80
  -7  -1   8   -0.70    6.10
   6   1  -8  107.89    9.90
   6   1  -8  121.19   13.00
  -6  -1   8  100.79    8.90
  -6  -1   8  138.09   10.70
  -6  -1   8   90.69   12.50
  -6  -1   8  117.69   10.60
   5   1  -8  136.39    9.30
   5   1  -8  161.28   12.00
  -5  -1   8  144.69    9.70
  -5  -1   8  125.69   11.10
  -5  -1   8  129.19    9.80
  -5  -1   8  136.59    5.10
  -5  -1   8  129.79    5.60
  -5  -1   8  135.19    7.90
   4   1  -8  104.49    9.30
   4   1  -8  117.49   10.10
   4   1  -8   98.29    7.80
   4   1  -8  100.49    3.60
   4   1  -8  103.79    3.60
  -4  -1   8   90.79    5.00
  -4  -1   8   99.49    8.20
  -4  -1   8   96.69    8.90
  -4  -1   8   93.49    5.70
  -4  -1   8   95.19    4.60
  -4  -1   8  110.09    9.30
   3   1  -8  419.66   16.80
   3   1  -8  413.96   16.30
   3   1  -8  362.06   13.70
   3   1  -8  407.66   15.50
   3   1  -8  409.56   12.50
  -3  -1   8  406.36   12.70
  -3  -1   8  430.06   17.10
  -3  -1   8  416.16   15.80
  -3  -1   8  437.86   16.00
  -3  -1   8  433.76   17.00
  -3  -1   8  414.06   13.10
  -3  -1   8  414.46   13.00
   2   1  -8  332.87   10.70
   2   1  -8  314.17   13.40
   2   1  -8  335.07   12.70
   2   1  -8  334.87   10.70
  -2  -1   8  329.57   13.10
  -2  -1   8  308.27   10.90
  -2  -1   8  334.67   13.30
  -2  -1   8  315.37   10.80
   1   1  -8  562.04   18.90
   1   1  -8  591.24   18.00
   1   1  -8  556.84   20.00
  -1  -1   8  567.54   17.90
  -1  -1   8  585.44   18.20
  -1  -1   8  597.44   19.50
  -1  -1   8  586.24   19.80
   0   1  -8  613.34   19.70
   0   1  -8  581.34   19.00
   0   1  -8  612.74   18.80
   0   1  -8  605.54   18.70
   0   1  -8  621.24   20.70
   0  -1   8  569.24   19.90
   0  -1   8  599.64   18.70
   0  -1   8  573.74   19.10
   0  -1   8  596.04   19.10
  -1   1  -8  985.90   29.20
  -1   1  -8 1019.30   29.80
  -1   1  -8 1048.20   29.80
  -1   1  -8  988.10   28.40
  -1   1  -8  961.90   30.80
  -1   1  -8  984.90   30.30
   1  -1   8  923.51   30.00
   1  -1   8  995.20   29.60
   1  -1   8  980.80   30.80
   1  -1   8  964.90   28.90
  -2   1  -8  386.16   14.90
  -2   1  -8  394.96   14.30
  -2   1  -8  388.66   13.30
  -2   1  -8  402.36   14.00
  -2   1  -8  380.56   14.10
   2  -1   8  399.06   15.10
   2  -1   8  398.16   12.10
   2  -1   8  407.56   14.20
   2  -1   8  377.96   14.80
  -3   1  -8  628.44   23.00
  -3   1  -8  703.93   23.10
  -3   1  -8  675.73   22.60
  -3   1  -8  649.54   22.20
   3  -1   8  665.73   23.70
   3  -1   8  659.13   19.50
   3  -1   8  766.62   24.00
   3  -1   8  772.22   22.90
  -4   1  -8   -0.70    3.10
  -4   1  -8   -0.60    3.20
  -4   1  -8    3.80    3.40
  -4   1  -8   -1.00    3.10
   4  -1   8    9.80    3.80
   4  -1   8    3.50    2.80
   4  -1   8    0.50    4.00
   4  -1   8   -1.30    4.40
  -5   1  -8  133.59    9.10
  -5   1  -8  119.19    9.40
  -5   1  -8  124.39    9.30
  -5   1  -8  131.99    9.20
   5  -1   8  132.99    9.30
   5  -1   8  134.39   10.80
   5  -1   8  124.19   11.10
  -6   1  -8   10.60    5.20
  -6   1  -8   12.10    5.00
  -6   1  -8   11.20    5.10
  -6   1  -8   13.00    4.80
   6  -1   8    8.70    6.30
   6  -1   8    6.30    2.70
   6  -1   8   -4.90    7.10
   6  -1   8    6.50    5.60
   6  -1   8    2.30    2.80
  -7   1  -8    1.80    5.40
  -7   1  -8    7.10    5.80
  -7   1  -8  -10.30    6.20
  -7   1  -8  -13.00    5.60
   7  -1   8   -1.40    8.50
   7  -1   8    1.40    7.80
   7   0  -8    7.00    5.60
  -7   0   8    5.00    5.60
  -7   0   8   11.60    5.10
  -7   0   8   13.30    5.70
  -7   0   8   10.40    7.50
   6   0  -8  104.19    9.70
  -6   0   8  101.39   13.30
  -6   0   8  121.69    9.60
  -6   0   8  109.79   10.20
  -6   0   8   98.79   11.30
  -6   0   8   95.49    9.70
   5   0  -8    0.70    3.60
  -5   0   8  -11.00    5.10
  -5   0   8   -1.70    5.40
  -5   0   8    7.20    4.00
  -5   0   8   -8.60    4.40
  -5   0   8    2.50    3.20
   4   0  -8  250.67   11.80
   4   0  -8  225.58   12.70
  -4   0   8  260.37   12.00
  -4   0   8  261.07   14.00
  -4   0   8  252.07   12.40
  -4   0   8  248.88    9.80
  -4   0   8  257.77   13.10
   3   0  -8  182.98    5.60
   3   0  -8  169.98    9.50
   3   0  -8  191.08   10.70
   3   0  -8  184.58    5.60
  -3   0   8  185.98    9.60
  -3   0   8  192.08   10.70
  -3   0   8  191.38   10.70
  -3   0   8  180.48    6.40
  -3   0   8  185.08    6.90
  -3   0   8  182.68    6.50
  -3   0   8  177.58   14.10
   2   0  -8  419.76   15.30
   2   0  -8  411.16   16.40
   2   0  -8  423.46   13.00
  -2   0   8  449.26   13.60
  -2   0   8  448.76   16.30
  -2   0   8  439.76   13.30
  -2   0   8  410.16   12.30
  -2   0   8  448.06   15.80
  -2   0   8  411.16   15.80
   1   0  -8  659.23   22.40
   1   0  -8  664.03   19.70
   1   0  -8  654.23   19.80
   1   0  -8  658.23   21.30
   1   0  -8  664.03   21.30
  -1   0   8  674.83   22.00
  -1   0   8  652.03   21.70
  -1   0   8  654.13   20.20
  -1   0   8  650.33   21.80
  -1   0   8  655.93   19.80
   0   0  -8  692.83   22.20
   0   0  -8  703.83   23.50
   0   0  -8  727.73   22.80
   0   0  -8  726.73   21.70
   0   0   8  718.73   22.40
   0   0   8  702.23   23.20
   0   0   8  742.23   21.70
   0   0   8  677.23   22.00
  -1   0  -8  650.13   22.40
  -1   0  -8  676.43   19.90
  -1   0  -8  678.23   20.90
  -1   0  -8  698.23   21.20
  -1   0  -8  657.63   21.80
  -1   0  -8  672.03   21.00
   1   0   8  681.83   21.00
   1   0   8  677.33   21.70
   1   0   8  677.93   20.80
   1   0   8  677.23   22.50
  -2   0  -8  570.14   17.70
  -2   0  -8  567.04   18.10
  -2   0  -8  560.14   19.70
  -2   0  -8  569.74   18.90
  -2   0  -8  607.34   19.60
  -2   0  -8  559.64   18.80
   2   0   8  570.64   19.70
   2   0   8  590.44   20.20
   2   0   8  570.14   19.00
  -3   0  -8   72.39    5.70
  -3   0  -8   93.89    7.70
  -3   0  -8   79.19    6.80
  -3   0  -8   79.59    6.40
   3   0   8   80.09    6.50
   3   0   8   77.99    7.10
   3   0   8   70.09    7.40
  -4   0  -8    7.90    3.40
  -4   0  -8    6.10    3.30
  -4   0  -8    8.20    3.50
  -4   0  -8    8.40    3.60
  -4   0  -8   12.40    3.80
   4   0   8    2.30    4.20
   4   0   8   14.00    4.50
  -5   0  -8  704.43   24.70
  -5   0  -8  713.43   25.20
  -5   0  -8  752.92   25.10
  -5   0  -8  732.63   25.30
   5   0   8  740.53   24.60
   5   0   8  742.23   26.40
   5   0   8  716.83   26.90
   5   0   8  701.43   23.00
  -6   0  -8  220.38   13.30
  -6   0  -8  249.38   13.00
  -6   0  -8  254.37   13.20
   6   0   8  229.08   14.50
   6   0   8  212.38    9.10
   6   0   8  208.28    9.30
   6   0   8  195.08   22.80
   6   0   8  228.38   12.50
  -7   0  -8   40.20    6.20
  -7   0  -8   35.50    7.70
  -7   0  -8   38.00    7.70
  -7   0  -8   37.30    7.00
  -7   0  -8   41.60    7.10
   7   0   8   47.50    9.00
   7   0   8   36.30   10.90
   7   0   8   42.30    4.40
   7  -1  -8   -0.10    5.50
  -7   1   8    3.20    5.00
  -7   1   8    7.90    5.90
  -7   1   8    9.60    6.00
  -7   1   8   -1.20    8.50
   6  -1  -8  281.17   14.40
  -6   1   8  297.17   14.10
  -6   1   8  300.07   16.60
  -6   1   8  269.17   14.10
  -6   1   8  313.37   14.50
  -6   1   8  267.07   17.00
   5  -1  -8   -3.10    3.80
  -5   1   8   -2.90    4.00
  -5   1   8    0.50    5.20
  -5   1   8   -4.50    3.20
  -5   1   8    1.10    5.20
  -5   1   8   -7.80    5.30
  -5   1   8    2.80    4.00
   4  -1  -8  143.29    9.10
  -4   1   8  125.29    7.30
  -4   1   8  135.89   10.10
  -4   1   8  144.59   10.50
  -4   1   8  129.39   10.00
  -4   1   8  142.59    9.30
  -4   1   8  128.49    8.60
   3  -1  -8   89.19    8.60
   3  -1  -8   78.29    7.00
  -3   1   8   98.99    8.60
  -3   1   8   93.29    3.40
  -3   1   8   96.89    7.80
  -3   1   8   94.69    5.20
  -3   1   8   85.59    6.80
  -3   1   8   88.29    3.20
   2  -1  -8  138.99    9.20
   2  -1  -8  150.08    5.00
   2  -1  -8  148.79    5.10
   2  -1  -8  149.69    8.10
  -2   1   8  147.39    5.90
  -2   1   8  140.29    5.40
  -2   1   8  151.58    8.80
  -2   1   8  145.79    5.60
  -2   1   8  154.68    8.20
  -2   1   8  136.09    8.80
   1  -1  -8 1020.30   32.60
   1  -1  -8 1071.89   31.60
   1  -1  -8 1036.60   29.60
   1  -1  -8  975.70   31.40
   1  -1  -8 1039.30   29.70
  -1   1   8 1021.30   32.20
  -1   1   8 1031.90   31.80
  -1   1   8 1076.29   30.30
  -1   1   8 1016.70   29.70
  -1   1   8 1013.00   28.70
  -1   1   8 1030.10   32.30
   0  -1  -8  181.48    8.10
   0  -1  -8  197.88    8.30
   0  -1  -8  172.68    7.20
   0  -1  -8  185.68    7.30
   0  -1  -8  178.48    9.40
   0   1   8  185.08    5.90
   0   1   8  186.48    8.90
   0   1   8  180.88    7.20
   0   1   8  167.98    8.50
   0   1   8  165.78    7.80
  -1  -1  -8  406.46   15.40
  -1  -1  -8  424.46   13.10
  -1  -1  -8  426.16   14.20
  -1  -1  -8  402.06   13.90
  -1  -1  -8  431.26   15.10
  -1  -1  -8  425.36   14.10
   1   1   8  409.86   13.00
   1   1   8  401.86   15.20
   1   1   8  431.76   14.00
   1   1   8  401.96   14.70
  -2  -1  -8  403.86   13.90
  -2  -1  -8  399.76   14.40
  -2  -1  -8  364.66   14.30
  -2  -1  -8  363.86   13.40
  -2  -1  -8  380.96   12.70
  -2  -1  -8  373.06   12.80
   2   1   8  382.46   13.40
   2   1   8  368.06   14.70
   2   1   8  365.86   14.30
   2   1   8  376.56   12.80
  -3  -1  -8 1418.26   43.00
  -3  -1  -8 1459.05   43.80
  -3  -1  -8 1501.05   41.50
  -3  -1  -8 1443.06   43.30
   3   1   8 1492.05   43.50
   3   1   8 1465.85   43.20
   3   1   8 1450.35   44.30
   3   1   8 1435.86   44.80
  -4  -1  -8  251.17   11.40
  -4  -1  -8  268.57   11.50
  -4  -1  -8  233.08   11.10
  -4  -1  -8  263.67   11.80
  -4  -1  -8  269.57   12.20
   4   1   8  242.18   12.50
   4   1   8  224.28   10.40
   4   1   8  243.58   11.10
   4   1   8  252.57   13.30
  -5  -1  -8   50.69    7.40
  -5  -1  -8   59.89    7.80
  -5  -1  -8   79.89    7.40
  -5  -1  -8   59.59    7.90
  -5  -1  -8   62.39    8.40
   5   1   8   72.59    7.50
   5   1   8   65.39    7.70
   5   1   8   59.09    6.00
   5   1   8   66.59    8.30
   5   1   8   66.29   10.10
  -6  -1  -8   13.20    4.40
  -6  -1  -8   12.70    5.20
  -6  -1  -8    6.30    4.80
  -6  -1  -8    4.80    5.10
  -6  -1  -8   14.60    5.70
   6   1   8    3.50    3.00
   6   1   8    9.30    5.00
   6   1   8   -0.20    5.80
   6   1   8   20.90    9.50
  -7  -1  -8    1.60    6.50
  -7  -1  -8   -0.80    6.10
  -7  -1  -8    1.70    6.00
  -7  -1  -8    2.20    5.40
  -7  -1  -8    0.20    4.40
   7   1   8  -10.80    7.20
   7   1   8   -4.10    3.80
   6  -2  -8  286.37   14.30
  -6   2   8  274.67   13.50
  -6   2   8  286.07   19.30
  -6   2   8  260.97   17.20
  -6   2   8  271.07   14.10
  -6   2   8  279.57   14.20
  -6   2   8  253.27   17.40
   5  -2  -8    1.50    4.60
  -5   2   8   -4.00    6.30
  -5   2   8   18.00    6.10
  -5   2   8    3.30    4.40
  -5   2   8   20.00    5.80
  -5   2   8    1.90    3.80
  -5   2   8    7.60    4.00
   4  -2  -8  623.24   23.20
  -4   2   8  683.13   25.30
  -4   2   8  663.03   24.60
  -4   2   8  708.43   24.60
  -4   2   8  665.43   22.50
  -4   2   8  679.63   23.70
  -4   2   8  674.13   21.90
   3  -2  -8   -0.80    3.60
  -3   2   8   -2.30    4.10
  -3   2   8   -5.70    3.70
  -3   2   8    0.50    3.20
  -3   2   8    0.60    2.20
  -3   2   8    1.80    4.00
  -3   2   8   -5.10    2.60
   2  -2  -8  116.49    8.70
   2  -2  -8  127.59    7.80
   2  -2  -8  120.99    4.00
   2  -2  -8  119.39    4.00
  -2   2   8  116.39    7.30
  -2   2   8  124.99    8.60
  -2   2   8  129.99    8.10
  -2   2   8  108.19    9.80
  -2   2   8  122.49    5.10
  -2   2   8  114.59    4.60
   1  -2  -8   87.09    6.70
   1  -2  -8   76.39    6.30
   1  -2  -8   83.99    4.00
   1  -2  -8   96.89    7.80
   1  -2  -8   76.09    3.90
  -1   2   8   75.99    6.50
  -1   2   8   82.89    4.90
  -1   2   8   80.09    6.20
  -1   2   8   80.69    4.20
  -1   2   8   77.59    6.70
  -1   2   8   74.69    6.40
  -1   2   8   78.79    4.00
   0  -2  -8  397.26   15.10
   0  -2  -8  387.36   13.60
   0  -2  -8  406.66   14.30
   0  -2  -8  380.36   12.60
   0  -2  -8  366.56   13.70
   0   2   8  375.26   12.70
   0   2   8  370.26   13.30
   0   2   8  399.46   14.80
   0   2   8  357.46   14.70
   0   2   8  403.56   12.10
   0   2   8  390.06   14.50
  -1  -2  -8  283.87   10.40
  -1  -2  -8  263.47    9.90
  -1  -2  -8  275.87    9.30
  -1  -2  -8  256.47   10.10
  -1  -2  -8  272.67   11.70
  -1  -2  -8  266.07   10.90
   1   2   8  268.17    9.20
   1   2   8  259.37   10.80
   1   2   8  246.08   11.10
   1   2   8  266.27    9.90
   1   2   8  257.67   11.40
   1   2   8  255.77   11.20
  -2  -2  -8  387.26   14.50
  -2  -2  -8  374.76   14.50
  -2  -2  -8  390.96   13.60
  -2  -2  -8  381.86   13.00
  -2  -2  -8  378.66   13.80
  -2  -2  -8  381.06   13.00
   2   2   8  368.26   14.20
   2   2   8  371.76   14.90
   2   2   8  374.36   14.40
   2   2   8  389.46   13.50
   2   2   8  377.86   13.00
  -3  -2  -8  781.12   25.00
  -3  -2  -8  753.22   27.00
  -3  -2  -8  776.92   25.40
  -3  -2  -8  821.52   26.30
  -3  -2  -8  798.72   23.70
  -3  -2  -8  783.82   25.20
   3   2   8  771.12   28.80
   3   2   8  816.32   25.70
   3   2   8  769.02   26.90
   3   2   8  803.12   26.50
   3   2   8  815.72   25.20
  -4  -2  -8   -0.70    3.30
  -4  -2  -8   -2.10    3.10
  -4  -2  -8   -4.30    3.10
  -4  -2  -8   -1.50    3.40
  -4  -2  -8   -1.10    3.10
   4   2   8    5.70    4.70
   4   2   8    2.60    3.30
   4   2   8   -0.40    2.80
   4   2   8   -3.20    4.40
  -5  -2  -8    7.30    4.40
  -5  -2  -8   11.80    4.80
  -5  -2  -8    7.00    4.40
  -5  -2  -8    0.40    4.20
  -5  -2  -8    9.80    3.90
   5   2   8   -6.20    5.50
   5   2   8    1.80    4.30
   5   2   8    2.90    4.90
   5   2   8    1.30    3.10
  -6  -2  -8    0.80    4.70
  -6  -2  -8   -1.70    4.60
  -6  -2  -8    1.30    3.50
  -6  -2  -8    5.30    4.70
  -6  -2  -8   -1.10    4.20
   6   2   8   -2.20    5.70
   6   2   8   -0.80    6.20
   6   2   8    5.20    6.80
   6   2   8   -0.40    2.90
   6   2   8    0.90    4.60
  -7  -2  -8   72.79    9.20
  -7  -2  -8   95.69   12.00
  -7  -2  -8   92.49   10.30
  -7  -2  -8   95.09    8.10
  -7  -2  -8   92.29   11.50
   7   2   8   67.99    9.90
   7   2   8   86.29   11.70
   7   2   8   80.39    5.50
   6  -3  -8   43.30    7.20
  -6   3   8   31.60    6.40
  -6   3   8   64.79    8.60
  -6   3   8   36.80    6.60
  -6   3   8   52.59   10.50
  -6   3   8   50.69    9.40
   5  -3  -8  321.17   15.20
  -5   3   8  299.47   16.10
  -5   3   8  336.37   17.40
  -5   3   8  342.27   18.70
  -5   3   8  297.97   14.30
  -5   3   8  310.07   15.20
  -5   3   8  315.67   13.70
   4  -3  -8  821.12   28.30
  -4   3   8  844.02   29.70
  -4   3   8  810.22   26.80
  -4   3   8  834.52   26.80
  -4   3   8  840.82   30.20
  -4   3   8  809.52   28.30
  -4   3   8  857.11   28.80
   3  -3  -8   95.69    8.50
  -3   3   8  101.39    8.70
  -3   3   8  110.39    7.40
  -3   3   8  103.09    9.00
  -3   3   8  109.49    8.50
  -3   3   8  106.49   10.00
   2  -3  -8  133.09    8.70
   2  -3  -8  133.49    4.40
   2  -3  -8  133.59    4.40
  -2   3   8  137.69    9.60
  -2   3   8  137.79    5.60
  -2   3   8  146.99    9.20
  -2   3   8  158.18   12.40
  -2   3   8  131.99    5.10
  -2   3   8  138.69    7.70
  -2   3   8  145.59    9.20
   1  -3  -8    4.80    3.50
   1  -3  -8    5.00    1.60
   1  -3  -8    2.90    4.30
   1  -3  -8    2.20    3.50
   1  -3  -8    5.60    1.70
  -1   3   8    5.90    3.50
  -1   3   8    6.50    1.80
  -1   3   8    4.30    2.30
  -1   3   8    5.00    3.10
   0  -3  -8    8.20    2.20
   0  -3  -8   14.20    4.20
   0  -3  -8    6.50    3.00
   0  -3  -8   10.30    2.80
   0  -3  -8   13.90    2.30
   0   3   8   13.90    3.90
   0   3   8   12.10    2.20
   0   3   8   10.60    3.50
   0   3   8    8.60    2.30
   0   3   8   11.30    3.90
   0   3   8    8.90    2.80
  -1  -3  -8  454.25   15.70
  -1  -3  -8  452.35   15.20
  -1  -3  -8  419.46   16.20
  -1  -3  -8  444.76   14.90
  -1  -3  -8  424.86   14.40
   1   3   8  421.56   16.00
   1   3   8  425.86   14.40
   1   3   8  408.96   15.70
   1   3   8  407.86   16.00
   1   3   8  434.56   15.50
   1   3   8  437.66   14.10
  -2  -3  -8  132.09    6.90
  -2  -3  -8  118.79    7.80
  -2  -3  -8  120.99    6.60
  -2  -3  -8  135.89    7.80
  -2  -3  -8  141.49    8.00
  -2  -3  -8  126.69    6.60
   2   3   8  132.89    7.00
   2   3   8  119.89    8.60
   2   3   8  129.69    6.60
   2   3   8  118.99    7.90
   2   3   8  129.69    7.80
  -3  -3  -8   56.59    6.20
  -3  -3  -8   57.29    6.50
  -3  -3  -8   55.79    5.70
  -3  -3  -8   59.39    4.80
  -3  -3  -8   51.69    5.90
  -3  -3  -8   70.19    6.80
   3   3   8   68.49    8.00
   3   3   8   81.79    8.00
   3   3   8   76.79    7.00
   3   3   8   54.29    5.90
   3   3   8   61.09    5.80
  -4  -3  -8  116.19    8.00
  -4  -3  -8  105.19    5.60
  -4  -3  -8  102.89    7.80
  -4  -3  -8  112.19    8.90
  -4  -3  -8  102.69    7.40
  -4  -3  -8  107.39    7.80
   4   3   8  124.39    8.20
   4   3   8  122.79    9.80
   4   3   8  108.29    7.70
   4   3   8  103.69   10.50
   4   3   8  115.49    7.90
  -5  -3  -8 1535.75   47.50
  -5  -3  -8 1491.75   46.00
  -5  -3  -8 1527.75   46.80
  -5  -3  -8 1514.35   46.80
  -5  -3  -8 1459.05   42.70
  -5  -3  -8 1451.55   44.80
   5   3   8 1555.44   46.80
   5   3   8 1542.25   48.00
   5   3   8 1544.05   46.00
   5   3   8 1526.25   48.20
   5   3   8 1507.25   45.20
  -6  -3  -8   -6.80    4.30
  -6  -3  -8   -1.30    3.20
  -6  -3  -8   -1.00    4.80
  -6  -3  -8   -3.00    4.90
  -6  -3  -8    4.00    4.80
   6   3   8   -6.80    5.80
   6   3   8    2.20    5.60
   6   3   8    1.00    3.30
   6   3   8    0.50    6.80
   6   3   8    2.00    4.90
  -7  -3  -8   17.30    6.80
  -7  -3  -8    5.10    6.40
  -7  -3  -8    8.00    3.70
  -7  -3  -8    5.20    6.80
  -7  -3  -8   11.20    5.20
   7   3   8   14.80    8.30
   7   3   8   12.80    3.50
   7   3   8   -1.00    7.40
   7   3   8   16.10    8.80
   6  -4  -8    3.70    6.00
  -6   4   8   -3.90   12.40
  -6   4   8   23.20    8.80
  -6   4   8   20.90    7.20
  -6   4   8   17.40    5.00
  -6   4   8   18.30    6.00
   5  -4  -8  159.38   11.70
  -5   4   8  163.68    9.60
  -5   4   8  187.28   12.70
  -5   4   8  153.08   12.30
  -5   4   8  140.19   11.50
  -5   4   8  154.88   15.20
  -5   4   8  189.78   15.70
   4  -4  -8 1147.79   37.10
  -4   4   8 1135.79   37.00
  -4   4   8 1138.49   38.50
  -4   4   8 1096.29   34.50
  -4   4   8 1124.99   38.70
  -4   4   8 1144.49   36.60
   3  -4  -8  283.17   13.80
  -3   4   8  311.07   15.70
  -3   4   8  290.57   14.60
  -3   4   8  316.57   13.40
  -3   4   8  287.67   12.10
  -3   4   8  304.97   14.30
   2  -4  -8 1530.35   42.90
   2  -4  -8 1472.75   47.00
   2  -4  -8 1516.35   42.90
  -2   4   8 1590.84   48.40
  -2   4   8 1617.74   48.00
  -2   4   8 1540.45   43.70
  -2   4   8 1587.14   45.90
  -2   4   8 1548.15   43.40
  -2   4   8 1559.64   46.20
  -2   4   8 1531.55   47.70
   1  -4  -8 1145.19   36.00
   1  -4  -8 1248.38   36.10
   1  -4  -8 1120.39   33.00
  -1   4   8 1158.48   36.70
  -1   4   8 1151.08   36.80
  -1   4   8 1135.59   33.30
  -1   4   8 1158.88   33.90
  -1   4   8 1133.29   35.20
   0  -4  -8   35.90    4.10
   0  -4  -8   37.30    4.10
   0  -4  -8   42.90    4.90
   0  -4  -8   44.10    5.90
   0   4   8   41.90    6.40
   0   4   8   37.40    5.80
   0   4   8   31.30    4.00
   0   4   8   40.40    4.40
   0   4   8   38.70    4.10
  -1  -4  -8  242.38    9.90
  -1  -4  -8  230.88    9.30
  -1  -4  -8  236.48   10.30
  -1  -4  -8  233.68   10.40
  -1  -4  -8  228.28   11.20
   1   4   8  238.18    9.40
   1   4   8  232.78   11.30
   1   4   8  238.38   11.00
   1   4   8  240.38   11.80
   1   4   8  238.68   10.60
   1   4   8  238.48    9.50
  -2  -4  -8  504.25   17.90
  -2  -4  -8  494.95   16.60
  -2  -4  -8  482.15   16.80
  -2  -4  -8  488.35   17.20
  -2  -4  -8  462.65   16.70
   2   4   8  500.85   18.00
   2   4   8  502.35   18.50
   2   4   8  473.75   16.50
   2   4   8  499.55   18.80
   2   4   8  471.35   17.20
   2   4   8  500.05   17.50
  -3  -4  -8   27.90    4.20
  -3  -4  -8   15.00    4.00
  -3  -4  -8   30.40    4.90
  -3  -4  -8   25.20    3.60
  -3  -4  -8   24.90    4.40
  -3  -4  -8   27.00    4.30
   3   4   8   21.30    4.60
   3   4   8   21.10    5.10
   3   4   8   28.00    4.30
   3   4   8   28.60    5.60
   3   4   8   22.30    4.00
   3   4   8   30.00    4.70
  -4  -4  -8   19.60    4.20
  -4  -4  -8   40.20    6.30
  -4  -4  -8   31.10    4.80
  -4  -4  -8   30.50    3.70
  -4  -4  -8   27.10    5.20
  -4  -4  -8   38.80    5.80
   4   4   8   23.70    5.60
   4   4   8   48.50    6.90
   4   4   8   37.20    6.80
   4   4   8   39.70    5.30
   4   4   8   46.40    6.50
  -5  -4  -8  143.09    8.70
  -5  -4  -8  155.68    7.00
  -5  -4  -8  146.69   10.20
  -5  -4  -8  172.58   11.10
  -5  -4  -8  174.68   11.20
  -5  -4  -8  156.18   10.70
   5   4   8  150.08   10.20
   5   4   8  154.88   11.60
   5   4   8  159.38    9.80
   5   4   8  150.68   11.10
   5   4   8  139.59   12.00
  -6  -4  -8  164.98    6.60
  -6  -4  -8  185.58   12.60
  -6  -4  -8  187.58   11.60
  -6  -4  -8  171.68    8.60
  -6  -4  -8  159.68   11.80
  -6  -4  -8  156.78   12.40
   6   4   8  180.68   11.40
   6   4   8  193.68   14.30
   6   4   8  164.88   14.20
   6   4   8  177.88   10.10
   6   4   8  178.88   12.80
  -7  -4  -8  127.69   13.80
  -7  -4  -8  152.28   11.60
  -7  -4  -8  126.09   12.90
  -7  -4  -8  139.79   13.20
   7   4   8  136.99   15.10
   7   4   8  126.69    8.50
   7   4   8  112.89   15.10
   7   4   8  133.19   14.30
   5  -5  -8    3.70    5.90
  -5   5   8   22.30    6.70
  -5   5   8   14.30    8.80
  -5   5   8   24.70    4.30
  -5   5   8   25.60    6.70
  -5   5   8   17.10    6.70
  -5   5   8   22.50    9.70
   4  -5  -8   23.80    5.60
  -4   5   8   29.20    6.40
  -4   5   8   31.50    5.80
  -4   5   8   29.50    7.60
  -4   5   8   33.90    7.70
  -4   5   8   22.90    4.20
   3  -5  -8  247.48   13.30
  -3   5   8  227.68    7.40
  -3   5   8  245.08   14.70
  -3   5   8  228.28   10.70
  -3   5   8  258.77   13.80
  -3   5   8  229.88   14.10
  -3   5   8  249.97   11.50
  -3   5   8  223.08    7.40
   2  -5  -8 1535.95   43.30
   2  -5  -8 1480.25   44.70
   2  -5  -8 1531.75   47.70
  -2   5   8 1595.74   48.40
  -2   5   8 1530.75   43.80
  -2   5   8 1568.34   46.00
  -2   5   8 1536.25   44.00
  -2   5   8 1529.25   45.90
  -2   5   8 1649.04   49.30
   1  -5  -8  230.08   14.10
   1  -5  -8  223.38    8.60
   1  -5  -8  214.28    8.00
   1  -5  -8  217.18   11.80
  -1   5   8  217.28    8.50
  -1   5   8  214.18   10.60
  -1   5   8  210.88   12.70
  -1   5   8  234.18   13.00
  -1   5   8  224.58    9.40
   0  -5  -8    4.40    3.70
   0  -5  -8    7.00    2.40
   0  -5  -8    4.50    2.80
   0  -5  -8    2.20    2.90
   0   5   8    3.50    3.50
   0   5   8    5.70    4.20
   0   5   8   12.90    4.50
   0   5   8    9.20    2.60
   0   5   8    8.60    3.40
  -1  -5  -8  257.67   11.40
  -1  -5  -8  241.08   10.80
  -1  -5  -8  220.58   10.20
  -1  -5  -8  241.48    9.80
   1   5   8  232.18    9.70
   1   5   8  211.48   11.50
   1   5   8  227.18   10.90
   1   5   8  246.28   12.40
   1   5   8  234.48   10.40
  -2  -5  -8   27.80    4.50
  -2  -5  -8   25.10    4.40
  -2  -5  -8   19.80    3.80
   2   5   8   20.20    4.70
   2   5   8   15.10    4.40
   2   5   8   26.00    4.00
   2   5   8   21.90    3.90
   2   5   8   23.30    4.70
   2   5   8   21.10    3.70
  -3  -5  -8   -2.00    3.30
  -3  -5  -8   -1.80    3.10
  -3  -5  -8   -1.00    3.00
  -3  -5  -8    1.70    3.00
  -3  -5  -8    2.40    3.40
   3   5   8   -5.80    4.10
   3   5   8   -8.70    4.40
   3   5   8    7.00    3.50
   3   5   8   -1.60    3.80
   3   5   8    2.00    3.20
   3   5   8   -3.30    3.90
  -4  -5  -8    2.30    3.50
  -4  -5  -8   -2.30    3.90
  -4  -5  -8   -2.10    4.00
  -4  -5  -8    0.20    3.50
  -4  -5  -8    0.20    2.80
   4   5   8   -3.40    3.60
   4   5   8   -1.20    3.70
   4   5   8   -4.80    3.90
   4   5   8    0.80    4.40
   4   5   8   -6.60    4.60
  -5  -5  -8    1.90    4.70
  -5  -5  -8    4.20    4.80
  -5  -5  -8   -2.80    4.40
  -5  -5  -8    0.60    2.90
  -5  -5  -8    1.10    3.80
   5   5   8   -4.30    5.10
   5   5   8   -0.50    4.80
   5   5   8   12.80    5.00
   5   5   8   -0.20    5.80
   5   5   8   -0.20    4.30
  -6  -5  -8  320.27   17.20
  -6  -5  -8  298.27   16.00
  -6  -5  -8  272.37   10.60
  -6  -5  -8  269.47   18.10
  -6  -5  -8  286.37   15.60
   6   5   8  298.07   16.10
   6   5   8  288.97   13.80
   6   5   8  277.97   14.70
   6   5   8  288.77   17.10
   6   5   8  300.07   17.70
  -7  -5  -8   33.10    6.60
  -7  -5  -8   26.50    7.70
  -7  -5  -8   30.90    7.90
   7   5   8   31.20    5.30
   7   5   8   30.00   15.40
   7   5   8   18.40    8.40
  -5   6   8   17.80    7.20
  -5   6   8   11.90    6.80
  -5   6   8   14.50    3.60
  -5   6   8    7.60    6.20
   4  -6  -8   81.29   10.60
  -4   6   8   96.69   11.40
  -4   6   8   74.49   10.80
  -4   6   8   92.69   11.20
  -4   6   8   89.69   10.90
  -4   6   8   74.29    6.90
   3  -6  -8   87.19    9.60
  -3   6   8   85.69    7.00
  -3   6   8   89.19   12.40
  -3   6   8   76.29    9.00
  -3   6   8   90.19   10.60
  -3   6   8   75.09    4.30
   2  -6  -8  173.08    7.10
   2  -6  -8  179.58    6.70
   2  -6  -8  185.08   11.80
  -2   6   8  183.48    7.60
  -2   6   8  204.18   13.30
  -2   6   8  178.48    7.30
  -2   6   8  188.38   12.60
  -2   6   8  173.18    9.50
  -2   6   8  182.18    8.90
   1  -6  -8  578.04   18.50
   1  -6  -8  599.64   22.30
   1  -6  -8  622.74   19.30
  -1   6   8  609.34   19.70
  -1   6   8  607.24   19.30
  -1   6   8  612.74   23.40
  -1   6   8  585.34   18.90
  -1   6   8  615.44   23.40
  -1   6   8  582.44   20.80
   0  -6  -8 1086.79   36.70
   0  -6  -8 1081.79   34.70
   0  -6  -8 1170.98   34.10
   0  -6  -8 1162.28   35.50
   0   6   8 1098.19   37.60
   0   6   8 1173.98   34.40
   0   6   8 1139.49   36.30
   0   6   8 1233.58   37.90
   0   6   8 1185.58   35.40
   0   6   8 1211.78   36.20
  -1  -6  -8 2478.85   69.29
  -1  -6  -8 2224.78   71.59
  -1  -6  -8 2320.47   70.09
  -1  -6  -8 2413.86   68.29
   1   6   8 2368.46   69.49
   1   6   8 2409.26   68.49
   1   6   8 2380.96   70.49
   1   6   8 2401.86   70.49
   1   6   8 2418.16   69.59
   1   6   8 2525.85   71.69
  -2  -6  -8  290.77   13.10
  -2  -6  -8  302.27   13.20
  -2  -6  -8  310.87   13.60
  -2  -6  -8  308.97   12.30
   2   6   8  282.67   14.60
   2   6   8  300.07   12.60
   2   6   8  297.07   14.00
   2   6   8  296.37   13.00
   2   6   8  312.87   14.90
  -3  -6  -8   93.59    8.00
  -3  -6  -8   82.89    7.40
  -3  -6  -8   92.89    7.50
  -3  -6  -8   97.69    8.60
  -3  -6  -8   94.39    8.40
   3   6   8   95.99    9.40
   3   6   8   90.69    7.60
   3   6   8   91.89    8.20
   3   6   8   95.19    9.20
   3   6   8   85.69    8.80
  -4  -6  -8   80.69    7.20
  -4  -6  -8   98.29    9.00
  -4  -6  -8   83.79    8.60
  -4  -6  -8   74.89    8.30
   4   6   8   84.09    9.20
   4   6   8   89.09    8.80
   4   6   8   84.09   10.20
   4   6   8   79.89    8.90
   4   6   8  111.39   11.80
   4   6   8   95.59    7.90
  -5  -6  -8  146.39    8.70
  -5  -6  -8  159.08   11.50
  -5  -6  -8  141.29   11.00
  -5  -6  -8  152.58   11.80
   5   6   8  141.29   11.70
   5   6   8  172.58   13.70
   5   6   8  159.28   11.20
   5   6   8  148.49   11.40
   5   6   8  151.68   11.10
  -6  -6  -8   -2.20    6.50
  -6  -6  -8    5.00    6.10
  -6  -6  -8    5.50    3.40
  -6  -6  -8   12.90    6.50
   6   6   8    1.90    4.90
   6   6   8   19.40    7.20
   6   6   8    4.00    7.10
   6   6   8    2.50    7.10
   6   6   8   12.80    6.10
  -7  -6  -8   51.09    6.20
  -7  -6  -8   36.40    9.90
  -7  -6  -8   37.00    8.00
   7   6   8   38.60   10.00
   7   6   8   32.80    6.00
   7   6   8   46.40   10.30
  -4   7   8   17.40    5.30
  -4   7   8   23.30    7.40
   3  -7  -8   80.29   10.80
  -3   7   8   81.49    5.10
  -3   7   8   84.39    5.50
  -3   7   8   89.59    7.30
  -3   7   8   96.59   11.60
  -3   7   8   82.09   10.20
  -3   7   8   67.09   10.00
  -3   7   8   82.99    7.00
   2  -7  -8   26.50    3.40
   2  -7  -8   21.00    5.40
   2  -7  -8   22.20    3.10
  -2   7   8   20.30    6.70
  -2   7   8   27.00    3.50
  -2   7   8   18.00    4.10
  -2   7   8   22.80    3.30
  -2   7   8   25.40    3.20
  -2   7   8   21.80    6.40
   1  -7  -8   -1.60    3.10
   1  -7  -8   -1.50    4.70
   1  -7  -8    0.00    2.70
  -1   7   8    1.90    5.30
  -1   7   8    0.50    2.70
  -1   7   8    0.50    2.20
  -1   7   8   -2.30    3.80
  -1   7   8    7.70    5.60
  -1   7   8    0.30    3.00
   0  -7  -8  459.35   17.20
   0  -7  -8  492.95   16.20
   0  -7  -8  470.35   19.50
   0  -7  -8  483.15   19.30
   0  -7  -8  496.75   17.50
   0   7   8  505.35   20.80
   0   7   8  482.55   17.60
   0   7   8  450.05   18.40
   0   7   8  500.55   20.10
   0   7   8  483.15   18.30
   0   7   8  482.65   15.20
   0   7   8  482.45   16.60
  -1  -7  -8  216.38   11.20
  -1  -7  -8  206.58   10.80
  -1  -7  -8  211.48   12.40
  -1  -7  -8  217.68    9.90
  -1  -7  -8  212.88   12.50
   1   7   8  224.68   13.10
   1   7   8  228.68   11.90
   1   7   8  203.28   12.60
   1   7   8  212.18   10.10
   1   7   8  216.08   13.70
   1   7   8  231.58   11.50
  -2  -7  -8  241.68   12.40
  -2  -7  -8  235.88   12.10
  -2  -7  -8  250.07   12.90
  -2  -7  -8  254.27   11.50
  -2  -7  -8  277.87   13.50
   2   7   8  228.08   13.00
   2   7   8  239.48   11.60
   2   7   8  249.18   14.00
   2   7   8  263.97   12.60
   2   7   8  252.97   13.00
  -3  -7  -8  399.56   16.80
  -3  -7  -8  399.26   15.70
  -3  -7  -8  382.46   16.50
  -3  -7  -8  394.86   17.10
  -3  -7  -8  390.66   16.20
   3   7   8  377.46   15.20
   3   7   8  396.66   15.70
   3   7   8  399.86   16.70
   3   7   8  396.16   17.40
   3   7   8  405.86   18.10
  -4  -7  -8    3.60    4.80
  -4  -7  -8   -1.20    3.70
  -4  -7  -8    2.30    4.10
  -4  -7  -8    1.10    4.70
  -4  -7  -8   -2.00    4.70
   4   7   8    1.00    5.60
   4   7   8   10.10    4.80
   4   7   8    2.80    3.50
   4   7   8   -0.80    5.50
   4   7   8   -3.70    4.70
   4   7   8   -3.50    4.80
  -5  -7  -8    0.20    5.10
  -5  -7  -8    0.20    5.70
  -5  -7  -8    1.80    5.40
  -5  -7  -8    4.90    4.00
  -5  -7  -8    1.90    4.80
   5   7   8    8.60    5.40
   5   7   8   -4.10    5.30
   5   7   8   -0.80    6.90
   5   7   8   -5.80    6.00
   5   7   8   -2.10    5.50
  -6  -7  -8   29.20    5.00
  -6  -7  -8   27.00    7.60
  -6  -7  -8   29.10    9.80
  -6  -7  -8   38.30    6.60
  -6  -7  -8   37.30    7.40
   6   7   8   25.90    8.20
   6   7   8   29.10    8.00
   6   7   8   19.20    7.70
   6   7   8   29.10    8.50
   6   7   8   17.00    6.00
  -7  -7  -8   51.39    5.90
  -7  -7  -8   57.39    9.10
  -7  -7  -8   51.19    8.10
   7   7   8   50.39    7.20
   7   7   8   60.89   10.80
   7   7   8   60.29   11.40
   4  -8  -8   96.59   11.90
  -4   8   8   68.29    4.70
  -4   8   8   69.19   10.00
  -4   8   8   71.79    4.70
   3  -8  -8    1.90    2.20
   3  -8  -8    0.60    1.90
  -3   8   8    0.20    6.60
  -3   8   8    4.80    2.90
  -3   8   8    2.20    2.70
   2  -8  -8  183.98    8.90
   2  -8  -8  202.78   14.00
  -2   8   8  205.18   22.80
  -2   8   8  217.48   17.10
  -2   8   8  186.68    9.00
  -2   8   8  172.78    8.60
   1  -8  -8   52.09    6.80
   1  -8  -8   34.40    4.60
   1  -8  -8   38.10    6.30
   1  -8  -8   45.30    5.40
   1  -8  -8   47.70    7.70
  -1   8   8   54.69    6.00
  -1   8   8   65.19    9.30
  -1   8   8   42.90    4.90
  -1   8   8   48.00    8.30
   0  -8  -8   27.40    3.90
   0  -8  -8   23.30    5.70
   0  -8  -8   24.60    4.30
   0  -8  -8   21.10    6.00
   0  -8  -8   40.30    5.00
   0   8   8   34.70    7.70
   0   8   8   34.30    6.00
   0   8   8   27.90    4.30
   0   8   8   30.50    5.00
   0   8   8   36.40    6.90
  -1  -8  -8   43.20    4.80
  -1  -8  -8   43.10    6.70
  -1  -8  -8   52.19    7.50
  -1  -8  -8   50.89    7.30
  -1  -8  -8   51.29    7.50
   1   8   8   38.20    7.70
   1   8   8   47.60    6.50
   1   8   8   52.79    7.90
   1   8   8   49.00    7.10
   1   8   8   55.69    8.40
  -2  -8  -8   20.00    4.50
  -2  -8  -8   14.60    5.50
  -2  -8  -8   20.80    6.00
  -2  -8  -8   17.40    5.10
  -2  -8  -8   20.00    5.00
   2   8   8   20.80    3.60
   2   8   8   12.80    6.40
   2   8   8   23.40    5.80
   2   8   8    9.00    5.40
   2   8   8   22.40    6.10
  -3  -8  -8  421.46   17.70
  -3  -8  -8  424.26   16.60
  -3  -8  -8  442.66   18.30
  -3  -8  -8  426.06   18.60
  -3  -8  -8  397.26   17.90
   3   8   8  420.46   19.80
   3   8   8  414.56   17.30
   3   8   8  422.56   18.70
   3   8   8  411.86   18.00
   3   8   8  410.06   15.60
   3   8   8  415.46   17.10
  -4  -8  -8  281.97   14.20
  -4  -8  -8  309.57   16.10
  -4  -8  -8  275.87   15.00
  -4  -8  -8  313.27   14.20
  -4  -8  -8  274.77   15.30
   4   8   8  287.37   14.00
   4   8   8  327.27   17.00
   4   8   8  288.27   15.80
   4   8   8  253.07   15.30
   4   8   8  316.87   14.90
   4   8   8  311.97   22.70
  -5  -8  -8   16.60    5.20
  -5  -8  -8   18.90    5.30
  -5  -8  -8   21.50    6.00
  -5  -8  -8   14.80    6.90
  -5  -8  -8   10.60    7.00
  -5  -8  -8   18.60    6.60
   5   8   8   17.00    7.00
   5   8   8   21.90    8.10
   5   8   8   10.80    6.50
   5   8   8   26.40    7.40
   5   8   8   21.50    6.50
  -6  -8  -8    6.90    6.50
  -6  -8  -8   -0.10    4.20
  -6  -8  -8    4.80    6.00
   6   8   8    9.70    8.20
   6   8   8   -2.60    6.30
   6   8   8   12.60    7.90
   3  -9  -8   -1.30    2.80
   3  -9  -8    3.40    3.20
   3  -9  -8    2.80    6.60
  -3   9   8   -4.00    3.40
  -3   9   8   -2.20    3.30
  -3   9   8   -8.10    7.40
   2  -9  -8    6.60    3.40
   2  -9  -8   13.70    6.90
   2  -9  -8   12.70    4.10
  -2   9   8    4.30    7.40
  -2   9   8    8.60    3.70
  -2   9   8    0.20    3.70
   1  -9  -8    2.90    6.10
   1  -9  -8    6.60    6.60
   1  -9  -8   -2.40    4.00
   1  -9  -8   -0.90    2.90
  -1   9   8   13.30    7.20
  -1   9   8   -1.50    6.20
  -1   9   8    1.80    3.80
  -1   9   8    7.10    3.70
  -1   9   8    3.50    8.60
   0  -9  -8   12.60    3.50
   0  -9  -8   12.20    6.40
   0  -9  -8   11.10    4.50
   0  -9  -8   12.10    6.50
   0   9   8    8.20    4.70
   0   9   8   15.70    4.50
   0   9   8    3.70    7.10
   0   9   8   20.10    7.20
   0   9   8   11.00    5.70
  -1  -9  -8   48.80    7.90
  -1  -9  -8   38.50    5.80
  -1  -9  -8   52.19    6.70
  -1  -9  -8   31.40    6.70
  -1  -9  -8   49.00    6.00
   1   9   8   39.20    6.60
   1   9   8   40.20    8.10
   1   9   8   21.10    8.30
   1   9   8   35.60    7.50
   1   9   8   38.00    5.50
  -2  -9  -8   -3.00    4.60
  -2  -9  -8   -3.20    3.80
  -2  -9  -8   -2.60    5.30
  -2  -9  -8    1.60    5.00
  -2  -9  -8   -4.40    4.60
   2   9   8   -2.70    6.00
   2   9   8   -6.80    8.20
   2   9   8   -4.10    4.70
   2   9   8   -8.20    5.30
  -3  -9  -8  159.38   11.50
  -3  -9  -8  167.78   12.70
  -3  -9  -8  173.28   12.40
  -3  -9  -8  161.58   12.30
  -3  -9  -8  148.79   10.50
   3   9   8  154.38   12.60
   3   9   8  186.68   12.00
   3   9   8  142.49   12.00
   3   9   8  165.78    8.50
   3   9   8  147.19   12.80
  -4  -9  -8   -6.90    4.90
  -4  -9  -8    0.10    6.10
  -4  -9  -8    0.80    7.00
  -4  -9  -8    5.50    5.00
  -4  -9  -8   -7.90    5.70
   4   9   8   -0.50    7.00
   4   9   8    8.40    6.40
   4   9   8    6.10    4.60
   4   9   8   -5.00    4.70
   4   9   8    7.10    7.20
  -5  -9  -8   53.99    8.70
  -5  -9  -8   50.59    9.90
  -5  -9  -8   80.59   11.80
  -5  -9  -8   68.89    9.70
   5   9   8   59.39    8.00
   5   9   8   83.29   14.40
   5   9   8   51.49    9.40
   5   9   8   93.69   12.60
   5   9   8   67.19    8.10
  -6  -9  -8  159.88   12.00
  -6  -9  -8  160.48   13.30
  -6  -9  -8  188.88   15.70
   6   9   8  187.58   18.00
   6   9   8  159.58   15.10
   6   9   8  169.38   23.80
   2 -10  -8   -6.30    6.30
  -2  10   8  -10.40    8.30
   1 -10  -8    7.20    4.00
   1 -10  -8    0.10    5.20
   1 -10  -8   13.20    5.60
   1 -10  -8   -4.20    6.50
  -1  10   8   12.00    8.40
  -1  10   8   -2.60    8.50
  -1  10   8   -0.10    4.40
  -1  10   8   -0.10    4.60
   0 -10  -8   26.10    6.30
   0 -10  -8   21.50    7.60
   0 -10  -8   19.00    6.60
   0 -10  -8   18.90    4.20
   0  10   8    6.80    8.40
   0  10   8   12.70    5.30
   0  10   8   11.00    8.20
   0  10   8   18.50    5.40
   0  10   8   12.00    7.90
  -1 -10  -8   56.59    7.70
  -1 -10  -8   49.00    6.40
  -1 -10  -8   50.09    7.50
  -1 -10  -8   52.59   15.80
   1  10   8   76.79   11.90
   1  10   8   51.49    9.50
   1  10   8   42.00    6.30
   1  10   8   41.90    9.10
   1  10   8   48.80    7.10
  -2 -10  -8    6.40    5.90
  -2 -10  -8    1.80    5.30
  -2 -10  -8   13.90    4.90
  -2 -10  -8    5.00    7.00
  -2 -10  -8    7.30    5.90
   2  10   8   13.90    7.60
   2  10   8    4.30    5.50
   2  10   8   12.00    7.80
   2  10   8   14.00    6.30
   2  10   8   -4.60    7.40
  -3 -10  -8    4.00    5.90
  -3 -10  -8    9.10    6.60
  -3 -10  -8    2.40    4.90
  -3 -10  -8    3.10    6.90
   3  10   8   14.70    6.60
   3  10   8    0.40    6.40
   3  10   8    9.80    2.80
   3  10   8   13.80    6.40
   3  10   8    9.90    8.10
   3  10   8   15.50    7.50
  -4 -10  -8   15.80    7.60
  -4 -10  -8   -2.80    7.10
  -4 -10  -8   -1.30    5.30
  -4 -10  -8   -9.80    5.20
   4  10   8    3.70    5.70
   4  10   8    3.70    4.40
   4  10   8  -14.80    7.00
   4  10   8  -10.40    7.10
   4  10   8    8.90    7.30
  -5 -10  -8    8.70    6.20
  -5 -10  -8   17.80    6.50
  -5 -10  -8    3.80    9.70
   5  10   8    6.40   13.80
   5  10   8   14.80    6.40
   5  10   8   14.70    8.00
   5  10   8   22.60    6.60
   5  10   8    2.60    8.50
   0 -11  -8   -4.30    4.60
   0 -11  -8   -0.30    4.90
   0 -11  -8    0.80    6.30
   0  11   8   -3.00    5.20
   0  11   8    0.20    9.30
  -1 -11  -8   -2.40    4.70
  -1 -11  -8    1.80    6.30
  -1 -11  -8    4.20    5.60
   1  11   8  -13.60    8.20
   1  11   8   -3.10    6.50
   1  11   8   -2.00    5.80
  -2 -11  -8   49.30    7.70
  -2 -11  -8   19.20    7.10
  -2 -11  -8   37.70    6.50
   2  11   8   31.30    9.30
   2  11   8   37.10    7.50
   2  11   8   50.49   10.40
  -3 -11  -8   21.00    8.00
  -3 -11  -8    7.40    6.40
  -3 -11  -8   14.10    6.10
   3  11   8    2.60    8.10
   3  11   8   -3.50    7.70
   3  11   8   10.20    8.50
   3  11   8   13.10    7.30
  -4 -11  -8    3.00    6.40
  -4 -11  -8   -3.30    6.00
   4  11   8    3.00    8.80
   4  11   8   -6.20    7.20
   4  11   8   15.30   10.20
   4  11   8   -7.60    7.90
   3  10  -9   19.60    6.30
   3  10  -9   20.40    8.80
  -3 -10   9   30.50    9.70
  -3 -10   9   38.40    9.80
  -3 -10   9   25.80    6.80
  -3 -10   9   15.00    6.60
   2  10  -9    7.00    6.20
   2  10  -9   -0.30    6.20
   2  10  -9    3.20    6.40
  -2 -10   9    6.70    6.10
  -2 -10   9   -3.80    8.00
  -2 -10   9    7.20    6.60
   1  10  -9    7.20    5.40
   1  10  -9   15.30    6.30
   1  10  -9    5.00    5.40
  -1 -10   9   -2.40    5.60
   0  10  -9    8.70    5.90
   0  10  -9   -3.20    5.80
   0  10  -9    4.30    4.60
   0 -10   9   -1.20    6.30
   0 -10   9   -3.90    5.40
   4   9  -9   16.40    7.80
   4   9  -9   15.80    5.60
   4   9  -9   19.10    6.00
   4   9  -9   19.80    7.40
  -4  -9   9   23.80    8.70
  -4  -9   9   23.20    7.00
  -4  -9   9   22.60    6.40
  -4  -9   9   12.40    9.10
   3   9  -9   11.90    5.70
   3   9  -9    0.10    4.70
   3   9  -9    5.50    6.10
  -3  -9   9   10.80    5.80
  -3  -9   9    9.70    7.00
  -3  -9   9   11.60    8.10
  -3  -9   9   11.80    5.90
   2   9  -9    2.00    5.00
   2   9  -9    0.40    5.30
   2   9  -9   -5.00    4.20
  -2  -9   9    4.80    5.10
  -2  -9   9    1.40    8.20
  -2  -9   9   -0.90    5.90
   1   9  -9   15.60    6.20
   1   9  -9    5.50    4.60
   1   9  -9   11.60    4.60
  -1  -9   9   15.90    5.70
  -1  -9   9    6.40    6.30
  -1  -9   9   16.20    5.50
   0   9  -9  229.18   19.70
   0   9  -9  191.48   12.80
   0   9  -9  185.88   10.20
   0  -9   9  171.88   12.80
   0  -9   9  175.28   12.10
   0  -9   9  204.68   14.10
  -1   9  -9   13.70    6.30
  -1   9  -9    8.60    3.00
   1  -9   9   10.00    6.20
   1  -9   9   10.30    5.10
  -2   9  -9   28.60    6.90
   2  -9   9   16.50    5.60
   2  -9   9    9.00    7.00
   5   8  -9   18.80    5.50
   5   8  -9   14.30    6.60
   5   8  -9   20.90    8.40
   5   8  -9   11.30    4.70
  -5  -8   9   30.30    7.80
  -5  -8   9    6.90    5.40
   4   8  -9    2.20    6.30
   4   8  -9    7.30    5.10
   4   8  -9   14.90   11.20
   4   8  -9   12.40    6.60
   4   8  -9    7.10    4.20
  -4  -8   9   15.20    6.10
  -4  -8   9    9.20    5.30
  -4  -8   9    2.50    7.40
  -4  -8   9   12.00    6.10
  -4  -8   9   15.40    8.90
   3   8  -9  507.25   20.40
   3   8  -9  511.85   20.00
   3   8  -9  504.75   21.50
   3   8  -9  500.95   19.70
   3   8  -9  464.35   21.40
  -3  -8   9  500.55   22.80
  -3  -8   9  545.55   20.30
  -3  -8   9  501.45   21.10
  -3  -8   9  550.04   21.40
  -3  -8   9  493.35   23.00
   2   8  -9   82.89    9.30
   2   8  -9   93.39   10.00
   2   8  -9  101.19    9.50
   2   8  -9   99.29    9.00
  -2  -8   9   93.69   12.30
  -2  -8   9   87.49    9.90
  -2  -8   9   86.29   10.10
  -2  -8   9  105.99    9.60
   1   8  -9    5.50    4.90
   1   8  -9    3.10    4.40
   1   8  -9   -2.50    4.10
   1   8  -9    3.70    3.50
  -1  -8   9    5.90    6.00
  -1  -8   9    4.50    4.60
  -1  -8   9    0.10    4.40
  -1  -8   9   17.60    5.10
   0   8  -9   39.10    4.80
   0   8  -9   42.10    6.20
   0   8  -9   41.70    6.70
   0  -8   9   40.80    8.80
   0  -8   9   28.40    6.90
   0  -8   9   45.60    6.20
   0  -8   9   33.60    6.00
  -1   8  -9   96.59    5.30
  -1   8  -9  109.09   11.10
  -1   8  -9   91.69   10.70
   1  -8   9   92.89    9.10
   1  -8   9   86.89   10.70
   1  -8   9   92.99   10.40
   1  -8   9   94.19   12.20
  -2   8  -9   74.89   10.40
  -2   8  -9   55.09    8.10
   2  -8   9   67.79    8.60
   2  -8   9   68.39    9.80
   2  -8   9   72.39    8.80
  -3   8  -9    8.40    6.50
  -3   8  -9    7.20    7.60
   3  -8   9   -0.20    7.00
   3  -8   9   11.20    7.70
   3  -8   9    2.40    5.10
   6   7  -9  143.79   10.90
   6   7  -9  108.39   16.10
   6   7  -9  142.89   10.60
   6   7  -9  131.49   12.60
  -6  -7   9  152.98   13.80
  -6  -7   9  110.19   15.90
  -6  -7   9  142.99   11.30
   5   7  -9  117.59   14.00
   5   7  -9  131.89   10.00
   5   7  -9  119.59    9.00
   5   7  -9  134.39   10.50
   5   7  -9  121.69   11.70
  -5  -7   9  108.59   14.00
  -5  -7   9  149.29   12.30
  -5  -7   9  146.39   10.50
  -5  -7   9  138.09   15.50
   4   7  -9   43.30    5.70
   4   7  -9   38.60    5.50
   4   7  -9   32.70    7.40
   4   7  -9   38.40    6.00
   4   7  -9   24.10    6.30
  -4  -7   9   52.69    7.80
  -4  -7   9   46.80    6.20
  -4  -7   9   27.30    7.40
  -4  -7   9   54.69    9.20
   3   7  -9   13.80    5.90
   3   7  -9   36.00    5.50
   3   7  -9   18.50    5.80
   3   7  -9   23.30    4.90
   3   7  -9   22.00    4.50
  -3  -7   9   25.60    5.70
  -3  -7   9   17.40    6.00
  -3  -7   9   30.50    8.00
  -3  -7   9   22.70    5.30
  -3  -7   9   12.60    6.30
   2   7  -9    3.50    4.00
   2   7  -9    2.50    2.70
   2   7  -9    1.20    3.70
   2   7  -9   -1.10    4.00
  -2  -7   9    1.80    4.00
  -2  -7   9   -1.80    4.40
  -2  -7   9   -4.60    4.70
  -2  -7   9   -3.20    3.90
   1   7  -9   36.30    5.10
   1   7  -9   27.60    5.00
   1   7  -9   25.10    5.10
   1   7  -9   31.00    5.00
  -1  -7   9   22.10    4.90
  -1  -7   9   31.90    6.60
  -1  -7   9   38.00    5.90
  -1  -7   9   39.70    5.80
   0   7  -9  117.49    9.40
   0   7  -9  123.49    9.10
   0   7  -9  113.09    7.40
   0  -7   9  107.89   10.80
   0  -7   9  107.89    9.10
   0  -7   9  110.59    9.50
   0  -7   9  132.59    9.80
  -1   7  -9   40.50    6.10
  -1   7  -9   47.20    6.20
  -1   7  -9   56.99    4.10
   1  -7   9   63.99    8.90
   1  -7   9   52.89    7.70
   1  -7   9   46.60    7.10
   1  -7   9   38.00    6.30
  -2   7  -9  213.28   12.80
   2  -7   9  212.98   13.70
   2  -7   9  219.28   14.20
   2  -7   9  221.08   11.90
   2  -7   9  209.58   12.90
  -3   7  -9    5.50    5.60
  -3   7  -9   11.60    6.00
  -3   7  -9   16.60    5.70
   3  -7   9   13.90    5.00
   3  -7   9   14.90    7.60
   3  -7   9   -3.50    5.70
  -4   7  -9  171.78   14.20
  -4   7  -9  187.38   14.00
  -4   7  -9  156.48   14.70
   4  -7   9  202.98   15.80
   4  -7   9  173.08   12.40
   4  -7   9  189.28   14.80
   6   6  -9  161.68   10.50
   6   6  -9  186.08   17.40
   6   6  -9  170.38   10.40
   6   6  -9  169.38   13.00
  -6  -6   9  156.38   14.50
  -6  -6   9  180.18   11.00
  -6  -6   9  178.48   12.50
   5   6  -9   17.10    5.70
   5   6  -9   23.50    7.80
   5   6  -9   11.90    4.20
   5   6  -9   18.10    4.30
   5   6  -9   16.20    3.90
  -5  -6   9   14.20    6.10
  -5  -6   9    6.00    5.00
  -5  -6   9   25.10    5.50
  -5  -6   9    9.90    8.50
   4   6  -9   -2.70    5.30
   4   6  -9   -0.50    2.70
   4   6  -9    1.00    3.70
   4   6  -9    1.30    3.60
   4   6  -9   -3.50    4.50
  -4  -6   9   -1.90    3.60
  -4  -6   9    0.60    8.00
  -4  -6   9   -5.40    5.00
  -4  -6   9   -2.70    6.20
   3   6  -9   85.69    5.70
   3   6  -9   92.59    7.70
   3   6  -9   83.39    9.80
   3   6  -9   74.79    9.70
   3   6  -9   97.39    7.30
  -3  -6   9   85.59    9.00
  -3  -6   9   87.09   10.20
  -3  -6   9   88.49    7.90
  -3  -6   9   88.69    8.20
   2   6  -9   -0.50    3.50
   2   6  -9   -2.60    3.70
   2   6  -9   -2.50    2.20
   2   6  -9   -5.70    3.10
  -2  -6   9   -6.00    3.70
  -2  -6   9   -1.00    3.50
   1   6  -9   23.90    4.30
   1   6  -9   27.80    4.20
   1   6  -9   26.40    4.70
   1   6  -9   25.50    4.60
  -1  -6   9   32.70    5.60
  -1  -6   9   24.50    4.90
  -1  -6   9   24.50    5.70
  -1  -6   9   26.20    4.90
   0   6  -9   59.89    5.70
   0   6  -9   61.79    6.50
   0   6  -9   52.79    6.80
   0  -6   9   62.99    7.50
   0  -6   9   61.69    7.80
   0  -6   9   71.59    7.50
   0  -6   9   53.19    7.70
  -1   6  -9  121.29    9.10
  -1   6  -9  134.39    9.00
   1  -6   9  121.59   10.40
   1  -6   9  128.79    9.40
   1  -6   9  117.89    9.00
   1  -6   9  120.99    9.70
  -2   6  -9    6.40    5.00
  -2   6  -9    3.60    4.10
   2  -6   9    6.70    4.90
   2  -6   9    2.10    3.90
   2  -6   9    3.60    4.20
   2  -6   9    5.00    4.80
  -3   6  -9  597.54   25.70
  -3   6  -9  659.73   24.40
  -3   6  -9  688.83   24.60
   3  -6   9  677.43   24.10
   3  -6   9  700.93   25.30
   3  -6   9  707.83   25.20
   3  -6   9  698.43   26.10
  -4   6  -9   96.69   11.60
  -4   6  -9   86.99   10.80
   4  -6   9  126.39   13.50
   4  -6   9  101.09   11.00
   4  -6   9   94.89   10.30
  -5   6  -9   -2.20    6.40
  -5   6  -9    6.30    6.70
  -5   6  -9    8.10    8.00
   5  -6   9    6.90    6.20
   5  -6   9   12.40    6.50
   5  -6   9    9.20   13.00
   6   5  -9  369.36   20.40
   6   5  -9  381.26   15.40
   6   5  -9  395.16   14.40
   6   5  -9  393.06   17.90
  -6  -5   9  390.16   15.60
  -6  -5   9  366.96   18.50
  -6  -5   9  384.76   16.20
   5   5  -9    5.10   11.00
   5   5  -9    4.40    5.30
   5   5  -9    1.00    3.10
   5   5  -9   -0.10    3.30
   5   5  -9    5.30    3.50
  -5  -5   9    1.50    3.90
  -5  -5   9    4.10    5.10
  -5  -5   9    1.90    3.70
  -5  -5   9   -2.80    7.50
   4   5  -9  376.26   18.00
   4   5  -9  388.56   13.50
   4   5  -9  400.16   17.00
   4   5  -9  368.76   14.20
   4   5  -9  375.66   14.50
  -4  -5   9  400.56   19.30
  -4  -5   9  410.46   15.70
  -4  -5   9  378.26   17.30
  -4  -5   9  396.36   15.00
   3   5  -9  551.54   21.10
   3   5  -9  524.65   18.10
   3   5  -9  525.85   18.30
   3   5  -9  518.35   16.60
   3   5  -9  524.25   20.70
  -3  -5   9  516.95   20.60
  -3  -5   9  532.25   18.60
  -3  -5   9  532.85   19.00
   2   5  -9    3.70    3.90
   2   5  -9   -0.20    1.80
   2   5  -9   -2.70    3.00
   2   5  -9   -4.50    4.10
   2   5  -9   -2.30    2.80
  -2  -5   9   -3.60    3.00
  -2  -5   9    0.60    3.80
   1   5  -9  481.85   17.20
   1   5  -9  481.65   17.10
   1   5  -9  461.75   17.20
   1   5  -9  477.35   15.20
  -1  -5   9  473.15   17.40
  -1  -5   9  469.05   17.30
  -1  -5   9  461.35   17.90
   0   5  -9   19.40    4.10
   0   5  -9   30.00    3.60
   0   5  -9   19.50    4.70
   0  -5   9   30.00    5.10
   0  -5   9   29.50    5.10
   0  -5   9   26.80    4.70
  -1   5  -9  238.88   11.70
  -1   5  -9  238.68   11.20
   1  -5   9  243.38   12.30
   1  -5   9  237.88   12.00
   1  -5   9  246.28   12.10
  -2   5  -9   22.70    4.20
  -2   5  -9   32.50    5.20
  -2   5  -9   20.20    4.60
   2  -5   9   25.60    4.70
   2  -5   9   17.00    4.70
   2  -5   9   26.30    5.30
   2  -5   9   28.60    5.60
  -3   5  -9   77.39    8.20
  -3   5  -9   69.59    6.70
  -3   5  -9   65.79    8.10
  -3   5  -9   65.39    8.80
   3  -5   9   66.19    8.60
   3  -5   9   67.99    8.20
   3  -5   9   70.59    8.20
   3  -5   9   74.89    8.40
  -4   5  -9  128.09    8.70
  -4   5  -9  126.79   10.80
  -4   5  -9  129.49   11.20
  -4   5  -9  139.69   10.60
   4  -5   9  122.29   10.60
   4  -5   9  125.29   12.60
   4  -5   9  120.79   10.00
   4  -5   9  110.49   11.10
  -5   5  -9   -2.50    4.40
  -5   5  -9    9.80    6.80
  -5   5  -9   -0.10    6.20
  -5   5  -9   -5.30    5.40
   5  -5   9   -1.80    7.00
   5  -5   9    3.80    5.00
   5  -5   9    1.80    5.60
   7   4  -9   -1.40    2.70
   7   4  -9   -0.70    2.70
   7   4  -9    3.60    8.70
  -7  -4   9    1.40    4.30
  -7  -4   9    5.70    6.90
  -7  -4   9   -1.10    5.20
  -7  -4   9   -7.10    3.90
   6   4  -9   27.10    3.60
   6   4  -9   23.50    6.40
   6   4  -9   31.50    8.50
  -6  -4   9   24.90    4.40
  -6  -4   9   17.20    6.20
  -6  -4   9   21.50    4.00
  -6  -4   9   22.80    4.90
   5   4  -9   37.90    5.10
   5   4  -9   43.20    9.40
   5   4  -9   34.20    6.40
   5   4  -9   38.60    5.50
  -5  -4   9   32.10    8.00
  -5  -4   9   39.60    5.80
  -5  -4   9   32.30    4.30
  -5  -4   9   29.00    6.70
  -5  -4   9   36.40    4.90
   4   4  -9  101.39    5.60
   4   4  -9  109.59   10.90
   4   4  -9  103.29    9.80
   4   4  -9   90.49    6.30
   4   4  -9  106.79    6.90
  -4  -4   9  104.09    9.90
  -4  -4   9  122.89   11.50
  -4  -4   9   95.59    7.00
  -4  -4   9  103.09    7.60
   3   4  -9    0.30    2.80
   3   4  -9    3.10    2.60
   3   4  -9    2.50    1.70
   3   4  -9    3.40    4.30
   3   4  -9    7.70    4.60
  -3  -4   9    0.30    3.10
  -3  -4   9    2.90    4.50
  -3  -4   9    6.60    3.10
   2   4  -9   14.70    5.10
   2   4  -9   13.20    4.40
   2   4  -9   12.90    3.10
   2   4  -9   13.20    3.50
   2   4  -9   16.50    2.30
  -2  -4   9   16.60    3.70
  -2  -4   9   12.30    4.20
  -2  -4   9   12.10    3.30
   1   4  -9   74.39    6.60
   1   4  -9   66.49    6.40
   1   4  -9   75.79    8.30
   1   4  -9   85.69    4.10
   1   4  -9   79.59    6.20
  -1  -4   9   75.99    6.50
  -1  -4   9   91.49    7.60
  -1  -4   9   90.09    6.80
   0   4  -9  160.58    7.60
   0   4  -9  169.48    8.80
   0   4  -9  170.28    8.60
   0  -4   9  161.88    8.70
   0  -4   9  146.59    8.90
   0  -4   9  140.89    9.40
  -1   4  -9  149.09    9.10
  -1   4  -9  139.39    8.40
  -1   4  -9  123.29    7.20
   1  -4   9  154.18    9.40
   1  -4   9  159.18    9.80
   1  -4   9  134.19    8.90
  -2   4  -9  210.38   10.20
  -2   4  -9  203.28   10.80
  -2   4  -9  187.48    9.50
  -2   4  -9  196.48    9.80
   2  -4   9  210.48   10.60
   2  -4   9  190.78   11.20
   2  -4   9  190.18   11.00
  -3   4  -9  118.99    9.10
  -3   4  -9  140.19   10.10
  -3   4  -9  146.49    9.10
  -3   4  -9  133.89    8.30
   3  -4   9  138.59   10.70
   3  -4   9  139.89    9.70
   3  -4   9  120.59    9.30
  -4   4  -9   36.90    5.70
  -4   4  -9   40.70    5.40
  -4   4  -9   40.60    6.30
  -4   4  -9   30.80    5.40
   4  -4   9   41.90    5.60
   4  -4   9   26.50    5.60
   4  -4   9   44.70    6.30
   4  -4   9   34.80    7.00
  -5   4  -9  170.58   12.60
  -5   4  -9  156.68   12.50
  -5   4  -9  169.58   10.60
  -5   4  -9  147.99   17.60
   5  -4   9  180.18   13.00
   5  -4   9  182.38   10.90
   5  -4   9  176.18   14.60
   5  -4   9  193.08   16.30
  -6   4  -9   -1.60    5.40
  -6   4  -9   -0.10    6.20
  -6   4  -9   -5.00    7.20
  -6   4  -9    4.20    6.20
   6  -4   9   -2.20    5.10
   6  -4   9   -8.90    8.00
   6  -4   9   10.50    9.30
   7   3  -9   11.60    9.10
  -7  -3   9   11.20    7.10
  -7  -3   9    2.60    5.10
  -7  -3   9    2.80    2.90
   6   3  -9    3.40    7.60
   6   3  -9    8.70    2.20
   6   3  -9   11.30    2.10
  -6  -3   9   11.50    6.00
  -6  -3   9   17.20    4.40
  -6  -3   9    7.30    3.40
  -6  -3   9    0.50    8.80
  -6  -3   9    8.30    2.90
   5   3  -9    6.30    5.20
   5   3  -9   11.00    6.40
  -5  -3   9    9.00    2.90
  -5  -3   9   12.60    5.50
  -5  -3   9    9.30    3.20
  -5  -3   9    9.40    3.30
  -5  -3   9    7.90    7.10
   4   3  -9  595.44   21.80
   4   3  -9  588.94   22.70
   4   3  -9  549.45   17.70
   4   3  -9  578.24   18.00
  -4  -3   9  548.85   21.40
  -4  -3   9  550.04   17.60
  -4  -3   9  554.34   23.00
  -4  -3   9  571.34   18.80
  -4  -3   9  565.64   18.40
   3   3  -9  439.16   14.20
   3   3  -9  438.36   17.70
   3   3  -9  420.96   17.20
   3   3  -9  412.76   14.40
  -3  -3   9  408.96   14.60
  -3  -3   9  435.46   14.70
  -3  -3   9  416.06   17.00
   2   3  -9  172.88    8.00
   2   3  -9  175.28   10.60
   2   3  -9  188.98    7.90
   2   3  -9  187.68   10.00
  -2  -3   9  175.48   10.10
  -2  -3   9  184.68    8.40
  -2  -3   9  161.68    8.10
   1   3  -9  446.26   16.30
   1   3  -9  448.96   15.60
   1   3  -9  445.86   17.70
   1   3  -9  470.65   15.60
  -1  -3   9  432.46   16.90
  -1  -3   9  473.25   16.00
  -1  -3   9  462.85   15.70
   0   3  -9  153.98    7.90
   0   3  -9  140.39    9.40
   0   3  -9  154.28    5.90
   0   3  -9  155.48    7.70
   0  -3   9  156.48    8.00
   0  -3   9  141.89    8.10
   0  -3   9  154.28    9.10
  -1   3  -9  715.53   22.20
  -1   3  -9  717.03   24.00
  -1   3  -9  745.13   23.60
  -1   3  -9  718.33   23.70
   1  -3   9  724.73   24.70
   1  -3   9  725.13   23.70
   1  -3   9  751.82   24.30
  -2   3  -9  308.77   12.70
  -2   3  -9  293.97   13.10
  -2   3  -9  290.87   11.80
  -2   3  -9  297.97   12.60
   2  -3   9  299.37   13.70
   2  -3   9  310.77   13.90
   2  -3   9  325.47   13.00
  -3   3  -9  923.31   29.90
  -3   3  -9  918.71   30.10
  -3   3  -9  990.50   30.20
  -3   3  -9  911.71   30.40
   3  -3   9  954.80   31.60
   3  -3   9  929.61   31.20
   3  -3   9  968.90   30.40
  -4   3  -9   -0.30    4.30
  -4   3  -9    2.20    3.30
  -4   3  -9    7.80    4.20
  -4   3  -9    2.10    3.80
   4  -3   9   -0.90    4.10
   4  -3   9    1.90    5.10
   4  -3   9    7.90    4.60
  -5   3  -9   41.30    6.60
  -5   3  -9   38.00    6.40
  -5   3  -9   27.90    6.00
  -5   3  -9   39.90    5.60
   5  -3   9   32.90    6.70
   5  -3   9   29.90    4.70
   5  -3   9   30.00    6.40
   5  -3   9   29.30    7.20
  -6   3  -9   19.50    5.60
  -6   3  -9   16.60    6.00
  -6   3  -9   18.00    6.80
  -6   3  -9   10.10    6.30
   6  -3   9   15.80    8.40
   6  -3   9   14.30    5.30
   6  -3   9    3.70    9.20
   7   2  -9    8.20    9.20
  -7  -2   9    4.80    6.60
  -7  -2   9    1.60    5.20
   6   2  -9  156.98   14.40
  -6  -2   9  106.89   15.70
  -6  -2   9  116.59    5.50
  -6  -2   9  134.09    9.00
  -6  -2   9  103.39    6.50
   5   2  -9   38.10    2.80
   5   2  -9   43.00    2.90
   5   2  -9   22.30    5.30
   5   2  -9   35.90    6.40
   5   2  -9   39.50    7.40
  -5  -2   9   36.40    4.00
  -5  -2   9   36.40    5.10
  -5  -2   9   30.90    6.00
  -5  -2   9   39.50    8.40
  -5  -2   9   39.50    5.30
   4   2  -9   21.00    5.10
   4   2  -9   20.20    2.90
   4   2  -9   33.80    6.50
   4   2  -9   24.80    3.10
   4   2  -9   22.70    5.50
  -4  -2   9   24.00    3.00
  -4  -2   9   16.20    3.00
  -4  -2   9   30.20    6.40
  -4  -2   9   19.10    4.70
  -4  -2   9   19.70    3.00
   3   2  -9  693.33   24.40
   3   2  -9  663.53   20.70
   3   2  -9  695.23   20.70
   3   2  -9  683.43   24.50
   3   2  -9  664.53   23.20
  -3  -2   9  703.63   24.10
  -3  -2   9  687.13   21.20
  -3  -2   9  680.13   21.10
   2   2  -9  166.48    9.10
   2   2  -9  184.08    9.80
   2   2  -9  165.38   10.10
   2   2  -9  180.88    7.60
   2   2  -9  173.48    7.30
  -2  -2   9  170.78    9.40
  -2  -2   9  169.28    7.60
  -2  -2   9  191.48    8.00
   1   2  -9  100.09    6.40
   1   2  -9  102.89    5.90
   1   2  -9   95.09    6.90
   1   2  -9  118.19    8.70
  -1  -2   9  113.59    6.40
  -1  -2   9  107.19    7.60
  -1  -2   9  100.29    5.90
  -1  -2   9  103.19    7.10
   0   2  -9   70.09    2.80
   0   2  -9   69.09    5.40
   0   2  -9   62.29    7.30
   0   2  -9   69.49    7.90
   0  -2   9   63.39    5.70
   0  -2   9   61.99    6.20
   0  -2   9   77.29    5.40
   0  -2   9   55.39    5.00
  -1   2  -9  514.65   15.80
  -1   2  -9  517.85   17.60
  -1   2  -9  491.45   18.60
  -1   2  -9  490.75   17.10
   1  -2   9  507.35   18.00
   1  -2   9  508.85   18.60
   1  -2   9  536.65   17.80
  -2   2  -9 1001.00   31.00
  -2   2  -9  950.40   29.30
  -2   2  -9  969.00   30.40
  -2   2  -9  975.80   30.20
   2  -2   9  970.40   31.50
   2  -2   9  953.80   31.10
  -3   2  -9    0.20    3.10
  -3   2  -9   -0.90    2.80
  -3   2  -9    3.70    3.60
  -3   2  -9   -2.10    3.30
   3  -2   9   -6.50    3.80
   3  -2   9    9.80    4.60
   3  -2   9    3.10    3.60
  -4   2  -9  586.74   21.70
  -4   2  -9  615.24   21.60
  -4   2  -9  621.24   21.50
  -4   2  -9  587.94   21.50
   4  -2   9  592.74   21.30
   4  -2   9  610.34   22.80
   4  -2   9  600.44   23.10
  -5   2  -9   18.00    6.00
  -5   2  -9   28.30    5.90
  -5   2  -9   26.10    5.10
  -5   2  -9   24.30    5.10
   5  -2   9   22.20    5.90
   5  -2   9   19.20    6.00
   5  -2   9   19.20    6.70
  -6   2  -9  161.88   12.70
  -6   2  -9  142.19   12.50
  -6   2  -9  164.18   12.20
  -6   2  -9  182.18   12.00
   6  -2   9  185.18   15.60
   6  -2   9  147.39    8.90
   6  -2   9  169.98   15.20
  -7  -1   9   -1.40    5.20
  -7  -1   9   -1.30    6.30
  -7  -1   9   -2.50    5.50
  -7  -1   9   -8.80    7.80
   6   1  -9   44.70    6.90
  -6  -1   9   37.70    6.80
  -6  -1   9   48.40    7.30
  -6  -1   9   41.20   10.50
  -6  -1   9   40.30    5.40
   5   1  -9    8.50    4.70
  -5  -1   9   11.50    5.20
  -5  -1   9    4.70    6.10
  -5  -1   9   11.70    1.80
  -5  -1   9   11.00    4.90
  -5  -1   9   13.20    1.90
  -5  -1   9   12.60    3.30
   4   1  -9  173.18   10.30
   4   1  -9  175.68    5.50
  -4  -1   9  167.08   10.70
  -4  -1   9  156.58    6.90
  -4  -1   9  163.18    7.20
  -4  -1   9  183.28   10.50
  -4  -1   9  162.58    6.60
  -4  -1   9  158.88   11.40
  -4  -1   9  173.88   11.80
   3   1  -9  153.98    9.20
   3   1  -9  163.98   10.70
   3   1  -9  166.78    6.10
  -3  -1   9  161.88    6.60
  -3  -1   9  168.58   10.00
  -3  -1   9  158.78   10.30
  -3  -1   9  154.18    9.60
  -3  -1   9  133.59    7.00
  -3  -1   9  160.38   10.80
  -3  -1   9  166.58    6.80
   2   1  -9   10.60    4.50
   2   1  -9    9.40    3.30
   2   1  -9   10.30    2.10
   2   1  -9   10.40    1.90
  -2  -1   9    8.00    2.20
  -2  -1   9    6.60    2.20
  -2  -1   9   10.40    3.80
  -2  -1   9    3.60    3.30
   1   1  -9 1230.58   35.50
   1   1  -9 1230.48   35.50
   1   1  -9 1213.68   38.10
   1   1  -9 1217.08   36.80
  -1  -1   9 1194.68   35.50
  -1  -1   9 1213.28   36.00
  -1  -1   9 1186.48   39.90
  -1  -1   9 1243.78   37.70
   0   1  -9  394.16   15.50
   0   1  -9  395.46   13.90
   0   1  -9  403.46   15.80
   0   1  -9  382.86   13.40
   0   1  -9  376.96   13.20
   0  -1   9  376.56   13.90
   0  -1   9  394.86   13.40
   0  -1   9  371.36   14.80
   0  -1   9  390.46   13.80
  -1   1  -9   26.80    3.40
  -1   1  -9   25.20    2.80
  -1   1  -9   27.00    3.70
  -1   1  -9   22.20    4.40
  -1   1  -9   19.90    4.00
   1  -1   9   27.90    4.60
   1  -1   9   22.40    3.90
   1  -1   9   24.20    2.90
   1  -1   9   34.00    4.70
  -2   1  -9    9.20    3.10
  -2   1  -9    4.90    2.20
  -2   1  -9    9.10    3.80
  -2   1  -9    6.00    2.80
  -2   1  -9    7.90    3.90
   2  -1   9    2.70    3.40
   2  -1   9    5.10    1.70
   2  -1   9    3.10    3.00
   2  -1   9    8.30    3.70
  -3   1  -9    3.00    3.80
  -3   1  -9   -6.10    3.20
  -3   1  -9    1.30    3.10
  -3   1  -9    0.80    3.20
  -3   1  -9   -0.80    2.50
   3  -1   9    1.60    1.20
   3  -1   9    2.70    4.10
   3  -1   9    0.40    3.50
   3  -1   9   -6.70    3.60
  -4   1  -9   11.20    4.00
  -4   1  -9   14.20    4.30
  -4   1  -9   12.70    4.20
  -4   1  -9    9.80    4.30
   4  -1   9   17.30    5.40
   4  -1   9   14.10    4.50
   4  -1   9    9.60    5.30
  -5   1  -9  206.48   11.50
  -5   1  -9  203.38   11.50
  -5   1  -9  200.48   11.60
  -5   1  -9  201.58   11.80
   5  -1   9  200.88   13.20
   5  -1   9  202.38   13.40
   5  -1   9  193.58   11.40
  -6   1  -9   30.70    6.40
  -6   1  -9   30.80    6.20
  -6   1  -9   26.20    6.30
   6  -1   9   21.80    6.60
   6  -1   9   27.80    8.70
   6  -1   9   27.40    4.00
   6  -1   9   32.00    8.20
  -7   1  -9   10.30    6.90
  -7   1  -9   -6.30    7.20
  -7   1  -9   -3.90    6.00
   7  -1   9    2.90   10.00
   7  -1   9   -2.30    2.60
   7  -1   9   -4.80    8.90
  -7   0   9    5.10    6.60
  -7   0   9   16.90    5.90
  -7   0   9   14.60    6.00
  -7   0   9   10.70    8.50
   6   0  -9    2.70    4.80
  -6   0   9    3.50    5.20
  -6   0   9   -4.90    8.40
  -6   0   9    6.90    5.30
  -6   0   9    5.90    4.40
  -6   0   9    8.60    6.20
   5   0  -9   -2.20    4.40
  -5   0   9   -2.50    6.00
  -5   0   9   -3.90    3.90
  -5   0   9   -4.80    5.70
  -5   0   9    1.30    3.20
  -5   0   9    1.00    5.10
   4   0  -9   65.69    9.50
   4   0  -9   58.29    7.50
  -4   0   9   66.19    8.70
  -4   0   9   53.39    2.90
  -4   0   9   60.89    3.00
  -4   0   9   64.19    5.10
  -4   0   9   54.89    7.60
  -4   0   9   66.69    9.70
  -4   0   9   64.09    8.40
   3   0  -9   80.89    3.20
   3   0  -9   73.39    7.50
   3   0  -9   75.09    8.70
   3   0  -9   75.69    3.00
  -3   0   9   70.69    7.30
  -3   0   9   74.79    4.10
  -3   0   9   84.69    8.30
  -3   0   9   72.79    4.30
  -3   0   9   76.39    8.00
  -3   0   9   71.89    8.00
  -3   0   9   74.19    4.10
   2   0  -9  113.29    7.50
   2   0  -9  124.49    9.30
   2   0  -9  127.59    5.60
   2   0  -9  106.49    5.90
  -2   0   9  105.39    7.90
  -2   0   9  116.69   12.50
  -2   0   9  133.59    8.50
  -2   0   9  115.19    5.30
  -2   0   9  112.79    5.70
   1   0  -9 2233.98   64.59
   1   0  -9 2223.18   64.09
   1   0  -9 2245.78   65.39
   1   0  -9 2209.58   62.39
   1   0  -9 2083.99   64.39
  -1   0   9 2226.38   64.69
  -1   0   9 2198.18   62.99
  -1   0   9 2328.17   64.79
  -1   0   9 2197.48   62.39
   0   0  -9    4.10    2.80
   0   0  -9    4.30    2.80
   0   0  -9    4.60    2.10
   0   0  -9    1.50    3.40
   0   0  -9    2.30    1.90
   0   0   9    6.00    2.50
   0   0   9    1.40    3.20
   0   0   9    3.40    2.40
   0   0   9    2.80    2.10
  -1   0  -9  695.23   22.00
  -1   0  -9  692.53   23.30
  -1   0  -9  719.53   22.30
  -1   0  -9  706.73   20.60
  -1   0  -9  693.93   23.80
  -1   0  -9  723.13   22.20
   1   0   9  659.93   23.50
   1   0   9  718.03   22.10
   1   0   9  694.83   22.80
   1   0   9  697.73   21.80
  -2   0  -9   17.20    3.30
  -2   0  -9   14.10    2.60
  -2   0  -9   14.90    4.00
  -2   0  -9   13.80    2.70
  -2   0  -9   13.40    3.00
  -2   0  -9   15.90    4.40
   2   0   9   10.60    3.60
   2   0   9   13.80    3.10
   2   0   9   15.10    4.20
  -3   0  -9 1074.39   33.30
  -3   0  -9 1098.49   34.00
  -3   0  -9 1104.19   34.60
  -3   0  -9 1105.99   33.90
  -3   0  -9 1060.09   34.50
   3   0   9 1107.09   35.60
   3   0   9 1093.69   33.70
   3   0   9 1126.89   35.10
  -4   0  -9   17.30    4.00
  -4   0  -9   22.20    4.80
  -4   0  -9   17.10    4.40
  -4   0  -9   21.70    4.40
  -4   0  -9   12.50    4.40
   4   0   9   17.50    5.60
  -5   0  -9   -1.10    4.00
  -5   0  -9    7.70    4.50
  -5   0  -9    2.60    3.90
  -5   0  -9   -3.40    4.20
  -5   0  -9    1.90    4.30
   5   0   9    1.90    4.40
   5   0   9   -0.80    5.60
   5   0   9    3.20    5.70
   5   0   9    3.30    3.10
  -6   0  -9   38.30    7.10
  -6   0  -9   33.00    6.40
  -6   0  -9   24.30    6.00
  -6   0  -9   31.00    6.60
  -6   0  -9   24.60    5.70
   6   0   9   27.50    4.10
   6   0   9   25.60    6.20
   6   0   9   38.10    8.30
   6   0   9   26.80    4.00
   6   0   9   50.79    9.70
  -7   0  -9    3.10    6.80
  -7   0  -9    6.10    6.90
  -7   0  -9    7.30    7.10
  -7   0  -9    3.30    6.00
  -7   0  -9    1.80    5.20
   7   0   9   10.30    8.80
   7   0   9   -9.40    9.20
   7   0   9    2.00    2.50
   7   0   9    1.70    2.80
   7   0   9    1.20    2.80
   6  -1  -9   34.10    6.80
  -6   1   9   30.40    6.20
  -6   1   9   32.00    5.70
  -6   1   9   23.50    9.10
  -6   1   9   27.10    5.90
  -6   1   9   32.70    8.60
   5  -1  -9   10.10    4.90
  -5   1   9    9.60    3.80
  -5   1   9   18.60    4.90
  -5   1   9    6.80    6.60
  -5   1   9   10.30    5.60
  -5   1   9   10.60    5.40
  -5   1   9   25.10    6.90
   4  -1  -9   27.90    5.60
  -4   1   9   20.60    6.00
  -4   1   9   14.70    5.70
  -4   1   9    8.10    5.60
  -4   1   9   23.60    4.70
  -4   1   9   20.30    3.30
  -4   1   9   11.40    5.00
   3  -1  -9  410.16   17.30
   3  -1  -9  396.86   16.10
  -3   1   9  406.86   13.20
  -3   1   9  416.86   17.00
  -3   1   9  416.06   17.40
  -3   1   9  425.06   17.20
  -3   1   9  418.46   16.00
  -3   1   9  388.36   12.30
   2  -1  -9    2.90    1.30
   2  -1  -9   -0.30    4.10
   2  -1  -9    4.90    1.30
   2  -1  -9    4.40    3.30
  -2   1   9    1.80    3.70
  -2   1   9    3.50    1.50
  -2   1   9    0.50    3.40
  -2   1   9   -0.20    3.60
  -2   1   9    2.40    1.90
   1  -1  -9  698.93   23.30
   1  -1  -9  718.23   23.20
   1  -1  -9  704.83   24.70
   1  -1  -9  711.83   21.20
   1  -1  -9  720.53   21.40
  -1   1   9  720.93   22.00
  -1   1   9  710.03   21.30
  -1   1   9  676.33   23.50
  -1   1   9  724.83   23.80
   0  -1  -9   36.40    3.90
   0  -1  -9   24.70    3.70
   0  -1  -9   35.40    4.70
   0  -1  -9   33.00    3.60
   0  -1  -9   32.30    5.00
   0   1   9   38.00    2.20
   0   1   9   29.70    3.70
   0   1   9   38.30    5.40
   0   1   9   27.10    4.30
   0   1   9   38.10    4.00
   0   1   9   39.00    6.40
  -1  -1  -9  178.48    6.60
  -1  -1  -9  163.28    8.80
  -1  -1  -9  176.48    9.70
  -1  -1  -9  168.78    7.70
  -1  -1  -9  187.58    7.90
  -1  -1  -9  163.28    7.90
   1   1   9  154.28    6.30
   1   1   9  170.78    7.70
   1   1   9  153.78    8.50
   1   1   9  161.18    9.30
  -2  -1  -9  231.98    8.90
  -2  -1  -9  225.08   10.80
  -2  -1  -9  237.98   10.10
  -2  -1  -9  222.48   10.90
  -2  -1  -9  230.88    9.10
  -2  -1  -9  234.18    9.90
   2   1   9  228.18   10.90
   2   1   9  213.08   11.10
   2   1   9  240.68    9.00
  -3  -1  -9  115.09    7.40
  -3  -1  -9  117.39    5.80
  -3  -1  -9  114.69    7.40
  -3  -1  -9  106.49    8.40
  -3  -1  -9   94.99    6.70
  -3  -1  -9  109.09    8.00
   3   1   9  104.69    9.00
   3   1   9  108.19    8.80
  -4  -1  -9  120.89    8.40
  -4  -1  -9  129.79    9.00
  -4  -1  -9  112.19    8.10
  -4  -1  -9  110.19    9.20
  -4  -1  -9  110.29    8.20
   4   1   9  113.29    7.80
   4   1   9   93.49   10.40
   4   1   9  131.69    8.30
   4   1   9  138.69    8.60
   4   1   9  126.29   10.10
  -5  -1  -9   17.50    5.40
  -5  -1  -9   24.10    5.00
  -5  -1  -9   16.80    4.90
  -5  -1  -9   30.80    5.50
  -5  -1  -9   22.30    5.30
   5   1   9   13.40    6.30
   5   1   9    6.80    6.20
   5   1   9   21.20    4.00
   5   1   9   15.60    5.10
  -6  -1  -9   47.30    6.80
  -6  -1  -9   36.10    5.90
  -6  -1  -9   43.30    7.20
  -6  -1  -9   34.30    5.80
   6   1   9   34.50    7.80
   6   1   9   28.30    4.30
   6   1   9   35.90    8.80
  -7  -1  -9   -2.50    5.30
  -7  -1  -9    6.60    6.30
  -7  -1  -9   -6.60    4.90
  -7  -1  -9   -6.80    6.80
  -7  -1  -9   -3.60    7.00
   7   1   9    6.30    9.10
   7   1   9    5.10    4.10
   7   1   9   -9.30    7.90
   7   1   9    4.20    2.90
   6  -2  -9  281.87   15.50
  -6   2   9  299.37   19.10
  -6   2   9  289.97   15.10
  -6   2   9  278.67   14.40
  -6   2   9  252.67   18.10
  -6   2   9  284.77   14.60
   5  -2  -9   58.49    8.60
  -5   2   9   75.69   10.00
  -5   2   9   56.19    7.60
  -5   2   9   80.39   11.80
  -5   2   9   79.99   10.90
  -5   2   9   88.29   13.30
  -5   2   9   74.49    8.70
   4  -2  -9  106.59    9.20
  -4   2   9   96.09    9.70
  -4   2   9  108.79    7.10
  -4   2   9  106.59    9.90
  -4   2   9  101.99   11.10
  -4   2   9  109.09    8.60
  -4   2   9  100.89   10.90
   3  -2  -9   -5.30    3.90
  -3   2   9   -0.70    2.30
  -3   2   9    1.30    4.10
  -3   2   9   -8.10    3.70
  -3   2   9    2.80    3.60
  -3   2   9   -2.80    4.50
  -3   2   9   -1.20    4.40
   2  -2  -9   15.40    1.60
   2  -2  -9   12.00    4.10
   2  -2  -9   25.70    5.50
  -2   2   9   21.40    4.30
  -2   2   9   16.00    2.40
  -2   2   9   13.20    4.60
  -2   2   9   13.70    4.50
  -2   2   9   19.00    4.40
  -2   2   9   15.80    2.00
   1  -2  -9   12.30    4.50
   1  -2  -9   18.50    3.40
   1  -2  -9   18.50    2.30
   1  -2  -9   15.40    2.60
   1  -2  -9    8.10    3.70
  -1   2   9   12.90    4.70
  -1   2   9    7.60    4.20
  -1   2   9   16.60    2.60
  -1   2   9   13.20    2.90
  -1   2   9   12.10    2.10
  -1   2   9   16.40    3.90
   0  -2  -9  533.45   17.30
   0  -2  -9  572.84   19.00
   0  -2  -9  547.95   19.90
   0  -2  -9  567.94   17.40
   0  -2  -9  547.25   18.70
   0   2   9  528.25   18.10
   0   2   9  533.15   19.60
   0   2   9  536.55   19.40
   0   2   9  547.75   17.30
   0   2   9  559.74   16.50
  -1  -2  -9  470.55   15.60
  -1  -2  -9  456.45   16.00
  -1  -2  -9  453.25   18.10
  -1  -2  -9  473.75   17.70
  -1  -2  -9  476.65   16.10
   1   2   9  455.45   15.50
   1   2   9  462.45   14.60
   1   2   9  444.66   16.40
   1   2   9  475.15   17.50
   1   2   9  470.55   17.60
   1   2   9  472.55   17.10
  -2  -2  -9  421.36   14.00
  -2  -2  -9  404.66   15.90
  -2  -2  -9  426.06   15.80
  -2  -2  -9  418.56   15.00
  -2  -2  -9  406.66   14.70
  -2  -2  -9  415.46   14.20
   2   2   9  398.76   15.70
   2   2   9  392.36   16.30
   2   2   9  403.26   15.80
   2   2   9  410.96   14.00
   2   2   9  403.56   14.70
  -3  -2  -9  225.58   11.00
  -3  -2  -9  224.88   10.50
  -3  -2  -9  216.88   10.80
  -3  -2  -9  233.68    8.80
  -3  -2  -9  208.88    9.80
  -3  -2  -9  231.88   10.50
   3   2   9  218.98   10.00
   3   2   9  227.48   10.90
   3   2   9  214.28   10.80
   3   2   9  210.38   11.50
   3   2   9  227.78   12.40
  -4  -2  -9   -3.80    4.00
  -4  -2  -9    0.70    3.40
  -4  -2  -9   -2.70    3.30
  -4  -2  -9    0.10    3.20
  -4  -2  -9    4.40    2.30
  -4  -2  -9    1.90    3.60
   4   2   9    3.00    3.90
   4   2   9    1.20    3.30
   4   2   9    1.60    5.10
   4   2   9    4.40    3.60
   4   2   9    6.40    4.60
  -5  -2  -9   48.90    7.20
  -5  -2  -9   50.49    6.70
  -5  -2  -9   49.50    6.70
  -5  -2  -9   66.89    8.00
  -5  -2  -9   45.70    6.10
   5   2   9   50.29    6.20
   5   2   9   34.00    7.90
   5   2   9   43.90    6.70
   5   2   9   42.30    7.70
   5   2   9   55.09    8.20
  -6  -2  -9    1.30    5.40
  -6  -2  -9   -9.40    6.30
  -6  -2  -9    3.30    5.60
  -6  -2  -9   -0.60    5.20
  -6  -2  -9   -0.40    4.00
   6   2   9    2.70    7.50
   6   2   9   -0.20    3.50
   6   2   9   -3.90    6.80
   6   2   9    8.00    5.60
   6   2   9   -0.30    5.50
  -7  -2  -9    1.00    5.20
  -7  -2  -9    4.10    4.60
  -7  -2  -9    7.80    6.50
  -7  -2  -9  -12.50    7.20
  -7  -2  -9   -3.50    7.30
   7   2   9   -2.80    8.00
   7   2   9    6.00    9.20
   7   2   9    3.30    3.50
   6  -3  -9  128.99   17.70
  -6   3   9  100.19   10.90
  -6   3   9  101.59   10.40
  -6   3   9   94.29   12.10
  -6   3   9  133.29   18.00
  -6   3   9   78.59   11.70
   5  -3  -9    7.70    5.30
  -5   3   9   -0.60    8.00
  -5   3   9   11.60    7.70
  -5   3   9    4.60    4.50
  -5   3   9    6.10    5.40
  -5   3   9   17.10    6.90
  -5   3   9   15.00    4.50
   4  -3  -9   28.50    6.00
  -4   3   9   30.30    7.10
  -4   3   9   41.80    7.50
  -4   3   9   31.50    4.80
  -4   3   9   29.80    6.00
  -4   3   9   41.90    6.50
  -4   3   9   43.20    5.60
   3  -3  -9    0.10    4.20
  -3   3   9   -1.80    4.00
  -3   3   9    1.40    5.50
  -3   3   9    4.60    4.40
  -3   3   9   -3.60    4.30
  -3   3   9    0.10    3.40
   2  -3  -9 1661.03   50.09
   2  -3  -9 1636.14   45.70
   2  -3  -9 1619.44   45.70
  -2   3   9 1729.93   50.99
  -2   3   9 1665.43   50.79
  -2   3   9 1617.54   46.20
  -2   3   9 1644.64   49.20
  -2   3   9 1629.34   50.69
  -2   3   9 1679.63   46.80
   1  -3  -9  477.55   16.20
   1  -3  -9  456.15   18.20
   1  -3  -9  432.96   16.80
   1  -3  -9  451.95   14.10
  -1   3   9  450.65   16.70
  -1   3   9  427.56   17.40
  -1   3   9  431.66   14.90
  -1   3   9  451.25   14.40
  -1   3   9  428.56   17.30
  -1   3   9  448.26   14.20
   0  -3  -9   -1.50    3.80
   0  -3  -9   -2.40    1.80
   0  -3  -9   -1.40    2.00
   0  -3  -9   -2.20    2.70
   0  -3  -9   -0.50    2.30
   0   3   9   -3.40    1.90
   0   3   9   -6.60    3.30
   0   3   9    2.30    3.60
   0   3   9   -6.60    2.90
   0   3   9    0.20    1.80
   0   3   9   -6.00    2.50
  -1  -3  -9  399.46   20.10
  -1  -3  -9  472.25   17.00
  -1  -3  -9  493.25   16.40
  -1  -3  -9  496.05   18.50
   1   3   9  512.55   18.30
   1   3   9  510.15   16.40
   1   3   9  509.75   15.90
   1   3   9  508.15   17.60
   1   3   9  497.05   18.30
   1   3   9  500.15   18.50
  -2  -3  -9  720.53   23.10
  -2  -3  -9  737.33   23.00
  -2  -3  -9  725.43   23.80
  -2  -3  -9  697.73   24.40
  -2  -3  -9  725.63   24.40
  -2  -3  -9  746.83   23.30
   2   3   9  721.83   24.40
   2   3   9  693.93   25.00
   2   3   9  748.53   24.90
   2   3   9  724.53   22.80
   2   3   9  753.72   24.10
   2   3   9  730.83   23.30
  -3  -3  -9  329.17   13.20
  -3  -3  -9  321.37   13.80
  -3  -3  -9  316.47   13.90
  -3  -3  -9  328.67   12.90
  -3  -3  -9  317.37   13.60
  -3  -3  -9  332.37   12.00
   3   3   9  325.47   15.40
   3   3   9  313.07   13.90
   3   3   9  326.47   14.70
   3   3   9  331.87   13.40
   3   3   9  344.97   13.00
  -4  -3  -9    2.40    2.40
  -4  -3  -9    4.30    3.60
  -4  -3  -9   -0.20    3.50
  -4  -3  -9    4.90    3.90
  -4  -3  -9    3.30    3.80
  -4  -3  -9   -4.80    4.00
   4   3   9    8.10    5.10
   4   3   9    5.80    5.40
   4   3   9    6.00    3.60
   4   3   9   12.00    3.80
   4   3   9    3.50    3.70
  -5  -3  -9  267.67   12.80
  -5  -3  -9  256.77   13.00
  -5  -3  -9  258.87   14.00
  -5  -3  -9  248.38   13.30
  -5  -3  -9  250.27   11.90
   5   3   9  245.48   13.10
   5   3   9  251.07   15.10
   5   3   9  258.57   12.80
   5   3   9  257.57   12.20
  -6  -3  -9    4.00    3.80
  -6  -3  -9   -3.20    5.20
  -6  -3  -9  -10.70    5.30
  -6  -3  -9   -1.60    8.00
  -6  -3  -9    5.20    5.50
   6   3   9   -0.50    5.70
   6   3   9   -4.50    6.70
   6   3   9   -3.70    3.70
   6   3   9   -2.10    5.60
  -7  -3  -9    5.30    5.40
  -7  -3  -9    0.30   13.10
  -7  -3  -9   -6.10    7.00
  -7  -3  -9   -5.70    5.60
  -7  -3  -9   -3.00    4.10
   7   3   9   -1.10    3.70
   7   3   9    4.50    9.00
   7   3   9    4.90   12.30
   5  -4  -9   14.30    6.00
  -5   4   9   15.20    4.90
  -5   4   9   14.80    6.40
  -5   4   9   20.70    9.50
  -5   4   9   18.10    7.00
  -5   4   9   24.20    5.70
   4  -4  -9  150.78   11.10
  -4   4   9  148.29    9.90
  -4   4   9  182.98   13.90
  -4   4   9  144.49   11.20
  -4   4   9  152.48    9.70
  -4   4   9  147.49   13.90
  -4   4   9  158.48   12.00
   3  -4  -9  134.69   10.50
  -3   4   9  145.29   12.20
  -3   4   9  149.79   11.40
  -3   4   9  141.79   11.10
  -3   4   9  140.59    9.10
   2  -4  -9  214.48    6.90
   2  -4  -9  215.38   11.80
   2  -4  -9  209.78    6.80
  -2   4   9  225.78   12.60
  -2   4   9  198.08    8.20
  -2   4   9  235.08   13.50
  -2   4   9  235.78   11.00
  -2   4   9  220.78   10.90
  -2   4   9  211.78    7.80
  -2   4   9  218.18   12.90
   1  -4  -9   72.79    7.00
   1  -4  -9   93.49    5.00
   1  -4  -9   94.89    8.30
   1  -4  -9  100.49    5.20
  -1   4   9   87.19    8.90
  -1   4   9  100.19    6.20
  -1   4   9  112.89    9.90
  -1   4   9   90.09    8.20
  -1   4   9   84.59    6.40
  -1   4   9   96.79    5.40
   0  -4  -9   72.39    8.20
   0  -4  -9   69.29    6.20
   0  -4  -9   57.09    5.70
   0  -4  -9   64.59    6.90
   0   4   9   55.49    7.10
   0   4   9   70.69    7.60
   0   4   9   69.59    5.10
   0   4   9   67.59    5.10
   0   4   9   66.19    8.20
   0   4   9   49.50    6.20
  -1  -4  -9    7.40    4.10
  -1  -4  -9    8.80    3.50
  -1  -4  -9   10.60    2.80
  -1  -4  -9    7.30    2.70
  -1  -4  -9    7.70    3.70
   1   4   9    9.00    3.80
   1   4   9   13.40    4.70
   1   4   9   10.00    3.00
   1   4   9   10.70    4.20
   1   4   9   16.60    2.90
   1   4   9    1.50    3.50
  -2  -4  -9   22.00    3.90
  -2  -4  -9   28.00    5.10
  -2  -4  -9   23.40    3.70
  -2  -4  -9   20.90    4.00
  -2  -4  -9   20.90    3.70
  -2  -4  -9   24.00    3.80
   2   4   9   27.30    6.60
   2   4   9   29.80    5.10
   2   4   9   24.90    4.70
   2   4   9   24.60    5.10
   2   4   9   21.00    4.50
   2   4   9   28.10    4.30
  -3  -4  -9   21.90    4.40
  -3  -4  -9   21.90    4.20
  -3  -4  -9   25.00    4.90
  -3  -4  -9   28.00    4.00
  -3  -4  -9   26.40    4.60
  -3  -4  -9   21.70    4.60
   3   4   9   20.60    5.20
   3   4   9   19.60    4.90
   3   4   9   27.60    6.00
   3   4   9   19.60    4.10
   3   4   9   17.90    4.80
  -4  -4  -9  143.29    9.40
  -4  -4  -9  133.29    7.30
  -4  -4  -9  125.79    8.70
  -4  -4  -9  146.09   10.30
  -4  -4  -9  142.69    9.60
  -4  -4  -9  139.89    8.90
   4   4   9  141.09    9.10
   4   4   9  139.19   11.30
   4   4   9  134.89   12.20
   4   4   9  147.89    9.90
   4   4   9  169.78    9.60
  -5  -4  -9  163.58    9.80
  -5  -4  -9  185.28   11.20
  -5  -4  -9  190.68   11.70
  -5  -4  -9  172.98   11.60
  -5  -4  -9  181.38    7.90
  -5  -4  -9  162.18   11.80
   5   4   9  171.88   11.50
   5   4   9  185.88   10.90
   5   4   9  188.18   13.50
   5   4   9  192.68   13.40
   5   4   9  180.28   11.30
  -6  -4  -9  225.68    8.70
  -6  -4  -9  226.68   16.30
  -6  -4  -9  233.08   14.50
  -6  -4  -9  222.48   15.00
  -6  -4  -9  249.38   14.70
  -6  -4  -9  242.58   11.10
   6   4   9  237.78   14.00
   6   4   9  222.28   24.90
   6   4   9  248.18   14.90
   6   4   9  239.68   16.40
   6   4   9  247.18   12.60
  -7  -4  -9   33.00    8.20
  -7  -4  -9   24.20    4.30
  -7  -4  -9   21.50    7.50
  -7  -4  -9   16.60    6.40
   7   4   9   16.20    5.00
   7   4   9   12.30    9.80
   7   4   9   34.90    9.90
  -5   5   9    6.10    6.40
  -5   5   9    7.50    4.50
  -5   5   9   -1.90    7.10
  -5   5   9   -7.30    5.10
   4  -5  -9   21.10    6.00
  -4   5   9   21.10    8.40
  -4   5   9   24.10    7.80
  -4   5   9   16.90    5.60
  -4   5   9   16.40    6.20
  -4   5   9   23.20    4.70
   3  -5  -9   28.90    5.70
  -3   5   9   49.90    6.30
  -3   5   9   40.30    7.20
  -3   5   9   41.70    7.20
  -3   5   9   32.70    5.10
   2  -5  -9  186.68   11.70
   2  -5  -9  182.28    6.30
  -2   5   9  193.78   11.60
  -2   5   9  185.78   11.50
  -2   5   9  173.28   10.10
  -2   5   9  187.88    7.60
  -2   5   9  187.68   12.00
  -2   5   9  225.78   13.80
  -2   5   9  180.78    7.30
   1  -5  -9  175.78   10.80
   1  -5  -9  178.48    7.20
   1  -5  -9  177.88    8.60
   1  -5  -9  183.68    9.40
  -1   5   9  181.38    8.90
  -1   5   9  200.38   12.90
  -1   5   9  196.88   12.70
  -1   5   9  174.18    9.30
  -1   5   9  180.28    7.90
  -1   5   9  203.68   10.70
   0  -5  -9 4941.21  139.19
   0  -5  -9 4760.72  141.59
   0  -5  -9 4999.30  142.69
   0  -5  -9 4727.93  139.69
   0   5   9 5537.25  142.39
   0   5   9 4831.32  141.49
   0   5   9 4908.11  142.79
   0   5   9 5191.58  139.59
   0   5   9 5015.70  140.49
   0   5   9 5331.97  142.89
  -1  -5  -9  157.48    8.60
  -1  -5  -9  171.28    9.60
  -1  -5  -9  163.58    9.70
  -1  -5  -9  159.18    8.30
   1   5   9  172.68   11.40
   1   5   9  168.98   10.40
   1   5   9  172.58   10.00
   1   5   9  150.98    8.40
   1   5   9  159.48   10.60
   1   5   9  181.08    8.80
  -2  -5  -9   46.90    6.20
  -2  -5  -9   39.70    5.90
  -2  -5  -9   37.30    4.90
  -2  -5  -9   37.00    5.20
   2   5   9   25.20    5.50
   2   5   9   29.40    5.70
   2   5   9   25.00    6.20
   2   5   9   38.00    5.90
   2   5   9   35.70    5.70
   2   5   9   36.60    6.10
  -3  -5  -9  149.99    8.70
  -3  -5  -9  131.29    9.20
  -3  -5  -9  133.49    9.20
  -3  -5  -9  134.19    9.40
  -3  -5  -9  132.39    8.10
  -3  -5  -9  135.89    8.70
   3   5   9  132.99    8.70
   3   5   9  134.79   10.30
   3   5   9  139.79   11.30
   3   5   9  156.58   10.60
   3   5   9  121.19   10.20
   3   5   9  130.49    8.80
  -4  -5  -9   -4.20    4.50
  -4  -5  -9   -1.20    3.40
  -4  -5  -9    6.60    3.90
  -4  -5  -9   -6.80    3.40
  -4  -5  -9    3.30    3.90
  -4  -5  -9    0.00    2.90
   4   5   9   -3.00    5.20
   4   5   9    7.80    4.40
   4   5   9    6.50    4.20
   4   5   9   -1.70    4.20
  -5  -5  -9   38.30    5.20
  -5  -5  -9   59.39    7.90
  -5  -5  -9   32.70    6.50
  -5  -5  -9   35.00    6.80
  -5  -5  -9   38.40    6.70
  -5  -5  -9   41.80    5.40
   5   5   9   39.70    6.00
   5   5   9   35.70    6.00
   5   5   9   41.10    7.80
   5   5   9   50.29    7.20
   5   5   9   46.10    7.90
  -6  -5  -9   61.49    8.20
  -6  -5  -9   87.19   12.10
  -6  -5  -9   64.79    9.30
  -6  -5  -9   57.89    5.70
   6   5   9   81.69   11.10
   6   5   9   89.29    9.70
   6   5   9   54.29    8.60
   6   5   9   64.29    9.90
   6   5   9   43.70    9.10
  -7  -5  -9   19.90    8.70
  -7  -5  -9   12.10    6.40
  -7  -5  -9   19.80    7.50
   7   5   9    1.60    9.10
   7   5   9   12.90    8.60
   7   5   9    7.40    5.40
   5  -6  -9    7.00    6.30
   4  -6  -9    2.60    6.20
  -4   6   9    1.40    3.90
  -4   6   9   -4.30    5.20
  -4   6   9   11.50    6.30
   3  -6  -9    2.60    4.90
  -3   6   9    0.00    3.80
  -3   6   9   -3.20    4.00
  -3   6   9   -2.40    1.50
  -3   6   9    2.90    6.30
  -3   6   9   19.00    8.20
  -3   6   9   -2.30    1.60
  -3   6   9    4.10    6.20
   2  -6  -9    5.90    1.70
   2  -6  -9    7.90    1.90
   2  -6  -9    2.40    4.90
  -2   6   9    2.50    2.30
  -2   6   9    5.10    5.40
  -2   6   9    4.40    4.10
  -2   6   9    5.80    3.60
  -2   6   9    9.10    6.30
  -2   6   9    3.90    2.20
   1  -6  -9  178.58    7.70
   1  -6  -9  192.38   11.90
   1  -6  -9  199.58    9.50
   1  -6  -9  195.08    8.40
  -1   6   9  187.28    9.30
  -1   6   9  204.28   11.00
  -1   6   9  195.98   13.40
  -1   6   9  205.98    9.30
  -1   6   9  201.98   13.50
  -1   6   9  190.38   10.50
  -1   6   9  194.68    8.50
   0  -6  -9  118.89    7.60
   0  -6  -9  120.09    9.90
   0  -6  -9  127.69    6.90
   0   6   9  132.09   10.40
   0   6   9  127.89   10.10
   0   6   9  119.29   10.70
   0   6   9  138.29   13.40
   0   6   9  132.19    8.80
   0   6   9  142.19    7.70
  -1  -6  -9  660.63   21.60
  -1  -6  -9  682.43   23.30
  -1  -6  -9  652.43   22.50
  -1  -6  -9  666.23   23.70
   1   6   9  671.03   23.30
   1   6   9  676.43   24.40
   1   6   9  664.43   24.90
   1   6   9  641.04   24.20
   1   6   9  661.33   21.90
  -2  -6  -9 2106.89   65.39
  -2  -6  -9 2237.58   66.09
  -2  -6  -9 2240.58   65.59
  -2  -6  -9 2142.99   64.39
   2   6   9 2244.68   67.29
   2   6   9 2156.68   65.79
   2   6   9 2248.58   65.09
   2   6   9 2328.67   64.79
   2   6   9 2260.97   67.39
   2   6   9 2321.77   66.29
  -3  -6  -9  260.57   13.10
  -3  -6  -9  251.77   12.10
  -3  -6  -9  264.37   12.20
  -3  -6  -9  264.67   13.30
   3   6   9  257.97   15.10
   3   6   9  255.47   12.10
   3   6   9  254.87   14.10
   3   6   9  229.78   15.30
   3   6   9  257.87   14.10
   3   6   9  261.57   12.70
  -4  -6  -9   94.49    9.70
  -4  -6  -9   79.19    9.20
  -4  -6  -9   72.09    7.40
  -4  -6  -9   93.49    9.10
   4   6   9   98.49   10.10
   4   6   9   99.59    9.60
   4   6   9   86.39    9.10
   4   6   9  104.29    9.20
   4   6   9   82.19   10.70
  -5  -6  -9   21.10    5.80
  -5  -6  -9   25.60    6.30
  -5  -6  -9   24.20    6.20
  -5  -6  -9   19.80    4.30
   5   6   9   29.90    6.50
   5   6   9   30.70    6.40
   5   6   9   17.40    6.50
   5   6   9   16.40    5.80
   5   6   9   25.80    7.20
  -6  -6  -9   17.50    8.40
  -6  -6  -9   32.40    7.70
  -6  -6  -9   40.20    7.40
   6   6   9   39.00    8.60
   6   6   9   25.40    8.10
   6   6   9   44.30    8.20
   6   6   9   18.20    7.60
   6   6   9   24.70    6.30
  -7  -6  -9   10.50    6.90
  -7  -6  -9    0.60    3.70
   7   6   9   -7.50    8.40
   7   6   9    3.90    9.30
   7   6   9    2.10    5.70
   4  -7  -9    9.50    6.70
  -4   7   9   10.50    9.40
  -4   7   9    0.80    3.80
  -4   7   9    6.80    7.30
   3  -7  -9   12.90    5.90
  -3   7   9    5.00    8.00
  -3   7   9   12.70    2.50
  -3   7   9   17.80    4.50
  -3   7   9   26.20   16.70
   2  -7  -9    0.20    5.00
   2  -7  -9   10.40    2.50
   2  -7  -9   10.60    2.10
  -2   7   9    4.00    6.50
  -2   7   9    9.40    3.60
  -2   7   9   10.90    7.40
  -2   7   9    3.10    2.70
  -2   7   9    7.50    2.80
  -2   7   9    8.60    4.40
   1  -7  -9  122.39    6.40
   1  -7  -9  124.59    7.50
   1  -7  -9  127.29   10.70
   1  -7  -9  122.89    7.70
  -1   7   9  121.09    7.20
  -1   7   9  122.79    6.80
  -1   7   9  119.89   11.80
  -1   7   9  117.69   11.50
  -1   7   9  122.69    9.30
  -1   7   9  122.29    7.70
  -1   7   9  125.59    9.70
   0  -7  -9   38.10    4.90
   0  -7  -9   34.80    5.00
   0  -7  -9   29.30    6.50
   0  -7  -9   34.90    4.60
   0   7   9   29.10    7.20
   0   7   9   33.50    5.40
   0   7   9   31.10    7.10
   0   7   9   29.10    4.30
   0   7   9   27.90    4.60
   0   7   9   21.60    5.30
  -1  -7  -9  957.50   29.90
  -1  -7  -9  970.40   31.50
  -1  -7  -9  962.20   31.00
  -1  -7  -9  925.81   32.30
   1   7   9  971.30   32.90
   1   7   9  954.90   30.20
   1   7   9  969.80   31.60
   1   7   9  965.00   32.70
   1   7   9  978.10   34.00
   1   7   9  984.90   31.40
  -2  -7  -9  504.15   18.40
  -2  -7  -9  533.15   20.10
  -2  -7  -9  512.45   20.00
  -2  -7  -9  510.05   19.40
   2   7   9  499.75   19.30
   2   7   9  519.75   18.70
   2   7   9  523.25   20.40
   2   7   9  530.95   22.00
   2   7   9  487.15   20.20
   2   7   9  501.55   21.20
  -3  -7  -9  149.88   10.90
  -3  -7  -9  154.58   10.30
  -3  -7  -9  148.39    9.70
  -3  -7  -9  155.38   10.80
   3   7   9  148.89   10.70
   3   7   9  150.08   12.50
   3   7   9  147.19   10.70
   3   7   9  148.79   12.20
   3   7   9  149.19   10.20
   3   7   9  143.99    9.70
  -4  -7  -9  546.95   21.90
  -4  -7  -9  543.95   20.40
  -4  -7  -9  561.24   22.50
  -4  -7  -9  566.94   20.90
  -4  -7  -9  542.95   21.80
   4   7   9  542.35   21.10
   4   7   9  569.84   23.40
   4   7   9  554.84   20.70
   4   7   9  549.85   21.70
   4   7   9  546.65   22.60
  -5  -7  -9  280.77   13.00
  -5  -7  -9  291.67   14.60
  -5  -7  -9  235.78   16.00
  -5  -7  -9  279.27   16.60
  -5  -7  -9  278.37   16.40
   5   7   9  279.67   15.50
   5   7   9  293.87   17.40
   5   7   9  268.67   15.90
   5   7   9  311.77   16.40
   5   7   9  276.27   14.70
  -6  -7  -9   54.99    8.90
  -6  -7  -9   43.80    7.70
  -6  -7  -9   57.19    7.60
  -6  -7  -9   56.79   10.00
   6   7   9   51.29    9.90
   6   7   9   43.20    7.80
   6   7   9   63.49    9.40
   6   7   9   56.79    9.40
   6   7   9   41.50   10.00
   3  -8  -9   15.80    6.90
  -3   8   9    3.50    2.80
  -3   8   9    4.10    3.80
  -3   8   9   -1.30    7.20
   2  -8  -9   13.50    2.90
   2  -8  -9   13.30    3.40
  -2   8   9   13.10    3.50
  -2   8   9   21.60    7.50
  -2   8   9   15.80    3.40
  -2   8   9   11.60    3.00
   1  -8  -9   45.80    7.80
   1  -8  -9   61.89    6.80
   1  -8  -9   60.19    6.40
  -1   8   9   59.69   10.20
  -1   8   9   40.30    6.40
  -1   8   9   50.39    9.50
  -1   8   9   63.09    6.50
  -1   8   9   49.60    4.00
  -1   8   9   53.29    7.00
   0  -8  -9  258.67   12.10
   0  -8  -9  257.97   14.60
   0  -8  -9  256.27   10.90
   0  -8  -9  259.37   12.20
   0   8   9  252.97   16.10
   0   8   9  265.67   12.60
   0   8   9  239.78   20.30
   0   8   9  271.17   13.70
   0   8   9  270.07   11.60
   0   8   9  245.98    8.90
  -1  -8  -9   -0.30    4.70
  -1  -8  -9   -7.90    4.00
  -1  -8  -9    9.50    5.10
  -1  -8  -9   -1.20    4.10
  -1  -8  -9   -2.00    3.00
   1   8   9   -3.20    6.10
   1   8   9   -1.70    4.90
   1   8   9   -3.70    4.50
   1   8   9   -0.40    5.80
   1   8   9   -2.80    4.30
  -2  -8  -9  193.38   12.70
  -2  -8  -9  186.68   10.20
  -2  -8  -9  209.28   12.10
  -2  -8  -9  193.28   12.40
  -2  -8  -9  192.08   11.60
   2   8   9  196.28   12.00
   2   8   9  163.58   13.00
   2   8   9  183.78    9.00
   2   8   9  171.98   12.50
   2   8   9  213.88   14.80
   2   8   9  183.78   12.70
  -3  -8  -9   29.20    6.60
  -3  -8  -9   21.50    5.90
  -3  -8  -9   36.60    5.60
  -3  -8  -9   37.20    6.70
  -3  -8  -9   23.10    5.50
   3   8   9   25.80    5.80
   3   8   9   42.40    7.80
   3   8   9   27.80    5.60
   3   8   9   31.50    5.40
   3   8   9   36.10    7.00
  -4  -8  -9  874.21   30.80
  -4  -8  -9  909.71   32.50
  -4  -8  -9  921.91   30.60
  -4  -8  -9  893.51   32.40
   4   8   9  899.51   30.50
   4   8   9  902.71   32.90
   4   8   9  957.90   33.30
   4   8   9  892.11   31.90
   4   8   9  936.21   31.00
   4   8   9  899.31   30.20
  -5  -8  -9   92.39    9.50
  -5  -8  -9   85.29   11.90
  -5  -8  -9   99.49   13.10
  -5  -8  -9   66.09    9.30
  -5  -8  -9  105.99   14.40
   5   8   9  106.99   13.10
   5   8   9   91.79   11.90
   5   8   9  105.39   14.20
   5   8   9  102.09   13.30
   5   8   9   84.39   11.20
  -6  -8  -9  141.39   13.10
  -6  -8  -9  140.29   10.50
  -6  -8  -9  143.89   14.10
   6   8   9  163.68   17.10
   6   8   9  135.89   14.90
   6   8   9  158.48   14.90
   2  -9  -9    3.40    4.00
   2  -9  -9    7.30    6.30
  -2   9   9   -4.30    3.80
  -2   9   9    7.80    8.50
   1  -9  -9    1.10    3.50
   1  -9  -9   -5.40    6.70
   1  -9  -9    1.70    3.30
   1  -9  -9    1.60    4.10
  -1   9   9    7.20    4.00
  -1   9   9   -6.70    7.20
  -1   9   9  -11.40    5.70
   0  -9  -9   -5.70    3.90
   0  -9  -9   -3.80    6.30
   0  -9  -9    0.90    3.20
   0  -9  -9    3.20    4.70
   0  -9  -9   17.10    7.00
   0   9   9   -3.80    6.90
   0   9   9    2.50    5.10
   0   9   9    8.80    4.30
   0   9   9   -4.60    5.90
   0   9   9   -9.80    7.80
  -1  -9  -9   31.10    5.90
  -1  -9  -9   28.00    7.70
  -1  -9  -9   28.80    6.20
  -1  -9  -9   28.30    4.60
  -1  -9  -9   31.50    7.40
   1   9   9   27.10    5.30
   1   9   9   43.90    8.60
   1   9   9   19.50    6.00
   1   9   9   31.20    6.50
   1   9   9   18.10    7.40
  -2  -9  -9  117.39   13.20
  -2  -9  -9  115.09    9.20
  -2  -9  -9  116.89   11.40
  -2  -9  -9  138.19   11.70
  -2  -9  -9  140.09   11.30
   2   9   9  131.99   12.70
   2   9   9  133.79   12.20
   2   9   9  120.09   14.00
   2   9   9  130.39    6.50
   2   9   9  124.69   11.80
   2   9   9  147.19   10.70
  -3  -9  -9   19.90    6.80
  -3  -9  -9   22.30    6.90
  -3  -9  -9   20.30    5.40
  -3  -9  -9   20.00    5.10
  -3  -9  -9   25.30    6.10
   3   9   9   29.30    7.60
   3   9   9    6.70    5.90
   3   9   9   22.20    7.50
   3   9   9   25.00    4.80
   3   9   9   10.50    5.80
   3   9   9   12.90    8.10
  -4  -9  -9   18.70    5.70
  -4  -9  -9   17.00    7.60
  -4  -9  -9    6.30    5.20
  -4  -9  -9    7.60    6.60
   4   9   9    1.30    6.70
   4   9   9   15.10    5.60
   4   9   9   10.60    8.10
   4   9   9    8.20    7.20
   4   9   9   10.20    5.80
   4   9   9    5.70    6.80
  -5  -9  -9  265.47   15.00
  -5  -9  -9  241.38   13.90
   5   9   9  246.88   13.70
   5   9   9  249.08   17.60
   5   9   9  276.57   18.50
   5   9   9  209.28   16.50
   5   9   9  251.37   15.10
   1 -10  -9    2.60    3.80
   1 -10  -9   -3.30    6.10
   1 -10  -9   -4.60    3.50
   1 -10  -9   15.70    6.10
  -1  10   9   -2.80    8.60
  -1  10   9   -4.70    5.00
  -1  10   9   -1.50    4.40
   0 -10  -9   -9.50    6.30
   0 -10  -9   -3.00    3.80
   0 -10  -9    4.10    5.80
   0 -10  -9    4.00    4.10
   0  10   9   -0.80    5.30
   0  10   9    2.00    7.60
   0  10   9   -5.20    7.90
   0  10   9   -3.10    4.90
  -1 -10  -9   50.99    6.30
  -1 -10  -9   61.89   12.70
  -1 -10  -9   47.40    8.50
  -1 -10  -9   60.89    7.30
   1  10   9   50.69    7.30
   1  10   9   42.60   10.20
   1  10   9   50.29    8.90
   1  10   9   61.69   10.00
   1  10   9   64.39    7.60
  -2 -10  -9   38.40    6.90
  -2 -10  -9   24.60    5.50
   2  10   9   38.40    8.80
   2  10   9   36.00    9.20
   2  10   9   22.10    6.80
   2  10   9   26.90    7.30
   2  10   9   31.30    9.00
  -3 -10  -9   21.40    7.00
  -3 -10  -9   23.10    6.20
  -3 -10  -9   23.60    7.90
   3  10   9   22.80    8.20
   3  10   9   23.50    9.20
   3  10   9   24.20    4.00
   3  10   9   12.90    7.60
   3  10   9   36.00    7.80
   3  10   9   23.80    8.00
  -4 -10  -9    4.20    9.40
  -4 -10  -9   -1.50    5.30
  -4 -10  -9    6.30    6.30
   4  10   9   -2.50    4.90
   4  10   9   10.00    7.90
   4  10   9   -0.90    8.50
   4  10   9   -1.90    6.30
   4  10   9   -0.20    7.80
  -1 -11  -9  107.99   11.50
  -1 -11  -9   81.49   12.60
   1  11   9   86.19    9.90
   1  11   9   86.99   12.70
  -2 -11  -9   -1.80    5.20
  -2 -11  -9   14.50    7.40
  -2 -11  -9    8.20    7.30
   2  11   9    7.00    7.60
   2  11   9   -4.40    9.10
   2  11   9   25.00    7.50
   2  11   9    2.30   10.50
  -3 -11  -9   -2.90    6.00
   3  11   9   10.80    9.20
   4   9 -10    0.00    7.50
   3   9 -10    9.90    5.60
   3   9 -10   15.00    7.20
   3   9 -10   -7.50    4.60
   3   9 -10    5.20    7.30
  -3  -9  10    2.20    5.80
  -3  -9  10    1.60    9.40
  -3  -9  10   12.30    7.60
  -3  -9  10    3.80    5.70
   2   9 -10   17.70    6.00
   2   9 -10    8.70    4.70
   2   9 -10   14.70    5.80
  -2  -9  10    8.80    6.20
  -2  -9  10    2.40    5.40
  -2  -9  10   15.20    7.00
   1   9 -10    7.40    5.00
   1   9 -10   18.90    4.90
   1   9 -10   15.20    6.20
  -1  -9  10   16.40    6.60
  -1  -9  10    7.70    6.80
  -1  -9  10   20.40    6.30
   0   9 -10  288.27   12.90
   0   9 -10  302.17   14.60
   0   9 -10  319.37   16.30
   0  -9  10  299.87   16.20
   0  -9  10  285.27   15.50
   0  -9  10  329.57   25.60
  -1   9 -10  165.78   13.10
   1  -9  10  156.48   14.20
   1  -9  10  156.18   12.80
   5   8 -10   -1.20    6.80
   5   8 -10    9.90    5.60
   5   8 -10   -8.10    7.90
   5   8 -10    4.70    4.90
  -5  -8  10    3.00    6.80
  -5  -8  10    5.80    6.10
  -5  -8  10   -3.20    8.10
   4   8 -10   10.10    5.20
   4   8 -10   11.60    6.80
   4   8 -10   17.60    6.00
   4   8 -10   11.50    6.80
  -4  -8  10   12.00    6.40
  -4  -8  10   21.20    6.00
  -4  -8  10   12.90    6.60
   3   8 -10   30.70    7.70
   3   8 -10   36.20    6.40
   3   8 -10   26.30    8.30
   3   8 -10   36.30    6.20
  -3  -8  10   30.90    6.70
  -3  -8  10   18.30    8.60
  -3  -8  10   24.40    5.80
  -3  -8  10   35.50    7.70
   2   8 -10  100.79   10.60
   2   8 -10  120.99   11.10
   2   8 -10  124.89   10.30
  -2  -8  10  112.09   11.40
  -2  -8  10  110.79   11.40
  -2  -8  10  108.99   10.30
  -2  -8  10  124.29   13.00
   1   8 -10  278.97   14.70
   1   8 -10  276.87   12.40
   1   8 -10  274.17   14.30
   1   8 -10  291.17   13.50
  -1  -8  10  294.67   15.20
  -1  -8  10  266.77   17.60
  -1  -8  10  278.87   14.40
  -1  -8  10  297.57   15.00
   0   8 -10   11.10    3.70
   0   8 -10    9.10    5.30
   0   8 -10   25.50    6.00
   0  -8  10   17.90    5.70
   0  -8  10    9.80    5.80
   0  -8  10   11.60    7.10
   0  -8  10   13.20    5.40
  -1   8 -10    3.60    6.40
  -1   8 -10    6.20    5.30
   1  -8  10    3.80    5.40
   1  -8  10    7.10    6.40
   1  -8  10    3.10    7.30
   1  -8  10   10.60    5.90
  -2   8 -10  121.29   11.90
   2  -8  10  103.99   15.20
   2  -8  10  119.59   11.10
   2  -8  10  120.19   13.10
   5   7 -10  144.89   16.20
   5   7 -10  141.29   12.00
   5   7 -10  158.88   14.10
   5   7 -10  162.98   11.10
  -5  -7  10  186.78   13.90
  -5  -7  10  163.38   17.70
  -5  -7  10  156.28   14.10
  -5  -7  10  169.18   11.80
   4   7 -10   17.50    6.70
   4   7 -10   20.10    5.10
   4   7 -10   26.80    5.90
   4   7 -10   19.50    4.00
  -4  -7  10   27.40    6.50
  -4  -7  10   23.00    7.80
  -4  -7  10   31.00    5.70
  -4  -7  10   21.50    6.30
  -4  -7  10   30.30    9.50
   3   7 -10  195.78   12.80
   3   7 -10  207.58   11.60
   3   7 -10  187.58   13.70
   3   7 -10  211.28   14.30
   3   7 -10  220.08   11.90
  -3  -7  10  209.38   13.70
  -3  -7  10  197.38   15.20
  -3  -7  10  223.88   12.10
  -3  -7  10  214.28   12.50
   2   7 -10   17.50    4.90
   2   7 -10   19.30    4.80
   2   7 -10   16.00    5.60
   2   7 -10   16.60    6.30
   2   7 -10   29.10    5.90
  -2  -7  10   20.60    5.90
  -2  -7  10   23.50    5.40
  -2  -7  10   14.80    4.80
  -2  -7  10   21.70    7.10
   1   7 -10   -4.60    3.70
   1   7 -10   -3.50    2.70
   1   7 -10   -2.00    4.00
   1   7 -10    7.50    4.40
  -1  -7  10   -3.50    4.40
  -1  -7  10    1.90    5.40
  -1  -7  10   -4.70    4.20
   0   7 -10   12.70    5.10
   0   7 -10   13.00    3.40
   0   7 -10    6.90    4.60
   0  -7  10   12.20    5.10
   0  -7  10    9.60    5.00
   0  -7  10   13.60    5.80
  -1   7 -10    2.40    4.70
  -1   7 -10   -0.70    4.90
   1  -7  10   -0.60    4.20
   1  -7  10    4.10    4.80
   1  -7  10    2.60    6.00
  -2   7 -10   41.50    6.60
  -2   7 -10   38.10    6.90
   2  -7  10   66.79    8.50
   2  -7  10   60.19    8.40
   2  -7  10   37.90    7.80
   2  -7  10   41.40    6.30
  -3   7 -10   26.40    6.50
  -3   7 -10   13.60    6.40
  -3   7 -10   15.50    7.00
   3  -7  10   21.50    6.00
   3  -7  10   19.60    7.10
   3  -7  10   30.00    8.00
   6   6 -10  126.39    9.60
   6   6 -10  123.49    9.20
   6   6 -10  130.69   17.10
   6   6 -10  122.49   13.80
  -6  -6  10  117.49   14.10
  -6  -6  10  127.09   12.50
  -6  -6  10  115.79   15.90
  -6  -6  10  132.29   10.50
   5   6 -10  161.78   14.10
   5   6 -10  145.09   15.20
   5   6 -10  175.28    9.40
   5   6 -10  164.98   10.40
   5   6 -10  169.08   10.20
  -5  -6  10  170.88   13.50
  -5  -6  10  177.08   12.00
  -5  -6  10  171.78   15.40
  -5  -6  10  175.18   11.00
   4   6 -10  163.38    9.60
   4   6 -10  175.18   13.70
   4   6 -10  158.28   12.90
   4   6 -10  156.18    7.70
   4   6 -10  165.38    9.50
  -4  -6  10  141.49   15.00
  -4  -6  10  170.88   13.60
  -4  -6  10  152.68   10.90
  -4  -6  10  118.39   12.80
  -4  -6  10  164.38   12.60
   3   6 -10   86.79   11.20
   3   6 -10  119.09    8.30
   3   6 -10  112.59   10.80
   3   6 -10  117.99    8.50
   3   6 -10  105.39    6.20
  -3  -6  10  144.09   11.30
  -3  -6  10  132.29    9.50
  -3  -6  10  131.49    9.20
   2   6 -10    5.00    4.50
   2   6 -10    5.70    3.80
   2   6 -10    0.50    2.20
   2   6 -10   -0.10    3.50
   2   6 -10    4.30    5.10
  -2  -6  10   -0.70    4.50
  -2  -6  10    5.00    3.80
  -2  -6  10    0.90    3.60
   1   6 -10   -0.90    3.80
   1   6 -10   -0.90    2.20
   1   6 -10   -5.90    3.60
   1   6 -10   -0.40    3.50
  -1  -6  10   -0.20    3.80
  -1  -6  10    1.10    4.30
  -1  -6  10   -0.90    3.80
   0   6 -10  346.97   14.90
   0   6 -10  366.56   15.30
   0   6 -10  345.67   13.00
   0  -6  10  347.37   15.60
   0  -6  10  364.06   15.30
   0  -6  10  339.27   16.60
   0  -6  10  346.47   15.80
  -1   6 -10  439.26   17.70
  -1   6 -10  413.86   17.00
   1  -6  10  414.36   17.60
   1  -6  10  444.76   18.30
   1  -6  10  427.26   17.30
   1  -6  10  422.06   18.70
  -2   6 -10   24.20    5.70
  -2   6 -10   36.70    5.40
  -2   6 -10   30.60    5.70
   2  -6  10   30.10    6.30
   2  -6  10   28.40    5.80
   2  -6  10   29.00    5.90
   2  -6  10   24.60    6.40
  -3   6 -10   86.09   10.60
  -3   6 -10   83.69    9.60
  -3   6 -10   75.49   10.40
   3  -6  10   84.19   10.70
   3  -6  10  101.69   12.20
   3  -6  10   71.49    9.40
  -4   6 -10    7.90    6.80
  -4   6 -10    8.30    6.20
  -4   6 -10   -7.90    6.70
   4  -6  10    2.80    5.70
   4  -6  10    3.70    6.30
   4  -6  10   14.60    8.10
   6   5 -10  306.37   13.10
   6   5 -10  327.97   18.00
   6   5 -10  302.67   19.80
   6   5 -10  333.37   13.10
  -6  -5  10  317.87   18.80
  -6  -5  10  362.96   19.10
  -6  -5  10  308.67   14.90
  -6  -5  10  326.47   13.80
   5   5 -10   20.90    6.80
   5   5 -10   20.30    4.00
   5   5 -10   21.40    3.60
   5   5 -10   19.70    3.90
   5   5 -10   31.60    8.10
  -5  -5  10   14.80    8.90
  -5  -5  10   27.00    6.90
  -5  -5  10   25.20    5.00
  -5  -5  10   20.90    4.60
   4   5 -10  411.16   15.00
   4   5 -10  389.16   13.40
   4   5 -10  414.16   18.50
   4   5 -10  420.66   19.40
   4   5 -10  386.56   15.10
  -4  -5  10  394.56   15.50
  -4  -5  10  404.06   16.20
  -4  -5  10  400.06   19.70
   3   5 -10  266.37   11.20
   3   5 -10  250.27    9.10
   3   5 -10  257.27   11.40
   3   5 -10  270.67   14.30
   3   5 -10  260.17   14.70
  -3  -5  10  242.88   11.80
  -3  -5  10  253.67   12.00
  -3  -5  10  255.47   13.70
   2   5 -10  290.37   15.00
   2   5 -10  281.97   13.50
   2   5 -10  290.47   12.10
   2   5 -10  283.87   12.40
   2   5 -10  290.77    9.80
  -2  -5  10  287.67   14.40
  -2  -5  10  284.87   12.40
  -2  -5  10  286.17   12.70
   1   5 -10  537.25   19.20
   1   5 -10  536.25   16.70
   1   5 -10  508.35   18.80
   1   5 -10  559.14   19.00
   1   5 -10  507.05   21.10
  -1  -5  10  520.85   19.30
  -1  -5  10  535.25   20.30
  -1  -5  10  563.04   20.30
   0   5 -10  125.59    8.90
   0   5 -10  128.69    8.60
   0  -5  10  116.89    9.30
   0  -5  10  120.79    9.40
   0  -5  10  117.89    8.80
  -1   5 -10    7.60    4.30
  -1   5 -10    1.20    3.70
   1  -5  10    2.80    4.60
   1  -5  10    6.20    4.80
   1  -5  10    5.00    4.30
  -2   5 -10  119.29    8.20
  -2   5 -10  105.09    9.10
  -2   5 -10  106.89    9.40
   2  -5  10  110.69    9.60
   2  -5  10  115.59    9.60
   2  -5  10   93.69   10.10
  -3   5 -10   16.90    4.90
  -3   5 -10    7.60    5.40
  -3   5 -10   19.70    5.10
  -3   5 -10   17.60    4.50
   3  -5  10   14.30    5.30
   3  -5  10    7.90    5.40
   3  -5  10   11.00    6.50
   3  -5  10   12.70    5.10
  -4   5 -10  114.09   11.60
  -4   5 -10  107.59   10.80
  -4   5 -10  113.79    9.30
  -4   5 -10  117.39   11.50
   4  -5  10  120.69   17.40
   4  -5  10  122.39   11.20
   4  -5  10  120.79   10.90
   4  -5  10  125.59   15.00
  -5   5 -10   40.10    7.80
  -5   5 -10   25.70    6.90
  -5   5 -10   35.40    6.20
  -5   5 -10   38.10    8.60
   5  -5  10   47.70    8.00
   5  -5  10   44.30    6.90
   5  -5  10   43.90    9.30
   6   4 -10   42.10    9.50
   6   4 -10   26.30    7.10
  -6  -4  10   51.49    7.40
  -6  -4  10   17.60    4.40
  -6  -4  10   36.30    7.90
   5   4 -10  104.39    7.00
   5   4 -10  118.59   12.10
   5   4 -10  101.69    6.70
   5   4 -10  106.99   13.40
  -5  -4  10  121.39    8.50
  -5  -4  10  122.79    7.80
  -5  -4  10  104.39   12.90
  -5  -4  10  122.19   11.70
   4   4 -10  547.85   22.60
   4   4 -10  578.64   22.40
   4   4 -10  577.24   18.30
   4   4 -10  533.25   18.50
  -4  -4  10  556.64   23.50
  -4  -4  10  551.54   21.90
  -4  -4  10  557.44   19.40
  -4  -4  10  528.45   18.70
   3   4 -10  252.17   13.80
   3   4 -10  254.07   10.40
   3   4 -10  234.18   10.70
   3   4 -10  248.38   13.80
  -3  -4  10  258.37   11.10
  -3  -4  10  227.38   13.30
  -3  -4  10  241.78   11.00
   2   4 -10 1493.95   46.40
   2   4 -10 1493.65   43.40
   2   4 -10 1459.15   45.10
   2   4 -10 1415.76   43.30
  -2  -4  10 1497.15   45.80
  -2  -4  10 1472.95   43.70
  -2  -4  10 1418.96   43.70
   1   4 -10   36.80    5.00
   1   4 -10   41.30    6.60
   1   4 -10   39.80    4.90
   1   4 -10   36.30    4.60
   1   4 -10   39.00    2.80
  -1  -4  10   36.50    5.70
  -1  -4  10   36.10    4.80
  -1  -4  10   30.30    4.60
   0   4 -10  119.49   10.40
   0   4 -10  108.99    8.40
   0   4 -10  132.09    8.10
   0   4 -10  112.19    5.70
   0  -4  10  129.39    9.50
   0  -4  10  111.89    8.80
   0  -4  10  132.49    8.70
  -1   4 -10  572.94   19.90
  -1   4 -10  565.94   18.40
  -1   4 -10  555.34   20.10
   1  -4  10  576.94   21.20
   1  -4  10  564.74   20.10
   1  -4  10  532.55   20.60
  -2   4 -10   44.40    5.80
  -2   4 -10   34.80    5.30
  -2   4 -10   48.40    5.80
  -2   4 -10   42.80    6.50
   2  -4  10   42.80    6.40
   2  -4  10   49.00    6.60
   2  -4  10   41.20    5.60
  -3   4 -10   67.79    7.50
  -3   4 -10   66.99    8.00
  -3   4 -10   80.69    7.50
  -3   4 -10   75.19    9.10
   3  -4  10   90.69   10.10
   3  -4  10   73.29    9.10
   3  -4  10   78.19    8.90
  -4   4 -10  182.58   12.20
  -4   4 -10  187.88   12.10
  -4   4 -10  195.88   11.10
  -4   4 -10  185.18   11.60
   4  -4  10  192.48   12.70
   4  -4  10  203.78   14.00
   4  -4  10  194.18   11.70
   4  -4  10  177.18   12.70
  -5   4 -10  175.28   13.60
  -5   4 -10  175.78   11.90
  -5   4 -10  161.98   15.20
  -5   4 -10  201.88   13.90
   5  -4  10  204.18   23.70
   5  -4  10  198.18   14.50
   5  -4  10  196.08   11.90
   6   3 -10  102.89   12.70
  -6  -3  10   80.49   12.00
  -6  -3  10   71.99    7.40
  -6  -3  10   75.49    7.50
  -6  -3  10   70.59    5.90
   5   3 -10   51.79    8.40
   5   3 -10   35.40    7.30
   5   3 -10   41.50    4.10
  -5  -3  10   33.40    8.60
  -5  -3  10   40.30    5.30
  -5  -3  10   39.50    5.20
  -5  -3  10   35.90    4.30
   4   3 -10  124.49   11.80
   4   3 -10  116.09    6.20
   4   3 -10  120.89    6.70
   4   3 -10  104.79   11.50
  -4  -3  10  124.19   12.30
  -4  -3  10  130.89    7.50
  -4  -3  10  123.19    7.10
  -4  -3  10  123.49   10.80
   3   3 -10   41.20    4.60
   3   3 -10   23.10    6.00
   3   3 -10   30.50    6.30
   3   3 -10   45.30    5.40
  -3  -3  10   25.50    3.80
  -3  -3  10   27.50    5.70
  -3  -3  10   42.60    5.40
   2   3 -10  696.73   22.70
   2   3 -10  733.63   24.90
   2   3 -10  715.43   22.60
   2   3 -10  737.13   25.90
  -2  -3  10  699.03   22.80
  -2  -3  10  703.13   23.10
  -2  -3  10  723.23   25.20
   1   3 -10  213.28    9.30
   1   3 -10  206.78   12.30
   1   3 -10  200.68    9.40
  -1  -3  10  181.78    9.70
  -1  -3  10  206.38   11.20
  -1  -3  10  182.08    9.20
   0   3 -10 2429.16   68.99
   0   3 -10 2515.05   68.99
   0   3 -10 2373.96   70.89
   0   3 -10 2292.07   66.59
   0  -3  10 2384.66   70.49
   0  -3  10 2252.17   69.29
   0  -3  10 2519.45   69.09
  -1   3 -10 1425.96   43.70
  -1   3 -10 1433.16   41.80
  -1   3 -10 1444.26   44.10
  -1   3 -10 1442.56   45.50
  -1   3 -10 1491.75   43.60
   1  -3  10 1485.85   44.50
   1  -3  10 1425.96   44.80
  -2   3 -10   87.09    7.50
  -2   3 -10   77.39    7.40
  -2   3 -10   78.39    6.10
  -2   3 -10   83.49    8.20
   2  -3  10   71.59    7.60
   2  -3  10   75.99    8.60
   2  -3  10   69.19    8.80
  -3   3 -10   93.09    9.00
  -3   3 -10  117.89    7.80
  -3   3 -10   95.29    8.00
  -3   3 -10   95.49    8.40
   3  -3  10  111.29    8.80
   3  -3  10   93.69    9.80
   3  -3  10  103.89    9.50
  -4   3 -10  162.88   11.10
  -4   3 -10  164.58   10.80
  -4   3 -10  155.28   10.00
  -4   3 -10  154.38   10.20
   4  -3  10  143.39   11.70
   4  -3  10  147.89   12.50
   4  -3  10  149.49   10.90
  -5   3 -10   41.70    6.90
  -5   3 -10   45.60    7.00
  -5   3 -10   36.00    6.20
  -5   3 -10   39.10    6.30
   5  -3  10   42.30    5.60
   5  -3  10   38.50    7.60
   5  -3  10   40.60    7.60
   5  -3  10   43.40    8.60
  -6   3 -10  100.89   12.30
  -6   3 -10  108.69   11.80
  -6   3 -10  137.19   12.90
  -6   3 -10  133.69   14.60
   6  -3  10   92.39   12.40
   6   2 -10   -2.60    8.10
  -6  -2  10    2.50    2.10
  -6  -2  10    3.80    3.90
  -6  -2  10    5.90    6.50
  -6  -2  10    2.60    2.30
   5   2 -10    2.20    5.90
   5   2 -10   10.40    1.80
   5   2 -10    6.50    1.40
  -5  -2  10   10.20    5.80
  -5  -2  10    1.60    2.40
  -5  -2  10    9.30    2.90
  -5  -2  10    5.80    3.00
  -5  -2  10    5.70    7.00
   4   2 -10  339.07   11.70
   4   2 -10  369.16   17.20
   4   2 -10  372.36   17.60
   4   2 -10  373.46   15.90
  -4  -2  10  332.87   11.40
  -4  -2  10  360.66   18.20
  -4  -2  10  347.67   12.30
  -4  -2  10  344.17   12.50
  -4  -2  10  366.06   16.70
   3   2 -10  329.97   15.50
   3   2 -10  318.97   15.80
   3   2 -10  330.37   11.10
   3   2 -10  313.17   14.10
   3   2 -10  325.97   11.30
  -3  -2  10  316.57   11.80
  -3  -2  10  308.97   14.60
  -3  -2  10  326.77   11.80
   2   2 -10  401.36   15.80
   2   2 -10  403.16   13.70
   2   2 -10  403.66   13.90
   2   2 -10  409.86   17.40
  -2  -2  10  404.46   14.30
  -2  -2  10  409.16   16.70
  -2  -2  10  403.26   14.10
   1   2 -10  288.97   11.30
   1   2 -10  297.07   12.40
   1   2 -10  274.87   13.90
   1   2 -10  300.07   11.00
  -1  -2  10  269.37   12.90
  -1  -2  10  303.07   12.50
  -1  -2  10  287.27   11.60
  -1  -2  10  286.07   11.20
   0   2 -10  769.32   24.60
   0   2 -10  740.13   23.30
   0   2 -10  733.13   25.60
   0   2 -10  746.63   23.50
   0  -2  10  706.83   23.90
   0  -2  10  748.33   23.40
   0  -2  10  708.93   23.40
   0  -2  10  690.53   24.80
  -1   2 -10   18.50    4.00
  -1   2 -10   21.50    3.60
  -1   2 -10   27.90    4.30
  -1   2 -10   22.80    3.30
  -1   2 -10   25.90    5.30
   1  -2  10   26.30    4.00
   1  -2  10   25.10    4.50
   1  -2  10   18.20    4.70
  -2   2 -10 2674.53   77.79
  -2   2 -10 2752.82   77.79
  -2   2 -10 2718.33   78.29
  -2   2 -10 2661.73   79.19
  -2   2 -10 2603.94   76.39
   2  -2  10 2711.23   79.29
   2  -2  10 2770.52   78.89
   2  -2  10 2730.23   77.69
  -3   2 -10    4.80    3.60
  -3   2 -10    5.10    3.00
  -3   2 -10    3.00    3.90
  -3   2 -10    2.50    3.90
   3  -2  10    1.30    4.50
   3  -2  10    3.70    4.20
   3  -2  10    8.70    5.10
  -4   2 -10   12.50    4.90
  -4   2 -10   13.60    4.40
  -4   2 -10   10.70    4.10
  -4   2 -10    9.50    4.50
   4  -2  10    4.20    4.60
   4  -2  10    9.60    5.90
   4  -2  10    6.50    4.80
  -5   2 -10    3.00    5.00
  -5   2 -10    5.30    5.30
  -5   2 -10   -1.80    4.40
  -5   2 -10   -0.30    4.40
   5  -2  10    1.40    6.20
   5  -2  10   -3.90    5.50
   5  -2  10   -2.20    5.60
  -6   2 -10   97.99   11.80
  -6   2 -10  132.99   12.40
  -6   2 -10   91.39   11.10
  -6   2 -10  103.79   13.00
   6  -2  10  120.19   16.40
   6  -2  10  100.39    8.90
   6   1 -10    1.20    5.40
  -6  -1  10   13.40    6.00
  -6  -1  10   12.30    4.20
  -6  -1  10   -3.30    7.00
   5   1 -10   10.50    6.40
   5   1 -10   16.60    5.10
  -5  -1  10    9.40    5.70
  -5  -1  10   18.30    3.40
  -5  -1  10   13.70    7.90
  -5  -1  10   19.20    2.10
  -5  -1  10   13.70    5.70
  -5  -1  10   17.60    2.10
   4   1 -10  143.69   10.30
   4   1 -10  148.59   12.10
   4   1 -10  151.18    5.00
  -4  -1  10  162.58   11.10
  -4  -1  10  161.88   10.90
  -4  -1  10  135.29   11.60
  -4  -1  10  138.69   12.20
  -4  -1  10  150.08    6.70
  -4  -1  10  144.59    6.80
  -4  -1  10  143.29    6.20
   3   1 -10  494.35   20.50
   3   1 -10  500.05   19.00
   3   1 -10  519.25   15.60
  -3  -1  10  532.15   20.80
  -3  -1  10  522.85   19.80
  -3  -1  10  501.25   16.40
  -3  -1  10  490.85   16.10
   2   1 -10  315.07   13.70
   2   1 -10  325.37   12.40
   2   1 -10  353.56   11.90
   2   1 -10  340.37   15.80
  -2  -1  10  343.77   12.00
  -2  -1  10  339.37   14.80
  -2  -1  10  371.36   15.30
  -2  -1  10  358.36   12.50
   1   1 -10   25.10    4.50
   1   1 -10   22.30    5.00
   1   1 -10   20.70    3.20
   1   1 -10   29.50    4.20
  -1  -1  10   24.50    3.80
  -1  -1  10   23.70    3.20
  -1  -1  10   18.00    4.30
  -1  -1  10   21.70    4.30
   0   1 -10  702.23   22.10
   0   1 -10  710.53   24.90
   0   1 -10  690.13   22.70
   0   1 -10  732.53   23.70
   0   1 -10  698.33   22.30
   0  -1  10  712.23   22.90
   0  -1  10  719.93   22.30
   0  -1  10  676.93   24.10
   0  -1  10  676.03   22.80
  -1   1 -10    6.20    2.90
  -1   1 -10    3.50    2.90
  -1   1 -10    3.40    3.10
  -1   1 -10    3.80    2.50
  -1   1 -10    0.40    4.00
  -1   1 -10    0.80    1.60
   1  -1  10   -1.90    2.20
   1  -1  10   -2.10    3.60
   1  -1  10    1.20    3.30
  -2   1 -10 1570.44   47.20
  -2   1 -10 1535.75   45.20
  -2   1 -10 1533.25   46.50
  -2   1 -10 1521.55   47.90
  -2   1 -10 1649.13   46.70
   2  -1  10 1567.34   51.39
   2  -1  10 1554.84   44.70
   2  -1  10 1540.65   48.10
   2  -1  10 1581.04   47.50
  -3   1 -10   18.60    4.40
  -3   1 -10   14.90    4.00
  -3   1 -10   10.90    4.90
  -3   1 -10   16.80    3.70
  -3   1 -10    6.10    4.10
   3  -1  10   11.50    1.80
   3  -1  10   18.30    4.40
   3  -1  10   16.50    5.20
   3  -1  10    6.30    5.10
  -4   1 -10   14.20    5.10
  -4   1 -10   12.20    4.50
  -4   1 -10    7.50    3.90
  -4   1 -10   10.70    4.20
  -4   1 -10    5.70    4.50
   4  -1  10   13.60    5.40
   4  -1  10   14.90    5.10
   4  -1  10    6.50    5.40
  -5   1 -10    9.10    4.70
  -5   1 -10   13.70    5.20
  -5   1 -10    3.50    6.40
  -5   1 -10    6.60    4.40
  -5   1 -10   12.30    5.00
   5  -1  10   22.40    7.00
   5  -1  10    9.40    6.10
   5  -1  10    9.70    5.50
  -6   1 -10   27.70    6.60
  -6   1 -10   14.40    6.00
  -6   1 -10   21.30    6.20
  -6   1 -10   29.30    7.00
  -6   1 -10   15.30    5.80
   6  -1  10    9.40    4.20
   6  -1  10    6.10    8.00
   6   0 -10    2.80    5.80
  -6   0  10    6.90    5.80
  -6   0  10    6.00    4.50
  -6   0  10    9.10    6.80
  -6   0  10    3.40    7.10
   5   0 -10   30.30    6.10
  -5   0  10   26.50    6.20
  -5   0  10   31.80    6.80
  -5   0  10   25.90    3.90
  -5   0  10   29.20    8.00
  -5   0  10   32.00    8.20
   4   0 -10   70.69    8.50
   4   0 -10   70.39   10.40
  -4   0  10   75.89    9.50
  -4   0  10   74.49   10.90
  -4   0  10   68.39    3.60
  -4   0  10   66.29    8.50
  -4   0  10   74.69   10.60
  -4   0  10   71.79    5.10
  -4   0  10   70.59    3.60
   3   0 -10  337.07   10.50
   3   0 -10  346.87   10.50
   3   0 -10  352.26   16.70
   3   0 -10  333.57   14.70
  -3   0  10  357.06   16.30
  -3   0  10  341.87   11.20
  -3   0  10  324.37   14.80
  -3   0  10  342.87   11.60
  -3   0  10  348.37   15.50
  -3   0  10  384.26   16.90
  -3   0  10  322.97   10.80
   2   0 -10   18.60    2.40
   2   0 -10   15.30    5.80
   2   0 -10   22.70    4.80
   2   0 -10   18.20    2.30
  -2   0  10   13.10    4.50
  -2   0  10   22.10    3.30
  -2   0  10   23.50    5.00
  -2   0  10   22.50    5.00
  -2   0  10   21.30    2.70
   1   0 -10  725.83   24.50
   1   0 -10  739.53   24.60
   1   0 -10  764.92   22.90
   1   0 -10  768.12   22.80
   1   0 -10  727.13   25.90
  -1   0  10  764.92   25.20
  -1   0  10  746.03   22.80
  -1   0  10  744.83   23.50
  -1   0  10  747.73   25.40
   0   0 -10  370.46   13.90
   0   0 -10  374.76   14.30
   0   0 -10  362.46   13.00
   0   0 -10  376.06   13.10
   0   0 -10  371.56   15.60
   0   0  10  366.66   18.70
   0   0  10  375.96   13.00
   0   0  10  344.37   14.70
   0   0  10  366.86   13.80
  -1   0 -10  704.63   22.40
  -1   0 -10  660.23   24.10
  -1   0 -10  702.23   22.40
  -1   0 -10  724.93   23.60
  -1   0 -10  711.93   22.40
  -1   0 -10  706.73   20.60
   1   0  10  695.43   22.20
   1   0  10  671.53   23.20
   1   0  10  705.03   24.40
   1   0  10  703.53   22.40
  -2   0 -10  106.39    7.90
  -2   0 -10   98.99    6.90
  -2   0 -10   90.39    5.70
  -2   0 -10   99.69    8.80
  -2   0 -10   97.09    6.10
  -2   0 -10  107.39    7.40
   2   0  10  102.19    5.70
   2   0  10   89.99    7.80
   2   0  10   95.79    7.00
   2   0  10   90.29    8.80
  -3   0 -10  362.26   14.00
  -3   0 -10  388.46   15.00
  -3   0 -10  391.56   16.10
  -3   0 -10  364.16   15.60
  -3   0 -10  381.96   15.00
   3   0  10  368.16   16.10
   3   0  10  368.16   17.00
   3   0  10  368.76   14.70
  -4   0 -10 1368.36   42.30
  -4   0 -10 1372.16   42.40
  -4   0 -10 1362.06   41.90
  -4   0 -10 1370.76   42.90
  -4   0 -10 1381.36   42.90
   4   0  10 1364.56   42.00
   4   0  10 1323.57   44.10
   4   0  10 1376.96   43.80
  -5   0 -10    7.00    4.50
  -5   0 -10    3.00    4.90
  -5   0 -10    1.20    4.80
  -5   0 -10    4.10    4.80
  -5   0 -10    0.20    4.80
   5   0  10    1.10    3.70
   5   0  10    2.20    6.30
   5   0  10    7.70    5.10
   5   0  10   -0.20    6.30
  -6   0 -10   17.20    6.30
  -6   0 -10    1.50    5.50
  -6   0 -10   15.60    6.10
  -6   0 -10    5.40    5.60
   6   0  10   17.60    7.90
   6   0  10   14.70    7.70
  -7   0 -10   53.19    8.90
  -7   0 -10   43.40    8.00
  -7   0 -10   72.79   10.70
  -7   0 -10   79.09   12.70
  -7   0 -10   57.89    8.70
   7   0  10   70.09   12.50
   7   0  10   44.50    6.50
   7   0  10   49.10    6.80
   7   0  10   48.20   10.70
  -6   1  10   75.69   15.10
  -6   1  10   58.19   10.60
  -6   1  10   74.59   11.40
  -6   1  10   71.89    9.20
  -6   1  10   80.59   10.90
   5  -1 -10   66.59    9.30
  -5   1  10   75.69    9.50
  -5   1  10   60.99    9.00
  -5   1  10   75.39   10.30
  -5   1  10   53.29    8.20
  -5   1  10   77.69    7.20
  -5   1  10   56.39    9.50
   4  -1 -10   34.80    5.70
  -4   1  10   58.29    8.40
  -4   1  10   45.40    7.40
  -4   1  10   54.09    8.10
  -4   1  10   51.29    7.40
  -4   1  10   53.09    7.00
  -4   1  10   52.99    5.10
   3  -1 -10   94.39   10.20
   3  -1 -10   84.59    8.80
  -3   1  10  101.99   10.00
  -3   1  10  104.19    8.90
  -3   1  10  100.89    4.90
  -3   1  10   96.79    4.90
  -3   1  10   98.89   10.00
  -3   1  10  108.89    9.60
   2  -1 -10    3.90    3.90
   2  -1 -10    1.20    1.60
   2  -1 -10   16.60    5.20
   2  -1 -10    0.50    1.70
  -2   1  10    1.30    3.90
  -2   1  10    3.00    4.40
  -2   1  10   -1.60    2.50
  -2   1  10    3.30    2.00
  -2   1  10    3.00    4.30
   1  -1 -10   72.59    6.70
   1  -1 -10   67.89    4.30
   1  -1 -10   66.99    6.10
   1  -1 -10   71.29    8.70
   1  -1 -10   65.49    4.70
  -1   1  10   57.99    9.00
  -1   1  10   60.39    4.50
  -1   1  10   62.29    5.70
  -1   1  10   58.39    7.60
  -1   1  10   59.99    7.30
   0  -1 -10   52.49    4.60
   0  -1 -10   49.99    5.70
   0  -1 -10   45.30    5.50
   0  -1 -10   38.30    5.70
   0   1  10   46.50    5.70
   0   1  10   48.60    4.60
   0   1  10   39.20    5.20
   0   1  10   46.40    5.50
   0   1  10   40.80    5.40
  -1  -1 -10   38.00    4.70
  -1  -1 -10   50.89    7.00
  -1  -1 -10   54.79    5.90
  -1  -1 -10   47.30    5.00
  -1  -1 -10   29.50    4.10
  -1  -1 -10   45.80    3.40
   1   1  10   42.00    6.30
   1   1  10   39.70    5.00
   1   1  10   49.20    3.50
   1   1  10   36.50    4.90
  -2  -1 -10   95.69    8.30
  -2  -1 -10   92.39    6.60
  -2  -1 -10   81.19    6.40
  -2  -1 -10   82.29    5.90
  -2  -1 -10   80.79    5.40
  -2  -1 -10   76.59    7.20
   2   1  10   89.29    5.30
   2   1  10   79.69    7.80
   2   1  10   87.59    6.70
   2   1  10   83.09    8.50
  -3  -1 -10    7.60    3.60
  -3  -1 -10    5.00    3.70
  -3  -1 -10    2.90    3.00
  -3  -1 -10    0.70    3.60
  -3  -1 -10    3.60    2.60
  -3  -1 -10    9.40    4.60
   3   1  10    4.90    2.90
   3   1  10    6.30    4.60
   3   1  10    3.90    3.70
   3   1  10   -3.00    4.50
  -4  -1 -10  533.15   19.70
  -4  -1 -10  501.15   19.10
  -4  -1 -10  515.85   20.10
  -4  -1 -10  543.35   19.80
  -4  -1 -10  519.55   20.30
   4   1  10  539.15   19.00
   4   1  10  559.54   21.50
   4   1  10  508.05   21.80
   4   1  10  543.95   19.50
   4   1  10  508.85   19.10
  -5  -1 -10  111.39   10.10
  -5  -1 -10  107.39    9.80
  -5  -1 -10   91.69    9.40
  -5  -1 -10  119.79    9.70
  -5  -1 -10  100.79    9.90
   5   1  10  119.69   12.60
   5   1  10  110.39    8.60
   5   1  10  101.09    9.90
   5   1  10  105.89   12.50
  -6  -1 -10   22.50    6.10
  -6  -1 -10   41.00    6.90
  -6  -1 -10   43.60    7.70
  -6  -1 -10   40.20    6.60
  -6  -1 -10   37.60    7.30
   6   1  10   47.80   10.10
   6   1  10   32.20    8.30
   6   1  10   33.10    7.20
  -7  -1 -10    3.20    5.90
  -7  -1 -10    4.40    6.80
  -7  -1 -10    3.40    8.50
  -7  -1 -10   -0.50    6.00
   7   1  10   -3.70    9.80
   7   1  10   -2.30    9.10
   7   1  10   -0.40    3.70
   7   1  10    5.60    3.70
   6  -2 -10   28.80    7.30
  -6   2  10   26.60    7.10
  -6   2  10   20.80   10.40
  -6   2  10   22.90    6.40
  -6   2  10   28.40    5.60
  -6   2  10   38.30   11.00
   5  -2 -10   11.60    5.80
  -5   2  10   -6.10    7.50
  -5   2  10   -1.70    6.70
  -5   2  10   -2.40    5.00
  -5   2  10   -0.10    5.50
  -5   2  10   -1.00    3.80
  -5   2  10    6.50    7.40
   4  -2 -10   44.20    6.30
  -4   2  10   46.30    7.40
  -4   2  10   38.40    7.80
  -4   2  10   38.60    6.50
  -4   2  10   38.50    5.80
  -4   2  10   34.30    6.70
  -4   2  10   37.30    5.50
   3  -2 -10   -0.70    4.40
  -3   2  10   -5.30    5.20
  -3   2  10   -4.60    4.60
  -3   2  10    1.00    1.20
  -3   2  10   -1.70    3.70
  -3   2  10   -0.50    2.30
  -3   2  10   -1.50    4.40
  -3   2  10    2.50    5.00
   2  -2 -10  425.66   13.70
   2  -2 -10  456.65   19.10
   2  -2 -10  420.76   17.00
  -2   2  10  445.46   13.90
  -2   2  10  466.65   17.60
  -2   2  10  432.36   13.80
  -2   2  10  449.16   14.60
  -2   2  10  469.95   18.80
  -2   2  10  437.96   18.10
  -2   2  10  459.95   18.20
   1  -2 -10   43.50    4.00
   1  -2 -10   45.30    5.70
   1  -2 -10   38.30    3.60
   1  -2 -10   38.60    5.20
   1  -2 -10   38.80    6.20
  -1   2  10   35.00    4.00
  -1   2  10   40.30    6.30
  -1   2  10   29.00    4.00
  -1   2  10   38.90    6.20
  -1   2  10   38.70    5.40
  -1   2  10   44.70    3.00
  -1   2  10   30.40    4.90
   0  -2 -10   46.50    4.40
   0  -2 -10   46.60    5.90
   0  -2 -10   42.10    6.00
   0  -2 -10   39.50    5.40
   0   2  10   41.70    5.60
   0   2  10   36.60    5.20
   0   2  10   43.60    6.70
   0   2  10   44.70    6.80
   0   2  10   49.90    3.30
   0   2  10   40.60    4.60
  -1  -2 -10   -1.90    2.70
  -1  -2 -10    0.80    3.90
  -1  -2 -10    2.00    2.60
  -1  -2 -10    2.20    2.90
  -1  -2 -10   -1.20    2.20
   1   2  10    1.20    2.60
   1   2  10   -6.10    3.10
   1   2  10   -1.10    3.50
   1   2  10   -1.90    3.20
   1   2  10   -1.70    3.50
   1   2  10    1.10    1.90
  -2  -2 -10  154.28    8.00
  -2  -2 -10  159.88   10.00
  -2  -2 -10  177.98    8.70
  -2  -2 -10  161.78    9.60
  -2  -2 -10  162.88    8.60
  -2  -2 -10  156.68    7.50
   2   2  10  161.48    7.50
   2   2  10  160.68   10.20
   2   2  10  172.58    9.90
   2   2  10  173.88    8.50
   2   2  10  165.58    9.80
  -3  -2 -10   51.09    7.30
  -3  -2 -10   39.80    5.00
  -3  -2 -10   46.00    5.20
  -3  -2 -10   40.50    4.90
  -3  -2 -10   48.20    7.40
  -3  -2 -10   38.90    5.60
   3   2  10   51.79    6.60
   3   2  10   40.80    5.70
   3   2  10   30.50    5.90
   3   2  10   34.90    5.20
   3   2  10   52.19    6.30
  -4  -2 -10   -3.30    3.70
  -4  -2 -10    1.30    4.10
  -4  -2 -10   -0.40    3.80
  -4  -2 -10   -1.10    2.40
  -4  -2 -10   -1.60    3.50
   4   2  10   -2.00    4.00
   4   2  10   -0.40    3.50
   4   2  10   -2.60    5.30
   4   2  10    1.40    5.20
   4   2  10    0.60    3.70
  -5  -2 -10  210.08   12.20
  -5  -2 -10  208.28   13.30
  -5  -2 -10  206.48   12.50
  -5  -2 -10  217.58   11.90
  -5  -2 -10  225.58   12.30
   5   2  10  217.28   11.50
   5   2  10  215.78   12.50
   5   2  10  197.08   14.20
   5   2  10  223.08   12.10
   5   2  10  199.58   15.10
  -6  -2 -10  191.58   13.70
  -6  -2 -10  187.68   12.30
  -6  -2 -10  190.18   11.60
  -6  -2 -10  175.88   14.00
  -6  -2 -10  187.38   13.10
   6   2  10  194.98   15.10
   6   2  10  177.28   10.70
   6   2  10  209.78   13.90
   6   2  10  196.68   16.50
   6   2  10  191.68   13.50
  -7  -2 -10   20.60    7.00
  -7  -2 -10   21.00    9.20
  -7  -2 -10   20.30    5.50
  -7  -2 -10   17.60    6.90
   7   2  10   18.60    4.60
   7   2  10   18.20   10.00
   7   2  10   15.10   10.30
   5  -3 -10   -0.90    4.70
  -5   3  10   -1.70    6.00
  -5   3  10   -0.40    7.40
  -5   3  10   -6.00    5.00
  -5   3  10   -0.80    4.00
  -5   3  10    0.40    8.50
   4  -3 -10   62.79    8.30
  -4   3  10   45.70    8.40
  -4   3  10   44.80    6.80
  -4   3  10   64.89    9.30
  -4   3  10   44.80    7.60
  -4   3  10   67.59    6.90
  -4   3  10   53.99    8.40
   3  -3 -10   40.10    6.30
  -3   3  10   55.79    7.70
  -3   3  10   64.89   10.00
  -3   3  10   62.59    9.50
  -3   3  10   73.19    9.30
  -3   3  10   62.59    5.80
  -3   3  10   59.69    7.30
   2  -3 -10    1.20    1.20
   2  -3 -10    0.40    3.80
   2  -3 -10    3.80    1.40
  -2   3  10   -4.60    4.20
  -2   3  10    6.00    3.80
  -2   3  10    3.80    5.10
  -2   3  10   -5.70    2.30
  -2   3  10    1.10    1.90
  -2   3  10    9.80    5.10
   1  -3 -10  413.46   16.50
   1  -3 -10  418.66   13.60
   1  -3 -10  421.86   18.20
   1  -3 -10  421.86   15.90
  -1   3  10  442.76   18.00
  -1   3  10  421.56   17.20
  -1   3  10  408.36   13.80
  -1   3  10  412.46   14.80
  -1   3  10  415.06   18.00
  -1   3  10  421.36   13.60
  -1   3  10  419.86   16.80
   0  -3 -10   62.99    5.10
   0  -3 -10   67.79    5.10
   0  -3 -10   71.79    8.60
   0  -3 -10   66.99    6.40
   0  -3 -10   69.39    6.90
   0   3  10   72.89    4.50
   0   3  10   58.89    7.60
   0   3  10   75.29    8.50
   0   3  10   62.29    5.30
   0   3  10   49.40    6.60
   0   3  10   56.49    8.30
  -1  -3 -10  380.56   13.40
  -1  -3 -10  365.06   15.90
  -1  -3 -10  377.26   14.90
  -1  -3 -10  362.36   14.20
  -1  -3 -10  372.36   13.70
   1   3  10  366.06   15.70
   1   3  10  356.16   13.30
   1   3  10  371.96   14.70
   1   3  10  362.16   15.60
   1   3  10  366.16   12.60
   1   3  10  370.26   15.10
  -2  -3 -10   97.99    6.80
  -2  -3 -10  109.39    7.40
  -2  -3 -10  108.59    6.40
  -2  -3 -10  115.49    8.10
  -2  -3 -10   88.99    6.70
  -2  -3 -10   94.79    8.60
   2   3  10   94.39    8.60
   2   3  10   95.39    9.00
   2   3  10  103.09    6.30
   2   3  10   93.09    8.50
   2   3  10   93.89    7.10
  -3  -3 -10 1191.38   38.70
  -3  -3 -10 1205.08   37.40
  -3  -3 -10 1202.58   36.70
  -3  -3 -10 1267.87   38.50
  -3  -3 -10 1243.48   37.90
  -3  -3 -10 1181.78   38.90
   3   3  10 1289.87   38.00
   3   3  10 1215.78   39.20
   3   3  10 1241.78   40.40
   3   3  10 1244.58   37.50
   3   3  10 1273.67   39.10
  -4  -3 -10   81.59    8.30
  -4  -3 -10   53.69    5.20
  -4  -3 -10   72.09    7.70
  -4  -3 -10   54.29    7.60
  -4  -3 -10   55.39    7.40
   4   3  10   74.49    7.50
  -5  -3 -10   -2.30    4.60
  -5  -3 -10    2.80    2.70
  -5  -3 -10    0.00    4.20
  -5  -3 -10   -1.00    4.40
  -5  -3 -10    5.50    4.30
  -5  -3 -10    5.50    5.00
   5   3  10   -7.60    6.00
   5   3  10   -3.50    6.00
   5   3  10   -2.90    5.30
   5   3  10   -4.20    4.80
   5   3  10   -1.60    4.10
  -6  -3 -10    3.60    5.40
  -6  -3 -10   -0.30    4.40
  -6  -3 -10   13.90    5.90
  -6  -3 -10    2.70    6.00
  -6  -3 -10    6.50    7.00
   6   3  10  -10.50    6.10
   6   3  10   -2.10    4.50
   6   3  10    8.80    6.60
   6   3  10    2.30    7.60
   6   3  10    9.30    8.80
  -7  -3 -10   18.10    8.80
  -7  -3 -10   10.20    5.20
  -7  -3 -10   18.50    6.60
  -7  -3 -10   12.30    7.60
   7   3  10   13.90    9.90
   7   3  10   15.40    5.10
   7   3  10    8.80    9.10
   5  -4 -10   -1.10    7.60
  -5   4  10   -3.90    4.70
  -5   4  10   -1.50    7.30
  -5   4  10    1.90    5.00
  -5   4  10   -5.60    6.40
   4  -4 -10    5.70    5.70
  -4   4  10    4.40    4.10
  -4   4  10    3.00    6.10
  -4   4  10   -1.90    5.40
  -4   4  10   -9.50    6.70
  -4   4  10   -0.10    4.30
  -4   4  10   -5.20    7.30
   3  -4 -10    0.90    4.50
  -3   4  10   -4.20    5.30
  -3   4  10   -5.10    4.40
  -3   4  10   -2.10    3.90
  -3   4  10   -6.30    6.20
  -3   4  10    2.70    5.20
   2  -4 -10    2.30    4.40
   2  -4 -10    7.50    2.10
   2  -4 -10    8.40    1.30
  -2   4  10    1.20    3.90
  -2   4  10   13.60    6.00
  -2   4  10    9.90    5.40
  -2   4  10    9.20    2.10
  -2   4  10    6.70    2.60
  -2   4  10    2.60    5.00
  -2   4  10    3.10    4.80
   1  -4 -10   60.29    5.20
   1  -4 -10   59.49    4.40
   1  -4 -10   68.49    6.80
   1  -4 -10   64.89    7.90
  -1   4  10   80.69    8.20
  -1   4  10   60.49    5.00
  -1   4  10   90.69    9.00
  -1   4  10   73.99    5.50
  -1   4  10   78.99    9.20
  -1   4  10   67.09    6.50
   0  -4 -10   36.30    6.50
   0  -4 -10   25.20    3.90
   0  -4 -10   22.20    4.90
   0  -4 -10   38.20    5.10
   0   4  10   11.00    5.50
   0   4  10   37.40    4.50
   0   4  10   24.00    3.80
   0   4  10   16.40    4.40
   0   4  10   32.50    5.90
   0   4  10   34.90    6.40
  -1  -4 -10  252.67   11.70
  -1  -4 -10  226.98   11.10
  -1  -4 -10  232.18   12.80
  -1  -4 -10  231.98    9.80
  -1  -4 -10  236.08   10.40
   1   4  10  236.38   12.70
   1   4  10  224.48   10.10
   1   4  10  230.48   12.30
   1   4  10  216.08   11.40
   1   4  10  237.18    9.60
   1   4  10  228.78   12.90
  -2  -4 -10    2.30    3.20
  -2  -4 -10    3.20    3.80
  -2  -4 -10    8.80    4.60
  -2  -4 -10   -2.10    3.20
  -2  -4 -10    2.20    3.30
   2   4  10    0.80    3.00
   2   4  10   -6.10    3.90
   2   4  10    2.40    4.30
   2   4  10   -2.60    4.20
   2   4  10   -6.20    3.30
   2   4  10    0.10    4.30
  -3  -4 -10   82.49    7.50
  -3  -4 -10   83.59    8.80
  -3  -4 -10   91.59    7.90
  -3  -4 -10   87.49    7.30
  -3  -4 -10   89.79    6.80
  -3  -4 -10  103.69    8.90
   3   4  10   81.89    9.20
   3   4  10   70.89    7.60
   3   4  10   68.39    9.50
   3   4  10  100.59   10.50
  -4  -4 -10   61.39    8.30
  -4  -4 -10   58.79    7.60
  -4  -4 -10   61.49    5.90
  -4  -4 -10   72.29    8.80
  -4  -4 -10   62.59    7.80
  -4  -4 -10   62.09    8.10
   4   4  10   65.09    8.60
   4   4  10   64.49    9.00
   4   4  10   73.49   10.20
   4   4  10   52.69    8.00
   4   4  10   64.79    7.80
  -5  -4 -10    4.10    4.80
  -5  -4 -10    2.40    4.90
  -5  -4 -10    5.00    2.90
  -5  -4 -10    9.00    5.60
  -5  -4 -10    2.30    4.40
  -5  -4 -10    8.70    4.50
   5   4  10    0.80    4.40
   5   4  10    3.10    5.30
   5   4  10    9.50    5.20
   5   4  10   -4.00    6.10
  -6  -4 -10   49.50    6.10
  -6  -4 -10   40.70    6.80
  -6  -4 -10   62.99    9.10
  -6  -4 -10   56.09    7.90
   6   4  10   41.20    9.30
   6   4  10   45.90    6.30
   6   4  10   38.40    8.10
   6   4  10   58.29    8.80
   6   4  10   42.60   11.90
  -7  -4 -10   75.19    9.90
  -7  -4 -10   66.59    8.60
  -7  -4 -10   67.89    8.30
   7   4  10   67.19   12.10
   7   4  10   74.39   11.60
   7   4  10   76.59   10.10
   5  -5 -10   -5.20    5.70
  -5   5  10   10.30    8.00
  -5   5  10   10.40    5.20
  -5   5  10    9.70    5.80
   4  -5 -10   40.20    8.10
  -4   5  10   39.90    7.30
  -4   5  10   34.10    7.80
  -4   5  10   41.70    9.90
  -4   5  10   25.60    5.50
   3  -5 -10   38.00    7.00
  -3   5  10   57.09    9.40
  -3   5  10   56.49    7.00
  -3   5  10   49.40    6.30
  -3   5  10   54.99    8.60
  -3   5  10   35.80    7.20
   2  -5 -10  343.37   16.10
   2  -5 -10  350.46   10.80
   2  -5 -10  340.07   10.60
  -2   5  10  334.07   16.60
  -2   5  10  360.36   18.00
  -2   5  10  370.06   17.60
  -2   5  10  345.17   11.50
  -2   5  10  355.36   14.70
  -2   5  10  356.16   12.00
  -2   5  10  348.17   15.00
   1  -5 -10  115.59    5.80
   1  -5 -10  131.59    8.40
   1  -5 -10  130.59    6.40
   1  -5 -10  122.89   10.00
  -1   5  10  141.89   11.80
  -1   5  10  119.89    7.70
  -1   5  10  126.69    9.50
  -1   5  10  123.19   10.90
  -1   5  10  124.59    6.60
  -1   5  10  138.59    7.80
   0  -5 -10   68.69    5.60
   0  -5 -10   63.29    7.90
   0  -5 -10   67.69    6.90
   0  -5 -10   66.59    5.90
   0   5  10   70.59    8.50
   0   5  10   83.89    6.40
   0   5  10   68.29    6.20
   0   5  10   59.59    7.20
   0   5  10   68.59   10.20
   0   5  10   89.59    9.80
  -1  -5 -10   -4.90    3.00
  -1  -5 -10   -2.50    3.60
  -1  -5 -10   -1.60    3.80
   1   5  10    3.20    5.20
   1   5  10   -0.60    4.60
   1   5  10   -1.10    4.50
   1   5  10    3.50    3.00
   1   5  10   -1.30    3.10
   1   5  10    2.60    4.40
  -2  -5 -10   -3.40    3.90
  -2  -5 -10    3.40    3.80
  -2  -5 -10   -2.00    3.50
  -2  -5 -10   -0.80    3.50
   2   5  10   -1.20    4.40
   2   5  10   -3.20    4.90
   2   5  10  -10.20    4.20
   2   5  10   -3.40    3.50
   2   5  10   -5.10    3.60
  -3  -5 -10  376.56   16.10
  -3  -5 -10  360.26   16.20
  -3  -5 -10  388.66   16.40
  -3  -5 -10  367.66   15.30
  -3  -5 -10  395.76   15.20
  -3  -5 -10  368.96   14.70
   3   5  10  391.36   18.40
   3   5  10  372.56   17.30
   3   5  10  404.86   17.60
   3   5  10  390.26   15.40
   3   5  10  378.46   15.90
   3   5  10  373.06   15.40
  -4  -5 -10   84.39   10.10
  -4  -5 -10   80.69    8.20
  -4  -5 -10   87.49    9.50
  -4  -5 -10   88.39    8.50
  -4  -5 -10   83.69    8.30
  -4  -5 -10   84.19    7.00
   4   5  10   82.69   10.40
   4   5  10   77.39    8.70
   4   5  10   83.09    9.80
   4   5  10   85.49    9.00
   4   5  10   75.89    8.90
  -5  -5 -10  341.37   16.60
  -5  -5 -10  338.97   13.10
  -5  -5 -10  350.16   15.60
  -5  -5 -10  365.86   17.40
  -5  -5 -10  344.77   16.20
  -5  -5 -10  319.47   14.70
   5   5  10  344.17   16.40
   5   5  10  325.17   18.10
   5   5  10  325.97   15.70
   5   5  10  372.76   18.10
   5   5  10  343.37   16.60
  -6  -5 -10    5.30    3.30
  -6  -5 -10    5.50    4.20
  -6  -5 -10    8.40    5.90
  -6  -5 -10    9.40    7.10
  -6  -5 -10   -1.90    4.90
   6   5  10    1.20    7.10
   6   5  10   12.40    7.30
   6   5  10   12.50    8.10
   6   5  10    4.90    5.70
   6   5  10    3.70    7.90
  -7  -5 -10   82.59   13.20
  -7  -5 -10   49.99    8.10
   7   5  10   58.19   11.80
   7   5  10   71.39    7.90
   7   5  10   68.09   11.30
   4  -6 -10   28.10    6.80
  -4   6  10   50.39    7.60
  -4   6  10   61.69    8.70
  -4   6  10   37.90    8.10
   3  -6 -10   -2.50    5.10
  -3   6  10    1.10    1.40
  -3   6  10   -1.90    1.50
  -3   6  10    3.90    4.50
  -3   6  10   -0.60    7.30
  -3   6  10   -2.70    6.70
  -3   6  10   -1.50    8.00
   2  -6 -10    8.20    1.80
   2  -6 -10    7.90    3.10
   2  -6 -10    3.60    5.10
  -2   6  10    9.80    4.70
  -2   6  10   12.80    7.10
  -2   6  10   17.70    5.90
  -2   6  10    9.90    2.70
  -2   6  10   17.20    4.20
  -2   6  10   10.30    2.60
  -2   6  10    4.00    6.50
   1  -6 -10  377.26   14.70
   1  -6 -10  363.66   12.90
   1  -6 -10  368.96   16.60
   1  -6 -10  338.57   12.20
  -1   6  10  363.76   15.80
  -1   6  10  394.86   18.50
  -1   6  10  371.76   18.20
  -1   6  10  352.06   12.90
  -1   6  10  359.26   14.50
  -1   6  10  351.76   13.70
  -1   6  10  374.26   14.70
   0  -6 -10  257.97   11.20
   0  -6 -10  271.77   10.50
   0  -6 -10  258.27   13.80
   0  -6 -10  267.77   12.20
   0   6  10  270.27   11.10
   0   6  10  286.37   15.20
   0   6  10  269.57   12.30
   0   6  10  290.27   14.80
   0   6  10  246.58   13.40
  -1  -6 -10  338.77   13.50
  -1  -6 -10  343.77   15.70
  -1  -6 -10  376.86   15.50
  -1  -6 -10  356.56   14.40
   1   6  10  364.36   16.50
   1   6  10  343.47   14.00
   1   6  10  361.36   17.90
   1   6  10  357.06   15.60
   1   6  10  371.86   14.90
   1   6  10  357.66   16.70
  -2  -6 -10   91.79    8.40
  -2  -6 -10   75.99    8.50
  -2  -6 -10   74.69    7.40
  -2  -6 -10   78.19    7.80
   2   6  10   59.19    7.30
   2   6  10   75.79   10.80
   2   6  10   71.19    9.60
   2   6  10   81.99    7.90
   2   6  10   77.59    7.70
   2   6  10   91.29   10.40
  -3  -6 -10   81.49    8.90
  -3  -6 -10   75.39    9.30
  -3  -6 -10   75.69    7.90
   3   6  10   69.79    9.30
   3   6  10   69.99    9.10
   3   6  10   83.69   10.40
   3   6  10   77.19   10.40
   3   6  10   88.29    8.80
   3   6  10   71.99    8.60
  -4  -6 -10   72.09    9.90
  -4  -6 -10   80.69    9.30
  -4  -6 -10   56.39    7.10
  -4  -6 -10   71.69    8.80
   4   6  10   64.69    7.30
   4   6  10   52.49    7.50
   4   6  10   69.39    9.50
   4   6  10   64.79    8.50
  -5  -6 -10  113.89   13.30
  -5  -6 -10  161.88   13.50
  -5  -6 -10  170.48   12.10
  -5  -6 -10  143.79    8.80
   5   6  10  166.18   13.20
   5   6  10  176.68   12.80
   5   6  10  122.19   11.50
   5   6  10  150.48   13.90
   5   6  10  162.68   12.80
  -6  -6 -10   89.29   11.50
  -6  -6 -10   61.59    7.10
  -6  -6 -10   79.99   15.60
   6   6  10   56.09    9.90
   6   6  10   64.79   10.60
   6   6  10   49.30   10.00
   6   6  10   61.69   10.20
   6   6  10   55.09    8.00
   3  -7 -10    5.30    6.20
  -3   7  10   -1.80    2.00
  -3   7  10   -1.80    2.00
  -3   7  10    3.00    4.70
  -3   7  10   -9.40    6.60
  -3   7  10    2.20    4.70
   2  -7 -10   28.40    6.70
   2  -7 -10   34.10    3.70
   2  -7 -10   28.60    4.10
  -2   7  10   34.10    3.70
  -2   7  10   43.40    5.30
  -2   7  10   30.50    8.20
  -2   7  10   34.80    3.80
  -2   7  10   33.90    9.60
  -2   7  10   38.00    5.90
   1  -7 -10   -3.00    5.00
   1  -7 -10   -6.10    3.20
   1  -7 -10    2.30    2.90
   1  -7 -10   -1.90    2.30
  -1   7  10    0.40    8.40
  -1   7  10   -4.00    4.60
  -1   7  10   -4.20    3.30
  -1   7  10   -1.10    3.00
  -1   7  10    2.20    3.40
  -1   7  10    4.80    4.40
  -1   7  10    2.00    6.30
   0  -7 -10   27.20    5.80
   0  -7 -10   47.50    5.20
   0  -7 -10   46.60    6.60
   0  -7 -10   46.70    7.10
   0   7  10   51.59    6.30
   0   7  10   31.40    6.10
   0   7  10   38.00    5.30
   0   7  10   73.89   11.00
   0   7  10   59.59    7.80
   0   7  10   41.30    8.40
  -1  -7 -10   32.40    5.50
  -1  -7 -10   55.69    6.20
  -1  -7 -10   52.79    7.50
  -1  -7 -10   37.40    6.50
   1   7  10   42.70    6.80
   1   7  10   30.30    5.80
   1   7  10   49.99    8.20
   1   7  10   35.30    7.30
   1   7  10   59.99    7.10
  -2  -7 -10  232.08   13.00
  -2  -7 -10  239.48   12.60
  -2  -7 -10  241.88   11.50
  -2  -7 -10  238.78   13.10
   2   7  10  229.48   13.60
   2   7  10  262.87   15.20
   2   7  10  236.98   12.40
   2   7  10  222.38   12.30
   2   7  10  226.28   13.70
   2   7  10  233.08   15.30
  -3  -7 -10    1.60    4.50
  -3  -7 -10    2.20    5.00
  -3  -7 -10   -0.30    4.60
  -3  -7 -10    3.70    4.30
   3   7  10   -5.20    4.50
   3   7  10    1.10    5.80
   3   7  10   -0.40    6.10
   3   7  10    6.80    5.10
   3   7  10   -4.70    5.10
  -4  -7 -10  132.19   12.60
  -4  -7 -10  124.09    9.80
  -4  -7 -10  135.19   12.40
  -4  -7 -10  143.69   10.90
   4   7  10  133.39   10.40
   4   7  10  141.69   13.40
   4   7  10  136.69   11.40
   4   7  10  124.89   13.70
   4   7  10  125.99   11.50
   4   7  10  131.39   11.90
  -5  -7 -10    8.60    6.70
  -5  -7 -10    0.40    5.60
  -5  -7 -10    2.90    6.50
  -5  -7 -10    3.40    6.70
  -5  -7 -10    8.40    4.40
   5   7  10    9.50    6.90
   5   7  10   13.30    7.20
   5   7  10   -4.80    7.40
   5   7  10    2.70    6.40
   5   7  10    0.60    7.10
  -6  -7 -10    6.90    6.40
  -6  -7 -10    4.20    4.30
  -6  -7 -10    4.50    6.50
   6   7  10   -1.40    8.40
   6   7  10   10.30    9.30
   6   7  10   -4.50    6.60
   3  -8 -10   39.50    7.50
  -3   8  10   58.89    8.60
  -3   8  10   53.49    9.70
  -3   8  10   52.59    5.50
  -3   8  10   54.69    5.20
  -3   8  10   61.09    7.10
   2  -8 -10   52.29    4.70
   2  -8 -10   54.49    5.40
   2  -8 -10   42.60    8.20
  -2   8  10   49.20    6.10
  -2   8  10   50.59    6.20
  -2   8  10   42.50    4.40
  -2   8  10   50.19    6.50
  -2   8  10   56.99    9.50
   1  -8 -10   23.80    4.00
   1  -8 -10   30.20   10.30
   1  -8 -10   27.70    4.50
   1  -8 -10   31.50    4.70
  -1   8  10   26.70    6.50
  -1   8  10   32.10    4.50
  -1   8  10   32.60    4.80
  -1   8  10   24.60    6.00
  -1   8  10   27.90    3.70
  -1   8  10   31.30    8.30
  -1   8  10   47.90    9.20
   0  -8 -10   -1.60    5.50
   0  -8 -10    5.90    4.40
   0  -8 -10    7.20    4.00
   0  -8 -10    6.00    3.40
   0   8  10    7.80    3.00
   0   8  10    3.60    4.10
   0   8  10   -0.30    5.40
   0   8  10    8.20    4.70
   0   8  10    9.30    5.40
   0   8  10    9.30    7.30
   0   8  10    1.40    7.20
  -1  -8 -10  251.97   13.00
  -1  -8 -10  261.87   11.60
  -1  -8 -10  232.18   14.00
  -1  -8 -10  254.37   13.40
   1   8  10  277.67   17.00
   1   8  10  278.37   18.80
   1   8  10  268.47   12.50
   1   8  10  251.37   13.70
   1   8  10  233.38   15.60
  -2  -8 -10   25.50    5.80
  -2  -8 -10   15.10    5.40
  -2  -8 -10   13.30    4.60
  -2  -8 -10   11.10    5.10
   2   8  10   14.20    5.40
   2   8  10   15.10    5.30
   2   8  10    8.40    4.10
   2   8  10   14.90    6.60
   2   8  10    9.80    6.20
   2   8  10   21.50    8.30
  -3  -8 -10  261.77   13.10
  -3  -8 -10  269.07   14.90
  -3  -8 -10  235.38   13.90
  -3  -8 -10  249.28   15.20
   3   8  10  273.47   14.00
   3   8  10  251.07   23.10
   3   8  10  240.08   14.30
   3   8  10  251.57   15.70
   3   8  10  251.07   14.70
   3   8  10  242.48   12.60
  -4  -8 -10  133.39   11.10
  -4  -8 -10  168.28   13.70
  -4  -8 -10   94.19   10.40
  -4  -8 -10  146.39   13.30
   4   8  10  120.99   11.30
   4   8  10  143.69   14.60
   4   8  10  105.09   13.00
   4   8  10  109.79   11.90
  -5  -8 -10   43.30    6.50
  -5  -8 -10   29.20    7.50
  -5  -8 -10   53.99    8.80
   5   8  10   50.39   10.00
   5   8  10   36.10    9.70
   5   8  10   30.50    7.60
   5   8  10   25.30    8.50
   5   8  10   46.00   13.20
  -6  -8 -10  166.78   14.60
  -6  -8 -10  166.98   10.90
  -6  -8 -10  163.38   15.10
   6   8  10  157.18   18.30
   6   8  10  219.88   19.60
   6   8  10  160.08   18.80
   2  -9 -10   26.90    3.70
   2  -9 -10   20.40    6.90
   2  -9 -10   25.70    4.40
  -2   9  10   24.60    4.40
  -2   9  10   28.00    4.50
  -2   9  10   45.80   10.70
  -2   9  10   34.30    9.90
   1  -9 -10  118.79    9.60
   1  -9 -10  114.09    8.70
   1  -9 -10  124.29   12.70
  -1   9  10  101.89    8.90
  -1   9  10  132.69   14.60
  -1   9  10  123.29   13.30
  -1   9  10  105.19    9.00
   0  -9 -10  156.98   11.30
   0  -9 -10  125.89    9.70
   0  -9 -10  123.99   13.00
   0   9  10  151.68   10.70
   0   9  10  158.58   14.80
   0   9  10  128.09   14.30
  -1  -9 -10   -0.20    5.60
  -1  -9 -10   -5.70    6.70
  -1  -9 -10    2.90    5.30
  -1  -9 -10   -1.50    3.70
   1   9  10    2.20    2.20
   1   9  10   -6.80    5.80
   1   9  10    1.80    5.10
   1   9  10    2.10    8.00
   1   9  10    1.40    5.50
   1   9  10   -3.90    7.00
  -2  -9 -10   25.40    6.10
  -2  -9 -10   31.90    6.80
  -2  -9 -10   27.20    5.50
  -2  -9 -10   21.90    7.20
   2   9  10   19.40    8.10
   2   9  10    7.40    7.20
   2   9  10   32.50    7.00
   2   9  10   13.70    5.80
   2   9  10   28.70    4.30
   2   9  10   13.90    6.80
  -3  -9 -10    0.30    6.60
  -3  -9 -10   -1.30    4.40
  -3  -9 -10    6.10    5.90
   3   9  10   -4.60    6.50
   3   9  10    1.30    4.30
   3   9  10    5.50    6.20
   3   9  10   -6.80    7.00
   3   9  10   -0.60    6.50
   3   9  10   -0.70    7.80
  -4  -9 -10   75.29   10.20
  -4  -9 -10   61.99    7.70
  -4  -9 -10   65.79   10.50
   4   9  10   56.09    9.80
   4   9  10   70.79    8.40
   4   9  10   74.79   10.30
   4   9  10   71.69   10.00
   4   9  10   71.19    8.80
   4   9  10   82.49   10.80
  -5  -9 -10  101.39   12.00
  -5  -9 -10  123.99   10.80
   5   9  10  123.19   16.60
   5   9  10  112.39   11.10
   5   9  10  116.19   13.00
   5   9  10  131.99   15.80
   5   9  10  134.49   17.30
   0 -10 -10    2.40    4.20
   0 -10 -10    5.20    6.90
   0 -10 -10   12.20    5.10
   0  10  10   10.80    5.40
   0  10  10    9.90    9.30
   0  10  10   10.80    9.70
   0  10  10   22.80    7.10
  -1 -10 -10   -9.40    6.50
  -1 -10 -10   -1.50    6.10
  -1 -10 -10    5.30    4.70
   1  10  10    4.20    6.20
   1  10  10  -16.50    8.30
   1  10  10    4.50    6.00
   1  10  10    3.00    8.40
  -2 -10 -10   -0.60    4.70
  -2 -10 -10   -3.10    6.60
  -2 -10 -10   -5.30    6.70
   2  10  10   13.80    8.20
   2  10  10   20.20    9.70
   2  10  10    6.20    6.60
   2  10  10    4.50    6.80
   2  10  10  -11.50    8.20
  -3 -10 -10   28.20    8.70
  -3 -10 -10    1.00    7.40
  -3 -10 -10   18.50    6.00
   3  10  10   31.90    9.60
   3  10  10   12.30    7.50
   3  10  10    3.40    7.40
   3  10  10   29.50    8.80
   3  10  10   16.60    4.20
   4  10  10   64.89    9.20
   4  10  10   49.50    7.00
   4  10  10   55.89   10.50
   4  10  10   42.90   10.40
   4  10  10   63.89   10.30
   2   9 -11  117.79   12.50
   2   9 -11   93.59    9.60
  -2  -9  11  149.99   15.70
  -2  -9  11  117.49   12.40
  -2  -9  11  125.79   13.00
   1   9 -11  139.19   12.80
   1   9 -11  132.09   10.20
   1   9 -11  127.19   10.90
  -1  -9  11  123.69   12.80
  -1  -9  11  155.98   14.50
  -1  -9  11  125.59   12.80
   0   9 -11   87.39    9.70
   0   9 -11   92.19    7.80
   0   9 -11  103.49   12.20
   0  -9  11   79.29   11.50
   0  -9  11   83.99   10.00
   4   8 -11   22.40    7.80
   4   8 -11    5.50    5.20
   4   8 -11    4.80    4.00
   4   8 -11    4.40    7.70
  -4  -8  11   -1.80    7.20
  -4  -8  11    2.50    5.80
  -4  -8  11   10.60    7.60
   3   8 -11   62.39    7.20
   3   8 -11   57.49    7.40
   3   8 -11   46.60    9.30
   3   8 -11   38.40    7.60
  -3  -8  11   51.79    7.10
  -3  -8  11   69.79    9.00
  -3  -8  11   62.09    8.80
   2   8 -11   94.69   12.80
   2   8 -11  108.69   11.00
   2   8 -11   90.09    7.70
   2   8 -11  102.59   10.40
  -2  -8  11   93.29   11.90
  -2  -8  11   76.79   11.20
  -2  -8  11   99.79   10.40
   1   8 -11   24.10    5.30
   1   8 -11   20.00    6.40
   1   8 -11   20.30    5.60
  -1  -8  11   24.50    6.90
  -1  -8  11   22.70    6.50
  -1  -8  11   22.40    6.00
   0   8 -11    8.40    4.30
   0   8 -11    3.60    5.70
   0   8 -11    2.80    3.50
   0  -8  11    2.30    5.70
   0  -8  11    4.40    6.30
  -1   8 -11   -1.70    5.90
   1  -8  11    5.70    6.50
   1  -8  11    1.50    5.70
  -2   8 -11   21.00    7.00
   2  -8  11    9.70    7.80
   2  -8  11   23.70    6.90
   5   7 -11   80.89    7.60
   5   7 -11   82.59    9.50
   5   7 -11   70.89   10.80
  -5  -7  11   94.29   13.30
   4   7 -11  175.48   15.00
   4   7 -11  164.98    8.60
   4   7 -11  169.98   11.20
  -4  -7  11  170.58   14.60
  -4  -7  11  172.98   13.60
  -4  -7  11  168.78   11.70
   3   7 -11   17.70    6.10
   3   7 -11   18.70    6.80
   3   7 -11   19.00    3.50
   3   7 -11   14.50    4.90
  -3  -7  11   27.30    6.30
  -3  -7  11   24.80    5.80
  -3  -7  11   26.00    7.40
  -3  -7  11   11.70   13.20
   2   7 -11   32.00    4.00
   2   7 -11   23.60    5.70
   2   7 -11   27.20   12.00
   2   7 -11   26.40    5.40
   2   7 -11   23.40    6.20
  -2  -7  11   34.20    6.40
  -2  -7  11   15.80    6.00
  -2  -7  11   16.10    7.30
  -2  -7  11   21.40    5.50
   1   7 -11   31.40    6.00
   1   7 -11   38.40    5.50
   1   7 -11   33.40    5.90
  -1  -7  11   25.90    6.10
  -1  -7  11   27.50    7.80
  -1  -7  11   25.10    5.70
  -1  -7  11   28.00    8.00
   0   7 -11  265.67   11.20
   0   7 -11  282.77   14.30
   0   7 -11  261.87   14.00
   0  -7  11  245.78   16.10
   0  -7  11  268.97   14.50
   0  -7  11  253.57   14.40
   0  -7  11  280.77   14.70
  -1   7 -11   25.30    6.40
   1  -7  11   27.10    6.90
   1  -7  11   23.50    6.40
   1  -7  11   28.10    7.60
   1  -7  11   17.80    6.20
  -2   7 -11  120.89    9.90
  -2   7 -11  102.69   11.70
   2  -7  11  122.99   12.90
   2  -7  11  106.69   11.40
   2  -7  11   92.99   14.10
  -3   7 -11   45.10    7.80
  -3   7 -11   66.99    8.80
   3  -7  11   66.59   10.70
   3  -7  11   53.19    7.90
   3  -7  11   44.20    9.10
   5   6 -11   24.10    8.70
   5   6 -11   27.10    5.00
   5   6 -11   22.10    5.30
   5   6 -11   23.60    3.80
   5   6 -11   31.60    8.00
  -5  -6  11   21.40    7.70
  -5  -6  11   16.90   11.40
  -5  -6  11   28.70    6.40
  -5  -6  11   24.40    5.20
   4   6 -11   70.39    5.20
   4   6 -11   72.29    8.50
   4   6 -11   79.59   11.50
   4   6 -11   73.39    9.40
   4   6 -11   81.19    8.10
  -4  -6  11   70.69    9.30
  -4  -6  11   79.69    8.60
  -4  -6  11   76.89    9.80
  -4  -6  11   43.40   11.30
   3   6 -11    2.70    2.10
   3   6 -11    1.80    3.80
   3   6 -11    2.80    6.40
   3   6 -11    1.50    4.10
  -3  -6  11    5.60    4.00
  -3  -6  11    3.00    5.20
  -3  -6  11    1.50    5.00
   2   6 -11  131.09    9.20
   2   6 -11  132.39    6.20
   2   6 -11  143.99   12.40
   2   6 -11  126.99   10.30
   2   6 -11  111.79    9.40
  -2  -6  11  148.69    9.70
  -2  -6  11  106.19   11.20
  -2  -6  11  145.29   12.40
   1   6 -11   77.89   10.80
   1   6 -11   75.19    8.70
   1   6 -11   67.99    5.10
   1   6 -11   83.99    8.20
   1   6 -11   81.79    8.00
  -1  -6  11   90.99   10.00
  -1  -6  11   74.19    8.50
   0   6 -11   69.19    8.50
   0   6 -11   82.59    8.60
   0  -6  11   45.70    6.60
   0  -6  11   65.59    8.70
  -1   6 -11   31.60    5.70
  -1   6 -11   31.00    4.50
  -1   6 -11   30.60    5.90
   1  -6  11   26.80    6.20
   1  -6  11   33.50    6.20
   1  -6  11   35.10    8.40
   1  -6  11   24.50    6.40
  -2   6 -11    6.80    4.20
  -2   6 -11   21.30    5.90
   2  -6  11    6.00    6.20
   2  -6  11    0.60    5.40
   2  -6  11    7.60    5.60
   2  -6  11    4.40    5.90
  -3   6 -11    0.40    4.80
  -3   6 -11   -4.80    6.20
  -3   6 -11    0.10    5.80
   3  -6  11    0.50    6.30
   3  -6  11    0.70    5.60
   3  -6  11   -4.00    6.60
  -4   6 -11   19.80    6.90
  -4   6 -11   30.10    7.40
   4  -6  11   33.60    9.30
   4  -6  11   26.50    7.30
   4  -6  11   18.60    7.70
   5   5 -11    9.70    7.80
   5   5 -11    8.60    6.70
   5   5 -11    4.60    4.10
   5   5 -11    8.90    4.00
  -5  -5  11   16.20    5.00
  -5  -5  11   14.10    6.90
  -5  -5  11   18.00    4.40
   4   5 -11  271.67   18.80
   4   5 -11  279.17   12.50
   4   5 -11  277.97   12.10
   4   5 -11  312.07   16.60
  -4  -5  11  288.47   13.60
  -4  -5  11  294.87   19.30
  -4  -5  11  276.07   16.30
   3   5 -11    1.80    1.40
   3   5 -11    0.50    5.00
   3   5 -11    8.40    5.80
   3   5 -11    2.60    3.40
   3   5 -11    0.40    3.50
  -3  -5  11    2.40    3.70
   2   5 -11   -3.90    3.40
   2   5 -11    0.30    5.80
   2   5 -11    7.00    3.70
   2   5 -11    3.60    1.40
   2   5 -11    6.70    4.70
  -2  -5  11    3.10    3.70
  -2  -5  11    7.40    5.10
  -2  -5  11    7.50    3.90
   1   5 -11  263.67   14.50
   1   5 -11  252.67   11.90
   1   5 -11  242.08    8.70
   1   5 -11  231.68   12.00
   1   5 -11  262.87   11.70
  -1  -5  11  259.07   12.10
  -1  -5  11  241.88   13.30
  -1  -5  11  239.98   12.40
   0   5 -11   75.19    8.10
   0   5 -11   85.09    7.90
   0   5 -11   77.59   10.40
   0   5 -11   81.39    5.30
   0  -5  11   79.89    9.00
   0  -5  11   76.39    9.20
   0  -5  11   78.39    8.00
  -1   5 -11   21.30    5.10
  -1   5 -11   25.90    3.80
  -1   5 -11   18.10    4.70
   1  -5  11   15.30    5.50
   1  -5  11   20.80    5.40
   1  -5  11   18.30    5.10
  -2   5 -11  143.49   10.90
  -2   5 -11  136.19   10.30
  -2   5 -11  144.99    8.70
   2  -5  11  125.39   10.60
   2  -5  11  123.49   11.80
   2  -5  11  120.39   10.80
  -3   5 -11   34.10    6.60
  -3   5 -11   48.20    6.30
  -3   5 -11   49.40    7.50
   3  -5  11   44.80    7.00
   3  -5  11   48.30    7.60
   3  -5  11   54.69    9.00
   3  -5  11   39.30    6.90
  -4   5 -11  285.37   15.70
  -4   5 -11  268.17   14.10
  -4   5 -11  263.97   14.60
  -4   5 -11  274.37   15.90
   4  -5  11  274.57   17.60
   4  -5  11  240.98   15.10
   4  -5  11  257.27   16.10
   6   4 -11    2.00    2.80
   6   4 -11    3.80    7.50
   6   4 -11    6.90    3.20
   6   4 -11   -0.70    8.80
  -6  -4  11   -1.20    6.80
  -6  -4  11    7.20    4.10
   5   4 -11  126.09    7.50
   5   4 -11  118.49   14.40
   5   4 -11  129.29   13.70
   5   4 -11  135.69    7.70
  -5  -4  11  150.28   13.60
  -5  -4  11  121.69    8.30
  -5  -4  11  145.79    9.40
   4   4 -11  437.46   20.30
   4   4 -11  420.66   20.00
   4   4 -11  401.86   15.20
   4   4 -11  417.26   14.90
  -4  -4  11  426.16   21.60
  -4  -4  11  441.36   19.70
  -4  -4  11  431.56   15.90
  -4  -4  11  421.66   16.20
   3   4 -11   93.39    6.80
   3   4 -11   95.39   10.80
   3   4 -11   87.69   10.40
   3   4 -11   93.39    7.40
  -3  -4  11   93.99    7.50
  -3  -4  11   92.49   10.50
  -3  -4  11   94.29    7.50
   2   4 -11  607.84   22.40
   2   4 -11  640.04   24.30
   2   4 -11  616.34   20.50
   2   4 -11  601.24   20.60
  -2  -4  11  605.94   20.90
  -2  -4  11  595.04   23.20
  -2  -4  11  591.84   21.10
   1   4 -11  479.05   20.60
   1   4 -11  497.85   17.60
   1   4 -11  498.75   17.90
  -1  -4  11  487.75   19.50
  -1  -4  11  481.35   17.80
  -1  -4  11  479.45   18.30
   0   4 -11   17.60    4.60
   0   4 -11   12.40    5.70
   0   4 -11   15.80    2.30
   0   4 -11   14.50    4.00
   0  -4  11   23.20    5.60
   0  -4  11   28.50    4.80
  -1   4 -11   -1.50    3.90
  -1   4 -11   -1.50    2.30
  -1   4 -11   -1.50    3.80
   1  -4  11   -1.50    4.20
   1  -4  11    6.40    4.30
   1  -4  11    5.80    5.20
  -2   4 -11   -3.10    4.10
  -2   4 -11   -7.60    4.10
  -2   4 -11    0.30    2.90
  -2   4 -11   -1.70    3.50
   2  -4  11   -4.10    4.00
   2  -4  11   -1.70    5.00
   2  -4  11   -5.20    4.30
  -3   4 -11   62.89    7.30
  -3   4 -11   57.19    7.20
  -3   4 -11   58.79    7.30
  -3   4 -11   55.99    7.80
   3  -4  11   54.59    7.10
   3  -4  11   65.69    9.00
   3  -4  11   64.39    8.10
  -4   4 -11    1.40    5.40
  -4   4 -11    6.50    4.80
  -4   4 -11    6.00    5.00
  -4   4 -11    5.50    5.90
   4  -4  11   -3.10    6.20
   4  -4  11   19.80    8.40
   4  -4  11    8.90    5.30
   4  -4  11   11.80    6.20
  -5   4 -11   16.50    7.10
  -5   4 -11   18.90    6.00
  -5   4 -11    4.70    8.50
  -5   4 -11   15.30    6.40
   5  -4  11   18.10    8.30
   5  -4  11    6.30    5.90
   5  -4  11   15.40    8.60
   6   3 -11   50.89   10.50
   6   3 -11   50.99    9.00
  -6  -3  11   33.00    3.90
  -6  -3  11   42.30    8.40
  -6  -3  11   31.30    5.10
   5   3 -11   24.60    8.10
   5   3 -11   41.40    8.30
   5   3 -11   31.60    4.20
  -5  -3  11   32.40    6.90
  -5  -3  11   25.00    3.90
  -5  -3  11   44.60    6.10
  -5  -3  11   41.90   11.30
   4   3 -11   19.10    3.00
   4   3 -11   11.80    6.40
   4   3 -11   17.70    6.70
   4   3 -11   15.00    3.10
  -4  -3  11   14.00    9.30
  -4  -3  11   12.80    3.40
  -4  -3  11   11.50    3.40
  -4  -3  11   15.40    7.40
   3   3 -11   31.60    6.60
   3   3 -11   32.80    4.10
   3   3 -11   38.30    6.70
   3   3 -11   41.80    4.90
  -3  -3  11   41.30    5.90
  -3  -3  11   32.40    6.20
  -3  -3  11   30.30    4.00
   2   3 -11  727.03   23.00
   2   3 -11  722.53   23.10
   2   3 -11  692.23   26.30
  -2  -3  11  724.23   23.30
  -2  -3  11  716.73   23.60
  -2  -3  11  725.03   26.00
   1   3 -11  181.28    9.40
   1   3 -11  177.78    8.90
   1   3 -11  166.78   11.90
  -1  -3  11  166.28   11.80
  -1  -3  11  169.38    9.20
  -1  -3  11  177.98    9.90
   0   3 -11  690.83   22.10
   0   3 -11  683.33   22.30
   0   3 -11  638.84   18.70
   0   3 -11  654.53   24.70
   0   3 -11  655.83   18.70
   0  -3  11  624.54   22.70
   0  -3  11  625.64   23.70
   0  -3  11  653.73   22.00
  -1   3 -11  965.20   31.80
  -1   3 -11  959.00   31.00
  -1   3 -11  947.91   28.90
  -1   3 -11  985.50   31.60
  -1   3 -11  981.70   33.40
   1  -3  11  996.50   33.10
   1  -3  11 1014.50   31.50
   1  -3  11  989.20   32.30
  -2   3 -11  666.63   23.50
  -2   3 -11  667.63   23.20
  -2   3 -11  655.53   21.60
  -2   3 -11  667.23   23.60
  -2   3 -11  643.24   25.10
   2  -3  11  668.63   24.60
   2  -3  11  711.93   23.70
   2  -3  11  691.53   25.00
  -3   3 -11   -5.90    4.60
  -3   3 -11   -5.00    4.30
  -3   3 -11    2.70    3.90
  -3   3 -11    5.70    3.60
   3  -3  11    1.40    5.00
   3  -3  11   -3.00    4.70
   3  -3  11   -4.40    5.50
  -4   3 -11   30.50    5.30
  -4   3 -11   40.50    6.70
  -4   3 -11   34.90    9.90
  -4   3 -11   23.50    5.00
   4  -3  11   22.30    6.60
   4  -3  11   33.90    6.40
   4  -3  11   24.80    7.30
  -5   3 -11   43.00    7.50
  -5   3 -11   34.80    7.00
  -5   3 -11   48.60    6.80
  -5   3 -11   33.70    7.90
   5  -3  11   47.30    9.10
   5  -3  11   64.49   10.20
   5  -3  11   27.00    5.90
  -6  -2  11   11.00    2.40
  -6  -2  11   12.10    4.00
  -6  -2  11    8.30    7.10
  -6  -2  11    7.60    2.30
   5   2 -11   13.50    5.70
   5   2 -11   -1.70    6.40
  -5  -2  11    0.20    2.60
  -5  -2  11    8.80    8.40
  -5  -2  11    3.50    5.40
  -5  -2  11   -2.00    3.20
  -5  -2  11   -0.50    2.70
   4   2 -11  142.39   12.60
   4   2 -11  123.39    5.80
   4   2 -11  130.29   10.20
   4   2 -11  133.99    5.90
  -4  -2  11  136.59   13.30
  -4  -2  11  145.59   11.30
  -4  -2  11  119.29    7.10
  -4  -2  11  132.09    7.10
   3   2 -11    0.40    4.40
   3   2 -11    1.50    2.50
   3   2 -11    5.40    5.60
   3   2 -11    4.80    2.20
  -3  -2  11    6.50    3.00
  -3  -2  11    2.00    2.50
  -3  -2  11    5.30    4.80
   2   2 -11  152.48   11.40
   2   2 -11  175.78    8.10
   2   2 -11  165.38    7.70
   2   2 -11  163.68   10.00
  -2  -2  11  161.78    8.60
  -2  -2  11  169.78    8.20
  -2  -2  11  167.58   11.10
   1   2 -11  600.34   23.40
   1   2 -11  612.14   21.50
   1   2 -11  631.24   20.20
   1   2 -11  631.24   20.40
  -1  -2  11  636.04   21.90
  -1  -2  11  612.54   21.00
  -1  -2  11  618.64   20.40
  -1  -2  11  597.04   22.90
   0   2 -11 1299.87   40.10
   0   2 -11 1285.97   38.30
   0   2 -11 1231.88   36.90
   0   2 -11 1270.67   36.80
   0  -2  11 1151.08   37.40
   0  -2  11 1196.38   37.40
   0  -2  11 1093.99   40.50
   0  -2  11 1156.28   38.60
  -1   2 -11  616.44   21.10
  -1   2 -11  623.24   23.50
  -1   2 -11  623.54   21.60
  -1   2 -11  601.84   18.80
  -1   2 -11  630.14   22.40
   1  -2  11  623.84   22.50
   1  -2  11  628.44   23.50
   1  -2  11  659.23   21.70
  -2   2 -11    4.10    2.80
  -2   2 -11    1.80    4.10
  -2   2 -11    2.90    4.00
  -2   2 -11    7.60    3.70
  -2   2 -11    7.70    5.50
   2  -2  11    9.30    4.80
   2  -2  11   11.90    5.10
   2  -2  11    6.10    4.10
  -3   2 -11   29.60    5.40
  -3   2 -11   37.10    5.70
  -3   2 -11   26.00    5.80
  -3   2 -11   25.00    4.90
  -3   2 -11   29.10    5.10
   3  -2  11   28.20    6.40
   3  -2  11   26.60    5.50
   3  -2  11   30.50    6.40
  -4   2 -11  339.57   16.80
  -4   2 -11  353.36   15.50
  -4   2 -11  332.47   14.70
  -4   2 -11  353.26   15.80
  -4   2 -11  323.87   15.80
   4  -2  11  340.57   17.50
   4  -2  11  325.77   17.00
   4  -2  11  326.97   15.40
  -5   2 -11    1.10    5.80
  -5   2 -11    3.40    4.70
  -5   2 -11    7.80    5.40
  -5   2 -11    4.20    6.00
   5  -2  11    4.60    7.10
   5  -2  11    0.90    6.30
  -6   2 -11  125.79   13.70
  -6   2 -11  143.89   13.80
  -6   2 -11  155.48   18.50
  -6   2 -11  137.69   13.30
   6  -2  11   99.29   15.80
   6  -2  11  157.08   16.80
   6  -2  11  135.69   10.50
   6   1 -11    7.40    6.00
  -6  -1  11    6.00    4.20
  -6  -1  11   24.10    7.30
   5   1 -11   95.09   12.50
   5   1 -11  104.29   10.60
  -5  -1  11  100.39    4.70
  -5  -1  11  104.79   12.70
  -5  -1  11   97.79    4.50
  -5  -1  11   98.99    6.20
   4   1 -11  291.87   14.30
   4   1 -11  301.97   16.40
   4   1 -11  291.17    9.00
  -4  -1  11  303.37   15.50
  -4  -1  11  295.27   10.80
  -4  -1  11  295.77   10.80
  -4  -1  11  310.87   17.20
   3   1 -11  600.94   22.10
   3   1 -11  574.14   23.50
   3   1 -11  583.14   18.50
  -3  -1  11  599.14   22.80
  -3  -1  11  584.64   18.70
  -3  -1  11  611.94   19.30
  -3  -1  11  628.94   23.70
   2   1 -11   -6.70    3.30
   2   1 -11   -2.10    2.00
  -2  -1  11   -1.90    2.30
  -2  -1  11   -1.70    2.60
  -2  -1  11   -2.80    3.80
   1   1 -11    4.60    2.50
   1   1 -11   -4.10    3.80
   1   1 -11    5.20    2.60
   1   1 -11   -9.00    4.40
  -1  -1  11    5.80    2.60
  -1  -1  11    5.30    4.30
  -1  -1  11   10.60    3.40
   0   1 -11  527.75   18.00
   0   1 -11  551.84   18.00
   0   1 -11  558.34   19.60
   0   1 -11  540.45   21.10
   0   1 -11  510.25   18.60
   0  -1  11  530.75   18.00
   0  -1  11  498.45   18.70
   0  -1  11  515.25   20.40
   0  -1  11  536.55   18.80
  -1   1 -11  483.05   18.50
  -1   1 -11  508.15   17.30
  -1   1 -11  490.85   17.10
  -1   1 -11  484.25   17.40
  -1   1 -11  470.15   14.80
  -1   1 -11  472.25   19.90
   1  -1  11  489.05   18.40
   1  -1  11  495.05   19.70
   1  -1  11  462.85   16.60
   1  -1  11  496.65   17.30
  -2   1 -11  573.14   22.80
  -2   1 -11  602.64   21.70
  -2   1 -11  561.54   19.00
  -2   1 -11  594.44   20.80
  -2   1 -11  596.24   20.60
   2  -1  11  617.24   22.30
   2  -1  11  631.64   20.90
   2  -1  11  588.24   22.90
   2  -1  11  591.34   18.90
  -3   1 -11  235.38   10.60
  -3   1 -11  241.78   12.60
  -3   1 -11  228.48   11.70
  -3   1 -11  250.87   12.30
  -3   1 -11  238.88   13.70
   3  -1  11  213.78    8.20
   3  -1  11  235.98   13.90
   3  -1  11  253.17   12.10
   3  -1  11  227.58   13.40
  -4   1 -11 1377.76   42.80
  -4   1 -11 1285.77   41.40
  -4   1 -11 1359.36   42.50
  -4   1 -11 1369.26   42.40
  -4   1 -11 1294.37   43.00
   4  -1  11 1362.36   44.00
   4  -1  11 1291.07   44.10
   4  -1  11 1430.16   42.50
  -5   1 -11   50.99    7.30
  -5   1 -11   47.00    7.00
  -5   1 -11   57.39    7.40
  -5   1 -11   57.89    8.80
  -5   1 -11   65.19    9.40
   5  -1  11   53.59    7.60
   5  -1  11   68.79    9.40
   5  -1  11   56.89    8.90
  -6   1 -11  127.49   12.70
  -6   1 -11  144.99   13.20
  -6   1 -11  132.79   13.60
  -6   1 -11  120.69   13.40
  -6   1 -11  142.99   12.60
   6  -1  11   93.99    9.80
   6  -1  11   95.09   11.70
   6  -1  11  101.29   15.70
   6   0 -11    9.50    6.00
  -6   0  11    7.70    6.70
  -6   0  11   18.40    4.80
  -6   0  11    6.00    8.40
  -6   0  11   17.40    6.70
   5   0 -11   27.10    6.60
  -5   0  11   26.80    3.70
  -5   0  11   16.90    7.10
  -5   0  11   21.60    6.30
  -5   0  11   21.10    9.40
  -5   0  11   12.10    8.60
  -5   0  11   41.90    7.00
   4   0 -11    4.80    4.40
   4   0 -11   10.50    6.10
  -4   0  11   17.20    6.60
  -4   0  11    4.60    5.00
  -4   0  11    5.50    1.80
  -4   0  11   10.60    6.70
  -4   0  11    9.70    2.30
  -4   0  11    6.50    1.90
  -4   0  11   14.40    5.80
   3   0 -11  438.46   13.30
   3   0 -11  428.46   17.90
   3   0 -11  453.25   20.00
   3   0 -11  423.26   13.20
  -3   0  11  452.35   14.70
  -3   0  11  418.46   14.00
  -3   0  11  441.56   18.70
  -3   0  11  458.55   19.30
  -3   0  11  448.86   18.50
   2   0 -11   57.19    7.60
   2   0 -11   63.69    7.30
   2   0 -11   70.49    4.70
   2   0 -11   55.79    6.50
  -2   0  11   66.59    8.60
  -2   0  11   69.89    8.70
  -2   0  11   57.29    4.80
  -2   0  11   56.79    8.40
  -2   0  11   66.69    5.90
   1   0 -11   -2.20    2.40
   1   0 -11   -2.70    2.20
   1   0 -11   -7.90    4.50
   1   0 -11   -2.30    3.10
  -1   0  11   -4.40    2.30
  -1   0  11   -0.90    4.10
  -1   0  11    5.80    3.80
  -1   0  11   -3.20    3.00
   0   0 -11    4.10    2.80
   0   0 -11    7.10    3.50
   0   0 -11    1.60    2.30
   0   0 -11    0.80    3.50
   0   0 -11    0.70    4.90
   0   0  11    3.20    4.30
   0   0  11    5.30    3.40
   0   0  11    5.00    2.80
   0   0  11    2.70    3.30
  -1   0 -11  787.52   25.40
  -1   0 -11  828.12   25.40
  -1   0 -11  826.62   25.50
  -1   0 -11  748.13   27.50
  -1   0 -11  793.22   26.60
  -1   0 -11  797.72   23.20
   1   0  11  785.22   26.50
   1   0  11  768.42   25.30
   1   0  11  817.62   27.80
  -2   0 -11  334.07   12.40
  -2   0 -11  368.46   13.20
  -2   0 -11  346.07   15.00
  -2   0 -11  357.56   14.30
  -2   0 -11  354.16   14.00
  -2   0 -11  347.67   16.10
   2   0  11  351.66   16.40
   2   0  11  348.97   15.30
   2   0  11  347.67   12.80
  -3   0 -11   19.20    4.50
  -3   0 -11   21.30    4.00
  -3   0 -11   18.10    5.70
  -3   0 -11   28.00    5.10
  -3   0 -11   21.90    5.40
   3   0  11   30.90    5.30
   3   0  11   18.00    5.70
   3   0  11   17.80    3.00
   3   0  11    9.00    5.60
  -4   0 -11   43.60    6.40
  -4   0 -11   41.50    6.80
  -4   0 -11   41.50    6.10
  -4   0 -11   48.00    7.50
  -4   0 -11   39.30    6.10
   4   0  11   39.00    6.30
   4   0  11   32.30    7.00
   4   0  11   43.00    7.40
  -5   0 -11   12.30    5.10
  -5   0 -11    7.00    5.50
  -5   0 -11   13.90    5.80
  -5   0 -11   18.70    5.80
   5   0  11   11.90    7.30
   5   0  11    4.30    7.30
   5   0  11    3.10    5.80
   5   0  11    8.90    4.40
  -6   0 -11  553.14   22.40
  -6   0 -11  531.25   23.40
  -6   0 -11  539.45   23.00
  -6   0 -11  543.45   22.50
  -6   0 -11  516.85   23.20
   6   0  11  552.94   25.70
   6   0  11  587.04   25.50
   6   0  11  514.85   20.10
   6  -1 -11   21.90    6.60
  -6   1  11   14.80    7.00
  -6   1  11   16.40    5.00
  -6   1  11   20.90    9.90
  -6   1  11    6.20    7.30
   5  -1 -11   -3.00    5.00
  -5   1  11   -6.50    5.70
  -5   1  11    5.80    3.40
  -5   1  11    5.10    8.30
  -5   1  11   -0.70    7.20
  -5   1  11    7.30    5.70
   4  -1 -11   -2.10    4.60
  -4   1  11   -4.60    5.00
  -4   1  11   -3.80    6.00
  -4   1  11    1.10    5.80
  -4   1  11    1.00    2.60
  -4   1  11    5.70    5.00
   3  -1 -11   83.69   11.30
   3  -1 -11   68.29    8.70
  -3   1  11   77.79    5.10
  -3   1  11   78.09   10.20
  -3   1  11   81.59    4.60
  -3   1  11   86.99   10.70
  -3   1  11   78.19    9.50
  -3   1  11   98.99    9.60
   2  -1 -11   19.00    6.00
   2  -1 -11   11.10    2.10
   2  -1 -11    9.20    4.60
  -2   1  11    6.90    4.80
  -2   1  11    5.00    4.20
  -2   1  11    6.70    3.00
  -2   1  11   14.60    5.10
  -2   1  11    7.30    2.30
   1  -1 -11 1670.83   49.10
   1  -1 -11 1632.44   49.00
   1  -1 -11 1541.75   50.29
   1  -1 -11 1642.54   46.50
  -1   1  11 1667.03   47.70
  -1   1  11 1611.14   49.80
  -1   1  11 1625.04   49.60
  -1   1  11 1599.94   46.60
  -1   1  11 1594.94   49.60
   0  -1 -11   -7.20    4.50
   0  -1 -11    5.20    3.60
   0  -1 -11   -4.70    3.30
   0  -1 -11   -4.60    2.00
   0  -1 -11    0.30    2.50
   0   1  11   -4.10    3.70
   0   1  11   -1.10    3.20
   0   1  11    1.60    3.90
   0   1  11   -3.70    2.60
  -1  -1 -11  164.98    8.50
  -1  -1 -11  145.29    8.80
  -1  -1 -11  154.08    8.30
  -1  -1 -11  147.99   11.10
  -1  -1 -11  200.18   10.20
   1   1  11  183.18    9.00
   1   1  11  171.88    8.70
   1   1  11  215.18   11.70
  -2  -1 -11  247.28   11.10
  -2  -1 -11  241.78   12.10
  -2  -1 -11  255.87   11.20
  -2  -1 -11  244.98   10.50
  -2  -1 -11  232.68    9.60
  -2  -1 -11  239.08   13.10
   2   1  11  246.28   13.50
   2   1  11  228.88   12.20
   2   1  11  251.37   11.20
  -3  -1 -11   53.49    6.10
  -3  -1 -11   79.69    8.00
  -3  -1 -11   68.09    5.70
  -3  -1 -11   59.39    6.90
  -3  -1 -11   68.69    7.40
  -3  -1 -11   61.19    7.40
   3   1  11   56.89    8.00
   3   1  11   66.99    8.80
   3   1  11   83.29    7.60
  -4  -1 -11  127.59   10.10
  -4  -1 -11  127.29    9.40
  -4  -1 -11  152.48   10.10
  -4  -1 -11  138.19   10.80
  -4  -1 -11  134.39   10.90
   4   1  11  172.18   10.40
   4   1  11  147.29    9.90
   4   1  11  121.59   12.80
   4   1  11  151.48   12.40
  -5  -1 -11    7.50    5.50
  -5  -1 -11   10.20    5.50
  -5  -1 -11    6.20    5.30
  -5  -1 -11    8.30    5.40
  -5  -1 -11    8.80    5.00
   5   1  11    3.70    5.60
   5   1  11    7.00    7.20
   5   1  11   10.50    7.20
   5   1  11   10.80    4.40
  -6  -1 -11  557.14   23.40
  -6  -1 -11  567.94   23.80
  -6  -1 -11  533.75   22.20
  -6  -1 -11  528.65   22.20
   6   1  11  587.94   25.20
   6   1  11  549.54   20.60
  -5   2  11   26.20    9.40
  -5   2  11   28.80    9.80
  -5   2  11   34.50    4.90
  -5   2  11   27.50    6.90
  -5   2  11   38.40    7.80
   4  -2 -11   62.39    9.50
  -4   2  11   75.79   10.30
  -4   2  11   78.19   10.80
  -4   2  11   76.19    9.50
  -4   2  11   63.59    6.10
  -4   2  11   71.39    9.50
  -4   2  11   83.09    9.80
   3  -2 -11  100.19   11.60
   3  -2 -11   95.09    9.40
  -3   2  11  129.99    4.90
  -3   2  11  118.09   11.80
  -3   2  11  145.19   12.20
  -3   2  11  145.79   11.00
  -3   2  11  106.99    5.90
  -3   2  11   96.39    4.40
  -3   2  11  116.89    9.80
   2  -2 -11   39.20    3.20
   2  -2 -11   39.50    7.10
   2  -2 -11   34.50    5.80
  -2   2  11   43.10    3.80
  -2   2  11   37.10    3.50
  -2   2  11   47.70    6.40
  -2   2  11   37.40    3.20
  -2   2  11   41.80    5.10
  -2   2  11   45.80    7.30
  -2   2  11   39.00    6.30
  -2   2  11   42.70    6.70
   1  -2 -11  515.45   20.10
   1  -2 -11  556.64   17.60
   1  -2 -11  541.15   21.80
   1  -2 -11  567.14   17.60
   1  -2 -11  549.15   20.00
  -1   2  11  585.74   21.80
  -1   2  11  569.14   21.20
  -1   2  11  550.64   16.20
  -1   2  11  548.05   17.70
  -1   2  11  560.24   21.90
  -1   2  11  573.84   21.20
  -1   2  11  560.14   18.80
   0  -2 -11  196.98   11.90
   0  -2 -11  219.08   10.70
   0  -2 -11  220.68    8.80
   0  -2 -11  190.68    8.70
   0  -2 -11  206.78   10.40
   0   2  11  215.38    7.10
   0   2  11  199.18    9.00
   0   2  11  187.28   11.40
   0   2  11  195.28   10.60
   0   2  11  212.88   12.00
   0   2  11  186.18   11.80
   0   2  11  179.18   10.10
  -1  -2 -11  384.86   13.70
  -1  -2 -11  351.26   14.10
  -1  -2 -11  369.86   16.70
  -1  -2 -11  374.06   15.10
  -1  -2 -11  356.86   13.60
   1   2  11  353.46   13.60
   1   2  11  352.56   14.80
   1   2  11  345.97   15.80
   1   2  11  354.16   12.00
   1   2  11  373.26   16.20
  -2  -2 -11  180.28    9.30
  -2  -2 -11  169.58    8.90
  -2  -2 -11  165.28   11.10
  -2  -2 -11  172.48    8.10
  -2  -2 -11  188.48    9.50
  -2  -2 -11  184.08   10.60
   2   2  11  183.98    8.10
   2   2  11  180.18    9.30
   2   2  11  178.68   11.70
   2   2  11  179.38   10.90
   2   2  11  175.78   10.80
  -3  -2 -11   67.69    7.20
  -3  -2 -11   61.59    7.30
  -3  -2 -11   65.59    6.00
  -3  -2 -11   88.79    8.00
  -3  -2 -11   53.69    6.90
  -3  -2 -11   63.09    6.20
   3   2  11   64.09    7.60
   3   2  11   64.69    9.40
   3   2  11   63.29    8.50
   3   2  11   75.29    7.60
   3   2  11   78.69    6.80
  -4  -2 -11   26.20    5.40
  -4  -2 -11   32.70    6.10
  -4  -2 -11   32.50    4.90
  -4  -2 -11   29.90    5.70
  -4  -2 -11   33.80    5.60
  -4  -2 -11   20.40    4.80
   4   2  11   35.60    7.10
   4   2  11   33.40    5.70
   4   2  11   24.50    4.70
   4   2  11   35.20    5.70
   4   2  11   33.60    7.30
  -5  -2 -11   48.10    6.80
  -5  -2 -11   47.80    7.00
  -5  -2 -11   39.70    6.40
  -5  -2 -11   54.09    7.30
  -5  -2 -11   39.60    6.90
   5   2  11   63.19    7.40
   5   2  11   47.00    8.40
   5   2  11   35.50    5.90
   5   2  11   64.99    8.80
  -6  -2 -11   45.40    6.80
  -6  -2 -11   34.00    8.00
  -6  -2 -11   35.40    6.80
  -6  -2 -11   43.50    8.30
   6   2  11   33.10    6.00
   6   2  11   30.40    9.20
   6   2  11   36.20    9.50
   5  -3 -11   -3.10    6.00
  -5   3  11   -3.90    6.80
  -5   3  11   10.80    5.80
  -5   3  11    2.70    8.50
  -5   3  11    3.20    4.40
   4  -3 -11   10.80    5.40
  -4   3  11   35.50    9.30
  -4   3  11   20.70    5.70
  -4   3  11   15.60    8.10
  -4   3  11   19.50    6.80
  -4   3  11   24.00    6.90
  -4   3  11   29.20    4.40
   3  -3 -11  211.78   12.60
  -3   3  11  236.38   15.20
  -3   3  11  236.78    9.80
  -3   3  11  242.98   12.70
  -3   3  11  224.68   14.90
  -3   3  11  238.48   14.40
  -3   3  11  239.08   13.60
   2  -3 -11   25.20    2.50
   2  -3 -11   24.70    6.70
   2  -3 -11   23.30    2.60
   2  -3 -11   21.50    5.70
  -2   3  11   31.70    5.80
  -2   3  11   27.40    3.20
  -2   3  11   19.60    5.50
  -2   3  11   27.40    6.40
  -2   3  11   23.90    2.70
  -2   3  11   16.30    6.00
  -2   3  11   22.60    3.40
   1  -3 -11   14.90    2.50
   1  -3 -11   16.30    5.90
   1  -3 -11   19.10    4.20
   1  -3 -11   19.10    4.90
  -1   3  11   20.80    2.70
  -1   3  11   18.00    4.90
  -1   3  11   15.20    5.10
  -1   3  11   19.70    3.00
  -1   3  11   14.10    5.40
  -1   3  11   15.40    6.00
  -1   3  11   14.40    3.70
   0  -3 -11  435.26   14.60
   0  -3 -11  437.36   16.70
   0  -3 -11  448.26   18.90
   0  -3 -11  401.86   14.60
   0  -3 -11  406.66   16.50
   0   3  11  394.26   15.90
   0   3  11  421.36   13.70
   0   3  11  457.85   18.30
   0   3  11  399.06   17.70
   0   3  11  432.56   18.60
   0   3  11  427.66   14.80
  -1  -3 -11  244.68   11.80
  -1  -3 -11  230.48   10.10
  -1  -3 -11  229.58   11.00
  -1  -3 -11  234.58   10.40
  -1  -3 -11  222.28   13.20
   1   3  11  224.98   11.80
   1   3  11  227.28   12.60
   1   3  11  218.38   12.60
   1   3  11  230.78   13.20
   1   3  11  237.98    9.20
   1   3  11  239.18   10.50
  -2  -3 -11   15.30    4.60
  -2  -3 -11    3.60    3.40
  -2  -3 -11    7.70    3.30
  -2  -3 -11   14.70    3.10
  -2  -3 -11    5.50    4.80
  -2  -3 -11    5.70    3.40
   2   3  11    6.80    3.80
   2   3  11    6.10    4.70
   2   3  11    7.20    3.10
   2   3  11    7.90    4.40
   2   3  11   -6.70    4.40
  -3  -3 -11  237.38   11.00
  -3  -3 -11  252.37   13.20
  -3  -3 -11  242.28   11.90
  -3  -3 -11  232.88   10.50
  -3  -3 -11  224.48   13.20
  -3  -3 -11  246.08   11.70
   3   3  11  240.98   14.30
   3   3  11  251.57   13.40
   3   3  11  242.68   13.80
   3   3  11  250.57   11.20
   3   3  11  234.98   11.70
  -4  -3 -11   -1.20    4.00
  -4  -3 -11   -4.60    3.60
  -4  -3 -11    2.10    4.30
  -4  -3 -11   -5.80    4.20
  -4  -3 -11   -2.50    4.60
  -4  -3 -11   -2.00    2.80
   4   3  11    2.10    4.60
   4   3  11   -2.50    4.00
   4   3  11   10.60    6.00
   4   3  11    0.50    4.50
   4   3  11    4.30    6.20
  -5  -3 -11   51.29    6.90
  -5  -3 -11   58.49    7.30
  -5  -3 -11   64.19    9.20
  -5  -3 -11   61.39    7.60
  -5  -3 -11   51.09    5.40
  -5  -3 -11   63.59    8.30
   5   3  11   56.19    7.10
   5   3  11   63.79    9.10
   5   3  11   65.19    9.40
   5   3  11   54.99   13.50
   5   3  11   52.49    9.70
  -6  -3 -11   -3.30    4.90
  -6  -3 -11    0.10    7.30
  -6  -3 -11  -13.00    6.80
  -6  -3 -11   -6.30    5.10
   6   3  11    1.00    5.00
   6   3  11   -2.00    7.00
   6   3  11   -2.20   11.20
   6   3  11    5.40    8.10
   6   3  11    1.60    8.50
   5  -4 -11   25.90    6.90
  -5   4  11   22.90    8.20
  -5   4  11   25.70    5.70
  -5   4  11   30.70    6.70
  -5   4  11   25.30    9.20
  -4   4  11   35.60    7.70
  -4   4  11   53.69    7.50
  -4   4  11   34.70    9.70
  -4   4  11   31.10    6.30
  -4   4  11   30.10    7.60
   3  -4 -11   -2.40    5.10
  -3   4  11    6.80    6.80
  -3   4  11   -7.10    5.60
  -3   4  11   -3.70    6.90
  -3   4  11    3.40    5.40
  -3   4  11    2.60    4.50
   2  -4 -11   -2.10    4.90
   2  -4 -11   -0.20    1.20
   2  -4 -11   -3.00    1.20
  -2   4  11    4.40    4.30
  -2   4  11    0.50    2.60
  -2   4  11    3.90    6.00
  -2   4  11   -7.50    5.60
  -2   4  11   -6.70    4.10
  -2   4  11   -2.40    2.00
  -2   4  11   -9.00    4.70
  -2   4  11   -2.00    2.70
   1  -4 -11  148.79    6.70
   1  -4 -11  149.09    9.10
   1  -4 -11  139.59   10.20
   1  -4 -11  145.39    6.50
  -1   4  11  130.99   11.80
  -1   4  11  161.28   11.60
  -1   4  11  142.49    8.40
  -1   4  11  140.69    7.10
  -1   4  11  136.39   10.50
  -1   4  11  145.39   10.40
  -1   4  11  145.59    7.20
   0  -4 -11   40.50    4.40
   0  -4 -11   42.40    6.70
   0  -4 -11   47.50    6.40
   0  -4 -11   50.59    7.40
   0   4  11   40.70    4.40
   0   4  11   40.50    5.30
   0   4  11   34.40    6.10
   0   4  11   49.40    7.20
   0   4  11   49.10    4.90
   0   4  11   42.10    6.60
  -1  -4 -11    5.40    3.90
  -1  -4 -11    2.50    4.80
  -1  -4 -11   -3.10    3.90
  -1  -4 -11   -3.20    2.90
  -1  -4 -11    1.70    2.80
   1   4  11   -6.40    4.00
   1   4  11   -4.10    3.00
   1   4  11   -5.40    5.00
   1   4  11    2.90    4.90
   1   4  11    1.70    2.80
   1   4  11    1.40    5.00
  -2  -4 -11   49.60    6.40
  -2  -4 -11   49.20    6.80
  -2  -4 -11   37.90    5.00
  -2  -4 -11   43.80    5.80
  -2  -4 -11   42.80    6.20
   2   4  11   55.79    7.10
   2   4  11   40.30    6.40
   2   4  11   41.00    5.10
   2   4  11   42.70    6.40
   2   4  11   41.50    5.70
   2   4  11   41.30    6.50
  -3  -4 -11   80.59    9.60
  -3  -4 -11   98.69    7.80
  -3  -4 -11  101.79    7.30
  -3  -4 -11   87.49    8.10
  -3  -4 -11   91.79    8.80
  -3  -4 -11  120.29    9.80
   3   4  11   89.79    8.50
   3   4  11   91.09   11.40
   3   4  11   98.39   10.20
   3   4  11   89.69   10.60
   3   4  11   97.29    9.40
  -4  -4 -11   87.79    8.30
  -4  -4 -11   91.99    9.30
  -4  -4 -11   84.69    6.90
  -4  -4 -11   81.29    8.50
  -4  -4 -11   91.69    9.90
  -4  -4 -11  107.79    9.60
   4   4  11   91.69   10.00
   4   4  11   89.99    9.00
   4   4  11   94.69    8.80
   4   4  11  102.69   11.70
   4   4  11   58.99    8.90
  -5  -4 -11    6.60    4.90
  -5  -4 -11   15.00    3.50
  -5  -4 -11   13.10    5.60
  -5  -4 -11   19.30    7.20
  -5  -4 -11   13.80    5.40
  -5  -4 -11   21.80    6.40
   5   4  11   11.40    5.80
   5   4  11   10.70    5.30
   5   4  11   11.60    8.70
   5   4  11    2.20    7.50
   5   4  11    3.40    5.70
  -6  -4 -11  160.98   16.80
  -6  -4 -11  134.69   10.70
  -6  -4 -11  139.79   12.20
  -6  -4 -11  142.39   12.90
   6   4  11  144.19   15.60
   6   4  11  168.18   14.20
   6   4  11  129.59   12.00
   6   4  11  147.09   15.60
   4  -5 -11    7.50    6.20
  -4   5  11   21.80    7.60
  -4   5  11    8.80    5.00
  -4   5  11    0.00    5.30
  -4   5  11    6.30    6.70
   3  -5 -11    3.20    5.40
  -3   5  11   -2.70    7.50
  -3   5  11   -0.80    4.70
  -3   5  11    2.70    7.60
  -3   5  11   -1.80    7.80
  -3   5  11   -6.20    5.30
   2  -5 -11  431.66   19.30
   2  -5 -11  475.85   13.90
   2  -5 -11  456.35   13.80
  -2   5  11  490.65   18.70
  -2   5  11  458.25   14.90
  -2   5  11  474.65   21.20
  -2   5  11  481.75   21.20
  -2   5  11  488.95   19.10
  -2   5  11  468.05   17.00
  -2   5  11  464.05   15.40
  -2   5  11  494.45   21.70
   1  -5 -11   59.59    5.00
   1  -5 -11   73.59    7.30
   1  -5 -11   56.89    7.60
   1  -5 -11   52.89    4.50
  -1   5  11   65.69   10.10
  -1   5  11   55.69    8.30
  -1   5  11   65.59    6.40
  -1   5  11   67.09    5.50
  -1   5  11   48.00    7.60
  -1   5  11   56.29    6.80
   0  -5 -11   68.49    5.70
   0  -5 -11   65.49    8.60
   0  -5 -11   67.09    6.10
   0  -5 -11   79.89    7.60
   0   5  11   92.79    9.80
   0   5  11   84.69    6.50
   0   5  11   82.29    6.30
   0   5  11   71.99    9.20
   0   5  11   61.09    7.70
   0   5  11   65.69    8.30
  -1  -5 -11    3.50    3.90
  -1  -5 -11    1.20    3.30
  -1  -5 -11    2.10    5.40
  -1  -5 -11    0.40    3.60
   1   5  11    6.50    3.70
   1   5  11    0.80    4.60
   1   5  11    3.60    4.60
   1   5  11    4.80    5.50
   1   5  11    7.30    5.70
   1   5  11    5.30    3.40
  -2  -5 -11   -5.70    3.00
  -2  -5 -11   -1.60    4.30
  -2  -5 -11    0.40    4.70
  -2  -5 -11    2.30    3.80
  -2  -5 -11   -0.90    3.80
   2   5  11   -6.40    4.30
   2   5  11   -2.90    5.00
   2   5  11   -5.30    5.40
   2   5  11    2.60    5.30
   2   5  11   -7.30    4.70
   2   5  11    1.70    4.00
  -3  -5 -11   67.89    9.00
  -3  -5 -11   55.09    8.10
  -3  -5 -11   67.19    7.70
  -3  -5 -11   56.19    6.90
  -3  -5 -11   69.89    7.70
  -3  -5 -11   62.79    7.30
   3   5  11   59.39    7.80
   3   5  11   55.49    7.80
   3   5  11   56.89    8.00
   3   5  11   68.29    9.00
   3   5  11   47.10    7.80
   3   5  11   71.69    9.30
  -4  -5 -11   46.40    6.70
  -4  -5 -11   39.30    5.70
  -4  -5 -11   43.40    6.50
  -4  -5 -11   47.90    7.70
  -4  -5 -11   44.20    7.30
  -4  -5 -11   43.70    6.50
   4   5  11   55.69    8.60
   4   5  11   43.70   13.20
   4   5  11   48.10    6.70
   4   5  11   44.20    7.00
   4   5  11   33.00   11.70
  -5  -5 -11   25.60    5.70
  -5  -5 -11   19.50    5.50
  -5  -5 -11   16.60    4.00
  -5  -5 -11    6.70    6.40
  -5  -5 -11   22.00    7.50
  -5  -5 -11   21.10    5.80
   5   5  11   15.10    6.00
   5   5  11   15.50    8.00
   5   5  11   18.30    6.50
   5   5  11   17.20    6.60
   5   5  11    9.90    7.30
  -6  -5 -11   13.30    6.00
  -6  -5 -11   14.60    7.10
  -6  -5 -11    8.90    5.30
  -6  -5 -11   12.60    3.70
   6   5  11    7.30    6.10
   6   5  11    4.80    8.10
   6   5  11   16.60    9.60
   6   5  11   -0.10    8.40
   4  -6 -11    9.70    6.10
  -4   6  11   14.70    8.70
  -4   6  11    9.60    7.40
  -4   6  11   16.10    5.80
   3  -6 -11    4.10    6.40
  -3   6  11    7.90    7.80
  -3   6  11   11.90    5.40
  -3   6  11    0.30    5.80
   2  -6 -11    0.50    1.60
   2  -6 -11   -2.20    5.40
  -2   6  11    3.10    6.50
  -2   6  11    5.80    7.30
  -2   6  11   10.30    8.60
  -2   6  11   -1.40    2.50
  -2   6  11    4.60    7.10
  -2   6  11    0.70    4.90
  -2   6  11    3.50    2.70
  -2   6  11   -0.80    4.10
   1  -6 -11    6.80    5.30
   1  -6 -11   -1.40    2.10
   1  -6 -11    2.30    3.90
   1  -6 -11    0.50    2.60
  -1   6  11   -0.50    4.00
  -1   6  11    2.10    4.00
  -1   6  11   -1.60    4.90
  -1   6  11   -2.30    2.80
  -1   6  11    2.20    3.40
  -1   6  11   -6.30    7.00
  -1   6  11    2.90    6.20
   0  -6 -11   12.70    3.10
   0  -6 -11    8.80    4.20
   0  -6 -11   16.10    3.60
   0  -6 -11   15.30    5.20
   0   6  11   10.60    5.50
   0   6  11   27.10    6.90
   0   6  11   18.90    3.80
   0   6  11   12.10    4.80
   0   6  11    7.20    5.90
   0   6  11   13.30    5.20
  -1  -6 -11  266.57   13.40
  -1  -6 -11  253.17   13.70
  -1  -6 -11  271.47   11.50
  -1  -6 -11  252.77   12.10
   1   6  11  280.57   15.50
   1   6  11  276.17   15.20
   1   6  11  263.27   13.70
   1   6  11  274.77   12.20
   1   6  11  258.67   11.90
   1   6  11  265.27   14.90
  -2  -6 -11    0.70    4.30
  -2  -6 -11    3.20    4.10
  -2  -6 -11   -6.10    3.60
  -2  -6 -11    4.50    4.60
   2   6  11    1.70    4.30
   2   6  11    1.10    4.00
   2   6  11  -12.50    5.20
   2   6  11    5.20    5.90
   2   6  11   -2.80    5.10
   2   6  11   10.30    6.10
  -3  -6 -11    3.30    4.20
  -3  -6 -11    9.10    5.30
  -3  -6 -11    9.20    5.00
   3   6  11   -0.30    6.20
   3   6  11   -3.80    4.80
   3   6  11    1.50    6.70
   3   6  11   10.00    5.50
   3   6  11    0.20    5.80
   3   6  11   -1.10    5.00
  -4  -6 -11    0.20    4.40
  -4  -6 -11  -12.10    5.30
  -4  -6 -11    0.20    5.80
  -4  -6 -11   -3.70    3.80
   4   6  11   -3.60    5.60
   4   6  11    5.30    6.90
   4   6  11    4.70    5.60
   4   6  11   -0.70    5.50
  -5  -6 -11   28.00    8.40
  -5  -6 -11   20.10    6.40
  -5  -6 -11   25.30    4.70
   5   6  11   18.00    7.60
   5   6  11   26.90    8.00
   5   6  11    8.70    6.50
   5   6  11   26.00    7.00
   5   6  11    3.90    7.70
  -6  -6 -11  152.48    9.60
  -6  -6 -11  178.08   14.10
   6   6  11  185.48   16.30
   6   6  11  174.68   15.00
   6   6  11  192.28   17.70
   3  -7 -11    5.00    5.80
  -3   7  11    2.40    7.00
  -3   7  11   -0.20    1.90
  -3   7  11   -6.00    8.20
  -3   7  11   -1.10    5.30
  -3   7  11    2.90    1.80
   2  -7 -11   14.10    2.20
   2  -7 -11   10.70    6.20
   2  -7 -11   13.90    2.30
  -2   7  11    1.70    5.30
  -2   7  11   15.90    3.30
  -2   7  11   14.10    5.00
  -2   7  11   19.60    3.40
  -2   7  11    3.70    7.80
  -2   7  11   10.00    5.50
   1  -7 -11   12.30    4.40
   1  -7 -11    6.00    5.30
   1  -7 -11    9.80    3.30
   1  -7 -11    3.40    2.50
  -1   7  11    2.30    7.00
  -1   7  11   21.00    9.20
  -1   7  11    4.40    3.90
  -1   7  11    5.90    3.50
  -1   7  11   14.90    5.60
  -1   7  11    3.10    4.80
   0  -7 -11  485.45   18.30
   0  -7 -11  511.65   19.50
   0  -7 -11  505.15   17.20
   0  -7 -11  502.65   21.20
   0   7  11  482.85   22.50
   0   7  11  532.85   22.70
   0   7  11  516.75   21.20
   0   7  11  501.55   19.30
   0   7  11  520.05   18.10
   0   7  11  531.75   19.40
  -1  -7 -11   59.09    6.90
  -1  -7 -11   75.89    9.50
  -1  -7 -11   72.09    9.10
  -1  -7 -11   67.79    7.90
   1   7  11   64.29    8.60
   1   7  11   58.19    9.30
   1   7  11   61.39    7.50
   1   7  11   81.59    8.90
   1   7  11   63.39   12.60
   1   7  11   54.29    8.30
  -2  -7 -11    9.60    5.60
  -2  -7 -11   14.50    4.30
  -2  -7 -11   14.40    5.50
  -2  -7 -11   -2.80    4.10
   2   7  11    7.90    4.90
   2   7  11    2.40    6.40
   2   7  11    8.10    9.00
   2   7  11    5.70    6.10
  -3  -7 -11   12.20    5.80
  -3  -7 -11   10.20    4.80
  -3  -7 -11    3.50    4.60
  -3  -7 -11   10.40    5.60
   3   7  11    7.90    6.60
   3   7  11    7.70    6.00
   3   7  11   13.40    8.60
   3   7  11    6.00    5.80
   3   7  11    4.90    5.60
   3   7  11    8.00    7.90
  -4  -7 -11    4.10    6.70
  -4  -7 -11   14.30    6.00
  -4  -7 -11    5.90    4.80
  -4  -7 -11    7.50    6.00
   4   7  11   -5.50    7.40
   4   7  11    6.10    6.10
   4   7  11    0.20    6.10
   4   7  11    4.90    8.50
   4   7  11    5.20    6.60
   4   7  11    5.60    5.40
  -5  -7 -11   29.90    5.40
  -5  -7 -11   12.40   10.70
  -5  -7 -11   29.70    7.40
   5   7  11   32.90    8.70
   5   7  11   22.40    7.70
   5   7  11   22.80   10.00
   5   7  11   29.90    9.40
   5   7  11   29.30    8.50
  -6  -7 -11    1.60    7.10
  -6  -7 -11   10.40    6.90
  -6  -7 -11    3.40    4.40
   6   7  11   13.80   10.20
   6   7  11  -14.20    9.30
   6   7  11    8.90    9.20
   2  -8 -11    8.50    2.70
   2  -8 -11    8.50    2.80
   2  -8 -11    7.20    6.10
  -2   8  11   21.40    6.40
  -2   8  11    2.20    8.40
  -2   8  11   -5.20    6.90
  -2   8  11    5.50    3.50
  -2   8  11   11.90    4.70
  -2   8  11    6.90    3.40
   1  -8 -11    2.40    4.20
   1  -8 -11    4.80    2.90
   1  -8 -11    4.00    3.80
   1  -8 -11    1.50    5.80
  -1   8  11   -1.50    5.70
  -1   8  11    1.50    6.40
  -1   8  11    3.00    3.80
  -1   8  11   -2.20    3.80
  -1   8  11    3.30    6.10
  -1   8  11    8.20    8.30
   0  -8 -11   43.40    5.90
   0  -8 -11   51.29    6.30
   0  -8 -11   45.10   10.60
   0  -8 -11   30.60    5.10
   0   8  11   26.70    6.60
   0   8  11   41.80    5.50
   0   8  11   40.50    4.70
   0   8  11   49.00    7.00
   0   8  11   31.50    6.90
   0   8  11   40.80    9.70
   0   8  11   32.50    8.30
  -1  -8 -11  119.39   11.50
  -1  -8 -11  127.89   10.60
  -1  -8 -11  118.79    8.50
  -1  -8 -11  122.99   12.00
   1   8  11  152.18   13.80
   1   8  11  120.29   11.40
   1   8  11  144.29   14.60
   1   8  11  132.09   13.30
   1   8  11  126.89   10.00
   1   8  11  122.99   11.30
  -2  -8 -11   56.29    8.20
  -2  -8 -11   58.69    7.40
  -2  -8 -11   70.49    9.70
  -2  -8 -11   68.59    8.30
   2   8  11   47.10    9.20
   2   8  11   58.29    8.10
   2   8  11   59.79    7.90
   2   8  11   54.99    8.30
   2   8  11   79.59    9.60
  -3  -8 -11  172.18   11.80
  -3  -8 -11  196.18   14.10
  -3  -8 -11  154.78   11.00
  -3  -8 -11  165.58   14.90
   3   8  11  129.79   14.10
   3   8  11  165.68   12.70
   3   8  11  168.88   15.40
   3   8  11  137.29   11.90
   3   8  11  130.49   10.90
   3   8  11  115.39   13.30
  -4  -8 -11   24.40    6.20
  -4  -8 -11   15.70    5.90
  -4  -8 -11   13.40   13.50
   4   8  11   21.10    6.90
   4   8  11   29.60    6.80
   4   8  11   22.40    8.50
   4   8  11   18.70    7.20
   4   8  11   27.40    8.20
   4   8  11   23.70    8.10
  -5  -8 -11    3.50    6.50
  -5  -8 -11    4.10    5.00
   5   8  11   -4.00    8.60
   5   8  11   16.10    8.70
   5   8  11    6.40    9.00
   5   8  11   -9.50    7.60
   1  -9 -11   44.70    6.00
   1  -9 -11   39.80    5.20
   1  -9 -11   28.80    5.50
   1  -9 -11   43.40    8.20
  -1   9  11   40.70    5.70
  -1   9  11   50.29    5.90
  -1   9  11   51.89    8.90
  -1   9  11   35.20   10.30
   0  -9 -11    2.70    3.90
   0  -9 -11    1.70    5.50
   0  -9 -11    2.30    4.70
   0  -9 -11    2.50    5.90
   0   9  11    3.90    2.20
   0   9  11   -7.40    6.20
   0   9  11    5.40    5.10
   0   9  11    6.70    5.20
   0   9  11   -1.70    8.60
  -1  -9 -11    3.60    4.40
  -1  -9 -11    9.20    6.40
  -1  -9 -11    0.70    6.50
  -1  -9 -11    6.30    6.60
   1   9  11    7.60    3.20
   1   9  11    3.40    8.60
   1   9  11    5.20    7.10
   1   9  11   12.80    9.20
   1   9  11    2.00    5.70
   1   9  11    4.70    5.80
  -2  -9 -11   -7.20    6.50
  -2  -9 -11    2.70    4.60
   2   9  11   -2.40    6.40
   2   9  11   -5.50    7.80
   2   9  11   -7.90    7.00
   2   9  11    9.10    6.80
   2   9  11   -4.80    3.90
   2   9  11    0.40    8.30
  -3  -9 -11   -9.20    4.70
  -3  -9 -11   -1.70    5.80
  -3  -9 -11    4.70    8.10
   3   9  11    7.10    5.20
   3   9  11    4.30    7.60
   3   9  11   -3.00    8.10
   3   9  11   14.40    8.00
   3   9  11    3.30    7.10
   3   9  11   -4.00    7.10
  -4  -9 -11   10.80    6.40
  -4  -9 -11    9.00    6.00
   4   9  11    9.10    6.30
   4   9  11    7.20    8.10
   4   9  11   23.60    9.00
   4   9  11    7.80    8.20
   4   9  11   10.50    8.70
  -2 -10 -11    2.40    8.00
  -2 -10 -11   -3.00    6.00
  -2 -10 -11   -6.10    5.00
   2  10  11   -5.00    7.70
   2  10  11    5.40    7.40
   2  10  11    8.10    9.70
   2   8 -12    0.00    4.30
   2   8 -12   -1.00    6.10
   2   8 -12   -1.00    5.80
   2   8 -12    5.10    7.50
  -2  -8  12    7.40    7.00
  -2  -8  12   -1.60    5.50
  -2  -8  12    5.30    6.10
   1   8 -12   78.89   10.50
   1   8 -12   94.89   14.60
   1   8 -12   83.39    9.70
   1   8 -12   71.29    9.40
  -1  -8  12   62.89    8.80
  -1  -8  12   89.29   10.20
  -1  -8  12   81.49   11.50
   0   8 -12   14.10    6.50
   0  -8  12    9.60    6.70
   0  -8  12    3.20    8.00
   0  -8  12    5.90    6.70
   4   7 -12   -5.90    7.40
   4   7 -12   -3.40    5.30
   4   7 -12    3.00    2.90
   4   7 -12   -4.50    6.90
  -4  -7  12   -2.40    6.60
  -4  -7  12  -10.40    7.00
  -4  -7  12    1.60    5.20
   3   7 -12   60.69    5.10
   3   7 -12   60.39   10.00
   3   7 -12   68.19    8.90
   3   7 -12   51.99    6.70
  -3  -7  12   55.09    8.80
  -3  -7  12   61.99    8.20
  -3  -7  12   52.59    7.60
   2   7 -12   -1.00    5.30
   2   7 -12   -0.80    5.10
   2   7 -12   -2.60    6.50
   2   7 -12    1.40    2.80
  -2  -7  12   -5.00    4.70
  -2  -7  12   -0.40    5.80
  -2  -7  12   -0.70    5.70
   1   7 -12   32.80    5.30
   1   7 -12   38.70    6.50
   1   7 -12   33.40    8.10
   1   7 -12   42.60    6.10
  -1  -7  12   29.90    6.80
  -1  -7  12   35.90    6.80
  -1  -7  12   36.50    6.70
   0   7 -12  176.28   12.50
   0   7 -12  145.09    8.60
   0  -7  12  158.48   12.90
   0  -7  12  144.09   12.50
   0  -7  12  168.38   12.90
  -1   7 -12   27.90    6.50
  -1   7 -12   20.10    4.80
   1  -7  12   17.40    7.50
   1  -7  12   23.90   10.60
   1  -7  12   28.10    7.70
  -2   7 -12   95.49   11.70
  -2   7 -12  114.99   10.10
   2  -7  12   89.59   10.70
   4   6 -12   30.70    8.20
   4   6 -12   33.40    8.40
   4   6 -12   30.70   10.00
   4   6 -12   21.20    5.30
  -4  -6  12   18.20    5.20
  -4  -6  12   16.10    7.10
  -4  -6  12   14.30    5.80
   3   6 -12   -4.40    5.90
   3   6 -12    9.60    7.10
   3   6 -12   10.00    4.80
   3   6 -12    6.40    4.50
  -3  -6  12    5.90    5.60
  -3  -6  12    3.00    5.60
  -3  -6  12   -3.60    4.30
   2   6 -12   26.90    7.70
   2   6 -12   36.70    3.30
   2   6 -12   24.20    5.30
   2   6 -12   38.60    6.20
   2   6 -12   35.60    6.20
  -2  -6  12   37.50    5.90
  -2  -6  12   23.10    6.40
  -2  -6  12   28.30    5.80
   1   6 -12  192.88   14.40
   1   6 -12  182.38   11.60
   1   6 -12  181.28    7.60
   1   6 -12  175.98   11.80
  -1  -6  12  164.28   13.10
  -1  -6  12  208.98   12.40
  -1  -6  12  186.98   11.90
   0   6 -12   45.50    4.90
   0   6 -12   53.19    5.50
   0   6 -12   45.60    6.90
   0   6 -12   53.79    7.00
   0   6 -12   52.99    8.70
   0  -6  12   34.40    8.90
   0  -6  12   55.19    7.00
   0  -6  12   53.89    7.50
  -1   6 -12    1.70    5.40
  -1   6 -12   -2.50    3.40
  -1   6 -12   -7.90    4.40
   1  -6  12    8.10    5.80
   1  -6  12   -5.60    5.40
   1  -6  12   -3.30    5.70
  -2   6 -12   -0.80    3.90
  -2   6 -12    4.10    5.70
   2  -6  12   -3.90    7.10
   2  -6  12    2.60    5.90
   2  -6  12    2.50    7.10
   2  -6  12   10.20    6.60
  -3   6 -12   39.40    8.20
  -3   6 -12   33.50    6.70
   3  -6  12   19.10    8.90
   3  -6  12   37.80    8.50
   3  -6  12   40.10    9.10
   5   5 -12   74.09    8.40
   5   5 -12   82.69    8.50
   5   5 -12   60.59   11.30
   5   5 -12   61.79   10.40
  -5  -5  12   95.79   11.50
  -5  -5  12   84.49    8.50
  -5  -5  12   77.49   10.20
   4   5 -12    5.30    6.50
   4   5 -12    3.60    4.10
   4   5 -12   -0.60    4.10
  -4  -5  12    6.30    4.20
  -4  -5  12    5.10    6.70
  -4  -5  12    8.90    4.70
   3   5 -12  188.98   10.20
   3   5 -12  189.38   15.70
   3   5 -12  174.18   10.30
   3   5 -12  188.68   13.50
  -3  -5  12  180.18   10.80
  -3  -5  12  178.38   10.60
  -3  -5  12  187.68   13.70
   2   5 -12    8.50    4.20
   2   5 -12   -1.10    3.70
   2   5 -12    1.60    4.70
   2   5 -12    5.00    6.00
  -2  -5  12    9.50    5.50
  -2  -5  12    6.00    4.80
  -2  -5  12   -0.20    4.50
   1   5 -12   33.30    5.50
   1   5 -12   45.30   12.90
   1   5 -12   36.90    5.20
  -1  -5  12   37.50    5.40
  -1  -5  12   28.70    9.20
  -1  -5  12   37.40    7.10
   0   5 -12    2.40    4.40
   0   5 -12    6.80    2.20
   0   5 -12    3.60    2.40
   0   5 -12    8.00    9.70
   0   5 -12   -2.00    4.30
   0  -5  12    9.10    6.00
   0  -5  12    0.20    4.40
   0  -5  12    4.00    5.30
  -1   5 -12   49.30    6.70
  -1   5 -12   53.19    5.60
  -1   5 -12   49.10    6.70
   1  -5  12   51.59    7.50
   1  -5  12   39.80    6.80
   1  -5  12   41.20    6.60
  -2   5 -12   81.89   10.00
  -2   5 -12   72.59    7.40
  -2   5 -12   82.19   10.00
   2  -5  12  101.49   12.00
   2  -5  12   81.19   10.50
   2  -5  12   85.79   10.70
  -3   5 -12    6.80    6.20
  -3   5 -12   -4.70   10.20
  -3   5 -12   -2.00    4.10
   3  -5  12   -0.90    5.90
   3  -5  12    2.80    7.10
   3  -5  12   -7.60    6.00
   3  -5  12   -1.20    6.90
  -4   5 -12  366.96   17.20
  -4   5 -12  338.67   16.80
  -4   5 -12  327.07   18.20
   4  -5  12  315.77   18.20
   4  -5  12  287.67   26.40
   4  -5  12  359.06   20.70
   5   4 -12   53.09    6.50
   5   4 -12   52.99    6.50
   5   4 -12   37.30    9.60
  -5  -4  12   46.70    6.00
  -5  -4  12   51.49    9.40
  -5  -4  12   47.90    6.50
   4   4 -12   31.60    4.50
   4   4 -12   32.10    4.20
   4   4 -12   17.50    7.50
   4   4 -12   31.40    7.90
  -4  -4  12   27.00    5.10
  -4  -4  12   30.30   14.90
  -4  -4  12   28.50    4.80
  -4  -4  12   30.00    7.50
   3   4 -12    2.00    3.30
   3   4 -12    4.20    3.50
   3   4 -12    1.20    5.90
   3   4 -12    6.30    5.50
  -3  -4  12    2.10    3.80
  -3  -4  12    2.40    3.70
  -3  -4  12   -1.60    5.40
   2   4 -12   -1.90    3.40
   2   4 -12    5.80    5.80
   2   4 -12    0.30    3.40
  -2  -4  12    0.80    6.40
  -2  -4  12   -7.30    4.70
  -2  -4  12   -3.30    3.90
   1   4 -12   24.70    4.50
   1   4 -12   32.90    4.80
   1   4 -12   24.70    6.90
  -1  -4  12   19.00    4.70
  -1  -4  12   21.70    4.80
  -1  -4  12   20.10    6.00
   0   4 -12  103.69    4.40
   0   4 -12  102.49   11.50
   0   4 -12  104.09    6.40
   0   4 -12  108.29    8.30
   0   4 -12   95.89    8.70
   0  -4  12   99.69    9.60
   0  -4  12   93.59    8.50
   0  -4  12  111.19   10.60
  -1   4 -12    0.20    2.20
  -1   4 -12    5.50    4.60
  -1   4 -12    5.80    5.40
  -1   4 -12   -2.00    4.10
   1  -4  12   -3.20    4.10
   1  -4  12    6.40    5.40
   1  -4  12    2.50    5.00
  -2   4 -12  312.27   14.50
  -2   4 -12  326.67   15.20
  -2   4 -12  306.47   12.30
  -2   4 -12  308.97   17.70
  -2   4 -12  282.77   14.40
   2  -4  12  321.97   14.60
   2  -4  12  254.27   21.40
   2  -4  12  308.17   16.10
  -3   4 -12  104.49   10.00
  -3   4 -12   83.39   10.90
  -3   4 -12  109.69    8.50
   3  -4  12  101.89   11.60
   3  -4  12   92.89   11.20
   3  -4  12  107.89   12.30
  -4   4 -12    8.60    4.90
  -4   4 -12    6.60    6.10
  -4   4 -12    4.60    5.30
   4  -4  12   -3.30    7.90
   4  -4  12   -1.50    6.80
   5   3 -12    5.70    2.40
  -5  -3  12    3.90    6.80
  -5  -3  12    6.60    3.50
  -5  -3  12   11.40    3.70
   4   3 -12    3.80    2.70
   4   3 -12   -4.20    6.10
   4   3 -12    6.30    2.90
  -4  -3  12    4.00    6.10
  -4  -3  12    3.20    3.40
  -4  -3  12   -1.20    7.70
  -4  -3  12    5.20    3.50
   3   3 -12   -1.00    2.90
   3   3 -12    2.70    6.20
   3   3 -12    4.30    2.90
  -3  -3  12    3.00    3.20
  -3  -3  12    6.00    3.60
   2   3 -12    8.60    3.40
   2   3 -12    8.20    3.20
   2   3 -12    8.90    5.50
  -2  -3  12    7.40    3.20
  -2  -3  12   12.00    4.10
  -2  -3  12    3.80    5.10
   1   3 -12  424.46   15.70
   1   3 -12  416.26   16.00
   1   3 -12  433.96   19.60
  -1  -3  12  472.95   18.50
  -1  -3  12  409.06   18.50
  -1  -3  12  401.36   16.60
   0   3 -12  306.07   13.20
   0   3 -12  295.77   12.60
   0   3 -12  322.87   16.40
   0  -3  12  276.57   14.50
   0  -3  12  285.57   13.80
   0  -3  12  263.57   17.80
  -1   3 -12    5.10    4.50
  -1   3 -12   12.20    2.30
  -1   3 -12    7.00    4.00
  -1   3 -12   11.40    6.30
  -1   3 -12   12.60    4.40
   1  -3  12    3.50    5.10
   1  -3  12    1.70    3.80
   1  -3  12   11.10    5.30
  -2   3 -12   -4.10    4.00
  -2   3 -12    2.30    2.50
  -2   3 -12   -6.70    3.90
  -2   3 -12   -0.70    5.60
  -2   3 -12   -7.60    4.30
   2  -3  12   -7.70    4.20
   2  -3  12   -2.90    5.20
   2  -3  12    0.40    5.10
  -3   3 -12  122.09   10.40
  -3   3 -12  118.29   10.60
  -3   3 -12  128.89    8.30
  -3   3 -12  114.29   10.10
   3  -3  12  123.69   11.90
   3  -3  12  118.79   10.80
  -4   3 -12   57.49    8.10
  -4   3 -12   58.29    8.00
  -4   3 -12   58.19    8.20
  -4   3 -12   51.09    6.90
   4  -3  12   50.89    9.20
   4  -3  12   66.49    8.70
   4  -3  12   53.49    8.70
  -5   3 -12   -1.70    6.60
  -5   3 -12   -1.60    6.40
   5  -3  12   17.50    8.60
   5  -3  12   14.30    8.60
   5   2 -12    6.50    5.40
  -5  -2  12    2.50    3.90
  -5  -2  12    1.20    2.90
  -5  -2  12   21.20    7.00
   4   2 -12   43.60    4.10
   4   2 -12   38.30    4.10
   4   2 -12   51.89    8.80
   4   2 -12   46.40    7.70
  -4  -2  12   42.70    7.70
  -4  -2  12   44.20    6.10
  -4  -2  12   48.40    9.50
  -4  -2  12   45.10    5.60
   3   2 -12   76.39    9.10
   3   2 -12   83.49   11.80
   3   2 -12   81.19    5.50
   3   2 -12   79.89    6.00
  -3  -2  12   81.89   10.20
  -3  -2  12   71.29    6.80
  -3  -2  12   83.19    6.40
   2   2 -12  244.18   12.70
   2   2 -12  232.08   14.90
   2   2 -12  254.77   10.20
   2   2 -12  250.87   10.20
  -2  -2  12  247.98   10.70
  -2  -2  12  256.47   14.10
  -2  -2  12  242.48   11.30
   1   2 -12   58.99    7.60
   1   2 -12   58.99    7.90
   1   2 -12   66.79    6.20
   1   2 -12   62.99    6.00
  -1  -2  12   39.60    6.60
  -1  -2  12   66.99    7.30
  -1  -2  12   54.29    6.20
   0   2 -12    1.80    5.30
   0   2 -12    6.70    3.40
   0   2 -12    4.90    3.50
   0  -2  12    3.20    3.40
   0  -2  12    4.20    4.40
   0  -2  12   -2.90    4.60
  -1   2 -12  188.58   11.30
  -1   2 -12  210.68   11.00
  -1   2 -12  201.88   10.30
  -1   2 -12  196.58    7.40
  -1   2 -12  192.68   13.40
   1  -2  12  209.08   13.20
   1  -2  12  214.58   10.80
   1  -2  12  203.88   12.10
  -2   2 -12  575.04   20.20
  -2   2 -12  536.15   17.80
  -2   2 -12  524.65   20.00
  -2   2 -12  529.95   22.50
  -2   2 -12  529.15   20.70
   2  -2  12  599.84   20.50
   2  -2  12  539.15   22.20
   2  -2  12  526.05   21.50
  -3   2 -12   18.00    6.00
  -3   2 -12   19.00    4.90
  -3   2 -12   16.20    5.20
  -3   2 -12   12.00    5.00
  -3   2 -12   17.00    3.80
   3  -2  12   21.40    5.60
   3  -2  12   10.40    6.20
   3  -2  12   10.90    6.40
  -4   2 -12  335.97   19.70
  -4   2 -12  349.27   15.10
  -4   2 -12  346.57   16.30
  -4   2 -12  354.56   16.60
   4  -2  12  330.57   18.10
   4  -2  12  351.16   18.60
   4  -2  12  326.37   16.40
  -5   2 -12   25.10    6.10
  -5   2 -12   42.40   10.50
  -5   2 -12   40.40    7.40
  -5   2 -12   38.30    7.30
  -5   2 -12   36.30    7.90
   5  -2  12   31.50    9.10
   5  -2  12   41.20    9.50
   5   1 -12   14.10    6.30
   5   1 -12    7.50    7.30
  -5  -1  12   11.30    2.10
  -5  -1  12   13.80    2.20
  -5  -1  12   16.70    6.80
  -5  -1  12   11.40    2.90
   4   1 -12   30.00    2.70
   4   1 -12   28.20    6.50
   4   1 -12   27.60    7.50
  -4  -1  12   22.70    8.20
  -4  -1  12   33.00    3.70
  -4  -1  12   30.40    3.70
   3   1 -12  187.68   11.60
   3   1 -12  172.58    7.30
   3   1 -12  202.68   14.10
  -3  -1  12  171.18   13.50
  -3  -1  12  176.88    8.80
  -3  -1  12  175.58    8.00
  -3  -1  12  201.18   13.10
   2   1 -12   54.99    4.80
   2   1 -12   47.80    8.10
   2   1 -12   36.80    5.80
   2   1 -12   46.60    5.40
  -2  -1  12   52.69    6.30
  -2  -1  12   53.29    7.60
  -2  -1  12   51.69    5.30
  -2  -1  12   42.30    6.30
   1   1 -12    6.70    3.00
   1   1 -12   -3.10    4.00
   1   1 -12    2.40    2.80
   1   1 -12    0.50    5.30
  -1  -1  12    2.30    3.60
  -1  -1  12    1.20    2.80
  -1  -1  12    3.40    5.10
  -1  -1  12    5.30    4.20
   0   1 -12   22.90    4.50
   0   1 -12   22.90    4.60
   0   1 -12   20.70    3.40
   0   1 -12   25.10    4.10
   0   1 -12   23.70    6.30
   0  -1  12   18.40    4.30
   0  -1  12   16.20    5.40
   0  -1  12   32.40    4.30
   0  -1  12   30.20    4.70
  -1   1 -12  192.98   10.00
  -1   1 -12  177.98   13.00
  -1   1 -12  183.68   10.70
  -1   1 -12  198.78    9.70
  -1   1 -12  196.78    9.90
   1  -1  12  193.28   11.40
   1  -1  12  173.58   12.40
   1  -1  12  185.98    9.20
   1  -1  12  181.88    9.90
  -2   1 -12 1291.17   43.20
  -2   1 -12 1322.37   42.00
  -2   1 -12 1312.97   38.80
  -2   1 -12 1311.67   41.10
  -2   1 -12 1347.77   41.00
   2  -1  12 1383.66   43.70
   2  -1  12 1358.86   42.50
   2  -1  12 1290.37   39.10
   2  -1  12 1356.16   40.90
  -3   1 -12    9.10    4.50
  -3   1 -12   10.30    4.40
  -3   1 -12    2.00    4.30
  -3   1 -12    4.90    3.20
  -3   1 -12    0.90    5.50
   3  -1  12    8.80    5.80
   3  -1  12   -1.40    4.50
   3  -1  12   -2.60    2.10
   3  -1  12   -2.40    5.30
  -4   1 -12  257.07   13.80
  -4   1 -12  262.47   12.90
  -4   1 -12  265.07   15.70
  -4   1 -12  270.47   14.10
  -4   1 -12  257.47   14.20
   4  -1  12  286.77   16.60
   4  -1  12  257.17   13.80
  -5   1 -12  195.68   14.20
  -5   1 -12  202.28   12.70
  -5   1 -12  185.88   14.80
  -5   1 -12  174.58   13.70
  -5   1 -12  188.68   13.30
   5  -1  12  196.28   16.20
   5  -1  12  207.98   16.60
   5  -1  12  230.08   23.50
   5   0 -12   42.30    7.50
  -5   0  12   28.70    8.90
  -5   0  12   42.10    5.10
  -5   0  12   31.10    7.10
   4   0 -12  146.09   11.70
   4   0 -12  146.69   15.10
  -4   0  12  131.29    5.90
  -4   0  12  149.39   13.40
  -4   0  12  144.79    6.30
  -4   0  12  155.68   15.20
  -4   0  12  137.19   12.20
  -4   0  12  149.69   14.80
   3   0 -12   23.00    7.30
   3   0 -12   16.50    5.20
   3   0 -12   13.50    2.10
  -3   0  12   15.70    3.30
  -3   0  12    7.70    6.30
  -3   0  12   17.10    2.80
  -3   0  12   22.90    6.20
  -3   0  12   12.10    6.00
   2   0 -12   67.19    5.00
   2   0 -12   56.69    8.30
   2   0 -12   68.09    9.10
   2   0 -12   77.59    5.00
  -2   0  12   68.59    5.30
  -2   0  12   62.69    9.20
  -2   0  12   63.39    6.50
  -2   0  12   74.29    8.40
   1   0 -12  316.37   11.80
   1   0 -12  300.17   15.80
   1   0 -12  304.47   14.00
   1   0 -12  324.27   11.90
  -1   0  12  324.57   13.20
  -1   0  12  340.37   14.80
  -1   0  12  311.37   12.00
  -1   0  12  314.47   15.40
   0   0 -12  158.68    9.50
   0   0 -12  158.18    8.20
   0   0 -12  159.68    9.30
   0   0 -12  144.19    7.80
   0   0 -12  139.69   11.00
   0   0  12  138.49    9.20
   0   0  12  162.78    8.30
   0   0  12  145.99   10.70
  -1   0 -12  179.58   12.60
  -1   0 -12  217.48   10.20
  -1   0 -12  211.98   10.30
  -1   0 -12  209.98    9.90
  -1   0 -12  212.38   11.40
   1   0  12  207.78   10.00
   1   0  12  195.98   12.50
   1   0  12  210.48   11.40
   1   0  12  202.98   10.10
  -2   0 -12  106.19    8.40
  -2   0 -12   96.99    6.10
  -2   0 -12  111.89    9.10
  -2   0 -12   99.89    7.30
  -2   0 -12   94.99    8.10
  -2   0 -12   93.49   10.60
   2   0  12  103.29    9.80
   2   0  12  108.19    6.70
   2   0  12  101.69   10.40
   2   0  12  100.49    8.50
  -3   0 -12   39.00    5.80
  -3   0 -12   58.49    7.80
  -3   0 -12   41.00    6.30
  -3   0 -12   41.10    7.60
  -3   0 -12   46.40    5.90
   3   0  12   36.90    4.70
   3   0  12   41.90    7.40
   3   0  12   30.90    7.00
   3   0  12   54.19    6.40
  -4   0 -12  400.06   16.30
  -4   0 -12  393.06   19.00
  -4   0 -12  428.66   18.10
  -4   0 -12  392.16   17.20
  -4   0 -12  417.66   17.60
   4   0  12  421.16   20.00
   4   0  12  398.66   21.30
   4   0  12  375.36   13.10
   4   0  12  418.86   17.40
  -5   0 -12   19.50    5.80
  -5   0 -12   14.40    6.10
  -5   0 -12   14.50    6.70
  -5   0 -12   17.60    6.80
  -5   0 -12   14.70    6.30
   5   0  12    7.60    7.70
   5   0  12    7.40    5.20
   5   0  12   14.00    7.80
   5   0  12   20.50    7.40
  -6   0 -12    4.10    6.50
  -6   0 -12    4.80    7.00
  -6   0 -12    4.90    6.70
   6   0  12   10.60    5.60
   6   0  12   26.50   10.00
   6   0  12   23.20   10.10
   5  -1 -12   21.60    6.50
  -5   1  12   37.20    9.70
  -5   1  12   34.90    4.40
  -5   1  12   33.50   12.70
  -5   1  12   34.30    8.90
   4  -1 -12   38.00    7.00
  -4   1  12   43.20    8.10
  -4   1  12   51.99    7.90
  -4   1  12   37.10    9.60
  -4   1  12   49.00    9.20
  -4   1  12   32.90    6.80
  -4   1  12   42.60    4.10
   3  -1 -12   61.49    8.80
   3  -1 -12   80.39   12.20
  -3   1  12   53.89    8.30
  -3   1  12   76.39   10.30
  -3   1  12   99.19   10.50
  -3   1  12   78.89    9.60
  -3   1  12   74.29    5.00
  -3   1  12   75.79    5.70
   2  -1 -12  188.98   11.60
   2  -1 -12  205.48   13.90
   2  -1 -12  185.08    7.50
  -2   1  12  185.78    9.00
  -2   1  12  185.38    7.90
  -2   1  12  192.58   12.40
  -2   1  12  197.48   12.50
  -2   1  12  180.78   12.70
   1  -1 -12  719.03   26.90
   1  -1 -12  714.73   24.70
   1  -1 -12  714.43   22.10
   1  -1 -12  696.53   21.90
   1  -1 -12  691.03   24.50
  -1   1  12  691.13   25.50
  -1   1  12  702.63   25.70
  -1   1  12  706.93   25.20
  -1   1  12  698.13   22.10
  -1   1  12  690.93   23.20
   0  -1 -12   -1.10    3.40
   0  -1 -12   -3.30    3.30
   0  -1 -12   -2.20    2.50
   0  -1 -12   -0.40    2.70
   0  -1 -12   -5.80    5.00
   0   1  12   -3.20    3.40
   0   1  12    0.50    3.70
   0   1  12   -2.10    4.30
   0   1  12   -4.10    2.70
  -1  -1 -12    0.60    3.40
  -1  -1 -12   -1.20    2.70
  -1  -1 -12    4.30    3.10
  -1  -1 -12   -8.10    4.80
  -1  -1 -12    3.80    3.40
   1   1  12    1.40    4.20
   1   1  12   -1.20    4.30
   1   1  12    1.70    4.70
   1   1  12    4.70    3.60
  -2  -1 -12  343.17   15.30
  -2  -1 -12  342.17   12.30
  -2  -1 -12  360.96   14.20
  -2  -1 -12  321.47   16.20
  -2  -1 -12  352.56   13.50
  -2  -1 -12  337.87   14.10
   2   1  12  355.26   13.50
   2   1  12  335.87   15.60
   2   1  12  355.76   15.80
   2   1  12  340.47   16.90
  -3  -1 -12    3.40    3.30
  -3  -1 -12    6.80    3.40
  -3  -1 -12    1.10    3.80
  -3  -1 -12    0.80    5.10
  -3  -1 -12   -0.30    4.20
  -3  -1 -12   -1.70    4.30
   3   1  12    5.00    4.50
   3   1  12    5.50    5.60
   3   1  12   -0.50    5.40
  -4  -1 -12  656.83   23.60
  -4  -1 -12  640.84   23.50
  -4  -1 -12  617.34   24.20
  -4  -1 -12  656.63   24.40
  -4  -1 -12  611.94   22.40
   4   1  12  609.74   26.20
   4   1  12  642.24   23.30
   4   1  12  650.13   23.60
   4   1  12  594.04   25.20
  -5  -1 -12   31.50    7.40
  -5  -1 -12   36.10    6.80
  -5  -1 -12   48.10    8.10
  -5  -1 -12   46.10    7.00
  -5  -1 -12   48.50    8.10
   5   1  12   45.90    9.10
   5   1  12   33.10    9.00
   5   1  12   38.40    6.20
   5   1  12   37.00    7.20
  -6  -1 -12  247.48   15.90
  -6  -1 -12  277.87   16.10
  -6  -1 -12  266.37   16.20
   6   1  12  254.37   14.20
   6   1  12  269.97   20.00
   6   1  12  298.37   19.20
   5  -2 -12    5.00    6.10
  -5   2  12    2.70    9.40
  -5   2  12    5.50    8.00
  -5   2  12   11.10    7.00
  -5   2  12   10.30    4.20
   4  -2 -12   21.30    9.80
  -4   2  12   40.80   11.50
  -4   2  12   38.60    5.10
  -4   2  12   25.80    7.20
  -4   2  12   29.70    8.50
  -4   2  12   29.40    9.20
  -4   2  12   27.70    6.60
   3  -2 -12   37.70    6.70
   3  -2 -12   42.50   10.40
  -3   2  12   60.89    8.70
  -3   2  12   47.00    3.50
  -3   2  12   73.59    9.70
  -3   2  12   51.39    4.30
  -3   2  12   55.79    7.80
  -3   2  12   44.10    8.50
  -3   2  12   43.60    4.00
  -3   2  12   52.29    4.10
  -3   2  12   46.20    7.60
   2  -2 -12   23.00    6.80
   2  -2 -12   27.50    5.70
  -2   2  12   29.20    4.00
  -2   2  12   18.80    6.30
  -2   2  12   28.80    6.20
  -2   2  12   38.40    7.30
  -2   2  12   28.20    3.00
  -2   2  12   21.80    6.30
   1  -2 -12    0.00    2.00
   1  -2 -12   -1.00    3.60
   1  -2 -12   -1.40    4.00
   1  -2 -12   -3.00    2.80
   1  -2 -12    8.40    5.30
  -1   2  12    1.00    2.70
  -1   2  12   -3.00    3.20
  -1   2  12    6.90    5.20
  -1   2  12   -0.70    4.50
  -1   2  12   -0.90    4.80
  -1   2  12   -3.50    4.90
   0  -2 -12   59.59    8.10
   0  -2 -12   47.70    6.80
   0  -2 -12   58.99    7.20
   0  -2 -12   51.99    5.30
   0  -2 -12   51.19    5.50
   0   2  12   45.50    6.80
   0   2  12   63.69    7.70
   0   2  12   39.70    6.20
   0   2  12   53.99    7.30
   0   2  12   61.19    7.70
   0   2  12   47.60    5.90
   0   2  12   53.29    3.10
  -1  -2 -12  447.16   17.00
  -1  -2 -12  465.25   16.40
  -1  -2 -12  447.66   19.70
  -1  -2 -12  433.26   17.70
  -1  -2 -12  442.56   16.20
   1   2  12  454.45   19.30
   1   2  12  453.75   17.90
   1   2  12  468.95   16.50
   1   2  12  451.35   19.10
   1   2  12  448.96   14.40
  -2  -2 -12   18.30    3.30
  -2  -2 -12   10.20    5.40
  -2  -2 -12   28.40    5.50
  -2  -2 -12   25.50    4.50
  -2  -2 -12   20.00    4.40
  -2  -2 -12   17.40    4.30
   2   2  12   10.60    5.10
   2   2  12   19.10    6.10
   2   2  12   21.50    3.20
   2   2  12    4.50    4.70
   2   2  12   17.40    5.20
  -3  -2 -12   -2.10    4.00
  -3  -2 -12    3.50    5.20
  -3  -2 -12    7.50    4.70
  -3  -2 -12   -1.50    3.80
   3   2  12   24.50    6.10
   3   2  12   12.90    3.60
  -4  -2 -12  127.39    7.30
  -4  -2 -12  118.49   10.30
  -4  -2 -12  118.59   10.20
  -4  -2 -12  117.69   10.90
  -4  -2 -12  117.99    9.50
  -4  -2 -12  102.69   10.80
   4   2  12  132.89   19.40
   4   2  12  136.99   10.90
   4   2  12  133.99    9.40
   4   2  12  146.39   10.90
   4   2  12  110.09   13.70
  -5  -2 -12  111.59   12.20
  -5  -2 -12  110.39   10.50
  -5  -2 -12  101.99   12.90
  -5  -2 -12   91.09   11.00
   5   2  12   99.89   13.00
   5   2  12  108.79   14.50
   5   2  12  110.39   11.70
   5   2  12  115.99   10.60
  -6  -2 -12   13.10    7.10
  -6  -2 -12   22.00    6.70
  -6  -2 -12   22.20    6.90
   6   2  12   18.20    9.30
   6   2  12   10.50    5.80
   5  -3 -12   -3.10    5.30
  -5   3  12    2.50    6.40
  -5   3  12   13.00    7.90
   4  -3 -12    9.50    5.70
  -4   3  12   27.80   10.60
  -4   3  12   28.90    4.10
  -4   3  12   22.10    6.30
  -4   3  12   22.10    8.50
  -4   3  12   20.50    8.80
   3  -3 -12   -3.30    5.00
  -3   3  12    9.60    7.20
  -3   3  12   -2.20    6.50
  -3   3  12    6.80    5.30
  -3   3  12    3.60    8.20
  -3   3  12    9.30    6.00
  -3   3  12   10.60    2.90
   2  -3 -12    5.40    1.80
   2  -3 -12    0.10    6.10
   2  -3 -12    0.30    1.50
   2  -3 -12    0.50    4.10
  -2   3  12    3.80    3.10
  -2   3  12   -0.70    6.00
  -2   3  12    5.70    4.80
  -2   3  12    5.50    6.00
  -2   3  12    3.60    2.30
  -2   3  12   10.90    6.20
  -2   3  12    5.10    2.30
   1  -3 -12   71.79    9.10
   1  -3 -12   70.39    7.70
   1  -3 -12   66.29    5.00
   1  -3 -12   65.49    8.40
  -1   3  12   61.19    4.30
  -1   3  12   68.39    5.50
  -1   3  12   59.49    8.00
  -1   3  12   76.99    9.50
  -1   3  12   81.49    7.20
  -1   3  12   74.79    9.60
   0  -3 -12   22.60    6.60
   0  -3 -12   15.00    3.10
   0  -3 -12   10.80    4.30
   0  -3 -12   10.90    4.60
   0  -3 -12   13.00    3.10
   0   3  12   16.00    5.90
   0   3  12   12.90    2.60
   0   3  12   13.30    3.60
   0   3  12   12.30    5.50
   0   3  12    2.50    5.10
   0   3  12    3.70    4.40
   0   3  12   12.60    4.50
  -1  -3 -12  223.78   10.30
  -1  -3 -12  233.68   10.50
  -1  -3 -12  229.98   11.80
  -1  -3 -12  218.18   13.80
  -1  -3 -12  228.08   11.40
   1   3  12  219.68    9.00
   1   3  12  220.58   13.90
   1   3  12  223.08   12.70
   1   3  12  217.18   13.40
   1   3  12  225.98   10.50
   1   3  12  234.48   12.40
  -2  -3 -12    3.30    3.80
  -2  -3 -12    7.00    4.50
  -2  -3 -12    4.50    3.40
  -2  -3 -12    6.50    5.60
  -2  -3 -12    2.30    3.60
   2   3  12   -2.30    4.50
   2   3  12   -4.60    5.00
   2   3  12    1.10    3.90
   2   3  12    5.90    3.20
   2   3  12    4.00    5.40
  -3  -3 -12  115.99   10.40
  -3  -3 -12  114.79   11.10
  -3  -3 -12  114.59    9.10
  -3  -3 -12  118.19    8.00
  -3  -3 -12   93.59    8.70
  -3  -3 -12  114.99    7.70
   3   3  12  118.39   11.70
   3   3  12  108.39   10.60
   3   3  12  110.49    8.40
   3   3  12  107.89   12.10
   3   3  12  121.59    9.50
  -4  -3 -12   54.69    6.40
  -4  -3 -12   76.69    9.40
  -4  -3 -12   68.19    8.30
  -4  -3 -12   61.69    8.00
  -4  -3 -12   59.49    6.70
  -4  -3 -12   60.19    8.80
   4   3  12   76.09    9.10
   4   3  12   54.89   13.60
   4   3  12   80.09    8.70
   4   3  12   69.49    9.60
  -5  -3 -12   -5.50    6.00
  -5  -3 -12   -3.70    5.30
  -5  -3 -12    2.90    6.80
  -5  -3 -12    1.60    3.20
  -5  -3 -12   -3.50    4.70
   5   3  12   -0.50    5.60
   5   3  12    3.60    5.60
   5   3  12   -0.40    7.40
   5   3  12   -1.70    6.20
   5   3  12   -2.70    7.50
  -6  -3 -12  110.79   12.10
  -6  -3 -12  120.99   13.00
  -6  -3 -12  124.59   12.40
   6   3  12  139.69   16.60
   6   3  12   99.89   14.50
   6   3  12  115.59   16.70
   6   3  12  115.69   11.80
   4  -4 -12    8.10    5.80
  -4   4  12    3.00    5.50
  -4   4  12    3.30    7.50
  -4   4  12   12.20    4.50
  -4   4  12    4.50    7.80
   3  -4 -12   -4.70    5.90
  -3   4  12    1.80    3.20
  -3   4  12   10.70    8.10
  -3   4  12   -4.00    4.90
  -3   4  12    4.20    6.20
  -3   4  12   -0.20    7.50
  -3   4  12   -3.00    7.30
   2  -4 -12    3.00    1.70
   2  -4 -12    0.30    4.90
   2  -4 -12    7.30    1.50
  -2   4  12   10.20    3.10
  -2   4  12    4.70    7.40
  -2   4  12   16.80    6.70
  -2   4  12    7.80    3.20
  -2   4  12    6.70    2.50
  -2   4  12    8.40    5.10
  -2   4  12    7.50    6.40
  -2   4  12    6.30    5.30
   1  -4 -12   80.59    8.90
   1  -4 -12   88.79    5.60
   1  -4 -12   92.79    5.60
   1  -4 -12   90.19    8.40
  -1   4  12   85.29   10.10
  -1   4  12  101.19    6.10
  -1   4  12   84.39    7.70
  -1   4  12   80.69   10.40
  -1   4  12   91.89   11.80
  -1   4  12   93.59    6.20
  -1   4  12  103.09   12.00
   0  -4 -12   78.09    6.20
   0  -4 -12   76.49    8.00
   0  -4 -12   82.89   10.80
   0   4  12   80.49   10.00
   0   4  12   85.99    6.60
   0   4  12   62.49    7.90
   0   4  12   71.29    5.60
   0   4  12   67.99    9.50
   0   4  12   60.49    7.90
  -1  -4 -12   75.39    6.50
  -1  -4 -12   77.49   10.30
  -1  -4 -12   62.89    6.90
  -1  -4 -12   74.99    7.80
  -1  -4 -12   79.19    8.20
   1   4  12   64.99   10.00
   1   4  12   84.79   10.30
   1   4  12   88.49    6.40
   1   4  12   63.29    7.00
   1   4  12   91.19   10.80
   1   4  12   78.09    9.10
  -2  -4 -12   51.59    6.90
  -2  -4 -12   38.30    6.80
  -2  -4 -12   48.00    6.90
  -2  -4 -12   51.59    6.90
  -2  -4 -12   62.09    7.40
   2   4  12   39.70    5.40
   2   4  12   37.00    7.30
   2   4  12   50.79    6.20
   2   4  12   29.70    6.40
   2   4  12   34.30    6.20
   2   4  12   47.70    7.60
  -3  -4 -12  145.49   11.30
  -3  -4 -12  150.98    8.80
  -3  -4 -12  138.89    9.10
  -3  -4 -12  115.69   11.20
  -3  -4 -12  139.79   10.00
  -3  -4 -12  151.78   10.10
   3   4  12  145.19   10.00
   3   4  12  118.39   12.20
   3   4  12  144.69    9.60
   3   4  12  137.89   12.10
   3   4  12  144.59   13.20
  -4  -4 -12   84.09    7.20
  -4  -4 -12   83.59    8.40
  -4  -4 -12   81.09   10.90
  -4  -4 -12   63.69    9.70
  -4  -4 -12   77.59   10.10
  -4  -4 -12   69.19    8.90
   4   4  12   55.89    8.90
   4   4  12   91.19    9.30
   4   4  12   82.09    9.80
   4   4  12   76.89   10.80
   4   4  12   58.99    9.00
  -5  -4 -12   21.40   13.30
  -5  -4 -12   12.00    5.50
  -5  -4 -12   14.40    6.80
  -5  -4 -12   15.80    5.90
  -5  -4 -12   19.50    4.10
   5   4  12    9.50    6.30
   5   4  12    8.80    8.50
   5   4  12   20.60    6.60
   5   4  12    4.40    6.70
   5   4  12   10.60    7.90
  -6  -4 -12  130.29   13.60
  -6  -4 -12  134.69   11.80
  -6  -4 -12  123.49   12.70
   6   4  12  129.49   12.80
   6   4  12  125.99   15.70
   6   4  12  121.39   15.80
   6   4  12  160.28   17.50
   4  -5 -12    1.30    5.30
  -4   5  12    3.00    5.10
  -4   5  12    1.80    8.40
  -4   5  12   -7.20    5.80
  -4   5  12    4.10    7.80
   3  -5 -12   -4.90    5.60
  -3   5  12  -10.10    5.30
  -3   5  12   -2.20    6.30
  -3   5  12  -11.70    6.80
   2  -5 -12   18.60    5.80
   2  -5 -12   34.60    2.60
   2  -5 -12   27.20    3.50
  -2   5  12   38.80    9.00
  -2   5  12   36.50    6.70
  -2   5  12   33.50    3.40
  -2   5  12   32.30    3.80
  -2   5  12   33.50    4.80
  -2   5  12   38.60    6.50
  -2   5  12   21.20    8.00
  -2   5  12   34.40    9.10
   1  -5 -12    1.90    4.90
   1  -5 -12    3.80    4.10
   1  -5 -12   -2.60    2.40
  -1   5  12    3.50    5.10
  -1   5  12   -2.30    6.80
  -1   5  12   -3.60    2.70
  -1   5  12   -1.20    3.60
  -1   5  12    0.00    3.10
   0  -5 -12   23.20    3.80
   0  -5 -12   16.90    5.20
   0  -5 -12   19.50    4.80
   0  -5 -12   22.10    3.60
   0   5  12   28.00    7.50
   0   5  12   28.50    6.60
   0   5  12   35.20    4.40
   0   5  12   24.70    3.90
   0   5  12   16.70    5.00
  -1  -5 -12  205.38   11.60
  -1  -5 -12  175.48   11.10
  -1  -5 -12  184.18   13.30
  -1  -5 -12  176.28    9.90
   1   5  12  183.28   12.00
   1   5  12  173.18   13.60
   1   5  12  189.08   13.90
   1   5  12  174.18    9.70
   1   5  12  197.38    9.70
   1   5  12  190.18   13.20
  -2  -5 -12    2.40    3.90
  -2  -5 -12    1.40    4.70
  -2  -5 -12   -6.50    5.40
  -2  -5 -12   -0.50    3.20
  -2  -5 -12    0.00    4.00
   2   5  12    4.40    5.50
   2   5  12   -6.90    4.80
   2   5  12   13.90    6.10
   2   5  12    2.20    5.70
   2   5  12   -8.90    5.40
  -3  -5 -12  175.78   13.00
  -3  -5 -12  179.28   10.40
  -3  -5 -12  177.98   11.70
  -3  -5 -12  190.88   12.60
  -3  -5 -12  183.78   11.00
   3   5  12  176.28   10.90
   3   5  12  179.68   21.90
   3   5  12  195.18   13.80
   3   5  12  186.58   11.40
  -4  -5 -12   13.40    4.60
  -4  -5 -12    5.90    5.40
  -4  -5 -12   18.20    7.10
  -4  -5 -12   11.20    5.10
  -4  -5 -12    6.90    4.00
  -4  -5 -12    7.30    5.90
   4   5  12   -6.40    7.30
   4   5  12    2.90    5.90
   4   5  12   -4.80    6.80
   4   5  12    5.20    5.60
   4   5  12   13.50    5.70
  -5  -5 -12   47.90    7.10
  -5  -5 -12   48.80    7.40
  -5  -5 -12   58.29    7.00
   5   5  12   45.30    9.90
   5   5  12   44.80    8.50
   5   5  12   57.99    8.60
   5   5  12   41.50    7.80
  -6  -5 -12   96.49   11.60
  -6  -5 -12   96.89   11.50
  -6  -5 -12  120.39    8.10
  -6  -5 -12   97.69   12.30
   6   5  12   92.39   12.60
   6   5  12  109.19   13.70
   6   5  12  118.89   16.00
   6   5  12  102.79   13.40
   3  -6 -12   -3.50    5.30
  -3   6  12    6.90    5.90
  -3   6  12   10.60    8.20
  -3   6  12   10.00    7.00
   2  -6 -12    1.60    5.50
   2  -6 -12    4.50    1.60
  -2   6  12   10.30    5.80
  -2   6  12   -4.40    6.70
  -2   6  12    4.70    5.80
  -2   6  12    5.30    3.00
  -2   6  12   -0.70    4.50
  -2   6  12    5.40    2.90
   1  -6 -12   36.60    5.70
   1  -6 -12   34.40    4.40
   1  -6 -12   28.20    3.70
   1  -6 -12   31.70    7.40
  -1   6  12   37.10    7.00
  -1   6  12   48.00    9.60
  -1   6  12   32.30    8.30
  -1   6  12   28.40    4.10
  -1   6  12   35.20    5.10
  -1   6  12   31.90    4.80
   0  -6 -12    3.30    3.50
   0  -6 -12   15.90    4.90
   0  -6 -12    5.70    3.00
   0  -6 -12    6.20    5.40
   0   6  12   11.40    6.90
   0   6  12   -1.10    6.00
   0   6  12   13.60    4.50
   0   6  12    3.40    3.80
   0   6  12    6.80    5.80
   0   6  12    1.00    4.60
  -1  -6 -12   81.29    8.10
  -1  -6 -12   79.39    8.90
  -1  -6 -12   96.19    9.70
  -1  -6 -12   74.29    7.20
   1   6  12   73.99   11.20
   1   6  12   65.39   10.50
   1   6  12   69.09    9.30
   1   6  12   69.69    9.40
   1   6  12   68.39    8.10
   1   6  12   74.19    9.70
  -2  -6 -12   22.90    5.20
  -2  -6 -12   16.10    4.60
  -2  -6 -12   18.40    5.90
  -2  -6 -12   23.20    5.70
   2   6  12   13.70    5.20
   2   6  12   13.20    6.70
   2   6  12   10.20   10.90
   2   6  12   17.80    7.00
  -3  -6 -12    0.20    5.60
  -3  -6 -12    2.40    5.20
  -3  -6 -12   -4.20    4.00
   3   6  12   -2.10    5.30
   3   6  12    3.90    5.30
   3   6  12    1.10    7.40
   3   6  12   -3.20    6.30
   3   6  12   12.10   10.10
   3   6  12   10.00    5.90
  -4  -6 -12   52.09    6.50
  -4  -6 -12   78.29   12.20
  -4  -6 -12   55.89    9.30
  -4  -6 -12   49.00    6.80
   4   6  12   45.60    9.60
   4   6  12   45.00    7.30
   4   6  12   55.99    7.70
   4   6  12   37.70    9.50
   4   6  12   47.50    9.40
  -5  -6 -12   60.69   12.20
  -5  -6 -12   51.39    6.00
   5   6  12   56.39   11.30
   5   6  12   71.99   11.10
   5   6  12   37.60   11.40
   5   6  12   33.60    8.10
   5   6  12   35.90    8.90
   2  -7 -12    2.20    1.90
   2  -7 -12    0.90    5.60
   2  -7 -12    3.00    1.80
  -2   7  12    5.40    6.00
  -2   7  12   -0.50    3.20
  -2   7  12    0.80    5.80
  -2   7  12   -3.00    7.80
  -2   7  12    4.40    3.40
   1  -7 -12   26.00    3.80
   1  -7 -12   11.90    6.40
   1  -7 -12   21.10    5.20
  -1   7  12   18.90    5.70
  -1   7  12   28.30    4.30
  -1   7  12   25.60    4.80
  -1   7  12   10.90    8.30
  -1   7  12   12.00    6.30
  -1   7  12   28.80    5.60
   0  -7 -12   87.19    8.10
   0  -7 -12   86.29    6.60
   0  -7 -12   83.19   10.30
   0  -7 -12   92.59    9.70
   0   7  12   84.19    9.60
   0   7  12   74.29    9.30
   0   7  12   99.99    8.10
   0   7  12   93.29   12.80
   0   7  12   92.89   14.30
  -1  -7 -12   66.69   10.10
  -1  -7 -12   46.70    6.00
  -1  -7 -12   39.60    5.00
  -1  -7 -12   51.29    7.80
   1   7  12   47.20    6.30
   1   7  12   49.99    8.30
   1   7  12   58.79    9.10
   1   7  12   33.80    8.10
   1   7  12   67.99    8.80
   1   7  12   43.80    7.40
  -2  -7 -12   13.70    5.10
  -2  -7 -12   -2.00    5.30
  -2  -7 -12    4.60    5.70
  -2  -7 -12   13.80    4.70
   2   7  12   16.40    5.50
   2   7  12   10.80    6.70
   2   7  12   10.20    7.00
   2   7  12   13.00    7.30
   2   7  12   16.50   12.50
   2   7  12   13.20    5.60
  -3  -7 -12   78.99    9.30
  -3  -7 -12   84.49    9.20
  -3  -7 -12   53.19    8.10
  -3  -7 -12   95.99   12.50
   3   7  12   76.49    8.50
   3   7  12   82.09   10.90
   3   7  12   64.39    8.70
   3   7  12   71.59   10.40
   3   7  12   61.19    9.00
   3   7  12   69.19   10.40
  -4  -7 -12   -9.10    5.10
  -4  -7 -12    0.50    4.80
   4   7  12    6.10    8.20
   4   7  12    2.70    6.60
   4   7  12  -11.50    6.80
   4   7  12    7.30    7.20
   4   7  12    6.40    7.40
  -5  -7 -12    0.70    4.40
  -5  -7 -12    1.10    6.30
  -5  -7 -12    2.60    6.60
   5   7  12   12.20    8.50
   5   7  12  -11.70    8.60
   5   7  12    2.30    8.90
   5   7  12   11.30    8.00
   1  -8 -12   15.30    3.30
   1  -8 -12   13.30    6.30
   1  -8 -12   21.60    5.40
   1  -8 -12   13.40    4.30
  -1   8  12   25.30    7.50
  -1   8  12   14.20    4.70
  -1   8  12   23.30    5.00
  -1   8  12   19.30    9.70
  -1   8  12   13.60    7.10
  -1   8  12   14.40    7.40
   0  -8 -12    2.80    4.80
   0  -8 -12    2.00    3.50
   0  -8 -12   -2.40    5.80
   0  -8 -12   -4.30    5.30
   0   8  12  -10.10    6.20
   0   8  12   10.10    6.80
   0   8  12    4.30    4.90
   0   8  12   -1.60    5.10
   0   8  12    6.50    8.40
  -1  -8 -12  207.28   13.30
  -1  -8 -12  208.38   10.80
  -1  -8 -12  217.08   14.10
   1   8  12  210.08   17.50
   1   8  12  195.78   15.70
   1   8  12  208.78   13.60
   1   8  12  229.98   18.20
   1   8  12  204.48   12.40
   1   8  12  207.48   13.90
  -2  -8 -12   74.49   10.70
  -2  -8 -12   60.99    8.80
  -2  -8 -12   52.49    6.60
   2   8  12   81.29   11.00
   2   8  12  101.19   14.90
   2   8  12   70.49    9.30
   2   8  12   76.29   11.00
   2   8  12   72.29   11.40
   2   8  12  101.49   13.60
  -3  -8 -12    9.70    5.50
  -3  -8 -12   11.80    7.20
  -3  -8 -12   12.10    6.10
   3   8  12    5.60    7.30
   3   8  12   10.30    7.80
   3   8  12   13.50    8.00
   3   8  12   10.70    5.90
   3   8  12   15.30    7.60
   3   8  12    5.00    7.00
  -4  -8 -12   45.40    7.30
  -4  -8 -12   43.60    6.70
   4   8  12   41.80    8.40
   4   8  12   40.70    8.70
   4   8  12   68.69   10.30
   4   8  12   64.89   10.50
   4   8  12   54.39   10.20
   4   8  12   60.89    9.20
   0  -9 -12   -9.30    5.90
   0  -9 -12   -2.50    5.90
   0   9  12    4.10    6.00
   0   9  12   -3.10    8.10
   0   9  12    2.80    9.40
  -1  -9 -12   -3.10    6.70
  -1  -9 -12   -0.60    4.50
  -1  -9 -12   -0.20    6.40
   1   9  12  -15.20    7.20
   1   9  12  -10.50    8.50
   1   9  12   21.00    8.10
   1   9  12   -1.20    6.00
  -2  -9 -12    9.30    8.00
  -2  -9 -12    5.70    5.10
  -2  -9 -12    9.00    6.50
   2   9  12    5.90    4.70
   2   9  12   13.50    9.80
   2   9  12   -1.50    6.90
   2   9  12    5.40    8.10
   2   9  12   -5.80    7.10
   2   9  12   21.70    9.30
  -3  -9 -12    2.20    7.20
  -3  -9 -12  -11.10    5.20
   3   9  12   -4.80    9.20
   3   9  12   -5.30    9.00
   3   9  12    1.70    7.80
   3   9  12  -10.20    5.60
   3   9  12   -3.70    8.40
   3   9  12    0.20    9.20
   2   7 -13   19.10    8.50
   2   7 -13    2.90    5.70
   2   7 -13   10.90    2.40
   2   7 -13    2.30    6.10
  -2  -7  13   14.40    6.50
  -2  -7  13   11.30    7.00
  -2  -7  13   23.20    7.50
   1   7 -13   24.60    6.90
   1   7 -13   33.60    3.90
   1   7 -13   27.70    3.70
   1   7 -13   24.10    8.10
  -1  -7  13   20.10    7.70
  -1  -7  13   28.20    6.90
  -1  -7  13   32.00    7.40
   0   7 -13  256.17   11.40
   0   7 -13  259.27   18.40
   0   7 -13  275.87   22.50
   0   7 -13  262.47   11.70
   0  -7  13  269.17   16.70
   0  -7  13  252.77   16.60
   0  -7  13  252.67   16.40
  -1   7 -13   23.80    5.20
  -1   7 -13   16.70    6.60
   1  -7  13   15.70    7.80
   1  -7  13   13.60    7.10
   3   6 -13   77.29    9.80
   3   6 -13   72.89   10.40
  -3  -6  13   61.99    7.70
  -3  -6  13   60.99    9.00
  -3  -6  13   53.29    7.00
   2   6 -13  404.36   17.10
   2   6 -13  365.06   21.00
  -2  -6  13  390.56   19.60
  -2  -6  13  397.16   17.80
  -2  -6  13  405.56   17.80
   1   6 -13   45.40    3.50
   1   6 -13   53.79    9.70
   1   6 -13   53.79    7.30
  -1  -6  13   38.30    7.20
  -1  -6  13   52.49    7.40
  -1  -6  13   59.99    8.90
   0   6 -13   13.20    3.10
   0   6 -13   14.90    3.00
   0   6 -13    9.00    7.30
   0   6 -13   16.30    5.60
   0  -6  13    2.30    6.40
   0  -6  13   13.30    6.40
   0  -6  13   15.30    6.30
  -1   6 -13   22.00    7.90
   1  -6  13   26.00    7.30
   1  -6  13   23.40    7.20
   1  -6  13   11.30    6.60
  -2   6 -13    4.20    4.30
  -2   6 -13   -7.60    5.90
   2  -6  13    5.50    7.50
   2  -6  13    2.80    6.80
   4   5 -13   93.59    8.80
   4   5 -13   93.39   14.00
   4   5 -13   89.49    9.00
   4   5 -13   77.09   11.60
  -4  -5  13   92.19   10.70
  -4  -5  13   84.89    9.50
  -4  -5  13   68.19   10.10
   3   5 -13  130.59   12.80
   3   5 -13  117.89   14.10
   3   5 -13  130.39    9.50
   3   5 -13  119.39   10.00
  -3  -5  13  126.19   10.30
  -3  -5  13  132.79   13.60
  -3  -5  13  135.79   10.40
   2   5 -13   16.40    5.20
   2   5 -13   16.70    7.90
   2   5 -13   25.00    5.30
  -2  -5  13   27.90    5.90
  -2  -5  13   24.70    7.20
  -2  -5  13   22.00    5.70
   1   5 -13    1.50    6.60
   1   5 -13    9.10    4.50
   1   5 -13    5.50    5.00
  -1  -5  13    1.70    5.40
  -1  -5  13    3.20    5.00
  -1  -5  13   -1.80    5.50
   0   5 -13  121.39   13.30
   0   5 -13  103.19    5.00
   0   5 -13   99.09    5.00
   0   5 -13  103.29   10.00
   0   5 -13  104.29   10.40
   0  -5  13  112.69   11.30
   0  -5  13  108.09   11.70
   0  -5  13  106.89   10.60
  -1   5 -13   15.80    9.30
  -1   5 -13   13.20    5.50
  -1   5 -13   18.10    6.50
  -1   5 -13   15.90    3.40
   1  -5  13   12.50    6.50
   1  -5  13   12.50    6.20
   1  -5  13   25.80    7.10
  -2   5 -13  258.57   14.50
  -2   5 -13  229.88   16.40
  -2   5 -13  216.28   11.00
   2  -5  13  232.08   15.30
   2  -5  13  220.88   16.10
   2  -5  13  219.08   15.00
  -3   5 -13    9.40    4.80
  -3   5 -13    9.10    6.60
   3  -5  13   10.30    8.70
   3  -5  13    4.70    7.10
   4   4 -13   34.80    4.50
   4   4 -13   46.80    5.40
   4   4 -13   34.50    8.80
  -4  -4  13   38.30    5.70
  -4  -4  13   42.30    5.70
  -4  -4  13   33.60    7.80
   3   4 -13   52.29    9.30
   3   4 -13   65.19    7.30
   3   4 -13   55.39    7.40
  -3  -4  13   66.29    9.10
  -3  -4  13   69.09    8.30
  -3  -4  13   55.59    7.80
   2   4 -13   33.40    5.10
   2   4 -13   25.30    4.70
   2   4 -13   22.20    7.20
  -2  -4  13   18.60    5.00
  -2  -4  13   27.20    5.10
  -2  -4  13   28.90    7.30
   1   4 -13   -3.20    3.80
   1   4 -13    3.90    4.20
   1   4 -13   -2.20    6.10
  -1  -4  13   -3.80    4.50
  -1  -4  13    1.00    5.10
  -1  -4  13   -4.80    4.30
   0   4 -13  403.66   17.00
   0   4 -13  429.56   20.50
   0   4 -13  436.26   17.50
   0  -4  13  423.96   18.40
   0  -4  13  415.46   17.50
  -1   4 -13    0.60    2.30
  -1   4 -13   10.50    4.70
  -1   4 -13   -0.50    4.70
  -1   4 -13   11.10    6.20
   1  -4  13  -11.70    4.80
   1  -4  13   -0.10    5.50
  -2   4 -13    6.20    5.10
  -2   4 -13   -3.60    5.20
  -2   4 -13    0.70    3.10
  -2   4 -13    0.50    6.20
   2  -4  13   -1.30    5.90
   2  -4  13    2.10    5.40
  -3   4 -13   -6.40    5.20
  -3   4 -13    8.00    6.90
  -3   4 -13   -3.00    5.50
  -3   4 -13   -0.80    3.90
   3  -4  13    1.60    7.20
   3  -4  13   -0.70    6.40
   3  -4  13    2.80    6.10
  -4   4 -13  163.18   14.30
  -4   4 -13  142.39   11.40
  -4   4 -13  162.28   15.40
  -4   4 -13  150.58   14.10
   4  -4  13  156.28   15.80
   4  -4  13  169.58   16.30
   5   3 -13   25.90    3.20
   5   3 -13   14.40    9.10
  -5  -3  13   23.90    8.70
  -5  -3  13   26.90    5.10
  -5  -3  13   18.20    4.50
   4   3 -13   -6.90    6.90
   4   3 -13   10.50    3.20
   4   3 -13    4.00    3.10
  -4  -3  13    8.70    4.00
  -4  -3  13    3.80    6.90
  -4  -3  13    5.30    3.80
   3   3 -13   32.20    4.30
   3   3 -13   30.40    4.20
   3   3 -13   38.00   10.00
  -3  -3  13   31.10    7.10
  -3  -3  13   31.10    4.50
  -3  -3  13   28.20    5.00
   2   3 -13   74.29    6.90
   2   3 -13   73.49    7.10
  -2  -3  13   66.19    7.40
  -2  -3  13   74.09    8.20
  -2  -3  13   55.39    8.00
   1   3 -13  349.07   22.80
   1   3 -13  367.46   14.90
   1   3 -13  375.86   14.70
  -1  -3  13  364.36   16.00
  -1  -3  13  371.96   15.00
   0   3 -13   16.00    9.90
   0   3 -13    2.50    3.80
   0   3 -13   12.10    4.60
   0  -3  13    3.20    4.10
   0  -3  13    2.90    5.10
   0  -3  13    8.50    5.70
  -1   3 -13   30.20   11.80
  -1   3 -13   18.60    4.90
  -1   3 -13   16.30    5.30
  -1   3 -13   16.80    2.30
  -1   3 -13   20.90    5.20
   1  -3  13   23.60    6.60
   1  -3  13   21.30    7.60
   1  -3  13   13.10    4.70
  -2   3 -13   51.99    6.90
  -2   3 -13   56.29    7.20
  -2   3 -13   51.69    8.90
  -2   3 -13   53.89    7.10
  -2   3 -13   46.80    5.40
   2  -3  13   67.99    9.40
   2  -3  13   42.00    7.40
   2  -3  13   59.69    9.90
  -3   3 -13   30.60    9.80
  -3   3 -13   54.19    7.60
  -3   3 -13   45.40    7.00
  -3   3 -13   42.30    6.90
  -3   3 -13   38.40    8.20
   3  -3  13   32.40    9.70
   3  -3  13   43.70    8.60
   3  -3  13   62.99    8.50
  -4   3 -13  121.79   13.70
  -4   3 -13  136.19   10.70
  -4   3 -13  139.19   12.60
  -4   3 -13  132.39   13.70
   4  -3  13  126.69   15.70
   4  -3  13  130.49   14.50
   5   2 -13   65.19   10.40
  -5  -2  13   69.89    9.70
  -5  -2  13   71.69    6.80
   4   2 -13   -4.40    7.10
   4   2 -13   -2.20    2.30
   4   2 -13    0.80    2.10
   4   2 -13    0.10    5.40
  -4  -2  13   -3.60    3.50
  -4  -2  13   -5.50    6.10
  -4  -2  13   -4.20    3.00
   3   2 -13  124.69    7.60
   3   2 -13  133.29    7.00
   3   2 -13  116.89   11.00
  -3  -2  13  119.79    7.80
  -3  -2  13  144.19    8.90
  -3  -2  13  131.09   12.30
   2   2 -13  154.78   13.10
   2   2 -13  123.49   10.00
   2   2 -13  123.79    7.60
   2   2 -13  127.59    7.80
  -2  -2  13  125.79    9.10
  -2  -2  13  135.59    8.20
   1   2 -13  108.59    7.70
   1   2 -13  121.89   12.10
   1   2 -13  105.79    9.30
   1   2 -13  106.29    7.70
  -1  -2  13   91.69   11.10
  -1  -2  13  111.99    9.10
  -1  -2  13  114.69    7.90
   0   2 -13    4.50    3.60
   0   2 -13    6.50    3.90
   0   2 -13    5.60    5.50
   0  -2  13   -1.20    3.80
   0  -2  13   -1.30    4.20
   0  -2  13    1.80    5.30
  -1   2 -13   97.69    8.80
  -1   2 -13   91.99    9.50
  -1   2 -13  100.99   11.80
  -1   2 -13   99.39    8.60
   1  -2  13   89.39   10.00
   1  -2  13   98.89    8.80
   1  -2  13  103.39   11.00
  -2   2 -13   27.30    5.50
  -2   2 -13   28.00    3.50
  -2   2 -13   20.70    5.00
  -2   2 -13   24.00    5.20
  -2   2 -13   22.60    8.80
   2  -2  13   22.50    5.80
   2  -2  13   26.90    7.10
  -3   2 -13   -3.00    4.70
  -3   2 -13    3.00    3.50
  -3   2 -13   -3.90    4.90
  -3   2 -13   -5.30    5.30
  -3   2 -13   -0.20    6.20
   3  -2  13    6.30    5.40
   3  -2  13   -5.90    6.20
  -4   2 -13    1.50    6.20
  -4   2 -13    5.20    5.80
  -4   2 -13    1.90    6.70
  -4   2 -13    4.50    4.40
   4  -2  13   -4.30    6.50
   4  -2  13   -7.30    6.70
   4  -2  13   -3.60    7.00
  -5   2 -13   12.90    7.50
  -5   2 -13   20.70    6.60
  -5   2 -13   17.30    7.30
   5  -2  13   10.10    9.10
   5  -2  13    2.90    8.50
   5   1 -13   24.60    8.80
   5   1 -13   24.00    6.60
  -5  -1  13   24.70    7.60
   4   1 -13  102.79   11.90
   4   1 -13  107.89    4.20
   4   1 -13   97.29   11.60
  -4  -1  13   98.99    7.10
  -4  -1  13   93.59    6.90
  -4  -1  13  120.99   19.30
  -4  -1  13   96.99   12.50
   3   1 -13   18.90    2.80
   3   1 -13   16.00    6.10
  -3  -1  13   14.10    3.90
  -3  -1  13   19.20    7.20
  -3  -1  13    8.60    7.20
  -3  -1  13   13.90    3.20
   2   1 -13   78.19    9.80
   2   1 -13   58.89    8.30
   2   1 -13   69.89    6.10
   2   1 -13   66.49    5.70
  -2  -1  13   54.09    7.80
  -2  -1  13   63.09    6.10
  -2  -1  13   66.39    7.40
  -2  -1  13   52.29    7.50
   1   1 -13   51.29    5.90
   1   1 -13   44.90    6.00
   1   1 -13   41.70    7.80
   1   1 -13   35.90    6.10
  -1  -1  13   62.49    8.30
  -1  -1  13   55.49    6.20
  -1  -1  13   48.60    7.70
  -1  -1  13   54.89    7.50
   0   1 -13   44.60    6.20
   0   1 -13   59.69    8.40
   0   1 -13   50.09    6.30
   0   1 -13   56.89    7.20
   0   1 -13   53.39    6.50
   0  -1  13   56.19    8.10
   0  -1  13   46.40    7.30
   0  -1  13   50.89    7.50
   0  -1  13   64.19    6.90
  -1   1 -13  184.28   13.60
  -1   1 -13  184.38   10.30
  -1   1 -13  187.48   10.40
  -1   1 -13  178.78    9.90
  -1   1 -13  187.28   11.50
   1  -1  13  185.58   13.30
   1  -1  13  196.18   12.30
   1  -1  13  182.08    9.60
   1  -1  13  208.18   10.80
  -2   1 -13  847.82   27.70
  -2   1 -13  818.12   28.80
  -2   1 -13  830.52   27.90
  -2   1 -13  808.72   24.90
  -2   1 -13  832.92   30.60
   2  -1  13  814.32   30.40
   2  -1  13  847.82   27.80
   2  -1  13  796.92   29.50
   2  -1  13  790.42   25.60
  -3   1 -13   22.80    4.10
  -3   1 -13   24.00    6.20
  -3   1 -13   21.30    6.90
  -3   1 -13   29.40    6.20
   3  -1  13   21.50    5.80
   3  -1  13   19.00    6.70
  -4   1 -13  112.09   14.40
  -4   1 -13  115.89    9.50
  -4   1 -13  106.09   11.50
  -4   1 -13  136.89   12.30
  -4   1 -13  118.99   15.90
   4  -1  13  121.79   14.00
   4  -1  13  126.19   12.50
   4  -1  13  140.59   14.20
  -5   1 -13    9.20    6.40
  -5   1 -13    7.50    5.90
  -5   1 -13   11.40    6.90
   5  -1  13   -0.40    8.70
   5  -1  13   18.40    8.60
   5   0 -13   46.60    7.70
  -5   0  13   60.69    9.20
  -5   0  13   48.60    8.80
   4   0 -13   97.69   13.70
   4   0 -13   92.39   10.80
  -4   0  13   86.89    5.60
  -4   0  13   74.89    4.90
  -4   0  13   57.99   10.20
  -4   0  13   85.89   10.20
   3   0 -13   66.99    4.10
   3   0 -13   73.19    9.70
   3   0 -13   62.29    4.20
   3   0 -13   67.19   10.90
  -3   0  13   56.39    6.60
  -3   0  13   61.99    5.40
  -3   0  13   82.19   12.40
   2   0 -13    1.40    6.10
   2   0 -13   -1.70    4.00
   2   0 -13    1.20    2.50
   2   0 -13    3.70    2.60
  -2   0  13    1.10    2.80
  -2   0  13    2.00    5.90
  -2   0  13    5.50    3.50
  -2   0  13    4.20    5.60
   1   0 -13  118.49    9.60
   1   0 -13  144.99    7.60
   1   0 -13  119.89   12.20
   1   0 -13  128.99    7.40
  -1   0  13  148.39   10.80
  -1   0  13  142.49   11.70
  -1   0  13  141.09    7.90
  -1   0  13  137.29    9.20
   0   0 -13   -0.20    4.30
   0   0 -13   -0.70    3.50
   0   0 -13   -4.50    5.60
   0   0 -13   -0.30    2.80
   0   0 -13    0.20    3.00
   0   0  13    1.50    4.50
   0   0  13   -6.40    4.90
   0   0  13    2.50    4.20
   0   0  13   -1.00    3.30
  -1   0 -13  125.89   10.00
  -1   0 -13  144.59    8.60
  -1   0 -13  140.99    8.80
  -1   0 -13  108.19    8.60
  -1   0 -13  135.69   12.00
   1   0  13  138.19    9.00
   1   0  13  132.59    8.80
   1   0  13  106.99   11.30
   1   0  13  116.29   10.30
  -2   0 -13  203.28   11.90
  -2   0 -13  172.48   10.50
  -2   0 -13  187.78    8.20
  -2   0 -13  200.48   13.90
  -2   0 -13  182.48   11.10
  -2   0 -13  191.98   10.00
   2   0  13  201.98   11.40
   2   0  13  190.78   13.40
   2   0  13  190.98   13.10
   2   0  13  218.18   14.30
  -3   0 -13   42.50    5.90
  -3   0 -13   33.90    6.20
  -3   0 -13   39.30    5.90
  -3   0 -13   40.40    6.50
  -3   0 -13   36.30    7.20
   3   0  13   45.00    6.70
   3   0  13   32.00   11.90
   3   0  13   32.90    9.50
   3   0  13   34.00    5.20
  -4   0 -13  267.17   14.80
  -4   0 -13  244.68   15.50
  -4   0 -13  245.08   13.90
  -4   0 -13  241.08   12.30
  -4   0 -13  240.58   15.10
   4   0  13  264.87   16.80
   4   0  13  245.48   14.30
   4   0  13  272.67   17.10
   4   0  13  241.98    9.30
  -5   0 -13   -4.70    5.20
  -5   0 -13   -1.10    6.10
   5   0  13   -7.60    5.30
   5   0  13  -13.60    8.20
   5   0  13    1.90    8.60
   4  -1 -13   24.00    6.70
  -4   1  13   26.00    7.20
  -4   1  13   41.10    9.80
  -4   1  13   51.69   10.20
   3  -1 -13  663.43   27.50
   3  -1 -13  660.43   25.00
  -3   1  13  663.03   27.40
  -3   1  13  633.24   20.00
  -3   1  13  664.63   26.50
  -3   1  13  689.63   26.40
  -3   1  13  660.83   26.40
  -3   1  13  549.35   32.70
  -3   1  13  654.03   20.60
   2  -1 -13   20.30    5.10
   2  -1 -13   22.50    3.00
   2  -1 -13   22.50    8.20
  -2   1  13   22.50    6.60
  -2   1  13   17.20    3.10
  -2   1  13   21.90    4.10
  -2   1  13   38.70    7.30
  -2   1  13   20.10    6.70
   1  -1 -13   -0.20    2.60
   1  -1 -13   -1.00    4.20
   1  -1 -13    3.90    3.00
   1  -1 -13   -2.40    4.20
   1  -1 -13    1.40    5.70
  -1   1  13   -2.90    2.70
  -1   1  13   -3.40    5.30
  -1   1  13   -3.90    3.60
  -1   1  13   -7.90    4.60
   0  -1 -13   68.99    6.30
   0  -1 -13   69.19    7.80
   0  -1 -13   72.59   11.10
   0  -1 -13   64.79    6.00
   0  -1 -13   60.59    8.00
   0   1  13   58.19    8.00
   0   1  13   60.19    8.00
   0   1  13   67.79    6.60
   0   1  13   66.09    8.40
  -1  -1 -13    3.90    3.40
  -1  -1 -13    1.10    3.70
  -1  -1 -13    1.70    3.20
  -1  -1 -13   -7.90    5.10
  -1  -1 -13    1.40    4.20
   1   1  13    0.10    3.70
   1   1  13   -1.00    3.90
   1   1  13   -4.40    5.10
   1   1  13    0.10    4.60
  -2  -1 -13   94.89    8.90
  -2  -1 -13   87.49    8.10
  -2  -1 -13   68.49    7.50
  -2  -1 -13   71.09    7.30
  -2  -1 -13   70.49    5.50
  -2  -1 -13   75.09   10.50
   2   1  13   78.39   11.00
   2   1  13   88.69   10.30
   2   1  13   81.49    7.20
   2   1  13   76.09    8.40
  -3  -1 -13   54.79    6.40
  -3  -1 -13   69.19    7.90
  -3  -1 -13   53.09    7.90
  -3  -1 -13   49.00    6.20
  -3  -1 -13   58.09    6.70
  -3  -1 -13   54.79    6.30
   3   1  13   68.99    7.40
   3   1  13   59.79    7.90
   3   1  13   56.79    6.40
  -4  -1 -13   70.49    8.00
  -4  -1 -13   81.39    9.50
  -4  -1 -13   86.79   10.40
  -4  -1 -13  107.29   12.00
  -4  -1 -13   76.19   10.10
   4   1  13   68.39    8.10
   4   1  13   72.59   10.30
   4   1  13   63.09    9.80
   4   1  13   72.99   10.40
  -5  -1 -13    4.90    6.70
  -5  -1 -13    2.30    5.80
  -5  -1 -13   -3.90    5.90
   5   1  13   10.70    5.80
   5   1  13    9.30    8.00
   5   1  13    5.90    7.90
   5   1  13   -0.40    7.70
   4  -2 -13   -1.40    5.90
  -4   2  13    8.60    9.60
  -4   2  13    1.10    6.80
  -4   2  13    5.60   10.10
  -4   2  13    3.20    2.40
   3  -2 -13    8.40    5.70
   3  -2 -13    6.10    6.90
  -3   2  13    2.40    6.30
  -3   2  13   -2.20    8.00
  -3   2  13    2.10    2.10
  -3   2  13   -9.00    5.60
  -3   2  13   -5.40    6.80
  -3   2  13    6.80    7.80
  -3   2  13    3.60    2.60
   2  -2 -13    9.00    5.70
   2  -2 -13    6.40    7.50
   2  -2 -13    0.90    2.10
  -2   2  13    0.40    3.50
  -2   2  13   -3.30    6.10
  -2   2  13    3.10    8.30
  -2   2  13    5.20    2.50
  -2   2  13   10.20    6.50
  -2   2  13    1.00    5.40
   1  -2 -13  110.09    9.60
   1  -2 -13  111.59    9.30
   1  -2 -13  117.89    6.50
   1  -2 -13  111.39   12.40
  -1   2  13  108.99    6.90
  -1   2  13  117.59   11.00
  -1   2  13  101.19   11.40
  -1   2  13   99.79    8.50
  -1   2  13  105.69   11.10
  -1   2  13  112.69   12.10
   0  -2 -13   67.69    7.90
   0  -2 -13   62.99    6.10
   0  -2 -13   81.29    6.70
   0  -2 -13   80.19   10.70
   0  -2 -13   81.29    8.50
   0   2  13   69.79   10.30
   0   2  13   65.59    9.80
   0   2  13   83.49    6.80
   0   2  13   73.19    8.20
   0   2  13   73.19    8.70
  -1  -2 -13    3.60    3.30
  -1  -2 -13   -2.00    5.60
  -1  -2 -13    4.50    3.40
  -1  -2 -13   16.00    4.90
  -1  -2 -13   -0.80    3.60
   1   2  13    2.80    3.60
   1   2  13    6.80    5.40
   1   2  13    3.40    2.10
   1   2  13   -0.20    4.50
   1   2  13    0.80    5.30
   1   2  13    4.80    4.20
  -2  -2 -13  105.99    8.20
  -2  -2 -13  108.59    8.50
  -2  -2 -13   99.89   11.60
  -2  -2 -13  105.99    8.80
  -2  -2 -13   93.89    9.60
   2   2  13   99.99   11.70
   2   2  13  106.79   11.00
   2   2  13   81.09   10.90
   2   2  13  110.19    6.60
   2   2  13  107.59    9.00
  -3  -2 -13  233.68   12.70
  -3  -2 -13  222.58   13.60
  -3  -2 -13  210.08   14.30
  -3  -2 -13  218.98   10.30
  -3  -2 -13  226.48   10.70
  -3  -2 -13  228.58   12.30
   3   2  13  213.28   10.60
   3   2  13  210.68   12.30
   3   2  13  221.38   13.90
  -4  -2 -13   -5.20    3.90
  -4  -2 -13   -1.60    3.30
  -4  -2 -13   -2.20    4.70
  -4  -2 -13    4.30    5.80
  -4  -2 -13   -4.70    6.00
  -4  -2 -13    6.40    5.80
   4   2  13   -3.70    5.70
   4   2  13   13.90    5.70
   4   2  13   -4.80    6.50
   4   2  13  -10.10    7.00
  -5  -2 -13   -4.70    5.30
  -5  -2 -13   -1.40    5.20
  -5  -2 -13   -8.10    6.10
   5   2  13   -0.60    5.50
   5   2  13    0.50    8.00
   5   2  13   11.40    9.00
   5   2  13   13.20    7.50
   4  -3 -13   -4.80    5.40
  -4   3  13    1.80    9.60
  -4   3  13   25.80    9.40
  -4   3  13   -0.70    3.50
  -4   3  13   -4.80    7.80
   3  -3 -13   42.10   12.10
  -3   3  13   52.49    3.20
  -3   3  13   48.60    5.00
  -3   3  13   86.59   12.40
  -3   3  13   46.30    9.10
  -3   3  13   50.09    7.70
  -3   3  13   56.69   15.00
  -3   3  13   45.80   16.80
  -3   3  13   49.20    3.60
  -3   3  13   52.59    5.10
   2  -3 -13   10.60    2.10
   2  -3 -13   11.70    1.90
   2  -3 -13   16.80    6.00
   2  -3 -13   10.30    6.80
  -2   3  13    9.50    2.20
  -2   3  13   10.80    2.30
  -2   3  13   14.30    6.20
  -2   3  13   21.20    7.40
  -2   3  13    0.60    6.90
  -2   3  13    7.10    7.40
  -2   3  13   11.30    2.70
  -2   3  13   12.10    3.70
   1  -3 -13  597.54   23.30
   1  -3 -13  629.94   20.00
   1  -3 -13  602.84   23.10
  -1   3  13  618.14   18.60
  -1   3  13  669.63   28.50
  -1   3  13  632.74   20.40
  -1   3  13  628.44   24.90
  -1   3  13  648.24   21.80
  -1   3  13  653.03   25.50
  -1   3  13  666.93   24.90
   0  -3 -13    2.40    3.00
   0  -3 -13    4.80    4.50
   0  -3 -13    0.60    2.80
   0  -3 -13    6.00    6.10
   0  -3 -13    0.60    4.40
   0   3  13   10.50    6.10
   0   3  13    3.20    5.70
   0   3  13   -1.20    4.70
   0   3  13   -3.30    5.40
   0   3  13    2.10    4.60
   0   3  13    4.00    3.50
   0   3  13    5.50    2.20
  -1  -3 -13    7.90    3.50
  -1  -3 -13    0.40    5.50
  -1  -3 -13    6.00    4.40
  -1  -3 -13    6.60    3.50
  -1  -3 -13   11.60    5.00
   1   3  13    3.80    5.10
   1   3  13   15.70    7.40
   1   3  13   -0.40    5.70
   1   3  13    1.20    5.70
   1   3  13    9.70    2.70
  -2  -3 -13   42.60    6.40
  -2  -3 -13   53.89    8.00
  -2  -3 -13   52.99    6.10
  -2  -3 -13   59.79    7.50
  -2  -3 -13   49.80    7.00
   2   3  13   61.29    8.80
   2   3  13   55.09    6.50
   2   3  13   64.39    9.70
   2   3  13   55.69    8.00
   2   3  13   57.29    8.00
  -3  -3 -13   22.90    4.40
  -3  -3 -13   29.20    6.60
  -3  -3 -13   18.20    6.20
  -3  -3 -13   14.30    4.90
  -3  -3 -13   18.90    4.50
  -3  -3 -13   16.90    5.20
   3   3  13   27.10    5.90
   3   3  13   11.00    6.00
   3   3  13    8.10    6.40
   3   3  13   20.70    7.00
  -4  -3 -13  129.89   13.00
  -4  -3 -13  129.39   12.30
  -4  -3 -13  113.59   11.60
  -4  -3 -13  126.19    8.30
  -4  -3 -13  123.19    9.40
  -4  -3 -13  125.99   10.70
   4   3  13  112.59   14.20
   4   3  13  111.19   10.30
   4   3  13  126.89   11.60
   4   3  13  138.79   12.30
   4   3  13  138.39   13.60
  -5  -3 -13    3.80    3.60
  -5  -3 -13   -3.00    6.00
  -5  -3 -13    8.40    5.60
  -5  -3 -13    1.50    5.50
   5   3  13    7.00    6.20
   5   3  13  -13.40    7.60
   5   3  13    8.90    9.00
   5   3  13    4.60    8.60
   5   3  13   16.30    6.50
   3  -4 -13   10.40    5.70
  -3   4  13   12.50    7.60
  -3   4  13    7.90    6.60
  -3   4  13   13.80    4.50
  -3   4  13   10.50    3.70
  -3   4  13    8.50    7.60
   2  -4 -13   -1.20    1.40
   2  -4 -13   -5.00    5.50
  -2   4  13    8.60    8.50
  -2   4  13    1.20    2.50
  -2   4  13    7.70    6.30
  -2   4  13    0.90    3.30
  -2   4  13   -1.20    7.60
  -2   4  13   -1.90    6.80
  -2   4  13   -0.60    3.00
  -2   4  13    0.90    5.60
   1  -4 -13    4.10    2.60
   1  -4 -13    0.70    4.30
   1  -4 -13   -0.10    4.50
   1  -4 -13    0.60    6.50
   1  -4 -13   -0.10    2.40
  -1   4  13    6.40    3.20
  -1   4  13    5.20    2.90
  -1   4  13   -3.00    3.90
  -1   4  13    6.70    6.90
  -1   4  13   -5.60    6.00
  -1   4  13    7.60    5.90
  -1   4  13    2.80    7.00
   0  -4 -13    5.20    5.00
   0  -4 -13    0.10    3.20
   0  -4 -13    9.10    4.50
   0  -4 -13    7.20    7.10
   0   4  13    4.50    4.70
   0   4  13    5.00    3.10
   0   4  13    9.10    3.60
   0   4  13    1.20    6.00
   0   4  13   14.30    6.70
  -1  -4 -13   80.49    7.10
  -1  -4 -13   60.09    7.20
  -1  -4 -13   77.79    8.50
  -1  -4 -13   82.89    8.90
  -1  -4 -13   53.09    8.10
   1   4  13   68.29    6.30
   1   4  13   86.89   11.10
   1   4  13   71.89   10.50
   1   4  13   60.59    8.60
   1   4  13   63.99    7.70
   1   4  13   52.19    7.90
  -2  -4 -13   -6.30    5.50
  -2  -4 -13   -0.80    4.10
  -2  -4 -13   -2.80    5.20
  -2  -4 -13   -0.40    3.90
  -2  -4 -13   -5.70    3.80
   2   4  13    1.10    4.70
   2   4  13    0.40    6.60
   2   4  13    4.90    6.00
   2   4  13    2.90    3.70
  -3  -4 -13  259.27   13.30
  -3  -4 -13  257.87   15.20
  -3  -4 -13  264.87   14.00
  -3  -4 -13  265.47   12.50
  -3  -4 -13  263.57   12.40
  -3  -4 -13  292.97   15.90
   3   4  13  249.68   13.60
   3   4  13  275.87   16.30
   3   4  13  248.58   15.90
   3   4  13  266.07   12.60
   3   4  13  261.27   16.40
  -4  -4 -13   30.30    8.00
  -4  -4 -13   22.00    6.70
  -4  -4 -13   37.10    5.10
  -4  -4 -13   21.70    5.10
  -4  -4 -13   24.60    5.90
  -4  -4 -13   29.80    8.40
   4   4  13   25.30    7.30
   4   4  13   21.90    5.60
   4   4  13   33.40    7.50
   4   4  13   21.10    8.20
   4   4  13   27.60    8.20
  -5  -4 -13   17.30    4.50
  -5  -4 -13   16.70    6.20
  -5  -4 -13   15.10    5.90
  -5  -4 -13    7.10    6.30
   5   4  13    5.00   10.00
   5   4  13    0.00    7.90
   5   4  13    7.80    8.70
   5   4  13    9.20    7.20
   5   4  13   23.90    7.10
   3  -5 -13   -2.10    5.50
  -3   5  13  -14.30    7.90
  -3   5  13    2.30    6.50
  -3   5  13    5.60    7.70
   2  -5 -13   17.10    7.00
   2  -5 -13   18.00    2.40
  -2   5  13   15.70    6.70
  -2   5  13    1.70    7.30
  -2   5  13    8.70    6.40
  -2   5  13   17.80    4.10
  -2   5  13   13.80    3.20
  -2   5  13   20.90    3.60
   1  -5 -13    8.10    5.90
   1  -5 -13    7.40    2.60
   1  -5 -13    9.20    2.90
   1  -5 -13    4.60    5.10
  -1   5  13    9.30    3.40
  -1   5  13   21.00    6.40
  -1   5  13    4.80    4.30
  -1   5  13   13.70    5.30
  -1   5  13    7.60    9.00
  -1   5  13   11.90    7.40
  -1   5  13   10.10    6.90
   0  -5 -13   -0.40    4.30
   0  -5 -13    4.50    3.50
   0  -5 -13    5.90    3.00
   0  -5 -13    2.40    5.30
   0   5  13    2.60    3.80
   0   5  13   -0.40    7.30
   0   5  13   -5.50    4.60
   0   5  13    2.80    3.60
   0   5  13   12.90    6.60
   0   5  13    6.60    6.20
  -1  -5 -13   86.29    9.70
  -1  -5 -13   69.19    7.80
  -1  -5 -13   87.59   11.60
  -1  -5 -13   87.49    8.70
   1   5  13   83.59   11.60
   1   5  13   84.99    9.60
   1   5  13   70.59    7.50
   1   5  13   79.49   10.30
   1   5  13   95.09   11.90
   1   5  13   82.79   12.30
  -2  -5 -13   87.09    9.20
  -2  -5 -13   87.29   11.90
  -2  -5 -13   94.49   10.50
  -2  -5 -13   86.29    8.40
  -2  -5 -13   86.39    9.10
   2   5  13   91.29    8.90
   2   5  13  109.39   12.00
   2   5  13  109.09   11.40
   2   5  13   94.79   14.30
   2   5  13   88.79    8.80
  -3  -5 -13  130.19   12.60
  -3  -5 -13  129.79    9.50
  -3  -5 -13  141.79   13.10
  -3  -5 -13  124.89   11.50
  -3  -5 -13  134.29   10.10
   3   5  13  134.69   13.50
   3   5  13  116.69   14.10
   3   5  13  132.59   10.80
   3   5  13  116.59   16.40
   3   5  13  130.39   10.60
  -4  -5 -13    6.20    5.20
  -4  -5 -13    1.30    4.70
  -4  -5 -13    9.50    6.50
  -4  -5 -13    8.60    4.30
   4   5  13   -1.80    7.70
   4   5  13    8.00    5.80
   4   5  13    4.40    9.90
   4   5  13   -7.70    7.20
   4   5  13    8.30    6.60
  -5  -5 -13  179.58   13.80
  -5  -5 -13  169.28   10.10
  -5  -5 -13  207.18   13.60
  -5  -5 -13  150.38   19.00
   5   5  13  182.88   15.10
   5   5  13  187.18   18.60
   5   5  13  156.08   15.10
   5   5  13  191.68   17.80
   2  -6 -13   18.70    6.30
  -2   6  13   18.80    5.70
  -2   6  13   27.70    7.40
  -2   6  13   21.60    3.80
  -2   6  13   21.70    3.80
  -2   6  13   29.10    9.20
  -2   6  13   21.40    7.10
   1  -6 -13   21.30    5.70
   1  -6 -13   18.90    3.60
   1  -6 -13   31.80    7.70
  -1   6  13   32.50    5.60
  -1   6  13   18.80    4.10
  -1   6  13   21.70    8.10
  -1   6  13   30.60    7.20
  -1   6  13   19.20    4.90
   0  -6 -13    1.90    5.30
   0  -6 -13    2.50    3.10
   0  -6 -13    6.40    3.90
   0  -6 -13    9.20    5.40
   0   6  13   -0.30    4.10
   0   6  13    0.80    8.30
   0   6  13    6.10    5.90
   0   6  13    3.20    4.60
   0   6  13    4.50    7.10
  -1  -6 -13   -1.90    4.30
  -1  -6 -13    8.20    5.60
  -1  -6 -13   -2.80    3.90
  -1  -6 -13    0.90    5.10
   1   6  13    1.60    5.60
   1   6  13    3.70    7.10
   1   6  13   -1.00    7.40
   1   6  13   -1.20    4.50
   1   6  13    4.70    7.90
   1   6  13    5.90    4.70
  -2  -6 -13   -5.10    6.00
  -2  -6 -13   -3.80    4.80
  -2  -6 -13   -3.80    4.20
  -2  -6 -13    0.70    4.40
   2   6  13    1.60    6.80
   2   6  13    7.70    5.00
   2   6  13   -1.70    7.50
   2   6  13   -5.10    6.30
   2   6  13   -4.70    6.70
   2   6  13   -7.50    5.00
  -3  -6 -13   25.20    7.50
  -3  -6 -13   17.40    5.20
   3   6  13   28.60    7.20
   3   6  13   21.40    7.70
   3   6  13    7.20    6.00
   3   6  13   15.60    7.70
   3   6  13   26.10    9.00
   3   6  13   34.50    6.50
  -4  -6 -13   95.39    9.20
   4   6  13   75.59   12.00
   4   6  13  102.09   13.90
   4   6  13  109.49   14.70
   4   6  13  114.59   12.20
   4   6  13   99.89   12.60
  -5  -6 -13    5.60    6.20
  -5  -6 -13   10.50    4.50
   5   6  13   10.60    9.10
   5   6  13   -3.90    7.90
   5   6  13    4.00    9.00
   5   6  13   11.20    8.90
   5   6  13    9.40    9.90
   1  -7 -13   -5.90    5.50
   1  -7 -13    0.80    3.50
   1  -7 -13    3.10    5.70
  -1   7  13    6.70    4.00
  -1   7  13    3.70    6.70
  -1   7  13   -0.40    5.60
  -1   7  13   -8.00    8.20
  -1   7  13   -3.00    4.30
  -1   7  13    2.80    5.80
   0  -7 -13   50.49    7.40
   0  -7 -13   25.90    5.30
   0  -7 -13   24.90    6.80
   0  -7 -13   30.50    4.30
   0   7  13   47.70    6.60
   0   7  13   35.20    6.30
   0   7  13   41.70    5.70
   0   7  13   16.50    8.60
   0   7  13   42.00    8.70
  -1  -7 -13  142.59   12.40
  -1  -7 -13  134.19   11.30
  -1  -7 -13  109.29    8.90
  -1  -7 -13  111.19   12.40
   1   7  13  120.39   10.30
   1   7  13  111.59   12.00
   1   7  13  130.59   14.20
   1   7  13  117.39   14.90
   1   7  13  127.29   15.90
   1   7  13  130.29   11.40
  -2  -7 -13   18.80    8.20
  -2  -7 -13    4.00    5.00
  -2  -7 -13    2.20    4.50
   2   7  13    5.30    5.90
   2   7  13    2.50    7.10
   2   7  13   -3.40    8.20
   2   7  13    1.40    6.20
   2   7  13  -11.30    7.20
   2   7  13    1.60    7.40
  -3  -7 -13   -7.50    5.10
  -3  -7 -13   -3.30    4.50
   3   7  13   -0.20    8.00
   3   7  13   -0.40    6.40
   3   7  13    1.70    7.30
   3   7  13   -6.90    7.30
   3   7  13    7.20    6.90
   3   7  13   16.50    8.80
  -4  -7 -13   15.50    7.00
  -4  -7 -13   15.90    5.30
   4   7  13   14.00    8.50
   4   7  13   11.30    8.30
   4   7  13    7.60    8.30
   4   7  13    9.50    8.00
   0  -8 -13    7.90    6.10
   0  -8 -13    2.70    6.00
   0  -8 -13   -4.70    5.20
   0  -8 -13   -4.80    3.60
   0   8  13    3.80    7.20
   0   8  13    8.00    5.80
   0   8  13    7.60    5.60
   0   8  13   -5.70    9.10
   0   8  13    4.80    5.60
  -1  -8 -13  156.88   10.50
  -1  -8 -13  199.58   14.30
  -1  -8 -13  206.78   14.90
   1   8  13  163.48   13.90
   1   8  13  183.68   12.80
   1   8  13  185.48   14.20
   1   8  13  162.18   17.90
   1   8  13  209.68   16.60
  -2  -8 -13   74.89   10.90
  -2  -8 -13   61.39    7.10
  -2  -8 -13   70.59   10.20
   2   8  13   58.39   13.10
   2   8  13   51.79   10.30
   2   8  13   72.69    9.80
   2   8  13   71.79   11.80
   2   8  13   74.09    9.20
   2   8  13   65.09    8.40
  -3  -8 -13   39.50    8.80
  -3  -8 -13   34.10    6.60
   3   8  13   21.90    9.80
   3   8  13   39.90    9.30
   3   8  13   50.09    8.90
   3   8  13   38.60    9.70
   3   8  13   34.70    8.90
   2   6 -14    6.70    8.50
   2   6 -14    5.70    5.50
  -2  -6  14    8.00    6.50
  -2  -6  14    4.50    7.70
  -2  -6  14   17.90    6.50
   1   6 -14   -2.10    5.50
   1   6 -14   -7.70    7.50
  -1  -6  14   -3.60    6.40
  -1  -6  14    9.90    6.60
  -1  -6  14   10.60    6.80
   0   6 -14  146.49   16.40
   0   6 -14  149.09    6.70
   0   6 -14  183.38   13.40
   0   6 -14  144.49    6.70
   0  -6  14  154.28   14.00
   0  -6  14  143.69   14.60
   0  -6  14  166.38   14.60
  -1   6 -14   13.80    3.90
  -1   6 -14    3.40    7.90
  -1   6 -14   10.10    6.80
   1  -6  14   11.90    8.10
   1  -6  14    8.50    7.30
   1  -6  14   11.70    8.10
   3   5 -14   30.70    8.80
   3   5 -14   27.50    5.30
  -3  -5  14   39.00    6.60
  -3  -5  14   24.70    6.10
  -3  -5  14   32.90    8.90
   2   5 -14   21.10    8.80
   2   5 -14   25.80    5.70
  -2  -5  14   30.80    6.40
  -2  -5  14   17.80    7.60
  -2  -5  14   23.50    6.30
   1   5 -14   -0.60    4.90
   1   5 -14    0.80    7.00
  -1  -5  14    2.70    5.90
  -1  -5  14   10.10    5.90
  -1  -5  14   -4.30    6.60
   0   5 -14   43.70    8.70
   0   5 -14   72.69   10.40
   0  -5  14   45.30    8.20
   0  -5  14   48.30    7.40
   0  -5  14   61.39    8.50
  -1   5 -14    6.40    7.00
  -1   5 -14    6.10    2.90
  -1   5 -14   21.80    6.50
   1  -5  14    0.00    6.70
   1  -5  14    2.20    6.60
   1  -5  14    5.30    6.50
  -2   5 -14  110.99   13.10
  -2   5 -14  102.99    8.40
  -2   5 -14  101.89   14.60
   2  -5  14  116.59   16.40
   2  -5  14  108.09   14.80
   2  -5  14  117.29   14.20
   3   4 -14   -1.50    4.60
   3   4 -14   -2.80    7.60
   3   4 -14    7.10    4.40
  -3  -4  14    4.80    5.20
  -3  -4  14   -2.80    4.50
  -3  -4  14   12.40    7.50
   2   4 -14  101.89    9.70
   2   4 -14  134.39   14.30
   2   4 -14  117.29    9.60
  -2  -4  14  125.39   13.30
  -2  -4  14  119.09   10.60
  -2  -4  14  118.49   10.20
   1   4 -14   12.60    7.20
   1   4 -14   10.70    5.00
   1   4 -14    6.00    4.70
  -1  -4  14   13.50    6.20
  -1  -4  14   11.30    5.20
  -1  -4  14   10.60    7.00
   0   4 -14   80.69    9.70
   0   4 -14  110.39   15.70
   0   4 -14  111.09   12.60
   0  -4  14   94.59   12.50
   0  -4  14   92.09    9.90
   0  -4  14   85.09   11.00
  -1   4 -14   17.20    2.50
  -1   4 -14   19.40    6.10
  -1   4 -14    5.90    7.10
   1  -4  14    8.50    6.50
   1  -4  14    9.80    6.70
   1  -4  14   18.20    6.20
  -2   4 -14  169.18   14.90
  -2   4 -14  143.29    8.30
   2  -4  14  147.09   14.20
   2  -4  14  168.78   14.00
   2  -4  14  170.88   14.80
  -3   4 -14   14.30    4.70
  -3   4 -14   15.20    6.60
  -3   4 -14    7.10    7.70
   3  -4  14    7.60    7.70
   3  -4  14   13.30    8.60
   4   3 -14    5.50    8.40
   4   3 -14    7.60    3.60
   4   3 -14    6.60    3.60
  -4  -3  14   12.90    4.60
  -4  -3  14    6.80    4.50
  -4  -3  14    3.20    7.50
   3   3 -14   47.50    6.70
   3   3 -14   38.30    9.10
   3   3 -14   36.00    4.80
  -3  -3  14   37.90    8.20
  -3  -3  14   46.80    6.00
  -3  -3  14   31.50    5.10
   2   3 -14   -2.20    4.10
   2   3 -14    9.60    7.10
   2   3 -14   -4.90    3.60
  -2  -3  14   -2.70    4.40
  -2  -3  14  -12.80    5.80
  -2  -3  14    3.30    4.70
   1   3 -14    3.00    4.60
   1   3 -14   -5.40    6.60
   1   3 -14    5.20    4.30
  -1  -3  14   -0.50    5.00
  -1  -3  14    4.80    6.10
  -1  -3  14    7.90    4.70
   0   3 -14   16.00    5.20
   0   3 -14    9.30    7.40
   0   3 -14   14.10    4.90
   0  -3  14   20.00    6.70
   0  -3  14    7.60    4.70
   0  -3  14   10.20    5.90
  -1   3 -14   33.70    5.90
  -1   3 -14   34.70    5.90
  -1   3 -14   42.60    8.20
   1  -3  14   34.20    5.90
   1  -3  14   30.20    7.00
   1  -3  14   16.40    6.90
  -2   3 -14   48.10    7.80
  -2   3 -14   41.80    8.50
  -2   3 -14   46.90    5.40
  -2   3 -14   43.60    6.80
   2  -3  14   36.30    7.80
   2  -3  14   42.20    8.40
   2  -3  14   46.60    7.20
  -3   3 -14   -7.80    7.20
  -3   3 -14    6.40    5.70
  -3   3 -14   -2.10    3.80
  -3   3 -14   -2.30    7.20
   3  -3  14    2.60    7.50
   3  -3  14   -3.10    6.70
   3  -3  14   -1.80    7.70
   4   2 -14   13.50    3.20
   4   2 -14   12.50    2.80
   4   2 -14   12.80    8.30
  -4  -2  14    9.80    7.60
  -4  -2  14   11.20    3.80
  -4  -2  14   11.90    4.30
   3   2 -14    1.30    6.00
   3   2 -14   -2.20    7.30
   3   2 -14   10.60    3.30
   3   2 -14   10.80    4.50
  -3  -2  14    5.90    3.60
  -3  -2  14   16.60    7.00
  -3  -2  14   11.00    4.90
   2   2 -14   21.90    4.20
   2   2 -14   24.10    8.30
   2   2 -14   13.20    6.00
   2   2 -14   14.10    3.90
  -2  -2  14   16.70    7.00
  -2  -2  14   20.80    4.50
   1   2 -14  202.08   15.50
   1   2 -14  226.58   11.00
   1   2 -14  220.48   11.10
  -1  -2  14  178.28   18.00
  -1  -2  14  210.48   14.90
  -1  -2  14  240.28   11.40
   0   2 -14  109.09   12.50
   0   2 -14  106.59    8.90
   0   2 -14  107.39    9.10
   0  -2  14  102.99   12.30
   0  -2  14   92.19   10.00
   0  -2  14  105.99    9.40
  -1   2 -14  280.37   13.70
  -1   2 -14  266.27   13.40
  -1   2 -14  254.37   16.90
  -1   2 -14  286.87   15.30
   1  -2  14  261.07   15.20
   1  -2  14  277.47   14.00
   1  -2  14  269.07   16.30
  -2   2 -14    3.70    6.10
  -2   2 -14    1.50    4.70
  -2   2 -14    4.70    5.20
  -2   2 -14    1.20    6.50
  -2   2 -14    2.60    2.60
   2  -2  14   -1.20    6.40
   2  -2  14    0.00    5.40
   2  -2  14    0.80    6.80
  -3   2 -14    6.90    7.30
  -3   2 -14    0.50    5.90
  -3   2 -14   -4.50    6.70
  -3   2 -14    0.60    3.60
   3  -2  14    1.90    6.50
   3  -2  14   -3.30    6.50
   3  -2  14   -3.30    6.90
  -4   2 -14  216.78   12.50
  -4   2 -14  246.18   15.30
  -4   2 -14  232.98   17.00
   4  -2  14  216.78   17.40
   4  -2  14  225.38   18.00
   4   1 -14    6.90    7.80
   4   1 -14   18.30    6.60
   4   1 -14   19.50    2.10
  -4  -1  14   16.10    8.30
  -4  -1  14   21.80    4.20
  -4  -1  14   15.10    4.10
   3   1 -14    2.40    7.20
   3   1 -14    4.70    5.80
   3   1 -14    0.00    2.50
  -3  -1  14    1.30    4.00
  -3  -1  14   -1.50    6.40
  -3  -1  14  -12.80    7.90
  -3  -1  14    2.30    3.10
   2   1 -14   42.00    4.80
   2   1 -14   63.29    9.90
   2   1 -14   56.89    7.80
   2   1 -14   52.49    6.10
  -2  -1  14   38.60    7.40
  -2  -1  14   39.10    5.50
  -2  -1  14   41.10    4.80
  -2  -1  14   54.99    9.00
   1   1 -14   37.90    4.70
   1   1 -14   37.10    8.40
   1   1 -14   45.00    6.20
   1   1 -14   32.10    5.60
  -1  -1  14   33.70    5.70
  -1  -1  14   37.90    5.10
  -1  -1  14   38.40    7.90
  -1  -1  14   29.70    6.20
   0   1 -14  174.68   14.10
   0   1 -14  189.28   10.20
   0   1 -14  177.78   12.40
   0   1 -14  187.38   11.00
   0   1 -14  168.88   10.00
   0  -1  14  169.68   13.60
   0  -1  14  185.08   10.60
   0  -1  14  172.88   11.20
  -1   1 -14  209.98   13.30
  -1   1 -14  200.28   11.20
  -1   1 -14  184.88   14.20
  -1   1 -14  192.88   11.10
  -1   1 -14  192.58   11.00
   1  -1  14  176.98   10.40
   1  -1  14  180.88   13.30
   1  -1  14  187.88   12.90
   1  -1  14  196.28   11.40
  -2   1 -14  298.67   11.00
  -2   1 -14  295.87   14.70
  -2   1 -14  298.57   14.70
  -2   1 -14  299.47   15.90
  -2   1 -14  302.77   17.30
   2  -1  14  312.67   17.50
   2  -1  14  342.87   16.90
   2  -1  14  302.87   15.00
   2  -1  14  301.07   12.40
  -3   1 -14   49.10    7.10
  -3   1 -14   66.19    9.80
  -3   1 -14   70.89    9.20
  -3   1 -14   60.09    6.90
   3  -1  14   73.19   10.10
   3  -1  14   57.19    7.60
   3  -1  14   67.29    9.30
  -4   1 -14    9.20    4.70
  -4   1 -14   -0.30    6.10
  -4   1 -14    1.00    7.50
   4  -1  14    0.20    8.00
   4  -1  14   18.60    8.00
   4  -1  14    8.50    7.20
   4   0 -14   49.90    8.20
   4   0 -14   50.69    9.50
  -4   0  14   57.99    5.90
  -4   0  14   58.29   10.00
  -4   0  14   44.60    5.00
   3   0 -14    8.40    2.20
   3   0 -14   12.70    6.40
   3   0 -14   13.10    7.90
   3   0 -14   10.60    2.40
  -3   0  14    7.10    6.70
  -3   0  14    4.60    3.70
  -3   0  14    4.60    2.90
  -3   0  14    5.10    8.60
   2   0 -14   29.70    7.90
   2   0 -14   30.00    3.90
   2   0 -14   31.10    6.90
   2   0 -14   34.10    3.90
  -2   0  14   30.20    7.40
  -2   0  14   34.70    7.50
  -2   0  14   36.10    4.50
  -2   0  14   28.40    5.10
   1   0 -14   14.70    7.10
   1   0 -14   14.60    5.30
   1   0 -14   16.20    3.70
   1   0 -14   13.20    3.70
  -1   0  14   17.70    4.10
  -1   0  14   20.30    5.20
  -1   0  14    8.40    6.40
  -1   0  14    9.90    5.40
   0   0 -14   34.80    5.90
   0   0 -14   14.80   11.00
   0   0 -14   20.20    4.10
   0   0 -14   24.30    5.80
   0   0 -14   31.30    4.50
   0   0  14   29.00    5.10
   0   0  14   41.30    6.50
   0   0  14   26.20    6.20
  -1   0 -14  126.49   11.10
  -1   0 -14  134.39    9.70
  -1   0 -14  132.09    9.50
  -1   0 -14  150.08    9.40
   1   0  14  140.09    9.60
   1   0  14  123.49   13.90
   1   0  14  139.59    9.60
  -2   0 -14  262.47   12.20
  -2   0 -14  251.27   13.10
  -2   0 -14  253.07    9.80
  -2   0 -14  235.78   23.10
  -2   0 -14  257.37   14.70
  -2   0 -14  255.87   13.20
   2   0  14  284.17   15.60
   2   0  14  243.98   11.70
   2   0  14  268.57   13.70
   2   0  14  257.47   15.80
  -3   0 -14    6.60    5.10
  -3   0 -14    7.00    3.30
  -3   0 -14    1.00    5.40
  -3   0 -14    3.10    6.30
  -3   0 -14    7.10    6.10
   3   0  14    0.10    6.50
   3   0  14   -0.80    3.20
   3   0  14    1.90    6.80
   3   0  14    6.20    5.80
  -4   0 -14   27.90    5.30
  -4   0 -14   25.60    6.30
  -4   0 -14   29.70    8.10
   4   0  14   19.00    8.60
   4   0  14   13.80    7.70
   4   0  14   33.30    9.00
   4   0  14   25.40    3.30
  -5   0 -14    2.10    6.10
  -5   0 -14    2.40    6.80
   5   0  14   19.70    7.20
   5   0  14    1.60    8.70
   4  -1 -14    3.20    5.70
  -4   1  14   25.60    8.20
  -4   1  14   12.00    7.90
   3  -1 -14  347.17   20.50
   3  -1 -14  327.07   17.00
  -3   1  14  336.87   20.30
  -3   1  14  311.17   12.10
  -3   1  14  358.46   22.50
  -3   1  14  346.87   13.10
  -3   1  14  343.17   18.80
  -3   1  14  355.26   19.60
   2  -1 -14    4.10    2.60
   2  -1 -14    3.80    7.20
   2  -1 -14   -2.00    4.60
  -2   1  14   -7.60    5.70
  -2   1  14    5.40    4.10
  -2   1  14    3.70    7.10
  -2   1  14    1.20    2.80
   1  -1 -14  151.98   11.00
   1  -1 -14  166.28    8.60
   1  -1 -14  175.58   13.60
   1  -1 -14  162.88    8.50
  -1   1  14  154.68   10.50
  -1   1  14  170.58    8.90
  -1   1  14  148.69   12.30
  -1   1  14  162.08   18.80
   0  -1 -14   55.99    7.40
   0  -1 -14   58.69    6.70
   0  -1 -14   58.29    6.50
   0  -1 -14   40.20    6.00
   0   1  14   47.60    6.40
   0   1  14   61.79    7.20
   0   1  14   61.69    7.60
  -1  -1 -14   12.60    5.20
  -1  -1 -14    9.80    3.90
  -1  -1 -14    7.30    4.80
  -1  -1 -14    5.70    4.00
   1   1  14    4.20    4.60
   1   1  14    7.70    4.80
   1   1  14   10.50    8.00
  -2  -1 -14   95.29    9.20
  -2  -1 -14  105.49   11.00
  -2  -1 -14   99.09    8.60
  -2  -1 -14   80.89    9.10
   2   1  14   81.99   12.10
   2   1  14   98.09    9.70
   2   1  14  101.19    8.50
   2   1  14  121.29   12.00
  -3  -1 -14   44.90    7.80
  -3  -1 -14   48.60    6.00
  -3  -1 -14   50.39    5.60
  -3  -1 -14   46.80    6.50
  -3  -1 -14   34.30    6.20
   3   1  14   27.30    7.80
   3   1  14   41.20    8.30
   3   1  14   39.30    5.20
   3   1  14   60.49    8.70
   3   1  14   21.80    6.50
  -4  -1 -14   61.29    9.50
  -4  -1 -14   59.89    8.00
   4   1  14   41.40    9.10
   4   1  14   52.49    8.10
   4   1  14   58.39    8.70
   4   1  14   47.50    9.50
  -5  -1 -14   39.00    7.50
  -5  -1 -14   42.60    8.40
  -5  -1 -14   38.00    7.30
   5   1  14   44.40   10.40
   5   1  14   30.20    4.20
   5   1  14   50.29    8.10
   5   1  14   24.50   10.00
   4  -2 -14    4.80    5.60
  -4   2  14    4.50    7.90
  -4   2  14   15.20    8.70
   3  -2 -14   21.10    8.10
   3  -2 -14   18.60    6.00
  -3   2  14   18.70    8.40
  -3   2  14   12.90    2.90
   2  -2 -14    2.70    7.20
   2  -2 -14    3.70    5.60
   2  -2 -14    0.30    2.40
  -2   2  14   -5.00    6.30
  -2   2  14   12.50    7.70
  -2   2  14    9.90    7.80
  -2   2  14   16.20    7.40
  -2   2  14    2.10    4.10
  -2   2  14    3.80    2.80
   1  -2 -14   13.20    5.60
   1  -2 -14   19.20    7.40
   1  -2 -14   18.10    3.50
   1  -2 -14   20.50    4.30
   1  -2 -14   19.60    5.30
  -1   2  14   18.70    4.90
  -1   2  14   25.50    7.00
  -1   2  14   25.60    4.10
  -1   2  14   16.40    7.20
  -1   2  14   21.70    7.30
   0  -2 -14  126.39    8.20
   0  -2 -14  115.49    7.90
   0  -2 -14  135.39   10.90
   0  -2 -14  126.09    9.90
   0  -2 -14  106.19   12.60
   0   2  14  113.29    8.40
   0   2  14  135.49   11.10
   0   2  14  113.39   12.40
   0   2  14  113.39   10.20
  -1  -2 -14  270.67   12.70
  -1  -2 -14  307.07   14.20
  -1  -2 -14  298.17   13.10
  -1  -2 -14  302.57   15.20
   1   2  14  276.57   18.80
   1   2  14  278.27   14.20
   1   2  14  302.57   13.50
  -2  -2 -14    5.20    4.50
  -2  -2 -14   -4.60    5.20
  -2  -2 -14    2.50    4.00
  -2  -2 -14   11.20   11.20
  -2  -2 -14    7.60    4.40
   2   2  14    8.40    5.20
   2   2  14    6.50    6.20
   2   2  14    7.60    4.40
   2   2  14    6.70    6.40
  -3  -2 -14    1.60    3.90
  -3  -2 -14    5.00    4.90
  -3  -2 -14    2.00    5.90
  -3  -2 -14   -3.40    4.40
  -3  -2 -14   -3.00    3.20
  -3  -2 -14    2.20    7.80
   3   2  14    4.70    5.90
   3   2  14   -0.90    6.40
   3   2  14   -2.10    6.80
   3   2  14   -0.70    7.50
  -4  -2 -14    1.60    4.30
  -4  -2 -14    4.00    5.20
  -4  -2 -14    5.60    3.80
   4   2  14   -1.50    7.40
   4   2  14    3.60    7.70
   4   2  14   24.60    8.40
   4   2  14    9.10    6.80
  -5  -2 -14  124.29   11.70
  -5  -2 -14   96.49   15.00
  -5  -2 -14  134.19   12.50
   5   2  14  104.09   13.70
   5   2  14  105.99   16.50
   5   2  14  130.89   16.90
   3  -3 -14    8.60    6.30
  -3   3  14    3.70    2.20
  -3   3  14    3.10    1.80
  -3   3  14   -5.30    8.40
  -3   3  14   11.80    6.50
   2  -3 -14    3.10    2.20
   2  -3 -14    0.00    6.60
   2  -3 -14   -5.00    6.70
   2  -3 -14    0.00    2.00
  -2   3  14   -6.50    7.40
  -2   3  14    2.00    2.60
  -2   3  14   -6.10    7.30
  -2   3  14    0.40    3.70
  -2   3  14    7.00    7.50
   1  -3 -14  138.79   11.20
   1  -3 -14  138.79   14.60
   1  -3 -14  141.49   11.40
   1  -3 -14  118.29    7.10
  -1   3  14  128.29    7.90
  -1   3  14  137.19    9.90
  -1   3  14  134.79   13.30
  -1   3  14  114.59   13.90
  -1   3  14  159.98   14.60
   0  -3 -14    2.30    6.20
   0  -3 -14   -0.80    3.90
   0  -3 -14    3.60    5.00
   0  -3 -14    0.80    3.40
   0  -3 -14   -0.60    3.40
   0   3  14    0.10    1.80
   0   3  14   -1.40    3.70
   0   3  14    1.30    6.30
   0   3  14   -0.70    6.90
   0   3  14   -2.10    6.00
   0   3  14    1.80    4.90
  -1  -3 -14   65.29    7.50
  -1  -3 -14   56.49   11.60
  -1  -3 -14   76.89    7.70
  -1  -3 -14   54.59    7.00
  -1  -3 -14   53.99    7.20
   1   3  14   56.69    8.30
   1   3  14   73.59    8.30
   1   3  14   59.79    9.20
   1   3  14   61.99    5.20
   1   3  14   66.79    9.30
  -2  -3 -14  137.79   10.00
  -2  -3 -14  144.89   21.20
  -2  -3 -14  149.99   12.40
  -2  -3 -14  165.38   10.40
  -2  -3 -14  146.59   10.40
   2   3  14  150.28   13.50
   2   3  14  145.19   12.80
   2   3  14  168.18   10.90
   2   3  14  171.68   14.70
   2   3  14  147.09    8.70
  -3  -3 -14    4.80    3.80
  -3  -3 -14    0.90    4.70
  -3  -3 -14    2.70    6.80
  -3  -3 -14   -3.00    3.90
  -3  -3 -14   10.90    6.90
  -3  -3 -14   -3.80    5.20
   3   3  14    9.80    5.70
   3   3  14  -13.00    6.50
   3   3  14   -7.90    6.60
   3   3  14   -1.40    6.80
  -4  -3 -14   26.40    4.80
  -4  -3 -14   21.60    5.20
  -4  -3 -14   28.90    8.70
  -4  -3 -14   35.40    7.00
   4   3  14   28.90    7.20
   4   3  14   16.70    5.70
   4   3  14   25.40   11.20
   4   3  14   19.80    8.50
   4   3  14   29.60    9.30
  -5  -3 -14   36.40    5.00
  -5  -3 -14   37.60    7.60
  -5  -3 -14   31.00    6.80
   5   3  14   26.60   10.10
   5   3  14   36.30   11.20
   5   3  14   23.20    7.40
   3  -4 -14    0.80    5.40
  -3   4  14    7.50    3.90
  -3   4  14   14.50    3.40
  -3   4  14    6.00    8.60
  -3   4  14   20.50    7.60
  -3   4  14    5.90    9.00
   2  -4 -14    2.50    1.70
   2  -4 -14   -5.30    4.90
  -2   4  14    2.60    2.90
  -2   4  14   -2.30    7.10
  -2   4  14    4.60    7.90
  -2   4  14    3.00   10.80
  -2   4  14    1.30    2.90
  -2   4  14   -1.00    2.90
  -2   4  14    3.50    3.70
   1  -4 -14   18.80    8.00
   1  -4 -14   25.40    3.50
   1  -4 -14   24.40    6.40
   1  -4 -14   21.30    3.40
   1  -4 -14   30.80    8.70
  -1   4  14   25.40    3.40
  -1   4  14   41.80    8.80
  -1   4  14   23.70    4.10
  -1   4  14   25.20    8.50
  -1   4  14   23.30    5.40
   0  -4 -14   19.30    7.30
   0  -4 -14   13.20    5.80
   0  -4 -14   20.50    4.20
   0  -4 -14   19.10    6.30
   0   4  14    9.50    6.40
   0   4  14   38.40    8.80
   0   4  14   17.20   10.90
   0   4  14   17.40    4.30
   0   4  14   18.30    3.40
   0   4  14   13.80    6.20
   0   4  14   10.60    6.90
  -1  -4 -14   10.10    4.20
  -1  -4 -14    1.30    4.00
  -1  -4 -14   -4.00    6.00
  -1  -4 -14   10.10    4.80
  -1  -4 -14   -1.20    5.60
   1   4  14   10.50    6.10
   1   4  14   -1.50    7.20
   1   4  14   10.00    4.70
   1   4  14    7.10    6.70
   1   4  14    7.00    3.60
   1   4  14    5.00    6.50
  -2  -4 -14   14.60    6.20
  -2  -4 -14   25.00    5.70
  -2  -4 -14   19.90    5.30
  -2  -4 -14   27.50    5.50
   2   4  14   18.10    7.20
   2   4  14   20.60    5.70
   2   4  14   24.70    7.70
   2   4  14   23.60    7.00
   2   4  14   20.40    4.40
  -3  -4 -14   46.00    6.30
  -3  -4 -14   54.69    6.70
   3   4  14   67.79    8.50
   3   4  14   49.30    6.90
   3   4  14   32.30    7.70
   3   4  14   56.29    9.10
   3   4  14   43.60    9.50
  -4  -4 -14    7.00    7.80
  -4  -4 -14   11.70    4.50
  -4  -4 -14   14.90    5.20
  -4  -4 -14   18.40    6.30
   4   4  14   10.60    8.60
   4   4  14   20.40    6.40
   4   4  14   -2.40    6.50
   4   4  14   19.30    7.40
   4   4  14    9.50    8.20
  -5  -4 -14   -4.00    7.50
  -5  -4 -14    5.00    5.70
  -5  -4 -14   -0.90    4.20
  -5  -4 -14   10.10    6.10
   5   4  14    8.10    7.40
   5   4  14    5.90    7.30
   5   4  14   -5.10    9.10
   5   4  14   -0.70   10.20
   2  -5 -14   31.60    7.00
  -2   5  14   37.70    9.90
  -2   5  14   52.29    9.40
  -2   5  14   36.50    4.30
  -2   5  14   51.29   13.70
  -2   5  14   53.59    6.60
   1  -5 -14    4.50    5.70
   1  -5 -14   12.50    4.80
   1  -5 -14   14.20    6.50
   1  -5 -14   14.70    3.40
  -1   5  14   12.90    4.90
  -1   5  14   24.40    8.90
  -1   5  14   16.00    4.00
  -1   5  14   21.40    5.30
  -1   5  14   34.70   12.30
   0  -5 -14    0.60    3.70
   0  -5 -14    1.80    5.30
   0  -5 -14    6.60    6.20
   0  -5 -14    2.60    3.30
   0   5  14    5.80    7.00
   0   5  14   10.00    7.30
   0   5  14    0.40    5.50
   0   5  14    6.10    4.20
  -1  -5 -14   30.80    6.70
  -1  -5 -14   26.00    6.80
  -1  -5 -14   15.00    8.00
  -1  -5 -14   19.70    4.90
   1   5  14   15.80    8.40
   1   5  14   19.80    7.40
   1   5  14   25.40    6.90
   1   5  14   23.80    4.80
   1   5  14   14.50    7.80
   1   5  14   26.00    5.40
  -2  -5 -14    4.10    5.10
  -2  -5 -14    9.40    7.00
  -2  -5 -14   -3.00    3.90
  -2  -5 -14    1.40    6.20
  -2  -5 -14   -2.20    4.10
   2   5  14    6.40    5.50
   2   5  14    2.70    7.10
   2   5  14   -0.90    7.70
   2   5  14   -1.80    6.80
   2   5  14   -1.20    4.80
   2   5  14    4.00    6.70
  -3  -5 -14   69.79   12.20
  -3  -5 -14   83.49    9.60
  -3  -5 -14   86.39    9.20
   3   5  14   97.69   11.30
   3   5  14   80.49   10.60
   3   5  14  100.49   14.10
   3   5  14   92.49   13.40
   3   5  14   64.59   11.00
  -4  -5 -14    5.10    4.50
  -4  -5 -14    1.80    5.20
  -4  -5 -14    8.20    5.60
   4   5  14    5.10    6.50
   4   5  14    0.70    8.10
   4   5  14    8.80    7.90
   4   5  14   -1.80    7.40
   4   5  14    3.30    9.10
   1  -6 -14    0.90    3.40
   1  -6 -14   -4.70    5.70
   1  -6 -14    1.80    6.20
  -1   6  14   -1.30    4.80
  -1   6  14   -2.90    8.40
  -1   6  14    5.10    4.00
  -1   6  14   11.20    7.50
  -1   6  14   -4.90    6.50
   0  -6 -14  122.09   12.00
   0  -6 -14  142.19   13.10
   0  -6 -14  138.59    8.30
   0  -6 -14  138.49    9.70
   0   6  14  113.59   15.50
   0   6  14  155.78   11.60
   0   6  14  133.19    9.90
   0   6  14  142.19   11.60
   0   6  14  134.49   14.00
  -1  -6 -14   45.40    6.80
  -1  -6 -14   44.60    5.70
  -1  -6 -14   45.00    8.30
  -1  -6 -14   38.40    7.30
   1   6  14   52.09    9.40
   1   6  14   39.20    9.10
   1   6  14   50.19    8.40
   1   6  14   35.20    6.10
   1   6  14   56.49    9.20
  -2  -6 -14    1.90   12.70
  -2  -6 -14   11.20    5.40
  -2  -6 -14    8.40    5.00
   2   6  14   12.60    7.80
   2   6  14    6.00    8.60
   2   6  14   12.20    5.90
   2   6  14   19.40    8.30
   2   6  14    6.00    7.50
   2   6  14   -0.40    5.70
  -3  -6 -14   -2.00    4.20
   3   6  14    1.80    6.50
   3   6  14   23.60    8.40
   3   6  14    9.80    8.10
   3   6  14  -10.70    7.80
   3   6  14   -3.30    6.60
  -4  -6 -14   65.79    8.70
   4   6  14   42.30    9.10
   4   6  14   45.50    9.40
   4   6  14   42.70    9.00
   4   6  14   69.49   10.80
   4   6  14   42.30   11.40
   0  -7 -14    2.50    5.90
   0  -7 -14   11.30    7.30
   0  -7 -14   -5.30    3.30
   0  -7 -14    6.80    5.30
   0   7  14    4.90    6.00
   0   7  14    5.00    7.60
   0   7  14   -8.90    9.30
   0   7  14    1.50    6.40
   0   7  14    2.70    5.20
  -1  -7 -14   -5.20    4.20
  -1  -7 -14   -8.10    5.40
  -1  -7 -14   -6.00    6.60
   1   7  14   -1.10    6.40
   1   7  14  -11.90    6.20
   1   7  14    0.30    7.90
   1   7  14    6.50    8.80
   1   7  14    9.40    5.80
  -2  -7 -14    5.30    5.00
   2   7  14    4.80    8.70
   2   7  14    8.40    6.60
   2   7  14   28.50    8.20
   2   7  14    3.20    7.00
   2   7  14  -11.70    7.90
  -3  -7 -14   97.69   11.00
  -3  -7 -14   89.39   11.40
   3   7  14   87.49   13.40
   3   7  14   79.69   12.00
   3   7  14  101.69   13.70
   3   7  14  112.89   13.80
   3   7  14  113.69   15.30
   3   7  14   96.69   12.20
   1   5 -15   18.80    6.40
   1   5 -15   28.40    9.90
  -1  -5  15   18.60    7.80
  -1  -5  15    7.50    6.90
  -1  -5  15   16.20    7.00
   0   5 -15  170.38   13.40
   0   5 -15  163.28   17.30
   0  -5  15  177.08   16.00
   0  -5  15  131.49   14.40
   0  -5  15  167.98   14.80
   2   4 -15  183.78   12.10
   2   4 -15  190.08   17.20
  -2  -4  15  200.68   13.60
  -2  -4  15  184.98   16.50
  -2  -4  15  185.08   15.10
   1   4 -15    7.80    8.20
   1   4 -15   13.40    5.40
  -1  -4  15    0.30    6.90
  -1  -4  15   -3.10    6.10
  -1  -4  15   -6.10    5.70
   0   4 -15  105.89   11.10
   0   4 -15  121.79   15.80
   0  -4  15  112.09   12.90
   0  -4  15  107.59   11.90
   0  -4  15  126.09   14.40
  -1   4 -15    2.20    5.90
  -1   4 -15    3.90    8.30
   1  -4  15    7.90    7.20
   1  -4  15    1.30    6.70
   1  -4  15   -2.80    7.30
  -2   4 -15   -3.70    6.60
   2  -4  15   -1.30    8.10
   3   3 -15    0.50    4.60
   3   3 -15   -5.30    8.70
   3   3 -15    0.80    3.80
  -3  -3  15   -0.70    5.20
  -3  -3  15   -2.50    4.70
  -3  -3  15    2.30    8.20
   2   3 -15    5.70    4.90
   2   3 -15   -3.60    4.20
   2   3 -15   -4.10    7.50
  -2  -3  15   -0.30    5.50
  -2  -3  15   -2.40    4.70
  -2  -3  15   -3.20    6.80
   1   3 -15   -1.40    4.60
   1   3 -15   11.60    7.60
  -1  -3  15   -2.70    5.70
  -1  -3  15    7.10    7.00
  -1  -3  15   -4.10    5.20
   0   3 -15    9.20    7.60
   0   3 -15    3.60    4.90
   0  -3  15   -3.00    5.80
   0  -3  15    5.80    7.00
   0  -3  15    8.60    5.60
  -1   3 -15   31.40    9.10
  -1   3 -15   19.20    6.40
   1  -3  15   14.30    7.30
   1  -3  15   28.10    8.20
   1  -3  15   29.40    6.70
  -2   3 -15   27.30    7.10
  -2   3 -15   21.50    8.50
  -2   3 -15   30.60    3.90
   2  -3  15   27.90    9.20
   2  -3  15   40.50    8.30
   2  -3  15   23.50    7.90
   3   2 -15   15.40    9.10
   3   2 -15   20.80    5.30
   3   2 -15   22.80    4.40
  -3  -2  15   30.50    9.60
  -3  -2  15   25.00    5.50
  -3  -2  15   24.40    5.00
   2   2 -15   -0.60    3.80
   2   2 -15   -7.70    7.60
   2   2 -15    1.40    4.20
  -2  -2  15    3.40    4.90
  -2  -2  15   -7.60    4.00
  -2  -2  15    2.10    7.30
   1   2 -15   76.89    9.20
   1   2 -15   90.69   14.00
   1   2 -15   88.99    8.40
  -1  -2  15   77.79   10.10
  -1  -2  15   72.49   10.20
  -1  -2  15   74.69    8.90
   0   2 -15   90.09   13.10
   0   2 -15   91.89   10.40
   0   2 -15  102.39    9.40
   0  -2  15   87.09    9.90
   0  -2  15  109.69   11.60
   0  -2  15   88.39   13.10
  -1   2 -15    4.70    7.00
  -1   2 -15    8.20    5.20
   1  -2  15   10.10    7.30
   1  -2  15    0.00    5.50
   1  -2  15    8.30    6.20
  -2   2 -15   33.30    4.40
  -2   2 -15   31.60    6.50
  -2   2 -15   31.40    8.80
   2  -2  15   34.20    8.30
   2  -2  15   32.30    8.80
   2  -2  15   36.70    7.20
  -3   2 -15   -4.30    3.70
  -3   2 -15  -13.40    7.70
  -3   2 -15    0.30    5.80
   3  -2  15   -4.00    8.20
   3  -2  15   -9.80    8.20
   3  -2  15   -4.80    7.80
   3   1 -15    7.10    8.10
   3   1 -15   -3.90    5.30
   3   1 -15    1.60    3.00
  -3  -1  15   -0.70    8.00
  -3  -1  15    0.10    3.50
  -3  -1  15    5.00    5.50
   2   1 -15  122.99    8.20
   2   1 -15  121.39   15.10
   2   1 -15  120.39   11.20
   2   1 -15   95.29    7.90
  -2  -1  15  105.49    9.80
  -2  -1  15  122.79   14.40
  -2  -1  15  100.29   13.90
  -2  -1  15  112.19    8.60
   1   1 -15   31.80    4.70
   1   1 -15   33.80    5.40
   1   1 -15   42.40    7.00
   1   1 -15   43.40    9.30
  -1  -1  15   42.10    8.70
  -1  -1  15   39.10    7.60
  -1  -1  15   44.80    6.90
  -1  -1  15   42.90    6.20
   0   1 -15   38.70    5.40
   0   1 -15   34.70    5.80
   0   1 -15   36.20    6.00
   0   1 -15   53.79    9.10
   0  -1  15   30.80    7.70
   0  -1  15   40.90    6.90
   0  -1  15   32.40    6.60
  -1   1 -15    7.50    4.80
  -1   1 -15    8.40    5.60
  -1   1 -15    7.90    7.00
   1  -1  15   -0.40    6.10
   1  -1  15    9.60    5.70
   1  -1  15    9.50    4.70
   1  -1  15    8.10    7.20
  -2   1 -15   26.20    5.90
  -2   1 -15   24.70    2.80
  -2   1 -15   20.10    7.70
   2  -1  15   28.30    7.40
   2  -1  15   19.90    7.80
   2  -1  15   13.80    6.30
   2  -1  15   26.50    5.30
  -3   1 -15   15.30   10.60
  -3   1 -15   19.50    4.20
  -3   1 -15   19.00    7.60
   3  -1  15   12.70    7.60
   3  -1  15    7.60    8.40
   3  -1  15   20.80    8.10
   3   0 -15    3.70    2.70
   3   0 -15   -2.20    2.30
   3   0 -15    3.20    7.90
   3   0 -15   -0.20    5.70
  -3   0  15    1.00    4.20
  -3   0  15   -0.60    3.30
  -3   0  15    4.70    7.50
   2   0 -15    5.50    3.40
   2   0 -15    1.60    7.10
   2   0 -15    7.30    3.50
   2   0 -15   -1.00    5.40
  -2   0  15  -11.00    6.40
  -2   0  15    1.20    8.20
  -2   0  15    0.10    3.70
   1   0 -15   70.99    7.50
   1   0 -15   67.59    9.60
   1   0 -15   74.09    7.50
   1   0 -15   77.19   10.90
  -1   0  15   61.49    7.70
  -1   0  15   79.19    9.70
  -1   0  15   51.09    8.80
  -1   0  15   64.19    8.90
   0   0 -15    5.40    7.40
   0   0 -15  -11.20    5.90
   0   0 -15    2.60    4.20
   0   0 -15   -0.70    4.50
   0   0 -15    2.00    3.70
   0   0  15   11.70    5.60
   0   0  15   -1.30    4.30
   0   0  15    2.00    6.70
   0   0  15    4.70    5.70
  -1   0 -15  197.58   15.20
  -1   0 -15  167.38   11.00
  -1   0 -15  183.78   11.10
  -1   0 -15  173.98   15.50
  -1   0 -15  163.08   11.00
   1   0  15  173.98   11.50
   1   0  15  164.78   11.30
   1   0  15  188.58   15.40
   1   0  15  174.88   13.40
  -2   0 -15    8.50    5.20
  -2   0 -15    2.70    4.40
  -2   0 -15    8.30    7.10
   2   0  15   12.30    7.60
   2   0  15    4.70    6.80
   2   0  15   -1.60    5.50
  -3   0 -15   24.30    7.90
  -3   0 -15   23.70    6.40
  -3   0 -15   17.50    4.00
   3   0  15   14.30    6.80
   3   0  15   16.60    8.00
   3   0  15   21.70    8.90
  -4   0 -15    7.20    7.50
  -4   0 -15   10.80    5.00
  -4   0 -15    5.50    6.50
   4   0  15   16.80    7.30
   4   0  15    5.50    9.00
   4   0  15   11.60    9.60
   4   0  15    8.80    3.40
   3  -1 -15   81.39   10.80
   3  -1 -15   44.90   10.00
  -3   1  15   57.69    9.50
  -3   1  15   73.59   10.80
  -3   1  15   65.19    8.00
  -3   1  15   61.49    6.90
   2  -1 -15   28.10    7.00
   2  -1 -15   31.20    4.00
   2  -1 -15   46.10    9.60
  -2   1  15   38.00    9.40
  -2   1  15   36.80    8.20
  -2   1  15   38.70    4.70
  -2   1  15   42.10    5.80
  -2   1  15   35.50    9.40
   1  -1 -15   16.00    7.50
   1  -1 -15    1.50    3.60
   1  -1 -15    3.00    5.80
   1  -1 -15    5.70    3.50
  -1   1  15    9.60    6.90
  -1   1  15   -3.90    6.60
  -1   1  15   12.40    6.90
  -1   1  15   13.70    4.10
   0  -1 -15  166.48   12.80
   0  -1 -15  149.99    9.60
   0  -1 -15  190.88   14.70
   0  -1 -15  155.18   11.30
   0  -1 -15  151.08    9.70
   0   1  15  179.28   13.00
   0   1  15  157.48   12.00
   0   1  15  197.68   13.10
   0   1  15  169.18   14.30
  -1  -1 -15   47.60    7.60
  -1  -1 -15   55.79    9.80
  -1  -1 -15   68.39    8.60
  -1  -1 -15   54.29    6.60
  -1  -1 -15   69.59    8.40
   1   1  15   63.09    9.70
   1   1  15   60.09    7.20
   1   1  15   58.39    8.30
   1   1  15   48.50    6.20
  -2  -1 -15  448.76   17.70
  -2  -1 -15  452.55   18.50
  -2  -1 -15  428.26   21.50
   2   1  15  442.96   20.60
   2   1  15  421.76   17.70
   2   1  15  460.05   18.90
   2   1  15  468.15   21.90
   2   1  15  422.76   22.00
  -3  -1 -15    4.70    5.40
  -3  -1 -15    5.30    7.00
  -3  -1 -15    4.10    4.00
  -3  -1 -15    4.80    3.50
   3   1  15    3.70    7.50
   3   1  15    4.60    6.70
   3   1  15   -0.10    6.30
   3   1  15   11.10    8.20
  -4  -1 -15  149.69   13.40
  -4  -1 -15  177.68   15.30
  -4  -1 -15  160.68   10.70
   4   1  15  163.28   15.50
   4   1  15  159.68   15.20
   4   1  15  160.68   10.70
   4   1  15  160.38   16.80
   4   1  15  160.68   17.00
   3  -2 -15    8.80    8.60
   3  -2 -15    6.30    5.80
  -3   2  15   -5.90    7.40
  -3   2  15    9.30    3.70
  -3   2  15   -0.80    2.80
  -3   2  15   -0.60    8.10
   2  -2 -15   20.00    9.20
   2  -2 -15   22.40    6.60
   2  -2 -15   16.10    3.10
  -2   2  15   18.10    3.60
  -2   2  15   17.60    5.10
  -2   2  15   19.00    8.30
  -2   2  15   19.50    7.90
   1  -2 -15   -0.10    3.70
   1  -2 -15   -1.80    7.70
   1  -2 -15    3.50    7.60
   1  -2 -15    3.30    3.50
  -1   2  15   -3.70    6.00
  -1   2  15   -1.10    3.60
  -1   2  15   -5.30    6.60
  -1   2  15   -7.60    7.70
   0  -2 -15    3.50    3.80
   0  -2 -15   -1.70    4.80
   0  -2 -15    2.80    5.90
   0  -2 -15    6.40    7.10
   0   2  15    3.00    6.10
   0   2  15   -0.70    6.90
   0   2  15    2.40    6.80
   0   2  15    1.60    4.20
   0   2  15   -4.00    5.20
  -1  -2 -15   16.10    6.80
  -1  -2 -15   30.60    8.90
  -1  -2 -15   30.30    5.80
  -1  -2 -15   15.50    5.40
   1   2  15   34.90    7.20
   1   2  15   21.70    7.30
   1   2  15   21.00   10.80
   1   2  15   21.90    6.20
   1   2  15   15.80    7.70
  -2  -2 -15   22.20    7.90
  -2  -2 -15   19.70    5.50
  -2  -2 -15   18.70    5.60
   2   2  15   19.20    6.00
   2   2  15   18.90    5.60
   2   2  15   22.40    7.50
   2   2  15   13.70    7.50
   2   2  15   11.70    7.10
  -3  -2 -15    0.50    7.10
  -3  -2 -15    2.60    5.20
  -3  -2 -15   -0.90    3.30
  -3  -2 -15    7.40    4.40
   3   2  15    2.00    6.70
   3   2  15   -3.10    4.90
   3   2  15   -1.20    7.90
   3   2  15   -3.60    6.80
   3   2  15    5.40    6.90
  -4  -2 -15   58.99    8.00
  -4  -2 -15   65.89   10.30
  -4  -2 -15   66.39    8.50
  -4  -2 -15   73.39    8.00
   4   2  15   72.09    8.90
   4   2  15   63.49   11.50
   4   2  15   65.49   10.30
   4   2  15   63.69    9.20
   4   2  15   69.09   11.00
   2  -3 -15   -2.60    2.40
   2  -3 -15  -11.10    7.30
   2  -3 -15    6.90    5.90
   2  -3 -15    2.30    2.30
  -2   3  15    0.40    7.10
  -2   3  15    6.30    8.10
  -2   3  15    2.20    3.20
  -2   3  15    3.20    4.50
   1  -3 -15   72.99    6.70
   1  -3 -15   75.99   10.40
   1  -3 -15   52.99    9.60
  -1   3  15   91.79   13.10
  -1   3  15   73.59   10.30
  -1   3  15   79.69    7.40
  -1   3  15   64.99   10.30
   0  -3 -15  119.09   12.20
   0  -3 -15  124.89    9.00
   0  -3 -15  140.79   15.30
   0  -3 -15  134.39    9.10
   0  -3 -15  128.09   11.00
   0   3  15  129.19   11.80
   0   3  15  120.79   13.40
   0   3  15  136.89   15.10
   0   3  15  136.89   14.00
   0   3  15  131.89    9.20
  -1  -3 -15  103.89   10.10
  -1  -3 -15   68.69   11.20
  -1  -3 -15  111.29    9.50
  -1  -3 -15   99.09    8.90
  -1  -3 -15   93.29   13.80
   1   3  15  104.59   11.40
   1   3  15  101.49   11.90
   1   3  15   92.99   13.70
   1   3  15   98.99   10.10
   1   3  15  105.59   14.10
  -2  -3 -15   87.99   12.60
  -2  -3 -15   67.49    8.80
  -2  -3 -15   91.19    9.40
   2   3  15   80.09    9.70
   2   3  15   84.79   13.20
   2   3  15   84.69   10.90
   2   3  15   76.99    6.80
   2   3  15   79.29   10.50
   2   3  15   69.49   10.00
  -3  -3 -15   -0.50    6.90
  -3  -3 -15    3.10    4.50
  -3  -3 -15   11.00    5.50
   3   3  15   -1.90    7.50
   3   3  15   -2.80    7.40
   3   3  15   -1.30    7.30
   3   3  15   10.80    7.10
  -4  -3 -15   39.70    5.70
  -4  -3 -15   41.00    8.80
  -4  -3 -15   32.90    5.90
  -4  -3 -15   39.30   10.90
   4   3  15   41.90    9.60
   4   3  15   25.40    8.30
   4   3  15   19.80   10.00
   4   3  15   27.80    9.80
   2  -4 -15    5.00    2.10
   2  -4 -15    2.50    1.90
   2  -4 -15    5.40    6.40
  -2   4  15   26.80    9.70
  -2   4  15    7.50    8.30
  -2   4  15   10.40    8.70
  -2   4  15    9.40    3.70
  -2   4  15   11.00    4.50
   1  -4 -15    8.10    3.20
   1  -4 -15    0.10    8.10
   1  -4 -15    3.30    3.40
   1  -4 -15    3.70    6.60
   1  -4 -15    9.50    5.90
  -1   4  15   13.30    8.50
  -1   4  15   13.10    8.10
  -1   4  15    4.60    5.40
  -1   4  15    5.30    4.10
   0  -4 -15  280.67   12.70
   0  -4 -15  306.17   19.50
   0  -4 -15  287.67   16.70
   0   4  15  274.77   13.00
   0   4  15  282.47   10.10
   0   4  15  282.87   17.90
   0   4  15  277.17   17.80
   0   4  15  269.57   15.20
   0   4  15  282.17   17.80
  -1  -4 -15   42.40    9.70
  -1  -4 -15   28.50    5.00
  -1  -4 -15   35.80    6.70
  -1  -4 -15   33.70    5.80
   1   4  15   32.60    7.40
   1   4  15   37.60    9.10
   1   4  15   46.60    9.20
   1   4  15   31.00    7.60
   1   4  15   36.70    5.90
   1   4  15   39.80    6.10
  -2  -4 -15   21.60    5.60
  -2  -4 -15   16.90    5.10
  -2  -4 -15   34.50    8.70
   2   4  15   15.70    8.00
   2   4  15   17.80    4.50
   2   4  15   15.70    8.00
   2   4  15   21.30    6.60
   2   4  15   16.00    7.90
  -3  -4 -15    2.40    5.60
  -3  -4 -15    3.80    4.60
  -3  -4 -15   -0.70    7.70
   3   4  15   -8.20    7.20
   3   4  15    0.30    6.80
   3   4  15   -4.00    5.10
   3   4  15   -5.80    7.20
   3   4  15    3.40    8.80
  -4  -4 -15   -0.60    7.40
  -4  -4 -15   10.00    5.20
  -4  -4 -15   -2.60    4.50
   4   4  15    2.00    8.10
   4   4  15    4.00    9.20
   4   4  15   -7.80    7.50
   4   4  15    2.20    6.60
   4   4  15    6.80    9.40
   1  -5 -15   93.49   11.40
   1  -5 -15   87.99    7.30
   1  -5 -15  103.29   11.50
  -1   5  15   92.19    8.40
  -1   5  15  111.19   13.40
  -1   5  15   91.19    8.90
  -1   5  15  103.59   10.40
  -1   5  15   96.49   14.60
   0  -5 -15    9.30    5.90
   0  -5 -15   12.70    4.10
   0  -5 -15   30.40   12.80
   0  -5 -15    3.50    4.70
   0   5  15   17.60    6.50
   0   5  15   15.90    5.50
   0   5  15   18.60    8.00
   0   5  15   19.40    8.80
   0   5  15   17.30    4.80
  -1  -5 -15    5.30    8.20
   1   5  15   17.50    7.30
   1   5  15   13.50    8.60
   1   5  15   25.00    4.90
   1   5  15   14.70    5.60
   1   5  15   22.50    8.40
  -2  -5 -15   -0.80    5.10
  -2  -5 -15    8.90    8.00
  -2  -5 -15    0.30    4.70
   2   5  15   16.20    7.80
   2   5  15    5.20    7.90
   2   5  15    3.70    8.10
   2   5  15   -2.30    6.20
   2   5  15    0.50    5.60
  -3  -5 -15   83.19    9.20
  -3  -5 -15   94.09   14.20
  -3  -5 -15   91.19   10.40
   3   5  15   76.49   10.90
   3   5  15  108.19   14.90
   3   5  15   72.69   12.30
   3   5  15   76.59   11.30
   3   5  15   98.49   13.70
   0  -6 -15  138.29   12.60
   0   6  15  131.69   17.50
  -1  -6 -15    6.60    4.80
  -1  -6 -15    6.20    6.10
   1   6  15   13.70    6.60
   1   6  15    5.30    8.40
   1   6  15   21.00    6.20
   1   6  15   15.00    9.30
   1   6  15    2.30    7.70
  -2  -6 -15   18.90    6.00
   2   6  15   25.00    9.70
   2   6  15   17.00    8.50
   2   6  15   17.70    7.50
   2   6  15   13.20    6.60
   2   6  15   17.10    9.10
   1   3 -16    0.30    8.40
   1   3 -16    5.90    5.50
  -1  -3  16   -6.00    6.20
  -1  -3  16   15.10    6.80
  -1  -3  16   13.20    8.30
   0   3 -16    3.70    5.30
   0   3 -16    5.00    8.20
   0  -3  16    5.50    6.80
   0  -3  16   -1.00    7.00
   0  -3  16   15.00    8.20
   1   2 -16   16.30    5.10
   1   2 -16   19.30    8.80
  -1  -2  16   25.80    8.60
  -1  -2  16   28.90    6.60
   0   2 -16   68.99   11.20
   0   2 -16   77.79    9.50
   0  -2  16   61.69    9.70
   0  -2  16   94.29   11.40
   0  -2  16   73.69    9.50
  -1   2 -16    2.50    7.90
  -1   2 -16   -8.10    5.20
   1  -2  16    7.30    7.30
   1  -2  16  -10.60    6.70
   1  -2  16   10.00    8.10
   2   1 -16   10.30    4.00
   2   1 -16   18.80    9.30
   2   1 -16   11.90    5.90
   2   1 -16    8.20    5.00
  -2  -1  16    5.10    9.80
  -2  -1  16    7.00    8.20
  -2  -1  16   11.80    5.80
  -2  -1  16   13.50    5.00
   1   1 -16   15.60    8.90
   1   1 -16   23.00    5.00
   1   1 -16   19.20    6.50
  -1  -1  16   24.10    8.80
  -1  -1  16   10.90    6.10
  -1  -1  16   10.30    5.50
  -1  -1  16   22.50    8.00
   0   1 -16  198.88   11.90
   0   1 -16  174.88   15.70
   0   1 -16  197.68   16.80
   0  -1  16  201.18   12.80
   0  -1  16  184.58   14.30
   0  -1  16  184.48   13.30
   0  -1  16  156.78   16.10
  -1   1 -16   94.99   13.70
  -1   1 -16   71.99    9.80
   1  -1  16   57.39    9.00
   1  -1  16   83.39   11.60
   1  -1  16   68.59    9.90
   1  -1  16   82.29    9.10
  -2   1 -16   -5.10    5.60
  -2   1 -16    5.20    8.00
   2  -1  16    3.50    8.10
   2  -1  16   13.40    7.60
   2  -1  16   -5.60    8.00
   2   0 -16   -4.10    8.10
   2   0 -16   12.10    5.00
   2   0 -16    9.80    5.90
   2   0 -16   15.40    4.30
  -2   0  16   10.50    8.30
  -2   0  16    9.10    5.50
  -2   0  16   10.80    4.60
   1   0 -16  144.99   10.40
   1   0 -16  160.08   12.60
   1   0 -16  167.58   10.10
   1   0 -16  139.59   16.80
  -1   0  16  145.99   15.60
  -1   0  16  169.68   15.70
  -1   0  16  157.88   10.70
  -1   0  16  148.29   12.40
   0   0 -16    7.50    7.90
   0   0 -16    1.60    5.20
   0   0 -16   -1.50    4.50
   0   0  16    5.60    7.20
   0   0  16    1.90    6.40
   0   0  16    5.70    6.60
  -1   0 -16   21.50    8.60
  -1   0 -16   13.60    5.70
  -1   0 -16   13.00    5.40
   1   0  16    9.30    7.30
   1   0  16   10.60    6.60
   1   0  16    7.00    6.10
   1   0  16   20.80    8.90
  -2   0 -16   -5.60    5.50
  -2   0 -16   16.10    8.70
   2   0  16    5.30    7.20
   2   0  16   18.10    5.40
   2   0  16    8.00    7.60
   2   0  16   16.70    9.00
   2  -1 -16    8.90    3.80
   2  -1 -16    9.40    6.10
   2  -1 -16   11.10    8.70
  -2   1  16    6.40    4.40
  -2   1  16   -3.90    8.90
  -2   1  16    2.00    5.40
  -2   1  16    4.90    7.70
   1  -1 -16   14.30    8.30
   1  -1 -16   25.40    4.40
   1  -1 -16   19.20    5.00
   1  -1 -16   19.30    6.80
  -1   1  16   18.10    9.00
  -1   1  16    7.80    8.10
  -1   1  16   16.40    5.10
  -1   1  16   17.20    9.50
  -1   1  16   27.40    6.30
   0  -1 -16    3.50    5.70
   0  -1 -16    6.00    8.10
   0  -1 -16    4.90    4.40
   0   1  16   11.10    8.40
   0   1  16    3.90    5.20
   0   1  16   17.50    7.60
   0   1  16    2.30    7.70
   0   1  16   -0.60    6.20
  -1  -1 -16   11.10    5.60
  -1  -1 -16   10.10    4.80
  -1  -1 -16    6.30    8.00
   1   1  16    5.80    7.90
   1   1  16    6.10    7.80
   1   1  16    9.50    6.00
   1   1  16   -2.50    6.30
   1   1  16    4.90    6.00
  -2  -1 -16  489.55   19.20
  -2  -1 -16  474.55   20.10
  -2  -1 -16  501.75   24.60
   2   1  16  535.05   24.70
   2   1  16  449.86   24.50
   2   1  16  510.45   23.20
   2   1  16  470.05   19.90
   2   1  16  501.05   21.10
  -3  -1 -16   35.10    4.60
  -3  -1 -16   35.70    6.10
  -3  -1 -16   34.70    9.80
  -3  -1 -16   33.80    7.50
   3   1  16   49.20   10.70
   3   1  16   37.30    9.20
   3   1  16   55.69   10.40
   3   1  16   24.60    8.40
   3   1  16   31.30    6.00
   1  -2 -16   12.10    4.50
   1  -2 -16   -1.80    4.40
   1  -2 -16   10.80    8.30
   1  -2 -16    3.50    5.70
  -1   2  16   10.10    8.30
  -1   2  16   17.10    8.50
  -1   2  16   15.30   10.30
  -1   2  16   11.10    6.10
  -1   2  16    7.90    4.60
   0  -2 -16   14.40    4.60
   0  -2 -16    5.20    4.70
   0  -2 -16   22.80    9.00
   0  -2 -16   17.00   10.70
   0   2  16   21.80    5.90
   0   2  16    9.40    7.60
   0   2  16   20.70    8.40
   0   2  16    7.30    8.30
   0   2  16   17.90    6.70
  -1  -2 -16   82.99   11.70
  -1  -2 -16   74.89   10.10
  -1  -2 -16   83.59    9.60
   1   2  16   66.59   10.40
   1   2  16   73.69   10.80
   1   2  16  104.19   14.90
   1   2  16   90.89   12.40
   1   2  16   86.59    9.90
  -2  -2 -16    4.30    7.70
  -2  -2 -16    1.70    4.50
  -2  -2 -16   -0.80    5.30
   2   2  16  -13.90    6.20
   2   2  16    1.60    7.90
   2   2  16   -3.00    7.40
   2   2  16    5.70    6.90
   2   2  16  -14.50    7.30
  -3  -2 -16   89.99   11.90
  -3  -2 -16   90.89    9.40
  -3  -2 -16   74.09   11.20
   3   2  16   85.19   12.30
   3   2  16  118.89   15.30
   3   2  16   81.89   10.90
   3   2  16  118.69   15.50
   3   2  16   75.29   10.00
   1  -3 -16   96.99   13.20
   1  -3 -16   89.59    8.40
   1  -3 -16   99.29   11.50
  -1   3  16  116.19   11.40
  -1   3  16   97.89   12.70
  -1   3  16   79.59    8.70
  -1   3  16  109.19   15.50
   0  -3 -16    6.60    4.90
   0  -3 -16   -2.60    4.20
   0  -3 -16    9.10    8.30
   0  -3 -16   -4.00    5.40
   0   3  16  -10.60    7.20
   0   3  16   -7.50    7.80
   0   3  16    0.80    6.30
   0   3  16    4.90    8.80
   0   3  16   -8.60    5.20
  -1  -3 -16    1.10    8.40
  -1  -3 -16    0.90    5.10
  -1  -3 -16   -1.00    6.10
   1   3  16    5.80    6.10
   1   3  16    1.90    8.00
   1   3  16   11.20    7.40
   1   3  16  -13.20    7.20
   1   3  16   -6.60    7.50
  -2  -3 -16   38.10    6.30
  -2  -3 -16   40.10    9.20
  -2  -3 -16   39.20    6.90
   2   3  16   36.90   10.20
   2   3  16   34.20    7.80
   2   3  16   46.40    9.50
   2   3  16   34.50    9.20
   2   3  16   35.50    8.10
   0  -4 -16   21.10    6.30
   0  -4 -16   30.20    9.80
   0   4  16   28.20    6.20
   0   4  16   19.20    7.20
   0   4  16   14.30    9.20
   0   4  16   38.70   10.00
  -1  -4 -16   -2.30    8.20
  -1  -4 -16    6.80    6.40
  -1  -4 -16   -0.70    4.40
   1   4  16   -5.00    8.00
   1   4  16    2.80    3.20
   1   4  16    4.30    7.00
   1   4  16   10.50    8.40
   1   4  16   -1.60    8.60
   1   4  16    8.30    8.50
  -2  -4 -16   15.10    8.70
  -2  -4 -16   13.80    5.60
  -2  -4 -16   11.80    5.90
   2   4  16    7.30    8.70
   2   4  16    3.30    9.10
   2   4  16    9.10    7.20
   2   4  16   20.60    8.30
   2   4  16    9.40    8.30
   0   0   0    0.00    0.00
_computing_structure_solution     'SHELXT 2014/5 (Sheldrick, 2014)'
;
_shelx_hkl_checksum     36330
_shelx_res_file
;
TITL AN_Li_b_0m_a.res in P-1
    AN_Li_b_0m_a.res
    created by SHELXL-2016/6 at 16:47:13 on 06-Nov-2018
REM Old TITL AN_Li_b_0m in P-1
REM SHELXT solution in P-1
REM R1 0.192,  Rweak 0.013,  Alpha 0.032,  Orientation as input
REM Formula found by SHELXT:  C20 Cl2 Li N2 O3
CELL  0.71073   7.0563  10.2261  13.4513   87.211   86.978   76.417
ZERR    2.000   0.0023   0.0049   0.0050    0.024    0.013    0.021
LATT  1
SFAC C H CL LI N O
UNIT 40 30 4 2 4 6
ACTA
TEMP 23.000
L.S. 19
BOND $H
LIST 4
FMAP 2
PLAN 20
dfix 0.82 0.01 O3 H3A O3 H3B
WGHT    0.063700    0.564900
FVAR       1.41546
CL1   3    0.424167    0.839415   -0.044501    11.00000    0.09724    0.05565 =
         0.04435    0.01292   -0.00444   -0.02999
CL2   3   -0.005342    0.803938    0.007561    11.00000    0.05813    0.09235 =
         0.05395    0.00574   -0.01615    0.01516
O1    6    0.913506    0.436254    0.318862    11.00000    0.04540    0.04671 =
         0.04904    0.00151   -0.01693   -0.00266
O2    6    0.598818    0.515871    0.358387    11.00000    0.05047    0.06286 =
         0.03393   -0.01132   -0.00341   -0.01042
O3    6    1.249039    0.470746    0.451959    11.00000    0.06362    0.05587 =
         0.04839    0.01253   -0.02398   -0.03284
H3A   2    1.277302    0.474825    0.510058    11.00000   -1.20000
H3B   2    1.335789    0.493137    0.417791    11.00000   -1.20000
N1    5    1.187675    0.161223    0.348195    11.00000    0.04737    0.03246 =
         0.03816    0.00223   -0.00651   -0.01383
N2    5    1.129090    0.209645    0.544627    11.00000    0.03545    0.02848 =
         0.03893   -0.00135   -0.00271   -0.00856
C1    1    1.208494    0.136303    0.251810    11.00000    0.06756    0.05542 =
         0.03670    0.00191   -0.00442   -0.02604
AFIX  43
H1    2    1.176828    0.208714    0.206344    11.00000   -1.20000
AFIX   0
C2    1    1.275139    0.007750    0.214792    11.00000    0.06626    0.06809 =
         0.04134   -0.01418    0.00562   -0.02800
AFIX  43
H2    2    1.285669   -0.004676    0.146514    11.00000   -1.20000
AFIX   0
C3    1    1.324702   -0.099637    0.280531    11.00000    0.04666    0.04761 =
         0.06102   -0.02375    0.00819   -0.01547
AFIX  43
H3    2    1.371415   -0.185925    0.257230    11.00000   -1.20000
AFIX   0
C4    1    1.304781   -0.079140    0.383591    11.00000    0.02979    0.03066 =
         0.05348   -0.00809   -0.00120   -0.01019
C5    1    1.353332   -0.186139    0.457155    11.00000    0.03835    0.02369 =
         0.07472   -0.00357   -0.00550   -0.00462
AFIX  43
H5    2    1.401208   -0.273927    0.437027    11.00000   -1.20000
AFIX   0
C6    1    1.330800   -0.161725    0.554990    11.00000    0.04159    0.02818 =
         0.06544    0.01312   -0.01183   -0.00753
AFIX  43
H6    2    1.365118   -0.232790    0.601357    11.00000   -1.20000
AFIX   0
C7    1    1.254879   -0.028188    0.588967    11.00000    0.02863    0.03414 =
         0.04375    0.00943   -0.00691   -0.01057
C8    1    1.227546    0.002575    0.690178    11.00000    0.04902    0.05285 =
         0.04262    0.01569   -0.00848   -0.01427
AFIX  43
H8    2    1.259113   -0.065244    0.739262    11.00000   -1.20000
AFIX   0
C9    1    1.154342    0.132719    0.715803    11.00000    0.05586    0.06536 =
         0.03555   -0.00092   -0.00024   -0.01735
AFIX  43
H9    2    1.136576    0.154414    0.782526    11.00000   -1.20000
AFIX   0
C10   1    1.106075    0.233528    0.640931    11.00000    0.04537    0.04238 =
         0.04458   -0.00678    0.00066   -0.00947
AFIX  43
H10   2    1.055349    0.321598    0.659800    11.00000   -1.20000
AFIX   0
C11   1    1.204180    0.080385    0.518545    11.00000    0.02354    0.02589 =
         0.03793    0.00231   -0.00379   -0.00938
C12   1    1.232097    0.054427    0.413691    11.00000    0.02608    0.02664 =
         0.03928   -0.00091   -0.00347   -0.00972
C13   1    0.737016    0.464798    0.299919    11.00000    0.04505    0.02472 =
         0.03259    0.00169   -0.01010   -0.00772
C14   1    0.689469    0.431154    0.195802    11.00000    0.05623    0.04416 =
         0.03606   -0.00985   -0.01289    0.00244
AFIX  23
H14A  2    0.802539    0.430821    0.151473    11.00000   -1.20000
H14B  2    0.668305    0.340659    0.198980    11.00000   -1.20000
AFIX   0
C15   1    0.514677    0.524492    0.150574    11.00000    0.04480    0.03749 =
         0.02592   -0.00742   -0.00781   -0.00752
C16   1    0.324895    0.512622    0.174138    11.00000    0.05497    0.04711 =
         0.03435    0.00412   -0.00278   -0.02033
AFIX  43
H16   2    0.304035    0.445914    0.220043    11.00000   -1.20000
AFIX   0
C17   1    0.166589    0.598095    0.130628    11.00000    0.04187    0.06511 =
         0.03902    0.00041   -0.00160   -0.01735
AFIX  43
H17   2    0.040880    0.588283    0.147095    11.00000   -1.20000
AFIX   0
C18   1    0.195727    0.698642    0.062274    11.00000    0.04212    0.04943 =
         0.02930   -0.00373   -0.00791   -0.00198
C19   1    0.382780    0.713350    0.039270    11.00000    0.05124    0.03821 =
         0.02247   -0.00199   -0.00364   -0.01204
C20   1    0.541557    0.626562    0.082662    11.00000    0.04197    0.04623 =
         0.02988   -0.00680   -0.00366   -0.01555
AFIX  43
H20   2    0.667061    0.636774    0.066162    11.00000   -1.20000
AFIX   0
LI1   4    1.084626    0.350482    0.421066    11.00000    0.05284    0.03389 =
         0.04725    0.00846   -0.02050   -0.01436
HKLF 4
REM  AN_Li_b_0m_a.res in P-1
REM R1 =  0.0441 for    3197 Fo > 4sig(Fo)  and  0.0546 for all    3827 data
REM    259 parameters refined using      2 restraints
END
WGHT      0.0513      0.6051
REM Highest difference peak  0.437,  deepest hole -0.444,  1-sigma level  0.051
Q1    1   0.0621  0.8350 -0.0398  11.00000  0.05    0.44
Q2    1  -0.0076  0.7177  0.0149  11.00000  0.05    0.26
Q3    1   1.2205  0.0226  0.5566  11.00000  0.05    0.22
Q4    1   0.2620  0.4456  0.3084  11.00000  0.05    0.21
Q5    1   0.7164  0.4590  0.2415  11.00000  0.05    0.21
Q6    1   1.3345 -0.0848  0.3402  11.00000  0.05    0.21
Q7    1   0.8755  0.4583  0.3755  11.00000  0.05    0.20
Q8    1   0.1929  0.6214  0.0749  11.00000  0.05    0.20
Q9    1   0.5205  0.5962  0.1407  11.00000  0.05    0.19
Q10   1   1.2840 -0.0072  0.4009  11.00000  0.05    0.18
Q11   1   0.4830  0.8582  0.0089  11.00000  0.05    0.17
Q12   1   1.3489 -0.1238  0.4175  11.00000  0.05    0.17
Q13   1   0.7862  0.3717  0.1606  11.00000  0.05    0.16
Q14   1   0.6223  0.4949  0.1688  11.00000  0.05    0.15
Q15   1   0.6613  0.4558  0.3386  11.00000  0.05    0.15
Q16   1   0.8551  0.5027  0.1635  11.00000  0.05    0.15
Q17   1   1.0822  0.1731  0.6744  11.00000  0.05    0.15
Q18   1   0.4920  0.5053  0.3468  11.00000  0.05    0.15
Q19   1   1.2547 -0.0121  0.6353  11.00000  0.05    0.15
Q20   1   1.0250  0.0182  0.7677  11.00000  0.05    0.14
;
_shelx_res_checksum     83910