data_General
_audit_creation_date                    2010-12-03
_audit_creation_method                 'by CrystalStructure 4.0'
_audit_update_record                    ?

#==============================================================================
# PROCESSING SUMMARY (IUCr Office Use Only)

_journal_date_recd_electronic           ?
_journal_date_from_coeditor             ?
_journal_date_accepted                  ?
_journal_coeditor_code                  ?

#==============================================================================
# SUBMISSION DETAILS

_publ_contact_author_name              'Taro Tsubomura'
_publ_contact_author_email             'tsubomura@st.seikei.ac.jp'
_publ_contact_author_fax               '+81-422-37-3871'
_publ_contact_author_phone             '+81-422-37-3752'
_publ_contact_letter
;
    ENTER TEXT OF LETTER
;
_publ_requested_journal                'Inorganic Chemistry Communications'
_publ_requested_category               'CHOOSE FI FM FO CI CM CO or AD'
_publ_requested_coeditor_name           ?

#==============================================================================
# TITLE AND AUTHOR LIST

_publ_section_title
;
    ENTER SECTION TITLE
;
_publ_section_title_footnote
;
    ENTER FOOTNOTE TO TITLE OF PAPER
;
loop_
_publ_author_name
_publ_author_footnote
_publ_author_address
' FIRST AUTHORS NAME '
;
  FIRST AUTHORS FOOTNOTES
;
;
  FIRST AUTHORS ADDRESS
;
_publ_section_synopsis
;
    ENTER SYNOPSIS
;

#==============================================================================
# TEXT

_publ_section_abstract
;
    ENTER ABSTRACT
;
_publ_section_comment
;
    ENTER TEXT
;
_publ_section_references
;
    ENTER OTHER REFERENCES

    Rigaku (2010). CrystalStructure. Version 4.0. 
    Rigaku Corporation, Tokyo, Japan.

    Beurskens, P.T., Admiraal, G., Beurskens, G., Bosman, W.P., 
    Garcia-Granda, S., Gould, R.O., Smits, J.M.M. and 
    Smykalla, C. (1992). The DIRDIF program system, Technical 
    Report of the Crystallography Laboratory, University of 
    Nijmegen, The Netherlands. 
    PATTY

    Sheldrick, G.M. (2008), Acta Cryst. A64, 112-122.

    Rigaku (1999). NUMABS. 
    Rigaku Corporation, Tokyo, Japan.

;
_publ_section_figure_captions
;
    ENTER FIGURE CAPTIONS
;
_publ_section_exptl_prep
;
    ENTER COMPOUND PREPARATION DETAILS
;
_publ_section_exptl_refinement
;
    ENTER SPECIAL DETAILS OF THE REFINEMENT
;

#==============================================================================
data_PdO2(IPr)(Pm-tol3)

#==============================================================================
# CHEMICAL DATA

_chemical_formula_sum                  'C48 H57 N2 O2 P Pd'
_chemical_formula_moiety               'C48 H57 N2 O2 P Pd'
_chemical_formula_weight                831.36
_chemical_melting_point                 ?

#==============================================================================
# CRYSTAL DATA
_symmetry_cell_setting                  triclinic
_symmetry_space_group_name_H-M         'P -1'
_symmetry_space_group_name_Hall        '-P 1'
_symmetry_Int_Tables_number             2
loop_
_symmetry_equiv_pos_site_id
_symmetry_equiv_pos_as_xyz
1   '+X,+Y,+Z'
2   '-X,-Y,-Z'
#------------------------------------------------------------------------------
_cell_length_a                          12.196(3)
_cell_length_b                          16.136(4)
_cell_length_c                          22.771(5)
_cell_angle_alpha                       100.349(2)
_cell_angle_beta                        95.708(2)
_cell_angle_gamma                       100.446(2)
_cell_volume                            4294.6(15)
_cell_formula_units_Z                   4
_cell_measurement_reflns_used           7985
_cell_measurement_theta_min             3.04
_cell_measurement_theta_max             27.48
_cell_measurement_temperature           123
#------------------------------------------------------------------------------
_exptl_crystal_description              prism
_exptl_crystal_colour                   colorless
_exptl_crystal_size_max                 0.200
_exptl_crystal_size_mid                 0.200
_exptl_crystal_size_min                 0.200
_exptl_crystal_density_diffrn           1.286
_exptl_crystal_density_meas             ?
_exptl_crystal_density_method          'not measured'
_exptl_crystal_F_000                    1744.00
_exptl_absorpt_coefficient_mu           0.509
_exptl_absorpt_correction_type          numerical
_exptl_absorpt_process_details         'NUMABS (Rigaku, 1999)'
_exptl_absorpt_correction_T_min         0.791
_exptl_absorpt_correction_T_max         0.903

#==============================================================================
# EXPERIMENTAL DATA

_diffrn_ambient_temperature             123
_diffrn_radiation_type                 'Mo K\a'
_diffrn_radiation_wavelength            0.71070
_diffrn_measurement_device_type        'Rigaku Saturn70'
_diffrn_measurement_method              \w
_diffrn_detector_area_resol_mean        7.314
_diffrn_reflns_number                   40458
_diffrn_reflns_av_R_equivalents         0.0357
_diffrn_reflns_theta_max                27.48
_diffrn_reflns_theta_full               27.49
_diffrn_measured_fraction_theta_max     0.931
_diffrn_measured_fraction_theta_full    0.931
_diffrn_reflns_limit_h_min             -15
_diffrn_reflns_limit_h_max              15
_diffrn_reflns_limit_k_min             -20
_diffrn_reflns_limit_k_max              20
_diffrn_reflns_limit_l_min             -29
_diffrn_reflns_limit_l_max              29
_diffrn_standards_number                0
_diffrn_standards_interval_count        .
_diffrn_standards_decay_%               ?

#==============================================================================
# REFINEMENT DATA

_refine_special_details
;
    Refinement was performed using all reflections. The weighted 
    R-factor (wR) and goodness of fit (S) are based on F^2^.
    R-factor (gt) are based on F. The threshold expression of
    F^2^ > 2.0 sigma(F^2^) is used only for calculating R-factor (gt).
;
_reflns_number_total                    18331
_reflns_number_gt                       16165
_reflns_threshold_expression            F^2^>2.0\s(F^2^)
_refine_ls_structure_factor_coef        Fsqd
_refine_ls_R_factor_gt                  0.0493
_refine_ls_wR_factor_ref                0.0928
_refine_ls_number_restraints            0
_refine_ls_hydrogen_treatment           constr
_refine_ls_number_reflns                18331
_refine_ls_number_parameters            973
_refine_ls_goodness_of_fit_ref          1.127
_refine_ls_weighting_scheme             calc
_refine_ls_weighting_details
           'w = 1/[\s^2^(Fo^2^)+(0.0206P)^2^+5.1867P] where P=(Fo^2^+2Fc^2^)/3'
_atom_sites_solution_hydrogens          geom
_atom_sites_solution_primary            direct
_atom_sites_solution_secondary          difmap
_refine_ls_shift/su_max                 0.001
_refine_diff_density_max                0.640
_refine_diff_density_min               -0.460
_refine_ls_extinction_method            none
_refine_ls_extinction_coef              ?

loop_
_atom_type_symbol
_atom_type_description
_atom_type_scat_dispersion_real
_atom_type_scat_dispersion_imag
_atom_type_scat_source
  'C' 'C'  0.0033 0.0016 
;
International Tables for Crystallography
(1992, Vol. C, Tables 4.2.6.8 and 6.1.1.4)
;
  'H' 'H'  0.0000 0.0000 
;
International Tables for Crystallography
(1992, Vol. C, Table 6.1.1.4)
;
  'N' 'N'  0.0061 0.0033 
;
International Tables for Crystallography
(1992, Vol. C, Tables 4.2.6.8 and 6.1.1.4)
;
  'O' 'O'  0.0106 0.0060 
;
International Tables for Crystallography
(1992, Vol. C, Tables 4.2.6.8 and 6.1.1.4)
;
  'P' 'P'  0.1023 0.0942 
;
International Tables for Crystallography
(1992, Vol. C, Tables 4.2.6.8 and 6.1.1.4)
;
  'Pd' 'Pd'  -0.9988 1.0072 
;
International Tables for Crystallography
(1992, Vol. C, Tables 4.2.6.8 and 6.1.1.4)
;

#==============================================================================
# ATOMIC COORDINATES AND THERMAL PARAMETERS

loop_
_atom_site_label
_atom_site_type_symbol
_atom_site_fract_x
_atom_site_fract_y
_atom_site_fract_z
_atom_site_U_iso_or_equiv
_atom_site_adp_type
_atom_site_occupancy
_atom_site_symmetry_multiplicity
_atom_site_calc_flag
_atom_site_refinement_flags
_atom_site_disorder_assembly
_atom_site_disorder_group
 Pd1 Pd 0.608175(18) 0.346081(13) 0.830598(10) 0.01544(6) Uani 1.0 2 d . . .
 Pd2 Pd 0.178875(18) 0.156348(13) 0.277551(10) 0.01571(6) Uani 1.0 2 d . . .
 P1 P 0.41709(6) 0.31074(5) 0.82279(3) 0.01769(16) Uani 1.0 2 d . . .
 P2 P 0.15709(6) 0.19097(5) 0.37544(3) 0.01761(16) Uani 1.0 2 d . . .
 O1 O 0.73663(17) 0.44909(13) 0.84418(10) 0.0277(5) Uani 1.0 2 d . . .
 O2 O 0.62960(17) 0.47322(12) 0.84426(10) 0.0250(5) Uani 1.0 2 d . . .
 O3 O 0.1898(2) 0.05909(13) 0.21042(9) 0.0311(6) Uani 1.0 2 d . . .
 O4 O 0.1681(3) 0.03103(13) 0.26526(10) 0.0335(6) Uani 1.0 2 d . . .
 N1 N 0.7100(2) 0.19623(15) 0.77402(10) 0.0175(5) Uani 1.0 2 d . . .
 N2 N 0.6778(2) 0.18450(14) 0.86334(10) 0.0176(5) Uani 1.0 2 d . . .
 N3 N 0.13605(19) 0.28272(14) 0.20004(10) 0.0162(5) Uani 1.0 2 d . . .
 N4 N 0.29139(19) 0.33583(14) 0.25822(10) 0.0162(5) Uani 1.0 2 d . . .
 C1 C 0.6654(3) 0.23494(17) 0.82206(12) 0.0158(6) Uani 1.0 2 d . . .
 C2 C 0.7465(3) 0.12311(18) 0.78544(13) 0.0222(7) Uani 1.0 2 d . . .
 C3 C 0.7273(3) 0.11603(18) 0.84112(14) 0.0226(7) Uani 1.0 2 d . . .
 C4 C 0.7322(3) 0.22804(19) 0.71979(13) 0.0205(7) Uani 1.0 2 d . . .
 C5 C 0.6687(3) 0.1837(2) 0.66509(14) 0.0267(8) Uani 1.0 2 d . . .
 C6 C 0.6995(4) 0.2095(3) 0.61282(15) 0.0358(9) Uani 1.0 2 d . . .
 C7 C 0.7888(4) 0.2762(3) 0.61507(16) 0.0394(10) Uani 1.0 2 d . . .
 C8 C 0.8504(3) 0.3187(3) 0.66936(15) 0.0322(8) Uani 1.0 2 d . . .
 C9 C 0.8252(3) 0.29595(19) 0.72353(14) 0.0241(7) Uani 1.0 2 d . . .
 C10 C 0.6040(4) 0.0242(3) 0.62887(18) 0.0544(12) Uani 1.0 2 d . . .
 C11 C 0.5727(3) 0.1077(3) 0.66009(15) 0.0335(8) Uani 1.0 2 d . . .
 C12 C 0.4647(4) 0.1226(3) 0.62748(18) 0.0528(11) Uani 1.0 2 d . . .
 C13 C 0.9893(3) 0.2848(3) 0.79423(17) 0.0381(9) Uani 1.0 2 d . . .
 C14 C 0.9000(3) 0.3383(2) 0.78202(15) 0.0280(8) Uani 1.0 2 d . . .
 C15 C 0.9583(3) 0.4315(3) 0.78401(17) 0.0389(9) Uani 1.0 2 d . . .
 C16 C 0.6684(3) 0.20829(17) 0.92684(12) 0.0181(6) Uani 1.0 2 d . . .
 C17 C 0.5761(3) 0.16846(18) 0.95033(13) 0.0203(7) Uani 1.0 2 d . . .
 C18 C 0.5740(3) 0.1921(2) 1.01230(14) 0.0263(7) Uani 1.0 2 d . . .
 C19 C 0.6604(3) 0.2514(2) 1.04850(14) 0.0285(8) Uani 1.0 2 d . . .
 C20 C 0.7521(3) 0.2884(2) 1.02456(14) 0.0291(8) Uani 1.0 2 d . . .
 C21 C 0.7597(3) 0.26669(19) 0.96334(13) 0.0226(7) Uani 1.0 2 d . . .
 C22 C 0.5071(4) 0.0100(2) 0.90843(17) 0.0379(9) Uani 1.0 2 d . . .
 C23 C 0.4821(3) 0.1004(2) 0.91131(14) 0.0249(7) Uani 1.0 2 d . . .
 C24 C 0.3676(3) 0.1021(3) 0.93285(15) 0.0318(8) Uani 1.0 2 d . . .
 C25 C 0.9623(3) 0.2616(3) 0.96342(18) 0.0402(9) Uani 1.0 2 d . . .
 C26 C 0.8667(3) 0.3014(2) 0.93974(14) 0.0249(7) Uani 1.0 2 d . . .
 C27 C 0.9000(3) 0.3997(2) 0.95546(17) 0.0356(9) Uani 1.0 2 d . . .
 C28 C 0.3725(3) 0.36202(17) 0.89184(13) 0.0181(6) Uani 1.0 2 d . . .
 C29 C 0.4358(3) 0.36321(17) 0.94624(13) 0.0200(7) Uani 1.0 2 d . . .
 C30 C 0.4071(3) 0.40043(18) 1.00148(13) 0.0209(7) Uani 1.0 2 d . . .
 C31 C 0.3136(3) 0.43838(19) 1.00059(14) 0.0264(7) Uani 1.0 2 d . . .
 C32 C 0.2502(3) 0.4381(2) 0.94669(15) 0.0287(8) Uani 1.0 2 d . . .
 C33 C 0.2790(3) 0.40028(19) 0.89226(15) 0.0248(7) Uani 1.0 2 d . . .
 C34 C 0.4765(3) 0.4012(2) 1.05968(14) 0.0285(8) Uani 1.0 2 d . . .
 C35 C 0.3541(3) 0.36033(18) 0.76535(13) 0.0187(6) Uani 1.0 2 d . . .
 C36 C 0.3882(3) 0.44893(19) 0.76992(14) 0.0240(7) Uani 1.0 2 d . . .
 C37 C 0.3441(3) 0.4890(2) 0.72718(15) 0.0287(8) Uani 1.0 2 d . . .
 C38 C 0.2659(3) 0.4412(2) 0.67897(15) 0.0283(8) Uani 1.0 2 d . . .
 C39 C 0.2300(3) 0.3532(2) 0.67334(14) 0.0259(7) Uani 1.0 2 d . . .
 C40 C 0.2754(3) 0.3136(2) 0.71683(13) 0.0219(7) Uani 1.0 2 d . . .
 C41 C 0.1435(3) 0.2997(3) 0.62175(15) 0.0365(9) Uani 1.0 2 d . . .
 C42 C 0.3323(3) 0.20198(18) 0.80596(14) 0.0234(7) Uani 1.0 2 d . . .
 C43 C 0.3721(4) 0.1379(2) 0.77012(15) 0.0341(8) Uani 1.0 2 d . . .
 C44 C 0.3081(4) 0.0544(3) 0.75462(17) 0.0461(11) Uani 1.0 2 d . . .
 C45 C 0.2075(4) 0.0352(3) 0.77543(18) 0.0483(12) Uani 1.0 2 d . . .
 C46 C 0.1651(3) 0.0973(3) 0.81139(17) 0.0393(10) Uani 1.0 2 d . . .
 C47 C 0.2290(3) 0.1812(2) 0.82586(15) 0.0297(8) Uani 1.0 2 d . . .
 C48 C 0.0579(4) 0.0742(3) 0.8361(3) 0.0619(14) Uani 1.0 2 d . . .
 C49 C 0.2024(3) 0.26750(17) 0.24681(12) 0.0144(6) Uani 1.0 2 d . . .
 C50 C 0.1823(3) 0.35906(18) 0.18310(14) 0.0216(7) Uani 1.0 2 d . . .
 C51 C 0.2797(3) 0.39192(17) 0.21936(13) 0.0195(7) Uani 1.0 2 d . . .
 C52 C 0.3924(3) 0.34669(18) 0.30080(12) 0.0170(6) Uani 1.0 2 d . . .
 C53 C 0.4654(3) 0.28912(18) 0.28919(13) 0.0183(6) Uani 1.0 2 d . . .
 C54 C 0.5644(3) 0.30425(19) 0.32887(14) 0.0239(7) Uani 1.0 2 d . . .
 C55 C 0.5895(3) 0.3720(2) 0.37790(15) 0.0273(8) Uani 1.0 2 d . . .
 C56 C 0.5168(3) 0.42780(19) 0.38793(14) 0.0267(7) Uani 1.0 2 d . . .
 C57 C 0.4170(3) 0.41732(18) 0.34920(13) 0.0198(7) Uani 1.0 2 d . . .
 C58 C 0.3244(3) 0.5070(2) 0.42478(15) 0.0332(8) Uani 1.0 2 d . . .
 C59 C 0.3440(3) 0.48468(19) 0.35903(14) 0.0238(7) Uani 1.0 2 d . . .
 C60 C 0.3963(3) 0.56579(19) 0.33735(14) 0.0260(7) Uani 1.0 2 d . . .
 C61 C 0.5043(4) 0.2458(3) 0.18362(15) 0.0420(10) Uani 1.0 2 d . . .
 C62 C 0.4437(3) 0.21639(19) 0.23402(13) 0.0219(7) Uani 1.0 2 d . . .
 C63 C 0.4749(4) 0.1338(2) 0.24770(16) 0.0354(9) Uani 1.0 2 d . . .
 C64 C 0.0414(3) 0.22133(17) 0.16355(13) 0.0172(6) Uani 1.0 2 d . . .
 C65 C 0.0623(3) 0.16844(18) 0.11198(13) 0.0204(7) Uani 1.0 2 d . . .
 C66 C -0.0308(3) 0.1152(2) 0.07470(14) 0.0280(8) Uani 1.0 2 d . . .
 C67 C -0.1384(3) 0.1137(2) 0.08901(15) 0.0297(8) Uani 1.0 2 d . . .
 C68 C -0.1555(3) 0.1644(2) 0.14100(15) 0.0275(8) Uani 1.0 2 d . . .
 C69 C -0.0663(3) 0.22031(18) 0.17965(14) 0.0214(7) Uani 1.0 2 d . . .
 C70 C -0.1439(4) 0.3498(3) 0.21866(19) 0.0488(11) Uani 1.0 2 d . . .
 C71 C -0.0876(3) 0.2788(2) 0.23553(15) 0.0308(8) Uani 1.0 2 d . . .
 C72 C -0.1556(3) 0.2273(3) 0.27487(17) 0.0441(10) Uani 1.0 2 d . . .
 C73 C 0.2063(3) 0.2210(3) 0.04728(16) 0.0357(9) Uani 1.0 2 d . . .
 C74 C 0.1802(3) 0.1686(2) 0.09559(14) 0.0284(8) Uani 1.0 2 d . . .
 C75 C 0.2003(4) 0.0773(3) 0.07588(16) 0.0405(10) Uani 1.0 2 d . . .
 C76 C 0.1071(3) 0.08955(18) 0.39898(14) 0.0217(7) Uani 1.0 2 d . . .
 C77 C 0.0225(3) 0.0288(2) 0.36126(15) 0.0321(8) Uani 1.0 2 d . . .
 C78 C -0.0104(4) -0.0522(3) 0.37390(18) 0.0442(10) Uani 1.0 2 d . . .
 C79 C 0.0432(4) -0.0734(3) 0.42372(18) 0.0408(10) Uani 1.0 2 d . . .
 C80 C 0.1287(3) -0.0146(2) 0.46198(16) 0.0320(8) Uani 1.0 2 d . . .
 C81 C 0.1586(3) 0.0673(2) 0.44954(14) 0.0263(7) Uani 1.0 2 d . . .
 C82 C 0.1891(4) -0.0387(3) 0.51499(18) 0.0470(11) Uani 1.0 2 d . . .
 C83 C 0.2843(3) 0.23640(17) 0.42889(13) 0.0190(6) Uani 1.0 2 d . . .
 C84 C 0.2843(3) 0.29116(19) 0.48356(14) 0.0254(7) Uani 1.0 2 d . . .
 C85 C 0.3795(3) 0.3141(2) 0.52597(15) 0.0302(8) Uani 1.0 2 d . . .
 C86 C 0.4745(3) 0.2822(2) 0.51423(15) 0.0285(8) Uani 1.0 2 d . . .
 C87 C 0.4774(3) 0.22825(19) 0.45984(14) 0.0222(7) Uani 1.0 2 d . . .
 C88 C 0.3816(3) 0.20659(18) 0.41726(13) 0.0207(7) Uani 1.0 2 d . . .
 C89 C 0.5815(3) 0.1931(2) 0.44752(15) 0.0301(8) Uani 1.0 2 d . . .
 C90 C 0.0612(3) 0.26081(19) 0.40057(13) 0.0210(7) Uani 1.0 2 d . . .
 C91 C -0.0168(3) 0.2405(3) 0.43867(15) 0.0328(8) Uani 1.0 2 d . . .
 C92 C -0.0832(3) 0.2988(3) 0.45793(17) 0.0424(10) Uani 1.0 2 d . . .
 C93 C -0.0711(3) 0.3769(3) 0.44029(17) 0.0389(9) Uani 1.0 2 d . . .
 C94 C 0.0059(3) 0.3986(2) 0.40181(15) 0.0283(8) Uani 1.0 2 d . . .
 C95 C 0.0710(3) 0.33919(19) 0.38235(14) 0.0230(7) Uani 1.0 2 d . . .
 C96 C 0.0166(4) 0.4831(3) 0.38065(18) 0.0422(10) Uani 1.0 2 d . . .
 H2 H 0.7790 0.0854 0.7586 0.0267 Uiso 1.0 2 calc R . .
 H3 H 0.7441 0.0726 0.8617 0.0272 Uiso 1.0 2 calc R . .
 H6 H 0.6581 0.1803 0.5749 0.0430 Uiso 1.0 2 calc R . .
 H7 H 0.8080 0.2931 0.5789 0.0473 Uiso 1.0 2 calc R . .
 H8 H 0.9117 0.3647 0.6701 0.0387 Uiso 1.0 2 calc R . .
 H10A H 0.5410 -0.0242 0.6262 0.0653 Uiso 1.0 2 calc R . .
 H10B H 0.6706 0.0143 0.6523 0.0653 Uiso 1.0 2 calc R . .
 H10C H 0.6203 0.0292 0.5882 0.0653 Uiso 1.0 2 calc R . .
 H11 H 0.5590 0.1017 0.7018 0.0401 Uiso 1.0 2 calc R . .
 H12A H 0.4038 0.0728 0.6251 0.0633 Uiso 1.0 2 calc R . .
 H12B H 0.4765 0.1304 0.5867 0.0633 Uiso 1.0 2 calc R . .
 H12C H 0.4443 0.1742 0.6497 0.0633 Uiso 1.0 2 calc R . .
 H13A H 1.0375 0.3124 0.8323 0.0457 Uiso 1.0 2 calc R . .
 H13B H 1.0353 0.2813 0.7613 0.0457 Uiso 1.0 2 calc R . .
 H13C H 0.9518 0.2268 0.7969 0.0457 Uiso 1.0 2 calc R . .
 H14 H 0.8521 0.3386 0.8152 0.0336 Uiso 1.0 2 calc R . .
 H15A H 1.0050 0.4549 0.8231 0.0467 Uiso 1.0 2 calc R . .
 H15B H 0.9013 0.4661 0.7784 0.0467 Uiso 1.0 2 calc R . .
 H15C H 1.0058 0.4330 0.7518 0.0467 Uiso 1.0 2 calc R . .
 H18 H 0.5119 0.1667 1.0296 0.0315 Uiso 1.0 2 calc R . .
 H19 H 0.6569 0.2671 1.0904 0.0341 Uiso 1.0 2 calc R . .
 H20 H 0.8111 0.3294 1.0503 0.0349 Uiso 1.0 2 calc R . .
 H22A H 0.4452 -0.0326 0.8830 0.0455 Uiso 1.0 2 calc R . .
 H22B H 0.5149 -0.0020 0.9491 0.0455 Uiso 1.0 2 calc R . .
 H22C H 0.5773 0.0070 0.8913 0.0455 Uiso 1.0 2 calc R . .
 H23 H 0.4770 0.1119 0.8695 0.0299 Uiso 1.0 2 calc R . .
 H24A H 0.3100 0.0571 0.9062 0.0382 Uiso 1.0 2 calc R . .
 H24B H 0.3486 0.1584 0.9321 0.0382 Uiso 1.0 2 calc R . .
 H24C H 0.3707 0.0918 0.9741 0.0382 Uiso 1.0 2 calc R . .
 H25A H 1.0313 0.2839 0.9477 0.0483 Uiso 1.0 2 calc R . .
 H25B H 0.9423 0.1989 0.9501 0.0483 Uiso 1.0 2 calc R . .
 H25C H 0.9747 0.2764 1.0075 0.0483 Uiso 1.0 2 calc R . .
 H26 H 0.8537 0.2833 0.8948 0.0299 Uiso 1.0 2 calc R . .
 H27A H 0.9692 0.4186 0.9389 0.0427 Uiso 1.0 2 calc R . .
 H27B H 0.9125 0.4191 0.9993 0.0427 Uiso 1.0 2 calc R . .
 H27C H 0.8395 0.4242 0.9382 0.0427 Uiso 1.0 2 calc R . .
 H29 H 0.5004 0.3380 0.9459 0.0240 Uiso 1.0 2 calc R . .
 H31 H 0.2929 0.4648 1.0374 0.0317 Uiso 1.0 2 calc R . .
 H32 H 0.1863 0.4641 0.9469 0.0344 Uiso 1.0 2 calc R . .
 H33 H 0.2350 0.4005 0.8554 0.0297 Uiso 1.0 2 calc R . .
 H34A H 0.5388 0.3719 1.0515 0.0342 Uiso 1.0 2 calc R . .
 H34B H 0.4295 0.3714 1.0850 0.0342 Uiso 1.0 2 calc R . .
 H34C H 0.5069 0.4608 1.0806 0.0342 Uiso 1.0 2 calc R . .
 H36 H 0.4422 0.4818 0.8026 0.0288 Uiso 1.0 2 calc R . .
 H37 H 0.3671 0.5493 0.7307 0.0344 Uiso 1.0 2 calc R . .
 H38 H 0.2367 0.4692 0.6494 0.0340 Uiso 1.0 2 calc R . .
 H40 H 0.2521 0.2532 0.7133 0.0263 Uiso 1.0 2 calc R . .
 H41A H 0.1203 0.3368 0.5953 0.0437 Uiso 1.0 2 calc R . .
 H41B H 0.0778 0.2723 0.6379 0.0437 Uiso 1.0 2 calc R . .
 H41C H 0.1765 0.2552 0.5988 0.0437 Uiso 1.0 2 calc R . .
 H43 H 0.4429 0.1510 0.7562 0.0409 Uiso 1.0 2 calc R . .
 H44 H 0.3347 0.0108 0.7295 0.0553 Uiso 1.0 2 calc R . .
 H45 H 0.1654 -0.0222 0.7650 0.0579 Uiso 1.0 2 calc R . .
 H47 H 0.2009 0.2249 0.8499 0.0356 Uiso 1.0 2 calc R . .
 H48A H 0.0411 0.1259 0.8602 0.0743 Uiso 1.0 2 calc R . .
 H48B H 0.0652 0.0320 0.8616 0.0743 Uiso 1.0 2 calc R . .
 H48C H -0.0033 0.0494 0.8029 0.0743 Uiso 1.0 2 calc R . .
 H50 H 0.1508 0.3831 0.1519 0.0260 Uiso 1.0 2 calc R . .
 H51 H 0.3308 0.4436 0.2187 0.0235 Uiso 1.0 2 calc R . .
 H77 H -0.0133 0.0428 0.3264 0.0385 Uiso 1.0 2 calc R . .
 H78 H -0.0697 -0.0930 0.3483 0.0530 Uiso 1.0 2 calc R . .
 H79 H 0.0209 -0.1293 0.4318 0.0490 Uiso 1.0 2 calc R . .
 H81 H 0.2155 0.1089 0.4762 0.0316 Uiso 1.0 2 calc R . .
 H84 H 0.2188 0.3128 0.4918 0.0305 Uiso 1.0 2 calc R . .
 H85 H 0.3796 0.3518 0.5632 0.0363 Uiso 1.0 2 calc R . .
 H86 H 0.5391 0.2975 0.5439 0.0341 Uiso 1.0 2 calc R . .
 H88 H 0.3826 0.1707 0.3795 0.0248 Uiso 1.0 2 calc R . .
 H91 H -0.0248 0.1871 0.4515 0.0394 Uiso 1.0 2 calc R . .
 H92 H -0.1375 0.2846 0.4836 0.0509 Uiso 1.0 2 calc R . .
 H93 H -0.1161 0.4164 0.4547 0.0466 Uiso 1.0 2 calc R . .
 H95 H 0.1238 0.3527 0.3558 0.0276 Uiso 1.0 2 calc R . .
 H54 H 0.6160 0.2671 0.3221 0.0286 Uiso 1.0 2 calc R . .
 H55 H 0.6570 0.3803 0.4048 0.0327 Uiso 1.0 2 calc R . .
 H56 H 0.5351 0.4742 0.4218 0.0321 Uiso 1.0 2 calc R . .
 H58A H 0.2770 0.5501 0.4291 0.0399 Uiso 1.0 2 calc R . .
 H58B H 0.3968 0.5302 0.4504 0.0399 Uiso 1.0 2 calc R . .
 H58C H 0.2868 0.4550 0.4370 0.0399 Uiso 1.0 2 calc R . .
 H59 H 0.2691 0.4600 0.3340 0.0285 Uiso 1.0 2 calc R . .
 H60A H 0.3483 0.6083 0.3437 0.0312 Uiso 1.0 2 calc R . .
 H60B H 0.4029 0.5508 0.2944 0.0312 Uiso 1.0 2 calc R . .
 H60C H 0.4712 0.5901 0.3602 0.0312 Uiso 1.0 2 calc R . .
 H61A H 0.4896 0.1987 0.1482 0.0504 Uiso 1.0 2 calc R . .
 H61B H 0.5855 0.2623 0.1973 0.0504 Uiso 1.0 2 calc R . .
 H61C H 0.4769 0.2954 0.1729 0.0504 Uiso 1.0 2 calc R . .
 H62 H 0.3611 0.2032 0.2195 0.0263 Uiso 1.0 2 calc R . .
 H63A H 0.4587 0.0893 0.2108 0.0424 Uiso 1.0 2 calc R . .
 H63B H 0.4308 0.1142 0.2781 0.0424 Uiso 1.0 2 calc R . .
 H63C H 0.5553 0.1449 0.2630 0.0424 Uiso 1.0 2 calc R . .
 H66 H -0.0200 0.0792 0.0388 0.0336 Uiso 1.0 2 calc R . .
 H67 H -0.2008 0.0774 0.0627 0.0357 Uiso 1.0 2 calc R . .
 H68 H -0.2297 0.1614 0.1509 0.0330 Uiso 1.0 2 calc R . .
 H70A H -0.1565 0.3869 0.2554 0.0586 Uiso 1.0 2 calc R . .
 H70B H -0.2162 0.3240 0.1935 0.0586 Uiso 1.0 2 calc R . .
 H70C H -0.0952 0.3841 0.1963 0.0586 Uiso 1.0 2 calc R . .
 H71 H -0.0128 0.3069 0.2597 0.0370 Uiso 1.0 2 calc R . .
 H72A H -0.1677 0.2665 0.3107 0.0529 Uiso 1.0 2 calc R . .
 H72B H -0.1141 0.1852 0.2872 0.0529 Uiso 1.0 2 calc R . .
 H72C H -0.2284 0.1971 0.2519 0.0529 Uiso 1.0 2 calc R . .
 H73A H 0.2829 0.2197 0.0382 0.0429 Uiso 1.0 2 calc R . .
 H73B H 0.2001 0.2807 0.0620 0.0429 Uiso 1.0 2 calc R . .
 H73C H 0.1526 0.1964 0.0106 0.0429 Uiso 1.0 2 calc R . .
 H74 H 0.2345 0.1967 0.1327 0.0341 Uiso 1.0 2 calc R . .
 H75A H 0.2771 0.0803 0.0659 0.0487 Uiso 1.0 2 calc R . .
 H75B H 0.1464 0.0472 0.0404 0.0487 Uiso 1.0 2 calc R . .
 H75C H 0.1904 0.0461 0.1088 0.0487 Uiso 1.0 2 calc R . .
 H82A H 0.2463 0.0108 0.5370 0.0564 Uiso 1.0 2 calc R . .
 H82B H 0.2255 -0.0866 0.5009 0.0564 Uiso 1.0 2 calc R . .
 H82C H 0.1351 -0.0562 0.5418 0.0564 Uiso 1.0 2 calc R . .
 H89A H 0.5681 0.1564 0.4072 0.0361 Uiso 1.0 2 calc R . .
 H89B H 0.5987 0.1592 0.4776 0.0361 Uiso 1.0 2 calc R . .
 H89C H 0.6451 0.2409 0.4498 0.0361 Uiso 1.0 2 calc R . .
 H96A H 0.0749 0.4872 0.3540 0.0506 Uiso 1.0 2 calc R . .
 H96B H 0.0374 0.5309 0.4156 0.0506 Uiso 1.0 2 calc R . .
 H96C H -0.0554 0.4859 0.3586 0.0506 Uiso 1.0 2 calc R . .


loop_
_atom_site_aniso_label
_atom_site_aniso_U_11
_atom_site_aniso_U_22
_atom_site_aniso_U_33
_atom_site_aniso_U_12
_atom_site_aniso_U_13
_atom_site_aniso_U_23
 Pd1 0.01662(12) 0.01482(11) 0.01672(11) 0.00559(9) 0.00392(9) 0.00468(8)
 Pd2 0.01730(12) 0.01389(10) 0.01642(11) 0.00361(8) 0.00293(9) 0.00350(8)
 P1 0.0176(4) 0.0160(4) 0.0199(4) 0.0043(3) 0.0021(3) 0.0041(3)
 P2 0.0177(4) 0.0170(4) 0.0175(4) 0.0007(3) 0.0033(3) 0.0041(3)
 O1 0.0176(12) 0.0233(11) 0.0440(14) 0.0039(9) 0.0059(10) 0.0108(10)
 O2 0.0233(12) 0.0160(10) 0.0392(13) 0.0072(9) 0.0097(10) 0.0081(10)
 O3 0.0543(16) 0.0195(11) 0.0223(12) 0.0104(11) 0.0141(11) 0.0033(9)
 O4 0.0644(17) 0.0166(11) 0.0249(12) 0.0136(11) 0.0162(12) 0.0076(9)
 N1 0.0209(14) 0.0187(12) 0.0155(12) 0.0074(10) 0.0054(11) 0.0056(10)
 N2 0.0223(14) 0.0172(12) 0.0148(12) 0.0054(10) 0.0047(11) 0.0051(10)
 N3 0.0138(13) 0.0153(12) 0.0191(13) 0.0019(10) 0.0007(10) 0.0041(10)
 N4 0.0144(13) 0.0159(12) 0.0179(12) 0.0013(10) 0.0011(10) 0.0048(10)
 C1 0.0159(15) 0.0162(14) 0.0154(14) 0.0028(11) 0.0022(12) 0.0035(11)
 C2 0.0296(18) 0.0187(14) 0.0228(16) 0.0134(13) 0.0079(14) 0.0048(12)
 C3 0.0285(18) 0.0190(15) 0.0244(16) 0.0116(13) 0.0061(14) 0.0069(13)
 C4 0.0262(17) 0.0242(15) 0.0175(15) 0.0151(13) 0.0089(13) 0.0072(12)
 C5 0.040(2) 0.0253(16) 0.0199(16) 0.0164(15) 0.0095(15) 0.0049(13)
 C6 0.054(3) 0.039(2) 0.0193(17) 0.0192(18) 0.0090(17) 0.0061(15)
 C7 0.059(3) 0.047(3) 0.0274(19) 0.027(2) 0.0249(19) 0.0189(17)
 C8 0.039(2) 0.0339(19) 0.033(2) 0.0149(16) 0.0189(17) 0.0163(16)
 C9 0.0268(18) 0.0254(16) 0.0272(17) 0.0135(14) 0.0133(14) 0.0102(13)
 C10 0.081(4) 0.035(3) 0.041(3) 0.007(3) 0.006(3) -0.0031(18)
 C11 0.043(3) 0.0335(19) 0.0193(17) 0.0037(16) -0.0002(16) 0.0007(14)
 C12 0.048(3) 0.071(3) 0.035(3) 0.004(3) -0.007(2) 0.014(2)
 C13 0.027(2) 0.046(3) 0.046(3) 0.0113(17) 0.0088(17) 0.0150(18)
 C14 0.0233(18) 0.0298(17) 0.0345(19) 0.0070(14) 0.0115(15) 0.0101(15)
 C15 0.033(2) 0.039(2) 0.045(3) 0.0026(17) 0.0142(18) 0.0102(17)
 C16 0.0239(17) 0.0177(14) 0.0156(14) 0.0095(12) 0.0035(13) 0.0053(12)
 C17 0.0224(17) 0.0207(15) 0.0215(16) 0.0090(13) 0.0041(13) 0.0083(12)
 C18 0.0280(18) 0.0336(18) 0.0203(16) 0.0094(15) 0.0050(14) 0.0091(14)
 C19 0.034(2) 0.0390(19) 0.0149(15) 0.0153(16) 0.0046(14) 0.0041(14)
 C20 0.0318(19) 0.0309(18) 0.0225(17) 0.0078(15) -0.0011(15) 0.0013(14)
 C21 0.0230(17) 0.0246(16) 0.0227(16) 0.0111(13) 0.0013(14) 0.0059(13)
 C22 0.046(3) 0.0268(18) 0.038(2) 0.0039(16) 0.0105(18) 0.0011(16)
 C23 0.0270(18) 0.0279(17) 0.0200(16) 0.0011(14) 0.0038(14) 0.0097(13)
 C24 0.030(2) 0.0378(19) 0.0290(19) 0.0037(16) 0.0065(15) 0.0115(15)
 C25 0.029(2) 0.051(3) 0.048(3) 0.0159(18) 0.0081(18) 0.0206(19)
 C26 0.0230(17) 0.0295(17) 0.0226(16) 0.0067(14) 0.0009(14) 0.0060(13)
 C27 0.030(2) 0.0336(19) 0.042(3) 0.0014(16) 0.0024(17) 0.0090(16)
 C28 0.0142(15) 0.0166(14) 0.0230(16) 0.0013(12) 0.0045(13) 0.0031(12)
 C29 0.0182(16) 0.0135(14) 0.0284(17) 0.0022(12) 0.0046(13) 0.0047(12)
 C30 0.0236(17) 0.0163(14) 0.0215(16) -0.0000(12) 0.0044(13) 0.0041(12)
 C31 0.0282(18) 0.0247(16) 0.0264(17) 0.0060(14) 0.0107(15) 0.0012(13)
 C32 0.0196(17) 0.0327(18) 0.0357(19) 0.0115(14) 0.0089(15) 0.0031(15)
 C33 0.0182(17) 0.0262(16) 0.0297(18) 0.0041(13) 0.0039(14) 0.0055(14)
 C34 0.040(2) 0.0257(17) 0.0212(17) 0.0115(15) 0.0076(15) 0.0018(13)
 C35 0.0158(15) 0.0211(15) 0.0211(15) 0.0064(12) 0.0049(13) 0.0055(12)
 C36 0.0198(17) 0.0220(15) 0.0308(18) 0.0036(13) 0.0015(14) 0.0084(13)
 C37 0.0256(18) 0.0250(17) 0.039(2) 0.0062(14) 0.0055(16) 0.0138(15)
 C38 0.0230(18) 0.0402(19) 0.0290(18) 0.0126(15) 0.0051(15) 0.0186(15)
 C39 0.0192(17) 0.0361(18) 0.0245(17) 0.0065(14) 0.0043(14) 0.0096(14)
 C40 0.0192(16) 0.0247(16) 0.0224(16) 0.0042(13) 0.0042(13) 0.0057(13)
 C41 0.033(2) 0.049(3) 0.0275(19) 0.0091(17) -0.0009(16) 0.0102(17)
 C42 0.0273(18) 0.0175(15) 0.0228(16) 0.0034(13) -0.0078(14) 0.0047(12)
 C43 0.049(3) 0.0252(17) 0.0257(18) 0.0080(16) -0.0022(17) 0.0019(14)
 C44 0.075(4) 0.0208(18) 0.035(3) 0.0097(19) -0.010(2) -0.0041(16)
 C45 0.062(3) 0.0197(18) 0.049(3) -0.0109(18) -0.025(3) 0.0073(17)
 C46 0.036(3) 0.0295(19) 0.048(3) -0.0062(16) -0.0104(18) 0.0204(17)
 C47 0.0268(19) 0.0209(16) 0.039(2) 0.0009(14) -0.0065(16) 0.0098(14)
 C48 0.035(3) 0.042(3) 0.108(4) -0.0070(19) -0.001(3) 0.034(3)
 C49 0.0125(14) 0.0141(13) 0.0160(14) 0.0033(11) 0.0025(12) 0.0005(11)
 C50 0.0226(17) 0.0184(15) 0.0244(16) 0.0039(13) 0.0002(13) 0.0075(12)
 C51 0.0245(17) 0.0140(14) 0.0213(15) 0.0027(12) 0.0039(13) 0.0075(12)
 C52 0.0128(15) 0.0208(14) 0.0166(15) -0.0005(12) 0.0001(12) 0.0066(12)
 C53 0.0170(16) 0.0173(14) 0.0203(15) -0.0007(12) 0.0038(12) 0.0068(12)
 C54 0.0176(16) 0.0258(16) 0.0303(18) 0.0032(13) 0.0007(14) 0.0140(14)
 C55 0.0203(17) 0.0256(17) 0.0317(18) -0.0041(13) -0.0092(14) 0.0103(14)
 C56 0.0292(19) 0.0206(16) 0.0255(17) -0.0038(14) -0.0050(14) 0.0055(13)
 C57 0.0186(16) 0.0190(15) 0.0210(16) -0.0008(12) 0.0029(13) 0.0060(12)
 C58 0.036(2) 0.0287(18) 0.0315(19) 0.0002(15) 0.0086(16) 0.0010(15)
 C59 0.0186(16) 0.0223(16) 0.0249(17) -0.0007(13) -0.0021(13) -0.0018(13)
 C60 0.0281(18) 0.0201(15) 0.0270(17) 0.0045(14) -0.0003(14) 0.0001(13)
 C61 0.050(3) 0.051(3) 0.0243(19) 0.0025(19) 0.0146(18) 0.0096(17)
 C62 0.0176(16) 0.0256(16) 0.0218(16) 0.0044(13) 0.0030(13) 0.0027(13)
 C63 0.045(3) 0.0314(19) 0.0313(19) 0.0149(17) 0.0050(17) 0.0023(15)
 C64 0.0150(15) 0.0151(14) 0.0199(15) 0.0011(11) -0.0038(12) 0.0042(11)
 C65 0.0196(16) 0.0206(15) 0.0210(16) 0.0054(12) -0.0025(13) 0.0054(12)
 C66 0.034(2) 0.0228(16) 0.0225(17) 0.0033(14) -0.0055(15) -0.0007(13)
 C67 0.0253(19) 0.0252(17) 0.0314(19) -0.0043(14) -0.0097(15) 0.0034(14)
 C68 0.0160(17) 0.0306(18) 0.0334(19) -0.0014(14) -0.0004(14) 0.0079(15)
 C69 0.0194(16) 0.0198(15) 0.0250(16) 0.0043(12) -0.0003(13) 0.0060(13)
 C70 0.038(3) 0.038(3) 0.062(3) 0.0113(18) -0.000(2) -0.010(2)
 C71 0.0161(17) 0.0359(19) 0.0340(19) 0.0023(14) 0.0009(15) -0.0049(15)
 C72 0.028(2) 0.059(3) 0.038(3) -0.0008(18) 0.0111(17) -0.0029(19)
 C73 0.031(2) 0.0341(19) 0.044(3) 0.0083(16) 0.0129(17) 0.0074(17)
 C74 0.0265(18) 0.0365(19) 0.0208(17) 0.0117(15) -0.0029(14) 0.0002(14)
 C75 0.053(3) 0.046(3) 0.033(2) 0.029(2) 0.0156(19) 0.0137(17)
 C76 0.0211(17) 0.0200(15) 0.0234(16) 0.0001(13) 0.0074(13) 0.0042(12)
 C77 0.031(2) 0.0302(18) 0.0312(19) -0.0052(15) 0.0027(16) 0.0098(15)
 C78 0.046(3) 0.032(2) 0.045(3) -0.0144(18) -0.0001(19) 0.0080(17)
 C79 0.047(3) 0.0232(18) 0.052(3) -0.0047(16) 0.012(2) 0.0163(17)
 C80 0.035(2) 0.0277(18) 0.038(2) 0.0053(15) 0.0097(17) 0.0174(15)
 C81 0.0288(18) 0.0244(16) 0.0244(17) -0.0010(14) 0.0044(14) 0.0073(13)
 C82 0.052(3) 0.041(3) 0.052(3) 0.0039(19) 0.003(2) 0.029(2)
 C83 0.0207(16) 0.0161(14) 0.0192(15) -0.0009(12) 0.0008(13) 0.0068(12)
 C84 0.0260(18) 0.0244(16) 0.0240(17) 0.0038(14) 0.0034(14) 0.0018(13)
 C85 0.036(2) 0.0266(17) 0.0237(17) 0.0045(15) -0.0008(15) -0.0032(14)
 C86 0.0280(19) 0.0266(17) 0.0270(18) 0.0022(14) -0.0065(15) 0.0045(14)
 C87 0.0203(17) 0.0208(15) 0.0249(16) 0.0009(13) 0.0001(13) 0.0079(13)
 C88 0.0237(17) 0.0191(15) 0.0182(15) 0.0009(13) 0.0023(13) 0.0052(12)
 C89 0.0258(18) 0.0343(18) 0.0287(18) 0.0058(15) -0.0012(15) 0.0053(15)
 C90 0.0187(16) 0.0238(15) 0.0191(15) 0.0035(13) 0.0026(13) 0.0013(12)
 C91 0.030(2) 0.041(2) 0.0299(19) 0.0063(16) 0.0104(16) 0.0113(16)
 C92 0.031(2) 0.063(3) 0.037(3) 0.0129(19) 0.0231(18) 0.0075(19)
 C93 0.033(2) 0.043(3) 0.042(3) 0.0198(17) 0.0098(18) -0.0004(18)
 C94 0.0208(17) 0.0287(17) 0.0303(18) 0.0050(14) -0.0029(15) -0.0036(14)
 C95 0.0173(16) 0.0239(16) 0.0255(17) 0.0035(13) 0.0011(13) 0.0007(13)
 C96 0.037(3) 0.037(2) 0.054(3) 0.0173(17) 0.0011(19) 0.0058(18)

#==============================================================================
_computing_data_collection             'CrystalClear (Rigaku Corp., 2000)'
_computing_cell_refinement              CrystalClear
_computing_data_reduction               CrystalClear
_computing_structure_solution          'DIRDIF99-PATTY (Gould, et al., 1999)'
_computing_structure_refinement        'SHELXL97 (Sheldrick, 2008)'
_computing_publication_material        'CrystalStructure 4.0 (Rigaku, 2010)'
_computing_molecular_graphics          'CrystalStructure 4.0'

#==============================================================================
# MOLECULAR GEOMETRY

_geom_special_details
;
    ENTER SPECIAL DETAILS OF THE MOLECULAR GEOMETRY
;

loop_
_geom_bond_atom_site_label_1
_geom_bond_atom_site_label_2
_geom_bond_distance
_geom_bond_publ_flag
_geom_bond_site_symmetry_1
_geom_bond_site_symmetry_2
Pd1 P1 2.2775(9) yes . .
Pd1 O1 2.0217(19) yes . .
Pd1 O2 1.983(2) yes . .
Pd1 C1 2.024(3) yes . .
Pd2 P2 2.2528(9) yes . .
Pd2 O3 2.018(2) yes . .
Pd2 O4 1.969(3) yes . .
Pd2 C49 2.023(3) yes . .
P1 C28 1.822(3) yes . .
P1 C35 1.828(4) yes . .
P1 C42 1.821(3) yes . .
P2 C76 1.832(4) yes . .
P2 C83 1.821(3) yes . .
P2 C90 1.829(4) yes . .
O1 O2 1.428(3) yes . .
O3 O4 1.435(4) yes . .
N1 C1 1.371(4) yes . .
N1 C2 1.391(5) yes . .
N1 C4 1.451(4) yes . .
N2 C1 1.364(4) yes . .
N2 C3 1.394(4) yes . .
N2 C16 1.449(4) yes . .
N3 C49 1.358(4) yes . .
N3 C50 1.395(4) yes . .
N3 C64 1.450(3) yes . .
N4 C49 1.366(4) yes . .
N4 C51 1.390(4) yes . .
N4 C52 1.453(4) yes . .
C2 C3 1.333(5) yes . .
C4 C5 1.396(4) yes . .
C4 C9 1.411(4) yes . .
C5 C6 1.393(5) yes . .
C5 C11 1.514(5) yes . .
C6 C7 1.376(6) yes . .
C7 C8 1.373(5) yes . .
C8 C9 1.395(5) yes . .
C9 C14 1.509(4) yes . .
C10 C11 1.538(6) yes . .
C11 C12 1.526(6) yes . .
C13 C14 1.541(6) yes . .
C14 C15 1.532(5) yes . .
C16 C17 1.395(5) yes . .
C16 C21 1.404(4) yes . .
C17 C18 1.398(5) yes . .
C17 C23 1.517(4) yes . .
C18 C19 1.372(4) yes . .
C19 C20 1.379(5) yes . .
C20 C21 1.392(5) yes . .
C21 C26 1.513(5) yes . .
C22 C23 1.534(5) yes . .
C23 C24 1.529(5) yes . .
C25 C26 1.528(6) yes . .
C26 C27 1.530(5) yes . .
C28 C29 1.388(5) yes . .
C28 C33 1.392(5) yes . .
C29 C30 1.399(5) yes . .
C30 C31 1.390(5) yes . .
C30 C34 1.497(5) yes . .
C31 C32 1.382(5) yes . .
C32 C33 1.387(5) yes . .
C35 C36 1.397(5) yes . .
C35 C40 1.392(4) yes . .
C36 C37 1.379(5) yes . .
C37 C38 1.389(4) yes . .
C38 C39 1.385(5) yes . .
C39 C40 1.394(5) yes . .
C39 C41 1.516(4) yes . .
C42 C43 1.389(5) yes . .
C42 C47 1.386(5) yes . .
C43 C44 1.394(5) yes . .
C44 C45 1.363(7) yes . .
C45 C46 1.384(6) yes . .
C46 C47 1.398(5) yes . .
C46 C48 1.487(6) yes . .
C50 C51 1.338(4) yes . .
C52 C53 1.409(5) yes . .
C52 C57 1.401(4) yes . .
C53 C54 1.389(4) yes . .
C53 C62 1.522(4) yes . .
C54 C55 1.382(4) yes . .
C55 C56 1.379(5) yes . .
C56 C57 1.395(5) yes . .
C57 C59 1.525(5) yes . .
C58 C59 1.529(5) yes . .
C59 C60 1.535(5) yes . .
C61 C62 1.525(5) yes . .
C62 C63 1.525(5) yes . .
C64 C65 1.397(4) yes . .
C64 C69 1.396(5) yes . .
C65 C66 1.393(4) yes . .
C65 C74 1.520(5) yes . .
C66 C67 1.381(5) yes . .
C67 C68 1.370(5) yes . .
C68 C69 1.393(4) yes . .
C69 C71 1.516(5) yes . .
C70 C71 1.524(6) yes . .
C71 C72 1.532(6) yes . .
C73 C74 1.528(6) yes . .
C74 C75 1.532(6) yes . .
C76 C77 1.384(4) yes . .
C76 C81 1.392(5) yes . .
C77 C78 1.385(6) yes . .
C78 C79 1.380(6) yes . .
C79 C80 1.382(5) yes . .
C80 C81 1.392(5) yes . .
C80 C82 1.499(6) yes . .
C83 C84 1.391(4) yes . .
C83 C88 1.390(5) yes . .
C84 C85 1.382(5) yes . .
C85 C86 1.381(6) yes . .
C86 C87 1.387(5) yes . .
C87 C88 1.390(4) yes . .
C87 C89 1.513(5) yes . .
C90 C91 1.385(5) yes . .
C90 C95 1.389(5) yes . .
C91 C92 1.390(6) yes . .
C92 C93 1.378(6) yes . .
C93 C94 1.388(6) yes . .
C94 C95 1.393(5) yes . .
C94 C96 1.514(6) yes . .
C2 H2 0.950 no . .
C3 H3 0.950 no . .
C6 H6 0.950 no . .
C7 H7 0.950 no . .
C8 H8 0.950 no . .
C10 H10A 0.980 no . .
C10 H10B 0.980 no . .
C10 H10C 0.980 no . .
C11 H11 1.000 no . .
C12 H12A 0.980 no . .
C12 H12B 0.980 no . .
C12 H12C 0.980 no . .
C13 H13A 0.980 no . .
C13 H13B 0.980 no . .
C13 H13C 0.980 no . .
C14 H14 1.000 no . .
C15 H15A 0.980 no . .
C15 H15B 0.980 no . .
C15 H15C 0.980 no . .
C18 H18 0.950 no . .
C19 H19 0.950 no . .
C20 H20 0.950 no . .
C22 H22A 0.980 no . .
C22 H22B 0.980 no . .
C22 H22C 0.980 no . .
C23 H23 1.000 no . .
C24 H24A 0.980 no . .
C24 H24B 0.980 no . .
C24 H24C 0.980 no . .
C25 H25A 0.980 no . .
C25 H25B 0.980 no . .
C25 H25C 0.980 no . .
C26 H26 1.000 no . .
C27 H27A 0.980 no . .
C27 H27B 0.980 no . .
C27 H27C 0.980 no . .
C29 H29 0.950 no . .
C31 H31 0.950 no . .
C32 H32 0.950 no . .
C33 H33 0.950 no . .
C34 H34A 0.980 no . .
C34 H34B 0.980 no . .
C34 H34C 0.980 no . .
C36 H36 0.950 no . .
C37 H37 0.950 no . .
C38 H38 0.950 no . .
C40 H40 0.950 no . .
C41 H41A 0.980 no . .
C41 H41B 0.980 no . .
C41 H41C 0.980 no . .
C43 H43 0.950 no . .
C44 H44 0.950 no . .
C45 H45 0.950 no . .
C47 H47 0.950 no . .
C48 H48A 0.980 no . .
C48 H48B 0.980 no . .
C48 H48C 0.980 no . .
C50 H50 0.950 no . .
C51 H51 0.950 no . .
C54 H54 0.950 no . .
C55 H55 0.950 no . .
C56 H56 0.950 no . .
C58 H58A 0.980 no . .
C58 H58B 0.980 no . .
C58 H58C 0.980 no . .
C59 H59 1.000 no . .
C60 H60A 0.980 no . .
C60 H60B 0.980 no . .
C60 H60C 0.980 no . .
C61 H61A 0.980 no . .
C61 H61B 0.980 no . .
C61 H61C 0.980 no . .
C62 H62 1.000 no . .
C63 H63A 0.980 no . .
C63 H63B 0.980 no . .
C63 H63C 0.980 no . .
C66 H66 0.950 no . .
C67 H67 0.950 no . .
C68 H68 0.950 no . .
C70 H70A 0.980 no . .
C70 H70B 0.980 no . .
C70 H70C 0.980 no . .
C71 H71 1.000 no . .
C72 H72A 0.980 no . .
C72 H72B 0.980 no . .
C72 H72C 0.980 no . .
C73 H73A 0.980 no . .
C73 H73B 0.980 no . .
C73 H73C 0.980 no . .
C74 H74 1.000 no . .
C75 H75A 0.980 no . .
C75 H75B 0.980 no . .
C75 H75C 0.980 no . .
C77 H77 0.950 no . .
C78 H78 0.950 no . .
C79 H79 0.950 no . .
C81 H81 0.950 no . .
C82 H82A 0.980 no . .
C82 H82B 0.980 no . .
C82 H82C 0.980 no . .
C84 H84 0.950 no . .
C85 H85 0.950 no . .
C86 H86 0.950 no . .
C88 H88 0.950 no . .
C89 H89A 0.980 no . .
C89 H89B 0.980 no . .
C89 H89C 0.980 no . .
C91 H91 0.950 no . .
C92 H92 0.950 no . .
C93 H93 0.950 no . .
C95 H95 0.950 no . .
C96 H96A 0.980 no . .
C96 H96B 0.980 no . .
C96 H96C 0.980 no . .

loop_
_geom_angle_atom_site_label_1
_geom_angle_atom_site_label_2
_geom_angle_atom_site_label_3
_geom_angle
_geom_angle_publ_flag
_geom_angle_site_symmetry_1
_geom_angle_site_symmetry_2
_geom_angle_site_symmetry_3
P1 Pd1 O1 141.54(7) yes . . .
P1 Pd1 O2 99.76(7) yes . . .
P1 Pd1 C1 107.24(8) yes . . .
O1 Pd1 O2 41.77(9) yes . . .
O1 Pd1 C1 111.22(10) yes . . .
O2 Pd1 C1 152.97(10) yes . . .
P2 Pd2 O3 144.41(7) yes . . .
P2 Pd2 O4 102.28(8) yes . . .
P2 Pd2 C49 106.67(8) yes . . .
O3 Pd2 O4 42.18(10) yes . . .
O3 Pd2 C49 108.86(10) yes . . .
O4 Pd2 C49 151.03(11) yes . . .
Pd1 P1 C28 109.01(9) yes . . .
Pd1 P1 C35 109.66(10) yes . . .
Pd1 P1 C42 125.83(12) yes . . .
C28 P1 C35 103.28(15) yes . . .
C28 P1 C42 104.25(14) yes . . .
C35 P1 C42 102.56(14) yes . . .
Pd2 P2 C76 106.56(10) yes . . .
Pd2 P2 C83 116.97(11) yes . . .
Pd2 P2 C90 121.52(11) yes . . .
C76 P2 C83 101.66(14) yes . . .
C76 P2 C90 105.40(15) yes . . .
C83 P2 C90 102.52(13) yes . . .
Pd1 O1 O2 67.68(11) yes . . .
Pd1 O2 O1 70.55(12) yes . . .
Pd2 O3 O4 67.09(12) yes . . .
Pd2 O4 O3 70.73(13) yes . . .
C1 N1 C2 111.3(3) yes . . .
C1 N1 C4 127.7(3) yes . . .
C2 N1 C4 120.6(3) yes . . .
C1 N2 C3 111.5(3) yes . . .
C1 N2 C16 125.1(3) yes . . .
C3 N2 C16 121.7(3) yes . . .
C49 N3 C50 111.5(3) yes . . .
C49 N3 C64 125.4(3) yes . . .
C50 N3 C64 122.1(3) yes . . .
C49 N4 C51 111.5(3) yes . . .
C49 N4 C52 125.9(3) yes . . .
C51 N4 C52 122.4(3) yes . . .
Pd1 C1 N1 127.3(3) yes . . .
Pd1 C1 N2 129.2(2) yes . . .
N1 C1 N2 103.3(3) yes . . .
N1 C2 C3 107.0(3) yes . . .
N2 C3 C2 106.8(3) yes . . .
N1 C4 C5 118.4(3) yes . . .
N1 C4 C9 118.5(3) yes . . .
C5 C4 C9 122.7(3) yes . . .
C4 C5 C6 117.5(3) yes . . .
C4 C5 C11 123.2(3) yes . . .
C6 C5 C11 119.2(3) yes . . .
C5 C6 C7 121.2(3) yes . . .
C6 C7 C8 120.3(4) yes . . .
C7 C8 C9 121.7(4) yes . . .
C4 C9 C8 116.6(3) yes . . .
C4 C9 C14 122.5(3) yes . . .
C8 C9 C14 120.7(3) yes . . .
C5 C11 C10 110.7(4) yes . . .
C5 C11 C12 111.1(4) yes . . .
C10 C11 C12 111.3(3) yes . . .
C9 C14 C13 109.7(3) yes . . .
C9 C14 C15 113.9(3) yes . . .
C13 C14 C15 109.5(3) yes . . .
N2 C16 C17 120.2(3) yes . . .
N2 C16 C21 117.0(3) yes . . .
C17 C16 C21 122.5(3) yes . . .
C16 C17 C18 117.5(3) yes . . .
C16 C17 C23 122.2(3) yes . . .
C18 C17 C23 120.3(3) yes . . .
C17 C18 C19 121.0(3) yes . . .
C18 C19 C20 120.6(3) yes . . .
C19 C20 C21 121.1(3) yes . . .
C16 C21 C20 117.3(3) yes . . .
C16 C21 C26 123.0(3) yes . . .
C20 C21 C26 119.6(3) yes . . .
C17 C23 C22 111.2(3) yes . . .
C17 C23 C24 112.8(3) yes . . .
C22 C23 C24 109.0(3) yes . . .
C21 C26 C25 109.8(3) yes . . .
C21 C26 C27 112.9(3) yes . . .
C25 C26 C27 110.4(3) yes . . .
P1 C28 C29 118.0(3) yes . . .
P1 C28 C33 123.0(3) yes . . .
C29 C28 C33 119.0(3) yes . . .
C28 C29 C30 121.9(3) yes . . .
C29 C30 C31 117.9(3) yes . . .
C29 C30 C34 121.1(3) yes . . .
C31 C30 C34 121.0(3) yes . . .
C30 C31 C32 120.8(3) yes . . .
C31 C32 C33 120.8(4) yes . . .
C28 C33 C32 119.7(3) yes . . .
P1 C35 C36 118.3(2) yes . . .
P1 C35 C40 123.0(3) yes . . .
C36 C35 C40 118.7(3) yes . . .
C35 C36 C37 120.3(3) yes . . .
C36 C37 C38 120.1(3) yes . . .
C37 C38 C39 120.9(4) yes . . .
C38 C39 C40 118.4(3) yes . . .
C38 C39 C41 122.1(4) yes . . .
C40 C39 C41 119.5(3) yes . . .
C35 C40 C39 121.5(3) yes . . .
P1 C42 C43 118.1(3) yes . . .
P1 C42 C47 123.0(3) yes . . .
C43 C42 C47 118.9(3) yes . . .
C42 C43 C44 119.9(4) yes . . .
C43 C44 C45 120.1(4) yes . . .
C44 C45 C46 121.7(4) yes . . .
C45 C46 C47 117.8(4) yes . . .
C45 C46 C48 120.8(4) yes . . .
C47 C46 C48 121.3(4) yes . . .
C42 C47 C46 121.6(4) yes . . .
Pd2 C49 N3 124.38(18) yes . . .
Pd2 C49 N4 131.2(2) yes . . .
N3 C49 N4 103.6(3) yes . . .
N3 C50 C51 106.8(3) yes . . .
N4 C51 C50 106.7(3) yes . . .
N4 C52 C53 118.4(3) yes . . .
N4 C52 C57 118.7(3) yes . . .
C53 C52 C57 122.7(3) yes . . .
C52 C53 C54 117.0(3) yes . . .
C52 C53 C62 123.1(3) yes . . .
C54 C53 C62 119.8(3) yes . . .
C53 C54 C55 121.5(3) yes . . .
C54 C55 C56 120.3(3) yes . . .
C55 C56 C57 121.2(3) yes . . .
C52 C57 C56 117.3(3) yes . . .
C52 C57 C59 123.3(3) yes . . .
C56 C57 C59 119.3(3) yes . . .
C57 C59 C58 112.1(3) yes . . .
C57 C59 C60 110.4(3) yes . . .
C58 C59 C60 110.8(3) yes . . .
C53 C62 C61 110.1(3) yes . . .
C53 C62 C63 113.1(3) yes . . .
C61 C62 C63 111.3(3) yes . . .
N3 C64 C65 117.8(3) yes . . .
N3 C64 C69 119.1(3) yes . . .
C65 C64 C69 123.1(3) yes . . .
C64 C65 C66 116.9(3) yes . . .
C64 C65 C74 122.7(3) yes . . .
C66 C65 C74 120.4(3) yes . . .
C65 C66 C67 121.3(3) yes . . .
C66 C67 C68 120.2(3) yes . . .
C67 C68 C69 121.5(3) yes . . .
C64 C69 C68 117.0(3) yes . . .
C64 C69 C71 122.3(3) yes . . .
C68 C69 C71 120.6(3) yes . . .
C69 C71 C70 110.8(3) yes . . .
C69 C71 C72 111.2(3) yes . . .
C70 C71 C72 111.9(4) yes . . .
C65 C74 C73 112.2(3) yes . . .
C65 C74 C75 112.1(3) yes . . .
C73 C74 C75 110.2(3) yes . . .
P2 C76 C77 118.3(3) yes . . .
P2 C76 C81 122.7(2) yes . . .
C77 C76 C81 118.6(3) yes . . .
C76 C77 C78 120.6(4) yes . . .
C77 C78 C79 119.9(3) yes . . .
C78 C79 C80 121.0(4) yes . . .
C79 C80 C81 118.4(4) yes . . .
C79 C80 C82 120.9(4) yes . . .
C81 C80 C82 120.8(3) yes . . .
C76 C81 C80 121.6(3) yes . . .
P2 C83 C84 122.6(3) yes . . .
P2 C83 C88 117.8(2) yes . . .
C84 C83 C88 119.1(3) yes . . .
C83 C84 C85 120.1(4) yes . . .
C84 C85 C86 120.0(3) yes . . .
C85 C86 C87 121.2(3) yes . . .
C86 C87 C88 118.2(3) yes . . .
C86 C87 C89 120.9(3) yes . . .
C88 C87 C89 120.9(3) yes . . .
C83 C88 C87 121.3(3) yes . . .
P2 C90 C91 122.9(3) yes . . .
P2 C90 C95 118.0(3) yes . . .
C91 C90 C95 119.1(4) yes . . .
C90 C91 C92 119.4(4) yes . . .
C91 C92 C93 120.8(4) yes . . .
C92 C93 C94 120.9(4) yes . . .
C93 C94 C95 117.7(4) yes . . .
C93 C94 C96 121.1(4) yes . . .
C95 C94 C96 121.2(4) yes . . .
C90 C95 C94 122.1(3) yes . . .
N1 C2 H2 126.478 no . . .
C3 C2 H2 126.492 no . . .
N2 C3 H3 126.590 no . . .
C2 C3 H3 126.577 no . . .
C5 C6 H6 119.384 no . . .
C7 C6 H6 119.385 no . . .
C6 C7 H7 119.849 no . . .
C8 C7 H7 119.847 no . . .
C7 C8 H8 119.138 no . . .
C9 C8 H8 119.159 no . . .
C11 C10 H10A 109.468 no . . .
C11 C10 H10B 109.475 no . . .
C11 C10 H10C 109.475 no . . .
H10A C10 H10B 109.467 no . . .
H10A C10 H10C 109.473 no . . .
H10B C10 H10C 109.470 no . . .
C5 C11 H11 107.864 no . . .
C10 C11 H11 107.879 no . . .
C12 C11 H11 107.871 no . . .
C11 C12 H12A 109.472 no . . .
C11 C12 H12B 109.475 no . . .
C11 C12 H12C 109.474 no . . .
H12A C12 H12B 109.475 no . . .
H12A C12 H12C 109.468 no . . .
H12B C12 H12C 109.463 no . . .
C14 C13 H13A 109.474 no . . .
C14 C13 H13B 109.473 no . . .
C14 C13 H13C 109.478 no . . .
H13A C13 H13B 109.469 no . . .
H13A C13 H13C 109.472 no . . .
H13B C13 H13C 109.461 no . . .
C9 C14 H14 107.846 no . . .
C13 C14 H14 107.847 no . . .
C15 C14 H14 107.851 no . . .
C14 C15 H15A 109.475 no . . .
C14 C15 H15B 109.471 no . . .
C14 C15 H15C 109.479 no . . .
H15A C15 H15B 109.469 no . . .
H15A C15 H15C 109.470 no . . .
H15B C15 H15C 109.463 no . . .
C17 C18 H18 119.514 no . . .
C19 C18 H18 119.495 no . . .
C18 C19 H19 119.706 no . . .
C20 C19 H19 119.707 no . . .
C19 C20 H20 119.472 no . . .
C21 C20 H20 119.454 no . . .
C23 C22 H22A 109.471 no . . .
C23 C22 H22B 109.471 no . . .
C23 C22 H22C 109.466 no . . .
H22A C22 H22B 109.476 no . . .
H22A C22 H22C 109.481 no . . .
H22B C22 H22C 109.462 no . . .
C17 C23 H23 107.898 no . . .
C22 C23 H23 107.900 no . . .
C24 C23 H23 107.899 no . . .
C23 C24 H24A 109.471 no . . .
C23 C24 H24B 109.472 no . . .
C23 C24 H24C 109.477 no . . .
H24A C24 H24B 109.475 no . . .
H24A C24 H24C 109.473 no . . .
H24B C24 H24C 109.459 no . . .
C26 C25 H25A 109.465 no . . .
C26 C25 H25B 109.465 no . . .
C26 C25 H25C 109.467 no . . .
H25A C25 H25B 109.469 no . . .
H25A C25 H25C 109.477 no . . .
H25B C25 H25C 109.485 no . . .
C21 C26 H26 107.850 no . . .
C25 C26 H26 107.838 no . . .
C27 C26 H26 107.847 no . . .
C26 C27 H27A 109.474 no . . .
C26 C27 H27B 109.471 no . . .
C26 C27 H27C 109.467 no . . .
H27A C27 H27B 109.472 no . . .
H27A C27 H27C 109.467 no . . .
H27B C27 H27C 109.476 no . . .
C28 C29 H29 119.033 no . . .
C30 C29 H29 119.052 no . . .
C30 C31 H31 119.625 no . . .
C32 C31 H31 119.622 no . . .
C31 C32 H32 119.616 no . . .
C33 C32 H32 119.630 no . . .
C28 C33 H33 120.168 no . . .
C32 C33 H33 120.149 no . . .
C30 C34 H34A 109.474 no . . .
C30 C34 H34B 109.471 no . . .
C30 C34 H34C 109.475 no . . .
H34A C34 H34B 109.474 no . . .
H34A C34 H34C 109.470 no . . .
H34B C34 H34C 109.463 no . . .
C35 C36 H36 119.854 no . . .
C37 C36 H36 119.840 no . . .
C36 C37 H37 119.936 no . . .
C38 C37 H37 119.933 no . . .
C37 C38 H38 119.540 no . . .
C39 C38 H38 119.550 no . . .
C35 C40 H40 119.237 no . . .
C39 C40 H40 119.231 no . . .
C39 C41 H41A 109.472 no . . .
C39 C41 H41B 109.477 no . . .
C39 C41 H41C 109.467 no . . .
H41A C41 H41B 109.468 no . . .
H41A C41 H41C 109.471 no . . .
H41B C41 H41C 109.473 no . . .
C42 C43 H43 120.060 no . . .
C44 C43 H43 120.063 no . . .
C43 C44 H44 119.932 no . . .
C45 C44 H44 119.930 no . . .
C44 C45 H45 119.165 no . . .
C46 C45 H45 119.168 no . . .
C42 C47 H47 119.207 no . . .
C46 C47 H47 119.199 no . . .
C46 C48 H48A 109.468 no . . .
C46 C48 H48B 109.475 no . . .
C46 C48 H48C 109.485 no . . .
H48A C48 H48B 109.464 no . . .
H48A C48 H48C 109.462 no . . .
H48B C48 H48C 109.473 no . . .
N3 C50 H50 126.620 no . . .
C51 C50 H50 126.623 no . . .
N4 C51 H51 126.628 no . . .
C50 C51 H51 126.647 no . . .
C53 C54 H54 119.242 no . . .
C55 C54 H54 119.232 no . . .
C54 C55 H55 119.865 no . . .
C56 C55 H55 119.863 no . . .
C55 C56 H56 119.408 no . . .
C57 C56 H56 119.426 no . . .
C59 C58 H58A 109.471 no . . .
C59 C58 H58B 109.466 no . . .
C59 C58 H58C 109.472 no . . .
H58A C58 H58B 109.471 no . . .
H58A C58 H58C 109.470 no . . .
H58B C58 H58C 109.477 no . . .
C57 C59 H59 107.807 no . . .
C58 C59 H59 107.814 no . . .
C60 C59 H59 107.817 no . . .
C59 C60 H60A 109.467 no . . .
C59 C60 H60B 109.473 no . . .
C59 C60 H60C 109.472 no . . .
H60A C60 H60B 109.473 no . . .
H60A C60 H60C 109.466 no . . .
H60B C60 H60C 109.476 no . . .
C62 C61 H61A 109.474 no . . .
C62 C61 H61B 109.468 no . . .
C62 C61 H61C 109.465 no . . .
H61A C61 H61B 109.477 no . . .
H61A C61 H61C 109.480 no . . .
H61B C61 H61C 109.464 no . . .
C53 C62 H62 107.402 no . . .
C61 C62 H62 107.394 no . . .
C63 C62 H62 107.403 no . . .
C62 C63 H63A 109.476 no . . .
C62 C63 H63B 109.470 no . . .
C62 C63 H63C 109.474 no . . .
H63A C63 H63B 109.463 no . . .
H63A C63 H63C 109.486 no . . .
H63B C63 H63C 109.459 no . . .
C65 C66 H66 119.374 no . . .
C67 C66 H66 119.365 no . . .
C66 C67 H67 119.904 no . . .
C68 C67 H67 119.909 no . . .
C67 C68 H68 119.274 no . . .
C69 C68 H68 119.264 no . . .
C71 C70 H70A 109.473 no . . .
C71 C70 H70B 109.464 no . . .
C71 C70 H70C 109.465 no . . .
H70A C70 H70B 109.475 no . . .
H70A C70 H70C 109.477 no . . .
H70B C70 H70C 109.474 no . . .
C69 C71 H71 107.568 no . . .
C70 C71 H71 107.566 no . . .
C72 C71 H71 107.561 no . . .
C71 C72 H72A 109.477 no . . .
C71 C72 H72B 109.471 no . . .
C71 C72 H72C 109.480 no . . .
H72A C72 H72B 109.465 no . . .
H72A C72 H72C 109.466 no . . .
H72B C72 H72C 109.469 no . . .
C74 C73 H73A 109.473 no . . .
C74 C73 H73B 109.482 no . . .
C74 C73 H73C 109.465 no . . .
H73A C73 H73B 109.471 no . . .
H73A C73 H73C 109.471 no . . .
H73B C73 H73C 109.466 no . . .
C65 C74 H74 107.360 no . . .
C73 C74 H74 107.374 no . . .
C75 C74 H74 107.371 no . . .
C74 C75 H75A 109.472 no . . .
C74 C75 H75B 109.471 no . . .
C74 C75 H75C 109.466 no . . .
H75A C75 H75B 109.478 no . . .
H75A C75 H75C 109.476 no . . .
H75B C75 H75C 109.464 no . . .
C76 C77 H77 119.710 no . . .
C78 C77 H77 119.703 no . . .
C77 C78 H78 120.056 no . . .
C79 C78 H78 120.058 no . . .
C78 C79 H79 119.479 no . . .
C80 C79 H79 119.501 no . . .
C76 C81 H81 119.217 no . . .
C80 C81 H81 119.220 no . . .
C80 C82 H82A 109.468 no . . .
C80 C82 H82B 109.469 no . . .
C80 C82 H82C 109.470 no . . .
H82A C82 H82B 109.476 no . . .
H82A C82 H82C 109.466 no . . .
H82B C82 H82C 109.478 no . . .
C83 C84 H84 119.960 no . . .
C85 C84 H84 119.977 no . . .
C84 C85 H85 120.004 no . . .
C86 C85 H85 120.011 no . . .
C85 C86 H86 119.405 no . . .
C87 C86 H86 119.395 no . . .
C83 C88 H88 119.345 no . . .
C87 C88 H88 119.330 no . . .
C87 C89 H89A 109.474 no . . .
C87 C89 H89B 109.475 no . . .
C87 C89 H89C 109.473 no . . .
H89A C89 H89B 109.471 no . . .
H89A C89 H89C 109.472 no . . .
H89B C89 H89C 109.464 no . . .
C90 C91 H91 120.295 no . . .
C92 C91 H91 120.282 no . . .
C91 C92 H92 119.598 no . . .
C93 C92 H92 119.602 no . . .
C92 C93 H93 119.546 no . . .
C94 C93 H93 119.539 no . . .
C90 C95 H95 118.943 no . . .
C94 C95 H95 118.953 no . . .
C94 C96 H96A 109.469 no . . .
C94 C96 H96B 109.467 no . . .
C94 C96 H96C 109.473 no . . .
H96A C96 H96B 109.471 no . . .
H96A C96 H96C 109.468 no . . .
H96B C96 H96C 109.479 no . . .

loop_
_geom_torsion_atom_site_label_1
_geom_torsion_atom_site_label_2
_geom_torsion_atom_site_label_3
_geom_torsion_atom_site_label_4
_geom_torsion
_geom_torsion_publ_flag
_geom_torsion_site_symmetry_1
_geom_torsion_site_symmetry_2
_geom_torsion_site_symmetry_3
_geom_torsion_site_symmetry_4
P1 Pd1 O1 O2 -0.16(16) no . . . .
O1 Pd1 P1 C28 -58.42(12) no . . . .
O1 Pd1 P1 C35 53.98(12) no . . . .
O1 Pd1 P1 C42 176.85(11) no . . . .
P1 Pd1 O2 O1 179.90(7) no . . . .
O2 Pd1 P1 C28 -58.53(8) no . . . .
O2 Pd1 P1 C35 53.87(8) no . . . .
O2 Pd1 P1 C42 176.74(8) no . . . .
P1 Pd1 C1 N1 108.17(18) no . . . .
P1 Pd1 C1 N2 -77.7(2) no . . . .
C1 Pd1 P1 C28 120.29(9) no . . . .
C1 Pd1 P1 C35 -127.32(9) no . . . .
C1 Pd1 P1 C42 -4.45(10) no . . . .
O1 Pd1 O2 O1 -0.00(10) no . . . .
O2 Pd1 O1 O2 -0.00(10) no . . . .
O1 Pd1 C1 N1 -72.7(2) no . . . .
O1 Pd1 C1 N2 101.5(2) no . . . .
C1 Pd1 O1 O2 -178.84(10) no . . . .
O2 Pd1 C1 N1 -74.4(3) no . . . .
O2 Pd1 C1 N2 99.8(3) no . . . .
C1 Pd1 O2 O1 2.4(3) no . . . .
P2 Pd2 O3 O4 3.53(18) no . . . .
O3 Pd2 P2 C76 -14.99(14) no . . . .
O3 Pd2 P2 C83 97.84(13) no . . . .
O3 Pd2 P2 C90 -135.47(13) no . . . .
P2 Pd2 O4 O3 -177.90(7) no . . . .
O4 Pd2 P2 C76 -12.56(9) no . . . .
O4 Pd2 P2 C83 100.26(9) no . . . .
O4 Pd2 P2 C90 -133.05(9) no . . . .
P2 Pd2 C49 N3 -121.73(19) no . . . .
P2 Pd2 C49 N4 70.8(3) no . . . .
C49 Pd2 P2 C76 168.52(9) no . . . .
C49 Pd2 P2 C83 -78.66(10) no . . . .
C49 Pd2 P2 C90 48.03(10) no . . . .
O3 Pd2 O4 O3 0.00(11) no . . . .
O4 Pd2 O3 O4 0.00(12) no . . . .
O3 Pd2 C49 N3 60.4(3) no . . . .
O3 Pd2 C49 N4 -107.1(3) no . . . .
C49 Pd2 O3 O4 179.99(10) no . . . .
O4 Pd2 C49 N3 60.4(4) no . . . .
O4 Pd2 C49 N4 -107.0(3) no . . . .
C49 Pd2 O4 O3 -0.0(3) no . . . .
Pd1 P1 C28 C29 -40.8(2) no . . . .
Pd1 P1 C28 C33 138.68(17) no . . . .
Pd1 P1 C35 C36 -53.3(3) no . . . .
Pd1 P1 C35 C40 125.5(2) no . . . .
Pd1 P1 C42 C43 -30.3(3) no . . . .
Pd1 P1 C42 C47 151.57(17) no . . . .
C28 P1 C35 C36 62.8(3) no . . . .
C28 P1 C35 C40 -118.4(3) no . . . .
C35 P1 C28 C29 -157.38(18) no . . . .
C35 P1 C28 C33 22.1(3) no . . . .
C28 P1 C42 C43 -157.0(2) no . . . .
C28 P1 C42 C47 24.9(3) no . . . .
C42 P1 C28 C29 95.7(2) no . . . .
C42 P1 C28 C33 -84.7(3) no . . . .
C35 P1 C42 C43 95.6(3) no . . . .
C35 P1 C42 C47 -82.6(3) no . . . .
C42 P1 C35 C36 171.0(2) no . . . .
C42 P1 C35 C40 -10.3(3) no . . . .
Pd2 P2 C76 C77 -44.8(3) no . . . .
Pd2 P2 C76 C81 127.9(2) no . . . .
Pd2 P2 C83 C84 153.15(17) no . . . .
Pd2 P2 C83 C88 -34.7(3) no . . . .
Pd2 P2 C90 C91 131.36(17) no . . . .
Pd2 P2 C90 C95 -51.4(2) no . . . .
C76 P2 C83 C84 -91.3(3) no . . . .
C76 P2 C83 C88 80.9(3) no . . . .
C83 P2 C76 C77 -167.8(3) no . . . .
C83 P2 C76 C81 4.9(3) no . . . .
C76 P2 C90 C91 10.3(3) no . . . .
C76 P2 C90 C95 -172.44(17) no . . . .
C90 P2 C76 C77 85.6(3) no . . . .
C90 P2 C76 C81 -101.7(3) no . . . .
C83 P2 C90 C91 -95.7(2) no . . . .
C83 P2 C90 C95 81.5(2) no . . . .
C90 P2 C83 C84 17.6(3) no . . . .
C90 P2 C83 C88 -170.2(2) no . . . .
Pd1 O1 O2 Pd1 0.0 no . . . .
Pd2 O3 O4 Pd2 0.0 no . . . .
C1 N1 C2 C3 -1.2(3) no . . . .
C2 N1 C1 Pd1 176.50(19) no . . . .
C2 N1 C1 N2 1.1(3) no . . . .
C1 N1 C4 C5 -112.9(3) no . . . .
C1 N1 C4 C9 74.5(4) no . . . .
C4 N1 C1 Pd1 3.7(4) no . . . .
C4 N1 C1 N2 -171.7(3) no . . . .
C2 N1 C4 C5 74.9(4) no . . . .
C2 N1 C4 C9 -97.8(3) no . . . .
C4 N1 C2 C3 172.2(2) no . . . .
C1 N2 C3 C2 0.0(3) no . . . .
C3 N2 C1 Pd1 -175.95(19) no . . . .
C3 N2 C1 N1 -0.7(3) no . . . .
C1 N2 C16 C17 109.1(3) no . . . .
C1 N2 C16 C21 -76.1(4) no . . . .
C16 N2 C1 Pd1 -10.6(4) no . . . .
C16 N2 C1 N1 164.7(3) no . . . .
C3 N2 C16 C17 -86.9(4) no . . . .
C3 N2 C16 C21 87.9(3) no . . . .
C16 N2 C3 C2 -165.9(2) no . . . .
C49 N3 C50 C51 0.5(4) no . . . .
C50 N3 C49 Pd2 -170.8(2) no . . . .
C50 N3 C49 N4 -0.4(3) no . . . .
C49 N3 C64 C65 -90.3(4) no . . . .
C49 N3 C64 C69 92.6(4) no . . . .
C64 N3 C49 Pd2 -2.5(4) no . . . .
C64 N3 C49 N4 167.8(3) no . . . .
C50 N3 C64 C65 76.8(4) no . . . .
C50 N3 C64 C69 -100.3(4) no . . . .
C64 N3 C50 C51 -168.1(3) no . . . .
C49 N4 C51 C50 0.2(3) no . . . .
C51 N4 C49 Pd2 169.6(3) no . . . .
C51 N4 C49 N3 0.2(3) no . . . .
C49 N4 C52 C53 66.0(4) no . . . .
C49 N4 C52 C57 -118.4(3) no . . . .
C52 N4 C49 Pd2 -4.5(5) no . . . .
C52 N4 C49 N3 -173.9(3) no . . . .
C51 N4 C52 C53 -107.4(3) no . . . .
C51 N4 C52 C57 68.1(4) no . . . .
C52 N4 C51 C50 174.5(3) no . . . .
N1 C2 C3 N2 0.7(3) no . . . .
N1 C4 C5 C6 -173.0(3) no . . . .
N1 C4 C5 C11 4.3(5) no . . . .
N1 C4 C9 C8 173.6(3) no . . . .
N1 C4 C9 C14 -1.9(5) no . . . .
C5 C4 C9 C8 1.3(5) no . . . .
C5 C4 C9 C14 -174.3(3) no . . . .
C9 C4 C5 C6 -0.7(5) no . . . .
C9 C4 C5 C11 176.6(3) no . . . .
C4 C5 C6 C7 -0.3(6) no . . . .
C4 C5 C11 C10 -110.8(4) no . . . .
C4 C5 C11 C12 125.0(4) no . . . .
C6 C5 C11 C10 66.4(5) no . . . .
C6 C5 C11 C12 -57.7(5) no . . . .
C11 C5 C6 C7 -177.7(4) no . . . .
C5 C6 C7 C8 0.6(7) no . . . .
C6 C7 C8 C9 0.1(6) no . . . .
C7 C8 C9 C4 -1.0(6) no . . . .
C7 C8 C9 C14 174.7(4) no . . . .
C4 C9 C14 C13 83.3(4) no . . . .
C4 C9 C14 C15 -153.6(3) no . . . .
C8 C9 C14 C13 -92.1(4) no . . . .
C8 C9 C14 C15 31.0(5) no . . . .
N2 C16 C17 C18 177.8(3) no . . . .
N2 C16 C17 C23 -0.8(5) no . . . .
N2 C16 C21 C20 -178.7(3) no . . . .
N2 C16 C21 C26 -2.9(5) no . . . .
C17 C16 C21 C20 -4.1(5) no . . . .
C17 C16 C21 C26 171.8(3) no . . . .
C21 C16 C17 C18 3.3(5) no . . . .
C21 C16 C17 C23 -175.2(3) no . . . .
C16 C17 C18 C19 -0.8(5) no . . . .
C16 C17 C23 C22 89.8(4) no . . . .
C16 C17 C23 C24 -147.4(3) no . . . .
C18 C17 C23 C22 -88.7(4) no . . . .
C18 C17 C23 C24 34.1(5) no . . . .
C23 C17 C18 C19 177.8(3) no . . . .
C17 C18 C19 C20 -0.8(6) no . . . .
C18 C19 C20 C21 -0.1(6) no . . . .
C19 C20 C21 C16 2.4(5) no . . . .
C19 C20 C21 C26 -173.6(3) no . . . .
C16 C21 C26 C25 -108.0(4) no . . . .
C16 C21 C26 C27 128.3(3) no . . . .
C20 C21 C26 C25 67.7(4) no . . . .
C20 C21 C26 C27 -56.0(4) no . . . .
P1 C28 C29 C30 -179.37(17) no . . . .
P1 C28 C33 C32 180.00(18) no . . . .
C29 C28 C33 C32 -0.5(4) no . . . .
C33 C28 C29 C30 1.1(4) no . . . .
C28 C29 C30 C31 -1.3(4) no . . . .
C28 C29 C30 C34 -179.9(3) no . . . .
C29 C30 C31 C32 0.9(4) no . . . .
C34 C30 C31 C32 179.5(3) no . . . .
C30 C31 C32 C33 -0.3(5) no . . . .
C31 C32 C33 C28 0.1(5) no . . . .
P1 C35 C36 C37 179.2(2) no . . . .
P1 C35 C40 C39 -179.1(2) no . . . .
C36 C35 C40 C39 -0.4(5) no . . . .
C40 C35 C36 C37 0.3(5) no . . . .
C35 C36 C37 C38 -0.6(5) no . . . .
C36 C37 C38 C39 0.9(5) no . . . .
C37 C38 C39 C40 -0.9(5) no . . . .
C37 C38 C39 C41 179.0(3) no . . . .
C38 C39 C40 C35 0.7(5) no . . . .
C41 C39 C40 C35 -179.3(3) no . . . .
P1 C42 C43 C44 -178.0(3) no . . . .
P1 C42 C47 C46 179.0(2) no . . . .
C43 C42 C47 C46 0.9(5) no . . . .
C47 C42 C43 C44 0.2(5) no . . . .
C42 C43 C44 C45 -1.2(6) no . . . .
C43 C44 C45 C46 1.0(7) no . . . .
C44 C45 C46 C47 0.1(6) no . . . .
C44 C45 C46 C48 -177.0(4) no . . . .
C45 C46 C47 C42 -1.1(6) no . . . .
C48 C46 C47 C42 176.0(4) no . . . .
N3 C50 C51 N4 -0.4(4) no . . . .
N4 C52 C53 C54 176.4(3) no . . . .
N4 C52 C53 C62 0.3(4) no . . . .
N4 C52 C57 C56 -177.5(3) no . . . .
N4 C52 C57 C59 -1.1(5) no . . . .
C53 C52 C57 C56 -2.2(5) no . . . .
C53 C52 C57 C59 174.3(3) no . . . .
C57 C52 C53 C54 1.0(5) no . . . .
C57 C52 C53 C62 -175.1(3) no . . . .
C52 C53 C54 C55 0.8(5) no . . . .
C52 C53 C62 C61 94.0(4) no . . . .
C52 C53 C62 C63 -140.9(3) no . . . .
C54 C53 C62 C61 -82.0(4) no . . . .
C54 C53 C62 C63 43.1(4) no . . . .
C62 C53 C54 C55 177.0(3) no . . . .
C53 C54 C55 C56 -1.3(5) no . . . .
C54 C55 C56 C57 0.0(5) no . . . .
C55 C56 C57 C52 1.7(5) no . . . .
C55 C56 C57 C59 -175.0(3) no . . . .
C52 C57 C59 C58 135.3(3) no . . . .
C52 C57 C59 C60 -100.7(3) no . . . .
C56 C57 C59 C58 -48.3(4) no . . . .
C56 C57 C59 C60 75.7(4) no . . . .
N3 C64 C65 C66 -174.6(3) no . . . .
N3 C64 C65 C74 4.5(5) no . . . .
N3 C64 C69 C68 175.7(3) no . . . .
N3 C64 C69 C71 -2.5(5) no . . . .
C65 C64 C69 C68 -1.2(5) no . . . .
C65 C64 C69 C71 -179.4(3) no . . . .
C69 C64 C65 C66 2.4(5) no . . . .
C69 C64 C65 C74 -178.6(3) no . . . .
C64 C65 C66 C67 -1.4(5) no . . . .
C64 C65 C74 C73 -100.4(4) no . . . .
C64 C65 C74 C75 135.0(3) no . . . .
C66 C65 C74 C73 78.6(4) no . . . .
C66 C65 C74 C75 -46.0(4) no . . . .
C74 C65 C66 C67 179.6(3) no . . . .
C65 C66 C67 C68 -0.7(6) no . . . .
C66 C67 C68 C69 2.0(6) no . . . .
C67 C68 C69 C64 -1.0(5) no . . . .
C67 C68 C69 C71 177.2(3) no . . . .
C64 C69 C71 C70 107.5(4) no . . . .
C64 C69 C71 C72 -127.3(3) no . . . .
C68 C69 C71 C70 -70.6(4) no . . . .
C68 C69 C71 C72 54.5(4) no . . . .
P2 C76 C77 C78 173.4(3) no . . . .
P2 C76 C81 C80 -171.3(2) no . . . .
C77 C76 C81 C80 1.4(5) no . . . .
C81 C76 C77 C78 0.4(5) no . . . .
C76 C77 C78 C79 -1.5(6) no . . . .
C77 C78 C79 C80 0.8(6) no . . . .
C78 C79 C80 C81 0.9(6) no . . . .
C78 C79 C80 C82 -178.1(4) no . . . .
C79 C80 C81 C76 -2.0(6) no . . . .
C82 C80 C81 C76 176.9(3) no . . . .
P2 C83 C84 C85 170.9(2) no . . . .
P2 C83 C88 C87 -170.43(19) no . . . .
C84 C83 C88 C87 2.0(5) no . . . .
C88 C83 C84 C85 -1.1(5) no . . . .
C83 C84 C85 C86 -0.4(5) no . . . .
C84 C85 C86 C87 1.2(5) no . . . .
C85 C86 C87 C88 -0.3(5) no . . . .
C85 C86 C87 C89 -179.6(3) no . . . .
C86 C87 C88 C83 -1.3(5) no . . . .
C89 C87 C88 C83 178.0(3) no . . . .
P2 C90 C91 C92 177.07(18) no . . . .
P2 C90 C95 C94 -176.50(17) no . . . .
C91 C90 C95 C94 0.9(4) no . . . .
C95 C90 C91 C92 -0.2(4) no . . . .
C90 C91 C92 C93 -1.0(5) no . . . .
C91 C92 C93 C94 1.4(5) no . . . .
C92 C93 C94 C95 -0.7(5) no . . . .
C92 C93 C94 C96 177.9(3) no . . . .
C93 C94 C95 C90 -0.4(5) no . . . .
C96 C94 C95 C90 -179.1(3) no . . . .

loop_
_geom_contact_atom_site_label_1
_geom_contact_atom_site_label_2
_geom_contact_distance
_geom_contact_publ_flag
_geom_contact_site_symmetry_1
_geom_contact_site_symmetry_2
Pd1 C4 3.515(4) no . .
Pd1 C16 3.508(3) no . .
Pd1 C29 3.533(4) no . .
Pd2 C52 3.569(3) no . .
Pd2 C62 3.493(4) no . .
Pd2 C64 3.376(3) no . .
Pd2 C77 3.495(4) no . .
O1 C14 3.180(5) no . .
O1 C15 3.184(5) no . .
O1 C27 3.365(5) no . .
O2 C36 3.168(4) no . .
O3 C62 3.556(4) no . .
O3 C63 3.433(5) no . .
O3 C65 3.504(4) no . .
O3 C74 3.413(5) no . .
O3 C75 3.143(5) no . .
O4 C76 3.223(4) no . .
O4 C77 2.951(5) no . .
N1 C11 2.918(4) no . .
N1 C13 3.397(4) no . .
N1 C14 2.915(4) no . .
N1 C16 3.542(4) no . .
N2 C4 3.565(4) no . .
N2 C22 3.557(5) no . .
N2 C23 2.934(4) no . .
N2 C26 2.888(4) no . .
N3 C52 3.557(4) no . .
N3 C71 2.914(5) no . .
N3 C74 2.894(4) no . .
N4 C59 2.935(4) no . .
N4 C62 2.931(5) no . .
N4 C64 3.546(4) no . .
C1 C5 3.527(5) no . .
C1 C9 3.281(5) no . .
C1 C14 3.337(5) no . .
C1 C17 3.493(5) no . .
C1 C21 3.224(4) no . .
C1 C26 3.326(4) no . .
C2 C5 3.186(5) no . .
C2 C9 3.376(5) no . .
C2 C11 3.325(5) no . .
C2 C13 3.537(5) no . .
C2 C16 3.558(5) no . .
C3 C4 3.562(5) no . .
C3 C17 3.319(5) no . .
C3 C21 3.288(4) no . .
C3 C22 3.547(5) no . .
C3 C23 3.519(5) no . .
C3 C26 3.444(4) no . .
C4 C7 2.751(5) no . .
C4 C10 3.549(5) no . .
C4 C13 3.300(5) no . .
C5 C8 2.791(5) no . .
C6 C9 2.801(5) no . .
C6 C10 3.106(6) no . .
C6 C12 3.030(6) no . .
C8 C13 3.345(6) no . .
C8 C15 2.933(5) no . .
C12 C43 3.525(6) no . .
C16 C19 2.748(5) no . .
C16 C22 3.369(5) no . .
C16 C25 3.510(5) no . .
C17 C20 2.794(4) no . .
C18 C21 2.795(5) no . .
C18 C22 3.337(5) no . .
C18 C24 2.923(5) no . .
C19 C34 3.576(6) no . .
C20 C25 3.098(6) no . .
C20 C27 3.059(6) no . .
C23 C43 3.555(5) no . .
C24 C42 3.579(5) no . .
C24 C46 3.500(5) no . .
C24 C47 3.391(6) no . .
C28 C31 2.783(5) no . .
C28 C36 3.334(5) no . .
C28 C47 3.144(4) no . .
C29 C32 2.752(5) no . .
C30 C33 2.802(5) no . .
C33 C35 3.111(5) no . .
C33 C36 3.361(5) no . .
C33 C47 3.503(5) no . .
C35 C38 2.781(5) no . .
C35 C47 3.583(5) no . .
C36 C39 2.793(4) no . .
C37 C40 2.762(5) no . .
C40 C42 3.054(5) no . .
C40 C47 3.577(5) no . .
C42 C45 2.770(5) no . .
C43 C46 2.790(6) no . .
C44 C47 2.753(6) no . .
C49 C53 3.193(4) no . .
C49 C57 3.549(4) no . .
C49 C62 3.223(5) no . .
C49 C65 3.332(4) no . .
C49 C69 3.368(4) no . .
C49 C71 3.561(5) no . .
C49 C74 3.487(4) no . .
C50 C52 3.577(5) no . .
C50 C65 3.214(4) no . .
C50 C69 3.412(4) no . .
C50 C73 3.543(5) no . .
C50 C74 3.343(5) no . .
C51 C53 3.465(5) no . .
C51 C57 3.170(4) no . .
C51 C59 3.215(4) no . .
C51 C60 3.493(4) no . .
C51 C64 3.570(4) no . .
C52 C55 2.752(4) no . .
C52 C60 3.474(5) no . .
C52 C61 3.407(5) no . .
C53 C56 2.803(4) no . .
C53 C88 3.580(5) no . .
C54 C57 2.797(5) no . .
C54 C61 3.242(5) no . .
C54 C63 2.975(4) no . .
C54 C88 3.502(5) no . .
C54 C89 3.511(5) no . .
C55 C87 3.413(5) no . .
C55 C89 3.526(6) no . .
C56 C58 2.990(6) no . .
C56 C60 3.196(5) no . .
C64 C67 2.743(4) no . .
C64 C70 3.508(6) no . .
C64 C73 3.480(5) no . .
C65 C68 2.792(5) no . .
C66 C69 2.791(5) no . .
C66 C73 3.259(5) no . .
C66 C75 2.989(6) no . .
C68 C70 3.161(5) no . .
C68 C72 3.035(5) no . .
C71 C95 3.567(5) no . .
C72 C90 3.591(5) no . .
C72 C95 3.485(5) no . .
C76 C79 2.778(5) no . .
C76 C88 3.478(4) no . .
C76 C91 3.137(5) no . .
C77 C80 2.782(6) no . .
C78 C81 2.755(5) no . .
C81 C83 3.018(5) no . .
C81 C84 3.571(5) no . .
C81 C88 3.430(5) no . .
C83 C86 2.770(5) no . .
C83 C95 3.506(5) no . .
C84 C87 2.791(5) no . .
C84 C90 3.062(5) no . .
C84 C95 3.586(5) no . .
C85 C88 2.761(5) no . .
C90 C93 2.776(6) no . .
C91 C94 2.803(6) no . .
C92 C95 2.743(6) no . .
O1 C50 3.263(4) no . 2_666
O1 C51 3.190(4) no . 2_666
O2 C31 3.513(4) no . 2_667
O2 C34 3.239(4) no . 2_667
O2 C50 3.408(4) no . 2_666
O2 C51 2.939(4) no . 2_666
O3 C2 3.189(4) no . 2_656
O3 C3 3.235(4) no . 2_656
O3 C48 3.326(5) no . 2_556
O4 C2 2.958(4) no . 2_656
O4 C3 3.574(4) no . 2_656
O4 C48 3.382(5) no . 2_556
C2 O3 3.189(4) no . 2_656
C2 O4 2.958(4) no . 2_656
C3 O3 3.235(4) no . 2_656
C3 O4 3.574(4) no . 2_656
C19 C68 3.566(5) no . 1_656
C25 C73 3.599(6) no . 1_656
C30 C30 3.596(4) no . 2_667
C31 O2 3.513(4) no . 2_667
C34 O2 3.239(4) no . 2_667
C37 C56 3.588(5) no . 2_666
C48 O3 3.326(5) no . 2_556
C48 O4 3.382(5) no . 2_556
C50 O1 3.263(4) no . 2_666
C50 O2 3.408(4) no . 2_666
C51 O1 3.190(4) no . 2_666
C51 O2 2.939(4) no . 2_666
C56 C37 3.588(5) no . 2_666
C68 C19 3.566(5) no . 1_454
C73 C25 3.599(6) no . 1_454
Pd1 H14 3.0508 no . .
Pd1 H26 3.5907 no . .
Pd1 H27C 3.4312 no . .
Pd1 H29 3.0648 no . .
Pd1 H36 3.3393 no . .
Pd1 H43 3.4563 no . .
Pd2 H77 3.1278 no . .
Pd2 H88 3.1724 no . .
Pd2 H95 3.5556 no . .
Pd2 H62 2.7564 no . .
Pd2 H63B 3.2645 no . .
Pd2 H74 3.5805 no . .
P1 H29 2.8139 no . .
P1 H33 2.9477 no . .
P1 H36 2.8461 no . .
P1 H40 2.9367 no . .
P1 H43 2.8334 no . .
P1 H47 2.9251 no . .
P2 H77 2.8391 no . .
P2 H81 2.9386 no . .
P2 H84 2.9397 no . .
P2 H88 2.8229 no . .
P2 H91 2.9464 no . .
P2 H95 2.8183 no . .
O1 H14 2.5033 no . .
O1 H15A 3.3413 no . .
O1 H15B 2.6269 no . .
O1 H26 3.5623 no . .
O1 H27A 3.5515 no . .
O1 H27C 2.5046 no . .
O2 H27C 3.4645 no . .
O2 H36 2.4234 no . .
O3 H62 2.7922 no . .
O3 H63A 3.2253 no . .
O3 H63B 3.0764 no . .
O3 H74 3.0859 no . .
O3 H75C 2.2874 no . .
O4 H77 2.7458 no . .
O4 H63B 3.2042 no . .
N1 H3 3.1147 no . .
N1 H10B 3.5830 no . .
N1 H11 2.4285 no . .
N1 H13C 2.8786 no . .
N1 H14 2.5729 no . .
N1 H26 3.0613 no . .
N1 H43 3.1747 no . .
N2 H2 3.1142 no . .
N2 H14 3.3813 no . .
N2 H22C 3.1057 no . .
N2 H23 2.5443 no . .
N2 H25B 3.5590 no . .
N2 H26 2.3883 no . .
N2 H43 3.4674 no . .
N3 H51 3.1189 no . .
N3 H95 3.5494 no . .
N3 H62 3.2581 no . .
N3 H70C 3.5088 no . .
N3 H71 2.4184 no . .
N3 H73B 3.3101 no . .
N3 H74 2.4345 no . .
N4 H50 3.1141 no . .
N4 H95 3.1739 no . .
N4 H59 2.4736 no . .
N4 H60B 3.4060 no . .
N4 H61C 3.2050 no . .
N4 H62 2.4922 no . .
N4 H74 3.2293 no . .
C1 H2 3.1914 no . .
C1 H3 3.1907 no . .
C1 H11 3.1570 no . .
C1 H14 2.6055 no . .
C1 H23 3.1625 no . .
C1 H26 2.5991 no . .
C1 H43 2.9287 no . .
C2 H10B 3.1745 no . .
C2 H11 2.7536 no . .
C2 H13C 2.7079 no . .
C2 H14 3.4011 no . .
C2 H26 3.2263 no . .
C3 H11 3.5485 no . .
C3 H13C 3.3365 no . .
C3 H22C 2.7781 no . .
C3 H23 3.1732 no . .
C3 H25B 3.3272 no . .
C3 H26 2.8442 no . .
C4 H2 2.7415 no . .
C4 H6 3.2457 no . .
C4 H8 3.2521 no . .
C4 H10B 3.4284 no . .
C4 H11 2.5979 no . .
C4 H12C 3.5931 no . .
C4 H13C 3.0586 no . .
C4 H14 2.6592 no . .
C5 H2 3.2067 no . .
C5 H7 3.2665 no . .
C5 H10A 3.3518 no . .
C5 H10B 2.7021 no . .
C5 H10C 2.7055 no . .
C5 H12A 3.3474 no . .
C5 H12B 2.7025 no . .
C5 H12C 2.6975 no . .
C6 H8 3.2362 no . .
C6 H10B 3.3953 no . .
C6 H10C 2.8271 no . .
C6 H11 3.3081 no . .
C6 H12B 2.7430 no . .
C6 H12C 3.2817 no . .
C8 H6 3.2372 no . .
C8 H13B 3.1369 no . .
C8 H14 3.2757 no . .
C8 H15B 3.0408 no . .
C8 H15C 2.7018 no . .
C9 H2 3.5879 no . .
C9 H7 3.2705 no . .
C9 H13A 3.3386 no . .
C9 H13B 2.6861 no . .
C9 H13C 2.6833 no . .
C9 H15A 3.3780 no . .
C9 H15B 2.7524 no . .
C9 H15C 2.7559 no . .
C10 H2 3.3458 no . .
C10 H6 2.9945 no . .
C10 H12A 2.6944 no . .
C10 H12B 2.7458 no . .
C10 H12C 3.3712 no . .
C11 H2 3.3157 no . .
C11 H6 2.6452 no . .
C11 H43 2.8846 no . .
C12 H6 2.8342 no . .
C12 H10A 2.6951 no . .
C12 H10B 3.3687 no . .
C12 H10C 2.7507 no . .
C12 H43 2.9304 no . .
C12 H44 3.5166 no . .
C13 H8 3.4304 no . .
C13 H15A 2.6717 no . .
C13 H15B 3.3585 no . .
C13 H15C 2.7168 no . .
C13 H25A 3.4854 no . .
C13 H26 2.9563 no . .
C14 H8 2.6722 no . .
C14 H26 2.9377 no . .
C14 H27A 3.5347 no . .
C15 H8 2.5881 no . .
C15 H13A 2.6559 no . .
C15 H13B 2.7377 no . .
C15 H13C 3.3556 no . .
C15 H27A 3.5612 no . .
C16 H3 2.7716 no . .
C16 H18 3.2492 no . .
C16 H20 3.2508 no . .
C16 H22C 3.1626 no . .
C16 H23 2.6302 no . .
C16 H25B 3.3658 no . .
C16 H26 2.5999 no . .
C16 H29 3.1898 no . .
C17 H3 3.3923 no . .
C17 H19 3.2653 no . .
C17 H22A 3.3573 no . .
C17 H22B 2.7114 no . .
C17 H22C 2.7108 no . .
C17 H24A 3.3707 no . .
C17 H24B 2.7351 no . .
C17 H24C 2.7362 no . .
C17 H29 3.0569 no . .
C18 H20 3.2414 no . .
C18 H22B 3.1232 no . .
C18 H23 3.2884 no . .
C18 H24B 3.0480 no . .
C18 H24C 2.6713 no . .
C18 H29 3.2266 no . .
C18 H34A 2.9997 no . .
C19 H29 3.5313 no . .
C19 H34A 2.6462 no . .
C20 H18 3.2425 no . .
C20 H25B 3.3855 no . .
C20 H25C 2.8165 no . .
C20 H26 3.3090 no . .
C20 H27B 2.7868 no . .
C20 H27C 3.3053 no . .
C20 H34A 3.2015 no . .
C21 H3 3.5057 no . .
C21 H19 3.2653 no . .
C21 H25A 3.3337 no . .
C21 H25B 2.6740 no . .
C21 H25C 2.6806 no . .
C21 H27A 3.3693 no . .
C21 H27B 2.7394 no . .
C21 H27C 2.7337 no . .
C21 H29 3.5660 no . .
C22 H3 3.2315 no . .
C22 H18 3.3783 no . .
C22 H24A 2.6478 no . .
C22 H24B 3.3437 no . .
C22 H24C 2.7071 no . .
C23 H3 3.5695 no . .
C23 H18 2.6761 no . .
C24 H18 2.6034 no . .
C24 H22A 2.6421 no . .
C24 H22B 2.7159 no . .
C24 H22C 3.3420 no . .
C25 H13A 3.4032 no . .
C25 H20 3.0322 no . .
C25 H27A 2.6791 no . .
C25 H27B 2.7225 no . .
C25 H27C 3.3554 no . .
C26 H13A 3.3756 no . .
C26 H13C 3.5820 no . .
C26 H14 2.9978 no . .
C26 H20 2.6536 no . .
C27 H14 3.1310 no . .
C27 H15A 3.5827 no . .
C27 H20 2.8320 no . .
C27 H25A 2.6659 no . .
C27 H25B 3.3549 no . .
C27 H25C 2.7352 no . .
C28 H24B 3.5367 no . .
C28 H32 3.2597 no . .
C28 H36 3.1216 no . .
C28 H47 2.7109 no . .
C29 H24B 3.2295 no . .
C29 H31 3.2513 no . .
C29 H33 3.2566 no . .
C29 H34A 2.5609 no . .
C29 H34B 3.1488 no . .
C29 H34C 3.1369 no . .
C29 H47 3.5588 no . .
C30 H32 3.2631 no . .
C31 H29 3.2466 no . .
C31 H33 3.2630 no . .
C31 H34A 3.3048 no . .
C31 H34B 2.7618 no . .
C31 H34C 2.7586 no . .
C33 H29 3.2503 no . .
C33 H31 3.2603 no . .
C33 H36 3.2687 no . .
C33 H47 2.7752 no . .
C34 H19 3.4607 no . .
C34 H29 2.6718 no . .
C34 H31 2.6694 no . .
C35 H33 2.6820 no . .
C35 H37 3.2650 no . .
C35 H47 3.5663 no . .
C36 H33 2.9390 no . .
C36 H38 3.2523 no . .
C36 H40 3.2566 no . .
C38 H36 3.2556 no . .
C38 H40 3.2447 no . .
C38 H41A 2.5906 no . .
C38 H41B 3.1554 no . .
C38 H41C 3.1578 no . .
C39 H37 3.2674 no . .
C40 H12C 3.5640 no . .
C40 H33 3.3378 no . .
C40 H36 3.2596 no . .
C40 H38 3.2478 no . .
C40 H41A 3.3119 no . .
C40 H41B 2.7590 no . .
C40 H41C 2.7568 no . .
C41 H38 2.6982 no . .
C41 H40 2.6514 no . .
C42 H23 2.9162 no . .
C42 H24A 3.5437 no . .
C42 H24B 3.0737 no . .
C42 H40 2.5700 no . .
C42 H44 3.2652 no . .
C43 H11 2.9692 no . .
C43 H12A 3.3642 no . .
C43 H12C 3.0829 no . .
C43 H23 2.6262 no . .
C43 H40 2.9591 no . .
C43 H45 3.2433 no . .
C43 H47 3.2457 no . .
C44 H11 3.4069 no . .
C44 H12A 3.3207 no . .
C44 H23 3.0516 no . .
C44 H24A 3.4416 no . .
C45 H24A 3.0455 no . .
C45 H43 3.2443 no . .
C45 H47 3.2411 no . .
C45 H48A 3.2911 no . .
C45 H48B 2.7464 no . .
C45 H48C 2.7445 no . .
C46 H24A 2.8915 no . .
C46 H24B 3.2466 no . .
C46 H44 3.2524 no . .
C47 H23 3.5238 no . .
C47 H24A 3.1625 no . .
C47 H24B 2.8156 no . .
C47 H33 3.4676 no . .
C47 H40 3.0167 no . .
C47 H43 3.2504 no . .
C47 H45 3.2429 no . .
C47 H48A 2.5550 no . .
C47 H48B 3.1189 no . .
C47 H48C 3.1530 no . .
C48 H24A 3.4008 no . .
C48 H45 2.6484 no . .
C48 H47 2.6717 no . .
C49 H50 3.1864 no . .
C49 H51 3.1897 no . .
C49 H95 2.9480 no . .
C49 H59 3.2870 no . .
C49 H62 2.4382 no . .
C49 H71 2.8413 no . .
C49 H74 2.7401 no . .
C50 H59 3.4968 no . .
C50 H70C 3.5162 no . .
C50 H71 3.1683 no . .
C50 H73B 2.8669 no . .
C50 H74 2.8736 no . .
C51 H59 2.6702 no . .
C51 H60B 2.8754 no . .
C51 H61C 3.2570 no . .
C51 H62 3.3700 no . .
C51 H74 3.3233 no . .
C52 H51 2.7751 no . .
C52 H54 3.2493 no . .
C52 H56 3.2504 no . .
C52 H59 2.6273 no . .
C52 H60B 3.3031 no . .
C52 H61C 3.2041 no . .
C52 H62 2.6332 no . .
C53 H88 3.1652 no . .
C53 H55 3.2702 no . .
C53 H61A 3.3431 no . .
C53 H61B 2.6880 no . .
C53 H61C 2.6834 no . .
C53 H63A 3.3758 no . .
C53 H63B 2.7381 no . .
C53 H63C 2.7442 no . .
C54 H88 3.2484 no . .
C54 H56 3.2473 no . .
C54 H61B 2.9982 no . .
C54 H61C 3.5738 no . .
C54 H62 3.2949 no . .
C54 H63B 3.1514 no . .
C54 H63C 2.7114 no . .
C54 H89A 3.2287 no . .
C54 H89C 3.2303 no . .
C55 H89C 3.0274 no . .
C56 H54 3.2456 no . .
C56 H58B 2.7093 no . .
C56 H58C 3.1948 no . .
C56 H59 3.3113 no . .
C56 H60B 3.5130 no . .
C56 H60C 2.9359 no . .
C57 H51 3.1797 no . .
C57 H95 3.5650 no . .
C57 H55 3.2704 no . .
C57 H58A 3.3707 no . .
C57 H58B 2.7303 no . .
C57 H58C 2.7262 no . .
C57 H60A 3.3565 no . .
C57 H60B 2.6993 no . .
C57 H60C 2.7055 no . .
C58 H95 3.2056 no . .
C58 H56 2.7209 no . .
C58 H60A 2.6806 no . .
C58 H60B 3.3628 no . .
C58 H60C 2.7441 no . .
C58 H96A 3.2316 no . .
C58 H96B 3.5807 no . .
C59 H51 3.1267 no . .
C59 H95 3.0962 no . .
C59 H56 2.6590 no . .
C59 H96A 3.2808 no . .
C60 H51 2.9856 no . .
C60 H56 3.1673 no . .
C60 H58A 2.6851 no . .
C60 H58B 2.7365 no . .
C60 H58C 3.3643 no . .
C61 H54 3.2417 no . .
C61 H63A 2.6811 no . .
C61 H63B 3.3583 no . .
C61 H63C 2.7398 no . .
C61 H74 3.2818 no . .
C62 H54 2.6572 no . .
C62 H74 3.1949 no . .
C63 H88 3.3007 no . .
C63 H54 2.6885 no . .
C63 H61A 2.6684 no . .
C63 H61B 2.7533 no . .
C63 H61C 3.3571 no . .
C64 H50 2.7787 no . .
C64 H66 3.2414 no . .
C64 H68 3.2410 no . .
C64 H70C 3.3700 no . .
C64 H71 2.5818 no . .
C64 H73B 3.3209 no . .
C64 H74 2.6012 no . .
C65 H50 3.3622 no . .
C65 H67 3.2710 no . .
C65 H73A 3.3662 no . .
C65 H73B 2.7239 no . .
C65 H73C 2.7277 no . .
C65 H75A 3.3683 no . .
C65 H75B 2.7295 no . .
C65 H75C 2.7261 no . .
C66 H68 3.2375 no . .
C66 H73B 3.5858 no . .
C66 H73C 3.0200 no . .
C66 H74 3.3051 no . .
C66 H75B 2.7150 no . .
C66 H75C 3.1794 no . .
C68 H66 3.2366 no . .
C68 H70B 2.8939 no . .
C68 H70C 3.4579 no . .
C68 H71 3.3160 no . .
C68 H72B 3.2646 no . .
C68 H72C 2.7533 no . .
C69 H50 3.5665 no . .
C69 H67 3.2637 no . .
C69 H70A 3.3459 no . .
C69 H70B 2.6978 no . .
C69 H70C 2.6935 no . .
C69 H72A 3.3553 no . .
C69 H72B 2.7063 no . .
C69 H72C 2.7116 no . .
C70 H68 3.0920 no . .
C70 H72A 2.6977 no . .
C70 H72B 3.3693 no . .
C70 H72C 2.7582 no . .
C70 H96C 3.4768 no . .
C71 H95 3.4454 no . .
C71 H68 2.6722 no . .
C72 H68 2.8251 no . .
C72 H70A 2.6938 no . .
C72 H70B 2.7583 no . .
C72 H70C 3.3705 no . .
C73 H50 3.4190 no . .
C73 H66 3.2150 no . .
C73 H75A 2.6582 no . .
C73 H75B 2.7391 no . .
C73 H75C 3.3527 no . .
C74 H50 3.5628 no . .
C74 H62 3.2996 no . .
C74 H66 2.6722 no . .
C75 H66 2.7434 no . .
C75 H73A 2.6578 no . .
C75 H73B 3.3536 no . .
C75 H73C 2.7373 no . .
C76 H78 3.2616 no . .
C76 H88 3.4812 no . .
C76 H91 2.6684 no . .
C77 H79 3.2484 no . .
C77 H81 3.2431 no . .
C77 H91 3.1570 no . .
C79 H77 3.2488 no . .
C79 H81 3.2395 no . .
C79 H82A 3.2986 no . .
C79 H82B 2.7578 no . .
C79 H82C 2.7534 no . .
C80 H78 3.2588 no . .
C81 H77 3.2471 no . .
C81 H79 3.2428 no . .
C81 H91 3.2096 no . .
C81 H82A 2.5527 no . .
C81 H82B 3.1279 no . .
C81 H82C 3.1432 no . .
C82 H79 2.6598 no . .
C82 H81 2.6633 no . .
C83 H81 2.5392 no . .
C83 H85 3.2607 no . .
C83 H95 3.4543 no . .
C83 H58C 3.4938 no . .
C84 H81 2.8779 no . .
C84 H86 3.2471 no . .
C84 H88 3.2545 no . .
C84 H58C 3.0172 no . .
C85 H81 3.4712 no . .
C85 H58C 3.5624 no . .
C86 H84 3.2505 no . .
C86 H88 3.2423 no . .
C86 H89A 3.3138 no . .
C86 H89B 2.7708 no . .
C86 H89C 2.7716 no . .
C87 H81 3.5086 no . .
C87 H85 3.2662 no . .
C87 H55 3.4775 no . .
C88 H81 2.9209 no . .
C88 H84 3.2581 no . .
C88 H86 3.2431 no . .
C88 H63B 3.4095 no . .
C88 H89A 2.5671 no . .
C88 H89B 3.1422 no . .
C88 H89C 3.1494 no . .
C89 H86 2.6714 no . .
C89 H88 2.6737 no . .
C89 H54 3.3223 no . .
C89 H55 3.3387 no . .
C90 H77 3.5294 no . .
C90 H84 2.5894 no . .
C90 H92 3.2527 no . .
C90 H71 3.4910 no . .
C90 H72A 3.3180 no . .
C90 H72B 3.0893 no . .
C91 H84 2.9435 no . .
C91 H93 3.2598 no . .
C91 H95 3.2448 no . .
C91 H72A 3.4214 no . .
C91 H72B 3.4340 no . .
C92 H72A 3.3259 no . .
C93 H91 3.2627 no . .
C93 H95 3.2377 no . .
C93 H72A 3.1508 no . .
C93 H96A 3.3165 no . .
C93 H96B 2.7749 no . .
C93 H96C 2.7765 no . .
C94 H92 3.2589 no . .
C94 H58C 3.3569 no . .
C94 H71 3.2757 no . .
C94 H72A 3.0382 no . .
C95 H84 3.0664 no . .
C95 H91 3.2536 no . .
C95 H93 3.2419 no . .
C95 H58C 2.9487 no . .
C95 H59 3.2316 no . .
C95 H71 2.7995 no . .
C95 H72A 3.1048 no . .
C95 H72B 3.3197 no . .
C95 H96A 2.5770 no . .
C95 H96B 3.1612 no . .
C95 H96C 3.1449 no . .
C96 H93 2.6792 no . .
C96 H95 2.6787 no . .
C96 H58A 3.1781 no . .
C96 H58C 3.5518 no . .
C96 H59 3.4167 no . .
C96 H70A 3.3207 no . .
C96 H71 3.5246 no . .
H2 H3 2.4641 no . .
H2 H10B 2.5973 no . .
H2 H11 2.9370 no . .
H2 H13C 2.7543 no . .
H3 H22C 2.3371 no . .
H3 H23 3.4438 no . .
H3 H25B 3.1342 no . .
H3 H26 3.3382 no . .
H6 H7 2.3150 no . .
H6 H10B 3.4782 no . .
H6 H10C 2.4773 no . .
H6 H11 3.5889 no . .
H6 H12B 2.2749 no . .
H6 H12C 3.2503 no . .
H7 H8 2.3084 no . .
H8 H13B 3.0848 no . .
H8 H14 3.5346 no . .
H8 H15A 3.5144 no . .
H8 H15B 2.7328 no . .
H8 H15C 2.0921 no . .
H10A H11 2.3767 no . .
H10A H12A 2.4911 no . .
H10A H12B 3.0055 no . .
H10A H12C 3.5797 no . .
H10B H11 2.3548 no . .
H10B H12A 3.5755 no . .
H10C H11 2.8693 no . .
H10C H12A 3.0122 no . .
H10C H12B 2.6062 no . .
H11 H12A 2.3637 no . .
H11 H12B 2.8601 no . .
H11 H12C 2.3453 no . .
H11 H43 2.1386 no . .
H11 H44 3.0424 no . .
H12A H43 2.9802 no . .
H12A H44 2.8833 no . .
H12C H40 3.2103 no . .
H12C H43 2.5204 no . .
H13A H14 2.3826 no . .
H13A H15A 2.4445 no . .
H13A H15B 3.5496 no . .
H13A H15C 2.9504 no . .
H13A H25A 2.7553 no . .
H13A H26 2.7868 no . .
H13A H27A 2.9912 no . .
H13B H14 2.8711 no . .
H13B H15A 3.0053 no . .
H13B H15C 2.5808 no . .
H13C H14 2.3535 no . .
H13C H15A 3.5493 no . .
H13C H25A 3.3867 no . .
H13C H26 2.7268 no . .
H14 H15A 2.3608 no . .
H14 H15B 2.3596 no . .
H14 H15C 2.8651 no . .
H14 H26 2.1600 no . .
H14 H27A 2.9779 no . .
H14 H27C 2.9235 no . .
H15A H27A 2.8595 no . .
H15A H27C 3.5128 no . .
H18 H19 2.3106 no . .
H18 H22B 3.0044 no . .
H18 H23 3.5567 no . .
H18 H24A 3.5138 no . .
H18 H24B 2.7982 no . .
H18 H24C 2.0710 no . .
H18 H34A 3.2096 no . .
H19 H20 2.3170 no . .
H19 H34A 2.6251 no . .
H19 H34B 3.4988 no . .
H20 H25B 3.5247 no . .
H20 H25C 2.5234 no . .
H20 H26 3.5936 no . .
H20 H27B 2.2822 no . .
H20 H27C 3.2188 no . .
H20 H34A 3.5121 no . .
H22A H23 2.3727 no . .
H22A H24A 2.4201 no . .
H22A H24B 3.5321 no . .
H22A H24C 2.9494 no . .
H22B H23 2.8666 no . .
H22B H24A 2.9711 no . .
H22B H24C 2.5629 no . .
H22C H23 2.3521 no . .
H22C H24A 3.5311 no . .
H23 H24A 2.3622 no . .
H23 H24B 2.3526 no . .
H23 H24C 2.8626 no . .
H23 H43 2.7742 no . .
H23 H44 3.4415 no . .
H24A H45 3.4148 no . .
H24A H47 3.5997 no . .
H24A H48B 2.9868 no . .
H24B H29 3.0874 no . .
H24B H47 2.9413 no . .
H25A H26 2.3689 no . .
H25A H27A 2.4616 no . .
H25A H27B 2.9670 no . .
H25A H27C 3.5555 no . .
H25B H26 2.3431 no . .
H25B H27A 3.5584 no . .
H25C H26 2.8614 no . .
H25C H27A 3.0055 no . .
H25C H27B 2.5829 no . .
H26 H27A 2.3609 no . .
H26 H27B 2.8631 no . .
H26 H27C 2.3547 no . .
H29 H34A 2.3462 no . .
H29 H34B 3.3420 no . .
H29 H34C 3.3236 no . .
H31 H32 2.3213 no . .
H31 H34A 3.5998 no . .
H31 H34B 2.7138 no . .
H31 H34C 2.7126 no . .
H32 H33 2.3337 no . .
H33 H36 3.0861 no . .
H33 H47 2.7654 no . .
H36 H37 2.3260 no . .
H37 H38 2.3313 no . .
H38 H41A 2.3883 no . .
H38 H41B 3.3590 no . .
H38 H41C 3.3563 no . .
H40 H41A 3.5848 no . .
H40 H41B 2.6952 no . .
H40 H41C 2.6850 no . .
H40 H43 3.2576 no . .
H40 H47 3.3279 no . .
H43 H44 2.3438 no . .
H44 H45 2.2998 no . .
H45 H48A 3.5800 no . .
H45 H48B 2.7061 no . .
H45 H48C 2.6766 no . .
H47 H48A 2.3464 no . .
H47 H48B 3.3193 no . .
H47 H48C 3.3459 no . .
H50 H51 2.4722 no . .
H50 H70C 3.2623 no . .
H50 H71 3.5622 no . .
H50 H73B 2.5825 no . .
H50 H74 3.3180 no . .
H51 H59 2.7841 no . .
H51 H60A 3.4877 no . .
H51 H60B 2.1937 no . .
H51 H61C 3.3167 no . .
H77 H78 2.3319 no . .
H77 H91 3.3726 no . .
H77 H72B 3.0219 no . .
H78 H79 2.3231 no . .
H79 H82A 3.5900 no . .
H79 H82B 2.7163 no . .
H79 H82C 2.6922 no . .
H81 H84 3.2379 no . .
H81 H88 3.3086 no . .
H81 H91 3.4306 no . .
H81 H82A 2.3361 no . .
H81 H82B 3.3232 no . .
H81 H82C 3.3261 no . .
H84 H85 2.3321 no . .
H84 H91 3.2229 no . .
H84 H95 3.4086 no . .
H84 H58C 2.8381 no . .
H85 H86 2.3228 no . .
H86 H89B 2.7178 no . .
H86 H89C 2.7154 no . .
H88 H54 3.4770 no . .
H88 H63B 2.4915 no . .
H88 H63C 3.5597 no . .
H88 H89A 2.3512 no . .
H88 H89B 3.3360 no . .
H88 H89C 3.3333 no . .
H91 H92 2.3385 no . .
H92 H93 2.3157 no . .
H93 H96B 2.7154 no . .
H93 H96C 2.7357 no . .
H95 H58A 3.4261 no . .
H95 H58C 2.6605 no . .
H95 H59 2.3993 no . .
H95 H71 2.5214 no . .
H95 H72A 3.5484 no . .
H95 H72B 3.5910 no . .
H95 H96A 2.3589 no . .
H95 H96B 3.3490 no . .
H95 H96C 3.3293 no . .
H54 H55 2.3185 no . .
H54 H61B 2.8154 no . .
H54 H62 3.5666 no . .
H54 H63A 3.5727 no . .
H54 H63B 2.9720 no . .
H54 H63C 2.1376 no . .
H54 H89A 2.8933 no . .
H54 H89C 3.0078 no . .
H55 H56 2.3183 no . .
H55 H89A 3.5906 no . .
H55 H89C 2.6213 no . .
H56 H58A 3.5871 no . .
H56 H58B 2.1547 no . .
H56 H58C 3.0485 no . .
H56 H59 3.5842 no . .
H56 H60C 2.7076 no . .
H58A H59 2.3633 no . .
H58A H60A 2.4737 no . .
H58A H60B 3.5656 no . .
H58A H60C 3.0067 no . .
H58A H96A 2.7674 no . .
H58A H96B 2.8621 no . .
H58B H59 2.8619 no . .
H58B H60A 2.9885 no . .
H58B H60C 2.5972 no . .
H58C H59 2.3493 no . .
H58C H60A 3.5669 no . .
H58C H96A 3.2218 no . .
H58C H96B 3.5015 no . .
H59 H60A 2.3735 no . .
H59 H60B 2.3502 no . .
H59 H60C 2.8664 no . .
H59 H96A 2.5553 no . .
H60A H96A 3.5986 no . .
H61A H62 2.3648 no . .
H61A H63A 2.4604 no . .
H61A H63B 3.5544 no . .
H61A H63C 2.9792 no . .
H61A H73A 3.4784 no . .
H61A H74 3.0894 no . .
H61A H75A 3.1354 no . .
H61B H62 2.8551 no . .
H61B H63A 3.0186 no . .
H61B H63C 2.6148 no . .
H61C H62 2.3299 no . .
H61C H63A 3.5558 no . .
H61C H73A 3.5585 no . .
H61C H74 3.0576 no . .
H62 H63A 2.3543 no . .
H62 H63B 2.3401 no . .
H62 H63C 2.8555 no . .
H62 H74 2.3578 no . .
H62 H75C 3.4441 no . .
H63B H89A 3.1292 no . .
H63C H89A 3.2412 no . .
H66 H67 2.3201 no . .
H66 H73C 2.7706 no . .
H66 H74 3.5906 no . .
H66 H75B 2.1816 no . .
H66 H75C 3.0668 no . .
H67 H68 2.3084 no . .
H68 H70B 2.5989 no . .
H68 H70C 3.5867 no . .
H68 H72B 3.2057 no . .
H68 H72C 2.2647 no . .
H70A H71 2.3623 no . .
H70A H72A 2.4905 no . .
H70A H72B 3.5741 no . .
H70A H72C 3.0135 no . .
H70A H96A 3.3775 no . .
H70A H96C 2.6380 no . .
H70B H71 2.8561 no . .
H70B H72A 3.0194 no . .
H70B H72C 2.6251 no . .
H70C H71 2.3354 no . .
H70C H72A 3.5772 no . .
H71 H72A 2.3677 no . .
H71 H72B 2.3437 no . .
H71 H72C 2.8618 no . .
H71 H96A 3.2242 no . .
H71 H96C 3.4830 no . .
H72A H96C 3.4867 no . .
H73A H74 2.3605 no . .
H73A H75A 2.4327 no . .
H73A H75B 2.9841 no . .
H73A H75C 3.5390 no . .
H73B H74 2.3379 no . .
H73B H75A 3.5406 no . .
H73C H74 2.8569 no . .
H73C H75A 2.9821 no . .
H73C H75B 2.6052 no . .
H74 H75A 2.3649 no . .
H74 H75B 2.8601 no . .
H74 H75C 2.3411 no . .
Pd1 H60B 3.5482 no . 2_666
O1 H31 2.8903 no . 2_667
O1 H50 2.7867 no . 2_666
O1 H51 2.6264 no . 2_666
O1 H60B 3.4326 no . 2_666
O2 H31 2.7080 no . 2_667
O2 H34B 2.9726 no . 2_667
O2 H34C 2.7175 no . 2_667
O2 H50 3.1912 no . 2_666
O2 H51 2.1641 no . 2_666
O2 H60B 3.0867 no . 2_666
O3 H2 2.6331 no . 2_656
O3 H3 2.7377 no . 2_656
O3 H48B 3.3143 no . 2_556
O3 H48C 2.5615 no . 2_556
O4 H2 2.0934 no . 2_656
O4 H3 3.4396 no . 2_656
O4 H10B 2.8656 no . 2_656
O4 H48C 2.4170 no . 2_556
C2 H48C 3.4826 no . 1_655
C3 H63A 3.5854 no . 2_656
C3 H75C 3.3095 no . 2_656
C4 H60A 3.4724 no . 2_666
C5 H60A 3.4398 no . 2_666
C6 H86 3.0826 no . .
C6 H60A 3.1085 no . 2_666
C6 H82B 3.2790 no . 2_656
C6 H89B 3.1048 no . .
C7 H41B 3.5245 no . 1_655
C7 H86 3.4076 no . .
C7 H92 3.2294 no . 1_655
C7 H58A 3.3431 no . 2_666
C7 H60A 2.8225 no . 2_666
C8 H41B 3.1179 no . 1_655
C8 H60A 2.8929 no . 2_666
C8 H96A 3.2538 no . 2_666
C8 H96B 3.5377 no . 2_666
C9 H60A 3.2558 no . 2_666
C10 H88 3.1508 no . 2_656
C10 H63B 3.3445 no . 2_656
C10 H89A 3.1858 no . 2_656
C12 H82A 3.2292 no . .
C13 H33 3.2575 no . 1_655
C13 H47 3.1466 no . 1_655
C13 H48A 3.3192 no . 1_655
C15 H70C 3.0687 no . 2_666
C18 H22B 3.3615 no . 2_657
C18 H61A 3.3483 no . 1_556
C19 H61A 3.3487 no . 1_556
C19 H61B 3.5782 no . 1_556
C19 H67 3.5766 no . 1_656
C19 H68 3.2627 no . 1_656
C19 H70B 3.3938 no . 1_656
C22 H18 3.3830 no . 2_657
C22 H22B 3.3044 no . 2_657
C22 H61A 3.3928 no . 2_656
C22 H63A 3.0027 no . 2_656
C22 H75A 3.2839 no . 2_656
C24 H67 3.2470 no . 2_556
C24 H73A 3.1611 no . 1_556
C24 H75A 3.3805 no . 1_556
C25 H48A 3.2555 no . 1_655
C25 H73B 3.4159 no . 1_656
C25 H73C 2.9060 no . 1_656
C27 H27A 3.4548 no . 2_767
C27 H27B 3.2967 no . 2_767
C27 H31 3.4859 no . 2_667
C27 H32 3.4937 no . 1_655
C27 H32 3.2292 no . 2_667
C28 H34C 2.8948 no . 2_667
C29 H34C 2.9864 no . 2_667
C30 H34C 3.2639 no . 2_667
C30 H73A 3.3212 no . 1_556
C30 H73B 3.4475 no . 1_556
C31 H27C 3.3541 no . 2_667
C31 H34C 3.3850 no . 2_667
C31 H73B 3.2752 no . 1_556
C32 H13A 3.5323 no . 1_455
C32 H25A 3.3083 no . 1_455
C32 H27A 3.3679 no . 1_455
C32 H27B 3.4472 no . 2_667
C32 H27C 3.5164 no . 2_667
C32 H34C 3.2869 no . 2_667
C33 H13A 3.0880 no . 1_455
C33 H34C 3.0477 no . 2_667
C34 H36 3.3101 no . 2_667
C34 H61C 3.3392 no . 1_556
C34 H73A 3.3379 no . 1_556
C34 H73B 3.5842 no . 1_556
C35 H60B 3.5573 no . 2_666
C36 H34C 3.4667 no . 2_667
C36 H51 3.5103 no . 2_666
C36 H60B 3.0617 no . 2_666
C36 H60C 3.5835 no . 2_666
C37 H60B 3.3295 no . 2_666
C37 H60C 3.4178 no . 2_666
C37 H70A 3.3103 no . 2_566
C38 H85 3.3224 no . .
C38 H60C 3.5098 no . 2_666
C38 H70A 3.4585 no . 2_566
C38 H96C 3.1193 no . 2_566
C39 H13B 3.4322 no . 1_455
C39 H85 3.2445 no . .
C40 H13B 3.1776 no . 1_455
C41 H8 3.4032 no . 1_455
C41 H13B 3.5996 no . 1_455
C41 H78 3.4989 no . 2_556
C41 H79 3.0621 no . 2_556
C41 H84 3.2166 no . .
C41 H85 3.3269 no . .
C45 H77 3.0575 no . 2_556
C45 H78 3.4936 no . 2_556
C45 H72B 3.5168 no . 2_556
C47 H13A 3.4226 no . 1_455
C47 H13B 3.4498 no . 1_455
C48 H13C 3.2020 no . 1_455
C48 H25B 3.5573 no . 1_455
C50 H15B 3.1777 no . 2_666
C51 H15B 3.4543 no . 2_666
C52 H37 3.3173 no . 2_666
C53 H37 3.1389 no . 2_666
C54 H37 2.9637 no . 2_666
C54 H72A 3.4815 no . 1_655
C55 H37 3.0254 no . 2_666
C55 H38 3.2113 no . 2_666
C56 H37 3.2204 no . 2_666
C56 H38 3.4244 no . 2_666
C56 H85 3.4856 no . 2_666
C57 H37 3.3656 no . 2_666
C58 H86 3.2072 no . 2_666
C60 H85 3.2763 no . 2_666
C60 H86 3.0983 no . 2_666
C61 H18 3.5265 no . 1_554
C61 H19 2.9832 no . 1_554
C61 H34B 3.4457 no . 1_554
C61 H37 3.5193 no . 2_666
C61 H70B 3.3830 no . 1_655
C63 H22A 3.4468 no . 2_656
C63 H22C 3.4762 no . 2_656
C63 H72C 3.5632 no . 1_655
C65 H25C 3.3899 no . 1_454
C65 H48B 3.5077 no . 2_556
C66 H25B 3.3658 no . 1_454
C66 H25C 3.2399 no . 1_454
C66 H48B 2.9869 no . 2_556
C66 H75B 3.3433 no . 2_555
C67 H24A 3.1699 no . 2_556
C67 H48B 3.0170 no . 2_556
C67 H75B 3.5401 no . 2_555
C68 H19 3.2927 no . 1_454
C68 H45 3.4027 no . 2_556
C68 H48B 3.5313 no . 2_556
C70 H15C 3.5159 no . 2_666
C70 H19 3.4958 no . 1_454
C70 H37 3.5976 no . 2_566
C70 H61B 3.2965 no . 1_455
C72 H45 3.2471 no . 2_556
C72 H54 3.2138 no . 1_455
C72 H63C 3.5008 no . 1_455
C73 H24B 3.3916 no . 1_554
C73 H24C 3.4752 no . 1_554
C73 H25A 3.3719 no . 1_454
C73 H25C 3.2080 no . 1_454
C73 H34B 3.2284 no . 1_554
C75 H3 3.1585 no . 2_656
C75 H22C 3.3272 no . 2_656
C75 H24C 3.2745 no . 1_554
C75 H66 3.5363 no . 2_555
C76 H82C 3.3624 no . 2_556
C77 H45 3.4666 no . 2_556
C77 H82C 3.0926 no . 2_556
C78 H41B 3.4522 no . 2_556
C78 H82C 3.0653 no . 2_556
C79 H41B 3.2705 no . 2_556
C79 H41C 3.5192 no . 2_556
C79 H82C 3.3337 no . 2_556
C80 H10C 3.4051 no . 2_656
C81 H10B 3.5077 no . 2_656
C81 H10C 3.4548 no . 2_656
C81 H82C 3.5804 no . 2_556
C82 H10C 3.4694 no . 2_656
C82 H12A 3.4266 no . .
C82 H91 3.0897 no . 2_556
C82 H89B 3.5151 no . 2_656
C84 H41A 3.4472 no . .
C84 H41C 3.1474 no . .
C85 H41C 3.2116 no . .
C85 H56 3.3430 no . 2_666
C85 H58B 3.2833 no . 2_666
C85 H60C 3.0042 no . 2_666
C86 H6 3.3404 no . .
C86 H12B 3.1918 no . .
C86 H58B 3.0703 no . 2_666
C86 H60C 3.1424 no . 2_666
C87 H6 3.5383 no . .
C87 H10A 3.4720 no . 2_656
C87 H12B 3.5322 no . .
C88 H10A 3.2676 no . 2_656
C88 H10B 3.5440 no . 2_656
C89 H6 3.0124 no . .
C89 H10A 2.9756 no . 2_656
C89 H92 3.4304 no . 1_655
C89 H82B 3.3935 no . 2_656
C91 H82C 3.1885 no . 2_556
C92 H7 3.1833 no . 1_455
C92 H89C 3.2530 no . 1_455
C92 H96B 3.5268 no . 2_566
C93 H55 3.3469 no . 1_455
C93 H96B 3.3027 no . 2_566
C96 H8 2.9278 no . 2_666
C96 H15C 3.5272 no . 2_666
C96 H38 3.3530 no . 2_566
C96 H41A 3.5922 no . 2_566
H2 O3 2.6331 no . 2_656
H2 O4 2.0934 no . 2_656
H2 H48C 2.9394 no . 1_655
H3 O3 2.7377 no . 2_656
H3 O4 3.4396 no . 2_656
H3 C75 3.1585 no . 2_656
H3 H48A 3.5728 no . 1_655
H3 H48C 3.5339 no . 1_655
H3 H63A 3.3112 no . 2_656
H3 H75A 3.1923 no . 2_656
H3 H75B 3.5201 no . 2_656
H3 H75C 2.3820 no . 2_656
H6 C86 3.3404 no . .
H6 C87 3.5383 no . .
H6 C89 3.0124 no . .
H6 H86 2.7288 no . .
H6 H60A 3.5961 no . 2_666
H6 H82B 2.7583 no . 2_656
H6 H89B 2.2071 no . .
H6 H89C 3.1719 no . .
H7 C92 3.1833 no . 1_655
H7 H41B 3.5251 no . 1_655
H7 H86 3.3128 no . .
H7 H92 2.3210 no . 1_655
H7 H58A 2.9307 no . 2_666
H7 H60A 3.1678 no . 2_666
H7 H82B 3.4279 no . 2_656
H7 H89B 3.3976 no . .
H7 H89C 3.2615 no . .
H7 H96A 3.5673 no . 2_666
H7 H96B 3.0858 no . 2_666
H8 C41 3.4032 no . 1_655
H8 C96 2.9278 no . 2_666
H8 H41A 3.2526 no . 1_655
H8 H41B 2.8035 no . 1_655
H8 H60A 3.2707 no . 2_666
H8 H96A 2.5274 no . 2_666
H8 H96B 2.8406 no . 2_666
H8 H96C 2.9287 no . 2_666
H10A C87 3.4720 no . 2_656
H10A C88 3.2676 no . 2_656
H10A C89 2.9756 no . 2_656
H10A H88 2.6801 no . 2_656
H10A H63B 2.8529 no . 2_656
H10A H89A 2.2548 no . 2_656
H10A H89B 3.0386 no . 2_656
H10B O4 2.8656 no . 2_656
H10B C81 3.5077 no . 2_656
H10B C88 3.5440 no . 2_656
H10B H88 2.8773 no . 2_656
H10B H63B 2.9967 no . 2_656
H10B H89A 3.5861 no . 2_656
H10C C80 3.4051 no . 2_656
H10C C81 3.4548 no . 2_656
H10C C82 3.4694 no . 2_656
H10C H81 3.4862 no . 2_656
H10C H88 3.4300 no . 2_656
H10C H82A 3.4401 no . 2_656
H10C H82B 3.0517 no . 2_656
H10C H89A 3.4540 no . 2_656
H10C H89B 3.5749 no . .
H12A C82 3.4266 no . .
H12A H82A 2.5557 no . .
H12B C86 3.1918 no . .
H12B C87 3.5322 no . .
H12B H86 3.0235 no . .
H12B H82A 3.0842 no . .
H12B H89B 3.0837 no . .
H12C H86 3.5405 no . .
H13A C32 3.5323 no . 1_655
H13A C33 3.0880 no . 1_655
H13A C47 3.4226 no . 1_655
H13A H32 3.3540 no . 1_655
H13A H33 2.5168 no . 1_655
H13A H47 2.6819 no . 1_655
H13A H48A 3.1929 no . 1_655
H13B C39 3.4322 no . 1_655
H13B C40 3.1776 no . 1_655
H13B C41 3.5996 no . 1_655
H13B C47 3.4498 no . 1_655
H13B H33 3.1634 no . 1_655
H13B H40 3.0371 no . 1_655
H13B H41B 2.8916 no . 1_655
H13B H47 3.0816 no . 1_655
H13C C48 3.2020 no . 1_655
H13C H47 3.1633 no . 1_655
H13C H48A 2.6626 no . 1_655
H13C H48C 3.0340 no . 1_655
H15A H32 3.3697 no . 1_655
H15A H33 3.1467 no . 1_655
H15A H50 3.4994 no . 2_666
H15A H70C 2.7618 no . 2_666
H15B C50 3.1777 no . 2_666
H15B C51 3.4543 no . 2_666
H15B H50 2.8671 no . 2_666
H15B H51 3.4116 no . 2_666
H15B H70C 2.9870 no . 2_666
H15B H96A 3.2637 no . 2_666
H15C C70 3.5159 no . 2_666
H15C C96 3.5272 no . 2_666
H15C H70A 3.1847 no . 2_666
H15C H70C 2.9366 no . 2_666
H15C H96A 3.0883 no . 2_666
H15C H96C 3.0989 no . 2_666
H18 C22 3.3830 no . 2_657
H18 C61 3.5265 no . 1_556
H18 H22A 3.2657 no . 2_657
H18 H22B 2.7523 no . 2_657
H18 H61A 2.7084 no . 1_556
H18 H73A 3.0799 no . 1_556
H18 H75A 3.2036 no . 1_556
H19 C61 2.9832 no . 1_556
H19 C68 3.2927 no . 1_656
H19 C70 3.4958 no . 1_656
H19 H61A 2.7123 no . 1_556
H19 H61B 2.6741 no . 1_556
H19 H61C 3.0714 no . 1_556
H19 H68 2.8349 no . 1_656
H19 H70B 2.5944 no . 1_656
H20 H32 3.3152 no . 2_667
H20 H70B 3.3253 no . 1_656
H20 H70C 3.3113 no . 1_656
H22A C63 3.4468 no . 2_656
H22A H18 3.2657 no . 2_657
H22A H61A 2.9198 no . 2_656
H22A H63A 2.6372 no . 2_656
H22A H63C 3.4874 no . 2_656
H22A H67 3.3477 no . 2_556
H22A H68 2.9766 no . 2_556
H22B C18 3.3615 no . 2_657
H22B C22 3.3044 no . 2_657
H22B H18 2.7523 no . 2_657
H22B H22B 2.3713 no . 2_657
H22B H24C 2.8746 no . 2_657
H22B H61A 3.5180 no . 2_656
H22B H75A 3.0539 no . 2_656
H22C C63 3.4762 no . 2_656
H22C C75 3.3272 no . 2_656
H22C H61A 3.2090 no . 2_656
H22C H63A 2.5035 no . 2_656
H22C H75A 2.6734 no . 2_656
H22C H75C 3.1055 no . 2_656
H24A C67 3.1699 no . 2_556
H24A H67 2.5837 no . 2_556
H24A H68 3.4531 no . 2_556
H24B C73 3.3916 no . 1_556
H24B H73A 2.6971 no . 1_556
H24B H73C 3.2056 no . 1_556
H24C C73 3.4752 no . 1_556
H24C C75 3.2745 no . 1_556
H24C H22B 2.8746 no . 2_657
H24C H67 3.0382 no . 2_556
H24C H73A 2.7503 no . 1_556
H24C H73C 3.4889 no . 1_556
H24C H75A 2.4997 no . 1_556
H24C H75B 3.2833 no . 1_556
H25A C32 3.3083 no . 1_655
H25A C73 3.3719 no . 1_656
H25A H32 3.1719 no . 1_655
H25A H47 3.3193 no . 1_655
H25A H48A 2.9694 no . 1_655
H25A H73B 3.1662 no . 1_656
H25A H73C 2.7018 no . 1_656
H25B C48 3.5573 no . 1_655
H25B C66 3.3658 no . 1_656
H25B H48A 2.6767 no . 1_655
H25B H66 3.0899 no . 1_656
H25B H73C 2.7986 no . 1_656
H25C C65 3.3899 no . 1_656
H25C C66 3.2399 no . 1_656
H25C C73 3.2080 no . 1_656
H25C H66 3.3928 no . 1_656
H25C H73B 2.8838 no . 1_656
H25C H73C 2.7204 no . 1_656
H27A C27 3.4548 no . 2_767
H27A C32 3.3679 no . 1_655
H27A H27A 3.3835 no . 2_767
H27A H27B 2.7962 no . 2_767
H27A H32 2.5946 no . 1_655
H27B C27 3.2967 no . 2_767
H27B C32 3.4472 no . 2_667
H27B H27A 2.7962 no . 2_767
H27B H27B 3.0515 no . 2_767
H27B H27C 3.5562 no . 2_767
H27B H31 3.5112 no . 2_667
H27B H32 2.6052 no . 2_667
H27C C31 3.3541 no . 2_667
H27C C32 3.5164 no . 2_667
H27C H27B 3.5562 no . 2_767
H27C H31 2.6435 no . 2_667
H27C H32 2.9774 no . 2_667
H29 H34C 3.4227 no . 2_667
H31 O1 2.8903 no . 2_667
H31 O2 2.7080 no . 2_667
H31 C27 3.4859 no . 2_667
H31 H27B 3.5112 no . 2_667
H31 H27C 2.6435 no . 2_667
H31 H50 3.5822 no . 1_556
H31 H73B 3.1496 no . 1_556
H32 C27 3.4937 no . 1_455
H32 C27 3.2292 no . 2_667
H32 H13A 3.3540 no . 1_455
H32 H15A 3.3697 no . 1_455
H32 H20 3.3152 no . 2_667
H32 H25A 3.1719 no . 1_455
H32 H27A 2.5946 no . 1_455
H32 H27B 2.6052 no . 2_667
H32 H27C 2.9774 no . 2_667
H33 C13 3.2575 no . 1_455
H33 H13A 2.5168 no . 1_455
H33 H13B 3.1634 no . 1_455
H33 H15A 3.1467 no . 1_455
H33 H34C 3.5219 no . 2_667
H34A H61C 3.3235 no . 1_556
H34A H73A 3.5534 no . 1_556
H34B O2 2.9726 no . 2_667
H34B C61 3.4457 no . 1_556
H34B C73 3.2284 no . 1_556
H34B H36 3.2079 no . 2_667
H34B H51 3.4683 no . 1_556
H34B H61A 3.5128 no . 1_556
H34B H61C 2.5989 no . 1_556
H34B H73A 2.7237 no . 1_556
H34B H73B 2.8620 no . 1_556
H34C O2 2.7175 no . 2_667
H34C C28 2.8948 no . 2_667
H34C C29 2.9864 no . 2_667
H34C C30 3.2639 no . 2_667
H34C C31 3.3850 no . 2_667
H34C C32 3.2869 no . 2_667
H34C C33 3.0477 no . 2_667
H34C C36 3.4667 no . 2_667
H34C H29 3.4227 no . 2_667
H34C H33 3.5219 no . 2_667
H34C H36 2.6252 no . 2_667
H36 C34 3.3101 no . 2_667
H36 H34B 3.2079 no . 2_667
H36 H34C 2.6252 no . 2_667
H36 H51 2.9355 no . 2_666
H36 H60B 3.0818 no . 2_666
H36 H61C 3.4783 no . 2_666
H37 C52 3.3173 no . 2_666
H37 C53 3.1389 no . 2_666
H37 C54 2.9637 no . 2_666
H37 C55 3.0254 no . 2_666
H37 C56 3.2204 no . 2_666
H37 C57 3.3656 no . 2_666
H37 C61 3.5193 no . 2_666
H37 C70 3.5976 no . 2_566
H37 H54 3.3726 no . 2_666
H37 H55 3.4783 no . 2_666
H37 H60B 3.5272 no . 2_666
H37 H61B 3.1057 no . 2_666
H37 H61C 3.1900 no . 2_666
H37 H70A 2.9593 no . 2_566
H37 H70B 3.3568 no . 2_566
H38 C55 3.2113 no . 2_666
H38 C56 3.4244 no . 2_666
H38 C96 3.3530 no . 2_566
H38 H85 3.3197 no . .
H38 H55 3.0595 no . 2_666
H38 H56 3.4239 no . 2_666
H38 H70A 3.2382 no . 2_566
H38 H96B 3.5187 no . 2_566
H38 H96C 2.4491 no . 2_566
H40 H13B 3.0371 no . 1_455
H40 H78 3.0963 no . 2_556
H41A C84 3.4472 no . .
H41A C96 3.5922 no . 2_566
H41A H8 3.2526 no . 1_455
H41A H79 3.3935 no . 2_556
H41A H84 2.7479 no . .
H41A H85 3.2920 no . .
H41A H96B 3.1461 no . 2_566
H41A H96C 3.1337 no . 2_566
H41B C7 3.5245 no . 1_455
H41B C8 3.1179 no . 1_455
H41B C78 3.4522 no . 2_556
H41B C79 3.2705 no . 2_556
H41B H7 3.5251 no . 1_455
H41B H8 2.8035 no . 1_455
H41B H13B 2.8916 no . 1_455
H41B H78 2.9506 no . 2_556
H41B H79 2.5668 no . 2_556
H41C C79 3.5192 no . 2_556
H41C C84 3.1474 no . .
H41C C85 3.2116 no . .
H41C H78 3.1950 no . 2_556
H41C H79 2.7919 no . 2_556
H41C H81 3.4497 no . .
H41C H84 2.8212 no . .
H41C H85 2.9458 no . .
H44 H63A 3.5207 no . 2_656
H44 H63C 3.0778 no . 2_656
H44 H72C 3.4870 no . 2_556
H45 C68 3.4027 no . 2_556
H45 C72 3.2471 no . 2_556
H45 C77 3.4666 no . 2_556
H45 H77 2.5773 no . 2_556
H45 H68 3.3485 no . 2_556
H45 H72B 2.6185 no . 2_556
H45 H72C 3.0273 no . 2_556
H47 C13 3.1466 no . 1_455
H47 H13A 2.6819 no . 1_455
H47 H13B 3.0816 no . 1_455
H47 H13C 3.1633 no . 1_455
H47 H25A 3.3193 no . 1_455
H48A C13 3.3192 no . 1_455
H48A C25 3.2555 no . 1_455
H48A H3 3.5728 no . 1_455
H48A H13A 3.1929 no . 1_455
H48A H13C 2.6626 no . 1_455
H48A H25A 2.9694 no . 1_455
H48A H25B 2.6767 no . 1_455
H48A H73C 3.4622 no . 1_556
H48B O3 3.3143 no . 2_556
H48B C65 3.5077 no . 2_556
H48B C66 2.9869 no . 2_556
H48B C67 3.0170 no . 2_556
H48B C68 3.5313 no . 2_556
H48B H66 3.1671 no . 2_556
H48B H67 3.2265 no . 2_556
H48B H75C 3.3262 no . 2_556
H48C O3 2.5615 no . 2_556
H48C O4 2.4170 no . 2_556
H48C C2 3.4826 no . 1_455
H48C H2 2.9394 no . 1_455
H48C H3 3.5339 no . 1_455
H48C H13C 3.0340 no . 1_455
H48C H77 3.0940 no . 2_556
H48C H75C 3.5193 no . 2_556
H50 O1 2.7867 no . 2_666
H50 O2 3.1912 no . 2_666
H50 H15A 3.4994 no . 2_666
H50 H15B 2.8671 no . 2_666
H50 H31 3.5822 no . 1_554
H51 O1 2.6264 no . 2_666
H51 O2 2.1641 no . 2_666
H51 C36 3.5103 no . 2_666
H51 H15B 3.4116 no . 2_666
H51 H34B 3.4683 no . 1_554
H51 H36 2.9355 no . 2_666
H77 C45 3.0575 no . 2_556
H77 H45 2.5773 no . 2_556
H77 H48C 3.0940 no . 2_556
H77 H82C 3.4684 no . 2_556
H78 C41 3.4989 no . 2_556
H78 C45 3.4936 no . 2_556
H78 H40 3.0963 no . 2_556
H78 H41B 2.9506 no . 2_556
H78 H41C 3.1950 no . 2_556
H78 H82C 3.4096 no . 2_556
H79 C41 3.0621 no . 2_556
H79 H41A 3.3935 no . 2_556
H79 H41B 2.5668 no . 2_556
H79 H41C 2.7919 no . 2_556
H79 H91 2.9675 no . 2_556
H81 H10C 3.4862 no . 2_656
H81 H41C 3.4497 no . .
H84 C41 3.2166 no . .
H84 H41A 2.7479 no . .
H84 H41C 2.8212 no . .
H85 C38 3.3224 no . .
H85 C39 3.2445 no . .
H85 C41 3.3269 no . .
H85 C56 3.4856 no . 2_666
H85 C60 3.2763 no . 2_666
H85 H38 3.3197 no . .
H85 H41A 3.2920 no . .
H85 H41C 2.9458 no . .
H85 H56 2.7586 no . 2_666
H85 H58B 3.1068 no . 2_666
H85 H60C 2.3230 no . 2_666
H86 C6 3.0826 no . .
H86 C7 3.4076 no . .
H86 C58 3.2072 no . 2_666
H86 C60 3.0983 no . 2_666
H86 H6 2.7288 no . .
H86 H7 3.3128 no . .
H86 H12B 3.0235 no . .
H86 H12C 3.5405 no . .
H86 H58A 2.9393 no . 2_666
H86 H58B 2.7251 no . 2_666
H86 H60A 2.8096 no . 2_666
H86 H60C 2.6057 no . 2_666
H88 C10 3.1508 no . 2_656
H88 H10A 2.6801 no . 2_656
H88 H10B 2.8773 no . 2_656
H88 H10C 3.4300 no . 2_656
H91 C82 3.0897 no . 2_556
H91 H79 2.9675 no . 2_556
H91 H82B 3.0844 no . 2_556
H91 H82C 2.3277 no . 2_556
H92 C7 3.2294 no . 1_455
H92 C89 3.4304 no . 1_455
H92 H7 2.3210 no . 1_455
H92 H82B 3.2746 no . 2_556
H92 H89B 3.4523 no . 1_455
H92 H89C 2.6149 no . 1_455
H92 H96B 3.3608 no . 2_566
H93 H55 2.8002 no . 1_455
H93 H58A 3.4717 no . 2_566
H93 H96B 2.9346 no . 2_566
H54 C72 3.2138 no . 1_655
H54 H37 3.3726 no . 2_666
H54 H72A 2.6780 no . 1_655
H54 H72C 2.8576 no . 1_655
H55 C93 3.3469 no . 1_655
H55 H37 3.4783 no . 2_666
H55 H38 3.0595 no . 2_666
H55 H93 2.8002 no . 1_655
H55 H58B 3.5287 no . 2_666
H56 C85 3.3430 no . 2_666
H56 H38 3.4239 no . 2_666
H56 H85 2.7586 no . 2_666
H56 H58B 2.9617 no . 2_666
H56 H58C 3.5717 no . 2_666
H58A C7 3.3431 no . 2_666
H58A H7 2.9307 no . 2_666
H58A H86 2.9393 no . 2_666
H58A H93 3.4717 no . 2_566
H58B C85 3.2833 no . 2_666
H58B C86 3.0703 no . 2_666
H58B H85 3.1068 no . 2_666
H58B H86 2.7251 no . 2_666
H58B H55 3.5287 no . 2_666
H58B H56 2.9617 no . 2_666
H58B H58B 3.5954 no . 2_666
H58C H56 3.5717 no . 2_666
H60A C4 3.4724 no . 2_666
H60A C5 3.4398 no . 2_666
H60A C6 3.1085 no . 2_666
H60A C7 2.8225 no . 2_666
H60A C8 2.8929 no . 2_666
H60A C9 3.2558 no . 2_666
H60A H6 3.5961 no . 2_666
H60A H7 3.1678 no . 2_666
H60A H8 3.2707 no . 2_666
H60A H86 2.8096 no . 2_666
H60B Pd1 3.5482 no . 2_666
H60B O1 3.4326 no . 2_666
H60B O2 3.0867 no . 2_666
H60B C35 3.5573 no . 2_666
H60B C36 3.0617 no . 2_666
H60B C37 3.3295 no . 2_666
H60B H36 3.0818 no . 2_666
H60B H37 3.5272 no . 2_666
H60C C36 3.5835 no . 2_666
H60C C37 3.4178 no . 2_666
H60C C38 3.5098 no . 2_666
H60C C85 3.0042 no . 2_666
H60C C86 3.1424 no . 2_666
H60C H85 2.3230 no . 2_666
H60C H86 2.6057 no . 2_666
H61A C18 3.3483 no . 1_554
H61A C19 3.3487 no . 1_554
H61A C22 3.3928 no . 2_656
H61A H18 2.7084 no . 1_554
H61A H19 2.7123 no . 1_554
H61A H22A 2.9198 no . 2_656
H61A H22B 3.5180 no . 2_656
H61A H22C 3.2090 no . 2_656
H61A H34B 3.5128 no . 1_554
H61A H68 3.5787 no . 1_655
H61B C19 3.5782 no . 1_554
H61B C70 3.2965 no . 1_655
H61B H19 2.6741 no . 1_554
H61B H37 3.1057 no . 2_666
H61B H68 3.1674 no . 1_655
H61B H70A 3.4086 no . 1_655
H61B H70B 2.4594 no . 1_655
H61B H72C 2.9280 no . 1_655
H61C C34 3.3392 no . 1_554
H61C H19 3.0714 no . 1_554
H61C H34A 3.3235 no . 1_554
H61C H34B 2.5989 no . 1_554
H61C H36 3.4783 no . 2_666
H61C H37 3.1900 no . 2_666
H63A C3 3.5854 no . 2_656
H63A C22 3.0027 no . 2_656
H63A H3 3.3112 no . 2_656
H63A H22A 2.6372 no . 2_656
H63A H22C 2.5035 no . 2_656
H63A H44 3.5207 no . 2_656
H63B C10 3.3445 no . 2_656
H63B H10A 2.8529 no . 2_656
H63B H10B 2.9967 no . 2_656
H63C C72 3.5008 no . 1_655
H63C H22A 3.4874 no . 2_656
H63C H44 3.0778 no . 2_656
H63C H72A 3.5419 no . 1_655
H63C H72C 2.6711 no . 1_655
H66 C75 3.5363 no . 2_555
H66 H25B 3.0899 no . 1_454
H66 H25C 3.3928 no . 1_454
H66 H48B 3.1671 no . 2_556
H66 H66 2.9824 no . 2_555
H66 H75B 2.6017 no . 2_555
H67 C19 3.5766 no . 1_454
H67 C24 3.2470 no . 2_556
H67 H22A 3.3477 no . 2_556
H67 H24A 2.5837 no . 2_556
H67 H24C 3.0382 no . 2_556
H67 H48B 3.2265 no . 2_556
H67 H75A 3.4413 no . 2_555
H67 H75B 3.0155 no . 2_555
H68 C19 3.2627 no . 1_454
H68 H19 2.8349 no . 1_454
H68 H22A 2.9766 no . 2_556
H68 H24A 3.4531 no . 2_556
H68 H45 3.3485 no . 2_556
H68 H61A 3.5787 no . 1_455
H68 H61B 3.1674 no . 1_455
H70A C37 3.3103 no . 2_566
H70A C38 3.4585 no . 2_566
H70A H15C 3.1847 no . 2_666
H70A H37 2.9593 no . 2_566
H70A H38 3.2382 no . 2_566
H70A H61B 3.4086 no . 1_455
H70B C19 3.3938 no . 1_454
H70B C61 3.3830 no . 1_455
H70B H19 2.5944 no . 1_454
H70B H20 3.3253 no . 1_454
H70B H37 3.3568 no . 2_566
H70B H61B 2.4594 no . 1_455
H70C C15 3.0687 no . 2_666
H70C H15A 2.7618 no . 2_666
H70C H15B 2.9870 no . 2_666
H70C H15C 2.9366 no . 2_666
H70C H20 3.3113 no . 1_454
H72A C54 3.4815 no . 1_455
H72A H54 2.6780 no . 1_455
H72A H63C 3.5419 no . 1_455
H72B C45 3.5168 no . 2_556
H72B H45 2.6185 no . 2_556
H72C C63 3.5632 no . 1_455
H72C H44 3.4870 no . 2_556
H72C H45 3.0273 no . 2_556
H72C H54 2.8576 no . 1_455
H72C H61B 2.9280 no . 1_455
H72C H63C 2.6711 no . 1_455
H73A C24 3.1611 no . 1_554
H73A C30 3.3212 no . 1_554
H73A C34 3.3379 no . 1_554
H73A H18 3.0799 no . 1_554
H73A H24B 2.6971 no . 1_554
H73A H24C 2.7503 no . 1_554
H73A H34A 3.5534 no . 1_554
H73A H34B 2.7237 no . 1_554
H73B C25 3.4159 no . 1_454
H73B C30 3.4475 no . 1_554
H73B C31 3.2752 no . 1_554
H73B C34 3.5842 no . 1_554
H73B H25A 3.1662 no . 1_454
H73B H25C 2.8838 no . 1_454
H73B H31 3.1496 no . 1_554
H73B H34B 2.8620 no . 1_554
H73C C25 2.9060 no . 1_454
H73C H24B 3.2056 no . 1_554
H73C H24C 3.4889 no . 1_554
H73C H25A 2.7018 no . 1_454
H73C H25B 2.7986 no . 1_454
H73C H25C 2.7204 no . 1_454
H73C H48A 3.4622 no . 1_554
H75A C22 3.2839 no . 2_656
H75A C24 3.3805 no . 1_554
H75A H3 3.1923 no . 2_656
H75A H18 3.2036 no . 1_554
H75A H22B 3.0539 no . 2_656
H75A H22C 2.6734 no . 2_656
H75A H24C 2.4997 no . 1_554
H75A H67 3.4413 no . 2_555
H75B C66 3.3433 no . 2_555
H75B C67 3.5401 no . 2_555
H75B H3 3.5201 no . 2_656
H75B H24C 3.2833 no . 1_554
H75B H66 2.6017 no . 2_555
H75B H67 3.0155 no . 2_555
H75C C3 3.3095 no . 2_656
H75C H3 2.3820 no . 2_656
H75C H22C 3.1055 no . 2_656
H75C H48B 3.3262 no . 2_556
H75C H48C 3.5193 no . 2_556
H82A C12 3.2292 no . .
H82A H10C 3.4401 no . 2_656
H82A H12A 2.5557 no . .
H82A H12B 3.0842 no . .
H82A H89B 3.5898 no . 2_656
H82B C6 3.2790 no . 2_656
H82B C89 3.3935 no . 2_656
H82B H6 2.7583 no . 2_656
H82B H7 3.4279 no . 2_656
H82B H10C 3.0517 no . 2_656
H82B H91 3.0844 no . 2_556
H82B H92 3.2746 no . 2_556
H82B H89A 3.5797 no . 2_656
H82B H89B 2.6676 no . 2_656
H82B H89C 3.4680 no . 2_656
H82C C76 3.3624 no . 2_556
H82C C77 3.0926 no . 2_556
H82C C78 3.0653 no . 2_556
H82C C79 3.3337 no . 2_556
H82C C81 3.5804 no . 2_556
H82C C91 3.1885 no . 2_556
H82C H77 3.4684 no . 2_556
H82C H78 3.4096 no . 2_556
H82C H91 2.3277 no . 2_556
H89A C10 3.1858 no . 2_656
H89A H10A 2.2548 no . 2_656
H89A H10B 3.5861 no . 2_656
H89A H10C 3.4540 no . 2_656
H89A H82B 3.5797 no . 2_656
H89B C6 3.1048 no . .
H89B C82 3.5151 no . 2_656
H89B H6 2.2071 no . .
H89B H7 3.3976 no . .
H89B H10A 3.0386 no . 2_656
H89B H10C 3.5749 no . .
H89B H12B 3.0837 no . .
H89B H92 3.4523 no . 1_655
H89B H82A 3.5898 no . 2_656
H89B H82B 2.6676 no . 2_656
H89C C92 3.2530 no . 1_655
H89C H6 3.1719 no . .
H89C H7 3.2615 no . .
H89C H92 2.6149 no . 1_655
H89C H82B 3.4680 no . 2_656
H96A C8 3.2538 no . 2_666
H96A H7 3.5673 no . 2_666
H96A H8 2.5274 no . 2_666
H96A H15B 3.2637 no . 2_666
H96A H15C 3.0883 no . 2_666
H96B C8 3.5377 no . 2_666
H96B C92 3.5268 no . 2_566
H96B C93 3.3027 no . 2_566
H96B H7 3.0858 no . 2_666
H96B H8 2.8406 no . 2_666
H96B H38 3.5187 no . 2_566
H96B H41A 3.1461 no . 2_566
H96B H92 3.3608 no . 2_566
H96B H93 2.9346 no . 2_566
H96C C38 3.1193 no . 2_566
H96C H8 2.9287 no . 2_666
H96C H15C 3.0989 no . 2_666
H96C H38 2.4491 no . 2_566
H96C H41A 3.1337 no . 2_566

#==============================================================================

#==============================================================================
# Additional structures and associated data_? identifiers
# should be added at this point if there is more than one 
# structure analysis in the CIF.

#==============================================================================
#     End of CIF
#==============================================================================
