data_ups3623kg_am34_0m
_audit_creation_date               2022-01-22
_audit_creation_method
;
Olex2 1.3
(compiled 2020.11.12 svn.r5f609507 for OlexSys, GUI svn.r6408)
;
_shelx_SHELXL_version_number       '2017/1'
_audit_contact_author_address      ?
_audit_contact_author_email        ?
_audit_contact_author_name         ''
_audit_contact_author_phone        ?
_publ_contact_author_id_orcid      ?
_publ_section_references
;
Dolomanov, O.V., Bourhis, L.J., Gildea, R.J, Howard, J.A.K. & Puschmann, H.
 (2009), J. Appl. Cryst. 42, 339-341.

Sheldrick, G.M. (2015). Acta Cryst. C71, 3-8.
;
_chemical_name_common              ?
_chemical_name_systematic          ?
_chemical_formula_moiety           'C29 H20 Cl N3 Pd'
_chemical_formula_sum              'C29 H20 Cl N3 Pd'
_chemical_formula_weight           552.33
_chemical_melting_point            ?
loop_
  _atom_type_symbol
  _atom_type_description
  _atom_type_scat_dispersion_real
  _atom_type_scat_dispersion_imag
  _atom_type_scat_source
 'C' 'C' 0.0033 0.0016 'International Tables Vol C Tables 4.2.6.8 and 6.1.1.4'
 'H' 'H' 0.0000 0.0000 'International Tables Vol C Tables 4.2.6.8 and 6.1.1.4'
 'Cl' 'Cl' 0.1484 0.1585 'International Tables Vol C Tables 4.2.6.8 and 6.1.1.4'
 'N' 'N' 0.0061 0.0033 'International Tables Vol C Tables 4.2.6.8 and 6.1.1.4'
 'Pd' 'Pd' -0.9988 1.0072
 'International Tables Vol C Tables 4.2.6.8 and 6.1.1.4'

_shelx_space_group_comment
;
The symmetry employed for this shelxl refinement is uniquely defined
by the following loop, which should always be used as a source of
symmetry information in preference to the above space-group names.
They are only intended as comments.
;
_space_group_crystal_system        'triclinic'
_space_group_IT_number             2
_space_group_name_H-M_alt          'P -1'
_space_group_name_Hall             '-P 1'
loop_
  _space_group_symop_operation_xyz
 'x, y, z'
 '-x, -y, -z'

_cell_length_a                     8.6208(5)
_cell_length_b                     10.7378(6)
_cell_length_c                     13.4450(7)
_cell_angle_alpha                  94.290(2)
_cell_angle_beta                   107.652(2)
_cell_angle_gamma                  103.444(2)
_cell_volume                       1139.22(11)
_cell_formula_units_Z              2
_cell_measurement_reflns_used      111
_cell_measurement_temperature      296.15
_cell_measurement_theta_max        28.297
_cell_measurement_theta_min        1.14
_shelx_estimated_absorpt_T_max     ?
_shelx_estimated_absorpt_T_min     ?
_exptl_absorpt_coefficient_mu      0.956
_exptl_absorpt_correction_T_max    ?
_exptl_absorpt_correction_T_min    ?
_exptl_absorpt_correction_type     multi-scan
_exptl_absorpt_process_details     '(SADABS; Bruker, 2000)'
_exptl_absorpt_special_details     ?
_exptl_crystal_colour              red
_exptl_crystal_density_diffrn      1.610
_exptl_crystal_density_meas        ?
_exptl_crystal_density_method      'not measured'
_exptl_crystal_description         flat
_exptl_crystal_F_000               556
_exptl_crystal_size_max            0.31
_exptl_crystal_size_mid            0.25
_exptl_crystal_size_min            0.2
_exptl_transmission_factor_max     0
_exptl_transmission_factor_min     0
_diffrn_reflns_av_R_equivalents    0.0250
_diffrn_reflns_av_unetI/netI       0.0241
_diffrn_reflns_Laue_measured_fraction_full  0.999
_diffrn_reflns_Laue_measured_fraction_max  0.992
_diffrn_reflns_limit_h_max         11
_diffrn_reflns_limit_h_min         -11
_diffrn_reflns_limit_k_max         14
_diffrn_reflns_limit_k_min         -14
_diffrn_reflns_limit_l_max         17
_diffrn_reflns_limit_l_min         -17
_diffrn_reflns_number              18166
_diffrn_reflns_point_group_measured_fraction_full  0.999
_diffrn_reflns_point_group_measured_fraction_max  0.992
_diffrn_reflns_theta_full          25.242
_diffrn_reflns_theta_max           28.297
_diffrn_reflns_theta_min           1.609
_diffrn_ambient_temperature        296.15
_diffrn_detector_area_resol_mean   ?
_diffrn_measured_fraction_theta_full  0.999
_diffrn_measured_fraction_theta_max  0.992
_diffrn_measurement_device_type    'Bruker Kappa Apex'
_diffrn_measurement_method         'phi omega scans'
_diffrn_radiation_type             MoK\a
_diffrn_radiation_wavelength       0.71073
_diffrn_source                     ?
_reflns_Friedel_coverage           0.000
_reflns_Friedel_fraction_full      .
_reflns_Friedel_fraction_max       .
_reflns_number_gt                  5163
_reflns_number_total               5669
_reflns_special_details
;
 Reflections were merged by SHELXL according to the crystal
 class for the calculation of statistics and refinement.
 
 _reflns_Friedel_fraction is defined as the number of unique
 Friedel pairs measured divided by the number that would be
 possible theoretically, ignoring centric projections and
 systematic absences.
;
_reflns_threshold_expression       'I > 2\s(I)'
_computing_cell_refinement         'Bruker Kappa Apex'
_computing_data_collection         'Bruker Kappa Apex'
_computing_data_reduction          'Bruker SAINT'
_computing_molecular_graphics      'Olex2 1.3 (Dolomanov et al., 2009)'
_computing_publication_material    'Olex2 1.3 (Dolomanov et al., 2009)'
_computing_structure_refinement    'SHELXL 2017/1 (Sheldrick, 2015)'
_computing_structure_solution      'olex2.solve 1.3 (Bourhis et al., 2015)'
_refine_diff_density_max           0.667
_refine_diff_density_min           -1.044
_refine_diff_density_rms           0.275
_refine_ls_extinction_coef         0.0083(3)
_refine_ls_extinction_method       'SHELXL-2017/1 (Sheldrick 2017)'
_refine_ls_goodness_of_fit_ref     1.292
_refine_ls_hydrogen_treatment      constr
_refine_ls_matrix_type             full
_refine_ls_number_parameters       307
_refine_ls_number_reflns           5669
_refine_ls_number_restraints       0
_refine_ls_R_factor_all            0.0330
_refine_ls_R_factor_gt             0.0251
_refine_ls_restrained_S_all        1.292
_refine_ls_shift/su_max            0.001
_refine_ls_shift/su_mean           0.000
_refine_ls_structure_factor_coef   Fsqd
_refine_ls_weighting_details      
 'w=1/[\s^2^(Fo^2^)+(0.0583P)^2^+0.1121P] where P=(Fo^2^+2Fc^2^)/3'
_refine_ls_weighting_scheme        calc
_refine_ls_wR_factor_gt            0.0742
_refine_ls_wR_factor_ref           0.1016
_refine_special_details            ?
_olex2_refinement_description
;
1. Fixed Uiso
 At 1.2 times of:
  All C(H) groups, All C(H,H) groups
2.a Secondary CH2 refined with riding coordinates:
 C6(H6A,H6B)
2.b Aromatic/amide H refined with riding coordinates:
 C1(H1), C2(H2), C3(H3), C4(H4), C7(H7), C9(H9), C10(H10), C11(H11), C12(H12),
 C13(H13), C18(H18), C20(H20), C21(H21), C23(H23), C24(H24), C25(H25), C28(H28),
  C29(H29)
;
_atom_sites_solution_hydrogens     geom
_atom_sites_solution_primary       iterative
_atom_sites_solution_secondary     ?
loop_
  _atom_site_label
  _atom_site_type_symbol
  _atom_site_fract_x
  _atom_site_fract_y
  _atom_site_fract_z
  _atom_site_U_iso_or_equiv
  _atom_site_adp_type
  _atom_site_occupancy
  _atom_site_site_symmetry_order
  _atom_site_calc_flag
  _atom_site_refinement_flags_posn
  _atom_site_refinement_flags_adp
  _atom_site_refinement_flags_occupancy
  _atom_site_disorder_assembly
  _atom_site_disorder_group
 Pd1 Pd 0.60434(2) 0.16079(2) 0.08372(2) 0.02800(8) Uani 1 1 d . . . . .
 Cl1 Cl 0.78525(9) 0.18417(7) -0.01494(6) 0.04204(16) Uani 1 1 d . . . . .
 N1 N 0.4441(3) 0.2625(2) -0.01468(17) 0.0323(4) Uani 1 1 d . . . . .
 N2 N 0.3181(2) 0.18073(19) 0.16603(16) 0.0301(4) Uani 1 1 d . . . . .
 N3 N 0.4637(2) 0.13585(19) 0.17846(16) 0.0287(4) Uani 1 1 d . . . . .
 C1 C 0.4997(4) 0.3416(3) -0.0771(2) 0.0429(6) Uani 1 1 d . . . . .
 H1 H 0.607118 0.347323 -0.080706 0.051 Uiso 1 1 calc R U . . .
 C2 C 0.4056(4) 0.4140(3) -0.1357(3) 0.0503(7) Uani 1 1 d . . . . .
 H2 H 0.448371 0.466600 -0.178346 0.060 Uiso 1 1 calc R U . . .
 C3 C 0.2477(4) 0.4080(3) -0.1305(3) 0.0487(7) Uani 1 1 d . . . . .
 H3 H 0.181805 0.456953 -0.168712 0.058 Uiso 1 1 calc R U . . .
 C4 C 0.1888(3) 0.3265(3) -0.0666(2) 0.0398(6) Uani 1 1 d . . . . .
 H4 H 0.082181 0.320534 -0.061501 0.048 Uiso 1 1 calc R U . . .
 C5 C 0.2872(3) 0.2550(2) -0.01108(19) 0.0314(5) Uani 1 1 d . . . . .
 C6 C 0.2195(3) 0.1598(2) 0.05327(19) 0.0315(5) Uani 1 1 d . . . . .
 H6A H 0.105424 0.163248 0.046551 0.038 Uiso 1 1 calc R U . . .
 H6B H 0.212840 0.073133 0.022816 0.038 Uiso 1 1 calc R U . . .
 C7 C 0.5050(3) 0.0702(2) 0.25355(19) 0.0317(5) Uani 1 1 d . . . . .
 H7 H 0.442617 0.051262 0.298689 0.038 Uiso 1 1 calc R U . . .
 C8 C 0.3489(3) 0.3042(2) 0.22619(19) 0.0302(5) Uani 1 1 d . . . . .
 C9 C 0.4968(4) 0.3584(3) 0.3113(2) 0.0389(5) Uani 1 1 d . . . . .
 H9 H 0.580318 0.314739 0.329060 0.047 Uiso 1 1 calc R U . . .
 C10 C 0.5195(4) 0.4770(3) 0.3695(2) 0.0501(7) Uani 1 1 d . . . . .
 H10 H 0.618126 0.511964 0.426561 0.060 Uiso 1 1 calc R U . . .
 C11 C 0.3995(5) 0.5434(3) 0.3446(3) 0.0561(8) Uani 1 1 d . . . . .
 H11 H 0.417165 0.623943 0.383273 0.067 Uiso 1 1 calc R U . . .
 C12 C 0.2530(4) 0.4906(3) 0.2620(3) 0.0522(7) Uani 1 1 d . . . . .
 H12 H 0.170657 0.535438 0.245407 0.063 Uiso 1 1 calc R U . . .
 C13 C 0.2252(4) 0.3710(3) 0.2026(2) 0.0420(6) Uani 1 1 d . . . . .
 H13 H 0.124353 0.335825 0.147254 0.050 Uiso 1 1 calc R U . . .
 C14 C 0.6555(3) 0.0278(2) 0.26297(19) 0.0296(5) Uani 1 1 d . . . . .
 C15 C 0.7201(3) -0.0448(2) 0.34123(19) 0.0302(5) Uani 1 1 d . . . . .
 C16 C 0.8641(3) -0.0862(2) 0.33888(19) 0.0292(5) Uani 1 1 d . . . . .
 C17 C 0.9406(3) -0.0497(2) 0.26246(19) 0.0301(5) Uani 1 1 d . . . . .
 C18 C 0.8767(3) 0.0275(2) 0.18981(19) 0.0311(5) Uani 1 1 d . . . . .
 H18 H 0.932550 0.054557 0.142684 0.037 Uiso 1 1 calc R U . . .
 C19 C 0.7317(3) 0.0646(2) 0.18650(18) 0.0284(4) Uani 1 1 d . . . . .
 C20 C 0.6503(4) -0.0788(3) 0.4229(2) 0.0386(6) Uani 1 1 d . . . . .
 H20 H 0.557949 -0.050322 0.426709 0.046 Uiso 1 1 calc R U . . .
 C21 C 0.7150(4) -0.1508(3) 0.4944(2) 0.0417(6) Uani 1 1 d . . . . .
 H21 H 0.667141 -0.170112 0.546661 0.050 Uiso 1 1 calc R U . . .
 C22 C 0.8559(3) -0.1982(3) 0.4912(2) 0.0370(5) Uani 1 1 d . . . . .
 C23 C 0.9215(4) -0.2764(3) 0.5629(2) 0.0484(7) Uani 1 1 d . . . . .
 H23 H 0.874548 -0.297548 0.615264 0.058 Uiso 1 1 calc R U . . .
 C24 C 1.0556(4) -0.3224(3) 0.5560(3) 0.0539(8) Uani 1 1 d . . . . .
 H24 H 1.097094 -0.375403 0.603153 0.065 Uiso 1 1 calc R U . . .
 C25 C 1.1284(4) -0.2903(3) 0.4799(3) 0.0498(7) Uani 1 1 d . . . . .
 H25 H 1.218812 -0.321999 0.476952 0.060 Uiso 1 1 calc R U . . .
 C26 C 1.0697(3) -0.2110(3) 0.4068(2) 0.0382(6) Uani 1 1 d . . . . .
 C27 C 0.9291(3) -0.1650(2) 0.41296(19) 0.0325(5) Uani 1 1 d . . . . .
 C28 C 1.1426(3) -0.1736(3) 0.3287(2) 0.0410(6) Uani 1 1 d . . . . .
 H28 H 1.233838 -0.203388 0.324508 0.049 Uiso 1 1 calc R U . . .
 C29 C 1.0842(3) -0.0962(3) 0.2601(2) 0.0363(5) Uani 1 1 d . . . . .
 H29 H 1.136835 -0.072490 0.210794 0.044 Uiso 1 1 calc R U . . .

loop_
  _atom_site_aniso_label
  _atom_site_aniso_U_11
  _atom_site_aniso_U_22
  _atom_site_aniso_U_33
  _atom_site_aniso_U_23
  _atom_site_aniso_U_13
  _atom_site_aniso_U_12
 Pd1 0.02603(11) 0.03333(12) 0.02996(11) 0.00957(8) 0.01378(8) 0.01062(8)
 Cl1 0.0374(3) 0.0572(4) 0.0478(4) 0.0235(3) 0.0267(3) 0.0220(3)
 N1 0.0319(11) 0.0356(10) 0.0339(10) 0.0104(8) 0.0141(9) 0.0116(8)
 N2 0.0262(9) 0.0338(10) 0.0350(10) 0.0087(8) 0.0136(8) 0.0115(8)
 N3 0.0262(9) 0.0316(9) 0.0334(10) 0.0075(8) 0.0143(8) 0.0109(8)
 C1 0.0425(15) 0.0494(15) 0.0491(16) 0.0222(12) 0.0244(13) 0.0190(12)
 C2 0.0527(18) 0.0588(18) 0.0537(18) 0.0317(15) 0.0280(15) 0.0210(15)
 C3 0.0460(16) 0.0568(17) 0.0523(17) 0.0261(14) 0.0169(14) 0.0243(14)
 C4 0.0322(13) 0.0480(15) 0.0416(14) 0.0128(11) 0.0119(11) 0.0137(11)
 C5 0.0291(11) 0.0343(12) 0.0294(11) 0.0035(9) 0.0094(9) 0.0068(9)
 C6 0.0265(11) 0.0336(11) 0.0340(12) 0.0071(9) 0.0102(9) 0.0064(9)
 C7 0.0333(12) 0.0336(11) 0.0351(12) 0.0087(9) 0.0187(10) 0.0112(9)
 C8 0.0328(12) 0.0334(11) 0.0322(11) 0.0104(9) 0.0185(9) 0.0115(9)
 C9 0.0432(14) 0.0399(13) 0.0349(13) 0.0084(10) 0.0119(11) 0.0144(11)
 C10 0.0612(19) 0.0473(16) 0.0366(14) 0.0022(12) 0.0120(13) 0.0113(14)
 C11 0.077(2) 0.0437(16) 0.0541(19) 0.0002(13) 0.0298(17) 0.0212(16)
 C12 0.0596(19) 0.0497(16) 0.0622(19) 0.0084(14) 0.0293(16) 0.0308(15)
 C13 0.0379(14) 0.0472(15) 0.0478(15) 0.0080(12) 0.0181(12) 0.0190(12)
 C14 0.0297(11) 0.0297(11) 0.0328(12) 0.0056(9) 0.0135(9) 0.0101(9)
 C15 0.0308(12) 0.0307(11) 0.0305(11) 0.0047(9) 0.0122(9) 0.0084(9)
 C16 0.0300(11) 0.0293(11) 0.0269(11) 0.0024(8) 0.0081(9) 0.0076(9)
 C17 0.0272(11) 0.0343(12) 0.0279(11) 0.0019(9) 0.0081(9) 0.0086(9)
 C18 0.0288(11) 0.0384(12) 0.0294(11) 0.0065(9) 0.0128(9) 0.0108(10)
 C19 0.0290(11) 0.0309(11) 0.0276(11) 0.0065(9) 0.0106(9) 0.0103(9)
 C20 0.0419(14) 0.0439(14) 0.0394(14) 0.0118(11) 0.0219(11) 0.0162(11)
 C21 0.0476(15) 0.0452(14) 0.0376(14) 0.0150(11) 0.0201(12) 0.0118(12)
 C22 0.0376(13) 0.0354(12) 0.0334(12) 0.0066(10) 0.0072(10) 0.0068(10)
 C23 0.0532(18) 0.0484(16) 0.0409(15) 0.0192(12) 0.0109(13) 0.0113(13)
 C24 0.0559(18) 0.0539(17) 0.0508(18) 0.0228(14) 0.0075(14) 0.0215(15)
 C25 0.0470(17) 0.0521(16) 0.0526(18) 0.0155(13) 0.0087(13) 0.0259(14)
 C26 0.0365(13) 0.0364(13) 0.0374(13) 0.0033(10) 0.0047(10) 0.0126(11)
 C27 0.0319(12) 0.0304(12) 0.0309(12) 0.0030(9) 0.0051(9) 0.0077(9)
 C28 0.0334(13) 0.0474(15) 0.0444(15) 0.0049(11) 0.0092(11) 0.0202(11)
 C29 0.0297(12) 0.0451(14) 0.0364(13) 0.0049(10) 0.0120(10) 0.0134(10)

_geom_special_details
;
 All esds (except the esd in the dihedral angle between two l.s. planes)
 are estimated using the full covariance matrix.  The cell esds are taken
 into account individually in the estimation of esds in distances, angles
 and torsion angles; correlations between esds in cell parameters are only
 used when they are defined by crystal symmetry.  An approximate (isotropic)
 treatment of cell esds is used for estimating esds involving l.s. planes.
;
loop_
  _geom_bond_atom_site_label_1
  _geom_bond_atom_site_label_2
  _geom_bond_distance
  _geom_bond_site_symmetry_2
  _geom_bond_publ_flag
 Pd1 Cl1 2.3188(6) . ?
 Pd1 N1 2.159(2) . ?
 Pd1 N3 2.0004(19) . ?
 Pd1 C19 2.001(2) . ?
 N1 C1 1.348(3) . ?
 N1 C5 1.352(3) . ?
 N2 N3 1.415(3) . ?
 N2 C6 1.466(3) . ?
 N2 C8 1.424(3) . ?
 N3 C7 1.284(3) . ?
 C1 H1 0.9300 . ?
 C1 C2 1.371(4) . ?
 C2 H2 0.9300 . ?
 C2 C3 1.371(4) . ?
 C3 H3 0.9300 . ?
 C3 C4 1.391(4) . ?
 C4 H4 0.9300 . ?
 C4 C5 1.368(4) . ?
 C5 C6 1.515(3) . ?
 C6 H6A 0.9700 . ?
 C6 H6B 0.9700 . ?
 C7 H7 0.9300 . ?
 C7 C14 1.445(3) . ?
 C8 C9 1.395(4) . ?
 C8 C13 1.392(3) . ?
 C9 H9 0.9300 . ?
 C9 C10 1.384(4) . ?
 C10 H10 0.9300 . ?
 C10 C11 1.364(5) . ?
 C11 H11 0.9300 . ?
 C11 C12 1.368(5) . ?
 C12 H12 0.9300 . ?
 C12 C13 1.390(4) . ?
 C13 H13 0.9300 . ?
 C14 C15 1.413(3) . ?
 C14 C19 1.412(3) . ?
 C15 C16 1.420(3) . ?
 C15 C20 1.436(3) . ?
 C16 C17 1.413(3) . ?
 C16 C27 1.425(3) . ?
 C17 C18 1.397(3) . ?
 C17 C29 1.446(3) . ?
 C18 H18 0.9300 . ?
 C18 C19 1.387(3) . ?
 C20 H20 0.9300 . ?
 C20 C21 1.348(4) . ?
 C21 H21 0.9300 . ?
 C21 C22 1.432(4) . ?
 C22 C23 1.402(4) . ?
 C22 C27 1.410(4) . ?
 C23 H23 0.9300 . ?
 C23 C24 1.383(5) . ?
 C24 H24 0.9300 . ?
 C24 C25 1.379(5) . ?
 C25 H25 0.9300 . ?
 C25 C26 1.405(4) . ?
 C26 C27 1.432(4) . ?
 C26 C28 1.415(4) . ?
 C28 H28 0.9300 . ?
 C28 C29 1.350(4) . ?
 C29 H29 0.9300 . ?

loop_
  _geom_angle_atom_site_label_1
  _geom_angle_atom_site_label_2
  _geom_angle_atom_site_label_3
  _geom_angle
  _geom_angle_site_symmetry_1
  _geom_angle_site_symmetry_3
  _geom_angle_publ_flag
 N1 Pd1 Cl1 92.72(6) . . ?
 N3 Pd1 Cl1 174.98(6) . . ?
 N3 Pd1 N1 92.17(8) . . ?
 N3 Pd1 C19 80.03(9) . . ?
 C19 Pd1 Cl1 95.07(7) . . ?
 C19 Pd1 N1 172.20(8) . . ?
 C1 N1 Pd1 121.50(18) . . ?
 C1 N1 C5 117.5(2) . . ?
 C5 N1 Pd1 120.93(17) . . ?
 N3 N2 C6 108.93(18) . . ?
 N3 N2 C8 114.52(19) . . ?
 C8 N2 C6 117.97(19) . . ?
 N2 N3 Pd1 124.72(15) . . ?
 C7 N3 Pd1 117.52(16) . . ?
 C7 N3 N2 117.7(2) . . ?
 N1 C1 H1 118.4 . . ?
 N1 C1 C2 123.2(3) . . ?
 C2 C1 H1 118.4 . . ?
 C1 C2 H2 120.4 . . ?
 C3 C2 C1 119.3(3) . . ?
 C3 C2 H2 120.4 . . ?
 C2 C3 H3 121.0 . . ?
 C2 C3 C4 118.0(3) . . ?
 C4 C3 H3 121.0 . . ?
 C3 C4 H4 119.9 . . ?
 C5 C4 C3 120.2(3) . . ?
 C5 C4 H4 119.9 . . ?
 N1 C5 C4 121.8(2) . . ?
 N1 C5 C6 117.7(2) . . ?
 C4 C5 C6 120.4(2) . . ?
 N2 C6 C5 115.77(19) . . ?
 N2 C6 H6A 108.3 . . ?
 N2 C6 H6B 108.3 . . ?
 C5 C6 H6A 108.3 . . ?
 C5 C6 H6B 108.3 . . ?
 H6A C6 H6B 107.4 . . ?
 N3 C7 H7 122.4 . . ?
 N3 C7 C14 115.2(2) . . ?
 C14 C7 H7 122.4 . . ?
 C9 C8 N2 122.0(2) . . ?
 C13 C8 N2 119.3(2) . . ?
 C13 C8 C9 118.6(2) . . ?
 C8 C9 H9 119.9 . . ?
 C10 C9 C8 120.2(3) . . ?
 C10 C9 H9 119.9 . . ?
 C9 C10 H10 119.5 . . ?
 C11 C10 C9 121.0(3) . . ?
 C11 C10 H10 119.5 . . ?
 C10 C11 H11 120.3 . . ?
 C10 C11 C12 119.4(3) . . ?
 C12 C11 H11 120.3 . . ?
 C11 C12 H12 119.4 . . ?
 C11 C12 C13 121.1(3) . . ?
 C13 C12 H12 119.4 . . ?
 C8 C13 H13 120.1 . . ?
 C12 C13 C8 119.7(3) . . ?
 C12 C13 H13 120.1 . . ?
 C15 C14 C7 123.0(2) . . ?
 C19 C14 C7 114.1(2) . . ?
 C19 C14 C15 122.9(2) . . ?
 C14 C15 C16 117.6(2) . . ?
 C14 C15 C20 124.3(2) . . ?
 C16 C15 C20 118.1(2) . . ?
 C15 C16 C27 119.7(2) . . ?
 C17 C16 C15 119.7(2) . . ?
 C17 C16 C27 120.6(2) . . ?
 C16 C17 C29 118.4(2) . . ?
 C18 C17 C16 120.6(2) . . ?
 C18 C17 C29 121.0(2) . . ?
 C17 C18 H18 119.3 . . ?
 C19 C18 C17 121.4(2) . . ?
 C19 C18 H18 119.3 . . ?
 C14 C19 Pd1 112.99(16) . . ?
 C18 C19 Pd1 129.18(18) . . ?
 C18 C19 C14 117.8(2) . . ?
 C15 C20 H20 119.1 . . ?
 C21 C20 C15 121.8(3) . . ?
 C21 C20 H20 119.1 . . ?
 C20 C21 H21 119.4 . . ?
 C20 C21 C22 121.2(2) . . ?
 C22 C21 H21 119.4 . . ?
 C23 C22 C21 122.0(3) . . ?
 C23 C22 C27 119.6(3) . . ?
 C27 C22 C21 118.4(2) . . ?
 C22 C23 H23 119.9 . . ?
 C24 C23 C22 120.3(3) . . ?
 C24 C23 H23 119.9 . . ?
 C23 C24 H24 119.7 . . ?
 C25 C24 C23 120.6(3) . . ?
 C25 C24 H24 119.7 . . ?
 C24 C25 H25 119.1 . . ?
 C24 C25 C26 121.7(3) . . ?
 C26 C25 H25 119.1 . . ?
 C25 C26 C27 117.6(3) . . ?
 C25 C26 C28 123.6(3) . . ?
 C28 C26 C27 118.8(2) . . ?
 C16 C27 C26 119.2(2) . . ?
 C22 C27 C16 120.6(2) . . ?
 C22 C27 C26 120.2(2) . . ?
 C26 C28 H28 118.9 . . ?
 C29 C28 C26 122.2(2) . . ?
 C29 C28 H28 118.9 . . ?
 C17 C29 H29 119.6 . . ?
 C28 C29 C17 120.8(2) . . ?
 C28 C29 H29 119.6 . . ?

loop_
  _geom_torsion_atom_site_label_1
  _geom_torsion_atom_site_label_2
  _geom_torsion_atom_site_label_3
  _geom_torsion_atom_site_label_4
  _geom_torsion
  _geom_torsion_site_symmetry_1
  _geom_torsion_site_symmetry_2
  _geom_torsion_site_symmetry_3
  _geom_torsion_site_symmetry_4
  _geom_torsion_publ_flag
 Pd1 N1 C1 C2 -175.8(3) . . . . ?
 Pd1 N1 C5 C4 174.8(2) . . . . ?
 Pd1 N1 C5 C6 -7.7(3) . . . . ?
 Pd1 N3 C7 C14 3.0(3) . . . . ?
 N1 C1 C2 C3 0.7(5) . . . . ?
 N1 C5 C6 N2 60.0(3) . . . . ?
 N2 N3 C7 C14 -179.5(2) . . . . ?
 N2 C8 C9 C10 -178.2(2) . . . . ?
 N2 C8 C13 C12 178.9(2) . . . . ?
 N3 N2 C6 C5 -76.7(2) . . . . ?
 N3 N2 C8 C9 -17.4(3) . . . . ?
 N3 N2 C8 C13 165.4(2) . . . . ?
 N3 C7 C14 C15 179.7(2) . . . . ?
 N3 C7 C14 C19 -0.7(3) . . . . ?
 C1 N1 C5 C4 -1.3(4) . . . . ?
 C1 N1 C5 C6 176.1(2) . . . . ?
 C1 C2 C3 C4 -0.8(5) . . . . ?
 C2 C3 C4 C5 -0.1(5) . . . . ?
 C3 C4 C5 N1 1.2(4) . . . . ?
 C3 C4 C5 C6 -176.2(3) . . . . ?
 C4 C5 C6 N2 -122.5(3) . . . . ?
 C5 N1 C1 C2 0.4(4) . . . . ?
 C6 N2 N3 Pd1 40.4(2) . . . . ?
 C6 N2 N3 C7 -136.9(2) . . . . ?
 C6 N2 C8 C9 -147.6(2) . . . . ?
 C6 N2 C8 C13 35.1(3) . . . . ?
 C7 C14 C15 C16 176.9(2) . . . . ?
 C7 C14 C15 C20 -3.4(4) . . . . ?
 C7 C14 C19 Pd1 -1.8(3) . . . . ?
 C7 C14 C19 C18 -179.9(2) . . . . ?
 C8 N2 N3 Pd1 -94.2(2) . . . . ?
 C8 N2 N3 C7 88.6(3) . . . . ?
 C8 N2 C6 C5 56.1(3) . . . . ?
 C8 C9 C10 C11 -0.6(5) . . . . ?
 C9 C8 C13 C12 1.6(4) . . . . ?
 C9 C10 C11 C12 1.4(5) . . . . ?
 C10 C11 C12 C13 -0.7(5) . . . . ?
 C11 C12 C13 C8 -0.8(5) . . . . ?
 C13 C8 C9 C10 -0.9(4) . . . . ?
 C14 C15 C16 C17 2.4(3) . . . . ?
 C14 C15 C16 C27 -177.0(2) . . . . ?
 C14 C15 C20 C21 178.6(3) . . . . ?
 C15 C14 C19 Pd1 177.76(18) . . . . ?
 C15 C14 C19 C18 -0.3(4) . . . . ?
 C15 C16 C17 C18 0.5(4) . . . . ?
 C15 C16 C17 C29 -178.3(2) . . . . ?
 C15 C16 C27 C22 -2.5(3) . . . . ?
 C15 C16 C27 C26 177.2(2) . . . . ?
 C15 C20 C21 C22 -0.7(4) . . . . ?
 C16 C15 C20 C21 -1.8(4) . . . . ?
 C16 C17 C18 C19 -3.6(4) . . . . ?
 C16 C17 C29 C28 0.6(4) . . . . ?
 C17 C16 C27 C22 178.1(2) . . . . ?
 C17 C16 C27 C26 -2.2(3) . . . . ?
 C17 C18 C19 Pd1 -174.28(18) . . . . ?
 C17 C18 C19 C14 3.4(4) . . . . ?
 C18 C17 C29 C28 -178.2(3) . . . . ?
 C19 C14 C15 C16 -2.6(3) . . . . ?
 C19 C14 C15 C20 177.1(2) . . . . ?
 C20 C15 C16 C17 -177.2(2) . . . . ?
 C20 C15 C16 C27 3.4(3) . . . . ?
 C20 C21 C22 C23 -178.0(3) . . . . ?
 C20 C21 C22 C27 1.6(4) . . . . ?
 C21 C22 C23 C24 178.7(3) . . . . ?
 C21 C22 C27 C16 0.0(4) . . . . ?
 C21 C22 C27 C26 -179.7(2) . . . . ?
 C22 C23 C24 C25 1.1(5) . . . . ?
 C23 C22 C27 C16 179.7(2) . . . . ?
 C23 C22 C27 C26 0.0(4) . . . . ?
 C23 C24 C25 C26 -0.3(5) . . . . ?
 C24 C25 C26 C27 -0.6(5) . . . . ?
 C24 C25 C26 C28 178.8(3) . . . . ?
 C25 C26 C27 C16 -178.9(2) . . . . ?
 C25 C26 C27 C22 0.8(4) . . . . ?
 C25 C26 C28 C29 -179.4(3) . . . . ?
 C26 C28 C29 C17 -1.2(4) . . . . ?
 C27 C16 C17 C18 179.9(2) . . . . ?
 C27 C16 C17 C29 1.1(3) . . . . ?
 C27 C22 C23 C24 -0.9(4) . . . . ?
 C27 C26 C28 C29 0.0(4) . . . . ?
 C28 C26 C27 C16 1.7(4) . . . . ?
 C28 C26 C27 C22 -178.6(2) . . . . ?
 C29 C17 C18 C19 175.2(2) . . . . ?

_shelx_res_file
;
TITL UPS3623KG_AM34_0m in P1 New: P-1
    ups3623kg_am34_0m.res
    created by SHELXL-2017/1 at 12:52:56 on 22-Jan-2022
CELL 0.71073 8.6208 10.7378 13.445 94.29 107.652 103.444
ZERR 2 0.0005 0.0006 0.0007 0.002 0.002 0.002
LATT 1
SFAC C H Cl N Pd
UNIT 58 40 2 6 2

L.S. 5
PLAN  5
CONF
BOND $H
MORE -1
fmap 2
acta
REM <olex2.extras>
REM <HklSrc "%.\\UPS3623KG_AM34_0m.hkl">
REM </olex2.extras>

WGHT    0.058300    0.112100
FVAR       0.10992
PD1   5    0.604345    0.160792    0.083716    11.00000    0.02603    0.03333 =
         0.02996    0.00957    0.01378    0.01062
CL1   3    0.785247    0.184172   -0.014937    11.00000    0.03740    0.05720 =
         0.04780    0.02351    0.02671    0.02199
N1    4    0.444087    0.262461   -0.014677    11.00000    0.03193    0.03556 =
         0.03392    0.01037    0.01406    0.01163
N2    4    0.318095    0.180728    0.166027    11.00000    0.02619    0.03382 =
         0.03503    0.00872    0.01360    0.01152
N3    4    0.463677    0.135851    0.178459    11.00000    0.02619    0.03163 =
         0.03341    0.00752    0.01433    0.01087
C1    1    0.499671    0.341589   -0.077145    11.00000    0.04250    0.04943 =
         0.04906    0.02217    0.02438    0.01899
AFIX  43
H1    2    0.607118    0.347323   -0.080706    11.00000   -1.20000
AFIX   0
C2    1    0.405556    0.413987   -0.135654    11.00000    0.05266    0.05876 =
         0.05374    0.03169    0.02796    0.02098
AFIX  43
H2    2    0.448371    0.466600   -0.178346    11.00000   -1.20000
AFIX   0
C3    1    0.247652    0.407969   -0.130533    11.00000    0.04603    0.05677 =
         0.05228    0.02610    0.01688    0.02433
AFIX  43
H3    2    0.181805    0.456953   -0.168712    11.00000   -1.20000
AFIX   0
C4    1    0.188800    0.326455   -0.066563    11.00000    0.03219    0.04801 =
         0.04162    0.01281    0.01193    0.01372
AFIX  43
H4    2    0.082181    0.320534   -0.061501    11.00000   -1.20000
AFIX   0
C5    1    0.287229    0.254981   -0.011080    11.00000    0.02911    0.03431 =
         0.02938    0.00353    0.00937    0.00682
C6    1    0.219546    0.159814    0.053269    11.00000    0.02650    0.03356 =
         0.03398    0.00708    0.01018    0.00636
AFIX  23
H6A   2    0.105424    0.163248    0.046551    11.00000   -1.20000
H6B   2    0.212840    0.073133    0.022816    11.00000   -1.20000
AFIX   0
C7    1    0.505042    0.070206    0.253552    11.00000    0.03333    0.03363 =
         0.03508    0.00874    0.01873    0.01118
AFIX  43
H7    2    0.442617    0.051262    0.298689    11.00000   -1.20000
AFIX   0
C8    1    0.348895    0.304194    0.226187    11.00000    0.03281    0.03336 =
         0.03219    0.01038    0.01849    0.01146
C9    1    0.496784    0.358408    0.311345    11.00000    0.04316    0.03991 =
         0.03490    0.00844    0.01189    0.01436
AFIX  43
H9    2    0.580318    0.314739    0.329060    11.00000   -1.20000
AFIX   0
C10   1    0.519503    0.477008    0.369528    11.00000    0.06117    0.04730 =
         0.03658    0.00224    0.01197    0.01135
AFIX  43
H10   2    0.618126    0.511964    0.426561    11.00000   -1.20000
AFIX   0
C11   1    0.399535    0.543444    0.344550    11.00000    0.07746    0.04371 =
         0.05407    0.00017    0.02976    0.02118
AFIX  43
H11   2    0.417165    0.623943    0.383273    11.00000   -1.20000
AFIX   0
C12   1    0.253035    0.490601    0.262023    11.00000    0.05964    0.04974 =
         0.06215    0.00836    0.02933    0.03076
AFIX  43
H12   2    0.170657    0.535438    0.245407    11.00000   -1.20000
AFIX   0
C13   1    0.225200    0.371031    0.202575    11.00000    0.03795    0.04720 =
         0.04780    0.00804    0.01806    0.01901
AFIX  43
H13   2    0.124353    0.335825    0.147254    11.00000   -1.20000
AFIX   0
C14   1    0.655506    0.027834    0.262966    11.00000    0.02967    0.02969 =
         0.03280    0.00558    0.01352    0.01008
C15   1    0.720125   -0.044845    0.341234    11.00000    0.03079    0.03068 =
         0.03052    0.00466    0.01219    0.00840
C16   1    0.864088   -0.086165    0.338884    11.00000    0.03002    0.02931 =
         0.02686    0.00244    0.00806    0.00759
C17   1    0.940634   -0.049682    0.262464    11.00000    0.02718    0.03428 =
         0.02786    0.00193    0.00812    0.00865
C18   1    0.876721    0.027499    0.189806    11.00000    0.02878    0.03838 =
         0.02936    0.00648    0.01278    0.01078
AFIX  43
H18   2    0.932550    0.054557    0.142684    11.00000   -1.20000
AFIX   0
C19   1    0.731704    0.064608    0.186500    11.00000    0.02902    0.03086 =
         0.02763    0.00654    0.01065    0.01027
C20   1    0.650287   -0.078786    0.422943    11.00000    0.04186    0.04391 =
         0.03939    0.01182    0.02192    0.01623
AFIX  43
H20   2    0.557949   -0.050322    0.426709    11.00000   -1.20000
AFIX   0
C21   1    0.714952   -0.150815    0.494371    11.00000    0.04758    0.04517 =
         0.03765    0.01504    0.02008    0.01176
AFIX  43
H21   2    0.667141   -0.170112    0.546661    11.00000   -1.20000
AFIX   0
C22   1    0.855876   -0.198169    0.491235    11.00000    0.03758    0.03544 =
         0.03341    0.00664    0.00716    0.00678
C23   1    0.921462   -0.276435    0.562885    11.00000    0.05323    0.04844 =
         0.04093    0.01916    0.01085    0.01135
AFIX  43
H23   2    0.874548   -0.297548    0.615264    11.00000   -1.20000
AFIX   0
C24   1    1.055614   -0.322379    0.556015    11.00000    0.05587    0.05387 =
         0.05083    0.02283    0.00749    0.02147
AFIX  43
H24   2    1.097094   -0.375403    0.603153    11.00000   -1.20000
AFIX   0
C25   1    1.128424   -0.290290    0.479919    11.00000    0.04703    0.05205 =
         0.05260    0.01553    0.00868    0.02591
AFIX  43
H25   2    1.218812   -0.321999    0.476952    11.00000   -1.20000
AFIX   0
C26   1    1.069697   -0.210978    0.406762    11.00000    0.03655    0.03639 =
         0.03736    0.00332    0.00473    0.01265
C27   1    0.929132   -0.165029    0.412964    11.00000    0.03187    0.03044 =
         0.03088    0.00298    0.00512    0.00767
C28   1    1.142617   -0.173614    0.328701    11.00000    0.03341    0.04736 =
         0.04439    0.00490    0.00925    0.02025
AFIX  43
H28   2    1.233838   -0.203388    0.324508    11.00000   -1.20000
AFIX   0
C29   1    1.084153   -0.096182    0.260116    11.00000    0.02973    0.04509 =
         0.03639    0.00487    0.01197    0.01343
AFIX  43
H29   2    1.136835   -0.072490    0.210794    11.00000   -1.20000
AFIX   0
HKLF 4




REM  UPS3623KG_AM34_0m in P1 New: P-1
REM R1 =  0.0251 for    5163 Fo > 4sig(Fo)  and  0.0330 for all    5627 data
REM    307 parameters refined using      0 restraints

END

WGHT      0.0583      0.1121

REM Highest difference peak  0.667,  deepest hole -1.044,  1-sigma level  0.575
Q1    1   1.1812 -0.1782  0.3279  11.00000  0.05    0.67
Q2    1   0.0553  0.5867  0.1819  11.00000  0.05    0.61
Q3    1   0.1223  0.5241  0.2320  11.00000  0.05    0.61
Q4    1   1.1008 -0.1420  0.2975  11.00000  0.05    0.59
Q5    1   0.2331  0.4429  0.2448  11.00000  0.05    0.59
;
_shelx_res_checksum                37656
_shelx_hkl_file
;
  -1   0   0    0.00    0.00
  -2   0   0    0.56    0.05
  -2   0   0    0.62    0.06
  -2   0   0    0.63    0.03
  -2   0   0    0.65    0.06
  -2   0   0    0.60    0.05
   2   0   0    0.64    0.05
   2   0   0    0.62    0.05
   2   0   0    0.58    0.05
   2   0   0    0.63    0.05
  -3   0   0    2.91    0.14
  -3   0   0    2.84    0.14
  -3   0   0    2.76    0.12
   3   0   0    2.97    0.12
   3   0   0    2.89    0.13
   3   0   0    3.02    0.14
   3   0   0    3.08    0.14
  -4   0   0   15.93    0.52
  -4   0   0   15.78    0.52
  -4   0   0   15.69    0.57
   4   0   0   16.19    0.57
   4   0   0   15.50    0.56
   4   0   0   16.22    0.50
   4   0   0   15.42    0.52
  -5   0   0    7.08    0.27
  -5   0   0    7.31    0.31
  -5   0   0    7.19    0.27
   5   0   0    7.01    0.30
   5   0   0    7.30    0.27
   5   0   0    6.53    0.27
   5   0   0    7.10    0.28
  -6   0   0   15.17    0.52
  -6   0   0   15.33    0.59
  -6   0   0   15.83    0.53
   6   0   0   14.80    0.54
   6   0   0   15.31    0.51
   6   0   0   14.84    0.52
  -7   0   0    1.99    0.17
  -7   0   0    1.91    0.13
   7   0   0    1.96    0.15
   7   0   0    1.82    0.15
   7   0   0    2.07    0.15
  -8   0   0    2.25    0.14
  -8   0   0    2.38    0.20
   8   0   0    2.41    0.17
   8   0   0    2.31    0.17
  -9   0   0    3.63    0.19
   9   0   0    4.20    0.24
 -10   0   0    3.14    0.17
  10   0   0    3.50    0.23
  10  -1   0    0.93    0.14
 -10   1   0    1.14    0.10
   9  -1   0    0.08    0.08
  -9   1   0    0.04    0.05
   8  -1   0    2.33    0.16
   8  -1   0    2.34    0.17
  -8   1   0    2.20    0.18
  -8   1   0    2.29    0.14
   7  -1   0   17.92    0.61
   7  -1   0   17.72    0.59
   7  -1   0   17.84    0.62
  -7   1   0   17.01    0.59
  -7   1   0   17.09    0.67
  -7   1   0   17.28    0.59
   6  -1   0   34.12    1.04
   6  -1   0   34.83    1.10
   6  -1   0   33.65    1.06
  -6   1   0   33.73    1.08
  -6   1   0   33.73    1.18
  -6   1   0   33.91    1.08
   5  -1   0    2.06    0.12
   5  -1   0    2.27    0.12
   5  -1   0    2.17    0.14
   5  -1   0    1.91    0.12
  -5   1   0    2.17    0.14
  -5   1   0    2.11    0.12
  -5   1   0    2.20    0.12
   4  -1   0    0.31    0.05
   4  -1   0    0.20    0.04
   4  -1   0    0.28    0.05
   4  -1   0    0.24    0.04
  -4   1   0    0.33    0.05
  -4   1   0    0.25    0.04
  -4   1   0    0.34    0.06
   3  -1   0    9.26    0.34
   3  -1   0    8.93    0.31
   3  -1   0    9.12    0.31
   3  -1   0    9.45    0.30
  -3   1   0    9.42    0.31
  -3   1   0    9.11    0.34
  -3   1   0    9.35    0.31
   2  -1   0    2.23    0.11
   2  -1   0    2.16    0.09
   2  -1   0    2.25    0.07
   2  -1   0    2.04    0.09
   2  -1   0    2.15    0.10
  -2   1   0    2.19    0.09
  -2   1   0    2.02    0.09
  -2   1   0    2.19    0.10
  -2   1   0    2.10    0.09
   0  -1   0   -0.08    0.00
   0  -1   0   -0.08    0.01
   0  -1   0   -0.08    0.00
   0  -1   0   -0.08    0.01
   0  -1   0   -0.08    0.00
   0   1   0   -0.08    0.00
   0   1   0   -0.08    0.00
   0   1   0   -0.08    0.00
   0   1   0   -0.08    0.00
   0   1   0   -0.08    0.01
  -1  -1   0    0.35    0.04
  -1  -1   0    0.37    0.04
  -1  -1   0    0.43    0.04
  -1  -1   0    0.45    0.03
  -1  -1   0    0.48    0.04
   1   1   0    0.36    0.04
   1   1   0    0.39    0.04
   1   1   0    0.51    0.04
   1   1   0    0.50    0.04
   1   1   0    0.45    0.04
  -2  -1   0   12.01    0.43
  -2  -1   0   12.50    0.38
  -2  -1   0   12.92    0.40
  -2  -1   0   11.33    0.43
  -2  -1   0   11.97    0.43
  -2  -1   0   12.92    0.35
   2   1   0   11.88    0.40
   2   1   0   12.68    0.43
   2   1   0   12.36    0.38
   2   1   0   12.56    0.43
  -3  -1   0   60.64    1.97
  -3  -1   0   59.85    1.98
  -3  -1   0   59.77    1.68
  -3  -1   0   57.79    1.98
   3   1   0   62.95    1.87
   3   1   0   62.54    1.98
   3   1   0   61.81    1.98
   3   1   0   61.22    1.76
  -4  -1   0   52.15    1.75
  -4  -1   0   52.22    1.75
  -4  -1   0   55.91    1.47
  -4  -1   0   52.98    1.64
   4   1   0   52.71    1.75
   4   1   0   54.21    1.75
   4   1   0   54.11    1.65
   4   1   0   50.82    1.55
  -5  -1   0    0.09    0.05
  -5  -1   0    0.04    0.04
  -5  -1   0    0.05    0.05
  -5  -1   0    0.01    0.04
   5   1   0    0.01    0.04
   5   1   0    0.04    0.04
   5   1   0    0.02    0.04
  -6  -1   0    6.93    0.28
  -6  -1   0    6.66    0.32
  -6  -1   0    7.01    0.28
   6   1   0    6.29    0.28
   6   1   0    6.71    0.29
  -7  -1   0   12.32    0.51
  -7  -1   0   12.29    0.45
   7   1   0   12.20    0.45
   7   1   0   12.18    0.47
   7   1   0   12.08    0.45
  -8  -1   0    5.66    0.26
   8   1   0    5.70    0.27
  -9  -1   0    2.57    0.16
   9   1   0    2.77    0.19
 -10  -1   0    0.21    0.07
  10  -2   0    0.74    0.13
 -10   2   0    0.68    0.07
   9  -2   0    2.82    0.19
   9  -2   0    2.61    0.18
  -9   2   0    2.57    0.14
   8  -2   0    1.50    0.14
   8  -2   0    1.27    0.14
  -8   2   0    1.29    0.10
  -8   2   0    1.38    0.16
   7  -2   0   24.15    0.81
   7  -2   0   24.85    0.79
   7  -2   0   24.92    0.83
  -7   2   0   24.13    0.89
  -7   2   0   24.53    0.79
  -7   2   0   24.21    0.79
   6  -2   0   12.72    0.44
   6  -2   0   11.51    0.41
   6  -2   0   11.98    0.43
  -6   2   0   12.22    0.42
  -6   2   0   11.69    0.48
  -6   2   0   12.14    0.42
   5  -2   0    8.25    0.30
   5  -2   0    8.09    0.29
   5  -2   0    7.75    0.30
  -5   2   0    8.24    0.29
  -5   2   0    8.16    0.29
  -5   2   0    8.19    0.34
   4  -2   0   62.87    2.05
   4  -2   0   62.85    1.93
   4  -2   0   62.78    1.86
   4  -2   0   63.17    1.82
  -4   2   0   64.98    2.05
  -4   2   0   63.78    1.92
  -4   2   0   60.44    1.92
   3  -2   0    7.92    0.26
   3  -2   0    8.08    0.27
   3  -2   0    8.07    0.30
   3  -2   0    7.91    0.28
  -3   2   0    7.88    0.27
  -3   2   0    7.72    0.27
  -3   2   0    8.07    0.28
  -3   2   0    7.98    0.30
   2  -2   0   27.93    0.80
   2  -2   0   26.68    0.77
   2  -2   0   28.19    0.85
   2  -2   0   27.05    0.90
   2  -2   0   27.49    0.83
  -2   2   0   27.98    0.83
  -2   2   0   28.38    0.80
  -2   2   0   27.72    0.91
  -2   2   0   26.87    0.85
  -2   2   0   27.92    0.85
   1  -2   0   70.35    1.85
   1  -2   0   66.71    2.03
   1  -2   0   67.33    2.15
   1  -2   0   67.24    1.85
   1  -2   0   66.86    2.03
  -1   2   0   67.40    2.15
  -1   2   0   67.82    1.90
  -1   2   0   64.21    2.03
   0  -2   0   50.47    1.69
   0  -2   0   51.70    1.59
   0  -2   0   51.05    1.59
   0  -2   0   54.11    1.45
   0   2   0   53.66    1.69
   0   2   0   53.86    1.59
   0   2   0   52.05    1.59
  -1  -2   0   32.60    0.95
  -1  -2   0   31.96    0.91
  -1  -2   0   31.59    1.06
  -1  -2   0   32.10    1.00
  -1  -2   0   32.77    1.01
   1   2   0   33.40    1.00
   1   2   0   33.09    1.06
   1   2   0   32.76    1.07
   1   2   0   32.17    0.95
  -2  -2   0   23.06    0.65
  -2  -2   0   22.92    0.69
  -2  -2   0   22.42    0.77
  -2  -2   0   21.57    0.72
  -2  -2   0   23.11    0.72
   2   2   0   23.16    0.77
   2   2   0   22.99    0.69
   2   2   0   23.25    0.73
   2   2   0   23.58    0.78
  -3  -2   0   13.17    0.43
  -3  -2   0   12.07    0.46
  -3  -2   0   12.19    0.36
  -3  -2   0   12.05    0.45
  -3  -2   0   12.24    0.42
  -3  -2   0   12.19    0.46
   3   2   0   12.46    0.46
   3   2   0   12.95    0.43
   3   2   0   12.52    0.46
   3   2   0   12.35    0.41
  -4  -2   0    4.72    0.22
  -4  -2   0    4.16    0.19
  -4  -2   0    4.52    0.22
  -4  -2   0    4.65    0.20
  -4  -2   0    4.45    0.15
  -4  -2   0    4.44    0.22
   4   2   0    4.70    0.20
   4   2   0    5.01    0.23
   4   2   0    4.61    0.21
   4   2   0    4.79    0.22
  -5  -2   0    7.28    0.29
  -5  -2   0    7.16    0.32
  -5  -2   0    6.88    0.32
   5   2   0    6.86    0.28
   5   2   0    7.60    0.30
   5   2   0    7.30    0.32
  -6  -2   0   24.29    0.79
  -6  -2   0   23.72    0.87
  -6  -2   0   23.34    0.86
   6   2   0   23.11    0.81
   6   2   0   23.53    0.77
  -7  -2   0   10.28    0.46
  -7  -2   0   10.19    0.40
   7   2   0   10.08    0.42
   7   2   0   10.44    0.41
  -8  -2   0    3.52    0.20
   8   2   0    3.78    0.22
  -9  -2   0    0.40    0.09
 -10  -2   0    1.31    0.13
  10  -3   0    3.88    0.25
   9  -3   0    4.42    0.24
   9  -3   0    4.43    0.25
  -9   3   0    4.31    0.18
   8  -3   0    2.16    0.16
   8  -3   0    1.93    0.15
  -8   3   0    2.04    0.12
  -8   3   0    1.98    0.17
  -8   3   0    1.86    0.12
   7  -3   0    0.06    0.06
   7  -3   0   -0.07    0.05
  -7   3   0   -0.11    0.04
  -7   3   0    0.00    0.04
  -7   3   0    0.04    0.06
   6  -3   0   26.28    0.85
   6  -3   0   25.56    0.80
   6  -3   0   26.08    0.83
  -6   3   0   25.97    0.82
  -6   3   0   25.97    0.92
  -6   3   0   25.33    0.83
   5  -3   0   34.47    1.10
   5  -3   0   34.92    1.06
   5  -3   0   36.65    1.13
  -5   3   0   35.99    1.11
  -5   3   0   36.71    1.11
  -5   3   0   35.61    1.21
   4  -3   0   11.39    0.39
   4  -3   0   11.25    0.39
   4  -3   0   11.18    0.36
  -4   3   0   11.29    0.39
  -4   3   0   11.11    0.37
  -4   3   0   10.96    0.42
  -4   3   0   11.32    0.38
   3  -3   0   16.50    0.50
   3  -3   0   16.40    0.53
   3  -3   0   17.14    0.57
   3  -3   0   16.54    0.53
  -3   3   0   16.70    0.53
  -3   3   0   15.91    0.52
  -3   3   0   16.92    0.58
  -3   3   0   15.98    0.52
   2  -3   0   17.50    0.48
   2  -3   0   17.17    0.54
   2  -3   0   17.41    0.51
   2  -3   0   17.32    0.58
  -2   3   0   16.44    0.58
  -2   3   0   16.96    0.54
  -2   3   0   16.89    0.54
  -2   3   0   17.02    0.53
   1  -3   0   53.34    1.45
   1  -3   0   51.34    1.70
   1  -3   0   52.61    1.60
  -1   3   0   51.46    1.60
  -1   3   0   54.13    1.70
   0  -3   0  106.54    3.18
   0  -3   0  104.33    2.90
   0  -3   0  105.59    3.37
   0   3   0  106.31    3.18
   0   3   0  105.99    3.17
   0   3   0  101.93    3.36
  -1  -3   0   21.81    0.67
  -1  -3   0   21.54    0.60
  -1  -3   0   20.98    0.64
  -1  -3   0   19.98    0.72
  -1  -3   0   21.17    0.72
  -1  -3   0   21.49    0.68
   1   3   0   19.84    0.71
   1   3   0   21.09    0.64
   1   3   0   21.23    0.67
   1   3   0   21.28    0.72
   1   3   0   20.91    0.68
  -2  -3   0    0.63    0.06
  -2  -3   0    0.54    0.07
  -2  -3   0    0.61    0.06
  -2  -3   0    0.57    0.06
  -2  -3   0    0.55    0.04
   2   3   0    0.63    0.07
   2   3   0    0.51    0.07
   2   3   0    0.53    0.06
   2   3   0    0.66    0.07
  -3  -3   0    0.16    0.05
  -3  -3   0    0.18    0.05
  -3  -3   0    0.16    0.04
  -3  -3   0    0.14    0.03
  -3  -3   0    0.11    0.04
  -3  -3   0    0.15    0.05
   3   3   0    0.20    0.05
   3   3   0    0.24    0.06
   3   3   0    0.22    0.05
   3   3   0    0.08    0.04
  -4  -3   0   14.60    0.60
  -4  -3   0   15.90    0.60
  -4  -3   0   16.41    0.47
  -4  -3   0   16.21    0.55
  -4  -3   0   16.24    0.59
  -4  -3   0   16.12    0.56
   4   3   0   15.99    0.53
   4   3   0   16.42    0.60
   4   3   0   16.46    0.57
   4   3   0   16.62    0.60
  -5  -3   0   29.73    1.03
  -5  -3   0   29.67    1.04
  -5  -3   0   29.84    0.96
  -5  -3   0   27.80    1.05
  -5  -3   0   29.11    0.83
   5   3   0   28.94    0.93
   5   3   0   30.00    1.05
   5   3   0   30.99    0.99
  -6  -3   0    5.98    0.27
  -6  -3   0    6.24    0.31
  -6  -3   0    6.22    0.31
   6   3   0    5.82    0.27
   6   3   0    5.91    0.29
  -7  -3   0    0.18    0.07
  -8  -3   0    0.20    0.08
  -9  -3   0    0.91    0.12
  10  -4   0    4.99    0.28
   9  -4   0    0.38    0.09
   9  -4   0    0.22    0.08
  -9   4   0    0.18    0.04
  -9   4   0    0.28    0.10
  -9   4   0    0.22    0.05
   8  -4   0    0.06    0.06
   8  -4   0    0.01    0.06
  -8   4   0    0.00    0.06
  -8   4   0   -0.01    0.04
  -8   4   0   -0.02    0.04
   7  -4   0    2.05    0.15
   7  -4   0    2.43    0.15
  -7   4   0    2.56    0.18
  -7   4   0    2.39    0.12
  -7   4   0    2.39    0.13
   6  -4   0   38.74    1.22
   6  -4   0   37.54    1.16
   6  -4   0   37.14    1.19
  -6   4   0   38.87    1.20
  -6   4   0   39.68    1.32
  -6   4   0   38.60    1.20
   5  -4   0   18.48    0.62
   5  -4   0   18.95    0.59
   5  -4   0   18.70    0.62
  -5   4   0   18.78    0.60
  -5   4   0   19.44    0.68
  -5   4   0   17.67    0.60
   4  -4   0    9.14    0.32
   4  -4   0    9.62    0.35
   4  -4   0    9.74    0.34
  -4   4   0   10.14    0.38
  -4   4   0    9.60    0.33
  -4   4   0   10.48    0.34
   3  -4   0   25.42    0.70
   3  -4   0   24.34    0.73
   3  -4   0   25.75    0.84
   3  -4   0   23.96    0.78
  -3   4   0   24.31    0.76
  -3   4   0   23.71    0.77
  -3   4   0   24.83    0.84
  -3   4   0   24.38    0.77
   2  -4   0   38.34    1.03
   2  -4   0   36.51    1.14
   2  -4   0   35.68    1.22
  -2   4   0   36.82    1.14
  -2   4   0   37.77    1.11
  -2   4   0   37.11    1.22
  -2   4   0   36.56    1.14
   1  -4   0   80.00    2.16
   1  -4   0   79.03    2.52
   1  -4   0   76.58    2.37
  -1   4   0   80.06    2.24
  -1   4   0   77.24    2.38
  -1   4   0   75.98    2.52
   0  -4   0   30.28    1.01
   0  -4   0   29.67    0.85
   0  -4   0   30.71    0.95
   0   4   0   30.78    0.95
   0   4   0   29.62    1.01
   0   4   0   29.27    0.94
  -1  -4   0    0.18    0.05
  -1  -4   0    0.02    0.03
  -1  -4   0    0.14    0.04
  -1  -4   0    0.07    0.03
   1   4   0    0.08    0.04
   1   4   0    0.09    0.04
   1   4   0    0.13    0.05
   1   4   0    0.07    0.04
  -2  -4   0    7.62    0.36
  -2  -4   0    9.31    0.37
  -2  -4   0    9.64    0.29
  -2  -4   0    9.63    0.33
  -2  -4   0    9.40    0.34
   2   4   0    9.98    0.37
   2   4   0    8.68    0.34
   2   4   0    9.94    0.38
   2   4   0    9.42    0.33
  -3  -4   0   11.58    0.35
  -3  -4   0   11.52    0.41
  -3  -4   0   12.08    0.45
   3   4   0   11.71    0.46
   3   4   0   10.84    0.43
   3   4   0   12.05    0.46
   3   4   0   11.34    0.40
  -4  -4   0   20.69    0.58
  -4  -4   0   19.32    0.67
  -4  -4   0   18.69    0.73
  -4  -4   0   18.90    0.68
  -4  -4   0   20.84    0.73
  -4  -4   0   18.57    0.71
   4   4   0   20.22    0.73
   4   4   0   20.83    0.73
   4   4   0   18.32    0.68
   4   4   0   20.93    0.65
  -5  -4   0    4.96    0.23
  -5  -4   0    4.85    0.17
  -5  -4   0    4.85    0.25
  -5  -4   0    5.10    0.26
  -5  -4   0    4.71    0.26
   5   4   0    4.36    0.23
   5   4   0    4.38    0.24
  -6  -4   0    2.85    0.21
   6   4   0    3.17    0.21
  -7  -4   0    4.31    0.23
  -7  -4   0    4.49    0.28
  -8  -4   0    3.84    0.22
  -9  -4   0    2.07    0.17
  10  -5   0    0.61    0.09
   9  -5   0    1.26    0.14
   9  -5   0    1.58    0.17
  -9   5   0    1.39    0.17
   8  -5   0   11.59    0.46
   8  -5   0   11.13    0.42
  -8   5   0   11.11    0.38
  -8   5   0   11.47    0.39
  -8   5   0   11.13    0.49
   7  -5   0   15.93    0.54
   7  -5   0   15.94    0.57
  -7   5   0   15.47    0.52
  -7   5   0   16.18    0.52
  -7   5   0   15.04    0.62
   6  -5   0    3.02    0.16
   6  -5   0    3.13    0.17
  -6   5   0    3.26    0.20
  -6   5   0    3.05    0.14
  -6   5   0    2.90    0.14
   5  -5   0   11.98    0.37
   5  -5   0   12.37    0.43
   5  -5   0   12.35    0.41
  -5   5   0   12.25    0.48
  -5   5   0   11.92    0.41
  -5   5   0   11.79    0.41
   4  -5   0   12.77    0.42
   4  -5   0   13.15    0.39
   4  -5   0   13.11    0.44
  -4   5   0   12.89    0.43
  -4   5   0   13.22    0.49
  -4   5   0   12.40    0.43
   3  -5   0   40.27    1.22
   3  -5   0   39.61    1.10
  -3   5   0   39.57    1.31
  -3   5   0   38.31    1.21
  -3   5   0   38.48    1.22
   2  -5   0   71.95    2.35
   2  -5   0   72.81    2.21
   2  -5   0   74.92    2.01
  -2   5   0   75.64    2.22
  -2   5   0   64.70    2.20
  -2   5   0   74.46    2.36
   1  -5   0    6.85    0.28
   1  -5   0    6.67    0.21
   1  -5   0    6.51    0.25
  -1   5   0    6.48    0.25
  -1   5   0    6.57    0.24
  -1   5   0    6.58    0.28
  -1   5   0    5.63    0.24
   0  -5   0    4.03    0.15
   0  -5   0    4.26    0.21
   0  -5   0    4.21    0.18
   0   5   0    4.21    0.18
   0   5   0    4.10    0.18
   0   5   0    4.02    0.20
  -1  -5   0   11.22    0.42
  -1  -5   0   10.48    0.33
  -1  -5   0   10.16    0.38
   1   5   0   11.21    0.43
   1   5   0    9.66    0.36
   1   5   0   10.87    0.39
  -2  -5   0    6.78    0.27
  -2  -5   0    6.74    0.30
  -2  -5   0    6.62    0.27
  -2  -5   0    7.06    0.23
  -2  -5   0    6.74    0.30
   2   5   0    7.10    0.27
   2   5   0    6.33    0.28
   2   5   0    6.98    0.31
   2   5   0    6.75    0.31
  -3  -5   0   12.11    0.45
  -3  -5   0   12.67    0.39
  -3  -5   0   12.70    0.49
   3   5   0   12.50    0.50
   3   5   0   11.67    0.46
   3   5   0   13.09    0.50
   3   5   0   12.10    0.44
  -4  -5   0    0.89    0.10
  -4  -5   0    0.92    0.11
  -4  -5   0    0.95    0.11
  -4  -5   0    0.91    0.07
   4   5   0    0.85    0.11
   4   5   0    1.03    0.13
   4   5   0    1.05    0.11
   4   5   0    0.69    0.11
  -5  -5   0    5.33    0.28
  -5  -5   0    5.14    0.25
   5   5   0    4.93    0.27
   5   5   0    5.32    0.26
  -6  -5   0    7.75    0.34
  -6  -5   0    7.70    0.38
   6   5   0    8.37    0.37
  -7  -5   0    4.40    0.28
  -7  -5   0    3.87    0.23
  -8  -5   0    3.29    0.21
  10  -6   0    4.70    0.22
   9  -6   0    3.67    0.21
   9  -6   0    3.39    0.17
   8  -6   0    8.20    0.30
   8  -6   0    8.69    0.34
  -8   6   0    7.98    0.39
  -8   6   0    8.10    0.29
  -8   6   0    8.51    0.29
   7  -6   0    5.22    0.20
   7  -6   0    5.15    0.24
  -7   6   0    4.95    0.28
  -7   6   0    5.30    0.21
  -7   6   0    5.06    0.20
   6  -6   0    2.18    0.11
   6  -6   0    2.17    0.14
   6  -6   0    2.24    0.13
  -6   6   0    2.07    0.16
  -6   6   0    1.98    0.11
  -6   6   0    2.05    0.11
   5  -6   0   20.66    0.70
   5  -6   0   20.64    0.66
   5  -6   0   21.98    0.62
  -5   6   0   20.81    0.68
  -5   6   0   20.80    0.68
  -5   6   0   21.61    0.77
   4  -6   0   10.75    0.39
   4  -6   0   10.72    0.33
  -4   6   0   10.86    0.38
  -4   6   0   10.83    0.37
  -4   6   0   10.44    0.42
   3  -6   0    3.62    0.14
   3  -6   0    3.57    0.17
  -3   6   0    3.65    0.17
  -3   6   0    3.68    0.15
  -3   6   0    3.39    0.19
   2  -6   0    1.58    0.10
   2  -6   0    1.83    0.12
   2  -6   0    1.68    0.08
  -2   6   0    1.72    0.11
  -2   6   0    1.51    0.10
  -2   6   0    1.64    0.12
   1  -6   0   15.85    0.54
   1  -6   0   15.85    0.48
   1  -6   0   16.94    0.60
  -1   6   0   16.11    0.54
  -1   6   0   15.39    0.54
  -1   6   0   16.50    0.52
  -1   6   0   15.01    0.59
   0  -6   0   63.32    1.77
   0  -6   0   63.32    1.96
   0  -6   0   64.67    2.09
   0   6   0   66.08    1.95
   0   6   0   55.01    1.84
   0   6   0   66.60    2.09
  -1  -6   0    8.71    0.34
  -1  -6   0    8.50    0.29
  -1  -6   0    9.07    0.38
   1   6   0    8.39    0.37
   1   6   0    9.47    0.35
  -2  -6   0    0.63    0.08
  -2  -6   0    0.83    0.11
  -2  -6   0    0.79    0.07
   2   6   0    0.86    0.10
   2   6   0    0.67    0.09
   2   6   0    0.89    0.11
   2   6   0    0.73    0.10
  -3  -6   0    0.07    0.07
  -3  -6   0    0.19    0.04
  -3  -6   0    0.11    0.06
  -3  -6   0    0.11    0.06
   3   6   0    0.15    0.07
   3   6   0    0.04    0.06
   3   6   0    0.13    0.07
   3   6   0    0.08    0.06
  -4  -6   0    4.82    0.25
  -4  -6   0    4.72    0.24
  -4  -6   0    4.52    0.18
   4   6   0    4.57    0.25
  -5  -6   0   11.63    0.47
  -5  -6   0   11.94    0.50
   5   6   0   11.91    0.49
  -6  -6   0    1.99    0.20
  -6  -6   0    1.58    0.16
   6   6   0    1.70    0.18
  -7  -6   0    0.00    0.09
  -8  -6   0    0.00    0.08
  10  -7   0    0.57    0.09
   9  -7   0    1.03    0.10
   9  -7   0    0.87    0.12
   8  -7   0    0.51    0.09
   8  -7   0    0.45    0.07
  -8   7   0    0.53    0.11
  -8   7   0    0.53    0.05
   7  -7   0   16.09    0.53
   7  -7   0   16.46    0.58
  -7   7   0   17.00    0.67
  -7   7   0   17.89    0.55
  -7   7   0   16.73    0.55
   6  -7   0   20.71    0.67
   6  -7   0   20.48    0.62
  -6   7   0   20.58    0.77
  -6   7   0   19.42    0.67
  -6   7   0   21.04    0.66
   5  -7   0   11.47    0.36
   5  -7   0   11.02    0.41
  -5   7   0   11.06    0.38
  -5   7   0   11.05    0.46
  -5   7   0   11.02    0.39
   4  -7   0    0.25    0.04
   4  -7   0    0.19    0.05
  -4   7   0    0.21    0.06
  -4   7   0    0.27    0.05
  -4   7   0    0.28    0.06
   3  -7   0    0.79    0.06
   3  -7   0    0.78    0.08
  -3   7   0    0.80    0.10
  -3   7   0    0.97    0.09
  -3   7   0    0.90    0.08
   2  -7   0   20.28    0.60
   2  -7   0   19.47    0.67
  -2   7   0   20.26    0.74
  -2   7   0   20.14    0.67
  -2   7   0   20.39    0.64
   1  -7   0   41.44    1.19
   1  -7   0   42.21    1.32
   1  -7   0   41.35    1.41
  -1   7   0   41.22    1.42
  -1   7   0   41.93    1.31
  -1   7   0   42.59    1.32
  -1   7   0   39.67    1.24
   0  -7   0    4.23    0.22
   0  -7   0    4.29    0.17
   0  -7   0    4.01    0.20
   0   7   0    3.23    0.21
   0   7   0    4.07    0.23
   0   7   0    4.43    0.20
   0   7   0    4.33    0.20
   0   7   0    3.91    0.20
  -1  -7   0    0.32    0.05
  -1  -7   0    0.23    0.06
  -1  -7   0    0.36    0.08
   1   7   0    0.11    0.05
   1   7   0    0.32    0.07
   1   7   0    0.28    0.07
  -2  -7   0    3.69    0.16
  -2  -7   0    3.78    0.20
  -2  -7   0    3.72    0.23
   2   7   0    3.77    0.23
   2   7   0    3.93    0.20
   2   7   0    3.86    0.21
   2   7   0    4.10    0.24
  -3  -7   0   15.55    0.57
  -3  -7   0   15.30    0.49
   3   7   0   15.50    0.58
  -4  -7   0   21.94    0.76
  -4  -7   0   21.72    0.81
  -4  -7   0   22.28    0.65
   4   7   0   19.94    0.77
  -5  -7   0    4.30    0.25
  -5  -7   0    4.36    0.27
   5   7   0    4.27    0.26
  -6  -7   0    0.01    0.07
  -6  -7   0    0.30    0.11
   6   7   0    0.12    0.10
  -7  -7   0    0.89    0.16
  10  -8   0    0.88    0.11
   9  -8   0    0.10    0.06
   8  -8   0    6.09    0.25
   8  -8   0    6.35    0.29
  -8   8   0    6.04    0.34
   7  -8   0   15.51    0.49
  -7   8   0   14.91    0.63
  -7   8   0   15.07    0.50
  -7   8   0   15.75    0.51
   6  -8   0    3.31    0.16
  -6   8   0    3.62    0.17
  -6   8   0    3.25    0.22
  -6   8   0    3.42    0.16
   5  -8   0    3.77    0.20
   5  -8   0    3.81    0.16
  -5   8   0    3.88    0.17
  -5   8   0    3.92    0.23
  -5   8   0    3.65    0.18
   4  -8   0   20.97    0.63
   4  -8   0   21.02    0.71
  -4   8   0   21.37    0.78
  -4   8   0   21.15    0.68
  -4   8   0   19.73    0.69
   3  -8   0   11.67    0.36
   3  -8   0   11.10    0.42
  -3   8   0   11.35    0.47
  -3   8   0   10.39    0.41
  -3   8   0   11.30    0.40
   2  -8   0   16.91    0.59
   2  -8   0   16.70    0.52
  -2   8   0   16.85    0.58
  -2   8   0   16.05    0.64
   1  -8   0    5.40    0.21
   1  -8   0    5.54    0.25
  -1   8   0    5.78    0.28
  -1   8   0    5.89    0.30
  -1   8   0    5.95    0.26
  -1   8   0    5.70    0.25
  -1   8   0    6.06    0.25
   0  -8   0   13.61    0.42
   0  -8   0   13.03    0.53
   0  -8   0   13.18    0.48
   0   8   0   13.56    0.54
   0   8   0   11.50    0.51
   0   8   0   13.20    0.49
  -1  -8   0    1.44    0.10
  -1  -8   0    1.39    0.13
   1   8   0    1.32    0.15
   1   8   0    1.22    0.13
  -2  -8   0    2.89    0.18
  -2  -8   0    2.72    0.14
   2   8   0    2.48    0.18
  -3  -8   0    3.29    0.16
  -3  -8   0    3.61    0.21
   3   8   0    3.22    0.21
  -4  -8   0    0.99    0.13
  -4  -8   0    0.95    0.09
  -4  -8   0    1.07    0.14
   4   8   0    1.11    0.15
  -5  -8   0    6.27    0.31
  -5  -8   0    5.86    0.33
   5   8   0    5.62    0.32
  -6  -8   0    1.71    0.18
  -6  -8   0    1.48    0.18
   6   8   0    1.14    0.17
  -7  -8   0    1.40    0.19
  -7  -8   0    1.30    0.17
  10  -9   0    2.73    0.17
   9  -9   0    1.35    0.12
   8  -9   0    5.53    0.23
   7  -9   0    0.38    0.07
  -7   9   0    0.32    0.10
  -7   9   0    0.52    0.06
  -7   9   0    0.35    0.05
   6  -9   0    4.84    0.20
  -6   9   0    4.66    0.21
  -6   9   0    5.01    0.28
   5  -9   0    0.01    0.04
  -5   9   0    0.00    0.05
  -5   9   0    0.02    0.06
   4  -9   0    4.04    0.18
   4  -9   0    4.00    0.21
  -4   9   0    3.98    0.20
  -4   9   0    3.98    0.24
   3  -9   0   12.89    0.42
   3  -9   0   12.41    0.48
  -3   9   0   12.93    0.54
  -3   9   0   13.21    0.47
   2  -9   0    6.79    0.31
   2  -9   0    7.41    0.27
  -2   9   0    7.03    0.35
  -2   9   0    7.07    0.30
   1  -9   0    4.76    0.20
   1  -9   0    4.38    0.23
  -1   9   0    5.41    0.29
  -1   9   0    4.72    0.27
  -1   9   0    4.94    0.24
   0  -9   0   30.62    0.98
   0  -9   0   28.24    0.86
   0   9   0   28.50    0.98
   0   9   0   29.01    1.06
  -1  -9   0    5.81    0.23
  -1  -9   0    5.56    0.27
   1   9   0    5.89    0.29
  -2  -9   0    0.99    0.13
  -2  -9   0    1.03    0.10
   2   9   0    1.20    0.14
  -3  -9   0    0.24    0.09
  -3  -9   0    0.14    0.05
   3   9   0    0.37    0.10
  -4  -9   0    0.84    0.14
  -4  -9   0    0.94    0.14
   4   9   0    1.03    0.15
  -5  -9   0    8.12    0.40
  -5  -9   0    7.16    0.37
   5   9   0    7.74    0.39
  -6  -9   0    2.60    0.22
   6   9   0    2.23    0.23
   9 -10   0    3.11    0.18
   8 -10   0    0.51    0.08
   7 -10   0    4.34    0.21
  -7  10   0    4.89    0.19
   6 -10   0    6.69    0.27
  -6  10   0    7.04    0.27
  -6  10   0    6.86    0.36
   5 -10   0    1.89    0.12
  -5  10   0    2.58    0.20
  -5  10   0    2.12    0.14
   4 -10   0    3.17    0.16
  -4  10   0    2.85    0.17
  -4  10   0    3.00    0.22
   3 -10   0    0.04    0.05
   3 -10   0    0.02    0.06
  -3  10   0   -0.05    0.06
  -3  10   0    0.05    0.06
   2 -10   0    9.07    0.33
   2 -10   0    9.14    0.39
  -2  10   0    8.89    0.37
  -2  10   0    9.61    0.44
   1 -10   0   13.45    0.45
   1 -10   0   13.70    0.52
  -1  10   0   14.37    0.53
   0 -10   0    6.04    0.25
   0 -10   0    6.54    0.30
   0  10   0    6.50    0.31
  -1 -10   0    2.71    0.14
  -1 -10   0    2.57    0.18
   1  10   0    2.09    0.18
  -2 -10   0    0.34    0.07
  -2 -10   0    0.35    0.10
   2  10   0    0.29    0.10
  -3 -10   0    1.52    0.12
  -3 -10   0    1.50    0.17
   3  10   0    1.38    0.17
  -4 -10   0    2.50    0.22
  -4 -10   0    2.56    0.21
   4  10   0    2.93    0.22
  -5 -10   0    0.68    0.13
   5  10   0    0.76    0.15
   9 -11   0    0.05    0.07
   8 -11   0    4.99    0.23
   7 -11   0    7.19    0.30
  -7  11   0    7.67    0.26
   6 -11   0    3.20    0.17
  -6  11   0    3.28    0.17
   5 -11   0   -0.02    0.05
  -5  11   0   -0.07    0.05
   4 -11   0    4.90    0.22
  -4  11   0    4.63    0.23
   3 -11   0    0.98    0.10
  -3  11   0    0.92    0.11
   2 -11   0    7.39    0.28
  -2  11   0    7.21    0.33
   1 -11   0    0.34    0.07
   1 -11   0    0.22    0.08
  -1  11   0    0.50    0.10
   0 -11   0    0.78    0.09
   0 -11   0    0.84    0.12
   0  11   0    0.78    0.12
  -1 -11   0    0.54    0.11
  -1 -11   0    0.44    0.08
   1  11   0    0.57    0.12
  -2 -11   0    2.99    0.22
  -2 -11   0    3.33    0.17
   2  11   0    3.10    0.23
  -3 -11   0    2.44    0.20
   3  11   0    2.22    0.21
  -4 -11   0    0.43    0.12
   4  11   0    0.17    0.10
   8 -12   0    3.93    0.21
   7 -12   0    0.21    0.07
   6 -12   0    1.48    0.13
  -6  12   0    1.84    0.12
   5 -12   0    3.27    0.19
  -5  12   0    3.50    0.19
   4 -12   0    2.00    0.15
  -4  12   0    2.13    0.15
   3 -12   0    2.60    0.16
  -3  12   0    2.89    0.18
   2 -12   0    0.69    0.09
  -2  12   0    0.80    0.12
   1 -12   0    1.98    0.14
  -1  12   0    2.32    0.18
   0 -12   0    4.80    0.27
   0 -12   0    4.43    0.21
   0  12   0    4.67    0.27
  -1 -12   0    1.49    0.12
  -1 -12   0    1.44    0.17
   1  12   0    1.23    0.16
  -2 -12   0    0.64    0.13
   2  12   0    0.48    0.13
  -3 -12   0    0.07    0.09
   3  12   0    0.02    0.10
   7 -13   0    0.41    0.10
   6 -13   0    2.95    0.19
  -6  13   0    3.03    0.16
   5 -13   0    2.62    0.18
  -5  13   0    2.61    0.16
   4 -13   0    0.76    0.11
  -4  13   0    0.76    0.11
   3 -13   0    0.15    0.07
  -3  13   0    0.16    0.08
   2 -13   0    1.44    0.13
  -2  13   0    1.45    0.15
   1 -13   0    2.72    0.16
  -1  13   0    2.72    0.21
   0 -13   0    0.94    0.11
   0  13   0    1.05    0.15
  -1 -13   0    0.25    0.07
   1  13   0    0.23    0.11
   4 -14   0    0.89    0.12
  -4  14   0    0.96    0.12
   3 -14   0    4.02    0.21
  -3  14   0    3.93    0.24
   2 -14   0    3.42    0.20
  -2  14   0    3.46    0.23
   1 -14   0    1.16    0.13
  -1  14   0    1.00    0.15
  -1  14  -1    2.00    0.18
   1 -14   1    1.59    0.15
  -2  14  -1    2.87    0.19
   2 -14   1    2.21    0.16
  -3  14  -1    0.85    0.11
   3 -14   1    1.04    0.12
  -4  14  -1    0.13    0.07
   4 -14   1    0.06    0.07
   1  13  -1    0.54    0.12
  -1 -13   1    0.78    0.10
   0  13  -1    0.86    0.13
   0 -13   1    0.78    0.10
  -1  13  -1    0.99    0.13
   1 -13   1    1.18    0.12
  -2  13  -1    0.12    0.07
   2 -13   1    0.11    0.06
  -3  13  -1    0.96    0.11
   3 -13   1    0.99    0.11
  -4  13  -1    3.16    0.17
   4 -13   1    2.82    0.18
  -5  13  -1    3.60    0.16
   5 -13   1    3.15    0.19
   6 -13   1    3.12    0.19
   3  12  -1    0.69    0.14
  -3 -12   1    0.71    0.14
   2  12  -1    2.80    0.21
  -2 -12   1    2.83    0.17
  -2 -12   1    2.72    0.22
   1  12  -1    2.10    0.18
  -1 -12   1    1.82    0.13
   0  12  -1    2.51    0.19
   0 -12   1    2.68    0.16
  -1  12  -1    0.01    0.07
   1 -12   1   -0.04    0.05
  -2  12  -1    7.18    0.32
   2 -12   1    6.72    0.28
  -3  12  -1    6.60    0.29
   3 -12   1    6.81    0.28
  -4  12  -1    3.53    0.18
   4 -12   1    3.31    0.19
  -5  12  -1    0.79    0.08
   5 -12   1    0.91    0.10
   6 -12   1    0.01    0.06
   7 -12   1    1.60    0.14
   8 -12   1    3.28    0.19
   4  11  -1    1.08    0.16
  -4 -11   1    1.07    0.16
   3  11  -1    3.08    0.23
  -3 -11   1    2.89    0.16
  -3 -11   1    2.71    0.22
   2  11  -1    0.97    0.14
  -2 -11   1    1.34    0.16
  -2 -11   1    1.41    0.12
   1  11  -1   -0.08    0.07
  -1 -11   1   -0.07    0.06
  -1 -11   1    0.09    0.06
   0  11  -1    0.10    0.08
   0 -11   1    0.08    0.07
   0 -11   1    0.07    0.05
  -1  11  -1    1.86    0.15
   1 -11   1    1.61    0.12
  -2  11  -1   10.89    0.44
   2 -11   1   12.44    0.41
  -3  11  -1    7.15    0.29
   3 -11   1    6.22    0.27
  -4  11  -1    0.07    0.07
  -4  11  -1    0.06    0.05
   4 -11   1    0.09    0.05
  -5  11  -1    1.00    0.09
   5 -11   1    0.95    0.10
   6 -11   1    3.06    0.16
   7 -11   1    5.15    0.23
   8 -11   1    0.16    0.07
   5  10  -1    1.83    0.20
  -5 -10   1    1.37    0.18
   4  10  -1    2.61    0.21
  -4 -10   1    2.80    0.22
   3  10  -1    0.43    0.11
  -3 -10   1    0.51    0.11
  -3 -10   1    0.52    0.08
   2  10  -1    0.55    0.11
  -2 -10   1    0.53    0.08
  -2 -10   1    0.38    0.10
   1  10  -1    4.33    0.24
  -1 -10   1    3.96    0.23
  -1 -10   1    3.92    0.19
   0  10  -1   10.90    0.43
   0 -10   1   10.52    0.37
   0 -10   1   10.51    0.43
  -1  10  -1   10.33    0.40
  -1  10  -1   10.31    0.47
   1 -10   1    9.75    0.41
   1 -10   1    9.77    0.35
  -2  10  -1    1.14    0.12
  -2  10  -1    1.21    0.15
   2 -10   1    0.97    0.12
   2 -10   1    1.07    0.10
  -3  10  -1   -0.08    0.06
  -3  10  -1    0.02    0.05
   3 -10   1    0.07    0.05
  -4  10  -1    0.04    0.05
  -4  10  -1    0.02    0.07
   4 -10   1    0.04    0.04
  -5  10  -1    3.63    0.16
  -5  10  -1    3.61    0.16
  -5  10  -1    4.04    0.25
   5 -10   1    3.72    0.17
  -6  10  -1    9.41    0.45
   6 -10   1    9.74    0.34
  -7  10  -1    0.45    0.12
   7 -10   1    0.42    0.07
   8 -10   1    1.56    0.12
   9 -10   1    3.63    0.19
   6   9  -1    2.76    0.23
  -6  -9   1    2.60    0.22
   5   9  -1    1.92    0.20
  -5  -9   1    1.89    0.19
  -5  -9   1    2.21    0.19
   4   9  -1    1.21    0.16
  -4  -9   1    0.87    0.10
  -4  -9   1    0.91    0.14
  -4  -9   1    1.05    0.14
   3   9  -1    1.01    0.14
  -3  -9   1    0.89    0.09
  -3  -9   1    0.73    0.12
   2   9  -1    4.03    0.23
  -2  -9   1    3.75    0.22
  -2  -9   1    3.57    0.17
   1   9  -1    7.14    0.33
  -1  -9   1    7.85    0.34
  -1  -9   1    7.73    0.28
   0   9  -1    2.32    0.18
   0   9  -1    1.76    0.15
   0  -9   1    1.63    0.14
   0  -9   1    1.63    0.11
  -1   9  -1    1.86    0.14
  -1   9  -1    1.72    0.16
  -1   9  -1    1.93    0.17
   1  -9   1    1.95    0.14
   1  -9   1    1.84    0.11
  -2   9  -1    8.75    0.34
  -2   9  -1    8.45    0.40
   2  -9   1    8.83    0.31
   2  -9   1    8.62    0.36
  -3   9  -1   34.04    1.08
  -3   9  -1   33.39    1.21
  -3   9  -1   34.59    1.08
   3  -9   1   32.92    0.99
   3  -9   1   34.29    1.11
  -4   9  -1    0.44    0.09
  -4   9  -1    0.28    0.05
  -4   9  -1    0.31    0.06
   4  -9   1    0.31    0.06
  -5   9  -1   11.41    0.39
  -5   9  -1   12.04    0.50
  -5   9  -1   12.18    0.40
   5  -9   1   11.52    0.39
  -6   9  -1    0.12    0.07
   6  -9   1    0.17    0.05
  -7   9  -1    5.68    0.32
   7  -9   1    5.68    0.23
  -8   9  -1    5.90    0.33
   8  -9   1    5.95    0.24
   9  -9   1    3.96    0.20
   7   8  -1    0.91    0.16
  -7  -8   1    1.30    0.17
   6   8  -1    1.21    0.17
  -6  -8   1    1.39    0.17
  -6  -8   1    1.29    0.17
   5   8  -1    0.95    0.15
  -5  -8   1    1.20    0.15
  -5  -8   1    0.95    0.14
   4   8  -1    8.27    0.38
  -4  -8   1    7.69    0.36
  -4  -8   1    7.81    0.29
  -4  -8   1    8.20    0.37
   3   8  -1   11.65    0.46
  -3  -8   1   11.17    0.45
  -3  -8   1   10.80    0.38
   2   8  -1    1.16    0.14
   2   8  -1    1.06    0.13
  -2  -8   1    1.03    0.09
  -2  -8   1    1.03    0.12
   1   8  -1    3.51    0.22
   1   8  -1    3.58    0.22
   1   8  -1    3.81    0.20
  -1  -8   1    3.38    0.20
  -1  -8   1    3.49    0.16
   0   8  -1    4.50    0.24
   0   8  -1    3.79    0.23
   0   8  -1    4.14    0.21
   0  -8   1    3.82    0.20
   0  -8   1    3.97    0.17
  -1   8  -1   12.26    0.49
  -1   8  -1   11.40    0.42
  -1   8  -1   12.38    0.48
  -1   8  -1   11.64    0.43
   1  -8   1   10.97    0.43
   1  -8   1   11.37    0.38
  -2   8  -1   20.53    0.71
  -2   8  -1   21.70    0.70
  -2   8  -1   21.29    0.79
   2  -8   1   21.34    0.72
   2  -8   1   22.08    0.64
  -3   8  -1    4.88    0.21
  -3   8  -1    4.93    0.20
  -3   8  -1    5.03    0.26
   3  -8   1    4.96    0.23
   3  -8   1    5.13    0.19
  -4   8  -1    7.38    0.27
  -4   8  -1    7.01    0.34
  -4   8  -1    7.35    0.27
   4  -8   1    7.81    0.30
   4  -8   1    7.35    0.25
  -5   8  -1    4.77    0.18
  -5   8  -1    4.62    0.18
  -5   8  -1    4.56    0.25
   5  -8   1    4.59    0.18
  -6   8  -1    9.01    0.41
   6  -8   1    9.17    0.31
  -7   8  -1   13.61    0.58
   7  -8   1   14.07    0.50
   7  -8   1   14.05    0.45
  -8   8  -1    3.15    0.23
   8  -8   1    3.35    0.17
   8  -8   1    3.34    0.20
   9  -8   1    0.61    0.11
   9  -8   1    0.78    0.09
  10  -8   1    1.74    0.14
   7   7  -1   -0.02    0.10
  -7  -7   1   -0.04    0.08
  -7  -7   1   -0.01    0.09
   6   7  -1    1.36    0.17
  -6  -7   1    1.30    0.16
  -6  -7   1    1.04    0.14
   5   7  -1    6.99    0.35
  -5  -7   1    8.12    0.37
  -5  -7   1    7.16    0.34
  -5  -7   1    7.39    0.27
   4   7  -1   16.22    0.62
  -4  -7   1   15.93    0.61
  -4  -7   1   16.39    0.63
  -4  -7   1   16.71    0.52
   3   7  -1    3.80    0.23
  -3  -7   1    4.61    0.23
  -3  -7   1    3.86    0.17
   2   7  -1    0.09    0.05
   2   7  -1    0.02    0.06
   2   7  -1    0.02    0.06
   2   7  -1    0.06    0.04
  -2  -7   1    0.00    0.05
  -2  -7   1    0.12    0.06
  -2  -7   1   -0.01    0.03
  -2  -7   1   -0.02    0.05
   1   7  -1    7.11    0.28
   1   7  -1    6.52    0.31
   1   7  -1    6.07    0.31
   1   7  -1    6.76    0.27
   1   7  -1    6.35    0.28
  -1  -7   1    6.53    0.24
  -1  -7   1    6.93    0.28
  -1  -7   1    6.29    0.30
   0   7  -1   34.88    1.14
   0   7  -1   33.12    1.12
   0   7  -1   37.52    1.08
   0   7  -1   36.53    1.23
   0   7  -1   35.30    1.22
   0  -7   1   34.42    1.22
   0  -7   1   35.74    1.14
   0  -7   1   35.86    1.02
  -1   7  -1   57.55    1.77
  -1   7  -1   57.48    1.90
  -1   7  -1   54.49    1.76
   1  -7   1   57.65    1.61
   1  -7   1   57.04    1.77
  -2   7  -1    9.80    0.36
  -2   7  -1   10.06    0.35
  -2   7  -1   10.41    0.42
   2  -7   1   10.06    0.37
   2  -7   1   10.16    0.32
  -3   7  -1    5.57    0.27
  -3   7  -1    5.62    0.22
  -3   7  -1    5.75    0.22
   3  -7   1    5.68    0.23
   3  -7   1    5.89    0.20
  -4   7  -1   10.62    0.36
  -4   7  -1   10.45    0.43
  -4   7  -1   10.41    0.36
   4  -7   1   10.64    0.33
   4  -7   1   11.03    0.39
  -5   7  -1    6.49    0.23
  -5   7  -1    6.52    0.24
  -5   7  -1    6.59    0.31
   5  -7   1    7.07    0.28
   5  -7   1    6.81    0.23
  -6   7  -1    4.66    0.26
   6  -7   1    4.71    0.22
   6  -7   1    4.59    0.18
  -7   7  -1    1.41    0.15
   7  -7   1    1.13    0.09
   7  -7   1    1.12    0.12
  -8   7  -1    1.90    0.17
   8  -7   1    1.64    0.11
   8  -7   1    1.34    0.14
  -9   7  -1    1.73    0.19
   9  -7   1    1.90    0.13
   9  -7   1    1.78    0.16
  10  -7   1    2.08    0.14
  -8  -6   1   -0.01    0.08
   7   6  -1    0.51    0.13
  -7  -6   1    0.63    0.13
   6   6  -1    4.93    0.28
  -6  -6   1    4.97    0.27
  -6  -6   1    5.41    0.29
   5   6  -1   10.63    0.46
  -5  -6   1   11.28    0.36
  -5  -6   1   11.13    0.44
  -5  -6   1   10.78    0.46
   4   6  -1    7.81    0.35
  -4  -6   1    7.94    0.35
  -4  -6   1    8.09    0.28
  -4  -6   1    8.85    0.35
   3   6  -1   12.70    0.47
   3   6  -1   13.27    0.54
   3   6  -1   14.52    0.55
   3   6  -1   12.45    0.50
  -3  -6   1   13.84    0.49
  -3  -6   1   13.11    0.42
  -3  -6   1   13.40    0.53
  -3  -6   1   13.32    0.54
   2   6  -1    3.05    0.17
   2   6  -1    2.96    0.19
  -2  -6   1    3.07    0.14
  -2  -6   1    3.37    0.19
  -2  -6   1    3.03    0.17
  -2  -6   1    3.10    0.17
   1   6  -1    2.01    0.13
   1   6  -1    2.41    0.14
   1   6  -1    1.88    0.15
   1   6  -1    2.33    0.14
   1   6  -1    2.25    0.15
  -1  -6   1    2.33    0.11
  -1  -6   1    2.45    0.14
  -1  -6   1    2.39    0.14
  -1  -6   1    2.35    0.15
   0   6  -1   18.04    0.70
   0   6  -1   20.25    0.70
   0   6  -1   17.86    0.64
   0   6  -1   19.77    0.61
   0  -6   1   19.83    0.65
   0  -6   1   20.02    0.57
   0  -6   1   19.53    0.69
  -1   6  -1   25.60    0.91
  -1   6  -1   25.91    0.80
  -1   6  -1   26.35    0.84
  -1   6  -1   26.92    0.84
   1  -6   1   25.53    0.84
   1  -6   1   26.35    0.76
   1  -6   1   26.81    0.91
  -2   6  -1   16.87    0.56
  -2   6  -1   17.39    0.62
  -2   6  -1   17.05    0.55
   2  -6   1   16.59    0.56
   2  -6   1   16.71    0.49
  -3   6  -1   20.91    0.65
  -3   6  -1   20.50    0.73
  -3   6  -1   21.12    0.66
   3  -6   1   20.22    0.67
   3  -6   1   20.34    0.60
  -4   6  -1    9.57    0.32
  -4   6  -1   10.01    0.32
  -4   6  -1    9.28    0.38
   4  -6   1    9.10    0.34
   4  -6   1    9.58    0.29
   4  -6   1    9.20    0.33
  -5   6  -1   16.43    0.53
  -5   6  -1   16.96    0.53
  -5   6  -1   16.37    0.62
   5  -6   1   16.76    0.57
   5  -6   1   16.84    0.54
   5  -6   1   16.57    0.50
  -6   6  -1    3.50    0.21
   6  -6   1    3.43    0.17
  -7   6  -1   12.75    0.53
   7  -6   1   12.61    0.45
  -8   6  -1   10.66    0.48
   8  -6   1   10.74    0.44
   8  -6   1   10.67    0.41
  -9   6  -1    3.88    0.26
   9  -6   1    3.70    0.22
  10  -6   1    1.90    0.14
  -9  -5   1    1.85    0.18
  -8  -5   1    1.42    0.16
   7   5  -1    4.38    0.27
  -7  -5   1    4.12    0.24
  -7  -5   1    4.84    0.29
   6   5  -1    2.35    0.19
  -6  -5   1    2.08    0.18
  -6  -5   1    2.12    0.16
   5   5  -1    0.20    0.08
  -5  -5   1    0.30    0.05
  -5  -5   1    0.29    0.08
  -5  -5   1    0.14    0.07
   4   5  -1    6.77    0.30
   4   5  -1    6.32    0.32
   4   5  -1    6.86    0.32
   4   5  -1    6.88    0.29
  -4  -5   1    6.39    0.29
  -4  -5   1    6.70    0.32
  -4  -5   1    6.73    0.28
  -4  -5   1    6.64    0.32
  -4  -5   1    6.32    0.23
   3   5  -1   35.93    1.21
   3   5  -1   35.72    1.21
   3   5  -1   35.33    1.07
   3   5  -1   33.58    1.13
  -3  -5   1   33.75    1.20
  -3  -5   1   34.04    1.21
  -3  -5   1   35.10    1.00
  -3  -5   1   35.69    1.13
   2   5  -1   23.21    0.85
   2   5  -1   22.12    0.79
  -2  -5   1   25.30    0.84
  -2  -5   1   23.62    0.70
  -2  -5   1   24.26    0.75
  -2  -5   1   24.46    0.79
  -2  -5   1   24.08    0.84
   1   5  -1    6.66    0.24
   1   5  -1    5.02    0.22
   1   5  -1    5.16    0.26
   1   5  -1    6.43    0.28
   1   5  -1    6.18    0.24
  -1  -5   1    6.24    0.21
  -1  -5   1    6.29    0.27
  -1  -5   1    6.16    0.24
  -1  -5   1    6.45    0.24
   0   5  -1    0.04    0.04
   0   5  -1    0.16    0.05
   0   5  -1    0.00    0.02
   0   5  -1   -0.02    0.03
   0   5  -1    0.00    0.04
   0  -5   1    0.00    0.04
   0  -5   1   -0.02    0.03
   0  -5   1   -0.03    0.02
  -1   5  -1   42.65    1.25
  -1   5  -1   41.58    1.32
  -1   5  -1   43.90    1.32
  -1   5  -1   40.68    1.41
   1  -5   1   43.46    1.20
   1  -5   1   42.60    1.41
   1  -5   1   44.00    1.32
  -2   5  -1  123.11    3.61
  -2   5  -1  118.46    3.60
  -2   5  -1  118.97    3.84
  -2   5  -1  118.83    3.48
   2  -5   1  120.48    3.62
   2  -5   1  118.27    3.29
  -3   5  -1   24.25    0.77
  -3   5  -1   24.83    0.78
  -3   5  -1   24.87    0.85
   3  -5   1   25.11    0.75
   3  -5   1   25.82    0.70
   3  -5   1   24.31    0.79
  -4   5  -1    2.11    0.14
  -4   5  -1    2.25    0.10
  -4   5  -1    2.34    0.10
   4  -5   1    2.38    0.12
   4  -5   1    2.24    0.11
  -5   5  -1    0.03    0.05
  -5   5  -1    0.01    0.03
  -5   5  -1    0.07    0.03
   5  -5   1   -0.03    0.04
   5  -5   1    0.04    0.05
   5  -5   1    0.05    0.04
  -6   5  -1   10.96    0.35
  -6   5  -1   11.11    0.45
   6  -5   1   11.46    0.39
   6  -5   1   10.81    0.42
  -7   5  -1   27.68    0.97
   7  -5   1   26.49    0.84
   7  -5   1   25.99    0.89
  -8   5  -1    7.56    0.38
   8  -5   1    7.72    0.35
   8  -5   1    8.01    0.33
  -9   5  -1    0.09    0.08
   9  -5   1   -0.03    0.08
   9  -5   1    0.01    0.07
  10  -5   1    0.50    0.13
  -9  -4   1    3.14    0.21
  -8  -4   1    0.46    0.10
   7   4  -1    0.10    0.07
  -7  -4   1    0.25    0.08
   6   4  -1    0.91    0.12
  -6  -4   1    0.85    0.12
  -6  -4   1    0.64    0.10
   5   4  -1   17.24    0.65
   5   4  -1   16.74    0.57
   5   4  -1   18.05    0.61
  -5  -4   1   15.96    0.64
  -5  -4   1   15.86    0.59
  -5  -4   1   15.92    0.62
  -5  -4   1   16.33    0.50
   4   4  -1   30.45    0.94
   4   4  -1   30.35    1.06
   4   4  -1   31.64    1.06
   4   4  -1   29.49    0.99
  -4  -4   1   30.53    1.05
  -4  -4   1   29.06    0.98
  -4  -4   1   29.93    0.87
  -4  -4   1   29.63    1.03
   3   4  -1    5.95    0.27
   3   4  -1    5.48    0.27
   3   4  -1    6.12    0.25
   3   4  -1    6.06    0.24
  -3  -4   1    6.28    0.28
  -3  -4   1    5.75    0.24
  -3  -4   1    5.71    0.20
  -3  -4   1    5.98    0.25
  -3  -4   1    5.78    0.27
  -3  -4   1    6.05    0.24
   2   4  -1    1.84    0.12
   2   4  -1    1.72    0.12
   2   4  -1    1.82    0.10
   2   4  -1    1.42    0.12
  -2  -4   1    1.66    0.09
  -2  -4   1    1.81    0.12
  -2  -4   1    1.84    0.12
  -2  -4   1    1.79    0.11
  -2  -4   1    1.68    0.11
   1   4  -1    0.18    0.05
   1   4  -1    0.08    0.03
   1   4  -1    0.30    0.05
   1   4  -1    0.14    0.04
   1   4  -1    0.16    0.04
  -1  -4   1    0.19    0.04
  -1  -4   1    0.16    0.04
  -1  -4   1    0.22    0.03
  -1  -4   1    0.17    0.05
  -1  -4   1    0.23    0.04
   0   4  -1   31.60    0.97
   0   4  -1   33.34    1.11
   0   4  -1   32.60    1.04
   0   4  -1   33.11    1.11
   0  -4   1   34.35    0.94
   0  -4   1   33.89    1.10
   0  -4   1   32.92    0.98
   0  -4   1   33.80    1.04
  -1   4  -1   57.64    1.66
  -1   4  -1   55.95    1.88
  -1   4  -1   57.60    1.76
  -1   4  -1   58.99    1.70
  -1   4  -1   58.08    1.76
   1  -4   1   58.21    1.60
   1  -4   1   57.80    1.88
   1  -4   1   58.61    1.76
  -2   4  -1    1.13    0.08
  -2   4  -1    1.08    0.07
  -2   4  -1    0.98    0.06
  -2   4  -1    1.00    0.08
   2  -4   1    1.10    0.07
   2  -4   1    1.07    0.04
   2  -4   1    1.08    0.08
  -3   4  -1    0.20    0.03
  -3   4  -1    0.04    0.04
  -3   4  -1    0.06    0.04
  -3   4  -1    0.08    0.02
   3  -4   1    0.05    0.04
   3  -4   1    0.06    0.03
   3  -4   1    0.09    0.03
  -4   4  -1    0.53    0.04
  -4   4  -1    0.55    0.07
  -4   4  -1    0.68    0.05
   4  -4   1    0.66    0.08
   4  -4   1    0.62    0.06
   4  -4   1    0.67    0.06
  -5   4  -1   20.53    0.73
  -5   4  -1   20.70    0.63
  -5   4  -1   20.56    0.63
   5  -4   1   19.86    0.67
   5  -4   1   20.27    0.67
   5  -4   1   20.05    0.63
  -6   4  -1   20.09    0.73
  -6   4  -1   20.78    0.62
  -6   4  -1   18.85    0.62
   6  -4   1   20.45    0.64
   6  -4   1   20.49    0.67
   6  -4   1   19.26    0.67
  -7   4  -1    0.06    0.06
   7  -4   1   -0.02    0.05
   7  -4   1   -0.02    0.06
  -8   4  -1    1.80    0.16
   8  -4   1    1.72    0.14
   8  -4   1    1.51    0.16
  -9   4  -1    1.80    0.19
   9  -4   1    1.26    0.15
   9  -4   1    1.63    0.15
  10  -4   1    4.34    0.27
  -9  -3   1    0.09    0.08
   8   3  -1    1.25    0.13
  -8  -3   1    1.13    0.13
   7   3  -1    1.48    0.15
  -7  -3   1    1.48    0.14
   6   3  -1   15.57    0.55
   6   3  -1   16.59    0.59
  -6  -3   1   15.84    0.62
  -6  -3   1   15.50    0.57
  -6  -3   1   15.60    0.61
   5   3  -1   34.20    1.09
   5   3  -1   35.98    1.23
   5   3  -1   36.09    1.24
   5   3  -1   35.31    1.16
  -5  -3   1   35.35    1.01
  -5  -3   1   36.35    1.23
  -5  -3   1   35.26    1.15
  -5  -3   1   34.66    1.21
  -5  -3   1   36.76    1.15
   4   3  -1   14.06    0.47
   4   3  -1   13.67    0.49
   4   3  -1   14.31    0.53
   4   3  -1   14.39    0.54
  -4  -3   1   13.73    0.49
  -4  -3   1   13.60    0.52
  -4  -3   1   13.67    0.42
  -4  -3   1   14.05    0.51
   3   3  -1    0.03    0.04
   3   3  -1    0.01    0.03
   3   3  -1    0.08    0.04
   3   3  -1    0.03    0.04
  -3  -3   1   -0.01    0.03
  -3  -3   1    0.02    0.02
  -3  -3   1   -0.02    0.03
  -3  -3   1    0.05    0.04
  -3  -3   1   -0.01    0.03
  -3  -3   1   -0.05    0.03
   2   3  -1   18.91    0.59
   2   3  -1   19.73    0.63
   2   3  -1   18.94    0.67
   2   3  -1   16.73    0.66
  -2  -3   1   19.51    0.55
  -2  -3   1   19.14    0.66
  -2  -3   1   19.08    0.59
  -2  -3   1   19.79    0.66
  -2  -3   1   19.74    0.62
   1   3  -1    3.79    0.15
   1   3  -1    3.79    0.16
   1   3  -1    3.71    0.17
  -1  -3   1    3.71    0.17
  -1  -3   1    3.81    0.15
  -1  -3   1    3.68    0.15
  -1  -3   1    3.72    0.13
  -1  -3   1    3.70    0.16
   0   3  -1   65.83    2.10
   0   3  -1   66.26    1.86
   0   3  -1   64.78    2.10
   0   3  -1   63.15    1.98
   0  -3   1   62.64    2.09
   0  -3   1   67.34    1.80
   0  -3   1   65.33    1.86
   0  -3   1   65.52    1.98
  -1   3  -1    7.79    0.29
  -1   3  -1    7.62    0.25
  -1   3  -1    7.95    0.26
  -1   3  -1    7.75    0.26
  -1   3  -1    7.75    0.25
   1  -3   1    7.84    0.28
   1  -3   1    8.03    0.22
   1  -3   1    7.68    0.26
  -2   3  -1   52.68    1.71
  -2   3  -1   53.17    1.60
  -2   3  -1   53.96    1.57
  -2   3  -1   52.03    1.60
   2  -3   1   54.35    1.56
   2  -3   1   52.99    1.61
   2  -3   1   53.60    1.71
   2  -3   1   51.87    1.51
  -3   3  -1   81.16    2.34
  -3   3  -1   79.40    2.40
  -3   3  -1   79.79    2.40
  -3   3  -1   79.29    2.57
   3  -3   1   79.34    2.41
   3  -3   1   79.78    2.34
   3  -3   1   79.73    2.27
  -4   3  -1   39.25    1.20
  -4   3  -1   38.48    1.31
  -4   3  -1   40.09    1.20
   4  -3   1   39.86    1.22
   4  -3   1   40.63    1.10
   4  -3   1   39.50    1.16
   4  -3   1   38.14    1.20
  -5   3  -1   26.22    0.83
  -5   3  -1   27.64    0.93
  -5   3  -1   26.77    0.83
   5  -3   1   26.45    0.86
   5  -3   1   27.38    0.86
   5  -3   1   27.23    0.82
  -6   3  -1    7.31    0.25
  -6   3  -1    7.15    0.25
  -6   3  -1    7.24    0.32
   6  -3   1    7.51    0.31
   6  -3   1    7.63    0.30
   6  -3   1    7.29    0.28
  -7   3  -1    6.47    0.23
  -7   3  -1    6.77    0.32
  -7   3  -1    6.13    0.23
   7  -3   1    6.89    0.28
   7  -3   1    6.59    0.30
  -8   3  -1    6.74    0.33
   8  -3   1    6.09    0.30
   8  -3   1    6.33    0.28
  -9   3  -1    1.80    0.19
   9  -3   1    1.98    0.16
   9  -3   1    1.95    0.19
  10  -3   1    1.35    0.17
 -10  -2   1    0.26    0.09
  -9  -2   1    3.34    0.20
   8   2  -1    9.80    0.39
  -8  -2   1   10.26    0.41
   7   2  -1    8.68    0.33
   7   2  -1    7.68    0.35
   7   2  -1    8.34    0.34
  -7  -2   1    8.04    0.34
  -7  -2   1    7.93    0.39
   6   2  -1   13.26    0.50
   6   2  -1   13.19    0.48
  -6  -2   1   13.76    0.49
  -6  -2   1   13.83    0.54
   5   2  -1    0.07    0.05
   5   2  -1    0.05    0.05
   5   2  -1    0.03    0.04
   5   2  -1    0.05    0.05
  -5  -2   1    0.05    0.05
  -5  -2   1    0.04    0.05
  -5  -2   1    0.05    0.05
  -5  -2   1   -0.01    0.05
  -5  -2   1    0.03    0.02
   4   2  -1   41.10    1.27
   4   2  -1   40.52    1.35
   4   2  -1   39.27    1.19
   4   2  -1   38.29    1.34
  -4  -2   1   41.70    1.26
  -4  -2   1   39.48    1.13
  -4  -2   1   41.10    1.26
  -4  -2   1   39.26    1.33
  -4  -2   1   39.63    1.34
   3   2  -1   31.09    0.94
   3   2  -1   29.63    1.00
   3   2  -1   31.18    1.01
   3   2  -1   29.62    0.89
  -3  -2   1   30.15    0.94
  -3  -2   1   29.79    0.84
  -3  -2   1   30.19    0.89
  -3  -2   1   28.65    0.94
  -3  -2   1   27.66    0.98
  -3  -2   1   29.11    1.00
   2   2  -1   16.07    0.51
   2   2  -1   17.12    0.58
   2   2  -1   19.04    0.55
   2   2  -1   16.58    0.54
   2   2  -1   16.27    0.58
  -2  -2   1   17.20    0.54
  -2  -2   1   16.94    0.58
  -2  -2   1   16.19    0.56
  -2  -2   1   14.81    0.57
  -2  -2   1   16.55    0.48
  -2  -2   1   17.11    0.54
  -2  -2   1   16.63    0.51
   1   2  -1   60.27    1.78
   1   2  -1   58.30    1.77
   1   2  -1   57.38    1.88
  -1  -2   1   58.48    1.78
  -1  -2   1   56.58    1.62
  -1  -2   1   57.93    1.67
  -1  -2   1   59.40    1.88
  -1  -2   1   59.82    1.78
   0   2  -1    9.91    0.31
   0   2  -1   10.00    0.33
   0   2  -1   10.46    0.36
   0  -2   1   10.64    0.33
   0  -2   1   10.21    0.33
   0  -2   1   10.35    0.31
   0  -2   1   10.25    0.29
   0  -2   1   10.88    0.36
  -1   2  -1   52.24    1.65
  -1   2  -1   52.16    1.51
  -1   2  -1   49.59    1.55
  -1   2  -1   53.36    1.46
  -1   2  -1   51.26    1.55
  -1   2  -1   50.87    1.46
   1  -2   1   51.27    1.65
   1  -2   1   52.36    1.46
   1  -2   1   51.85    1.55
   1  -2   1   51.56    1.50
  -2   2  -1   82.49    2.65
  -2   2  -1   83.04    2.49
  -2   2  -1   83.28    2.42
  -2   2  -1   82.29    2.49
   2  -2   1   82.68    2.35
   2  -2   1   82.60    2.50
   2  -2   1   85.43    2.65
  -3   2  -1   19.14    0.58
  -3   2  -1   18.87    0.64
  -3   2  -1   18.75    0.58
   3  -2   1   19.14    0.56
   3  -2   1   18.92    0.59
   3  -2   1   18.23    0.59
   3  -2   1   18.73    0.63
  -4   2  -1   14.72    0.47
  -4   2  -1   14.88    0.47
  -4   2  -1   15.12    0.53
   4  -2   1   14.78    0.46
   4  -2   1   14.95    0.49
   4  -2   1   14.46    0.49
  -5   2  -1    1.38    0.11
  -5   2  -1    1.20    0.08
  -5   2  -1    1.12    0.07
   5  -2   1    1.17    0.09
   5  -2   1    1.07    0.10
   5  -2   1    1.22    0.09
  -6   2  -1   22.79    0.74
  -6   2  -1   22.94    0.74
  -6   2  -1   23.92    0.84
   6  -2   1   23.38    0.77
   6  -2   1   23.43    0.74
   6  -2   1   24.46    0.78
  -7   2  -1   28.54    0.89
  -7   2  -1   27.96    0.90
  -7   2  -1   28.84    1.02
   7  -2   1   28.84    0.93
   7  -2   1   28.59    0.90
  -8   2  -1    4.78    0.28
  -8   2  -1    4.83    0.19
  -8   2  -1    4.91    0.19
   8  -2   1    4.93    0.26
   8  -2   1    5.20    0.25
   9  -2   1    0.62    0.11
   9  -2   1    0.53    0.11
  10  -2   1    0.28    0.10
 -10  -1   1    2.47    0.17
   9   1  -1    4.60    0.24
  -9  -1   1    4.24    0.23
   8   1  -1    3.68    0.21
  -8  -1   1    3.58    0.20
   7   1  -1    4.77    0.23
   7   1  -1    4.83    0.25
   7   1  -1    4.98    0.24
  -7  -1   1    4.97    0.23
  -7  -1   1    4.80    0.27
   6   1  -1    0.28    0.07
   6   1  -1    0.35    0.07
   6   1  -1    0.46    0.09
   6   1  -1    0.34    0.07
  -6  -1   1    0.25    0.07
  -6  -1   1    0.28    0.07
   5   1  -1   17.69    0.60
   5   1  -1   17.67    0.64
   5   1  -1   17.38    0.57
   5   1  -1   16.91    0.64
  -5  -1   1   17.48    0.50
  -5  -1   1   17.55    0.59
  -5  -1   1   17.73    0.65
  -5  -1   1   16.98    0.59
   4   1  -1   32.10    0.95
   4   1  -1   31.85    1.00
   4   1  -1   31.62    1.07
   4   1  -1   32.02    1.07
  -4  -1   1   32.18    1.00
  -4  -1   1   31.11    0.89
  -4  -1   1   30.86    1.07
  -4  -1   1   30.94    1.00
   3   1  -1   17.66    0.54
   3   1  -1   17.97    0.61
   3   1  -1   17.39    0.57
   3   1  -1   17.30    0.61
  -3  -1   1   17.76    0.61
  -3  -1   1   17.00    0.60
  -3  -1   1   17.95    0.54
  -3  -1   1   17.77    0.51
  -3  -1   1   17.77    0.57
  -3  -1   1   17.34    0.57
   2   1  -1    0.17    0.04
   2   1  -1    0.09    0.03
   2   1  -1    0.13    0.04
   2   1  -1    0.09    0.04
   2   1  -1    0.12    0.03
  -2  -1   1    0.11    0.02
  -2  -1   1    0.09    0.03
  -2  -1   1    0.16    0.04
  -2  -1   1    0.10    0.04
  -2  -1   1    0.08    0.03
  -2  -1   1    0.12    0.03
   1   1  -1  180.67    5.14
  -1  -1   1  155.57    5.09
  -1  -1   1  172.24    5.09
  -1  -1   1  156.91    5.38
  -1  -1   1  180.10    5.38
  -1  -1   1  172.19    5.39
  -1  -1   1  172.49    4.70
   0   1  -1   -0.01    0.01
   0   1  -1   -0.01    0.00
   0   1  -1   -0.01    0.00
   0  -1   1   -0.01    0.00
   0  -1   1   -0.01    0.00
   1  -1   1   66.95    1.90
   1  -1   1   67.80    2.14
  -2   1  -1   24.24    0.74
  -2   1  -1   24.40    0.80
  -2   1  -1   23.55    0.74
   2  -1   1   24.24    0.70
   2  -1   1   24.96    0.79
   2  -1   1   24.33    0.74
  -3   1  -1    0.00    0.02
  -3   1  -1    0.01    0.03
  -3   1  -1   -0.01    0.02
   3  -1   1    0.03    0.03
   3  -1   1   -0.01    0.01
   3  -1   1    0.00    0.02
   3  -1   1    0.01    0.03
   3  -1   1    0.02    0.02
  -4   1  -1    0.37    0.04
  -4   1  -1    0.39    0.04
  -4   1  -1    0.37    0.06
   4  -1   1    0.42    0.06
   4  -1   1    0.35    0.05
   4  -1   1    0.46    0.05
   4  -1   1    0.37    0.06
  -5   1  -1   25.22    0.88
  -5   1  -1   25.41    0.80
  -5   1  -1   25.64    0.80
   5  -1   1   24.82    0.80
   5  -1   1   25.06    0.77
   5  -1   1   25.21    0.82
  -6   1  -1   19.90    0.65
  -6   1  -1   19.90    0.74
  -6   1  -1   20.71    0.66
   6  -1   1   20.25    0.65
   6  -1   1   19.84    0.68
   6  -1   1   19.92    0.67
  -7   1  -1    1.21    0.10
  -7   1  -1    1.01    0.09
  -7   1  -1    1.19    0.14
   7  -1   1    1.11    0.12
   7  -1   1    1.12    0.12
  -8   1  -1    0.83    0.13
  -8   1  -1    0.84    0.08
  -8   1  -1    0.79    0.08
   8  -1   1    0.71    0.11
   8  -1   1    0.72    0.11
  -9   1  -1   -0.03    0.03
   9  -1   1    0.06    0.08
  10  -1   1    4.36    0.27
 -10   0   1    7.87    0.33
   9   0  -1    0.39    0.09
  -9   0   1    0.32    0.07
   8   0  -1    1.96    0.15
   8   0  -1    1.62    0.15
  -8   0   1    1.71    0.13
   7   0  -1    2.70    0.17
   7   0  -1    2.48    0.16
   7   0  -1    2.46    0.16
  -7   0   1    2.67    0.20
  -7   0   1    2.97    0.16
   6   0  -1   19.10    0.62
   6   0  -1   19.56    0.66
   6   0  -1   20.01    0.71
   6   0  -1   19.54    0.63
  -6   0   1   19.10    0.65
  -6   0   1   16.71    0.64
  -6   0   1   19.83    0.71
   5   0  -1   70.89    2.17
   5   0  -1   71.55    2.05
   5   0  -1   68.52    2.07
   5   0  -1   69.87    2.30
   5   0  -1   70.87    2.31
  -5   0   1   70.77    1.94
  -5   0   1   70.60    2.31
  -5   0   1   69.48    2.16
   4   0  -1    0.07    0.04
   4   0  -1    0.09    0.04
   4   0  -1    0.05    0.04
   4   0  -1    0.07    0.04
   4   0  -1    0.05    0.04
  -4   0   1    0.05    0.04
  -4   0   1    0.02    0.04
  -4   0   1    0.05    0.03
  -4   0   1    0.07    0.02
   3   0  -1   19.53    0.61
   3   0  -1   19.66    0.60
   3   0  -1   19.84    0.68
   3   0  -1   19.86    0.64
  -3   0   1   20.41    0.60
  -3   0   1   20.45    0.57
  -3   0   1   19.93    0.68
  -3   0   1   20.00    0.64
  -3   0   1   19.65    0.64
   2   0  -1    0.08    0.03
   2   0  -1    0.05    0.03
   2   0  -1    0.02    0.03
   2   0  -1    0.04    0.03
   2   0  -1    0.05    0.03
  -2   0   1    0.06    0.02
  -2   0   1    0.02    0.03
  -2   0   1    0.04    0.03
  -2   0   1    0.04    0.03
  -2   0   1    0.05    0.03
   1   0  -1   -0.02    0.00
  -1   0   1   -0.03    0.01
  -1   0   1   -0.02    0.00
  -1   0   1   -0.02    0.01
   0   0  -1   -0.04    0.00
   0   0   1   -0.04    0.00
  -1   0  -1   67.25    2.41
  -1   0  -1   79.48    2.28
  -1   0  -1   75.94    2.42
  -1   0  -1   77.10    2.29
   1   0   1   82.19    2.42
   1   0   1   70.70    2.41
   1   0   1   79.63    2.15
  -2   0  -1   56.63    1.79
  -2   0  -1   59.57    1.90
  -2   0  -1   57.11    1.91
  -2   0  -1   61.43    1.91
  -2   0  -1   61.76    1.69
  -2   0  -1   59.16    1.79
   2   0   1   57.94    1.69
   2   0   1   58.16    1.90
   2   0   1   60.47    1.63
   2   0   1   62.31    1.63
   2   0   1   57.13    1.90
   2   0   1   59.90    1.80
  -3   0  -1   12.51    0.41
  -3   0  -1   12.56    0.46
  -3   0  -1   12.72    0.41
  -3   0  -1   12.66    0.45
   3   0   1   13.27    0.45
   3   0   1   12.32    0.40
   3   0   1   12.51    0.42
   3   0   1   12.78    0.45
  -4   0  -1    1.54    0.12
  -4   0  -1    1.66    0.09
  -4   0  -1    1.86    0.12
  -4   0  -1    1.46    0.09
   4   0   1    1.47    0.09
   4   0   1    1.62    0.11
   4   0   1    1.65    0.10
  -5   0  -1   48.70    1.47
  -5   0  -1   47.49    1.59
  -5   0  -1   46.93    1.47
   5   0   1   47.00    1.49
   5   0   1   47.12    1.40
  -6   0  -1    2.57    0.14
  -6   0  -1    2.44    0.17
  -6   0  -1    2.48    0.13
   6   0   1    2.65    0.16
   6   0   1    2.41    0.15
  -7   0  -1    5.09    0.22
  -7   0  -1    4.91    0.23
  -7   0  -1    5.30    0.28
   7   0   1    5.42    0.25
   7   0   1    5.24    0.26
  -8   0  -1    8.43    0.31
  -8   0  -1    7.84    0.39
   8   0   1    8.55    0.36
   8   0   1    8.11    0.35
  -9   0  -1    0.66    0.07
   9   0   1    0.81    0.13
  10   0   1    2.36    0.22
  10  -1  -1    0.67    0.12
 -10   1   1    0.43    0.09
   9  -1  -1    0.27    0.09
  -9   1   1    0.35    0.08
   8  -1  -1    7.77    0.32
   8  -1  -1    7.44    0.32
  -8   1   1    6.86    0.36
  -8   1   1    7.15    0.30
   7  -1  -1   24.33    0.77
   7  -1  -1   23.71    0.81
   7  -1  -1   24.47    0.78
  -7   1   1   23.94    0.79
  -7   1   1   23.06    0.88
   6  -1  -1   37.23    1.23
   6  -1  -1   39.02    1.17
   6  -1  -1   37.05    1.19
   6  -1  -1   39.51    1.32
  -6   1   1   41.11    1.23
  -6   1   1   38.15    1.22
  -6   1   1   38.63    1.33
   5  -1  -1   12.57    0.48
   5  -1  -1   12.55    0.42
   5  -1  -1   12.56    0.42
   5  -1  -1   12.63    0.44
  -5   1   1   12.40    0.48
  -5   1   1   12.72    0.44
   4  -1  -1    0.42    0.05
   4  -1  -1    0.37    0.06
   4  -1  -1    0.38    0.06
   4  -1  -1    0.43    0.06
  -4   1   1    0.39    0.05
  -4   1   1    0.38    0.06
  -4   1   1    0.39    0.03
   3  -1  -1   42.24    1.29
   3  -1  -1   42.11    1.24
   3  -1  -1   41.85    1.22
   3  -1  -1   41.59    1.37
  -3   1   1   42.09    1.24
  -3   1   1   40.55    1.37
  -3   1   1   42.57    1.17
  -3   1   1   42.69    1.22
  -3   1   1   42.34    1.29
   2  -1  -1   67.43    1.94
   2  -1  -1   68.15    2.07
   2  -1  -1   69.44    2.19
   2  -1  -1   65.87    2.07
   2  -1  -1   69.74    1.98
  -2   1   1   67.22    2.07
  -2   1   1   67.84    1.88
  -2   1   1   68.25    2.19
  -2   1   1   67.83    2.07
  -2   1   1   69.44    1.94
  -2   1   1   70.52    1.98
  -1   1   1   14.55    0.40
  -1   1   1   10.71    0.39
   0  -1  -1   -1.48    0.00
   0   1   1   -1.47    0.00
   0   1   1   -1.46    0.01
  -1  -1  -1  165.97    4.58
  -1  -1  -1  167.79    5.02
  -1  -1  -1  165.65    5.30
  -1  -1  -1  159.36    4.71
  -1  -1  -1  167.62    5.29
   1   1   1  171.53    5.30
   1   1   1  155.29    4.71
   1   1   1  167.57    5.01
   1   1   1  164.53    5.01
   1   1   1  174.88    4.60
   1   1   1  173.04    4.59
   1   1   1  171.17    5.29
  -2  -1  -1   33.16    1.13
  -2  -1  -1   34.87    1.13
  -2  -1  -1   32.96    1.12
  -2  -1  -1   34.37    1.06
  -2  -1  -1   35.97    1.06
  -2  -1  -1   35.31    1.00
   2   1   1   34.30    1.13
   2   1   1   34.17    1.00
   2   1   1   33.94    1.06
   2   1   1   34.50    1.12
  -3  -1  -1    4.67    0.21
  -3  -1  -1    4.55    0.21
  -3  -1  -1    4.75    0.22
  -3  -1  -1    5.14    0.19
  -3  -1  -1    4.79    0.18
   3   1   1    4.89    0.18
   3   1   1    4.77    0.21
   3   1   1    4.96    0.20
   3   1   1    4.69    0.21
  -4  -1  -1    3.44    0.15
  -4  -1  -1    3.34    0.15
  -4  -1  -1    3.31    0.18
  -4  -1  -1    3.17    0.17
   4   1   1    3.41    0.17
   4   1   1    3.24    0.16
   4   1   1    2.98    0.15
  -5  -1  -1    0.09    0.05
  -5  -1  -1    0.12    0.05
  -5  -1  -1    0.34    0.06
  -5  -1  -1    0.25    0.07
   5   1   1    0.05    0.04
   5   1   1    0.22    0.06
  -6  -1  -1    7.24    0.29
  -6  -1  -1    7.02    0.33
  -6  -1  -1    7.45    0.29
  -6  -1  -1    7.60    0.35
   6   1   1    6.92    0.29
   6   1   1    7.38    0.31
  -7  -1  -1   16.85    0.64
  -7  -1  -1   15.85    0.55
   7   1   1   15.22    0.56
  -8  -1  -1    4.23    0.20
   8   1   1    4.17    0.24
   8   1   1    4.26    0.24
  -9  -1  -1    0.12    0.06
   9   1   1    0.18    0.09
 -10  -1  -1    0.03    0.04
 -11   2   1    0.01    0.06
  10  -2  -1    6.13    0.30
 -10   2   1    5.53    0.25
   9  -2  -1    2.29    0.17
  -9   2   1    2.36    0.15
   8  -2  -1    4.50    0.23
   8  -2  -1    4.72    0.23
  -8   2   1    4.52    0.21
  -8   2   1    4.66    0.27
   7  -2  -1    2.70    0.17
   7  -2  -1    3.05    0.17
   7  -2  -1    2.95    0.17
  -7   2   1    2.74    0.19
  -7   2   1    2.81    0.16
   6  -2  -1    0.20    0.06
   6  -2  -1    0.12    0.06
   6  -2  -1    0.14    0.06
  -6   2   1    0.17    0.05
  -6   2   1    0.14    0.05
  -6   2   1    0.17    0.06
   5  -2  -1   38.95    1.19
   5  -2  -1   38.00    1.17
   5  -2  -1   39.07    1.24
  -5   2   1   39.76    1.23
  -5   2   1   40.05    1.33
  -5   2   1   40.53    1.24
   4  -2  -1    1.69    0.10
   4  -2  -1    1.59    0.10
   4  -2  -1    1.66    0.09
   4  -2  -1    1.59    0.11
  -4   2   1    1.74    0.10
  -4   2   1    1.58    0.11
  -4   2   1    1.55    0.10
  -4   2   1    1.56    0.06
   3  -2  -1   47.75    1.44
   3  -2  -1   46.11    1.35
   3  -2  -1   47.41    1.38
   3  -2  -1   46.70    1.53
  -3   2   1   47.54    1.38
  -3   2   1   48.76    1.35
  -3   2   1   46.57    1.29
  -3   2   1   44.03    1.43
  -3   2   1   46.42    1.53
   2  -2  -1   23.52    0.71
   2  -2  -1   23.27    0.64
   2  -2  -1   22.41    0.67
   2  -2  -1   23.40    0.76
  -2   2   1   23.34    0.71
  -2   2   1   22.88    0.76
  -2   2   1   22.62    0.64
  -2   2   1   19.70    0.70
  -2   2   1   22.51    0.68
  -2   2   1   23.70    0.67
   1  -2  -1    9.22    0.30
   1  -2  -1    9.35    0.27
   1  -2  -1    8.89    0.32
   1  -2  -1    9.25    0.30
  -1   2   1    9.44    0.30
  -1   2   1    9.25    0.27
  -1   2   1    8.94    0.30
  -1   2   1    9.17    0.32
   0  -2  -1   78.85    2.36
   0  -2  -1   75.80    2.36
   0  -2  -1   79.71    2.15
   0   2   1   79.35    2.16
   0   2   1   76.56    2.36
   0   2   1   77.90    2.50
   0   2   1   79.49    2.36
  -1  -2  -1  685.66   23.59
  -1  -2  -1  827.13   23.59
  -1  -2  -1  798.65   24.99
  -1  -2  -1  811.06   21.54
  -1  -2  -1  722.79   24.94
   1   2   1  855.93   21.59
   1   2   1  786.48   25.00
   1   2   1  765.17   22.25
   1   2   1  784.49   23.61
   1   2   1  811.19   24.97
  -2  -2  -1    5.52    0.17
  -2  -2  -1    5.33    0.22
  -2  -2  -1    5.47    0.22
  -2  -2  -1    5.36    0.20
   2   2   1    5.56    0.20
   2   2   1    5.37    0.22
   2   2   1    5.62    0.23
   2   2   1    5.42    0.21
  -3  -2  -1    3.85    0.16
  -3  -2  -1    3.63    0.18
  -3  -2  -1    3.61    0.18
  -3  -2  -1    3.76    0.19
  -3  -2  -1    3.37    0.11
   3   2   1    3.73    0.17
   3   2   1    3.82    0.18
   3   2   1    3.47    0.16
   3   2   1    3.74    0.18
  -4  -2  -1    0.06    0.05
  -4  -2  -1    0.05    0.04
  -4  -2  -1    0.04    0.04
  -4  -2  -1    0.05    0.04
   4   2   1    0.09    0.05
   4   2   1    0.05    0.04
   4   2   1    0.06    0.05
  -5  -2  -1   30.84    0.99
  -5  -2  -1   30.22    1.07
  -5  -2  -1   31.74    0.98
  -5  -2  -1   30.43    1.07
   5   2   1   29.98    0.95
   5   2   1   29.95    1.00
  -6  -2  -1    7.77    0.31
  -6  -2  -1    8.29    0.37
  -6  -2  -1    7.49    0.37
   6   2   1    8.17    0.34
   6   2   1    8.18    0.33
  -7  -2  -1    4.12    0.26
  -7  -2  -1    4.38    0.21
   7   2   1    3.80    0.22
  -8  -2  -1    0.11    0.06
   8   2   1    0.12    0.08
  -9  -2  -1    0.69    0.09
   9   2   1    0.87    0.13
  11  -3  -1    4.67    0.28
  11  -3  -1    4.41    0.23
 -11   3   1    4.54    0.19
  10  -3  -1    6.37    0.32
 -10   3   1    6.56    0.27
   9  -3  -1    0.32    0.09
   9  -3  -1    0.21    0.08
  -9   3   1    0.03    0.05
   8  -3  -1    1.52    0.14
   8  -3  -1    1.54    0.14
  -8   3   1    1.57    0.12
  -8   3   1    1.55    0.16
   7  -3  -1    1.31    0.12
   7  -3  -1    1.43    0.13
   7  -3  -1    1.40    0.13
  -7   3   1    1.55    0.11
  -7   3   1    1.34    0.11
  -7   3   1    1.49    0.15
   6  -3  -1   44.04    1.29
   6  -3  -1   42.09    1.36
   6  -3  -1   43.63    1.32
  -6   3   1   41.82    1.46
  -6   3   1   44.00    1.35
  -6   3   1   42.25    1.35
   5  -3  -1   43.43    1.34
   5  -3  -1   43.98    1.31
   5  -3  -1   45.41    1.39
  -5   3   1   46.15    1.38
  -5   3   1   43.46    1.38
  -5   3   1   43.84    1.49
   4  -3  -1   11.40    0.37
   4  -3  -1   11.25    0.42
   4  -3  -1   11.23    0.39
  -4   3   1    9.43    0.37
  -4   3   1   11.72    0.39
  -4   3   1   11.64    0.38
  -4   3   1   11.90    0.43
   3  -3  -1    3.49    0.16
   3  -3  -1    3.56    0.12
   3  -3  -1    3.58    0.14
   3  -3  -1    3.69    0.15
  -3   3   1    3.37    0.15
  -3   3   1    3.51    0.17
  -3   3   1    3.49    0.15
  -3   3   1    3.49    0.11
   2  -3  -1    6.43    0.22
   2  -3  -1    6.38    0.20
   2  -3  -1    6.20    0.25
  -2   3   1    6.35    0.21
  -2   3   1    6.45    0.19
  -2   3   1    6.07    0.22
  -2   3   1    6.57    0.23
  -2   3   1    6.54    0.25
   1  -3  -1   11.00    0.37
   1  -3  -1   11.22    0.33
   1  -3  -1   11.08    0.40
  -1   3   1   11.25    0.40
  -1   3   1   11.51    0.38
  -1   3   1   11.79    0.38
  -1   3   1   11.74    0.33
   0  -3  -1   35.96    1.14
   0  -3  -1   36.05    1.03
   0  -3  -1   37.84    1.14
   0   3   1   36.90    1.03
   0   3   1   36.68    1.14
   0   3   1   36.16    1.21
   0   3   1   37.03    1.14
   0   3   1   37.51    1.08
  -1  -3  -1   97.33    2.87
  -1  -3  -1   92.23    3.04
  -1  -3  -1   93.38    2.61
  -1  -3  -1   96.63    2.87
   1   3   1   98.38    3.04
   1   3   1   92.40    2.70
   1   3   1   91.11    2.87
   1   3   1   95.27    3.05
  -2  -3  -1    3.59    0.18
  -2  -3  -1    3.41    0.12
  -2  -3  -1    3.70    0.18
  -2  -3  -1    3.41    0.15
  -2  -3  -1    3.67    0.17
   2   3   1    3.53    0.16
   2   3   1    3.84    0.18
   2   3   1    3.29    0.15
   2   3   1    3.76    0.18
  -3  -3  -1    3.65    0.17
  -3  -3  -1    3.16    0.17
  -3  -3  -1    3.82    0.19
  -3  -3  -1    3.86    0.19
  -3  -3  -1    4.00    0.20
  -3  -3  -1    3.74    0.13
   3   3   1    3.51    0.19
   3   3   1    3.82    0.17
   3   3   1    3.86    0.19
   3   3   1    3.94    0.19
  -4  -3  -1   13.60    0.53
  -4  -3  -1   13.30    0.47
  -4  -3  -1   12.98    0.52
  -4  -3  -1   14.03    0.53
   4   3   1   13.84    0.53
   4   3   1   14.44    0.50
   4   3   1   13.30    0.46
  -5  -3  -1   16.68    0.64
  -5  -3  -1   16.70    0.65
  -5  -3  -1   17.28    0.64
   5   3   1   16.75    0.58
   5   3   1   16.71    0.61
  -6  -3  -1    0.22    0.07
  -6  -3  -1    0.25    0.08
  -6  -3  -1    0.19    0.09
   6   3   1    0.25    0.07
   6   3   1    0.20    0.08
  -7  -3  -1    3.95    0.21
  -7  -3  -1    4.13    0.26
  -8  -3  -1    2.32    0.16
  -9  -3  -1    1.36    0.13
  11  -4  -1    4.49    0.23
  10  -4  -1    0.28    0.07
 -10   4   1    0.29    0.06
   9  -4  -1    1.83    0.12
   9  -4  -1    1.35    0.15
   9  -4  -1    1.59    0.16
  -9   4   1    1.44    0.11
   8  -4  -1    2.09    0.15
   8  -4  -1    1.92    0.15
  -8   4   1    2.08    0.18
  -8   4   1    2.08    0.13
   7  -4  -1    8.43    0.33
   7  -4  -1    8.11    0.34
   7  -4  -1    8.27    0.34
  -7   4   1    8.30    0.38
  -7   4   1    9.11    0.33
  -7   4   1    8.54    0.32
   6  -4  -1   38.37    1.16
   6  -4  -1   39.23    1.23
  -6   4   1   37.20    1.32
  -6   4   1   37.02    1.20
  -6   4   1   40.11    1.21
   5  -4  -1    6.49    0.22
   5  -4  -1    6.23    0.25
   5  -4  -1    6.26    0.24
  -5   4   1    6.42    0.24
  -5   4   1    6.05    0.28
  -5   4   1    6.65    0.25
   4  -4  -1   11.70    0.39
   4  -4  -1   12.08    0.41
   4  -4  -1   12.09    0.45
   4  -4  -1   12.00    0.36
  -4   4   1   11.61    0.40
  -4   4   1   12.31    0.45
  -4   4   1   12.04    0.41
   3  -4  -1   31.59    0.95
   3  -4  -1   33.19    0.91
   3  -4  -1   32.52    1.01
   3  -4  -1   31.55    1.08
  -3   4   1   31.01    1.08
  -3   4   1   32.28    0.98
  -3   4   1   33.51    1.01
   2  -4  -1   22.74    0.65
   2  -4  -1   22.17    0.78
   2  -4  -1   23.88    0.73
  -2   4   1   23.01    0.72
  -2   4   1   23.01    0.78
  -2   4   1   23.04    0.73
  -2   4   1   22.63    0.68
   1  -4  -1   41.67    1.28
   1  -4  -1   39.87    1.36
   1  -4  -1   41.06    1.16
  -1   4   1   42.40    1.29
  -1   4   1   41.84    1.28
  -1   4   1   41.61    1.37
   0  -4  -1   18.22    0.59
   0  -4  -1   18.17    0.64
   0  -4  -1   16.98    0.52
   0   4   1   18.18    0.59
   0   4   1   18.21    0.63
   0   4   1   17.41    0.63
   0   4   1   18.44    0.56
  -1  -4  -1    9.23    0.32
  -1  -4  -1    8.52    0.27
  -1  -4  -1    8.49    0.32
   1   4   1    8.60    0.31
   1   4   1    8.84    0.35
   1   4   1    9.21    0.33
   1   4   1    8.90    0.35
  -2  -4  -1    7.95    0.25
  -2  -4  -1    7.61    0.30
  -2  -4  -1    7.75    0.33
  -2  -4  -1    8.34    0.31
   2   4   1    7.80    0.29
   2   4   1    8.00    0.34
   2   4   1    8.04    0.31
   2   4   1    8.34    0.34
  -3  -4  -1    5.85    0.27
  -3  -4  -1    5.65    0.19
  -3  -4  -1    6.04    0.25
  -3  -4  -1    5.81    0.24
  -3  -4  -1    6.14    0.27
   3   4   1    5.96    0.28
   3   4   1    5.73    0.26
   3   4   1    5.50    0.24
   3   4   1    6.21    0.28
  -4  -4  -1   12.59    0.50
  -4  -4  -1   12.13    0.45
  -4  -4  -1   12.02    0.49
  -4  -4  -1   12.66    0.50
  -4  -4  -1   12.43    0.46
  -4  -4  -1   12.60    0.36
   4   4   1   12.46    0.50
   4   4   1   11.80    0.46
   4   4   1   12.05    0.44
  -5  -4  -1    0.58    0.10
  -5  -4  -1    0.37    0.09
  -5  -4  -1    0.51    0.08
  -5  -4  -1    0.55    0.10
   5   4   1    0.39    0.09
   5   4   1    0.45    0.09
  -6  -4  -1    7.25    0.35
  -6  -4  -1    6.72    0.30
   6   4   1    6.18    0.31
   6   4   1    6.79    0.33
  -7  -4  -1    9.79    0.47
  -7  -4  -1   10.04    0.40
  -8  -4  -1    6.46    0.29
  -9  -4  -1    0.90    0.12
  11  -5  -1    0.00    0.07
  10  -5  -1    3.42    0.19
 -10   5   1    3.64    0.16
   9  -5  -1    3.94    0.19
   9  -5  -1    4.31    0.23
  -9   5   1    4.05    0.19
   8  -5  -1    9.76    0.34
   8  -5  -1   10.01    0.38
  -8   5   1    9.32    0.44
  -8   5   1    9.57    0.36
   7  -5  -1    7.74    0.27
   7  -5  -1    7.93    0.32
   7  -5  -1    7.59    0.30
  -7   5   1    7.23    0.35
  -7   5   1    7.33    0.29
  -7   5   1    7.13    0.29
   6  -5  -1    2.75    0.13
   6  -5  -1    2.67    0.16
   6  -5  -1    2.68    0.15
  -6   5   1    2.68    0.14
  -6   5   1    2.64    0.18
  -6   5   1    2.57    0.14
   5  -5  -1   31.70    0.91
   5  -5  -1   32.23    1.02
   5  -5  -1   31.29    0.96
  -5   5   1   29.89    1.00
  -5   5   1   32.52    1.10
  -5   5   1   32.77    1.01
   4  -5  -1   34.98    1.08
   4  -5  -1   33.75    0.97
   4  -5  -1   34.00    1.01
  -4   5   1   34.42    1.16
  -4   5   1   33.32    1.07
  -4   5   1   33.19    1.06
   3  -5  -1   26.13    0.89
   3  -5  -1   25.64    0.83
   3  -5  -1   25.86    0.75
  -3   5   1   26.20    0.90
  -3   5   1   26.25    0.83
   2  -5  -1   27.26    0.78
   2  -5  -1   26.16    0.93
   2  -5  -1   27.72    0.87
  -2   5   1   27.91    0.87
  -2   5   1   27.88    0.87
  -2   5   1   27.07    0.94
   1  -5  -1    3.50    0.16
   1  -5  -1    3.61    0.14
   1  -5  -1    3.49    0.18
  -1   5   1    3.66    0.18
  -1   5   1    3.18    0.15
  -1   5   1    3.25    0.16
   0  -5  -1   72.78    2.14
   0  -5  -1   69.11    1.94
   0  -5  -1   71.81    2.28
   0   5   1   63.53    2.27
   0   5   1   71.66    2.28
   0   5   1   67.08    2.02
   0   5   1   70.83    2.15
  -1  -5  -1   33.38    0.97
  -1  -5  -1   33.00    1.17
  -1  -5  -1   33.77    1.09
   1   5   1   35.48    1.17
   1   5   1   34.23    1.04
   1   5   1   34.06    1.17
   1   5   1   35.48    1.10
  -2  -5  -1   11.32    0.45
  -2  -5  -1   11.98    0.42
  -2  -5  -1   11.64    0.36
   2   5   1   11.86    0.46
   2   5   1   10.96    0.40
   2   5   1   11.28    0.43
   2   5   1   11.78    0.47
  -3  -5  -1    0.23    0.06
  -3  -5  -1    0.17    0.06
  -3  -5  -1    0.19    0.04
  -3  -5  -1    0.27    0.07
  -3  -5  -1    0.19    0.06
   3   5   1    0.35    0.08
   3   5   1    0.15    0.06
   3   5   1    0.19    0.06
   3   5   1    0.23    0.07
  -4  -5  -1    0.09    0.06
  -4  -5  -1    0.03    0.03
  -4  -5  -1    0.10    0.06
  -4  -5  -1    0.04    0.06
  -4  -5  -1   -0.02    0.06
   4   5   1    0.10    0.07
   4   5   1    0.08    0.06
  -5  -5  -1    8.05    0.38
  -5  -5  -1    8.06    0.33
   5   5   1    7.97    0.36
   5   5   1    7.17    0.33
  -6  -5  -1    7.61    0.38
   6   5   1    7.35    0.36
  -7  -5  -1    0.70    0.14
  -7  -5  -1    0.69    0.10
  -8  -5  -1    0.63    0.16
  -8  -5  -1    0.70    0.12
  10  -6  -1    4.92    0.23
 -10   6   1    5.20    0.20
   9  -6  -1    0.74    0.09
  -9   6   1    0.81    0.08
   8  -6  -1    1.14    0.12
   8  -6  -1    0.87    0.09
  -8   6   1    1.00    0.14
  -8   6   1    0.90    0.09
   7  -6  -1    0.50    0.07
   7  -6  -1    0.55    0.09
  -7   6   1    0.62    0.08
  -7   6   1    0.52    0.10
   6  -6  -1   13.52    0.48
   6  -6  -1   12.84    0.41
   6  -6  -1   12.79    0.45
  -6   6   1   13.14    0.53
  -6   6   1   13.08    0.46
  -6   6   1   13.20    0.45
   5  -6  -1   34.06    0.97
   5  -6  -1   32.98    1.02
   5  -6  -1   33.98    1.08
  -5   6   1   33.05    1.06
  -5   6   1   33.82    1.07
  -5   6   1   33.59    1.17
   4  -6  -1    1.98    0.12
   4  -6  -1    2.07    0.10
  -4   6   1    1.98    0.12
  -4   6   1    1.85    0.11
  -4   6   1    1.95    0.14
   3  -6  -1    3.56    0.19
   3  -6  -1    3.69    0.17
   3  -6  -1    3.59    0.14
  -3   6   1    3.44    0.17
  -3   6   1    3.53    0.19
   2  -6  -1    0.97    0.09
   2  -6  -1    0.95    0.10
   2  -6  -1    0.97    0.07
  -2   6   1    0.91    0.10
  -2   6   1    0.99    0.09
  -2   6   1    1.04    0.09
   1  -6  -1   14.44    0.52
   1  -6  -1   15.22    0.57
   1  -6  -1   15.19    0.46
  -1   6   1   15.45    0.57
  -1   6   1   15.68    0.52
  -1   6   1   14.90    0.53
   0  -6  -1   26.86    0.73
   0  -6  -1   24.93    0.88
   0  -6  -1   27.28    0.82
   0   6   1   22.04    0.87
   0   6   1   26.71    0.83
   0   6   1   21.65    0.77
   0   6   1   25.00    0.89
  -1  -6  -1    5.09    0.26
  -1  -6  -1    4.81    0.22
  -1  -6  -1    4.62    0.18
   1   6   1    5.27    0.23
   1   6   1    5.32    0.22
   1   6   1    4.70    0.25
   1   6   1    5.44    0.26
  -2  -6  -1    0.02    0.05
  -2  -6  -1    0.05    0.03
  -2  -6  -1   -0.02    0.04
   2   6   1    0.05    0.05
   2   6   1   -0.02    0.05
   2   6   1    0.00    0.05
   2   6   1    0.03    0.04
  -3  -6  -1    6.06    0.28
  -3  -6  -1    6.09    0.31
  -3  -6  -1    6.26    0.22
   3   6   1    6.49    0.29
   3   6   1    6.61    0.32
   3   6   1    5.85    0.27
  -4  -6  -1   12.33    0.52
  -4  -6  -1   13.06    0.48
   4   6   1   12.72    0.51
  -5  -6  -1   10.11    0.46
  -5  -6  -1   10.58    0.42
   5   6   1   10.40    0.45
  -6  -6  -1    0.48    0.10
  -6  -6  -1    0.57    0.13
  -7  -6  -1    1.16    0.17
  -7  -6  -1    1.19    0.14
  -8  -6  -1    0.73    0.16
  -8  -6  -1    0.57    0.12
  10  -7  -1    0.12    0.06
   9  -7  -1    0.16    0.06
  -9   7   1    0.17    0.05
   8  -7  -1    3.63    0.17
   8  -7  -1    3.64    0.20
  -8   7   1    3.35    0.17
  -8   7   1    3.26    0.24
   7  -7  -1   20.57    0.70
   7  -7  -1   21.78    0.65
  -7   7   1   21.21    0.71
  -7   7   1   21.25    0.81
   6  -7  -1   17.31    0.53
   6  -7  -1   17.14    0.61
  -6   7   1   17.48    0.67
  -6   7   1   17.13    0.59
   5  -7  -1    0.65    0.09
   5  -7  -1    0.65    0.07
  -5   7   1    0.70    0.09
  -5   7   1    0.75    0.11
  -5   7   1    0.61    0.07
   4  -7  -1    5.77    0.21
   4  -7  -1    6.10    0.25
  -4   7   1    5.69    0.25
  -4   7   1    5.89    0.24
  -4   7   1    5.47    0.28
   3  -7  -1    9.35    0.35
   3  -7  -1    9.07    0.30
  -3   7   1    8.50    0.34
  -3   7   1    9.19    0.39
   2  -7  -1   31.91    0.92
   2  -7  -1   30.09    1.02
   2  -7  -1   31.46    1.10
  -2   7   1   32.73    0.97
  -2   7   1   31.31    1.10
  -2   7   1   32.68    1.02
  -2   7   1   30.47    1.02
   1  -7  -1   26.78    0.91
   1  -7  -1   25.43    0.84
   1  -7  -1   26.53    0.74
  -1   7   1   26.55    0.83
  -1   7   1   23.31    0.79
  -1   7   1   25.88    0.84
  -1   7   1   21.76    0.89
   0  -7  -1    0.75    0.09
   0  -7  -1    0.80    0.11
   0  -7  -1    0.88    0.07
   0   7   1    0.98    0.12
   0   7   1    0.63    0.09
   0   7   1    0.72    0.09
  -1  -7  -1    4.71    0.23
  -1  -7  -1    4.74    0.19
  -1  -7  -1    5.30    0.27
   1   7   1    4.80    0.24
   1   7   1    4.80    0.26
   1   7   1    4.68    0.23
   1   7   1    5.40    0.27
  -2  -7  -1    4.82    0.24
  -2  -7  -1    4.78    0.19
   2   7   1    5.31    0.28
   2   7   1    4.97    0.24
   2   7   1    5.30    0.26
  -3  -7  -1    2.85    0.13
  -3  -7  -1    2.86    0.18
   3   7   1    3.12    0.20
  -4  -7  -1    3.27    0.23
  -4  -7  -1    3.19    0.20
   4   7   1    3.30    0.22
  -5  -7  -1    1.98    0.16
  -5  -7  -1    1.89    0.20
   5   7   1    1.97    0.20
  -6  -7  -1    0.92    0.13
  -6  -7  -1    1.24    0.18
  -7  -7  -1    2.65    0.25
  -7  -7  -1    2.66    0.21
  10  -8  -1    1.94    0.14
   9  -8  -1    3.13    0.17
  -9   8   1    2.96    0.14
   8  -8  -1    5.90    0.27
   8  -8  -1    4.96    0.22
  -8   8   1    5.16    0.23
   7  -8  -1    9.71    0.34
  -7   8   1    9.49    0.45
  -7   8   1    9.71    0.37
   6  -8  -1    1.41    0.10
  -6   8   1    1.25    0.15
  -6   8   1    1.56    0.12
   5  -8  -1    5.84    0.22
   5  -8  -1    5.63    0.26
  -5   8   1    5.63    0.25
  -5   8   1    5.82    0.30
   4  -8  -1   10.28    0.40
   4  -8  -1   10.14    0.35
  -4   8   1   11.07    0.45
  -4   8   1   10.18    0.40
   3  -8  -1   16.98    0.54
   3  -8  -1   16.77    0.61
  -3   8   1   18.36    0.62
  -3   8   1   17.76    0.68
   2  -8  -1   11.04    0.37
   2  -8  -1   10.88    0.42
  -2   8   1   10.63    0.40
  -2   8   1   11.06    0.47
  -2   8   1   11.63    0.43
   1  -8  -1    0.53    0.06
   1  -8  -1    0.45    0.08
   1  -8  -1    0.67    0.11
  -1   8   1    0.70    0.09
  -1   8   1    0.49    0.10
  -1   8   1    0.26    0.07
  -1   8   1    0.44    0.08
   0  -8  -1    8.64    0.30
   0  -8  -1    9.01    0.36
   0   8   1    9.07    0.36
   0   8   1    8.71    0.40
  -1  -8  -1    7.24    0.26
  -1  -8  -1    7.18    0.32
   1   8   1    7.32    0.33
   1   8   1    7.28    0.36
  -2  -8  -1    2.85    0.19
  -2  -8  -1    2.61    0.13
   2   8   1    3.19    0.20
  -3  -8  -1    2.10    0.12
  -3  -8  -1    2.11    0.17
   3   8   1    2.80    0.19
  -4  -8  -1    2.41    0.18
   4   8   1    2.20    0.19
  -5  -8  -1    5.33    0.29
  -5  -8  -1    5.83    0.33
   5   8   1    5.44    0.32
  -6  -8  -1    2.83    0.21
  -6  -8  -1    2.72    0.25
  10  -9  -1    3.46    0.20
   9  -9  -1    0.25    0.07
  -9   9   1    0.28    0.05
   8  -9  -1    2.51    0.15
  -8   9   1    2.89    0.15
   7  -9  -1    0.06    0.05
  -7   9   1    0.08    0.06
   6  -9  -1   12.17    0.42
  -6   9   1   12.66    0.54
  -6   9   1   12.49    0.46
   5  -9  -1   10.17    0.35
  -5   9   1   10.38    0.46
  -5   9   1    9.87    0.39
   4  -9  -1    2.61    0.14
   4  -9  -1    2.35    0.16
  -4   9   1    2.40    0.16
  -4   9   1    2.48    0.19
   3  -9  -1    0.49    0.09
   3  -9  -1    0.42    0.07
  -3   9   1    0.30    0.09
  -3   9   1    0.33    0.08
   2  -9  -1    1.95    0.12
   2  -9  -1    1.78    0.14
  -2   9   1    1.85    0.17
  -2   9   1    1.68    0.14
   1  -9  -1   13.70    0.44
   1  -9  -1   13.49    0.51
  -1   9   1   13.46    0.57
  -1   9   1   13.22    0.51
   0  -9  -1   19.67    0.70
   0  -9  -1   19.94    0.61
   0   9   1   19.68    0.71
  -1  -9  -1    1.52    0.15
  -1  -9  -1    1.65    0.11
   1   9   1    1.37    0.15
  -2  -9  -1    0.05    0.05
  -2  -9  -1    0.05    0.07
   2   9   1   -0.03    0.07
  -3  -9  -1    0.41    0.10
   3   9   1    0.43    0.11
  -4  -9  -1    3.49    0.23
   4   9   1    3.85    0.25
  -5  -9  -1    6.08    0.35
  -5  -9  -1    5.63    0.31
   5   9   1    5.60    0.33
  -6  -9  -1    1.09    0.18
  -6  -9  -1    1.06    0.16
   9 -10  -1    0.83    0.11
   8 -10  -1    0.25    0.07
  -8  10   1    0.35    0.07
   7 -10  -1    9.11    0.34
  -7  10   1    9.44    0.36
   6 -10  -1    9.13    0.34
  -6  10   1    9.38    0.37
   5 -10  -1    0.05    0.05
  -5  10   1   -0.03    0.06
   4 -10  -1    7.90    0.34
   4 -10  -1    7.65    0.29
  -4  10   1    7.18    0.32
   3 -10  -1    7.07    0.32
   3 -10  -1    6.24    0.26
  -3  10   1    6.49    0.30
   2 -10  -1    7.84    0.34
   2 -10  -1    7.74    0.29
  -2  10   1    7.90    0.34
   1 -10  -1    8.61    0.30
   1 -10  -1    8.02    0.36
  -1  10   1    8.00    0.36
   0 -10  -1    1.38    0.11
   0 -10  -1    1.11    0.13
   0  10   1    1.42    0.15
  -1 -10  -1    4.64    0.20
  -1 -10  -1    4.54    0.25
   1  10   1    4.13    0.25
  -2 -10  -1    0.57    0.11
  -2 -10  -1    0.73    0.08
   2  10   1    0.67    0.12
  -3 -10  -1    2.84    0.21
   3  10   1    2.39    0.21
  -4 -10  -1    1.58    0.18
  -4 -10  -1    2.06    0.22
   4  10   1    1.65    0.20
  -5 -10  -1    0.26    0.10
  -5 -10  -1    0.18    0.12
   5  10   1    0.34    0.13
   9 -11  -1    2.82    0.18
   8 -11  -1    1.99    0.15
  -8  11   1    2.39    0.13
   7 -11  -1    4.10    0.21
  -7  11   1    4.57    0.21
   6 -11  -1    0.04    0.06
  -6  11   1    0.01    0.06
   5 -11  -1    2.53    0.15
  -5  11   1    2.28    0.16
   4 -11  -1    0.12    0.06
  -4  11   1    0.03    0.06
   3 -11  -1    7.48    0.35
   3 -11  -1    7.10    0.28
  -3  11   1    7.58    0.33
   2 -11  -1    3.61    0.18
   2 -11  -1    3.63    0.22
  -2  11   1    3.73    0.22
   1 -11  -1    0.20    0.06
   1 -11  -1    0.12    0.07
  -1  11   1    0.12    0.08
   0 -11  -1    0.87    0.09
   0 -11  -1    0.80    0.12
   0  11   1    0.86    0.13
  -1 -11  -1    5.62    0.24
  -1 -11  -1    5.45    0.30
   1  11   1    5.66    0.30
  -2 -11  -1    1.84    0.19
   2  11   1    1.52    0.18
  -3 -11  -1    0.88    0.14
   3  11   1    0.72    0.14
  -4 -11  -1    0.00    0.09
   4  11   1   -0.01    0.10
   8 -12  -1    2.78    0.18
  -8  12   1    3.05    0.14
   7 -12  -1    0.32    0.08
  -7  12   1    0.40    0.08
   6 -12  -1    6.99    0.30
  -6  12   1    7.30    0.31
   5 -12  -1    3.38    0.19
  -5  12   1    3.49    0.20
   4 -12  -1   -0.06    0.06
  -4  12   1    0.00    0.07
   3 -12  -1    0.05    0.06
  -3  12   1   -0.04    0.06
   2 -12  -1    0.00    0.06
  -2  12   1   -0.02    0.07
   1 -12  -1    5.26    0.29
   1 -12  -1    5.16    0.22
  -1  12   1    4.72    0.28
   0 -12  -1    6.79    0.34
   0 -12  -1    6.47    0.27
   0  12   1    6.61    0.34
  -1 -12  -1    1.75    0.19
  -1 -12  -1    1.76    0.13
   1  12   1    1.95    0.20
  -2 -12  -1    0.20    0.10
   2  12   1    0.26    0.11
   7 -13  -1    2.79    0.19
  -7  13   1    2.91    0.16
   6 -13  -1    2.70    0.19
  -6  13   1    3.03    0.18
   5 -13  -1    0.60    0.11
  -5  13   1    0.70    0.11
   4 -13  -1    0.22    0.08
  -4  13   1    0.10    0.08
   3 -13  -1    2.98    0.17
  -3  13   1    3.01    0.21
   2 -13  -1    1.66    0.13
  -2  13   1    1.23    0.15
   1 -13  -1    0.94    0.11
  -1  13   1    0.95    0.14
   0 -13  -1    0.23    0.10
   0 -13  -1    0.29    0.07
   0  13   1    0.16    0.11
  -1 -13  -1    0.05    0.09
   1  13   1   -0.07    0.09
   4 -14  -1    1.26    0.13
  -4  14   1    1.09    0.14
   3 -14  -1    3.15    0.19
  -3  14   1    3.23    0.22
   2 -14  -1    2.94    0.18
  -2  14   1    2.64    0.21
  -1  14  -2    0.67    0.12
   1 -14   2    0.72    0.11
  -2  14  -2    1.30    0.13
   2 -14   2    1.58    0.14
  -3  14  -2    0.03    0.06
   3 -14   2    0.03    0.07
   4 -14   2    1.16    0.13
   2  13  -2    0.91    0.14
  -2 -13   2    1.03    0.12
   1  13  -2    1.28    0.15
  -1 -13   2    1.28    0.12
   0  13  -2    0.71    0.12
   0 -13   2    0.83    0.10
  -1  13  -2    0.05    0.07
   1 -13   2   -0.03    0.05
  -2  13  -2    0.31    0.08
   2 -13   2    0.38    0.08
  -3  13  -2    5.13    0.22
   3 -13   2    4.54    0.23
   4 -13   2    4.61    0.23
   5 -13   2    0.91    0.11
   6 -13   2    0.26    0.08
   3  12  -2    2.01    0.20
  -3 -12   2    1.85    0.14
   2  12  -2    3.04    0.22
  -2 -12   2    2.73    0.17
   1  12  -2    1.42    0.15
  -1 -12   2    1.25    0.12
   0  12  -2    0.47    0.10
   0 -12   2    0.36    0.07
  -1  12  -2    0.63    0.10
   1 -12   2    0.60    0.09
  -2  12  -2    7.34    0.30
   2 -12   2    7.13    0.29
  -3  12  -2    9.35    0.34
   3 -12   2    8.24    0.34
  -4  12  -2    1.13    0.08
   4 -12   2    0.93    0.11
   5 -12   2    0.09    0.06
   6 -12   2    0.41    0.08
   7 -12   2    3.37    0.18
   4  11  -2    3.10    0.23
  -4 -11   2    2.89    0.24
   3  11  -2    5.09    0.29
  -3 -11   2    5.82    0.31
  -3 -11   2    5.20    0.24
   2  11  -2    0.39    0.11
  -2 -11   2    0.36    0.08
  -2 -11   2    0.44    0.11
   1  11  -2    2.23    0.17
  -1 -11   2    2.03    0.13
   0  11  -2    1.38    0.14
   0 -11   2    1.36    0.11
  -1  11  -2    1.19    0.13
   1 -11   2    1.46    0.11
  -2  11  -2    4.65    0.22
  -2  11  -2    4.58    0.29
   2 -11   2    4.25    0.20
  -3  11  -2    1.99    0.18
  -3  11  -2    1.88    0.13
   3 -11   2    1.98    0.13
  -4  11  -2    1.71    0.19
  -4  11  -2    1.81    0.10
  -4  11  -2    1.79    0.10
   4 -11   2    2.11    0.13
  -5  11  -2    4.41    0.28
   5 -11   2    3.96    0.19
  -6  11  -2    3.04    0.23
   6 -11   2    2.78    0.15
   7 -11   2    2.37    0.14
   8 -11   2    0.01    0.06
   5  10  -2    2.43    0.21
  -5 -10   2    2.47    0.21
   4  10  -2    2.28    0.20
  -4 -10   2    2.38    0.15
  -4 -10   2    2.22    0.21
   3  10  -2    0.08    0.08
  -3 -10   2    0.09    0.06
  -3 -10   2   -0.01    0.07
   2  10  -2    0.97    0.13
  -2 -10   2    0.95    0.13
  -2 -10   2    1.01    0.10
   1  10  -2    4.67    0.25
  -1 -10   2    5.12    0.26
  -1 -10   2    4.63    0.21
   0  10  -2   10.24    0.47
   0  10  -2    9.80    0.40
   0 -10   2   10.46    0.36
   0 -10   2   10.25    0.42
  -1  10  -2    6.37    0.27
  -1  10  -2    6.33    0.33
   1 -10   2    5.95    0.24
  -2  10  -2    3.82    0.25
  -2  10  -2    4.16    0.19
   2 -10   2    3.79    0.18
  -3  10  -2   20.20    0.65
  -3  10  -2   19.44    0.78
  -3  10  -2   19.93    0.66
   3 -10   2   20.35    0.62
  -4  10  -2    8.11    0.28
  -4  10  -2    8.54    0.41
  -4  10  -2    8.52    0.29
   4 -10   2    8.48    0.30
  -5  10  -2    4.99    0.28
   5 -10   2    4.52    0.19
  -6  10  -2    2.72    0.21
   6 -10   2    2.97    0.15
  -7  10  -2   -0.08    0.07
   7 -10   2    0.00    0.05
  -8  10  -2    4.20    0.28
   8 -10   2    4.10    0.20
   9 -10   2    2.49    0.16
   6   9  -2    0.88    0.15
  -6  -9   2    0.50    0.13
   5   9  -2    0.03    0.09
  -5  -9   2    0.21    0.10
   4   9  -2    0.31    0.10
  -4  -9   2    0.48    0.10
  -4  -9   2    0.38    0.07
  -4  -9   2    0.23    0.09
   3   9  -2    5.93    0.30
  -3  -9   2    6.09    0.25
  -3  -9   2    6.10    0.31
   2   9  -2    6.48    0.30
  -2  -9   2    6.44    0.25
  -2  -9   2    5.98    0.30
   1   9  -2    0.55    0.11
   1   9  -2    0.80    0.11
  -1  -9   2    0.74    0.08
  -1  -9   2    0.70    0.10
   0   9  -2    0.60    0.11
   0   9  -2    0.91    0.13
   0   9  -2    0.75    0.10
   0  -9   2    0.79    0.10
   0  -9   2    0.80    0.08
  -1   9  -2    0.22    0.07
  -1   9  -2    0.06    0.07
  -1   9  -2    0.04    0.05
   1  -9   2    0.08    0.06
   1  -9   2   -0.01    0.04
  -2   9  -2    6.88    0.34
  -2   9  -2    7.10    0.28
  -2   9  -2    7.02    0.27
   2  -9   2    6.87    0.25
   2  -9   2    6.63    0.30
  -3   9  -2   14.11    0.47
  -3   9  -2   13.72    0.47
  -3   9  -2   14.08    0.57
   3  -9   2   14.36    0.44
  -4   9  -2   10.54    0.44
  -4   9  -2    9.41    0.32
   4  -9   2   10.23    0.33
  -5   9  -2    0.09    0.06
   5  -9   2    0.00    0.04
  -6   9  -2    1.36    0.15
   6  -9   2    1.47    0.10
  -7   9  -2    9.14    0.43
   7  -9   2    9.14    0.32
  -8   9  -2    7.50    0.38
   8  -9   2    7.51    0.29
   8  -9   2    7.32    0.33
   9  -9   2    0.15    0.09
   9  -9   2    0.19    0.07
   7   8  -2    0.41    0.13
  -7  -8   2    0.39    0.12
   6   8  -2    0.21    0.11
  -6  -8   2    0.18    0.10
   5   8  -2    0.05    0.09
  -5  -8   2    0.16    0.08
  -5  -8   2    0.10    0.08
  -5  -8   2    0.05    0.05
   4   8  -2    8.12    0.38
  -4  -8   2    8.06    0.31
  -4  -8   2    8.73    0.39
  -4  -8   2    9.09    0.38
   3   8  -2   11.33    0.46
  -3  -8   2   10.96    0.38
  -3  -8   2   11.48    0.46
   2   8  -2    0.22    0.08
   2   8  -2    0.21    0.09
  -2  -8   2    0.17    0.07
  -2  -8   2    0.19    0.05
   1   8  -2    6.36    0.28
   1   8  -2    6.23    0.32
   1   8  -2    6.57    0.32
  -1  -8   2    6.11    0.23
  -1  -8   2    5.93    0.27
   0   8  -2    8.30    0.32
   0   8  -2    8.31    0.37
   0   8  -2    7.44    0.32
   0   8  -2    8.35    0.37
   0  -8   2    8.27    0.33
   0  -8   2    8.05    0.28
  -1   8  -2   24.50    0.88
  -1   8  -2   23.64    0.79
  -1   8  -2   23.94    0.80
  -1   8  -2   25.02    0.89
   1  -8   2   24.24    0.81
   1  -8   2   24.79    0.73
  -2   8  -2   24.18    0.75
  -2   8  -2   23.19    0.75
  -2   8  -2   22.74    0.85
   2  -8   2   22.62    0.77
   2  -8   2   23.25    0.68
  -3   8  -2    1.21    0.08
  -3   8  -2    1.44    0.13
  -3   8  -2    1.28    0.09
   3  -8   2    1.33    0.11
   3  -8   2    1.36    0.08
  -4   8  -2    0.16    0.06
   4  -8   2    0.07    0.03
  -5   8  -2    0.53    0.10
   5  -8   2    0.53    0.06
  -6   8  -2    4.49    0.25
   6  -8   2    4.45    0.18
  -7   8  -2   11.36    0.49
   7  -8   2   11.06    0.37
   7  -8   2   11.33    0.42
  -8   8  -2    0.69    0.12
   8  -8   2    0.55    0.10
   8  -8   2    0.60    0.08
  -9   8  -2    4.05    0.27
   9  -8   2    3.81    0.22
   9  -8   2    3.72    0.19
   8   7  -2    0.00    0.11
  -8  -7   2    0.11    0.11
   7   7  -2    2.16    0.22
  -7  -7   2    2.27    0.19
   6   7  -2    6.49    0.33
  -6  -7   2    5.98    0.32
  -6  -7   2    6.42    0.32
   5   7  -2    9.33    0.42
  -5  -7   2    9.88    0.34
  -5  -7   2    9.45    0.41
  -5  -7   2   10.18    0.42
   4   7  -2    1.07    0.14
  -4  -7   2    1.53    0.13
  -4  -7   2    1.34    0.14
  -4  -7   2    1.23    0.10
   3   7  -2    0.29    0.09
   3   7  -2    0.26    0.08
  -3  -7   2    0.27    0.08
  -3  -7   2    0.33    0.06
   2   7  -2    1.29    0.12
   2   7  -2    1.37    0.15
   2   7  -2    1.43    0.13
   2   7  -2    1.40    0.15
  -2  -7   2    1.53    0.10
  -2  -7   2    1.39    0.13
  -2  -7   2    1.45    0.14
  -2  -7   2    1.47    0.13
   1   7  -2   11.12    0.39
   1   7  -2   10.76    0.41
   1   7  -2   10.46    0.45
   1   7  -2   10.91    0.45
  -1  -7   2   11.04    0.40
  -1  -7   2   10.74    0.40
  -1  -7   2   10.78    0.35
   0   7  -2   52.87    1.82
   0   7  -2   53.84    1.70
   0   7  -2   55.54    1.82
   0   7  -2   56.48    1.69
   0  -7   2   54.27    1.54
   0  -7   2   53.32    1.70
  -1   7  -2    7.08    0.26
  -1   7  -2    6.77    0.26
  -1   7  -2    6.77    0.31
   1  -7   2    6.68    0.23
   1  -7   2    6.95    0.27
  -2   7  -2    0.60    0.06
  -2   7  -2    0.48    0.08
  -2   7  -2    0.82    0.06
   2  -7   2    0.67    0.07
   2  -7   2    0.73    0.06
  -3   7  -2   19.29    0.70
  -3   7  -2   18.84    0.60
  -3   7  -2   18.74    0.60
   3  -7   2   19.95    0.56
   3  -7   2   18.83    0.63
  -4   7  -2   19.16    0.71
   4  -7   2   19.50    0.57
   4  -7   2   19.86    0.65
  -5   7  -2    0.28    0.07
   5  -7   2    0.33    0.06
   5  -7   2    0.28    0.04
  -6   7  -2   18.33    0.70
   6  -7   2   18.36    0.60
  -7   7  -2   -0.05    0.06
   7  -7   2    0.03    0.06
  -8   7  -2    8.47    0.41
   8  -7   2    8.95    0.36
  -9   7  -2    3.58    0.25
   9  -7   2    3.22    0.17
   9  -7   2    3.23    0.20
  10  -7   2    4.13    0.21
   8   6  -2    3.02    0.24
  -8  -6   2    3.10    0.23
   7   6  -2    2.43    0.21
  -7  -6   2    2.38    0.19
   6   6  -2    4.01    0.25
  -6  -6   2    4.29    0.24
  -6  -6   2    3.88    0.24
   5   6  -2   15.60    0.60
  -5  -6   2   15.48    0.60
  -5  -6   2   16.44    0.50
  -5  -6   2   15.40    0.58
   4   6  -2    4.67    0.26
   4   6  -2    4.48    0.24
  -4  -6   2    4.51    0.24
  -4  -6   2    4.59    0.23
  -4  -6   2    4.74    0.19
   3   6  -2   21.94    0.77
   3   6  -2   24.28    0.84
  -3  -6   2   23.08    0.77
  -3  -6   2   21.07    0.82
  -3  -6   2   22.06    0.68
  -3  -6   2   23.07    0.73
  -3  -6   2   22.48    0.82
   2   6  -2   11.40    0.39
   2   6  -2   11.47    0.45
   2   6  -2   10.56    0.40
   2   6  -2   11.24    0.40
   2   6  -2   10.28    0.44
  -2  -6   2   10.94    0.41
  -2  -6   2   10.89    0.39
  -2  -6   2   10.51    0.35
  -2  -6   2   10.28    0.44
  -2  -6   2   10.61    0.43
   1   6  -2    0.23    0.05
   1   6  -2    0.29    0.07
   1   6  -2    0.27    0.06
   1   6  -2    0.12    0.04
   1   6  -2    0.14    0.06
  -1  -6   2    0.26    0.04
  -1  -6   2    0.30    0.07
  -1  -6   2    0.20    0.05
  -1  -6   2    0.23    0.05
   0   6  -2   19.77    0.69
   0   6  -2   17.95    0.59
   0   6  -2   18.89    0.69
   0   6  -2   18.85    0.63
   0   6  -2   19.20    0.62
   0  -6   2   19.21    0.57
   0  -6   2   18.89    0.63
   0  -6   2   20.16    0.61
  -1   6  -2   15.23    0.48
  -1   6  -2   14.11    0.49
  -1   6  -2   15.38    0.55
  -1   6  -2   14.57    0.48
   1  -6   2   14.53    0.49
   1  -6   2   14.51    0.43
  -2   6  -2   28.67    0.90
  -2   6  -2   29.25    1.00
  -2   6  -2   29.08    0.90
   2  -6   2   28.72    0.92
   2  -6   2   29.60    0.82
  -3   6  -2   25.48    0.78
  -3   6  -2   25.88    0.89
   3  -6   2   25.74    0.82
   3  -6   2   25.71    0.73
  -4   6  -2    7.36    0.32
   4  -6   2    7.46    0.27
   4  -6   2    7.78    0.28
  -5   6  -2   10.26    0.41
   5  -6   2   10.53    0.37
   5  -6   2    9.59    0.39
   5  -6   2   10.00    0.35
  -6   6  -2    1.01    0.11
   6  -6   2    0.97    0.10
   6  -6   2    0.75    0.11
  -7   6  -2   16.33    0.62
   7  -6   2   15.16    0.58
   7  -6   2   15.82    0.54
  -8   6  -2    9.05    0.40
   8  -6   2    7.96    0.37
   8  -6   2    7.81    0.33
  -9   6  -2    0.02    0.07
   9  -6   2    0.06    0.07
   9  -6   2    0.05    0.09
  -9  -5   2    0.35    0.11
   8   5  -2    1.41    0.18
  -8  -5   2    1.41    0.16
   7   5  -2    1.34    0.16
   6   5  -2   -0.15    0.07
  -6  -5   2    0.06    0.04
  -6  -5   2   -0.09    0.06
  -6  -5   2   -0.08    0.06
   5   5  -2    2.90    0.19
  -5  -5   2    2.89    0.18
  -5  -5   2    2.79    0.18
  -5  -5   2    3.08    0.14
   4   5  -2   29.82    1.14
   4   5  -2   34.78    1.08
   4   5  -2   33.90    1.02
   4   5  -2   33.17    1.15
  -4  -5   2   32.62    1.14
  -4  -5   2   31.79    1.07
  -4  -5   2   33.63    1.16
  -4  -5   2   31.49    1.10
  -4  -5   2   32.97    0.95
   3   5  -2   49.94    1.65
   3   5  -2   48.84    1.54
  -3  -5   2   49.90    1.65
  -3  -5   2   49.37    1.38
  -3  -5   2   46.75    1.63
  -3  -5   2   48.26    1.60
  -3  -5   2   49.37    1.54
  -3  -5   2   47.43    1.45
   2   5  -2   12.54    0.41
   2   5  -2   11.47    0.47
   2   5  -2   12.54    0.48
   2   5  -2   12.59    0.44
   2   5  -2   12.65    0.43
  -2  -5   2   12.16    0.43
  -2  -5   2   11.99    0.47
  -2  -5   2   12.42    0.38
  -2  -5   2   12.20    0.41
  -2  -5   2   11.10    0.46
   1   5  -2    1.36    0.11
   1   5  -2    1.39    0.09
   1   5  -2    1.02    0.09
   1   5  -2    1.27    0.11
  -1  -5   2    1.17    0.09
  -1  -5   2    1.08    0.09
  -1  -5   2    1.09    0.07
  -1  -5   2    1.29    0.10
   0   5  -2    4.59    0.21
   0   5  -2    4.31    0.20
   0   5  -2    4.18    0.17
   0   5  -2    4.55    0.17
   0   5  -2    4.62    0.18
   0  -5   2    4.59    0.19
   0  -5   2    3.99    0.20
   0  -5   2    4.59    0.18
   0  -5   2    4.43    0.15
  -1   5  -2   73.44    2.42
  -1   5  -2   71.87    2.27
  -1   5  -2   75.72    2.19
  -1   5  -2   75.57    2.26
   1  -5   2   77.47    2.06
   1  -5   2   74.61    2.27
  -2   5  -2   90.26    2.91
  -2   5  -2   92.61    2.71
  -2   5  -2   90.03    2.64
  -2   5  -2   86.56    2.71
   2  -5   2   91.60    2.73
  -3   5  -2   12.47    0.46
   3  -5   2   12.69    0.42
   3  -5   2   12.49    0.43
   3  -5   2   12.81    0.40
  -4   5  -2    1.47    0.10
   4  -5   2    1.30    0.08
   4  -5   2    1.42    0.09
   4  -5   2    1.30    0.10
  -5   5  -2    6.27    0.28
   5  -5   2    6.29    0.27
   5  -5   2    6.45    0.24
   5  -5   2    6.49    0.25
  -6   5  -2    9.43    0.40
   6  -5   2    9.55    0.34
   6  -5   2    9.50    0.38
  -7   5  -2   13.63    0.56
   7  -5   2   13.92    0.48
   7  -5   2   14.43    0.53
  -8   5  -2    0.56    0.11
   8  -5   2    0.51    0.10
   8  -5   2    0.50    0.11
  -9   5  -2    1.35    0.17
   9  -5   2    1.40    0.17
   9  -5   2    1.40    0.14
  -9  -4   2    3.82    0.24
   8   4  -2    0.80    0.14
  -8  -4   2    0.68    0.12
   7   4  -2   -0.01    0.07
  -7  -4   2   -0.06    0.06
   6   4  -2    2.87    0.19
  -6  -4   2    2.74    0.13
  -6  -4   2    2.60    0.17
  -6  -4   2    2.80    0.19
   5   4  -2   27.92    1.04
   5   4  -2   28.52    1.04
   5   4  -2   31.24    0.93
   5   4  -2   29.52    0.98
  -5  -4   2   28.45    1.03
  -5  -4   2   29.24    0.97
  -5  -4   2   29.11    1.00
  -5  -4   2   28.96    0.85
   4   4  -2   25.47    0.88
   4   4  -2   24.43    0.77
   4   4  -2   23.75    0.87
   4   4  -2   23.47    0.81
  -4  -4   2   24.11    0.81
  -4  -4   2   24.11    0.83
  -4  -4   2   24.30    0.71
  -4  -4   2   23.64    0.86
  -4  -4   2   25.02    0.87
   3   4  -2    4.20    0.21
   3   4  -2    4.06    0.19
  -3  -4   2    3.68    0.20
  -3  -4   2    3.96    0.15
  -3  -4   2    3.94    0.18
  -3  -4   2    4.18    0.19
  -3  -4   2    4.15    0.18
  -3  -4   2    4.20    0.21
   2   4  -2   10.10    0.36
   2   4  -2   10.91    0.40
   2   4  -2   10.30    0.37
  -2  -4   2   10.32    0.35
  -2  -4   2   10.20    0.32
  -2  -4   2    9.58    0.39
  -2  -4   2   10.49    0.40
  -2  -4   2   10.39    0.37
   1   4  -2    3.50    0.15
   1   4  -2    4.05    0.18
   1   4  -2    3.77    0.16
   1   4  -2    3.86    0.18
  -1  -4   2    3.71    0.18
  -1  -4   2    3.62    0.17
  -1  -4   2    3.95    0.14
  -1  -4   2    3.98    0.16
  -1  -4   2    3.76    0.16
   0   4  -2   54.40    1.72
   0   4  -2   53.18    1.51
   0   4  -2   54.21    1.72
   0   4  -2   55.88    1.61
   0   4  -2   50.69    1.60
   0  -4   2   52.17    1.71
   0  -4   2   51.01    1.52
   0  -4   2   51.71    1.46
   0  -4   2   51.22    1.61
  -1   4  -2   40.49    1.18
  -1   4  -2   40.05    1.30
  -1   4  -2   39.57    1.20
  -1   4  -2   37.60    1.20
   1  -4   2   39.38    1.29
   1  -4   2   39.44    1.21
   1  -4   2   40.96    1.15
  -2   4  -2    0.02    0.04
  -2   4  -2   -0.02    0.03
   2  -4   2    0.08    0.03
   2  -4   2    0.04    0.04
   2  -4   2    0.02    0.03
  -3   4  -2   30.57    1.00
  -3   4  -2   30.18    0.93
   3  -4   2   30.21    0.93
   3  -4   2   29.65    0.88
   3  -4   2   28.96    0.92
  -4   4  -2   23.02    0.77
   4  -4   2   22.32    0.71
   4  -4   2   21.81    0.71
   4  -4   2   21.59    0.67
  -5   4  -2   14.19    0.53
   5  -4   2   13.84    0.50
   5  -4   2   13.67    0.46
   5  -4   2   14.20    0.48
   5  -4   2   15.11    0.41
  -6   4  -2    6.80    0.30
   6  -4   2    6.50    0.26
   6  -4   2    6.62    0.29
  -7   4  -2    2.01    0.17
   7  -4   2    2.10    0.15
   7  -4   2    2.18    0.17
  -8   4  -2    7.98    0.39
   8  -4   2    8.04    0.33
   8  -4   2    8.43    0.37
  -9   4  -2    3.66    0.24
   9  -4   2    3.14    0.20
   9  -4   2    3.48    0.23
 -10  -3   2    2.20    0.19
  -9  -3   2    0.06    0.08
   8   3  -2    7.64    0.36
  -8  -3   2    7.07    0.33
   7   3  -2    2.63    0.19
   7   3  -2    2.53    0.16
  -7  -3   2    2.63    0.17
   6   3  -2    9.09    0.38
   6   3  -2    9.35    0.36
  -6  -3   2    9.14    0.41
  -6  -3   2    9.60    0.30
   5   3  -2    7.95    0.31
   5   3  -2    8.51    0.37
   5   3  -2    8.86    0.36
   5   3  -2    8.37    0.34
  -5  -3   2    8.15    0.27
  -5  -3   2    7.57    0.32
  -5  -3   2    7.95    0.36
  -5  -3   2    8.01    0.34
   4   3  -2    3.27    0.16
   4   3  -2    2.83    0.17
   4   3  -2    3.12    0.16
   4   3  -2    3.06    0.18
  -4  -3   2    3.41    0.19
  -4  -3   2    3.04    0.13
  -4  -3   2    3.20    0.16
  -4  -3   2    3.36    0.16
  -4  -3   2    3.34    0.17
   3   3  -2   21.50    0.87
   3   3  -2   27.49    0.89
   3   3  -2   25.58    0.78
   3   3  -2   26.39    0.83
  -3  -3   2   25.51    0.74
  -3  -3   2   25.07    0.88
  -3  -3   2   26.17    0.85
  -3  -3   2   25.73    0.78
  -3  -3   2   26.85    0.83
  -3  -3   2   25.71    0.88
   2   3  -2   30.08    1.03
   2   3  -2   29.43    0.96
   2   3  -2   33.31    0.97
  -2  -3   2   30.79    0.87
  -2  -3   2   30.52    1.02
  -2  -3   2   30.09    0.96
  -2  -3   2   30.71    0.91
  -2  -3   2   29.86    0.99
  -2  -3   2   30.93    1.03
   1   3  -2   24.31    0.81
   1   3  -2   23.01    0.76
   1   3  -2   24.31    0.72
   1   3  -2   24.93    0.81
  -1  -3   2   23.18    0.68
  -1  -3   2   24.50    0.81
  -1  -3   2   25.20    0.76
  -1  -3   2   24.40    0.72
  -1  -3   2   24.56    0.81
   0   3  -2   22.97    0.81
   0   3  -2   24.21    0.75
   0   3  -2   24.77    0.73
   0   3  -2   23.23    0.81
   0   3  -2   25.38    0.75
   0   3  -2   23.63    0.71
   0  -3   2   25.67    0.76
   0  -3   2   23.91    0.72
   0  -3   2   27.02    0.81
  -1   3  -2    0.52    0.05
  -1   3  -2    0.50    0.05
   1  -3   2    0.57    0.05
   1  -3   2    0.57    0.04
   1  -3   2    0.52    0.05
   1  -3   2    0.43    0.04
  -2   3  -2   89.25    2.56
  -2   3  -2   87.87    2.80
   2  -3   2   86.89    2.63
   2  -3   2   87.00    2.48
   2  -3   2   87.44    2.56
  -3   3  -2   55.80    1.80
   3  -3   2   55.33    1.66
   3  -3   2   56.16    1.59
   3  -3   2   55.42    1.69
  -4   3  -2   13.75    0.49
   4  -3   2   13.19    0.42
   4  -3   2   13.09    0.46
   4  -3   2   13.67    0.44
  -5   3  -2   11.19    0.43
   5  -3   2   10.84    0.41
   5  -3   2   11.63    0.38
   5  -3   2   11.53    0.40
   5  -3   2   11.46    0.33
  -6   3  -2    0.82    0.10
   6  -3   2    0.84    0.11
   6  -3   2    0.82    0.09
  -7   3  -2   23.11    0.85
   7  -3   2   23.06    0.75
   7  -3   2   23.74    0.79
  -8   3  -2   18.53    0.72
   8  -3   2   18.56    0.68
   8  -3   2   18.93    0.64
  -9   3  -2    1.17    0.16
   9  -3   2    0.97    0.14
   9  -3   2    0.73    0.11
 -10  -2   2    0.12    0.09
  -9  -2   2    6.93    0.33
   8   2  -2    7.88    0.32
   8   2  -2    7.98    0.37
  -8  -2   2    8.04    0.35
   7   2  -2    1.82    0.15
   7   2  -2    1.98    0.13
  -7  -2   2    1.56    0.14
   6   2  -2    4.69    0.21
   6   2  -2    5.25    0.27
   6   2  -2    4.45    0.23
   6   2  -2    5.03    0.23
  -6  -2   2    4.64    0.17
  -6  -2   2    5.13    0.24
  -6  -2   2    5.27    0.26
   5   2  -2    3.25    0.18
   5   2  -2    3.04    0.18
   5   2  -2    2.63    0.15
   5   2  -2    2.67    0.16
  -5  -2   2    2.78    0.17
  -5  -2   2    2.86    0.12
   4   2  -2   60.22    1.96
   4   2  -2   58.08    1.73
   4   2  -2   58.46    1.95
   4   2  -2   61.37    1.84
  -4  -2   2   57.57    1.66
  -4  -2   2   60.10    1.73
  -4  -2   2   58.91    1.95
  -4  -2   2   59.65    1.84
   3   2  -2   59.20    1.84
   3   2  -2   58.20    1.95
   3   2  -2   61.77    1.73
   3   2  -2   60.19    1.96
  -3  -2   2   58.54    1.95
  -3  -2   2   61.71    1.84
  -3  -2   2   61.06    1.73
  -3  -2   2   57.44    1.93
  -3  -2   2   60.78    1.67
   2   2  -2    2.14    0.10
   2   2  -2    2.11    0.12
   2   2  -2    2.26    0.10
  -2  -2   2    2.35    0.12
  -2  -2   2    2.34    0.10
  -2  -2   2    2.32    0.12
  -2  -2   2    2.36    0.09
  -2  -2   2    2.32    0.10
  -2  -2   2    2.29    0.11
   1   2  -2   34.34    1.07
   1   2  -2   32.60    1.00
   1   2  -2   33.67    0.94
   1   2  -2   32.88    1.07
  -1  -2   2   31.92    1.06
  -1  -2   2   30.74    0.94
  -1  -2   2   31.74    0.91
  -1  -2   2   32.58    1.07
  -1  -2   2   33.61    1.00
   0   2  -2    6.85    0.25
   0   2  -2    7.32    0.22
   0   2  -2    7.28    0.23
   0   2  -2    7.92    0.26
   0  -2   2    7.12    0.22
   0  -2   2    7.55    0.23
   0  -2   2    7.63    0.23
   0  -2   2    7.50    0.25
  -1   2  -2   66.91    2.10
   1  -2   2   66.27    1.86
   1  -2   2   69.41    1.86
   1  -2   2   67.04    1.92
   1  -2   2   60.43    2.09
  -2   2  -2   82.71    2.65
   2  -2   2   83.66    2.35
   2  -2   2   83.50    2.65
  -3   2  -2    6.72    0.26
   3  -2   2    6.82    0.22
   3  -2   2    6.85    0.25
   3  -2   2    6.76    0.23
  -4   2  -2    0.26    0.05
   4  -2   2    0.21    0.04
   4  -2   2    0.24    0.06
   4  -2   2    0.22    0.04
  -5   2  -2    3.45    0.18
   5  -2   2    3.40    0.15
   5  -2   2    3.33    0.15
   5  -2   2    3.20    0.18
  -6   2  -2    9.73    0.39
   6  -2   2    9.08    0.34
   6  -2   2    9.22    0.37
  -7   2  -2    4.52    0.25
   7  -2   2    4.56    0.22
   7  -2   2    5.09    0.25
  -8   2  -2    0.74    0.12
   8  -2   2    0.64    0.12
   8  -2   2    0.51    0.10
  -9   2  -2    0.33    0.10
   9  -2   2    0.21    0.08
   9  -2   2    0.38    0.11
  10  -2   2    2.10    0.21
 -10  -1   2    5.49    0.28
   9   1  -2    2.27    0.17
  -9  -1   2    2.57    0.18
   8   1  -2    0.13    0.08
   8   1  -2    0.10    0.07
  -8  -1   2    0.15    0.07
   7   1  -2    0.70    0.09
   7   1  -2    0.79    0.10
   7   1  -2    0.68    0.10
  -7  -1   2    0.67    0.10
  -7  -1   2    0.66    0.11
   6   1  -2    2.67    0.18
   6   1  -2    2.50    0.15
   6   1  -2    2.09    0.14
   6   1  -2    2.33    0.13
   6   1  -2    2.70    0.18
  -6  -1   2    2.71    0.16
  -6  -1   2    2.79    0.18
  -6  -1   2    2.42    0.10
   5   1  -2   49.36    1.65
   5   1  -2   50.19    1.46
   5   1  -2   49.44    1.55
   5   1  -2   48.92    1.65
   5   1  -2   48.26    1.46
  -5  -1   2   50.20    1.65
  -5  -1   2   48.59    1.38
  -5  -1   2   50.23    1.55
  -5  -1   2   48.00    1.54
   4   1  -2   46.73    1.38
   4   1  -2   47.22    1.38
   4   1  -2   47.02    1.55
   4   1  -2   48.53    1.46
   4   1  -2   47.72    1.56
  -4  -1   2   46.51    1.31
  -4  -1   2   48.23    1.38
  -4  -1   2   45.13    1.55
  -4  -1   2   44.75    1.46
   3   1  -2    6.40    0.24
   3   1  -2    6.06    0.22
   3   1  -2    6.06    0.25
   3   1  -2    6.46    0.26
   3   1  -2    6.35    0.21
  -3  -1   2    6.34    0.20
  -3  -1   2    6.54    0.24
  -3  -1   2    6.27    0.24
  -3  -1   2    6.66    0.26
  -3  -1   2    6.35    0.23
   2   1  -2   32.30    1.00
   2   1  -2   32.64    0.94
   2   1  -2   32.61    1.00
   2   1  -2   30.71    1.06
  -2  -1   2   32.97    1.00
  -2  -1   2   32.18    0.94
  -2  -1   2   33.24    1.00
  -2  -1   2   32.84    1.06
  -2  -1   2   32.28    0.91
   1   1  -2    9.12    0.32
   1   1  -2    8.92    0.29
   1   1  -2    9.07    0.28
  -1  -1   2    9.67    0.26
  -1  -1   2    9.44    0.26
  -1  -1   2    9.25    0.32
  -1  -1   2    8.85    0.28
  -1  -1   2    8.88    0.29
  -1  -1   2    9.66    0.29
   0   1  -2   73.33    2.61
   0   1  -2   90.78    2.60
  -1   1  -2  108.03    3.37
  -1   1  -2  104.92    3.38
  -2   1  -2    3.11    0.15
  -2   1  -2    3.08    0.13
   2  -1   2    3.07    0.11
   2  -1   2    3.20    0.12
   2  -1   2    3.26    0.12
   2  -1   2    3.11    0.11
  -3   1  -2   26.10    0.91
  -3   1  -2   27.30    0.90
   3  -1   2   27.67    0.84
   3  -1   2   26.80    0.79
  -4   1  -2   18.19    0.64
  -4   1  -2   17.98    0.56
  -4   1  -2   17.93    0.66
   4  -1   2   18.65    0.56
   4  -1   2   18.67    0.59
  -5   1  -2   35.01    1.05
  -5   1  -2   33.63    1.17
  -5   1  -2   34.48    1.05
   5  -1   2   34.26    1.03
   5  -1   2   34.56    1.09
  -6   1  -2   24.29    0.89
  -6   1  -2   25.11    0.77
  -6   1  -2   24.99    0.77
   6  -1   2   25.07    0.83
   6  -1   2   25.75    0.83
   6  -1   2   24.68    0.79
  -7   1  -2    0.01    0.06
   7  -1   2    0.06    0.07
   7  -1   2    0.01    0.06
  -8   1  -2    5.82    0.31
   8  -1   2    5.24    0.28
   8  -1   2    5.34    0.26
   9  -1   2    1.92    0.19
   9  -1   2    1.85    0.17
  10  -1   2    0.85    0.15
 -10   0   2    5.26    0.26
   9   0  -2    0.14    0.08
  -9   0   2    0.12    0.07
   8   0  -2   14.01    0.54
   8   0  -2   13.59    0.49
  -8   0   2   14.14    0.52
   7   0  -2   21.25    0.70
   7   0  -2   21.66    0.75
   7   0  -2   21.63    0.71
  -7   0   2   21.42    0.81
  -7   0   2   21.79    0.74
   6   0  -2   30.08    1.01
   6   0  -2   30.84    1.09
   6   0  -2   31.30    0.96
   6   0  -2   31.23    0.96
   6   0  -2   30.10    1.09
  -6   0   2   31.40    0.88
  -6   0   2   32.41    1.10
  -6   0   2   31.91    1.01
  -6   0   2   31.36    1.01
   5   0  -2   34.00    1.02
   5   0  -2   33.75    1.16
   5   0  -2   34.36    1.16
   5   0  -2   33.50    1.08
   5   0  -2   33.64    1.03
  -5   0   2   34.13    1.16
  -5   0   2   33.76    0.96
  -5   0   2   33.97    1.08
  -5   0   2   34.19    1.08
   4   0  -2    4.74    0.19
   4   0  -2    4.68    0.20
   4   0  -2    5.31    0.22
   4   0  -2    4.55    0.18
  -4   0   2    4.71    0.16
  -4   0   2    4.94    0.22
  -4   0   2    4.72    0.20
  -4   0   2    4.89    0.19
  -4   0   2    4.66    0.20
   3   0  -2   68.75    1.89
   3   0  -2   65.04    1.87
   3   0  -2   64.72    1.98
   3   0  -2   62.43    2.11
  -3   0   2   64.63    1.99
  -3   0   2   65.75    1.87
  -3   0   2   65.76    1.80
  -3   0   2   65.35    1.98
  -3   0   2   63.45    2.11
   2   0  -2   12.04    0.39
   2   0  -2   11.99    0.39
   2   0  -2   11.74    0.35
  -2   0   2   11.97    0.36
  -2   0   2   12.27    0.39
  -2   0   2   12.26    0.39
  -2   0   2   11.72    0.35
  -2   0   2   11.97    0.42
  -2   0   2   12.53    0.37
   1   0  -2   15.33    0.49
   1   0  -2   15.33    0.43
  -1   0   2   16.96    0.41
  -1   0   2   12.85    0.46
  -1   0   2   14.26    0.49
  -1   0   2   14.54    0.43
   0   0   2   25.24    0.80
  -1   0  -2   19.79    0.64
  -1   0  -2   19.06    0.64
   1   0   2   19.90    0.64
   1   0   2   19.66    0.64
   1   0   2   19.22    0.59
  -2   0  -2   43.17    1.42
  -2   0  -2   42.99    1.44
  -2   0  -2   43.96    1.42
  -2   0  -2   44.41    1.32
   2   0   2   45.01    1.26
   2   0   2   45.07    1.42
   2   0   2   45.04    1.42
   2   0   2   42.88    1.34
  -3   0  -2   35.70    1.20
  -3   0  -2   35.91    1.20
  -3   0  -2   36.17    1.22
  -3   0  -2   36.49    1.11
  -3   0  -2   36.34    1.11
   3   0   2   36.05    1.13
   3   0   2   35.89    1.06
   3   0   2   36.82    1.19
   3   0   2   38.44    1.00
   3   0   2   36.01    1.00
  -4   0  -2   25.51    0.90
  -4   0  -2   25.95    0.80
  -4   0  -2   25.86    0.80
  -4   0  -2   25.38    0.88
   4   0   2   26.47    0.83
   4   0   2   25.44    0.78
  -5   0  -2   13.96    0.52
  -5   0  -2   13.83    0.46
  -5   0  -2   13.57    0.45
  -5   0  -2   14.04    0.54
   5   0   2   13.88    0.49
   5   0   2   13.94    0.46
  -6   0  -2    0.13    0.04
  -6   0  -2    0.13    0.04
  -6   0  -2    0.16    0.07
   6   0   2    0.18    0.06
  -7   0  -2   12.62    0.42
  -7   0  -2   12.67    0.42
  -7   0  -2   13.01    0.53
   7   0   2   12.74    0.47
   7   0   2   13.13    0.49
  -8   0  -2    6.24    0.34
   8   0   2    6.37    0.30
   8   0   2    6.72    0.32
   9   0   2    2.20    0.20
  11  -1  -2    1.23    0.13
 -11   1   2    1.29    0.13
  10  -1  -2    0.47    0.11
 -10   1   2    0.36    0.09
   9  -1  -2    4.76    0.24
  -9   1   2    4.30    0.23
   8  -1  -2    3.88    0.20
   8  -1  -2    3.90    0.21
   8  -1  -2    3.70    0.22
  -8   1   2    3.94    0.25
  -8   1   2    3.68    0.20
   7  -1  -2    5.95    0.26
   7  -1  -2    6.24    0.28
   7  -1  -2    6.25    0.26
  -7   1   2    6.05    0.27
  -7   1   2    5.84    0.31
   6  -1  -2   16.26    0.53
   6  -1  -2   16.14    0.52
   6  -1  -2   15.96    0.55
  -6   1   2   13.43    0.53
  -6   1   2   16.14    0.55
  -6   1   2   16.33    0.60
  -6   1   2   15.94    0.45
   5  -1  -2    3.21    0.18
   5  -1  -2    3.07    0.16
   5  -1  -2    2.96    0.15
   5  -1  -2    2.93    0.14
  -5   1   2    3.25    0.18
  -5   1   2    3.00    0.15
  -5   1   2    3.00    0.15
  -5   1   2    3.17    0.12
   4  -1  -2   89.53    2.63
   4  -1  -2   84.81    2.58
   4  -1  -2   91.06    2.75
   4  -1  -2   93.14    2.92
  -4   1   2   91.14    2.75
  -4   1   2   90.38    2.74
  -4   1   2   91.06    2.49
  -4   1   2   90.74    2.92
   3  -1  -2   59.31    1.71
   3  -1  -2   59.72    1.82
   3  -1  -2   62.32    1.94
   3  -1  -2   57.40    1.65
  -3   1   2   62.48    1.94
  -3   1   2   58.60    1.82
  -3   1   2   58.75    1.71
  -3   1   2   59.59    1.74
  -3   1   2   57.28    1.82
  -3   1   2   60.56    1.65
   2  -1  -2    0.37    0.05
   2  -1  -2    0.65    0.05
   2  -1  -2    0.57    0.04
   2  -1  -2    0.56    0.05
   2  -1  -2    0.60    0.05
  -2   1   2    0.57    0.05
  -2   1   2    0.54    0.04
  -2   1   2    0.63    0.06
  -2   1   2    0.70    0.05
  -2   1   2    0.49    0.04
   1  -1  -2    0.17    0.03
   1  -1  -2    0.35    0.03
   1  -1  -2    0.13    0.03
  -1   1   2    0.15    0.02
  -1   1   2    0.21    0.02
  -1   1   2    0.22    0.04
  -1   1   2    0.19    0.03
  -1   1   2    0.20    0.03
   0  -1  -2   87.30    2.62
   0  -1  -2   82.40    2.47
   0  -1  -2   82.85    2.47
   0   1   2   82.31    2.62
   0   1   2   78.92    2.47
   0   1   2   79.68    2.47
  -1  -1  -2    1.43    0.06
  -1  -1  -2    1.48    0.08
  -1  -1  -2    1.44    0.06
  -1  -1  -2    1.35    0.08
   1   1   2    1.48    0.08
   1   1   2    1.33    0.07
   1   1   2    1.48    0.08
  -2  -1  -2   51.85    1.67
  -2  -1  -2   53.78    1.57
  -2  -1  -2   50.90    1.67
   2   1   2   52.15    1.42
   2   1   2   52.88    1.42
   2   1   2   51.66    1.67
   2   1   2   50.09    1.67
   2   1   2   51.65    1.49
   2   1   2   49.43    1.58
  -3  -1  -2    3.27    0.17
  -3  -1  -2    2.94    0.13
  -3  -1  -2    3.17    0.16
  -3  -1  -2    2.89    0.13
  -3  -1  -2    3.07    0.15
   3   1   2    3.08    0.15
   3   1   2    3.09    0.11
   3   1   2    2.89    0.13
   3   1   2    3.17    0.14
  -4  -1  -2    3.33    0.19
  -4  -1  -2    2.92    0.17
  -4  -1  -2    3.40    0.17
  -4  -1  -2    3.09    0.14
  -4  -1  -2    3.04    0.13
   4   1   2    3.14    0.16
   4   1   2    2.93    0.15
  -5  -1  -2    0.10    0.04
  -5  -1  -2    0.09    0.05
  -5  -1  -2    0.10    0.06
  -5  -1  -2    0.05    0.04
   5   1   2    0.03    0.05
   5   1   2    0.07    0.05
  -6  -1  -2   18.97    0.62
  -6  -1  -2   18.23    0.62
  -6  -1  -2   18.96    0.73
  -6  -1  -2   19.44    0.72
   6   1   2   19.18    0.63
  -7  -1  -2   10.84    0.46
  -7  -1  -2    9.68    0.35
  -7  -1  -2    9.78    0.36
   7   1   2   10.39    0.40
  -8  -1  -2    0.29    0.06
   8   1   2    0.45    0.10
   8   1   2    0.38    0.10
   9   1   2    0.45    0.12
  11  -2  -2    0.59    0.10
 -11   2   2    0.60    0.10
  10  -2  -2    7.81    0.35
  10  -2  -2    7.97    0.31
 -10   2   2    7.63    0.33
   9  -2  -2   14.49    0.52
  -9   2   2   13.77    0.52
   8  -2  -2    2.29    0.15
   8  -2  -2    2.05    0.15
   8  -2  -2    2.00    0.15
  -8   2   2    1.95    0.14
  -8   2   2    2.21    0.18
   7  -2  -2   -0.04    0.05
   7  -2  -2    0.09    0.06
   7  -2  -2    0.08    0.05
  -7   2   2   -0.04    0.05
  -7   2   2   -0.02    0.06
   6  -2  -2   10.92    0.38
   6  -2  -2   10.87    0.39
   6  -2  -2   11.03    0.40
  -6   2   2   11.12    0.45
  -6   2   2   10.78    0.31
  -6   2   2   10.58    0.40
   5  -2  -2   16.26    0.53
   5  -2  -2   15.98    0.51
   5  -2  -2   15.66    0.58
   5  -2  -2   15.47    0.50
  -5   2   2   15.19    0.45
  -5   2   2   15.49    0.53
  -5   2   2   15.61    0.58
  -5   2   2   15.55    0.52
  -5   2   2   15.72    0.53
   4  -2  -2   46.52    1.52
   4  -2  -2   47.63    1.35
   4  -2  -2   45.78    1.29
   4  -2  -2   46.61    1.43
  -4   2   2   45.26    1.52
  -4   2   2   45.49    1.43
  -4   2   2   45.94    1.37
  -4   2   2   45.28    1.42
  -4   2   2   45.90    1.28
   3  -2  -2    5.71    0.24
   3  -2  -2    5.67    0.21
   3  -2  -2    6.00    0.21
   3  -2  -2    5.76    0.19
  -3   2   2    5.91    0.19
  -3   2   2    5.95    0.21
  -3   2   2    5.67    0.22
  -3   2   2    6.03    0.24
  -3   2   2    5.83    0.21
  -3   2   2    5.96    0.20
   2  -2  -2    0.95    0.05
   2  -2  -2    0.93    0.07
   2  -2  -2    0.90    0.06
   2  -2  -2    0.77    0.07
   2  -2  -2    0.95    0.07
  -2   2   2    1.00    0.05
  -2   2   2    0.92    0.07
  -2   2   2    0.96    0.07
  -2   2   2    1.03    0.06
  -2   2   2    0.91    0.07
   1  -2  -2   40.85    1.25
   1  -2  -2   40.93    1.24
   1  -2  -2   40.06    1.13
  -1   2   2   39.31    1.25
  -1   2   2   41.78    1.24
  -1   2   2   41.44    1.32
  -1   2   2   40.84    1.13
   0  -2  -2  985.22   29.56
   0  -2  -2  970.70   31.28
   0   2   2 1000.00   27.02
   0   2   2  994.66   31.27
   0   2   2  971.02   29.54
  -1  -2  -2    6.11    0.26
  -1  -2  -2    6.92    0.26
  -1  -2  -2    6.50    0.23
   1   2   2    6.81    0.24
   1   2   2    6.67    0.20
   1   2   2    6.57    0.23
   1   2   2    6.70    0.25
   1   2   2    6.95    0.26
  -2  -2  -2   12.78    0.41
  -2  -2  -2   12.27    0.40
  -2  -2  -2   12.09    0.44
  -2  -2  -2   12.20    0.45
   2   2   2   11.63    0.40
   2   2   2   12.21    0.36
   2   2   2   12.21    0.45
   2   2   2   12.29    0.42
   2   2   2   12.49    0.44
  -3  -2  -2   -0.01    0.04
  -3  -2  -2    0.01    0.03
  -3  -2  -2    0.02    0.04
  -3  -2  -2   -0.03    0.04
  -3  -2  -2    0.03    0.03
   3   2   2   -0.01    0.04
   3   2   2    0.04    0.04
   3   2   2    0.01    0.04
  -4  -2  -2    1.89    0.13
  -4  -2  -2    1.75    0.10
  -4  -2  -2    1.83    0.14
  -4  -2  -2    1.75    0.11
  -4  -2  -2    1.80    0.13
   4   2   2    1.62    0.11
   4   2   2    1.80    0.12
  -5  -2  -2    2.74    0.15
  -5  -2  -2    2.85    0.18
  -5  -2  -2    2.65    0.18
  -5  -2  -2    2.66    0.14
  -5  -2  -2    3.00    0.20
   5   2   2    2.56    0.16
   5   2   2    2.82    0.16
  -6  -2  -2   16.48    0.65
  -6  -2  -2   17.11    0.67
  -6  -2  -2   16.21    0.56
   6   2   2   16.85    0.58
  -7  -2  -2    0.02    0.08
  -7  -2  -2    0.02    0.06
  -7  -2  -2   -0.02    0.05
   7   2   2   -0.05    0.07
  -8  -2  -2    1.14    0.10
  -9  -2  -2    2.58    0.12
   9   2   2    2.56    0.21
  11  -3  -2    3.04    0.19
 -11   3   2    3.10    0.18
  10  -3  -2    3.63    0.19
 -10   3   2    3.34    0.20
   9  -3  -2    0.20    0.08
   9  -3  -2   -0.02    0.05
  -9   3   2   -0.11    0.06
   8  -3  -2    1.91    0.15
   8  -3  -2    1.78    0.11
   8  -3  -2    1.95    0.14
   8  -3  -2    1.56    0.14
  -8   3   2    1.68    0.13
  -8   3   2    1.99    0.18
   7  -3  -2   11.56    0.41
   7  -3  -2   11.04    0.43
   7  -3  -2   11.21    0.42
   7  -3  -2   11.61    0.37
  -7   3   2   11.60    0.48
  -7   3   2   11.08    0.42
   6  -3  -2   45.79    1.44
   6  -3  -2   44.45    1.30
   6  -3  -2   44.93    1.36
  -6   3   2   46.48    1.44
  -6   3   2   46.31    1.55
   5  -3  -2   47.96    1.36
   5  -3  -2   48.37    1.51
   5  -3  -2   47.52    1.42
   5  -3  -2   49.52    1.61
  -5   3   2   49.43    1.62
  -5   3   2   45.70    1.34
  -5   3   2   50.35    1.51
   4  -3  -2    5.54    0.20
   4  -3  -2    5.51    0.18
   4  -3  -2    5.20    0.24
   4  -3  -2    5.48    0.21
  -4   3   2    5.22    0.21
  -4   3   2    5.36    0.21
  -4   3   2    5.40    0.21
  -4   3   2    5.01    0.17
  -4   3   2    5.17    0.24
   3  -3  -2   10.88    0.35
   3  -3  -2   10.96    0.37
   3  -3  -2   10.59    0.32
   3  -3  -2   10.92    0.40
  -3   3   2   11.05    0.37
  -3   3   2   10.40    0.32
  -3   3   2   11.09    0.37
  -3   3   2   10.67    0.40
  -3   3   2   10.45    0.36
  -3   3   2   10.74    0.35
   2  -3  -2   11.00    0.36
   2  -3  -2   10.90    0.32
   2  -3  -2   10.59    0.39
  -2   3   2   10.83    0.37
  -2   3   2   11.00    0.36
  -2   3   2   10.56    0.39
  -2   3   2   10.91    0.34
  -2   3   2   10.80    0.32
   1  -3  -2   35.64    1.12
   1  -3  -2   37.21    1.02
   1  -3  -2   36.54    1.13
  -1   3   2   37.01    1.20
  -1   3   2   36.39    1.13
  -1   3   2   35.57    1.02
   0  -3  -2  110.43    3.18
   0  -3  -2  104.50    2.89
   0  -3  -2  102.51    3.17
   0   3   2  103.75    2.90
   0   3   2  105.05    3.18
   0   3   2  103.68    3.37
  -1  -3  -2    0.74    0.09
  -1  -3  -2    0.66    0.07
  -1  -3  -2    0.73    0.05
  -1  -3  -2    0.82    0.07
   1   3   2    0.65    0.07
   1   3   2    0.66    0.06
   1   3   2    0.73    0.08
   1   3   2    0.82    0.08
   1   3   2    0.94    0.09
  -2  -3  -2   53.05    1.68
  -2  -3  -2   56.50    1.79
  -2  -3  -2   53.44    1.80
  -2  -3  -2   55.13    1.50
   2   3   2   53.53    1.60
   2   3   2   54.86    1.79
   2   3   2   54.67    1.80
   2   3   2   55.13    1.69
  -3  -3  -2   26.05    0.91
  -3  -3  -2   26.20    0.83
  -3  -3  -2   26.46    0.91
  -3  -3  -2   25.69    0.84
   3   3   2   25.88    0.85
   3   3   2   26.12    0.91
   3   3   2   25.80    0.81
  -4  -3  -2    8.28    0.35
  -4  -3  -2    7.84    0.31
  -4  -3  -2    8.38    0.31
  -4  -3  -2    8.61    0.36
  -4  -3  -2    7.92    0.35
   4   3   2    8.06    0.31
   4   3   2    8.20    0.33
  -5  -3  -2    0.90    0.10
  -5  -3  -2    0.81    0.11
  -5  -3  -2    0.89    0.13
  -5  -3  -2    1.01    0.12
  -5  -3  -2    0.82    0.09
   5   3   2    0.87    0.11
   5   3   2    0.97    0.12
  -6  -3  -2    0.96    0.13
  -6  -3  -2    0.97    0.10
  -6  -3  -2    1.16    0.15
   6   3   2    0.97    0.12
  -7  -3  -2    9.50    0.45
  -7  -3  -2    8.37    0.34
  -8  -3  -2    4.75    0.22
  -9  -3  -2    0.88    0.09
  11  -4  -2    1.52    0.14
 -11   4   2    1.93    0.13
  10  -4  -2    0.45    0.09
 -10   4   2    0.50    0.09
   9  -4  -2    8.60    0.32
  -9   4   2    8.76    0.35
   8  -4  -2    1.26    0.10
   8  -4  -2    1.32    0.13
  -8   4   2    1.32    0.16
  -8   4   2    1.31    0.12
   7  -4  -2   13.48    0.49
   7  -4  -2   13.04    0.43
   7  -4  -2   13.14    0.47
  -7   4   2   13.73    0.49
  -7   4   2   13.48    0.54
   6  -4  -2   10.88    0.39
   6  -4  -2   11.13    0.41
   6  -4  -2   11.18    0.35
  -6   4   2   11.47    0.45
  -6   4   2   10.20    0.39
  -6   4   2   10.78    0.40
   5  -4  -2    0.93    0.07
   5  -4  -2    1.10    0.11
   5  -4  -2    0.98    0.09
   5  -4  -2    0.87    0.08
  -5   4   2    1.03    0.09
  -5   4   2    0.86    0.10
  -5   4   2    0.97    0.05
   4  -4  -2   50.53    1.41
   4  -4  -2   48.17    1.55
   4  -4  -2   52.20    1.46
   4  -4  -2   50.81    1.66
  -4   4   2   49.67    1.55
  -4   4   2   49.19    1.39
  -4   4   2   49.83    1.55
  -4   4   2   49.80    1.66
   3  -4  -2    0.29    0.06
   3  -4  -2    0.33    0.04
   3  -4  -2    0.42    0.05
  -3   4   2    0.38    0.06
  -3   4   2    0.38    0.04
  -3   4   2    0.44    0.05
  -3   4   2    0.38    0.06
   2  -4  -2   11.28    0.39
   2  -4  -2   11.48    0.35
   2  -4  -2   12.19    0.43
  -2   4   2   11.46    0.43
  -2   4   2   11.68    0.35
  -2   4   2   11.87    0.39
  -2   4   2   11.40    0.40
   1  -4  -2    5.22    0.17
   1  -4  -2    4.60    0.22
   1  -4  -2    5.40    0.21
  -1   4   2    5.53    0.23
  -1   4   2    5.03    0.17
  -1   4   2    5.15    0.20
   0  -4  -2   16.14    0.55
   0  -4  -2   16.61    0.49
   0  -4  -2   18.12    0.56
   0   4   2   16.35    0.56
   0   4   2   17.41    0.50
   0   4   2   16.58    0.60
   0   4   2   16.86    0.60
  -1  -4  -2   25.11    0.71
  -1  -4  -2   24.49    0.81
  -1  -4  -2   23.48    0.87
  -1  -4  -2   25.61    0.80
   1   4   2   25.64    0.87
   1   4   2   25.36    0.82
   1   4   2   24.82    0.86
   1   4   2   25.21    0.77
  -2  -4  -2  102.57    2.86
  -2  -4  -2  103.25    3.17
  -2  -4  -2   98.11    3.36
  -2  -4  -2  106.00    3.36
  -2  -4  -2  102.08    3.16
   2   4   2  105.88    3.18
   2   4   2  106.49    2.99
   2   4   2  103.94    3.37
   2   4   2  106.57    3.36
  -3  -4  -2    5.50    0.27
  -3  -4  -2    5.75    0.23
  -3  -4  -2    5.80    0.27
  -3  -4  -2    5.09    0.17
   3   4   2    5.43    0.24
   3   4   2    6.01    0.25
   3   4   2    5.67    0.27
  -4  -4  -2    1.91    0.16
  -4  -4  -2    1.76    0.13
  -4  -4  -2    1.77    0.15
  -4  -4  -2    1.96    0.16
  -4  -4  -2    2.03    0.13
   4   4   2    1.83    0.13
   4   4   2    1.79    0.14
  -5  -4  -2    0.73    0.12
  -5  -4  -2    0.50    0.10
  -5  -4  -2    0.58    0.11
   5   4   2    0.52    0.09
   5   4   2    0.73    0.11
  -6  -4  -2    8.04    0.33
  -6  -4  -2    8.05    0.40
   6   4   2    8.51    0.36
  -7  -4  -2    3.09    0.18
  -7  -4  -2    3.67    0.27
  -8  -4  -2    2.08    0.15
  -8  -4  -2    1.87    0.22
  11  -5  -2    0.39    0.09
 -11   5   2    0.24    0.07
  10  -5  -2    5.56    0.25
 -10   5   2    5.84    0.25
   9  -5  -2    5.52    0.24
  -9   5   2    5.68    0.25
   8  -5  -2    0.25    0.06
   8  -5  -2    0.29    0.07
  -8   5   2    0.25    0.07
  -8   5   2    0.27    0.09
   7  -5  -2    0.76    0.09
   7  -5  -2    0.69    0.09
   7  -5  -2    0.83    0.08
  -7   5   2    0.77    0.09
  -7   5   2    0.80    0.12
   6  -5  -2   10.46    0.34
   6  -5  -2   10.61    0.38
   6  -5  -2   10.49    0.39
  -6   5   2   10.16    0.44
  -6   5   2   10.07    0.38
  -6   5   2   10.22    0.39
   5  -5  -2   43.04    1.21
   5  -5  -2   41.54    1.34
   5  -5  -2   42.48    1.26
  -5   5   2   41.60    1.44
  -5   5   2   42.95    1.34
   4  -5  -2   19.86    0.66
   4  -5  -2   20.18    0.59
   4  -5  -2   20.64    0.72
  -4   5   2   20.53    0.72
  -4   5   2   19.68    0.57
  -4   5   2   19.63    0.66
  -4   5   2   19.83    0.66
   3  -5  -2    0.00    0.02
   3  -5  -2    0.02    0.03
   3  -5  -2   -0.05    0.04
  -3   5   2    0.01    0.02
  -3   5   2    0.00    0.03
  -3   5   2   -0.01    0.03
  -3   5   2    0.06    0.04
   2  -5  -2    4.34    0.21
   2  -5  -2    4.45    0.19
   2  -5  -2    4.76    0.17
  -2   5   2    4.80    0.22
  -2   5   2    4.32    0.20
  -2   5   2    4.48    0.19
  -2   5   2    5.09    0.17
   1  -5  -2    5.56    0.19
   1  -5  -2    5.76    0.25
   1  -5  -2    5.29    0.22
  -1   5   2    5.48    0.19
  -1   5   2    5.60    0.25
  -1   5   2    5.36    0.23
   0  -5  -2   47.13    1.46
   0  -5  -2   44.18    1.31
   0   5   2   49.27    1.56
   0   5   2   47.01    1.38
   0   5   2   46.26    1.46
   0   5   2   45.68    1.56
  -1  -5  -2   29.03    0.95
  -1  -5  -2   29.64    0.84
  -1  -5  -2   30.14    0.95
   1   5   2   28.71    1.02
   1   5   2   28.20    0.90
   1   5   2   30.29    1.02
   1   5   2   28.95    0.95
  -2  -5  -2    8.17    0.26
  -2  -5  -2    8.06    0.31
  -2  -5  -2    8.50    0.33
  -2  -5  -2    8.10    0.36
   2   5   2    8.18    0.31
   2   5   2    7.87    0.32
   2   5   2    7.86    0.35
   2   5   2    8.08    0.35
  -3  -5  -2    0.94    0.10
  -3  -5  -2    0.58    0.08
  -3  -5  -2    0.70    0.05
  -3  -5  -2    0.94    0.11
  -3  -5  -2    0.61    0.10
   3   5   2    0.70    0.10
   3   5   2    0.72    0.10
   3   5   2    1.02    0.12
  -4  -5  -2    3.31    0.21
  -4  -5  -2    3.57    0.19
  -4  -5  -2    3.74    0.23
  -4  -5  -2    3.23    0.22
   4   5   2    3.38    0.21
   4   5   2    3.04    0.19
  -5  -5  -2    8.91    0.35
  -5  -5  -2    8.78    0.42
   5   5   2    8.56    0.38
   5   5   2    8.00    0.36
  -6  -5  -2    4.94    0.31
  -6  -5  -2    4.91    0.24
  -7  -5  -2    0.08    0.07
  -7  -5  -2    0.10    0.10
  -8  -5  -2    0.54    0.10
  -8  -5  -2    0.54    0.15
  11  -6  -2    6.87    0.30
 -11   6   2    7.42    0.28
  10  -6  -2    6.72    0.28
 -10   6   2    6.99    0.29
   9  -6  -2    0.08    0.06
  -9   6   2    0.06    0.06
   8  -6  -2    0.53    0.09
   8  -6  -2    0.49    0.07
  -8   6   2    0.51    0.11
  -8   6   2    0.59    0.08
   7  -6  -2    1.14    0.12
   7  -6  -2    1.16    0.09
   7  -6  -2    1.06    0.11
  -7   6   2    1.25    0.15
  -7   6   2    1.04    0.11
   6  -6  -2   28.69    0.90
   6  -6  -2   28.50    0.95
   6  -6  -2   29.00    0.85
  -6   6   2   27.73    1.03
  -6   6   2   29.54    0.94
   5  -6  -2   27.43    0.92
   5  -6  -2   28.55    0.82
  -5   6   2   28.68    0.92
  -5   6   2   27.47    0.99
   4  -6  -2    0.74    0.08
   4  -6  -2    0.89    0.11
   4  -6  -2    0.63    0.06
  -4   6   2    0.78    0.08
  -4   6   2    0.69    0.09
  -4   6   2    0.82    0.09
   3  -6  -2   13.05    0.51
   3  -6  -2   13.20    0.41
   3  -6  -2   13.44    0.47
  -3   6   2   13.18    0.51
  -3   6   2   14.01    0.47
  -3   6   2   13.21    0.46
   2  -6  -2   13.33    0.47
   2  -6  -2   13.40    0.42
   2  -6  -2   14.34    0.52
  -2   6   2   13.13    0.52
  -2   6   2   13.47    0.48
   1  -6  -2   19.59    0.57
   1  -6  -2   19.62    0.65
   1  -6  -2   20.22    0.71
  -1   6   2   18.85    0.70
  -1   6   2   17.73    0.65
   0  -6  -2   11.26    0.36
   0  -6  -2   11.51    0.46
   0  -6  -2   11.67    0.42
   0   6   2   12.02    0.43
   0   6   2   11.50    0.41
   0   6   2   11.53    0.46
   0   6   2   11.43    0.46
  -1  -6  -2    0.25    0.04
  -1  -6  -2    0.23    0.06
   1   6   2    0.26    0.07
   1   6   2    0.25    0.07
   1   6   2    0.29    0.07
   1   6   2    0.22    0.07
  -2  -6  -2    1.32    0.11
  -2  -6  -2    1.10    0.07
  -2  -6  -2    0.72    0.11
   2   6   2    1.05    0.12
   2   6   2    1.13    0.13
   2   6   2    1.11    0.13
   2   6   2    1.22    0.12
  -3  -6  -2    2.23    0.17
  -3  -6  -2    2.22    0.10
  -3  -6  -2    2.13    0.15
   3   6   2    1.99    0.15
   3   6   2    2.12    0.16
  -4  -6  -2    6.90    0.35
  -4  -6  -2    6.51    0.29
   4   6   2    6.48    0.30
   4   6   2    6.19    0.31
  -5  -6  -2    5.25    0.31
  -5  -6  -2    5.16    0.26
   5   6   2    5.55    0.29
  -6  -6  -2    0.07    0.10
  -7  -6  -2    3.17    0.20
  -7  -6  -2    2.84    0.25
  10  -7  -2   -0.01    0.06
 -10   7   2    0.11    0.06
   9  -7  -2    2.94    0.16
  -9   7   2    3.00    0.17
   8  -7  -2    4.33    0.20
   8  -7  -2    4.37    0.23
  -8   7   2    4.24    0.21
   7  -7  -2    7.80    0.32
   7  -7  -2    7.32    0.28
  -7   7   2    7.88    0.32
  -7   7   2    8.17    0.38
   6  -7  -2    8.10    0.29
   6  -7  -2    8.63    0.34
  -6   7   2    8.14    0.38
  -6   7   2    8.15    0.33
   5  -7  -2    3.97    0.17
   5  -7  -2    3.83    0.19
  -5   7   2    3.70    0.22
  -5   7   2    3.88    0.20
   4  -7  -2   24.58    0.73
   4  -7  -2   25.14    0.82
  -4   7   2   21.86    0.80
  -4   7   2   25.63    0.82
  -4   7   2   26.22    0.90
   3  -7  -2   35.87    1.05
   3  -7  -2   36.85    1.25
   3  -7  -2   35.78    1.16
  -3   7   2   35.71    1.16
  -3   7   2   36.79    1.16
  -3   7   2   35.83    1.25
   2  -7  -2   26.45    0.94
   2  -7  -2   25.93    0.87
   2  -7  -2   26.87    0.78
  -2   7   2   26.19    0.87
  -2   7   2   25.91    0.94
   1  -7  -2    9.63    0.32
   1  -7  -2    9.68    0.42
   1  -7  -2    9.47    0.37
  -1   7   2    9.91    0.42
  -1   7   2    9.58    0.38
   0  -7  -2    0.81    0.07
   0  -7  -2    0.89    0.11
   0  -7  -2    0.65    0.09
   0   7   2    0.74    0.09
   0   7   2    0.57    0.08
   0   7   2    0.64    0.10
   0   7   2    0.81    0.11
  -1  -7  -2   18.82    0.67
  -1  -7  -2   15.93    0.52
  -1  -7  -2   16.10    0.60
   1   7   2   18.56    0.67
   1   7   2   17.51    0.66
   1   7   2   16.13    0.61
   1   7   2   16.44    0.58
  -2  -7  -2   10.11    0.41
  -2  -7  -2   10.50    0.34
   2   7   2   10.32    0.42
   2   7   2   10.64    0.40
  -3  -7  -2    1.67    0.14
   3   7   2    1.73    0.17
  -4  -7  -2    0.35    0.08
   4   7   2    0.40    0.10
  -5  -7  -2    0.70    0.14
  -5  -7  -2    0.57    0.10
  -6  -7  -2    1.92    0.22
  -6  -7  -2    2.13    0.17
  -7  -7  -2    2.48    0.19
  -7  -7  -2    2.35    0.26
  10  -8  -2    5.02    0.24
 -10   8   2    5.14    0.22
   9  -8  -2    3.43    0.18
  -9   8   2    3.36    0.18
   8  -8  -2    3.57    0.18
  -8   8   2    3.67    0.19
   7  -8  -2    2.99    0.15
  -7   8   2    3.04    0.22
  -7   8   2    2.81    0.17
   6  -8  -2    0.56    0.07
   6  -8  -2    0.35    0.08
  -6   8   2    0.56    0.11
  -6   8   2    0.56    0.09
   5  -8  -2   10.43    0.42
   5  -8  -2   11.14    0.37
  -5   8   2   11.38    0.43
  -5   8   2   11.48    0.48
   4  -8  -2    2.13    0.15
   4  -8  -2    2.48    0.13
  -4   8   2    2.23    0.15
  -4   8   2    1.89    0.17
   3  -8  -2   -0.04    0.04
   3  -8  -2    0.04    0.04
  -3   8   2    0.01    0.06
  -3   8   2   -0.01    0.06
   2  -8  -2    0.47    0.06
   2  -8  -2    0.35    0.09
   2  -8  -2    0.55    0.09
  -2   8   2    0.43    0.08
  -2   8   2    0.38    0.08
  -2   8   2    0.58    0.10
   1  -8  -2    2.75    0.13
   1  -8  -2    2.72    0.19
   1  -8  -2    2.79    0.17
  -1   8   2    2.80    0.19
  -1   8   2    2.61    0.17
  -1   8   2    2.67    0.19
   0  -8  -2   17.07    0.63
   0  -8  -2   18.32    0.55
   0   8   2   17.94    0.70
   0   8   2   17.99    0.64
  -1  -8  -2    5.90    0.28
  -1  -8  -2    5.65    0.22
   1   8   2    6.10    0.28
  -2  -8  -2    1.24    0.13
  -2  -8  -2    1.30    0.09
   2   8   2    1.53    0.15
  -3  -8  -2    1.11    0.13
   3   8   2    1.34    0.15
  -4  -8  -2    1.99    0.17
   4   8   2    1.21    0.16
  -5  -8  -2    5.87    0.35
  -5  -8  -2    5.59    0.30
  -6  -8  -2    1.45    0.16
  -6  -8  -2    1.75    0.22
  10  -9  -2    1.68    0.15
 -10   9   2    1.89    0.12
   9  -9  -2    0.08    0.06
  -9   9   2    0.01    0.06
   8  -9  -2    0.42    0.08
  -8   9   2    0.69    0.09
   7  -9  -2    4.61    0.21
  -7   9   2    4.84    0.23
   6  -9  -2   17.36    0.56
  -6   9   2   17.54    0.62
   5  -9  -2   22.01    0.68
   5  -9  -2   22.13    0.77
  -5   9   2   21.96    0.77
  -5   9   2   22.33    0.85
   4  -9  -2    1.13    0.10
   4  -9  -2    0.89    0.11
  -4   9   2    0.97    0.14
  -4   9   2    0.95    0.12
   3  -9  -2    1.66    0.14
   3  -9  -2    1.70    0.12
  -3   9   2    1.69    0.15
  -3   9   2    1.80    0.18
   2  -9  -2    6.05    0.28
   2  -9  -2    5.93    0.23
  -2   9   2    6.04    0.32
  -2   9   2    5.84    0.29
   1  -9  -2   13.00    0.42
   1  -9  -2   13.25    0.50
  -1   9   2   12.90    0.50
   0  -9  -2    4.69    0.19
   0  -9  -2    4.38    0.23
   0   9   2    4.47    0.25
  -1  -9  -2    0.07    0.06
  -1  -9  -2   -0.06    0.04
   1   9   2    0.02    0.07
  -2  -9  -2    2.47    0.18
  -2  -9  -2    2.44    0.13
   2   9   2    2.96    0.21
  -3  -9  -2    2.44    0.19
   3   9   2    2.38    0.20
  -4  -9  -2    2.66    0.20
   4   9   2    2.91    0.23
  -5  -9  -2    1.57    0.18
  -5  -9  -2    1.65    0.21
   9 -10  -2    1.30    0.13
  -9  10   2    1.27    0.12
   8 -10  -2    3.01    0.17
  -8  10   2    2.68    0.17
   7 -10  -2    7.00    0.28
  -7  10   2    7.01    0.31
   6 -10  -2    6.15    0.26
  -6  10   2    6.26    0.29
   5 -10  -2    0.30    0.07
  -5  10   2    0.27    0.09
   4 -10  -2    9.02    0.38
   4 -10  -2    8.98    0.33
  -4  10   2    8.94    0.38
   3 -10  -2    2.66    0.18
   3 -10  -2    2.62    0.15
  -3  10   2    2.79    0.19
   2 -10  -2    7.82    0.35
   2 -10  -2    8.17    0.30
  -2  10   2    8.37    0.36
   1 -10  -2    4.62    0.24
   1 -10  -2    4.56    0.19
  -1  10   2    4.13    0.24
   0 -10  -2    1.25    0.10
   0 -10  -2    1.18    0.13
   0  10   2    1.09    0.14
  -1 -10  -2    2.05    0.12
  -1 -10  -2    1.80    0.17
   1  10   2    1.90    0.18
  -2 -10  -2    3.55    0.23
   2  10   2    3.07    0.22
  -3 -10  -2    1.19    0.15
   3  10   2    1.50    0.17
  -4 -10  -2    0.32    0.11
   4  10   2    0.49    0.13
   9 -11  -2    1.65    0.15
  -9  11   2    1.96    0.13
   8 -11  -2    1.70    0.14
  -8  11   2    1.72    0.14
   7 -11  -2    0.89    0.11
  -7  11   2    0.87    0.11
   6 -11  -2    0.80    0.10
  -6  11   2    0.57    0.10
   5 -11  -2    2.53    0.16
  -5  11   2    2.15    0.17
   4 -11  -2    3.89    0.23
   4 -11  -2    3.61    0.19
  -4  11   2    3.40    0.22
   3 -11  -2    4.03    0.19
   3 -11  -2    4.07    0.25
  -3  11   2    4.14    0.24
   2 -11  -2    0.12    0.08
   2 -11  -2    0.17    0.06
  -2  11   2    0.16    0.08
   1 -11  -2    2.32    0.18
   1 -11  -2    2.12    0.13
  -1  11   2    2.08    0.18
   0 -11  -2    7.28    0.28
   0 -11  -2    7.41    0.35
   0  11   2    6.97    0.35
  -1 -11  -2    2.82    0.21
   1  11   2    2.26    0.20
  -2 -11  -2    0.02    0.08
   2  11   2    0.02    0.09
  -3 -11  -2   -0.02    0.07
   3  11   2    0.03    0.10
   8 -12  -2    0.51    0.10
  -8  12   2    0.49    0.09
   7 -12  -2    0.09    0.07
  -7  12   2    0.30    0.08
   6 -12  -2    5.03    0.25
  -6  12   2    5.19    0.26
   5 -12  -2    2.64    0.17
  -5  12   2    2.89    0.19
   4 -12  -2    0.40    0.08
  -4  12   2    0.49    0.10
   3 -12  -2    2.14    0.14
  -3  12   2    2.06    0.17
   2 -12  -2    2.70    0.16
   2 -12  -2    2.17    0.19
  -2  12   2    2.75    0.21
   1 -12  -2    5.20    0.23
   1 -12  -2    5.18    0.28
  -1  12   2    5.23    0.29
   0 -12  -2    3.84    0.19
   0 -12  -2    4.33    0.26
   0  12   2    4.20    0.27
  -1 -12  -2    0.61    0.13
   1  12   2    0.66    0.14
  -2 -12  -2    0.74    0.13
   2  12   2    0.67    0.15
   7 -13  -2    2.78    0.19
  -7  13   2    2.59    0.18
   6 -13  -2    2.82    0.19
  -6  13   2    3.06    0.20
   5 -13  -2   -0.04    0.07
  -5  13   2   -0.11    0.08
   4 -13  -2    2.08    0.15
  -4  13   2    2.59    0.19
   3 -13  -2   -0.01    0.06
  -3  13   2    0.06    0.09
   2 -13  -2    2.76    0.17
  -2  13   2    2.98    0.22
   1 -13  -2    0.39    0.11
   1 -13  -2    0.45    0.08
  -1  13   2    0.38    0.12
   0 -13  -2    0.16    0.10
   0  13   2    0.08    0.10
   4 -14  -2    0.40    0.09
  -4  14   2    0.27    0.11
   3 -14  -2    0.15    0.08
  -3  14   2    0.01    0.09
  -1  14  -3    1.04    0.12
   1 -14   3    0.97    0.12
  -2  14  -3    0.55    0.07
   2 -14   3    0.49    0.10
   3 -14   3   -0.12    0.06
   4 -14   3    2.50    0.18
   2  13  -3    2.56    0.20
  -2 -13   3    2.40    0.16
   1  13  -3    1.29    0.15
  -1 -13   3    1.67    0.13
   0  13  -3    0.23    0.08
   0 -13   3    0.47    0.08
  -1  13  -3    0.14    0.07
   1 -13   3    0.07    0.06
  -2  13  -3    0.31    0.07
   2 -13   3    0.25    0.07
   3 -13   3    5.54    0.26
   4 -13   3    3.42    0.19
   5 -13   3   -0.02    0.06
   6 -13   3    0.51    0.09
   3  12  -3    8.34    0.39
  -3 -12   3    8.39    0.33
   2  12  -3    1.55    0.16
  -2 -12   3    1.41    0.13
   1  12  -3    0.07    0.07
  -1 -12   3    0.00    0.05
   0  12  -3    0.02    0.06
   0 -12   3    0.16    0.06
  -1  12  -3    4.54    0.22
   1 -12   3    4.62    0.21
  -2  12  -3    5.44    0.23
   2 -12   3    5.40    0.24
   3 -12   3    4.10    0.21
   4 -12   3    0.07    0.06
   5 -12   3    1.32    0.12
   6 -12   3    1.71    0.13
   7 -12   3    1.87    0.13
  -5 -11   3    1.35    0.18
   4  11  -3    2.47    0.21
  -4 -11   3    2.80    0.23
  -4 -11   3    2.38    0.16
   3  11  -3    5.57    0.30
  -3 -11   3    5.60    0.25
   2  11  -3    0.09    0.08
  -2 -11   3    0.02    0.06
   1  11  -3    2.57    0.17
  -1 -11   3    2.52    0.15
   0  11  -3    1.30    0.13
   0 -11   3    1.25    0.11
  -1  11  -3    0.24    0.07
  -1  11  -3    0.39    0.11
   1 -11   3    0.23    0.06
  -2  11  -3    0.02    0.04
  -2  11  -3   -0.04    0.06
   2 -11   3   -0.10    0.05
  -3  11  -3    2.22    0.20
   3 -11   3    2.33    0.14
  -4  11  -3   10.36    0.48
   4 -11   3   10.50    0.36
  -5  11  -3    8.31    0.41
   5 -11   3    8.27    0.30
  -6  11  -3    1.87    0.19
   6 -11   3    1.69    0.12
  -7  11  -3    0.66    0.13
   7 -11   3    0.63    0.09
   8 -11   3    0.13    0.07
   6  10  -3    0.76    0.15
  -6 -10   3    0.75    0.15
   5  10  -3    0.70    0.14
  -5 -10   3    0.74    0.14
  -5 -10   3    0.64    0.10
   4  10  -3    0.22    0.10
  -4 -10   3    0.47    0.12
  -4 -10   3    0.37    0.08
   3  10  -3    1.48    0.16
  -3 -10   3    1.48    0.17
  -3 -10   3    1.34    0.12
   2  10  -3    7.21    0.33
  -2 -10   3    7.26    0.28
  -2 -10   3    7.08    0.34
   1  10  -3    4.31    0.23
  -1 -10   3    4.42    0.20
   0  10  -3    6.79    0.34
   0  10  -3    6.58    0.28
   0 -10   3    5.60    0.24
  -1  10  -3    2.42    0.14
  -1  10  -3    2.21    0.18
  -1  10  -3    2.44    0.19
   1 -10   3    2.24    0.13
  -2  10  -3    3.62    0.24
  -2  10  -3    3.89    0.23
  -2  10  -3    3.55    0.16
  -2  10  -3    3.51    0.16
   2 -10   3    3.82    0.17
  -3  10  -3   13.24    0.57
   3 -10   3   13.82    0.44
  -4  10  -3   14.36    0.58
   4 -10   3   13.67    0.44
  -5  10  -3    1.71    0.17
   5 -10   3    1.61    0.10
  -6  10  -3   -0.01    0.07
   6 -10   3    0.08    0.05
  -7  10  -3    1.01    0.14
   7 -10   3    0.93    0.09
  -8  10  -3    5.71    0.32
   8 -10   3    5.35    0.23
   6   9  -3    0.32    0.12
  -6  -9   3    0.12    0.10
   5   9  -3   -0.01    0.09
  -5  -9   3    0.06    0.09
  -5  -9   3    0.11    0.06
   4   9  -3    3.24    0.22
  -4  -9   3    3.39    0.23
  -4  -9   3    3.04    0.17
   3   9  -3   12.29    0.49
  -3  -9   3   12.07    0.50
  -3  -9   3   12.27    0.42
   2   9  -3   10.05    0.41
  -2  -9   3   10.12    0.42
  -2  -9   3   10.09    0.35
   1   9  -3    0.36    0.08
   1   9  -3    0.28    0.09
  -1  -9   3    0.31    0.06
  -1  -9   3    0.31    0.07
   0   9  -3    1.72    0.15
   0   9  -3    1.78    0.15
   0   9  -3    1.55    0.12
   0  -9   3    1.59    0.10
   0  -9   3    1.65    0.13
  -1   9  -3    2.95    0.15
  -1   9  -3    3.03    0.19
  -1   9  -3    2.68    0.14
  -1   9  -3    3.23    0.21
   1  -9   3    3.27    0.15
  -2   9  -3   17.91    0.55
  -2   9  -3   15.69    0.55
  -2   9  -3   16.68    0.66
   2  -9   3   17.42    0.52
  -3   9  -3    6.37    0.32
   3  -9   3    6.50    0.23
  -4   9  -3   -0.02    0.05
   4  -9   3   -0.05    0.03
  -5   9  -3    1.83    0.15
   5  -9   3    1.70    0.10
  -6   9  -3    2.22    0.17
   6  -9   3    2.38    0.12
  -7   9  -3    5.63    0.31
   7  -9   3    5.52    0.22
  -8   9  -3    1.71    0.18
   8  -9   3    1.78    0.16
   8  -9   3    1.92    0.12
  -9   9  -3    0.71    0.14
   9  -9   3    0.62    0.09
   9  -9   3    0.57    0.11
   7   8  -3    0.29    0.12
  -7  -8   3    0.07    0.09
   6   8  -3    0.37    0.11
  -6  -8   3    0.29    0.10
   5   8  -3    0.50    0.11
  -5  -8   3    0.50    0.11
  -5  -8   3    0.54    0.08
   4   8  -3    4.46    0.25
  -4  -8   3    4.65    0.23
  -4  -8   3    4.05    0.20
  -4  -8   3    4.66    0.26
   3   8  -3    6.24    0.29
  -3  -8   3    5.60    0.23
  -3  -8   3    5.53    0.28
   2   8  -3    0.08    0.07
   2   8  -3    0.09    0.07
   2   8  -3    0.05    0.06
  -2  -8   3    0.04    0.06
  -2  -8   3    0.07    0.05
   1   8  -3    9.50    0.42
   1   8  -3    9.29    0.41
   1   8  -3    8.84    0.36
  -1  -8   3    9.37    0.37
  -1  -8   3    9.42    0.32
  -1  -8   3    9.16    0.37
   0   8  -3   15.03    0.50
   0   8  -3   14.32    0.57
   0   8  -3   14.37    0.57
   0   8  -3   13.24    0.50
   0  -8   3   14.68    0.45
   0  -8   3   15.19    0.52
  -1   8  -3   19.25    0.70
  -1   8  -3   17.56    0.61
  -1   8  -3   19.60    0.71
  -1   8  -3   19.10    0.61
   1  -8   3   18.81    0.57
   1  -8   3   19.07    0.65
  -2   8  -3   11.29    0.46
  -2   8  -3   11.53    0.36
  -2   8  -3   10.48    0.36
   2  -8   3   11.30    0.41
   2  -8   3   11.23    0.35
  -3   8  -3    1.58    0.13
   3  -8   3    1.46    0.08
  -4   8  -3   11.13    0.45
   4  -8   3   10.92    0.34
  -5   8  -3    9.35    0.42
   5  -8   3   10.36    0.32
  -6   8  -3    5.12    0.27
   6  -8   3    5.43    0.20
   6  -8   3    5.12    0.23
  -7   8  -3    0.89    0.13
   7  -8   3    0.73    0.10
   7  -8   3    1.11    0.09
  -8   8  -3    0.41    0.10
   8  -8   3    0.31    0.06
   8  -8   3    0.36    0.09
  -9   8  -3    6.44    0.35
   9  -8   3    6.09    0.30
   9  -8   3    6.34    0.26
   8   7  -3    0.54    0.14
   7   7  -3    5.40    0.31
  -7  -7   3    4.99    0.29
   6   7  -3    6.67    0.36
  -6  -7   3    8.24    0.29
  -6  -7   3    7.65    0.37
  -6  -7   3    7.98    0.36
   5   7  -3    4.19    0.25
  -5  -7   3    4.61    0.24
  -5  -7   3    4.70    0.26
  -5  -7   3    4.51    0.20
   4   7  -3    1.88    0.16
  -4  -7   3    1.66    0.16
  -4  -7   3    1.83    0.14
  -4  -7   3    1.88    0.12
   3   7  -3    2.28    0.18
   3   7  -3    2.07    0.15
   3   7  -3    1.99    0.17
  -3  -7   3    2.23    0.16
  -3  -7   3    1.73    0.11
   2   7  -3    9.38    0.38
   2   7  -3   10.07    0.37
   2   7  -3   10.08    0.43
   2   7  -3    9.81    0.29
   2   7  -3    9.87    0.43
  -2  -7   3    9.77    0.33
  -2  -7   3    9.93    0.37
  -2  -7   3    9.30    0.38
   1   7  -3    4.92    0.26
   1   7  -3    5.26    0.23
   1   7  -3    4.75    0.26
   1   7  -3    5.09    0.22
  -1  -7   3    5.01    0.19
  -1  -7   3    5.16    0.23
  -1  -7   3    5.21    0.23
   0   7  -3    0.31    0.05
   0   7  -3    0.32    0.05
   0   7  -3    0.36    0.07
   0   7  -3    0.29    0.06
   0   7  -3    0.36    0.07
   0  -7   3    0.25    0.06
   0  -7   3    0.38    0.05
   0  -7   3    0.29    0.06
  -1   7  -3    6.56    0.23
  -1   7  -3    6.47    0.29
  -1   7  -3    6.54    0.24
   1  -7   3    6.80    0.22
   1  -7   3    6.38    0.26
  -2   7  -3    6.47    0.29
   2  -7   3    6.30    0.25
   2  -7   3    6.25    0.20
  -3   7  -3   36.48    1.24
   3  -7   3   36.42    1.02
   3  -7   3   36.42    1.15
  -4   7  -3    5.97    0.27
  -5   7  -3   18.55    0.70
   5  -7   3   19.86    0.62
  -6   7  -3    0.14    0.07
   6  -7   3    0.15    0.06
   6  -7   3    0.25    0.08
  -7   7  -3    1.95    0.16
   7  -7   3    1.94    0.14
   7  -7   3    2.00    0.17
  -8   7  -3    7.26    0.36
   8  -7   3    7.33    0.31
   8  -7   3    7.51    0.36
  -9   7  -3    3.44    0.25
   9  -7   3    3.44    0.21
   8   6  -3    5.67    0.33
  -8  -6   3    5.46    0.31
   7   6  -3    1.71    0.19
  -7  -6   3    2.34    0.19
   6   6  -3    1.11    0.15
  -6  -6   3    1.15    0.14
  -6  -6   3    0.86    0.09
  -6  -6   3    0.99    0.13
   5   6  -3    0.36    0.09
  -5  -6   3    0.22    0.07
  -5  -6   3    0.25    0.06
  -5  -6   3    0.20    0.08
   4   6  -3    3.32    0.22
   4   6  -3    3.59    0.20
  -4  -6   3    3.71    0.16
  -4  -6   3    3.78    0.19
  -4  -6   3    3.64    0.20
   3   6  -3   35.00    1.06
   3   6  -3   33.81    1.11
   3   6  -3   34.46    1.20
   3   6  -3   34.07    1.20
   3   6  -3   35.37    1.11
  -3  -6   3   33.21    1.11
  -3  -6   3   32.11    0.99
  -3  -6   3   34.75    1.06
  -3  -6   3   35.75    1.19
  -3  -6   3   35.20    1.20
  -3  -6   3   33.20    1.13
   2   6  -3   14.16    0.49
   2   6  -3   13.26    0.40
   2   6  -3   13.62    0.54
   2   6  -3   13.69    0.47
   2   6  -3   14.55    0.54
  -2  -6   3   13.49    0.43
  -2  -6   3   14.86    0.53
  -2  -6   3   13.88    0.47
  -2  -6   3   13.29    0.49
   1   6  -3    0.61    0.09
   1   6  -3    0.32    0.07
   1   6  -3    0.40    0.06
   1   6  -3    0.53    0.06
  -1  -6   3    0.48    0.07
  -1  -6   3    0.44    0.06
  -1  -6   3    0.54    0.05
   0   6  -3    8.91    0.37
   0   6  -3    8.54    0.31
   0   6  -3    8.86    0.31
   0   6  -3    9.19    0.36
   0   6  -3    9.01    0.31
   0  -6   3    8.94    0.28
   0  -6   3    8.98    0.33
   0  -6   3    9.35    0.32
  -1   6  -3    9.67    0.39
  -1   6  -3    9.69    0.32
  -1   6  -3    9.83    0.32
  -1   6  -3    9.77    0.34
   1  -6   3    9.96    0.29
   1  -6   3   10.19    0.35
  -2   6  -3   53.72    1.78
   2  -6   3   53.25    1.66
   2  -6   3   55.28    1.49
  -3   6  -3   23.40    0.80
   3  -6   3   22.96    0.74
  -4   6  -3    0.56    0.08
   4  -6   3    0.46    0.08
   4  -6   3    0.48    0.06
   4  -6   3    0.54    0.06
  -5   6  -3    3.18    0.18
   5  -6   3    3.16    0.15
   5  -6   3    3.77    0.19
  -6   6  -3    3.21    0.19
   6  -6   3    2.92    0.16
   6  -6   3    2.97    0.19
  -7   6  -3    9.78    0.43
   7  -6   3    9.77    0.41
   7  -6   3   10.09    0.37
  -8   6  -3    9.19    0.42
   8  -6   3    9.23    0.36
   8  -6   3    8.74    0.40
  -9   6  -3    0.04    0.08
   9  -6   3    0.01    0.07
   9  -6   3   -0.01    0.08
  10  -6   3    4.20    0.24
  -9  -5   3    1.99    0.20
   8   5  -3    8.83    0.42
  -8  -5   3    9.08    0.41
   7   5  -3    0.36    0.10
  -7  -5   3    0.45    0.10
   6   5  -3    9.35    0.39
  -6  -5   3    8.43    0.31
  -6  -5   3    8.80    0.38
   5   5  -3   14.36    0.52
  -5  -5   3   13.11    0.51
  -5  -5   3   13.10    0.51
  -5  -5   3   13.82    0.44
   4   5  -3   37.04    1.17
   4   5  -3   35.46    1.26
  -4  -5   3   34.76    1.24
  -4  -5   3   36.87    1.26
  -4  -5   3   36.53    1.17
  -4  -5   3   37.97    1.11
  -4  -5   3   35.47    1.04
  -4  -5   3   34.26    1.20
   3   5  -3    8.82    0.34
   3   5  -3    8.87    0.33
   3   5  -3    8.64    0.32
   3   5  -3    8.15    0.37
   3   5  -3    8.98    0.38
  -3  -5   3    8.87    0.38
  -3  -5   3    8.70    0.34
  -3  -5   3    9.14    0.37
  -3  -5   3    8.72    0.33
  -3  -5   3    9.42    0.30
  -3  -5   3    9.16    0.33
   2   5  -3    0.35    0.07
   2   5  -3    0.30    0.06
   2   5  -3    0.22    0.03
   2   5  -3    0.16    0.04
   2   5  -3    0.35    0.06
   2   5  -3    0.26    0.05
  -2  -5   3    0.32    0.04
  -2  -5   3    0.37    0.07
  -2  -5   3    0.28    0.06
  -2  -5   3    0.32    0.06
  -2  -5   3    0.26    0.05
   1   5  -3   12.24    0.45
   1   5  -3   11.77    0.45
   1   5  -3   12.60    0.39
   1   5  -3   12.06    0.40
   1   5  -3   12.05    0.40
  -1  -5   3   12.12    0.36
  -1  -5   3   10.95    0.44
  -1  -5   3   12.26    0.40
  -1  -5   3   11.11    0.41
   0   5  -3   33.27    1.13
   0   5  -3   35.02    1.04
   0   5  -3   34.54    1.02
   0   5  -3   33.96    1.14
   0   5  -3   33.24    1.04
   0  -5   3   33.89    0.95
   0  -5   3   33.82    1.00
   0  -5   3   33.58    1.06
  -1   5  -3  104.35    3.36
  -1   5  -3  103.84    3.04
   1  -5   3  103.35    3.15
   1  -5   3  106.18    2.98
  -2   5  -3    4.38    0.19
  -2   5  -3    5.18    0.21
   2  -5   3    4.61    0.19
   2  -5   3    4.74    0.18
  -3   5  -3   14.84    0.52
   3  -5   3   14.61    0.45
   3  -5   3   14.02    0.49
  -4   5  -3   18.79    0.64
   4  -5   3   17.85    0.56
   4  -5   3   17.93    0.61
  -5   5  -3    8.11    0.32
   5  -5   3    7.39    0.27
   5  -5   3    7.33    0.31
  -6   5  -3    0.56    0.09
   6  -5   3    0.53    0.08
   6  -5   3    0.59    0.10
  -7   5  -3   11.31    0.47
   7  -5   3   11.27    0.46
   7  -5   3   11.73    0.41
  -8   5  -3    0.03    0.07
   8  -5   3    0.01    0.08
   8  -5   3    0.01    0.07
  -9   5  -3    3.27    0.23
   9  -5   3    2.82    0.19
   9  -5   3    2.85    0.22
  10  -5   3    1.69    0.17
  -9  -4   3    0.25    0.10
   8   4  -3    2.40    0.19
  -8  -4   3    2.26    0.19
   7   4  -3    2.71    0.19
   6   4  -3    3.69    0.22
  -6  -4   3    3.62    0.21
  -6  -4   3    3.79    0.16
   5   4  -3   15.87    0.54
   5   4  -3   15.11    0.61
   5   4  -3   16.47    0.57
   5   4  -3   15.55    0.62
  -5  -4   3   15.97    0.49
  -5  -4   3   15.93    0.61
  -5  -4   3   15.11    0.56
   4   4  -3   30.13    0.98
   4   4  -3   30.68    1.06
  -4  -4   3   30.04    1.01
  -4  -4   3   28.81    0.98
  -4  -4   3   30.78    0.93
  -4  -4   3   29.85    1.05
  -4  -4   3   30.76    0.88
   3   4  -3   32.66    1.29
   3   4  -3   40.98    1.21
   3   4  -3   37.89    1.30
   3   4  -3   38.62    1.15
   3   4  -3   39.22    1.22
  -3  -4   3   39.77    1.10
  -3  -4   3   38.84    1.15
  -3  -4   3   36.67    1.25
  -3  -4   3   38.88    1.22
  -3  -4   3   39.23    1.29
  -3  -4   3   39.88    1.30
   2   4  -3   23.08    0.69
   2   4  -3   22.49    0.72
   2   4  -3   21.60    0.63
   2   4  -3   23.29    0.78
   2   4  -3   22.24    0.78
  -2  -4   3   22.70    0.69
  -2  -4   3   21.16    0.72
  -2  -4   3   23.24    0.65
  -2  -4   3   23.17    0.78
  -2  -4   3   21.37    0.77
  -2  -4   3   22.75    0.73
   1   4  -3    3.73    0.18
   1   4  -3    4.16    0.19
   1   4  -3    4.23    0.15
   1   4  -3    4.29    0.16
   1   4  -3    4.16    0.16
   1   4  -3    3.85    0.16
  -1  -4   3    4.03    0.18
  -1  -4   3    4.18    0.16
  -1  -4   3    4.33    0.14
  -1  -4   3    3.96    0.18
  -1  -4   3    3.91    0.17
   0   4  -3   13.93    0.49
   0   4  -3   14.51    0.44
   0   4  -3   14.43    0.44
   0   4  -3   14.61    0.50
   0   4  -3   13.90    0.44
   0  -4   3   13.32    0.43
   0  -4   3   14.38    0.46
  -1   4  -3   93.53    2.71
  -1   4  -3   92.35    2.98
   1  -4   3   93.74    2.64
   1  -4   3   95.30    2.80
   1  -4   3   90.36    2.71
  -2   4  -3   11.98    0.42
   2  -4   3   11.64    0.39
   2  -4   3   11.75    0.36
  -3   4  -3   27.49    0.93
   3  -4   3   27.98    0.82
   3  -4   3   28.27    0.87
  -4   4  -3   21.80    0.74
   4  -4   3   20.48    0.69
   4  -4   3   21.49    0.64
  -5   4  -3    6.09    0.27
   5  -4   3    5.83    0.27
   5  -4   3    6.40    0.23
  -6   4  -3   13.33    0.52
   6  -4   3   13.78    0.46
   6  -4   3   13.89    0.51
  -7   4  -3    3.06    0.20
   7  -4   3    3.33    0.21
   7  -4   3    2.88    0.17
  -8   4  -3   12.22    0.51
   8  -4   3   11.32    0.44
   8  -4   3   11.82    0.48
  -9   4  -3    4.37    0.27
   9  -4   3    3.91    0.23
   9  -4   3    4.64    0.27
  10  -4   3    0.42    0.10
  10   3  -3    0.43    0.10
 -10  -3   3    0.72    0.13
  -9  -3   3    2.92    0.21
   8   3  -3    2.49    0.19
  -8  -3   3    2.48    0.19
   7   3  -3    3.90    0.18
   7   3  -3    4.30    0.23
  -7  -3   3    3.81    0.22
  -7  -3   3    3.85    0.16
   6   3  -3    3.14    0.19
   6   3  -3    3.20    0.15
   6   3  -3    3.00    0.17
  -6  -3   3    2.85    0.18
  -6  -3   3    3.03    0.14
  -6  -3   3    2.95    0.21
   5   3  -3    1.06    0.10
   5   3  -3    1.20    0.12
   5   3  -3    0.96    0.11
   5   3  -3    1.05    0.12
  -5  -3   3    1.16    0.08
  -5  -3   3    1.10    0.11
  -5  -3   3    1.15    0.12
   4   3  -3    9.25    0.35
   4   3  -3   10.90    0.42
   4   3  -3    9.46    0.41
   4   3  -3   10.61    0.38
  -4  -3   3   10.20    0.41
  -4  -3   3   10.70    0.38
  -4  -3   3   10.53    0.33
  -4  -3   3   10.83    0.36
   3   3  -3  132.25    3.64
   3   3  -3  121.88    3.85
   3   3  -3  121.19    3.63
  -3  -3   3  115.59    3.80
  -3  -3   3  118.32    3.31
  -3  -3   3  112.32    3.84
  -3  -3   3  117.29    3.42
  -3  -3   3  118.89    3.63
   2   3  -3   54.99    1.57
   2   3  -3   53.08    1.77
   2   3  -3   54.52    1.66
   2   3  -3   54.78    1.50
   2   3  -3   53.54    1.77
  -2  -3   3   53.14    1.76
  -2  -3   3   56.44    1.51
  -2  -3   3   54.39    1.57
  -2  -3   3   52.48    1.73
  -2  -3   3   53.95    1.66
  -2  -3   3   54.82    1.77
   1   3  -3    4.64    0.17
   1   3  -3    4.67    0.17
   1   3  -3    4.72    0.19
   1   3  -3    4.78    0.16
   1   3  -3    4.45    0.19
   1   3  -3    4.52    0.15
  -1  -3   3    4.82    0.19
  -1  -3   3    4.41    0.16
  -1  -3   3    4.40    0.19
  -1  -3   3    4.58    0.17
  -1  -3   3    4.86    0.15
   0   3  -3    9.51    0.30
   0   3  -3    9.74    0.33
   0   3  -3    9.24    0.33
   0  -3   3    9.23    0.30
   0  -3   3    9.15    0.33
   0  -3   3    9.40    0.30
   0  -3   3    9.93    0.29
  -1   3  -3   25.22    0.82
   1  -3   3   24.39    0.72
   1  -3   3   24.91    0.76
   1  -3   3   26.02    0.72
  -2   3  -3  179.38    5.50
   2  -3   3  168.22    4.88
   2  -3   3  172.64    5.02
  -3   3  -3   40.22    1.29
   3  -3   3   39.63    1.14
   3  -3   3   38.59    1.20
  -4   3  -3    2.47    0.13
   4  -3   3    2.51    0.11
   4  -3   3    2.36    0.14
  -5   3  -3    2.94    0.16
   5  -3   3    2.62    0.16
   5  -3   3    2.77    0.13
   5  -3   3    2.62    0.13
  -6   3  -3    1.16    0.12
   6  -3   3    1.28    0.13
   6  -3   3    1.29    0.10
  -7   3  -3   18.78    0.72
   7  -3   3   20.01    0.69
   7  -3   3   18.52    0.63
  -8   3  -3   12.18    0.51
   8  -3   3   11.83    0.48
   8  -3   3   11.00    0.43
  -9   3  -3    0.06    0.07
   9  -3   3    0.03    0.07
   9  -3   3    0.25    0.09
  10   2  -3    2.16    0.16
 -10  -2   3    2.03    0.17
  -9  -2   3    7.80    0.36
   8   2  -3    5.63    0.28
   8   2  -3    5.31    0.23
  -8  -2   3    4.51    0.26
   7   2  -3    1.15    0.10
   7   2  -3    1.08    0.12
  -7  -2   3    0.96    0.07
  -7  -2   3    0.99    0.12
   6   2  -3    0.88    0.12
   6   2  -3    0.90    0.10
   6   2  -3    0.76    0.10
   6   2  -3    0.72    0.11
   6   2  -3    0.84    0.08
  -6  -2   3    0.88    0.11
  -6  -2   3    0.76    0.10
  -6  -2   3    0.83    0.07
   5   2  -3    7.01    0.29
   5   2  -3    7.59    0.33
   5   2  -3    7.29    0.28
   5   2  -3    7.39    0.32
   5   2  -3    7.32    0.25
  -5  -2   3    7.17    0.32
  -5  -2   3    6.94    0.24
  -5  -2   3    7.08    0.29
   4   2  -3   49.21    1.43
   4   2  -3   50.11    1.63
   4   2  -3   48.86    1.44
   4   2  -3   47.18    1.63
   4   2  -3   49.03    1.53
  -4  -2   3   47.67    1.62
  -4  -2   3   49.61    1.38
  -4  -2   3   49.95    1.44
  -4  -2   3   49.40    1.53
   3   2  -3   38.12    1.28
   3   2  -3   38.53    1.20
   3   2  -3   40.44    1.19
   3   2  -3   38.15    1.08
   3   2  -3   36.72    1.11
  -3  -2   3   38.48    1.13
  -3  -2   3   37.80    1.20
  -3  -2   3   39.10    1.08
  -3  -2   3   38.10    1.27
   2   2  -3    1.93    0.11
   2   2  -3    2.17    0.09
   2   2  -3    2.02    0.10
   2   2  -3    1.99    0.11
   2   2  -3    2.09    0.07
   2   2  -3    1.96    0.08
  -2  -2   3    1.81    0.10
  -2  -2   3    1.99    0.08
  -2  -2   3    2.02    0.09
  -2  -2   3    1.93    0.09
   1   2  -3   20.91    0.66
   1   2  -3   20.89    0.71
   1   2  -3   21.82    0.62
   1   2  -3   21.84    0.65
   1   2  -3   21.12    0.71
  -1  -2   3   22.53    0.66
  -1  -2   3   21.15    0.62
  -1  -2   3   21.06    0.62
  -1  -2   3   20.40    0.70
   0   2  -3   73.61    2.16
   0   2  -3   63.41    2.16
   0  -2   3   69.67    1.97
   0  -2   3   64.95    2.16
   0  -2   3   68.34    1.92
  -1   2  -3   80.61    2.46
  -1   2  -3   74.26    2.47
  -2   2  -3   25.85    0.88
  -2   2  -3   27.39    0.85
   2  -2   3   25.33    0.74
  -3   2  -3   -0.01    0.03
   3  -2   3    0.08    0.03
  -4   2  -3   17.17    0.61
   4  -2   3   17.76    0.54
  -5   2  -3   23.34    0.80
   5  -2   3   21.98    0.75
   5  -2   3   22.48    0.73
   5  -2   3   22.33    0.70
   5  -2   3   22.96    0.63
  -6   2  -3    8.00    0.35
   6  -2   3    8.33    0.35
   6  -2   3    8.63    0.31
  -7   2  -3   -0.03    0.05
   7  -2   3    0.04    0.06
   7  -2   3   -0.10    0.06
  -8   2  -3    0.81    0.13
   8  -2   3    0.86    0.11
   8  -2   3    0.66    0.12
  -9   2  -3    2.57    0.21
   9  -2   3    2.57    0.18
   9  -2   3    2.88    0.21
  10   1  -3    7.03    0.30
 -10  -1   3    6.98    0.33
  -9  -1   3    1.08    0.13
   8   1  -3    3.06    0.20
   8   1  -3    2.88    0.17
  -8  -1   3    2.89    0.19
   7   1  -3    8.70    0.34
   7   1  -3    8.20    0.31
   7   1  -3    8.03    0.35
  -7  -1   3    8.20    0.35
  -7  -1   3    8.33    0.27
  -7  -1   3    8.51    0.39
   6   1  -3   15.09    0.51
   6   1  -3   16.75    0.57
   6   1  -3   15.55    0.54
   6   1  -3   16.68    0.62
   6   1  -3   15.71    0.62
  -6  -1   3   15.82    0.48
  -6  -1   3   15.67    0.57
  -6  -1   3   16.97    0.62
   5   1  -3   55.23    1.71
   5   1  -3   54.88    1.61
   5   1  -3   54.48    1.82
   5   1  -3   54.34    1.61
   5   1  -3   52.96    1.82
  -5  -1   3   53.41    1.53
  -5  -1   3   55.58    1.82
  -5  -1   3   56.08    1.71
   4   1  -3   29.07    0.92
   4   1  -3   27.95    0.99
   4   1  -3   28.68    0.99
   4   1  -3   29.16    0.86
   4   1  -3   29.51    0.87
  -4  -1   3   29.67    0.88
  -4  -1   3   29.25    0.99
  -4  -1   3   28.11    0.83
   3   1  -3   14.60    0.41
   3   1  -3   13.20    0.46
   3   1  -3   13.74    0.40
   3   1  -3   13.75    0.46
  -3  -1   3   13.60    0.49
  -3  -1   3   14.01    0.44
  -3  -1   3   13.86    0.46
  -3  -1   3   13.61    0.41
   2   1  -3   12.23    0.37
   2   1  -3   11.67    0.34
   2   1  -3   12.53    0.43
   2   1  -3   11.89    0.39
  -2  -1   3   11.73    0.35
  -2  -1   3   11.92    0.35
  -2  -1   3   12.39    0.37
  -2  -1   3   12.15    0.42
  -2  -1   3   12.24    0.39
   1   1  -3   48.77    1.56
   1   1  -3   47.55    1.46
   1   1  -3   50.17    1.38
   1   1  -3   47.31    1.46
  -1  -1   3   49.37    1.38
  -1  -1   3   46.34    1.47
  -1  -1   3   50.06    1.56
   0   1  -3    3.72    0.13
  -1   1  -3   13.84    0.49
  -1   1  -3   14.55    0.46
  -1   1  -3   14.46    0.46
  -2   1  -3   19.44    0.64
  -2   1  -3   19.23    0.67
  -2   1  -3   19.58    0.64
   2  -1   3   19.84    0.57
  -3   1  -3   76.59    2.40
  -3   1  -3   73.03    2.42
   3  -1   3   73.84    2.12
  -4   1  -3   24.17    0.83
  -4   1  -3   24.21    0.86
   4  -1   3   25.15    0.78
   4  -1   3   24.19    0.74
  -5   1  -3   17.06    0.64
  -5   1  -3   17.89    0.68
   5  -1   3   18.48    0.57
   5  -1   3   18.20    0.60
  -6   1  -3   11.36    0.47
   6  -1   3   11.97    0.41
  -7   1  -3    2.17    0.17
   7  -1   3    2.16    0.17
   7  -1   3    2.25    0.15
  -8   1  -3    8.22    0.40
   8  -1   3    8.73    0.39
   8  -1   3    8.58    0.36
   9  -1   3    3.22    0.21
   9  -1   3    3.88    0.25
  11   0  -3    1.79    0.16
 -11   0   3    1.61    0.16
  10   0  -3    2.35    0.16
 -10   0   3    2.17    0.17
   9   0  -3    1.22    0.13
   9   0  -3    1.16    0.12
  -9   0   3    1.26    0.14
   8   0  -3   11.05    0.45
   8   0  -3   10.87    0.41
  -8   0   3   11.21    0.44
   7   0  -3    7.36    0.30
   7   0  -3    6.96    0.31
   7   0  -3    7.25    0.28
  -7   0   3    7.25    0.24
  -7   0   3    7.25    0.31
  -7   0   3    7.17    0.35
   6   0  -3   11.16    0.45
   6   0  -3   11.37    0.45
   6   0  -3   11.48    0.38
   6   0  -3   10.70    0.39
   6   0  -3   10.86    0.41
  -6   0   3   11.04    0.41
  -6   0   3   10.86    0.41
  -6   0   3   10.93    0.34
  -6   0   3   11.07    0.46
   5   0  -3    6.22    0.24
   5   0  -3    5.84    0.25
   5   0  -3    6.06    0.28
   5   0  -3    5.95    0.22
  -5   0   3    5.92    0.25
  -5   0   3    6.23    0.28
  -5   0   3    5.95    0.20
   4   0  -3   34.44    1.19
   4   0  -3   36.28    1.05
   4   0  -3   35.52    1.05
   4   0  -3   35.48    1.00
   4   0  -3   35.28    1.11
  -4   0   3   34.95    1.05
  -4   0   3   34.29    1.11
  -4   0   3   35.81    1.19
  -4   0   3   35.85    1.00
   3   0  -3  119.14    3.53
   3   0  -3  116.22    3.22
   3   0  -3  115.80    3.53
  -3   0   3  115.27    3.75
  -3   0   3  114.04    3.53
  -3   0   3  119.22    3.33
  -3   0   3  118.80    3.37
  -3   0   3  117.07    3.23
   2   0  -3  110.82    3.36
   2   0  -3  101.57    2.90
   2   0  -3  107.37    3.17
   2   0  -3  100.68    2.98
  -2   0   3  103.02    2.98
  -2   0   3  109.78    3.36
  -2   0   3  103.19    2.89
   1   0  -3  100.20    2.95
   1   0  -3   95.72    2.98
   1   0  -3   99.66    3.13
  -1   0   3  101.57    3.13
  -1   0   3   95.70    2.78
  -1   0   3   97.89    2.96
   0   0  -3    4.26    0.15
   0   0   3    3.99    0.14
  -1   0  -3   33.06    1.08
  -1   0  -3   32.35    1.08
   1   0   3   35.40    1.07
   1   0   3   33.14    1.07
  -2   0  -3   65.18    2.13
  -2   0  -3   64.05    2.16
  -2   0  -3   69.28    2.14
   2   0   3   69.44    2.01
   2   0   3   65.05    1.90
  -3   0  -3   11.18    0.44
  -3   0  -3   11.67    0.42
  -3   0  -3   11.75    0.42
   3   0   3   11.39    0.37
   3   0   3   12.10    0.39
  -4   0  -3    1.93    0.12
  -4   0  -3    1.91    0.14
   4   0   3    1.84    0.11
   4   0   3    1.88    0.07
   4   0   3    1.79    0.07
   4   0   3    1.68    0.10
  -5   0  -3    0.68    0.09
  -5   0  -3    0.64    0.10
   5   0   3    0.51    0.07
   5   0   3    0.64    0.08
  -6   0  -3    5.67    0.31
  -6   0  -3    5.20    0.27
   6   0   3    5.47    0.24
  -7   0  -3   12.32    0.51
   7   0   3   12.56    0.46
  -8   0  -3    3.68    0.25
   8   0   3    3.72    0.24
   8   0   3    3.37    0.21
   9   0   3    0.68    0.13
  11  -1  -3    0.05    0.07
 -11   1   3    0.10    0.08
  10  -1  -3    3.84    0.20
 -10   1   3    3.51    0.22
   9  -1  -3   12.92    0.46
   9  -1  -3   13.41    0.49
  -9   1   3   13.96    0.52
   8  -1  -3    4.35    0.19
   8  -1  -3    4.28    0.23
   8  -1  -3    4.02    0.21
  -8   1   3    4.29    0.23
   7  -1  -3    0.06    0.05
   7  -1  -3    0.01    0.04
   7  -1  -3    0.07    0.05
   7  -1  -3    0.06    0.05
  -7   1   3   -0.03    0.03
  -7   1   3    0.00    0.06
  -7   1   3    0.00    0.06
   6  -1  -3    0.26    0.05
   6  -1  -3    0.21    0.06
   6  -1  -3    0.32    0.07
   6  -1  -3    0.29    0.06
   6  -1  -3    0.23    0.06
  -6   1   3    0.18    0.06
  -6   1   3    0.25    0.04
  -6   1   3    0.28    0.07
  -6   1   3    0.27    0.06
   5  -1  -3    1.79    0.11
   5  -1  -3    1.68    0.13
   5  -1  -3    1.73    0.11
   5  -1  -3    1.61    0.09
  -5   1   3    1.69    0.11
  -5   1   3    1.67    0.08
  -5   1   3    1.69    0.13
  -5   1   3    1.58    0.12
   4  -1  -3   68.98    2.08
   4  -1  -3   67.93    1.89
   4  -1  -3   67.86    1.96
   4  -1  -3   66.85    2.21
  -4   1   3   68.40    2.22
  -4   1   3   69.68    1.96
  -4   1   3   66.75    1.99
  -4   1   3   68.10    1.89
  -4   1   3   66.37    2.08
   3  -1  -3   66.05    1.84
   3  -1  -3   68.88    2.03
   3  -1  -3   61.58    2.03
   3  -1  -3   67.55    1.91
  -3   1   3   65.56    2.03
  -3   1   3   67.66    1.94
  -3   1   3   68.48    1.85
  -3   1   3   67.99    1.91
  -3   1   3   64.96    2.15
   2  -1  -3    0.91    0.05
   2  -1  -3    0.87    0.07
   2  -1  -3    0.94    0.06
   2  -1  -3    0.90    0.06
  -2   1   3    0.96    0.07
  -2   1   3    0.88    0.06
  -2   1   3    0.88    0.06
  -2   1   3    1.05    0.05
   1  -1  -3    7.73    0.26
   1  -1  -3    7.26    0.25
   1  -1  -3    7.67    0.28
  -1   1   3    7.83    0.22
  -1   1   3    7.85    0.28
  -1   1   3    7.97    0.22
  -1   1   3    7.75    0.26
   0  -1  -3    1.72    0.06
   0  -1  -3    1.69    0.06
   0  -1  -3    1.49    0.08
   0   1   3    1.49    0.08
   0   1   3    1.68    0.07
  -1  -1  -3   67.09    1.99
  -1  -1  -3   65.70    2.13
  -1  -1  -3   66.31    2.12
   1   1   3   64.68    2.00
   1   1   3   65.90    2.12
   1   1   3   67.22    2.12
  -2  -1  -3   63.77    2.09
  -2  -1  -3   63.11    1.95
  -2  -1  -3   64.15    2.10
  -2  -1  -3   65.70    1.95
   2   1   3   67.21    1.98
   2   1   3   64.35    1.86
   2   1   3   66.19    2.10
  -3  -1  -3    0.11    0.03
  -3  -1  -3    0.12    0.05
  -3  -1  -3    0.07    0.04
  -3  -1  -3    0.07    0.03
  -3  -1  -3    0.12    0.04
   3   1   3    0.11    0.04
   3   1   3    0.08    0.02
   3   1   3    0.11    0.02
   3   1   3    0.12    0.04
  -4  -1  -3    4.81    0.18
  -4  -1  -3    5.03    0.23
  -4  -1  -3    5.00    0.23
  -4  -1  -3    4.83    0.18
  -4  -1  -3    4.67    0.24
   4   1   3    5.01    0.20
   4   1   3    5.13    0.22
  -5  -1  -3   12.79    0.41
  -5  -1  -3   12.80    0.41
  -5  -1  -3   12.20    0.49
  -5  -1  -3   13.08    0.52
   5   1   3   13.23    0.47
   5   1   3   12.03    0.44
  -6  -1  -3   13.15    0.42
  -6  -1  -3   13.55    0.53
  -6  -1  -3   13.01    0.43
  -6  -1  -3   13.33    0.56
   6   1   3   13.12    0.47
  -7  -1  -3    5.66    0.32
  -7  -1  -3    5.56    0.30
   7   1   3    5.12    0.26
   8   1   3    0.24    0.09
   9   1   3    0.62    0.13
  11  -2  -3    1.64    0.15
 -11   2   3    1.81    0.16
  10  -2  -3    9.68    0.37
 -10   2   3   10.02    0.41
   9  -2  -3    2.99    0.16
  -9   2   3    3.10    0.19
   8  -2  -3    0.84    0.09
   8  -2  -3    0.72    0.11
   8  -2  -3    0.71    0.11
  -8   2   3    0.86    0.11
   7  -2  -3    5.85    0.22
   7  -2  -3    6.03    0.26
   7  -2  -3    5.73    0.27
  -7   2   3    6.08    0.30
  -7   2   3    6.12    0.27
   6  -2  -3   39.96    1.41
   6  -2  -3   41.22    1.25
   6  -2  -3   41.94    1.32
   6  -2  -3   42.76    1.19
  -6   2   3   41.01    1.31
  -6   2   3   41.96    1.17
  -6   2   3   42.05    1.32
  -6   2   3   40.73    1.41
   5  -2  -3   84.45    2.48
   5  -2  -3   86.68    2.64
   5  -2  -3   87.71    2.81
   5  -2  -3   85.75    2.40
  -5   2   3   82.49    2.80
  -5   2   3   85.71    2.39
  -5   2   3   88.12    2.53
  -5   2   3   83.97    2.63
  -5   2   3   90.03    2.64
   4  -2  -3    5.73    0.25
   4  -2  -3    5.65    0.22
   4  -2  -3    5.78    0.19
   4  -2  -3    5.60    0.21
  -4   2   3    5.54    0.22
  -4   2   3    5.57    0.23
  -4   2   3    5.91    0.21
  -4   2   3    5.61    0.21
  -4   2   3    5.61    0.19
  -4   2   3    5.81    0.25
   3  -2  -3   28.56    0.85
   3  -2  -3   27.41    0.96
   3  -2  -3   29.16    0.81
   3  -2  -3   29.50    0.90
  -3   2   3   28.69    0.97
  -3   2   3   29.74    0.91
  -3   2   3   28.41    0.85
  -3   2   3   28.22    0.81
   2  -2  -3   19.01    0.53
   2  -2  -3   18.52    0.58
   2  -2  -3   17.81    0.59
  -2   2   3   17.95    0.55
  -2   2   3   18.44    0.53
  -2   2   3   18.09    0.59
  -2   2   3   18.94    0.63
   1  -2  -3   46.53    1.53
   1  -2  -3   46.40    1.44
   1  -2  -3   48.39    1.30
  -1   2   3   46.57    1.31
  -1   2   3   46.52    1.52
  -1   2   3   47.39    1.44
   0  -2  -3   80.34    2.42
   0  -2  -3   83.69    2.42
   0  -2  -3   79.21    2.57
   0   2   3   82.88    2.21
   0   2   3   83.31    2.57
   0   2   3   70.95    2.42
  -1  -2  -3   24.57    0.76
  -1  -2  -3   24.48    0.75
  -1  -2  -3   24.35    0.82
  -1  -2  -3   23.70    0.82
   1   2   3   24.15    0.81
   1   2   3   24.00    0.82
   1   2   3   24.71    0.68
   1   2   3   24.58    0.77
  -2  -2  -3   23.85    0.79
  -2  -2  -3   23.12    0.72
  -2  -2  -3   22.46    0.78
  -2  -2  -3   22.64    0.72
   2   2   3   22.81    0.74
   2   2   3   22.91    0.70
   2   2   3   23.11    0.79
   2   2   3   23.30    0.65
  -3  -2  -3    7.41    0.32
  -3  -2  -3    7.32    0.26
  -3  -2  -3    7.31    0.26
  -3  -2  -3    7.34    0.30
  -3  -2  -3    7.29    0.30
   3   2   3    7.23    0.28
   3   2   3    7.11    0.23
   3   2   3    6.86    0.27
  -4  -2  -3    5.72    0.29
  -4  -2  -3    5.90    0.23
  -4  -2  -3    6.26    0.28
  -4  -2  -3    5.95    0.23
  -4  -2  -3    6.34    0.28
   4   2   3    6.46    0.25
   4   2   3    5.98    0.26
  -5  -2  -3   17.62    0.67
  -5  -2  -3   17.77    0.65
  -5  -2  -3   17.03    0.56
  -5  -2  -3   16.89    0.56
  -5  -2  -3   16.60    0.65
   5   2   3   17.29    0.61
   5   2   3   16.26    0.57
  -6  -2  -3    2.23    0.13
  -6  -2  -3    2.63    0.18
  -6  -2  -3    2.54    0.13
  -6  -2  -3    2.58    0.20
   6   2   3    2.41    0.17
  -7  -2  -3    1.91    0.11
  -7  -2  -3    2.11    0.19
  -7  -2  -3    1.89    0.10
  -7  -2  -3    2.22    0.20
   7   2   3    2.01    0.16
   9   2   3    0.94    0.15
  11  -3  -3    3.51    0.20
 -11   3   3    3.43    0.21
  10  -3  -3    1.36    0.13
 -10   3   3    1.18    0.13
   9  -3  -3    1.90    0.13
  -9   3   3    2.10    0.16
   8  -3  -3   12.92    0.43
   8  -3  -3   12.64    0.49
   8  -3  -3   13.78    0.48
  -8   3   3   12.49    0.54
  -8   3   3   12.30    0.48
   7  -3  -3   10.04    0.34
   7  -3  -3    9.43    0.39
   7  -3  -3   10.17    0.37
  -7   3   3   10.74    0.39
  -7   3   3    9.98    0.44
   6  -3  -3   24.26    0.71
   6  -3  -3   24.84    0.87
   6  -3  -3   23.99    0.76
   6  -3  -3   23.84    0.80
  -6   3   3   23.91    0.80
  -6   3   3   24.25    0.69
  -6   3   3   24.32    0.87
  -6   3   3   23.66    0.79
   5  -3  -3   32.55    1.08
   5  -3  -3   31.20    0.90
   5  -3  -3   31.81    1.01
   5  -3  -3   31.65    0.95
  -5   3   3   30.45    1.00
  -5   3   3   30.91    1.01
  -5   3   3   30.37    1.08
  -5   3   3   31.89    0.89
   4  -3  -3    2.09    0.10
   4  -3  -3    1.90    0.13
   4  -3  -3    2.07    0.11
   4  -3  -3    2.06    0.11
  -4   3   3    1.92    0.11
  -4   3   3    1.85    0.11
  -4   3   3    1.91    0.11
  -4   3   3    1.99    0.09
  -4   3   3    1.99    0.11
  -4   3   3    1.77    0.13
   3  -3  -3   82.80    2.64
   3  -3  -3   80.69    2.26
   3  -3  -3   81.55    2.48
  -3   3   3   83.98    2.64
  -3   3   3   79.30    2.33
  -3   3   3   83.21    2.49
  -3   3   3   79.12    2.26
   2  -3  -3    7.29    0.22
   2  -3  -3    6.29    0.25
   2  -3  -3    7.00    0.25
  -2   3   3    6.76    0.27
  -2   3   3    6.53    0.25
  -2   3   3    7.01    0.22
   1  -3  -3    2.56    0.14
   1  -3  -3    2.86    0.10
   1  -3  -3    3.06    0.13
   1  -3  -3    2.82    0.13
  -1   3   3    2.91    0.14
  -1   3   3    3.06    0.11
  -1   3   3    3.10    0.13
   0  -3  -3    1.43    0.08
   0  -3  -3    1.44    0.10
   0  -3  -3    1.44    0.06
   0   3   3    1.62    0.11
   0   3   3    1.34    0.09
   0   3   3    1.55    0.07
   0   3   3    1.69    0.10
  -1  -3  -3   73.52    2.21
  -1  -3  -3   74.00    2.36
  -1  -3  -3   71.82    2.21
   1   3   3   74.76    2.22
   1   3   3   74.83    2.35
   1   3   3   70.98    2.10
   1   3   3   70.69    2.36
   1   3   3   70.54    2.01
  -2  -3  -3   15.78    0.58
  -2  -3  -3   15.51    0.52
  -2  -3  -3   16.29    0.58
  -2  -3  -3   16.61    0.53
   2   3   3   16.02    0.55
   2   3   3   15.32    0.58
   2   3   3   16.09    0.52
   2   3   3   15.98    0.47
  -3  -3  -3   14.41    0.52
  -3  -3  -3   13.29    0.46
  -3  -3  -3   13.27    0.52
  -3  -3  -3   13.34    0.46
   3   3   3   13.86    0.49
   3   3   3   13.50    0.46
  -4  -3  -3    2.30    0.17
  -4  -3  -3    2.08    0.13
  -4  -3  -3    2.00    0.15
  -4  -3  -3    2.33    0.16
   4   3   3    2.16    0.14
   4   3   3    2.24    0.15
  -5  -3  -3    0.18    0.06
  -5  -3  -3    0.03    0.07
  -5  -3  -3    0.22    0.08
  -5  -3  -3    0.24    0.08
  -5  -3  -3    0.24    0.06
   5   3   3    0.19    0.07
  -6  -3  -3    0.06    0.09
  -6  -3  -3    0.04    0.05
  -6  -3  -3    0.08    0.06
   6   3   3    0.21    0.08
  -7  -3  -3    9.77    0.36
  -7  -3  -3   10.40    0.49
   7   3   3   10.17    0.42
  -8  -3  -3    2.94    0.26
  -8  -3  -3    2.99    0.14
  11  -4  -3    0.65    0.10
 -11   4   3    0.74    0.11
  10  -4  -3    2.98    0.17
 -10   4   3    3.03    0.19
   9  -4  -3    8.48    0.32
  -9   4   3    8.59    0.36
   8  -4  -3   11.82    0.45
   8  -4  -3   10.89    0.38
   8  -4  -3   11.44    0.43
  -8   4   3   10.87    0.49
  -8   4   3   11.01    0.43
   7  -4  -3    2.52    0.13
   7  -4  -3    2.81    0.17
   7  -4  -3    2.63    0.16
  -7   4   3    2.94    0.20
  -7   4   3    2.68    0.16
   6  -4  -3    1.20    0.08
   6  -4  -3    1.09    0.10
   6  -4  -3    1.13    0.11
  -6   4   3    1.06    0.10
  -6   4   3    1.10    0.06
  -6   4   3    1.15    0.13
  -6   4   3    1.12    0.11
   5  -4  -3   17.85    0.53
   5  -4  -3   18.31    0.65
   5  -4  -3   17.62    0.57
   5  -4  -3   18.29    0.60
  -5   4   3   17.11    0.60
  -5   4   3   17.28    0.52
  -5   4   3   17.75    0.59
  -5   4   3   17.56    0.65
   4  -4  -3   10.12    0.32
   4  -4  -3   10.18    0.35
   4  -4  -3   10.40    0.37
   4  -4  -3   10.77    0.41
  -4   4   3   10.17    0.32
  -4   4   3   10.25    0.41
  -4   4   3   10.78    0.38
  -4   4   3   10.29    0.37
   3  -4  -3   64.71    1.99
   3  -4  -3   61.85    2.11
   3  -4  -3   64.50    1.80
  -3   4   3   67.17    1.80
  -3   4   3   63.90    2.12
  -3   4   3   65.12    1.87
  -3   4   3   65.48    1.99
   2  -4  -3    1.50    0.09
   2  -4  -3    1.25    0.10
   2  -4  -3    1.43    0.08
  -2   4   3    1.44    0.08
  -2   4   3    1.51    0.10
  -2   4   3    1.63    0.10
   1  -4  -3    1.30    0.09
   1  -4  -3    1.22    0.09
   1  -4  -3    1.03    0.06
  -1   4   3    1.10    0.09
  -1   4   3    1.27    0.07
  -1   4   3    1.28    0.10
   0  -4  -3   60.45    1.62
   0  -4  -3   56.13    1.80
   0  -4  -3   58.15    1.80
   0  -4  -3   58.17    1.92
   0   4   3   58.50    1.92
   0   4   3   60.40    1.92
   0   4   3   57.19    1.64
   0   4   3   59.11    1.81
  -1  -4  -3  338.47    9.88
  -1  -4  -3  314.59   10.46
  -1  -4  -3  326.71    9.03
   1   4   3  337.18    9.04
   1   4   3  316.25   10.46
   1   4   3  339.39    9.31
   1   4   3  322.80   10.46
   1   4   3  337.47    9.90
  -2  -4  -3    0.27    0.07
  -2  -4  -3    0.32    0.06
  -2  -4  -3    0.33    0.06
  -2  -4  -3    0.34    0.07
   2   4   3    0.40    0.07
   2   4   3    0.31    0.05
   2   4   3    0.39    0.07
   2   4   3    0.39    0.07
  -3  -4  -3    2.95    0.15
  -3  -4  -3    2.86    0.16
  -3  -4  -3    3.27    0.19
  -3  -4  -3    3.10    0.19
   3   4   3    3.14    0.18
   3   4   3    3.01    0.17
  -4  -4  -3    0.13    0.06
  -4  -4  -3    0.07    0.05
  -4  -4  -3    0.17    0.06
  -4  -4  -3    0.14    0.06
  -4  -4  -3    0.20    0.08
   4   4   3    0.10    0.06
   4   4   3    0.10    0.07
  -5  -4  -3    5.53    0.29
  -5  -4  -3    5.00    0.23
  -5  -4  -3    5.61    0.30
   5   4   3    4.93    0.25
  -6  -4  -3    1.63    0.20
  -6  -4  -3    1.40    0.11
   6   4   3    1.56    0.16
  -7  -4  -3    3.43    0.27
  -7  -4  -3    3.35    0.17
  -8  -4  -3    0.01    0.05
  -8  -4  -3    0.07    0.10
  11  -5  -3    1.85    0.15
 -11   5   3    1.57    0.14
  10  -5  -3    5.46    0.24
 -10   5   3    5.28    0.26
   9  -5  -3    1.19    0.11
  -9   5   3    1.15    0.12
   8  -5  -3    0.07    0.05
   8  -5  -3    0.00    0.06
   8  -5  -3   -0.01    0.06
  -8   5   3   -0.03    0.06
   7  -5  -3    3.62    0.16
   7  -5  -3    3.66    0.19
   7  -5  -3    3.65    0.20
  -7   5   3    3.56    0.23
  -7   5   3    3.70    0.20
   6  -5  -3   29.24    0.84
   6  -5  -3   27.59    0.94
   6  -5  -3   28.12    0.89
  -6   5   3   28.72    0.94
  -6   5   3   29.73    0.81
  -6   5   3   28.37    1.02
   5  -5  -3   45.48    1.28
   5  -5  -3   44.74    1.42
   5  -5  -3   45.06    1.52
   5  -5  -3   44.92    1.34
  -5   5   3   45.19    1.41
  -5   5   3   46.34    1.53
  -5   5   3   44.21    1.26
  -5   5   3   43.17    1.42
   4  -5  -3    4.47    0.20
   4  -5  -3    4.18    0.16
   4  -5  -3    4.45    0.22
  -4   5   3    4.42    0.20
  -4   5   3    4.19    0.19
  -4   5   3    4.16    0.22
  -4   5   3    4.16    0.15
   3  -5  -3    0.01    0.03
   3  -5  -3    0.00    0.03
   3  -5  -3   -0.08    0.03
  -3   5   3    0.00    0.03
  -3   5   3    0.07    0.05
  -3   5   3    0.02    0.03
  -3   5   3   -0.05    0.04
   2  -5  -3    2.37    0.11
   2  -5  -3    2.24    0.14
   2  -5  -3    2.08    0.12
  -2   5   3    2.31    0.13
  -2   5   3    2.25    0.14
  -2   5   3    2.35    0.10
   1  -5  -3    0.17    0.05
   1  -5  -3    0.04    0.03
   1  -5  -3    0.23    0.04
  -1   5   3    0.18    0.05
  -1   5   3    0.13    0.05
  -1   5   3    0.15    0.04
   0  -5  -3   22.12    0.75
   0  -5  -3   23.38    0.66
   0  -5  -3   24.06    0.76
   0   5   3   22.66    0.68
   0   5   3   22.16    0.81
   0   5   3   21.70    0.76
   0   5   3   25.09    0.82
  -1  -5  -3   52.89    1.77
  -1  -5  -3   52.33    1.65
  -1  -5  -3   53.39    1.65
  -1  -5  -3   54.41    1.47
   1   5   3   55.46    1.77
   1   5   3   49.86    1.66
   1   5   3   51.05    1.76
   1   5   3   52.85    1.50
   1   5   3   52.24    1.57
  -2  -5  -3    2.69    0.10
  -2  -5  -3    2.51    0.18
  -2  -5  -3    2.87    0.15
   2   5   3    2.80    0.17
   2   5   3    2.69    0.16
   2   5   3    2.99    0.19
  -3  -5  -3   11.70    0.44
  -3  -5  -3   12.16    0.50
  -3  -5  -3   13.10    0.51
   3   5   3   13.06    0.51
   3   5   3   11.54    0.44
   3   5   3   11.94    0.47
  -4  -5  -3   10.15    0.45
  -4  -5  -3   10.45    0.39
  -4  -5  -3   10.40    0.46
   4   5   3   10.66    0.43
   4   5   3    9.66    0.40
  -5  -5  -3    6.53    0.35
   5   5   3    6.53    0.31
  -6  -5  -3    0.11    0.06
  -6  -5  -3   -0.01    0.08
  -7  -5  -3    0.82    0.17
  -7  -5  -3    0.73    0.10
  -8  -5  -3    2.08    0.25
  -8  -5  -3    2.14    0.14
  11  -6  -3    4.53    0.23
 -11   6   3    3.94    0.22
  10  -6  -3    1.74    0.13
 -10   6   3    1.60    0.14
   9  -6  -3    1.01    0.11
  -9   6   3    1.09    0.12
   8  -6  -3    2.11    0.13
  -8   6   3    1.96    0.15
   7  -6  -3    0.75    0.10
   7  -6  -3    0.64    0.08
   7  -6  -3    0.76    0.10
  -7   6   3    0.80    0.10
  -7   6   3    0.79    0.12
   6  -6  -3   26.91    0.90
   6  -6  -3   26.56    0.80
   6  -6  -3   26.56    0.85
  -6   6   3   26.48    0.90
  -6   6   3   28.79    0.99
   5  -6  -3    7.59    0.26
   5  -6  -3    7.27    0.30
   5  -6  -3    7.72    0.34
  -5   6   3    7.25    0.34
  -5   6   3    7.62    0.30
  -5   6   3    7.45    0.24
  -5   6   3    7.68    0.31
   4  -6  -3   12.96    0.41
   4  -6  -3   12.68    0.46
   4  -6  -3   12.23    0.50
  -4   6   3   13.33    0.40
  -4   6   3   13.15    0.46
  -4   6   3   13.08    0.47
  -4   6   3   13.00    0.51
   3  -6  -3   32.53    1.12
   3  -6  -3   32.62    1.04
   3  -6  -3   33.10    0.94
  -3   6   3   32.53    1.05
  -3   6   3   32.01    1.12
  -3   6   3   31.88    0.93
   2  -6  -3    3.88    0.19
   2  -6  -3    3.83    0.21
   2  -6  -3    4.14    0.16
  -2   6   3    4.11    0.21
  -2   6   3    4.09    0.19
  -2   6   3    3.53    0.15
   1  -6  -3   13.81    0.57
   1  -6  -3   16.26    0.53
   1  -6  -3   15.31    0.46
  -1   6   3   15.31    0.54
  -1   6   3   15.37    0.47
  -1   6   3   15.46    0.58
   0  -6  -3    6.09    0.22
   0  -6  -3    6.77    0.27
   0   6   3    6.73    0.30
   0   6   3    6.70    0.28
   0   6   3    6.02    0.30
   0   6   3    6.22    0.26
  -1  -6  -3    4.89    0.23
  -1  -6  -3    4.59    0.23
  -1  -6  -3    5.05    0.17
  -1  -6  -3    5.12    0.26
   1   6   3    5.10    0.26
   1   6   3    5.00    0.24
   1   6   3    4.66    0.22
   1   6   3    4.80    0.25
  -2  -6  -3    4.54    0.16
  -2  -6  -3    4.81    0.26
  -2  -6  -3    4.35    0.22
   2   6   3    4.40    0.22
   2   6   3    4.67    0.26
   2   6   3    4.61    0.24
  -3  -6  -3    3.64    0.20
   3   6   3    4.19    0.23
   3   6   3    3.87    0.22
  -4  -6  -3    1.30    0.12
   4   6   3    1.31    0.15
   4   6   3    1.02    0.13
  -5  -6  -3    0.22    0.11
  -5  -6  -3    0.37    0.08
  -6  -6  -3    1.27    0.19
  -6  -6  -3    1.23    0.13
  -7  -6  -3    4.65    0.33
  -7  -6  -3    4.46    0.23
  11  -7  -3    0.09    0.07
 -11   7   3    0.07    0.07
  10  -7  -3    2.02    0.15
 -10   7   3    1.94    0.15
   9  -7  -3    9.41    0.35
  -9   7   3    9.47    0.38
   8  -7  -3    8.72    0.32
  -8   7   3    8.45    0.35
   7  -7  -3    0.32    0.08
   7  -7  -3    0.29    0.06
  -7   7   3    0.51    0.10
  -7   7   3    0.29    0.08
   6  -7  -3    0.01    0.04
   6  -7  -3    0.02    0.05
  -6   7   3   -0.04    0.06
  -6   7   3   -0.02    0.05
   5  -7  -3    3.93    0.20
   5  -7  -3    3.80    0.16
  -5   7   3    3.51    0.20
  -5   7   3    3.72    0.23
   4  -7  -3   15.27    0.55
   4  -7  -3   14.85    0.48
   4  -7  -3   16.64    0.60
  -4   7   3   14.56    0.60
  -4   7   3   15.68    0.55
   3  -7  -3   14.33    0.56
   3  -7  -3   14.40    0.45
   3  -7  -3   15.15    0.51
  -3   7   3   13.92    0.51
  -3   7   3   13.54    0.56
   2  -7  -3    3.38    0.18
   2  -7  -3    3.62    0.15
   2  -7  -3    3.42    0.21
  -2   7   3    3.47    0.19
  -2   7   3    3.40    0.21
   1  -7  -3    0.04    0.04
   1  -7  -3    0.06    0.05
   1  -7  -3    0.01    0.03
  -1   7   3    0.09    0.05
  -1   7   3    0.02    0.05
  -1   7   3    0.11    0.06
   0  -7  -3    9.30    0.32
   0  -7  -3    9.96    0.38
   0   7   3   10.90    0.44
   0   7   3    9.79    0.40
   0   7   3    9.57    0.37
   0   7   3    9.53    0.42
  -1  -7  -3   21.93    0.64
  -1  -7  -3   20.91    0.74
   1   7   3   21.45    0.75
   1   7   3   22.17    0.72
  -2  -7  -3   14.75    0.53
   2   7   3   14.06    0.54
   2   7   3   13.53    0.51
  -3  -7  -3    3.20    0.19
   3   7   3    3.01    0.20
  -4  -7  -3    0.01    0.06
   4   7   3   -0.09    0.07
  -5  -7  -3    2.02    0.22
  -5  -7  -3    1.57    0.15
  -6  -7  -3    2.10    0.24
  10  -8  -3    7.36    0.31
 -10   8   3    7.57    0.32
   9  -8  -3    2.56    0.16
  -9   8   3    2.28    0.16
   8  -8  -3    0.56    0.08
  -8   8   3    0.63    0.10
   7  -8  -3    0.44    0.07
  -7   8   3    0.26    0.07
   6  -8  -3    9.20    0.33
   6  -8  -3    9.07    0.38
  -6   8   3    9.36    0.38
  -6   8   3    9.40    0.43
   5  -8  -3   41.13    1.33
   5  -8  -3   41.13    1.19
  -5   8   3   41.22    1.33
  -5   8   3   40.38    1.43
   4  -8  -3    3.29    0.16
   4  -8  -3    3.31    0.19
  -4   8   3    3.51    0.22
  -4   8   3    3.43    0.20
   3  -8  -3    5.57    0.26
   3  -8  -3    5.52    0.22
  -3   8   3    5.45    0.27
  -3   8   3    6.35    0.31
   2  -8  -3    2.16    0.15
   2  -8  -3    2.27    0.12
  -2   8   3    2.41    0.17
  -2   8   3    2.08    0.17
   1  -8  -3    5.53    0.25
   1  -8  -3    5.45    0.21
  -1   8   3    5.31    0.25
  -1   8   3    5.35    0.27
  -1   8   3    5.06    0.29
   0  -8  -3   12.31    0.39
   0  -8  -3   12.48    0.46
   0   8   3   11.48    0.47
  -1  -8  -3    2.37    0.17
  -1  -8  -3    2.40    0.12
   1   8   3    3.13    0.19
  -2  -8  -3    0.10    0.07
   2   8   3    0.12    0.08
  -3  -8  -3    0.97    0.13
   3   8   3    0.81    0.13
  -4  -8  -3    1.78    0.17
  -5  -8  -3    3.52    0.23
  -5  -8  -3    3.56    0.29
  -6  -8  -3    0.73    0.16
  10  -9  -3    0.09    0.08
 -10   9   3    0.11    0.08
   9  -9  -3    0.39    0.08
  -9   9   3    0.27    0.08
   8  -9  -3    2.70    0.16
  -8   9   3    2.70    0.18
   7  -9  -3    6.19    0.25
  -7   9   3    6.34    0.29
   6  -9  -3    6.93    0.31
   6  -9  -3    6.31    0.26
  -6   9   3    6.48    0.30
   5  -9  -3    4.85    0.25
   5  -9  -3    4.83    0.21
  -5   9   3    4.59    0.25
   4  -9  -3    0.74    0.09
   4  -9  -3    0.85    0.11
  -4   9   3    0.48    0.10
   3  -9  -3    6.26    0.30
   3  -9  -3    6.16    0.24
  -3   9   3    6.51    0.31
   2  -9  -3   12.50    0.41
   2  -9  -3   11.92    0.47
  -2   9   3   12.70    0.49
   1  -9  -3    9.58    0.39
   1  -9  -3   10.02    0.33
  -1   9   3    9.06    0.40
   0  -9  -3    1.82    0.15
   0  -9  -3    1.94    0.11
   0   9   3    1.90    0.16
  -1  -9  -3    1.97    0.16
  -1  -9  -3    1.72    0.11
   1   9   3    2.11    0.17
  -2  -9  -3    4.82    0.27
   2   9   3    5.17    0.28
  -3  -9  -3    1.73    0.17
   3   9   3    1.79    0.19
  -4  -9  -3    0.81    0.13
  -5  -9  -3    0.18    0.09
  -5  -9  -3    0.26    0.13
   9 -10  -3    3.35    0.19
  -9  10   3    3.64    0.21
   8 -10  -3    2.37    0.15
  -8  10   3    2.32    0.17
   7 -10  -3    2.58    0.16
  -7  10   3    2.48    0.18
   6 -10  -3    0.60    0.09
  -6  10   3    0.66    0.11
   5 -10  -3    2.06    0.14
   5 -10  -3    2.31    0.17
  -5  10   3    2.12    0.17
   4 -10  -3    9.33    0.39
   4 -10  -3    8.50    0.32
  -4  10   3    8.81    0.39
   3 -10  -3    4.07    0.18
   3 -10  -3    4.10    0.23
  -3  10   3    3.60    0.23
   2 -10  -3    1.10    0.10
   2 -10  -3    1.38    0.14
  -2  10   3    0.93    0.13
   1 -10  -3    0.16    0.06
   1 -10  -3    0.06    0.07
  -1  10   3    0.17    0.08
   0 -10  -3    1.04    0.09
   0 -10  -3    1.07    0.13
   0  10   3    0.88    0.13
  -1 -10  -3    3.18    0.21
   1  10   3    3.06    0.22
  -2 -10  -3    1.33    0.16
   2  10   3    1.68    0.18
  -3 -10  -3    0.43    0.11
   3  10   3    0.53    0.13
  -4 -10  -3    0.05    0.09
   9 -11  -3    0.34    0.09
  -9  11   3    0.34    0.10
   8 -11  -3    1.48    0.14
  -8  11   3    1.61    0.16
   7 -11  -3   -0.01    0.06
  -7  11   3    0.01    0.07
   6 -11  -3    5.47    0.25
  -6  11   3    4.99    0.28
   5 -11  -3    7.93    0.32
  -5  11   3    7.93    0.37
   4 -11  -3    6.21    0.33
   4 -11  -3    6.33    0.26
  -4  11   3    6.88    0.33
   3 -11  -3   -0.09    0.06
   3 -11  -3    0.07    0.05
  -3  11   3   -0.15    0.07
   2 -11  -3    0.33    0.09
   2 -11  -3    0.26    0.06
  -2  11   3    0.08    0.08
   1 -11  -3    3.98    0.24
   1 -11  -3    4.09    0.19
  -1  11   3    3.94    0.25
   0 -11  -3    7.48    0.35
   0  11   3    6.67    0.35
  -1 -11  -3    0.91    0.14
   1  11   3    0.76    0.14
  -2 -11  -3    0.02    0.08
   2  11   3   -0.07    0.09
  -3 -11  -3    0.47    0.12
   3  11   3    0.43    0.13
   8 -12  -3    0.68    0.11
  -8  12   3    0.40    0.10
   7 -12  -3    3.71    0.21
  -7  12   3    3.47    0.23
   6 -12  -3    4.43    0.23
  -6  12   3    4.52    0.26
   5 -12  -3    1.14    0.12
  -5  12   3    1.19    0.15
   4 -12  -3    0.35    0.08
   4 -12  -3    0.49    0.11
  -4  12   3    0.34    0.10
   3 -12  -3    5.58    0.24
   3 -12  -3    5.63    0.30
  -3  12   3    5.52    0.30
   2 -12  -3    1.46    0.16
   2 -12  -3    1.36    0.12
  -2  12   3    1.31    0.16
   1 -12  -3    3.99    0.19
   1 -12  -3    3.84    0.24
  -1  12   3    4.34    0.27
   0 -12  -3    1.30    0.16
   0  12   3    1.35    0.17
  -1 -12  -3    1.47    0.17
   1  12   3    1.17    0.17
  -2 -12  -3    0.46    0.12
   2  12   3    0.36    0.13
   6 -13  -3    0.44    0.09
  -6  13   3    0.23    0.10
   5 -13  -3    0.06    0.07
  -5  13   3   -0.05    0.08
   4 -13  -3   -0.06    0.06
  -4  13   3   -0.03    0.08
   3 -13  -3    2.06    0.20
   3 -13  -3    2.24    0.15
  -3  13   3    2.47    0.21
   2 -13  -3    1.17    0.16
   2 -13  -3    1.05    0.11
  -2  13   3    1.60    0.18
   1 -13  -3    0.07    0.09
  -1  13   3   -0.01    0.09
   0 -13  -3    0.65    0.13
   0  13   3    0.77    0.15
  -1  14  -4    0.76    0.07
   1 -14   4    0.62    0.10
   2 -14   4   -0.10    0.06
   3 -14   4    1.27    0.14
   2  13  -4    1.91    0.17
  -2 -13   4    2.00    0.15
   1  13  -4    1.00    0.12
  -1 -13   4    0.78    0.10
   0  13  -4    0.17    0.07
   0 -13   4    0.08    0.06
  -1  13  -4   -0.02    0.05
   1 -13   4    0.12    0.06
   2 -13   4    2.61    0.16
   3 -13   4    4.56    0.23
   4 -13   4    1.28    0.13
   5 -13   4    0.61    0.09
   3  12  -4    1.81    0.18
  -3 -12   4    2.24    0.15
   2  12  -4    0.60    0.11
  -2 -12   4    0.53    0.09
   1  12  -4    1.13    0.12
  -1 -12   4    0.98    0.11
   0  12  -4    4.14    0.20
   0 -12   4    3.98    0.19
  -1  12  -4    0.09    0.05
   1 -12   4    0.13    0.06
   2 -12   4    2.50    0.16
  -3  12  -4    0.63    0.13
   3 -12   4    0.64    0.09
  -4  12  -4    1.72    0.20
   4 -12   4    1.71    0.12
  -5  12  -4    6.94    0.38
   5 -12   4    6.98    0.27
  -6  12  -4    0.52    0.13
   6 -12   4    0.43    0.07
   7 -12   4    1.02    0.11
   5  11  -4    1.10    0.16
  -5 -11   4    1.29    0.13
   4  11  -4    1.91    0.19
  -4 -11   4    1.90    0.15
   3  11  -4    0.84    0.13
  -3 -11   4    0.75    0.10
   2  11  -4    3.59    0.22
  -2 -11   4    3.78    0.19
   1  11  -4    5.80    0.27
  -1 -11   4    5.94    0.24
   0  11  -4    2.46    0.15
   0 -11   4    2.65    0.14
  -1  11  -4    0.49    0.06
  -1  11  -4    0.41    0.11
   1 -11   4    0.57    0.08
  -2  11  -4    0.03    0.07
   2 -11   4    0.15    0.06
  -3  11  -4    4.84    0.30
   3 -11   4    5.58    0.22
  -4  11  -4   12.98    0.57
   4 -11   4   13.38    0.43
  -5  11  -4    3.12    0.22
   5 -11   4    2.62    0.14
  -6  11  -4    0.23    0.09
   6 -11   4    0.15    0.06
  -7  11  -4    0.01    0.08
   7 -11   4    0.34    0.07
   6  10  -4    0.79    0.15
  -6 -10   4    0.54    0.14
   5  10  -4   -0.03    0.09
  -5 -10   4   -0.07    0.06
  -5 -10   4   -0.09    0.08
   4  10  -4    1.69    0.17
  -4 -10   4    1.78    0.14
   3  10  -4    3.91    0.23
  -3 -10   4    3.61    0.19
   2  10  -4   17.09    0.62
  -2 -10   4   17.20    0.56
   1  10  -4    4.41    0.28
   1  10  -4    4.76    0.22
  -1 -10   4    4.32    0.19
   0  10  -4    0.11    0.05
   0  10  -4    0.15    0.07
   0 -10   4    0.12    0.05
  -1  10  -4    0.23    0.09
  -1  10  -4    0.40    0.05
  -1  10  -4    0.40    0.05
  -1  10  -4    0.35    0.09
   1 -10   4    0.41    0.07
  -2  10  -4    6.78    0.34
  -2  10  -4    6.53    0.34
   2 -10   4    7.32    0.26
  -3  10  -4    7.75    0.39
   3 -10   4    8.48    0.29
  -4  10  -4    2.87    0.20
   4 -10   4    2.62    0.13
  -5  10  -4    0.06    0.06
   5 -10   4    0.10    0.04
  -6  10  -4    1.01    0.14
   6 -10   4    1.20    0.09
  -7  10  -4    2.99    0.23
   7 -10   4    3.73    0.17
  -8  10  -4    3.41    0.24
   8 -10   4    3.38    0.17
   6   9  -4   -0.14    0.08
  -6  -9   4    0.00    0.06
  -6  -9   4    0.01    0.09
   5   9  -4    0.13    0.09
  -5  -9   4    0.22    0.10
  -5  -9   4    0.17    0.06
   4   9  -4    3.22    0.21
  -4  -9   4    3.56    0.23
  -4  -9   4    3.15    0.17
   3   9  -4   13.11    0.51
  -3  -9   4   12.91    0.44
  -3  -9   4   13.19    0.52
   2   9  -4    5.39    0.31
   2   9  -4    5.22    0.25
  -2  -9   4    5.44    0.22
  -2  -9   4    5.06    0.27
   1   9  -4    3.47    0.23
   1   9  -4    3.50    0.18
   1   9  -4    3.20    0.22
  -1  -9   4    3.22    0.16
   0   9  -4    2.34    0.13
   0   9  -4    2.52    0.18
   0   9  -4    2.44    0.18
   0   9  -4    2.38    0.13
   0  -9   4    2.54    0.13
  -1   9  -4    0.93    0.07
  -1   9  -4    1.12    0.12
  -1   9  -4    1.10    0.07
  -1   9  -4    1.10    0.13
   1  -9   4    1.09    0.08
  -2   9  -4   10.07    0.43
   2  -9   4    9.70    0.32
  -3   9  -4    2.23    0.17
   3  -9   4    2.13    0.10
  -4   9  -4    7.55    0.35
   4  -9   4    7.98    0.26
  -5   9  -4   11.58    0.49
   5  -9   4   12.06    0.37
  -6   9  -4    3.30    0.21
   6  -9   4    3.32    0.14
  -7   9  -4    1.65    0.17
   7  -9   4    1.92    0.11
  -8   9  -4    0.55    0.12
   8  -9   4    0.61    0.08
   8  -9   4    0.22    0.08
  -9   9  -4    1.85    0.20
   9  -9   4    1.48    0.16
   9  -9   4    1.40    0.12
   7   8  -4    1.40    0.18
  -7  -8   4    1.82    0.20
   6   8  -4    4.92    0.28
  -6  -8   4    4.52    0.21
  -6  -8   4    4.45    0.28
   5   8  -4    3.42    0.22
  -5  -8   4    3.28    0.17
  -5  -8   4    3.44    0.22
   4   8  -4    2.83    0.19
  -4  -8   4    3.29    0.21
  -4  -8   4    2.52    0.15
   3   8  -4    0.96    0.12
   3   8  -4    1.25    0.15
  -3  -8   4    1.04    0.09
  -3  -8   4    0.90    0.09
  -3  -8   4    0.86    0.11
   2   8  -4    1.36    0.12
   2   8  -4    1.35    0.15
   2   8  -4    1.44    0.15
  -2  -8   4    1.29    0.13
  -2  -8   4    1.25    0.10
   1   8  -4   14.58    0.50
   1   8  -4   14.95    0.53
   1   8  -4   15.30    0.52
   1   8  -4   15.61    0.60
   1   8  -4   15.52    0.61
  -1  -8   4   14.96    0.53
  -1  -8   4   16.37    0.55
  -1  -8   4   14.98    0.48
   0   8  -4   10.17    0.35
   0   8  -4   10.47    0.42
   0   8  -4   10.02    0.43
   0   8  -4    9.00    0.35
   0  -8   4   10.19    0.38
   0  -8   4   10.52    0.38
   0  -8   4   10.05    0.33
  -1   8  -4    6.97    0.22
  -1   8  -4    6.43    0.31
  -1   8  -4    6.61    0.31
   1  -8   4    6.82    0.23
   1  -8   4    6.57    0.28
  -2   8  -4    0.01    0.05
   2  -8   4    0.02    0.03
  -3   8  -4   13.55    0.52
   3  -8   4   13.24    0.40
  -4   8  -4   16.06    0.63
   4  -8   4   17.72    0.49
  -5   8  -4   13.26    0.52
  -6   8  -4    3.18    0.20
   6  -8   4    3.42    0.17
  -7   8  -4    0.40    0.09
   7  -8   4    0.45    0.08
  -8   8  -4    1.63    0.17
   8  -8   4    1.63    0.15
  -9   8  -4    4.02    0.27
   9  -8   4    4.31    0.24
   8   7  -4    1.93    0.21
  -8  -7   4    1.97    0.21
   7   7  -4    6.23    0.33
  -7  -7   4    5.59    0.32
   6   7  -4    2.90    0.21
  -6  -7   4    2.85    0.16
  -6  -7   4    2.94    0.21
   5   7  -4    0.99    0.13
  -5  -7   4    0.88    0.10
  -5  -7   4    1.08    0.14
   4   7  -4   -0.04    0.06
  -4  -7   4    0.01    0.05
  -4  -7   4    0.01    0.04
  -4  -7   4   -0.01    0.06
   3   7  -4   15.14    0.54
   3   7  -4   13.80    0.59
   3   7  -4   16.33    0.61
  -3  -7   4   15.06    0.52
  -3  -7   4   14.54    0.47
  -3  -7   4   14.14    0.54
   2   7  -4   30.30    1.05
   2   7  -4   30.33    0.95
   2   7  -4   29.21    0.95
   2   7  -4   28.90    1.04
  -2  -7   4   29.51    0.92
  -2  -7   4   29.14    0.86
  -2  -7   4   27.59    0.96
   1   7  -4    9.23    0.33
   1   7  -4    9.47    0.32
   1   7  -4    8.33    0.38
   1   7  -4    9.06    0.39
   1   7  -4    8.64    0.33
  -1  -7   4    9.05    0.30
  -1  -7   4    9.18    0.34
  -1  -7   4    8.82    0.34
   0   7  -4    0.25    0.06
   0   7  -4    0.24    0.06
   0   7  -4    0.33    0.06
   0   7  -4    0.19    0.04
   0   7  -4    0.20    0.04
   0  -7   4    0.27    0.06
   0  -7   4    0.28    0.05
   0  -7   4    0.24    0.04
  -1   7  -4    0.54    0.08
  -1   7  -4    0.57    0.08
   1  -7   4    0.55    0.07
   1  -7   4    0.51    0.06
   1  -7   4    0.58    0.05
  -2   7  -4   16.67    0.63
   2  -7   4   17.17    0.57
   2  -7   4   17.64    0.49
  -3   7  -4   42.94    1.44
  -4   7  -4    8.24    0.34
   4  -7   4    8.13    0.34
  -5   7  -4    0.10    0.06
   5  -7   4    0.15    0.05
   5  -7   4    0.16    0.07
  -6   7  -4    0.53    0.09
   6  -7   4    0.50    0.10
   6  -7   4    0.42    0.07
  -7   7  -4    4.89    0.27
   7  -7   4    4.98    0.23
   7  -7   4    5.24    0.28
  -8   7  -4    5.52    0.30
   8  -7   4    5.44    0.30
   8  -7   4    5.33    0.25
  -9   7  -4   -0.07    0.07
   9  -7   4    0.15    0.08
   8   6  -4    5.16    0.31
   7   6  -4    0.57    0.13
  -7  -6   4    0.65    0.12
  -7  -6   4    0.67    0.09
   6   6  -4    0.12    0.08
  -6  -6   4    0.03    0.07
  -6  -6   4   -0.02    0.05
   5   6  -4    0.01    0.04
   5   6  -4   -0.11    0.06
  -5  -6   4   -0.02    0.06
  -5  -6   4    0.04    0.05
   4   6  -4    6.95    0.34
   4   6  -4    6.47    0.33
   4   6  -4    6.52    0.29
   4   6  -4    6.32    0.22
  -4  -6   4    6.26    0.27
  -4  -6   4    6.93    0.25
  -4  -6   4    7.16    0.30
   3   6  -4   20.67    0.59
   3   6  -4   20.64    0.77
   3   6  -4   22.68    0.78
   3   6  -4   20.37    0.70
   3   6  -4   21.56    0.67
  -3  -6   4   19.99    0.75
  -3  -6   4   20.36    0.71
  -3  -6   4   19.79    0.62
  -3  -6   4   19.76    0.69
  -3  -6   4   21.09    0.67
   2   6  -4    3.79    0.21
   2   6  -4    3.67    0.17
   2   6  -4    3.75    0.21
   2   6  -4    3.86    0.18
  -2  -6   4    3.80    0.18
  -2  -6   4    3.95    0.19
  -2  -6   4    3.66    0.20
  -2  -6   4    3.84    0.15
   1   6  -4    4.47    0.18
   1   6  -4    4.71    0.17
   1   6  -4    4.26    0.22
   1   6  -4    4.01    0.22
   1   6  -4    4.58    0.18
  -1  -6   4    4.62    0.16
  -1  -6   4    4.34    0.19
  -1  -6   4    4.50    0.20
   0   6  -4    7.95    0.33
   0   6  -4    8.05    0.26
   0   6  -4    7.75    0.28
   0   6  -4    8.05    0.33
   0   6  -4    7.91    0.26
   0  -6   4    7.89    0.28
   0  -6   4    8.01    0.24
   0  -6   4    7.57    0.29
  -1   6  -4    9.70    0.34
  -1   6  -4    9.52    0.37
   1  -6   4    9.84    0.33
   1  -6   4    9.10    0.33
  -2   6  -4   24.61    0.85
  -3   6  -4   11.11    0.41
   3  -6   4   10.33    0.39
  -4   6  -4    1.97    0.13
   4  -6   4    1.91    0.10
   4  -6   4    1.97    0.14
  -5   6  -4    5.54    0.26
   5  -6   4    5.62    0.22
   5  -6   4    4.97    0.25
  -6   6  -4    6.77    0.31
   6  -6   4    6.67    0.26
   6  -6   4    6.80    0.31
  -7   6  -4    7.83    0.37
   7  -6   4    8.35    0.37
   7  -6   4    8.41    0.32
  -8   6  -4    1.39    0.16
   8  -6   4    1.65    0.18
   8  -6   4    1.11    0.12
  -9   6  -4    1.00    0.15
   9  -6   4    0.94    0.12
   9   5  -4    6.56    0.37
  -9  -5   4    7.58    0.37
   8   5  -4    0.67    0.09
   8   5  -4    0.46    0.12
  -8  -5   4    0.77    0.14
   7   5  -4    4.40    0.26
  -7  -5   4    4.10    0.18
  -7  -5   4    4.01    0.24
   6   5  -4   13.31    0.52
  -6  -5   4   12.93    0.52
  -6  -5   4   13.46    0.44
   5   5  -4   12.57    0.50
   5   5  -4   13.33    0.55
  -5  -5   4   13.18    0.50
  -5  -5   4   13.75    0.43
   4   5  -4    5.98    0.30
   4   5  -4    6.18    0.27
   4   5  -4    6.22    0.26
   4   5  -4    5.81    0.20
   4   5  -4    6.19    0.30
  -4  -5   4    6.17    0.26
  -4  -5   4    6.20    0.27
  -4  -5   4    5.90    0.24
  -4  -5   4    6.12    0.29
  -4  -5   4    5.94    0.22
   3   5  -4    8.89    0.33
   3   5  -4    8.58    0.31
   3   5  -4    7.97    0.26
   3   5  -4    8.31    0.36
   3   5  -4    8.75    0.37
  -3  -5   4    8.72    0.36
  -3  -5   4    8.51    0.32
  -3  -5   4    8.96    0.33
  -3  -5   4    8.61    0.31
  -3  -5   4    8.35    0.29
  -3  -5   4    9.26    0.37
   2   5  -4    3.20    0.18
   2   5  -4    3.10    0.12
   2   5  -4    2.92    0.14
   2   5  -4    3.12    0.15
   2   5  -4    3.25    0.18
  -2  -5   4    3.03    0.15
  -2  -5   4    3.04    0.13
  -2  -5   4    3.10    0.17
  -2  -5   4    2.99    0.15
  -2  -5   4    2.87    0.12
   1   5  -4   27.53    0.82
   1   5  -4   28.17    0.94
   1   5  -4   27.97    0.86
   1   5  -4   28.28    0.94
   1   5  -4   27.42    0.86
  -1  -5   4   26.60    0.83
  -1  -5   4   27.06    0.88
  -1  -5   4   27.45    0.78
   0   5  -4   44.62    1.31
   0   5  -4   45.67    1.46
   0   5  -4   40.66    1.44
   0  -5   4   45.06    1.28
   0  -5   4   43.74    1.36
  -1   5  -4    5.57    0.23
  -1   5  -4    5.51    0.22
   1  -5   4    5.43    0.21
   1  -5   4    5.55    0.20
  -2   5  -4    8.64    0.32
   2  -5   4    8.46    0.31
  -3   5  -4   25.23    0.85
   3  -5   4   25.03    0.74
   3  -5   4   24.96    0.80
  -4   5  -4   35.94    1.21
   4  -5   4   36.73    1.06
   4  -5   4   35.91    1.13
  -5   5  -4    0.05    0.04
   5  -5   4    0.03    0.06
   5  -5   4   -0.02    0.03
  -6   5  -4   21.35    0.78
   6  -5   4   22.61    0.76
   6  -5   4   21.20    0.68
  -7   5  -4    0.02    0.06
   7  -5   4   -0.03    0.07
   7  -5   4    0.00    0.06
  -8   5  -4    4.14    0.25
   8  -5   4    4.52    0.27
   8  -5   4    3.96    0.21
  -9   5  -4    4.18    0.27
   9  -5   4    4.27    0.23
   9   4  -4    2.19    0.15
   9   4  -4    2.32    0.22
  -9  -4   4    1.93    0.20
   8   4  -4    5.35    0.24
   8   4  -4    5.30    0.29
  -8  -4   4    5.49    0.30
   7   4  -4    6.74    0.32
  -7  -4   4    6.74    0.25
   6   4  -4    4.55    0.24
   6   4  -4    5.05    0.19
  -6  -4   4    4.36    0.24
  -6  -4   4    4.91    0.20
   5   4  -4    7.36    0.31
   5   4  -4    7.40    0.26
   5   4  -4    8.31    0.36
   5   4  -4    6.05    0.34
  -5  -4   4    8.36    0.31
  -5  -4   4    7.68    0.32
  -5  -4   4    8.09    0.27
  -5  -4   4    7.65    0.35
   4   4  -4    5.34    0.23
   4   4  -4    5.34    0.26
   4   4  -4    5.36    0.23
   4   4  -4    5.48    0.22
   4   4  -4    4.17    0.25
   4   4  -4    5.20    0.18
  -4  -4   4    5.06    0.25
  -4  -4   4    5.50    0.20
  -4  -4   4    5.87    0.23
  -4  -4   4    5.42    0.24
   3   4  -4   30.75    1.06
   3   4  -4   30.64    0.93
   3   4  -4   30.69    0.98
   3   4  -4   32.07    1.07
   3   4  -4   30.30    0.87
  -3  -4   4   29.82    0.99
  -3  -4   4   31.40    0.94
  -3  -4   4   31.11    0.89
  -3  -4   4   31.25    1.05
   2   4  -4   40.84    1.19
   2   4  -4   40.60    1.27
   2   4  -4   40.79    1.27
   2   4  -4   40.64    1.36
   2   4  -4   41.05    1.20
   2   4  -4   42.71    1.37
  -2  -4   4   38.13    1.15
  -2  -4   4   40.10    1.36
  -2  -4   4   41.67    1.28
  -2  -4   4   42.34    1.21
  -2  -4   4   41.82    1.36
   1   4  -4    1.29    0.07
   1   4  -4    1.25    0.07
   1   4  -4    1.38    0.10
   1   4  -4    1.23    0.07
   1   4  -4    1.38    0.09
  -1  -4   4    1.40    0.08
  -1  -4   4    1.12    0.09
  -1  -4   4    1.38    0.06
  -1  -4   4    1.31    0.08
   0   4  -4    7.75    0.28
   0   4  -4    7.15    0.28
   0   4  -4    7.61    0.26
   0  -4   4    7.34    0.25
   0  -4   4    7.40    0.25
   0  -4   4    7.39    0.24
  -1   4  -4   23.00    0.75
   1  -4   4   22.29    0.66
   1  -4   4   22.15    0.69
  -2   4  -4    9.42    0.33
   2  -4   4    9.20    0.28
   2  -4   4    9.19    0.33
  -3   4  -4   37.12    1.22
   3  -4   4   35.98    1.14
   3  -4   4   38.22    1.07
  -4   4  -4   10.88    0.41
   4  -4   4   11.06    0.41
   4  -4   4   11.19    0.35
  -5   4  -4    1.64    0.12
   5  -4   4    1.77    0.10
   5  -4   4    1.68    0.13
  -6   4  -4    3.31    0.19
   6  -4   4    2.96    0.19
   6  -4   4    3.12    0.16
  -7   4  -4   12.06    0.49
   7  -4   4   11.81    0.48
   7  -4   4   11.85    0.42
  -8   4  -4    7.91    0.37
   8  -4   4    7.58    0.32
   8  -4   4    7.09    0.36
  -9   4  -4    1.72    0.18
   9  -4   4    1.95    0.21
   9  -4   4    1.64    0.16
  10   3  -4    0.04    0.07
 -10  -3   4   -0.03    0.09
   9   3  -4    2.29    0.21
   9   3  -4    1.97    0.14
  -9  -3   4    1.92    0.19
   8   3  -4    7.27    0.28
   8   3  -4    6.90    0.34
  -8  -3   4    7.04    0.34
   7   3  -4    8.41    0.36
   7   3  -4    8.33    0.30
  -7  -3   4    7.84    0.28
  -7  -3   4    8.01    0.36
   6   3  -4    0.27    0.08
   6   3  -4    0.13    0.07
   6   3  -4    0.32    0.05
  -6  -3   4    0.25    0.05
  -6  -3   4    0.32    0.08
   5   3  -4    2.02    0.10
   5   3  -4    1.64    0.15
   5   3  -4    1.93    0.15
   5   3  -4    1.97    0.09
   5   3  -4    2.12    0.14
  -5  -3   4    2.01    0.10
  -5  -3   4    1.83    0.14
  -5  -3   4    2.08    0.14
  -5  -3   4    1.94    0.13
   4   3  -4   30.14    0.86
   4   3  -4   31.30    0.97
   4   3  -4   29.93    1.05
   4   3  -4   26.57    0.91
   4   3  -4   32.10    0.97
   4   3  -4   30.27    0.88
  -4  -3   4   29.86    0.97
  -4  -3   4   31.55    0.93
  -4  -3   4   30.11    0.87
  -4  -3   4   29.92    1.04
   3   3  -4  133.61    3.58
   3   3  -4  131.67    4.18
   3   3  -4  126.25    3.94
   3   3  -4  126.76    3.70
   3   3  -4  132.77    4.18
  -3  -3   4  128.61    4.17
  -3  -3   4  126.57    3.94
  -3  -3   4  137.03    3.72
  -3  -3   4  127.36    3.59
   2   3  -4   10.41    0.39
   2   3  -4   10.51    0.35
   2   3  -4   10.34    0.33
   2   3  -4   10.40    0.35
   2   3  -4   10.85    0.39
  -2  -3   4   10.55    0.31
  -2  -3   4   10.70    0.36
  -2  -3   4   10.39    0.34
  -2  -3   4   10.43    0.38
   1   3  -4   14.33    0.47
   1   3  -4   15.87    0.47
   1   3  -4   14.05    0.52
   1   3  -4   15.08    0.53
  -1  -3   4   15.82    0.46
  -1  -3   4   15.99    0.52
  -1  -3   4   15.24    0.49
   0   3  -4   20.59    0.63
   0   3  -4   18.80    0.63
   0  -3   4   18.20    0.57
   0  -3   4   17.98    0.55
  -1   3  -4   64.96    2.14
   1  -3   4   69.42    1.97
  -2   3  -4  182.82    5.73
   2  -3   4  179.12    5.24
  -3   3  -4    8.72    0.31
   3  -3   4    8.44    0.32
   3  -3   4    8.64    0.27
  -4   3  -4   16.62    0.58
   4  -3   4   17.06    0.51
   4  -3   4   16.04    0.57
  -5   3  -4    4.27    0.21
   5  -3   4    4.62    0.19
   5  -3   4    5.08    0.24
  -6   3  -4    0.19    0.07
   6  -3   4    0.14    0.07
   6  -3   4    0.12    0.05
  -7   3  -4    2.42    0.17
   7  -3   4    2.51    0.15
   7  -3   4    2.63    0.19
  -8   3  -4    3.43    0.22
   8  -3   4    3.20    0.23
   8  -3   4    3.45    0.20
  -9   3  -4    0.69    0.13
   9  -3   4    0.68    0.14
   9  -3   4    0.66    0.11
  10   2  -4    3.46    0.20
 -10  -2   4    3.52    0.24
   9   2  -4    9.25    0.42
   9   2  -4    8.89    0.34
  -9  -2   4    8.61    0.40
   8   2  -4    0.49    0.10
   8   2  -4    0.25    0.07
  -8  -2   4    0.30    0.09
   7   2  -4    1.11    0.09
   7   2  -4    1.11    0.10
   7   2  -4    1.20    0.13
  -7  -2   4    1.39    0.14
  -7  -2   4    1.22    0.09
   6   2  -4   10.60    0.35
   6   2  -4   10.87    0.46
   6   2  -4   10.51    0.41
   6   2  -4   10.86    0.45
   6   2  -4   10.62    0.39
   6   2  -4   10.69    0.35
  -6  -2   4   10.73    0.42
  -6  -2   4   10.84    0.45
  -6  -2   4   10.38    0.35
   5   2  -4   25.28    0.85
   5   2  -4   26.06    0.75
   5   2  -4   25.64    0.92
   5   2  -4   26.74    0.77
   5   2  -4   26.12    0.92
   5   2  -4   22.78    0.79
  -5  -2   4   25.33    0.75
  -5  -2   4   26.33    0.85
  -5  -2   4   26.73    0.91
  -5  -2   4   26.53    0.81
   4   2  -4   31.60    0.99
   4   2  -4   31.08    0.99
   4   2  -4   32.01    0.89
   4   2  -4   30.73    0.91
   4   2  -4   30.70    1.07
  -4  -2   4   32.21    1.06
  -4  -2   4   30.31    0.89
  -4  -2   4   31.25    1.00
  -4  -2   4   30.47    0.94
   3   2  -4   39.62    1.36
   3   2  -4   41.85    1.20
   3   2  -4   41.15    1.37
   3   2  -4   42.67    1.28
   3   2  -4   41.85    1.14
   3   2  -4   35.15    1.27
  -3  -2   4   41.48    1.28
  -3  -2   4   43.71    1.16
  -3  -2   4   41.94    1.21
  -3  -2   4   41.51    1.36
   2   2  -4    9.91    0.36
   2   2  -4   10.17    0.36
   2   2  -4    9.81    0.33
   2   2  -4    9.34    0.32
   2   2  -4    9.42    0.31
   2   2  -4    9.79    0.33
  -2  -2   4   10.19    0.32
  -2  -2   4    9.68    0.33
  -2  -2   4   10.23    0.36
  -2  -2   4   10.38    0.29
   1   2  -4    0.42    0.04
  -1  -2   4    0.39    0.03
  -1  -2   4    0.42    0.04
  -1  -2   4    0.45    0.04
   0   2  -4   16.61    0.51
   0   2  -4   14.90    0.50
   0   2  -4   14.50    0.51
  -1   2  -4   26.39    0.87
  -2   2  -4   26.18    0.89
  -2   2  -4   26.17    0.85
  -3   2  -4   15.92    0.54
  -3   2  -4   16.16    0.58
   3  -2   4   15.34    0.47
  -4   2  -4   28.07    1.00
  -4   2  -4   28.90    0.96
   4  -2   4   28.40    0.84
  -5   2  -4   19.58    0.69
   5  -2   4   19.52    0.61
  -6   2  -4    6.46    0.30
   6  -2   4    6.46    0.30
   6  -2   4    6.59    0.26
  -7   2  -4    3.79    0.22
   7  -2   4    3.62    0.23
   7  -2   4    3.95    0.20
  -8   2  -4    3.46    0.23
   8  -2   4    3.34    0.20
   8  -2   4    4.09    0.25
  -9   2  -4    3.74    0.25
   9  -2   4    3.67    0.26
   9  -2   4    3.48    0.22
  10   1  -4    6.59    0.29
 -10  -1   4    6.79    0.34
   9   1  -4    0.87    0.10
   9   1  -4    0.88    0.13
  -9  -1   4    1.04    0.14
   8   1  -4    8.97    0.32
   8   1  -4    8.16    0.37
   8   1  -4    9.17    0.33
  -8  -1   4    8.23    0.37
   7   1  -4    2.50    0.14
   7   1  -4    2.76    0.17
   7   1  -4    2.32    0.13
  -7  -1   4    2.38    0.12
  -7  -1   4    2.76    0.17
   6   1  -4    8.59    0.29
   6   1  -4    8.63    0.38
   6   1  -4    8.41    0.32
   6   1  -4    8.85    0.38
   6   1  -4    8.40    0.29
   6   1  -4    8.59    0.34
  -6  -1   4    7.99    0.37
  -6  -1   4    8.86    0.29
  -6  -1   4    8.42    0.34
   5   1  -4   13.78    0.45
   5   1  -4   14.29    0.52
   5   1  -4   13.84    0.42
   5   1  -4   13.51    0.52
   5   1  -4   13.14    0.41
   5   1  -4   12.93    0.47
  -5  -1   4   13.67    0.46
  -5  -1   4   13.65    0.52
  -5  -1   4   13.56    0.42
  -5  -1   4   12.77    0.48
   4   1  -4    1.33    0.10
   4   1  -4    1.43    0.07
   4   1  -4    1.22    0.09
  -4  -1   4    1.37    0.07
  -4  -1   4    1.38    0.11
  -4  -1   4    1.52    0.09
  -4  -1   4    1.14    0.10
   3   1  -4   59.63    1.60
   3   1  -4   58.75    1.66
   3   1  -4   59.32    1.76
   3   1  -4   54.45    1.76
   3   1  -4   54.61    1.88
  -3  -1   4   58.29    1.88
  -3  -1   4   56.50    1.66
  -3  -1   4   58.62    1.77
  -3  -1   4   58.45    1.60
   2   1  -4  239.91    7.51
   2   1  -4  241.87    7.91
   2   1  -4  251.66    7.02
   2   1  -4  264.28    7.47
  -2  -1   4  250.94    6.86
  -2  -1   4  252.20    7.03
  -2  -1   4  251.74    7.47
  -2  -1   4  241.84    7.90
   1   1  -4   43.08    1.40
  -1  -1   4   45.62    1.40
  -1  -1   4   41.79    1.24
  -1  -1   4   43.33    1.31
   0   1  -4    8.72    0.29
  -1   1  -4    8.03    0.27
  -1   1  -4    8.19    0.26
  -1   1  -4    7.82    0.30
  -2   1  -4   40.29    1.26
  -2   1  -4   38.16    1.29
  -2   1  -4   38.44    1.26
  -3   1  -4   55.04    1.76
  -3   1  -4   53.65    1.79
   3  -1   4   54.17    1.56
  -4   1  -4    8.46    0.33
  -4   1  -4    9.00    0.37
   4  -1   4    8.50    0.29
  -5   1  -4    3.78    0.19
  -5   1  -4    3.13    0.21
   5  -1   4    3.49    0.17
   5  -1   4    3.55    0.12
  -6   1  -4    0.57    0.09
   6  -1   4    0.42    0.07
  -7   1  -4    7.37    0.34
   7  -1   4    6.91    0.33
   7  -1   4    6.98    0.30
  -8   1  -4   12.74    0.52
   8  -1   4   11.88    0.46
   8  -1   4   11.17    0.49
   9  -1   4    2.02    0.21
   9  -1   4    2.00    0.18
  11   0  -4    0.42    0.10
 -11   0   4    0.31    0.11
  10   0  -4    0.01    0.06
 -10   0   4    0.18    0.09
   9   0  -4   11.24    0.40
   9   0  -4   11.58    0.47
  -9   0   4   10.97    0.46
   8   0  -4   12.77    0.49
   8   0  -4   12.30    0.44
   8   0  -4   13.03    0.43
  -8   0   4   12.28    0.49
   7   0  -4    0.26    0.05
   7   0  -4    0.17    0.07
   7   0  -4    0.23    0.06
   7   0  -4    0.25    0.07
  -7   0   4    0.21    0.08
  -7   0   4    0.23    0.07
  -7   0   4    0.25    0.05
   6   0  -4    0.07    0.05
   6   0  -4    0.04    0.03
   6   0  -4   -0.01    0.05
   6   0  -4    0.10    0.05
  -6   0   4    0.03    0.05
  -6   0   4    0.02    0.03
  -6   0   4   -0.03    0.04
   5   0  -4    2.16    0.13
   5   0  -4    2.38    0.11
   5   0  -4    2.36    0.15
   5   0  -4    2.56    0.13
  -5   0   4    2.43    0.11
  -5   0   4    2.32    0.14
  -5   0   4    2.44    0.13
  -5   0   4    2.36    0.15
   4   0  -4   46.57    1.33
   4   0  -4   47.15    1.48
   4   0  -4   49.58    1.48
  -4   0   4   44.94    1.57
  -4   0   4   48.14    1.34
  -4   0   4   48.89    1.48
  -4   0   4   46.17    1.39
  -4   0   4   49.19    1.39
   3   0  -4   84.29    2.52
   3   0  -4   80.92    2.68
   3   0  -4   79.05    2.37
   3   0  -4   83.76    2.29
   3   0  -4   84.17    2.52
  -3   0   4   82.14    2.37
  -3   0   4   83.64    2.40
  -3   0   4   84.50    2.53
  -3   0   4   85.59    2.30
  -3   0   4   82.46    2.68
   2   0  -4    6.98    0.24
   2   0  -4    7.09    0.23
   2   0  -4    7.21    0.24
   2   0  -4    7.30    0.27
  -2   0   4    6.95    0.27
  -2   0   4    7.07    0.23
  -2   0   4    7.09    0.21
   1   0  -4    2.28    0.11
   1   0  -4    2.44    0.08
  -1   0   4    2.41    0.10
  -1   0   4    2.35    0.09
   0   0  -4    0.83    0.05
   0   0   4    0.78    0.04
   0   0   4    0.81    0.04
  -1   0  -4   62.69    2.02
  -1   0  -4   63.83    2.02
  -2   0  -4   97.81    3.14
  -2   0  -4   97.85    3.17
  -2   0  -4   99.85    3.15
  -3   0  -4    9.28    0.35
  -3   0  -4    9.07    0.38
  -3   0  -4    9.22    0.34
   3   0   4    9.45    0.31
  -4   0  -4    1.53    0.14
  -4   0  -4    1.88    0.12
  -4   0  -4    1.72    0.12
   4   0   4    1.70    0.10
   4   0   4    1.74    0.11
  -5   0  -4    5.31    0.25
  -5   0  -4    5.33    0.28
   5   0   4    5.40    0.23
  -6   0  -4    6.15    0.30
  -6   0  -4    6.01    0.33
   6   0   4    6.72    0.27
  -7   0  -4    5.20    0.28
   7   0   4    5.09    0.25
  -8   0  -4    0.44    0.11
   8   0   4    0.29    0.11
   8   0   4    0.64    0.11
   9   0   4    0.24    0.11
  11  -1  -4    0.19    0.08
 -11   1   4    0.13    0.09
  10  -1  -4    4.53    0.22
 -10   1   4    4.45    0.25
   9  -1  -4   10.34    0.46
   9  -1  -4   11.78    0.40
  -9   1   4   11.68    0.46
   8  -1  -4    2.57    0.15
   8  -1  -4    2.75    0.18
  -8   1   4    3.01    0.19
   7  -1  -4    4.29    0.18
   7  -1  -4    3.87    0.20
   7  -1  -4    4.09    0.21
  -7   1   4    4.00    0.16
  -7   1   4    3.87    0.21
  -7   1   4    3.89    0.24
   6  -1  -4    7.47    0.33
   6  -1  -4    7.72    0.29
   6  -1  -4    7.18    0.25
   6  -1  -4    7.24    0.30
  -6   1   4    7.27    0.25
  -6   1   4    7.41    0.33
  -6   1   4    6.97    0.30
   5  -1  -4   36.54    1.26
   5  -1  -4   36.88    1.17
   5  -1  -4   37.94    1.05
   5  -1  -4   36.40    1.10
  -5   1   4   37.74    1.11
  -5   1   4   37.15    1.18
  -5   1   4   36.98    1.11
  -5   1   4   36.15    1.05
  -5   1   4   36.14    1.25
   4  -1  -4   55.96    1.73
   4  -1  -4   60.92    1.84
   4  -1  -4   60.23    1.66
  -4   1   4   59.08    1.67
  -4   1   4   59.97    1.73
  -4   1   4   58.89    1.75
  -4   1   4   60.89    1.96
  -4   1   4   61.31    1.84
   3  -1  -4   24.82    0.78
   3  -1  -4   24.56    0.70
  -3   1   4   25.00    0.73
  -3   1   4   24.05    0.78
  -3   1   4   23.26    0.83
  -3   1   4   25.27    0.70
   2  -1  -4    1.21    0.08
   2  -1  -4    1.29    0.07
   2  -1  -4    1.31    0.05
  -2   1   4    1.26    0.06
  -2   1   4    1.24    0.07
  -2   1   4    1.25    0.08
  -2   1   4    1.38    0.08
   1  -1  -4   26.53    0.79
   1  -1  -4   25.66    0.79
   1  -1  -4   23.97    0.85
  -1   1   4   25.94    0.71
  -1   1   4   26.72    0.85
  -1   1   4   25.62    0.80
   0  -1  -4    2.89    0.13
   0   1   4    2.95    0.12
   0   1   4    2.73    0.11
   0   1   4    2.82    0.12
  -1  -1  -4   10.75    0.40
  -1  -1  -4   11.58    0.40
   1   1   4   11.48    0.39
   1   1   4   11.21    0.36
  -2  -1  -4    2.28    0.12
  -2  -1  -4    2.23    0.12
   2   1   4    2.25    0.11
   2   1   4    2.06    0.11
  -3  -1  -4    8.64    0.34
  -3  -1  -4    8.54    0.36
  -3  -1  -4    8.65    0.34
   3   1   4    8.89    0.25
   3   1   4    8.54    0.30
   3   1   4    8.76    0.32
   3   1   4    8.79    0.25
  -4  -1  -4   18.41    0.66
  -4  -1  -4   18.14    0.65
  -4  -1  -4   17.44    0.68
   4   1   4   17.89    0.52
   4   1   4   17.95    0.61
   4   1   4   18.28    0.58
  -5  -1  -4   12.23    0.51
  -5  -1  -4   11.08    0.47
  -5  -1  -4   12.40    0.47
   5   1   4   11.72    0.42
  -6  -1  -4    8.37    0.41
  -6  -1  -4    8.89    0.39
   6   1   4    8.37    0.34
  -7  -1  -4    1.03    0.13
  -7  -1  -4    0.84    0.15
   7   1   4    0.66    0.11
   8   1   4    2.67    0.19
  11  -2  -4    2.45    0.17
 -11   2   4    2.37    0.19
  10  -2  -4    7.22    0.29
 -10   2   4    6.54    0.32
   9  -2  -4   -0.07    0.07
   9  -2  -4    0.01    0.05
  -9   2   4    0.05    0.07
   8  -2  -4   11.88    0.47
   8  -2  -4   11.99    0.40
  -8   2   4   11.97    0.47
   7  -2  -4   13.20    0.47
   7  -2  -4   11.93    0.40
   7  -2  -4   12.14    0.44
  -7   2   4   12.61    0.39
  -7   2   4   12.44    0.47
  -7   2   4   12.53    0.52
   6  -2  -4   17.29    0.58
   6  -2  -4   16.89    0.63
   6  -2  -4   16.30    0.55
   6  -2  -4   16.31    0.51
  -6   2   4   16.66    0.50
  -6   2   4   16.45    0.63
  -6   2   4   16.49    0.58
   5  -2  -4   49.18    1.54
   5  -2  -4   49.19    1.39
   5  -2  -4   51.74    1.66
   5  -2  -4   49.84    1.45
  -5   2   4   50.53    1.47
  -5   2   4   48.38    1.55
  -5   2   4   46.33    1.64
  -5   2   4   50.90    1.39
  -5   2   4   47.93    1.45
   4  -2  -4    2.16    0.12
   4  -2  -4    2.20    0.10
   4  -2  -4    2.21    0.14
   4  -2  -4    1.99    0.11
  -4   2   4    2.07    0.10
  -4   2   4    2.14    0.13
  -4   2   4    2.11    0.13
  -4   2   4    1.98    0.11
  -4   2   4    2.08    0.11
   3  -2  -4   42.42    1.19
   3  -2  -4   41.83    1.31
   3  -2  -4   42.37    1.31
  -3   2   4   41.86    1.24
  -3   2   4   40.96    1.19
  -3   2   4   43.30    1.40
  -3   2   4   43.94    1.32
   2  -2  -4   34.86    1.19
   2  -2  -4   36.06    1.12
   2  -2  -4   32.11    1.00
  -2   2   4   35.86    1.05
  -2   2   4   37.37    1.01
  -2   2   4   38.84    1.20
  -2   2   4   38.00    1.12
   1  -2  -4   72.18    2.18
   1  -2  -4   74.97    2.32
   1  -2  -4   70.21    2.18
  -1   2   4   70.85    2.32
  -1   2   4   70.53    2.19
  -1   2   4   73.11    1.99
   0  -2  -4   51.72    1.62
   0  -2  -4   55.19    1.62
   0  -2  -4   52.80    1.73
   0   2   4   52.16    1.73
   0   2   4   50.41    1.73
   0   2   4   55.78    1.47
   0   2   4   55.83    1.47
   0   2   4   52.58    1.63
  -1  -2  -4    0.19    0.05
  -1  -2  -4    0.15    0.03
  -1  -2  -4    0.23    0.03
   1   2   4    0.23    0.02
   1   2   4    0.22    0.04
   1   2   4    0.28    0.05
   1   2   4    0.21    0.02
  -2  -2  -4   29.15    1.01
  -2  -2  -4   30.94    1.02
  -2  -2  -4   30.14    0.93
   2   2   4   28.92    0.90
   2   2   4   30.95    0.85
   2   2   4   30.64    0.96
  -3  -2  -4   29.77    1.04
  -3  -2  -4   31.38    1.04
  -3  -2  -4   30.51    1.06
  -3  -2  -4   30.86    0.93
  -3  -2  -4   30.04    0.93
   3   2   4   30.44    0.86
   3   2   4   29.31    0.92
   3   2   4   30.19    0.98
  -4  -2  -4    9.02    0.29
  -4  -2  -4    8.81    0.29
  -4  -2  -4    8.77    0.40
  -4  -2  -4    8.82    0.37
  -4  -2  -4    8.27    0.37
   4   2   4    8.88    0.33
   4   2   4    8.88    0.29
   4   2   4    8.61    0.35
  -5  -2  -4    7.08    0.32
  -5  -2  -4    6.70    0.23
  -5  -2  -4    6.77    0.35
  -5  -2  -4    7.08    0.33
   5   2   4    6.49    0.28
  -6  -2  -4    0.27    0.10
  -6  -2  -4    0.18    0.08
   6   2   4    0.29    0.08
  -7  -2  -4    5.33    0.32
  -7  -2  -4    4.80    0.29
   7   2   4    5.32    0.27
  11  -3  -4    2.24    0.16
 -11   3   4    2.14    0.17
  10  -3  -4    0.06    0.07
 -10   3   4    0.09    0.08
   9  -3  -4    7.72    0.36
   9  -3  -4    7.69    0.30
  -9   3   4    8.33    0.36
   8  -3  -4   16.01    0.58
   8  -3  -4   15.22    0.50
  -8   3   4   15.96    0.58
   7  -3  -4    3.42    0.19
   7  -3  -4    3.61    0.19
   7  -3  -4    3.69    0.16
  -7   3   4    3.72    0.23
  -7   3   4    3.73    0.20
  -7   3   4    3.59    0.14
   6  -3  -4    2.84    0.18
   6  -3  -4    2.79    0.13
   6  -3  -4    2.80    0.15
   6  -3  -4    2.66    0.16
  -6   3   4    2.79    0.16
  -6   3   4    2.48    0.17
  -6   3   4    2.89    0.12
   5  -3  -4    0.40    0.05
   5  -3  -4    0.18    0.06
   5  -3  -4    0.47    0.07
   5  -3  -4    0.43    0.07
  -5   3   4    0.28    0.06
  -5   3   4    0.40    0.05
  -5   3   4    0.36    0.08
   4  -3  -4   37.99    1.26
   4  -3  -4   37.82    1.18
   4  -3  -4   36.58    1.06
   4  -3  -4   37.66    1.11
  -4   3   4   38.29    1.18
  -4   3   4   37.62    1.11
  -4   3   4   36.07    1.26
  -4   3   4   36.64    1.06
   3  -3  -4   65.34    1.97
   3  -3  -4   64.71    1.78
   3  -3  -4   65.06    1.96
  -3   3   4   63.23    2.09
  -3   3   4   62.11    1.85
  -3   3   4   63.73    1.97
   2  -3  -4    4.68    0.19
   2  -3  -4    5.01    0.19
   2  -3  -4    4.51    0.16
   2  -3  -4    4.78    0.21
  -2   3   4    5.04    0.19
  -2   3   4    4.64    0.16
  -2   3   4    5.06    0.21
   1  -3  -4   12.42    0.35
   1  -3  -4   12.11    0.41
   1  -3  -4   11.54    0.44
  -1   3   4   12.16    0.36
  -1   3   4   12.02    0.41
  -1   3   4   12.64    0.44
   0  -3  -4   10.82    0.36
   0  -3  -4   10.71    0.40
   0  -3  -4   10.63    0.36
   0   3   4   11.04    0.32
   0   3   4   10.57    0.37
   0   3   4   10.78    0.40
   0   3   4   10.11    0.40
  -1  -3  -4    1.49    0.11
  -1  -3  -4    1.12    0.08
  -1  -3  -4    1.11    0.07
   1   3   4    1.16    0.09
   1   3   4    1.19    0.07
   1   3   4    1.09    0.09
  -2  -3  -4   60.77    1.83
  -2  -3  -4   59.36    1.83
  -2  -3  -4   61.78    1.97
  -2  -3  -4   58.11    1.97
   2   3   4   59.49    1.67
   2   3   4   58.75    1.75
   2   3   4   60.55    1.86
  -3  -3  -4    7.44    0.33
  -3  -3  -4    7.83    0.28
  -3  -3  -4    7.83    0.28
  -3  -3  -4    7.73    0.33
   3   3   4    7.53    0.26
   3   3   4    7.96    0.32
   3   3   4    7.81    0.30
  -4  -3  -4    1.06    0.12
  -4  -3  -4    1.02    0.12
  -4  -3  -4    1.17    0.09
  -4  -3  -4    1.17    0.14
  -4  -3  -4    0.91    0.08
   4   3   4    1.07    0.12
   4   3   4    1.01    0.11
  -5  -3  -4    0.21    0.10
  -5  -3  -4    0.36    0.06
  -5  -3  -4    0.30    0.08
  -5  -3  -4    0.40    0.09
  -5  -3  -4    0.27    0.05
   5   3   4    0.14    0.07
  -6  -3  -4    4.84    0.19
  -6  -3  -4    5.10    0.32
  -6  -3  -4    5.30    0.29
  -6  -3  -4    5.16    0.20
   6   3   4    4.86    0.26
  -7  -3  -4    4.34    0.30
   7   3   4    4.59    0.26
  -8  -3  -4    1.12    0.19
  11  -4  -4    0.00    0.07
 -11   4   4   -0.07    0.07
  10  -4  -4    5.69    0.26
 -10   4   4    6.12    0.29
   9  -4  -4   14.53    0.49
   9  -4  -4   14.92    0.57
  -9   4   4   13.88    0.55
   8  -4  -4    0.91    0.12
   8  -4  -4    1.08    0.10
  -8   4   4    1.15    0.13
   7  -4  -4    1.04    0.09
   7  -4  -4    1.04    0.11
   7  -4  -4    0.82    0.10
  -7   4   4    1.18    0.14
  -7   4   4    0.88    0.06
  -7   4   4    0.84    0.11
   6  -4  -4    5.93    0.28
   6  -4  -4    5.71    0.25
   6  -4  -4    5.66    0.21
   6  -4  -4    5.45    0.24
  -6   4   4    5.43    0.28
  -6   4   4    5.66    0.25
  -6   4   4    5.47    0.20
   5  -4  -4   30.44    0.89
   5  -4  -4   29.10    0.94
   5  -4  -4   31.60    1.08
   5  -4  -4   31.92    1.00
  -5   4   4   31.61    1.08
  -5   4   4   30.95    0.89
  -5   4   4   30.89    1.00
   4  -4  -4   68.35    2.10
   4  -4  -4   68.91    2.24
   4  -4  -4   67.99    1.90
  -4   4   4   66.48    1.97
  -4   4   4   69.56    1.90
  -4   4   4   67.09    2.10
  -4   4   4   67.32    2.23
   3  -4  -4    0.62    0.06
   3  -4  -4    0.61    0.08
   3  -4  -4    0.54    0.07
  -3   4   4    0.57    0.06
  -3   4   4    0.56    0.07
  -3   4   4    0.57    0.08
  -3   4   4    0.59    0.05
   2  -4  -4    0.19    0.04
   2  -4  -4    0.25    0.05
   2  -4  -4    0.31    0.05
   2  -4  -4    0.12    0.04
  -2   4   4    0.22    0.04
  -2   4   4    0.19    0.05
  -2   4   4    0.26    0.06
   1  -4  -4    4.80    0.22
   1  -4  -4    4.77    0.20
   1  -4  -4    4.76    0.16
   1  -4  -4    4.87    0.20
  -1   4   4    5.11    0.23
  -1   4   4    5.15    0.21
  -1   4   4    4.99    0.17
   0  -4  -4   91.47    2.80
   0  -4  -4   92.17    2.53
   0  -4  -4   93.68    2.99
   0   4   4   89.68    2.97
   0   4   4   99.22    2.56
   0   4   4   92.53    2.98
   0   4   4   84.91    2.80
  -1  -4  -4    8.06    0.30
  -1  -4  -4    8.10    0.30
  -1  -4  -4    8.28    0.34
   1   4   4    7.94    0.31
   1   4   4    8.09    0.30
   1   4   4    7.97    0.26
   1   4   4    7.75    0.33
  -2  -4  -4    5.57    0.27
  -2  -4  -4    5.65    0.23
  -2  -4  -4    5.71    0.23
   2   4   4    5.51    0.20
   2   4   4    5.70    0.25
   2   4   4    6.10    0.25
  -3  -4  -4    4.04    0.23
  -3  -4  -4    4.48    0.19
  -3  -4  -4    4.56    0.24
  -3  -4  -4    4.49    0.19
   3   4   4    4.09    0.21
   3   4   4    4.03    0.21
  -4  -4  -4    2.21    0.14
  -4  -4  -4    2.78    0.21
  -4  -4  -4    2.45    0.17
  -4  -4  -4    2.21    0.17
   4   4   4    2.26    0.16
  -5  -4  -4    3.53    0.23
  -5  -4  -4    3.07    0.23
  -5  -4  -4    3.24    0.16
   5   4   4    3.37    0.20
  -6  -4  -4    8.79    0.32
  -6  -4  -4    8.81    0.45
   6   4   4    8.65    0.38
  -7  -4  -4    0.36    0.13
  -7  -4  -4    0.33    0.05
  -8  -4  -4    0.47    0.15
  11  -5  -4    2.71    0.17
 -11   5   4    2.95    0.19
  10  -5  -4    6.99    0.29
 -10   5   4    7.30    0.33
   9  -5  -4    0.61    0.09
  -9   5   4    0.85    0.12
   8  -5  -4    2.39    0.17
   8  -5  -4    2.49    0.14
  -8   5   4    2.20    0.16
   7  -5  -4   13.43    0.43
   7  -5  -4   12.77    0.49
   7  -5  -4   12.80    0.46
  -7   5   4   13.31    0.55
  -7   5   4   13.29    0.50
   6  -5  -4   21.87    0.81
   6  -5  -4   21.80    0.66
   6  -5  -4   22.88    0.75
   6  -5  -4   21.54    0.70
  -6   5   4   20.96    0.81
  -6   5   4   21.77    0.75
  -6   5   4   21.76    0.64
   5  -5  -4   35.03    1.17
   5  -5  -4   33.63    1.09
   5  -5  -4   33.56    0.97
  -5   5   4   33.44    0.97
  -5   5   4   34.92    1.10
  -5   5   4   31.48    1.17
   4  -5  -4    9.10    0.29
   4  -5  -4    8.82    0.37
   4  -5  -4    9.14    0.34
  -4   5   4    8.32    0.34
  -4   5   4    9.40    0.38
  -4   5   4    9.05    0.29
   3  -5  -4    3.57    0.19
   3  -5  -4    3.45    0.17
   3  -5  -4    3.25    0.14
  -3   5   4    3.87    0.18
  -3   5   4    3.48    0.14
  -3   5   4    3.26    0.19
  -3   5   4    3.68    0.16
   2  -5  -4   38.98    1.25
   2  -5  -4   41.34    1.12
  -2   5   4   39.31    1.25
  -2   5   4   38.54    1.33
  -2   5   4   39.01    1.12
   1  -5  -4   12.38    0.43
   1  -5  -4   11.63    0.47
   1  -5  -4   11.50    0.37
   1  -5  -4   12.47    0.43
  -1   5   4   12.94    0.47
  -1   5   4   12.52    0.38
  -1   5   4   12.15    0.44
   0  -5  -4    7.48    0.30
   0  -5  -4    6.95    0.29
   0  -5  -4    7.68    0.34
   0  -5  -4    8.16    0.24
   0   5   4    7.97    0.33
   0   5   4    8.04    0.34
   0   5   4    7.96    0.31
   0   5   4    7.66    0.26
  -1  -5  -4    0.04    0.03
  -1  -5  -4    0.10    0.05
  -1  -5  -4    0.07    0.01
  -1  -5  -4    0.10    0.06
   1   5   4    0.09    0.05
   1   5   4    0.06    0.04
   1   5   4    0.04    0.05
   1   5   4    0.28    0.06
  -2  -5  -4   19.89    0.69
  -2  -5  -4   21.06    0.69
  -2  -5  -4   20.66    0.77
   2   5   4   21.51    0.68
   2   5   4   20.38    0.63
   2   5   4   20.42    0.72
  -3  -5  -4    3.10    0.16
  -3  -5  -4    2.84    0.20
   3   5   4    3.21    0.20
   3   5   4    3.33    0.19
  -4  -5  -4    2.21    0.14
  -4  -5  -4    2.17    0.19
  -4  -5  -4    2.44    0.20
   4   5   4    2.28    0.17
  -5  -5  -4    0.85    0.10
  -5  -5  -4    0.59    0.13
   5   5   4    0.91    0.12
  -6  -5  -4   -0.08    0.05
  -6  -5  -4   -0.05    0.09
  -7  -5  -4    1.23    0.10
  -7  -5  -4    1.47    0.21
  11  -6  -4    4.69    0.23
 -11   6   4    4.52    0.25
  10  -6  -4    0.14    0.07
 -10   6   4   -0.06    0.06
   9  -6  -4    9.53    0.35
  -9   6   4    9.24    0.39
   8  -6  -4    2.33    0.17
   8  -6  -4    2.24    0.14
  -8   6   4    2.66    0.17
   7  -6  -4    6.56    0.29
   7  -6  -4    6.72    0.31
   7  -6  -4    6.75    0.26
  -7   6   4    6.93    0.35
  -7   6   4    7.00    0.31
   6  -6  -4   10.15    0.41
   6  -6  -4   10.93    0.36
  -6   6   4   10.39    0.33
  -6   6   4   10.64    0.41
  -6   6   4   10.77    0.47
   5  -6  -4    3.57    0.21
   5  -6  -4    3.20    0.15
   5  -6  -4    3.13    0.18
  -5   6   4    3.55    0.21
  -5   6   4    3.57    0.19
  -5   6   4    3.54    0.14
   4  -6  -4   19.37    0.60
   4  -6  -4   21.01    0.68
   4  -6  -4   20.11    0.74
  -4   6   4   19.06    0.68
  -4   6   4   20.06    0.74
  -4   6   4   20.17    0.59
   3  -6  -4    5.17    0.26
   3  -6  -4    4.83    0.22
   3  -6  -4    4.88    0.19
  -3   6   4    5.43    0.26
  -3   6   4    5.18    0.23
  -3   6   4    5.26    0.22
  -3   6   4    4.85    0.19
   2  -6  -4   14.37    0.50
   2  -6  -4   15.09    0.43
   2  -6  -4   11.82    0.53
  -2   6   4   14.02    0.44
  -2   6   4   14.38    0.55
  -2   6   4   14.37    0.50
   1  -6  -4    0.83    0.06
   1  -6  -4    0.83    0.09
  -1   6   4    0.84    0.10
  -1   6   4    0.81    0.10
  -1   6   4    0.85    0.07
   0  -6  -4    0.88    0.06
   0  -6  -4    0.82    0.09
   0  -6  -4    0.86    0.09
   0  -6  -4    0.84    0.11
   0   6   4    0.92    0.10
   0   6   4    0.65    0.10
   0   6   4    1.16    0.12
   0   6   4    0.72    0.07
   0   6   4    0.73    0.09
  -1  -6  -4   19.81    0.75
  -1  -6  -4   22.82    0.83
  -1  -6  -4   22.56    0.76
  -1  -6  -4   24.45    0.64
   1   6   4   21.66    0.77
   1   6   4   23.61    0.83
   1   6   4   21.79    0.73
  -2  -6  -4   94.53    2.77
  -2  -6  -4   82.26    2.96
   2   6   4   90.57    2.79
   2   6   4   91.70    2.64
  -3  -6  -4    1.03    0.11
   3   6   4    1.08    0.13
   3   6   4    0.92    0.12
  -4  -6  -4    0.28    0.07
   4   6   4    0.23    0.09
  -5  -6  -4    0.24    0.11
  -6  -6  -4    1.68    0.13
  -6  -6  -4    1.73    0.22
  -7  -6  -4    1.13    0.20
  -7  -6  -4    0.72    0.10
  11  -7  -4    0.14    0.08
 -11   7   4    0.13    0.08
  10  -7  -4    4.10    0.21
 -10   7   4    4.31    0.24
   9  -7  -4    7.36    0.29
  -9   7   4    7.10    0.33
   8  -7  -4    1.28    0.11
   8  -7  -4    1.37    0.15
  -8   7   4    1.34    0.14
   7  -7  -4   -0.01    0.04
   7  -7  -4    0.04    0.05
  -7   7   4    0.07    0.06
   6  -7  -4   10.41    0.42
   6  -7  -4   10.55    0.36
  -6   7   4   10.87    0.42
  -6   7   4   11.04    0.47
   5  -7  -4   22.75    0.77
   5  -7  -4   22.59    0.69
  -5   7   4   22.78    0.78
  -5   7   4   23.05    0.85
  -5   7   4   22.34    0.67
   4  -7  -4   10.14    0.40
   4  -7  -4    9.75    0.35
   4  -7  -4   11.72    0.46
  -4   7   4   10.70    0.45
  -4   7   4   10.75    0.41
  -4   7   4   10.29    0.34
   3  -7  -4   -0.03    0.04
   3  -7  -4    0.02    0.05
   3  -7  -4    0.07    0.04
  -3   7   4    0.03    0.04
  -3   7   4   -0.01    0.05
  -3   7   4   -0.04    0.05
   2  -7  -4    0.55    0.10
   2  -7  -4    0.45    0.06
   2  -7  -4    0.46    0.08
  -2   7   4    0.37    0.06
  -2   7   4    0.33    0.07
  -2   7   4    0.43    0.08
   1  -7  -4    2.12    0.10
   1  -7  -4    2.11    0.14
  -1   7   4    1.72    0.11
  -1   7   4    2.12    0.16
  -1   7   4    2.05    0.15
   0  -7  -4    5.13    0.31
   0  -7  -4    7.25    0.30
   0  -7  -4    6.67    0.23
   0   7   4    6.74    0.30
   0   7   4    7.04    0.33
   0   7   4    6.94    0.30
   0   7   4    7.28    0.34
  -1  -7  -4   10.04    0.41
   1   7   4   10.76    0.41
   1   7   4   11.01    0.44
  -2  -7  -4    9.68    0.39
   2   7   4   10.38    0.40
   2   7   4    9.52    0.41
  -3  -7  -4    0.46    0.09
   3   7   4    0.56    0.11
  -4  -7  -4    1.19    0.13
  -5  -7  -4    3.31    0.28
  -5  -7  -4    3.33    0.20
  -6  -7  -4    1.59    0.23
  -6  -7  -4    2.07    0.16
  10  -8  -4    6.53    0.28
 -10   8   4    6.39    0.31
   9  -8  -4    0.00    0.06
  -9   8   4   -0.05    0.07
   8  -8  -4    0.93    0.10
  -8   8   4    0.83    0.12
   7  -8  -4    0.10    0.06
   7  -8  -4   -0.02    0.05
  -7   8   4    0.01    0.06
   6  -8  -4    5.72    0.28
   6  -8  -4    5.66    0.24
  -6   8   4    6.22    0.29
   5  -8  -4   28.58    0.87
   5  -8  -4   29.50    0.98
  -5   8   4   29.64    0.99
   4  -8  -4    3.00    0.18
   4  -8  -4    2.76    0.15
  -4   8   4    3.09    0.21
  -4   8   4    2.94    0.18
   3  -8  -4    7.31    0.32
   3  -8  -4    7.29    0.26
  -3   8   4    7.45    0.33
  -3   8   4    7.69    0.36
   2  -8  -4    7.35    0.32
   2  -8  -4    7.79    0.27
  -2   8   4    7.89    0.34
   1  -8  -4    2.93    0.14
   1  -8  -4    3.12    0.18
  -1   8   4    2.95    0.19
   0  -8  -4    4.28    0.17
   0  -8  -4    5.04    0.24
   0   8   4    4.77    0.26
  -1  -8  -4    0.51    0.09
   1   8   4    0.70    0.11
  -2  -8  -4    1.22    0.13
   2   8   4    1.02    0.14
  -3  -8  -4    1.68    0.16
  -4  -8  -4    1.48    0.15
  -5  -8  -4    1.17    0.19
  -5  -8  -4    1.13    0.14
  10  -9  -4   -0.02    0.06
 -10   9   4    0.01    0.08
   9  -9  -4    3.44    0.19
  -9   9   4    3.46    0.21
   8  -9  -4    4.82    0.23
  -8   9   4    5.16    0.26
   7  -9  -4    4.55    0.25
   7  -9  -4    3.90    0.20
  -7   9   4    4.55    0.24
   6  -9  -4    1.53    0.11
   6  -9  -4    1.53    0.15
  -6   9   4    1.36    0.14
   5  -9  -4    0.72    0.09
   5  -9  -4    0.77    0.11
  -5   9   4    0.65    0.11
   4  -9  -4    8.22    0.30
   4  -9  -4    8.73    0.37
  -4   9   4    8.06    0.37
   3  -9  -4   11.65    0.46
   3  -9  -4   11.99    0.39
  -3   9   4   11.35    0.47
   2  -9  -4    6.78    0.25
   2  -9  -4    6.36    0.30
  -2   9   4    7.30    0.33
   1  -9  -4    3.27    0.20
   1  -9  -4    3.28    0.15
  -1   9   4    2.86    0.21
   0  -9  -4    0.04    0.04
   0  -9  -4    0.10    0.07
   0   9   4    0.04    0.08
  -1  -9  -4    4.89    0.25
   1   9   4    3.86    0.24
  -2  -9  -4    6.54    0.33
   2   9   4    7.13    0.35
  -3  -9  -4    1.69    0.17
  -4  -9  -4   -0.05    0.07
  -5  -9  -4    0.09    0.12
  -5  -9  -4   -0.01    0.08
   9 -10  -4    4.90    0.24
  -9  10   4    5.11    0.27
   8 -10  -4    2.80    0.17
  -8  10   4    3.11    0.21
   7 -10  -4    0.97    0.11
  -7  10   4    0.91    0.13
   6 -10  -4    0.20    0.07
   6 -10  -4   -0.08    0.07
  -6  10   4    0.03    0.07
   5 -10  -4    6.69    0.28
   5 -10  -4    7.30    0.34
  -5  10   4    6.85    0.34
   4 -10  -4    8.34    0.39
   4 -10  -4    9.06    0.32
  -4  10   4    8.90    0.40
   3 -10  -4    0.53    0.07
   3 -10  -4    0.65    0.11
  -3  10   4    0.57    0.11
   2 -10  -4    0.28    0.06
   2 -10  -4    0.30    0.08
  -2  10   4    0.31    0.10
   1 -10  -4    1.95    0.12
   1 -10  -4    1.94    0.16
  -1  10   4    1.57    0.17
   0 -10  -4    4.21    0.24
   0  10   4    4.65    0.27
  -1 -10  -4    3.04    0.21
   1  10   4    3.02    0.23
  -2 -10  -4    0.88    0.13
   2  10   4    0.95    0.15
  -3 -10  -4    0.00    0.07
  -4 -10  -4    0.94    0.15
   9 -11  -4    0.03    0.07
  -9  11   4   -0.07    0.08
   8 -11  -4    0.37    0.09
  -8  11   4    0.27    0.10
   7 -11  -4    0.71    0.11
  -7  11   4    0.72    0.12
   6 -11  -4    4.91    0.23
  -6  11   4    4.27    0.27
   5 -11  -4    7.22    0.35
   5 -11  -4    6.33    0.27
  -5  11   4    6.61    0.34
   4 -11  -4    0.79    0.13
   4 -11  -4    0.88    0.10
  -4  11   4    0.91    0.14
   3 -11  -4    0.53    0.11
   3 -11  -4    0.51    0.08
  -3  11   4    0.59    0.12
   2 -11  -4    2.34    0.14
   2 -11  -4    2.17    0.17
  -2  11   4    2.20    0.19
   1 -11  -4    3.89    0.23
  -1  11   4    3.83    0.25
   0 -11  -4    2.78    0.20
   0  11   4    2.64    0.22
  -1 -11  -4    0.20    0.09
   1  11   4    0.18    0.10
  -2 -11  -4    0.45    0.11
   2  11   4    0.61    0.14
   8 -12  -4    2.42    0.18
  -8  12   4    2.12    0.19
   7 -12  -4    3.03    0.20
  -7  12   4    3.00    0.22
   6 -12  -4    3.90    0.21
  -6  12   4    4.00    0.26
   5 -12  -4    0.28    0.08
  -5  12   4    0.23    0.11
   4 -12  -4    2.22    0.19
   4 -12  -4    2.17    0.14
  -4  12   4    2.00    0.20
   3 -12  -4    3.06    0.22
   3 -12  -4    2.97    0.16
  -3  12   4    2.87    0.22
   2 -12  -4    2.05    0.17
  -2  12   4    1.91    0.20
   1 -12  -4    0.72    0.13
  -1  12   4    0.72    0.14
   0 -12  -4   -0.04    0.08
   0  12   4   -0.04    0.08
  -1 -12  -4    0.52    0.12
   1  12   4    0.94    0.16
   6 -13  -4    0.34    0.09
  -6  13   4    0.24    0.11
   5 -13  -4    2.31    0.16
  -5  13   4    2.43    0.21
   4 -13  -4    2.45    0.21
   4 -13  -4    1.94    0.14
  -4  13   4    2.08    0.21
   3 -13  -4    2.32    0.20
  -3  13   4    2.53    0.21
   2 -13  -4   -0.03    0.08
  -2  13   4    0.10    0.10
   1 -13  -4    0.33    0.10
  -1  13   4    0.26    0.12
   2 -14   5    0.52    0.10
   2  13  -5    2.05    0.16
  -2 -13   5    2.09    0.15
   1  13  -5    0.09    0.06
  -1 -13   5    0.07    0.06
   0  13  -5    0.50    0.06
   0 -13   5    0.56    0.09
   1 -13   5    2.20    0.15
   2 -13   5    2.65    0.17
   3 -13   5    2.10    0.15
   4 -13   5    0.42    0.08
   5 -13   5    0.48    0.08
   3  12  -5    0.01    0.08
  -3 -12   5    0.04    0.07
   2  12  -5    0.06    0.08
  -2 -12   5   -0.03    0.05
   1  12  -5    2.92    0.16
  -1 -12   5    2.44    0.15
   0  12  -5    6.08    0.23
   0 -12   5    5.27    0.24
   1 -12   5    3.36    0.18
  -2  12  -5    0.89    0.14
   2 -12   5    0.64    0.09
  -3  12  -5   -0.10    0.07
   3 -12   5    0.05    0.05
  -4  12  -5    4.20    0.28
   4 -12   5    4.20    0.20
  -5  12  -5    3.84    0.26
   5 -12   5    3.72    0.18
  -6  12  -5    0.51    0.12
   6 -12   5    0.48    0.08
   5  11  -5    0.23    0.12
  -5 -11   5    0.15    0.08
   4  11  -5    0.11    0.09
  -4 -11   5    0.05    0.06
   3  11  -5    7.10    0.32
  -3 -11   5    6.49    0.28
   2  11  -5    3.28    0.19
  -2 -11   5    2.99    0.17
   1  11  -5    4.27    0.20
  -1 -11   5    3.79    0.19
   0  11  -5    0.45    0.06
   0  11  -5    0.44    0.11
   0 -11   5    0.46    0.07
  -1  11  -5    0.08    0.08
   1 -11   5    0.19    0.06
  -2  11  -5    1.34    0.16
   2 -11   5    1.24    0.11
  -3  11  -5    5.34    0.29
  -3  11  -5    4.93    0.30
   3 -11   5    5.41    0.21
  -4  11  -5    7.45    0.38
   4 -11   5    7.84    0.28
  -5  11  -5    0.43    0.10
   5 -11   5    0.61    0.07
  -6  11  -5    1.30    0.16
   6 -11   5    1.46    0.10
  -7  11  -5    0.09    0.08
   7 -11   5    0.10    0.05
   6  10  -5    0.58    0.13
  -6 -10   5    0.46    0.09
   5  10  -5    0.27    0.11
  -5 -10   5    0.18    0.08
   4  10  -5    0.97    0.14
  -4 -10   5    1.07    0.11
   3  10  -5   22.11    0.77
  -3 -10   5   21.32    0.69
   2  10  -5    4.57    0.23
  -2 -10   5    4.81    0.21
   1  10  -5    0.76    0.13
   1  10  -5    0.68    0.09
  -1 -10   5    0.77    0.08
   0  10  -5    2.25    0.18
   0  10  -5    1.89    0.11
   0  10  -5    2.42    0.19
   0  10  -5    2.24    0.11
   0 -10   5    2.12    0.12
  -1  10  -5   14.46    0.58
  -1  10  -5   14.47    0.59
   1 -10   5   14.19    0.47
  -2  10  -5    4.54    0.25
  -2  10  -5    4.53    0.26
   2 -10   5    4.54    0.18
  -3  10  -5    5.28    0.29
   3 -10   5    5.27    0.20
  -4  10  -5    0.15    0.08
   4 -10   5    0.06    0.04
  -5  10  -5    2.44    0.19
   5 -10   5    2.39    0.12
  -6  10  -5    3.08    0.21
   6 -10   5    3.18    0.14
  -7  10  -5    0.89    0.13
   7 -10   5    0.91    0.09
  -8  10  -5    2.17    0.19
   8 -10   5    2.25    0.14
  -7  -9   5    0.13    0.10
   6   9  -5    2.01    0.20
  -6  -9   5    2.07    0.15
  -6  -9   5    1.96    0.21
   5   9  -5    1.71    0.17
  -5  -9   5    1.47    0.13
  -5  -9   5    1.64    0.18
   4   9  -5    2.73    0.19
  -4  -9   5    2.60    0.16
   3   9  -5   10.56    0.43
  -3  -9   5   11.43    0.39
   2   9  -5    1.02    0.15
   2   9  -5    1.50    0.12
  -2  -9   5    1.32    0.11
   1   9  -5    8.33    0.33
   1   9  -5    8.74    0.41
   1   9  -5    9.20    0.42
   1   9  -5    9.57    0.33
  -1  -9   5    9.00    0.31
   0   9  -5    4.69    0.17
   0   9  -5    4.31    0.25
   0   9  -5    4.18    0.17
   0   9  -5    5.07    0.26
   0  -9   5    4.44    0.23
   0  -9   5    4.41    0.18
  -1   9  -5    0.08    0.06
  -1   9  -5    0.08    0.06
   1  -9   5    0.12    0.04
  -2   9  -5    0.76    0.11
  -2   9  -5    0.91    0.11
   2  -9   5    0.79    0.06
  -3   9  -5    0.15    0.07
   3  -9   5    0.15    0.04
  -4   9  -5   20.09    0.74
   4  -9   5   19.41    0.57
  -5   9  -5   19.32    0.73
   5  -9   5   19.81    0.57
  -6   9  -5    1.19    0.13
  -7   9  -5    0.29    0.08
   7  -9   5    0.25    0.07
  -8   9  -5    0.06    0.07
   8  -9   5    0.16    0.08
   7   8  -5    2.67    0.22
  -7  -8   5    2.31    0.23
   6   8  -5    2.90    0.22
  -6  -8   5    3.40    0.24
  -6  -8   5    3.21    0.18
   5   8  -5    1.92    0.17
  -5  -8   5    2.12    0.18
  -5  -8   5    1.73    0.13
   4   8  -5    0.08    0.08
  -4  -8   5    0.06    0.08
  -4  -8   5    0.02    0.05
   3   8  -5    3.62    0.20
   3   8  -5    3.86    0.25
  -3  -8   5    3.78    0.17
  -3  -8   5    3.78    0.21
   2   8  -5   13.16    0.47
   2   8  -5   13.82    0.56
   2   8  -5   13.64    0.56
  -2  -8   5   13.41    0.43
  -2  -8   5   12.95    0.50
   1   8  -5   21.36    0.78
   1   8  -5   21.22    0.67
   1   8  -5   19.88    0.79
   1   8  -5   21.11    0.68
   1   8  -5   21.29    0.68
  -1  -8   5   20.59    0.71
  -1  -8   5   21.07    0.69
  -1  -8   5   20.98    0.63
   0   8  -5   11.44    0.36
   0   8  -5   11.50    0.47
   0   8  -5   11.29    0.46
   0  -8   5   10.91    0.36
   0  -8   5   11.29    0.41
  -1   8  -5    0.49    0.08
  -1   8  -5    0.35    0.07
   1  -8   5    0.48    0.05
   1  -8   5    0.40    0.07
  -2   8  -5    2.16    0.15
   2  -8   5    2.07    0.08
  -3   8  -5   10.97    0.44
  -4   8  -5   17.53    0.65
  -5   8  -5    1.91    0.14
   5  -8   5    2.07    0.17
  -6   8  -5    0.06    0.06
   6  -8   5   -0.04    0.07
   6  -8   5    0.06    0.05
  -7   8  -5    0.56    0.10
   7  -8   5    0.75    0.10
   7  -8   5    0.48    0.11
  -8   8  -5    2.96    0.21
   8  -8   5    3.00    0.18
  -9   8  -5    2.52    0.21
   9  -8   5    2.41    0.18
   8   7  -5    3.72    0.27
  -8  -7   5    4.14    0.28
   7   7  -5    4.09    0.27
  -7  -7   5    4.47    0.28
  -7  -7   5    4.45    0.21
   6   7  -5    0.09    0.08
  -6  -7   5    0.30    0.10
  -6  -7   5    0.15    0.06
   5   7  -5    0.16    0.08
  -5  -7   5    0.22    0.06
  -5  -7   5    0.17    0.08
   4   7  -5    1.38    0.13
   4   7  -5    1.30    0.15
  -4  -7   5    1.16    0.10
  -4  -7   5    1.73    0.15
   3   7  -5   17.43    0.66
   3   7  -5   17.01    0.58
   3   7  -5   17.06    0.66
  -3  -7   5   17.09    0.56
  -3  -7   5   16.54    0.60
  -3  -7   5   15.25    0.52
   2   7  -5   37.96    1.31
   2   7  -5   38.96    1.19
   2   7  -5   38.15    1.12
   2   7  -5   37.14    1.19
   2   7  -5   38.33    1.31
  -2  -7   5   37.72    1.09
  -2  -7   5   37.79    1.15
  -2  -7   5   34.97    1.21
   1   7  -5    1.26    0.09
   1   7  -5    1.22    0.08
   1   7  -5    1.26    0.08
   1   7  -5    1.28    0.13
   1   7  -5    1.09    0.12
  -1  -7   5    1.23    0.08
  -1  -7   5    1.23    0.11
  -1  -7   5    1.43    0.11
   0   7  -5    2.36    0.13
   0   7  -5    2.40    0.16
   0   7  -5    2.62    0.16
   0  -7   5    2.61    0.14
   0  -7   5    2.55    0.14
   0  -7   5    2.51    0.10
  -1   7  -5    0.83    0.09
  -1   7  -5    0.88    0.10
   1  -7   5    0.70    0.04
   1  -7   5    0.59    0.07
   1  -7   5    0.77    0.08
  -2   7  -5   10.44    0.41
  -3   7  -5   15.46    0.57
   3  -7   5   15.52    0.54
  -4   7  -5    0.32    0.06
   4  -7   5    0.24    0.07
   4  -7   5    0.37    0.06
  -5   7  -5    7.41    0.32
   5  -7   5    7.00    0.27
   5  -7   5    7.17    0.32
  -6   7  -5    4.71    0.25
   6  -7   5    5.07    0.27
   6  -7   5    4.96    0.21
  -7   7  -5    4.92    0.27
   7  -7   5    5.41    0.29
   7  -7   5    5.20    0.23
  -8   7  -5    3.72    0.24
   8  -7   5    3.91    0.21
   8  -7   5    3.65    0.25
  -9   7  -5    0.03    0.08
   9  -7   5   -0.08    0.07
   9   6  -5    5.29    0.33
  -9  -6   5    5.59    0.33
   8   6  -5    4.35    0.28
   7   6  -5   -0.03    0.08
  -7  -6   5    0.02    0.05
  -7  -6   5    0.10    0.08
   6   6  -5    2.78    0.19
  -6  -6   5    2.49    0.14
  -6  -6   5    2.44    0.19
   5   6  -5    3.84    0.21
  -5  -6   5    3.84    0.22
  -5  -6   5    3.91    0.18
   4   6  -5    8.12    0.37
   4   6  -5    8.39    0.33
   4   6  -5    7.57    0.37
  -4  -6   5    7.55    0.33
  -4  -6   5    7.40    0.28
   3   6  -5   14.65    0.49
   3   6  -5   14.32    0.56
   3   6  -5   15.37    0.56
   3   6  -5   14.25    0.50
   3   6  -5   13.90    0.43
  -3  -6   5   14.30    0.49
  -3  -6   5   12.75    0.44
  -3  -6   5   13.34    0.51
   2   6  -5    0.15    0.06
   2   6  -5    0.12    0.03
   2   6  -5    0.27    0.07
   2   6  -5    0.16    0.04
   2   6  -5    0.15    0.04
  -2  -6   5    0.19    0.05
  -2  -6   5    0.21    0.06
  -2  -6   5    0.21    0.04
   1   6  -5   17.23    0.54
   1   6  -5   16.69    0.55
   1   6  -5   16.09    0.63
   1   6  -5   17.99    0.64
   1   6  -5   17.51    0.55
  -1  -6   5   17.43    0.51
  -1  -6   5   18.25    0.56
  -1  -6   5   17.51    0.58
   0   6  -5   31.11    1.09
   0   6  -5   31.99    0.98
   0   6  -5   32.42    1.09
   0  -6   5   31.71    0.96
   0  -6   5   32.90    1.02
   0  -6   5   32.79    0.89
  -1   6  -5   14.27    0.51
  -1   6  -5   13.62    0.50
   1  -6   5   14.00    0.45
  -2   6  -5    8.57    0.33
   2  -6   5    8.22    0.31
  -3   6  -5    1.05    0.09
   3  -6   5    1.08    0.07
   3  -6   5    0.90    0.10
  -4   6  -5   17.42    0.61
   4  -6   5   17.27    0.53
   4  -6   5   16.33    0.59
  -5   6  -5   15.44    0.57
   5  -6   5   15.88    0.50
   5  -6   5   14.81    0.56
  -6   6  -5    4.70    0.24
   6  -6   5    4.94    0.26
   6  -6   5    4.90    0.21
  -7   6  -5    1.54    0.14
   7  -6   5    1.46    0.12
   7  -6   5    1.39    0.16
  -8   6  -5    0.17    0.07
   8  -6   5    0.04    0.07
   8  -6   5    0.12    0.09
  -9   6  -5    2.66    0.21
   9  -6   5    2.81    0.19
   9   5  -5    1.28    0.18
  -9  -5   5    1.36    0.18
   8   5  -5    0.11    0.09
  -8  -5   5    0.23    0.10
   7   5  -5   11.48    0.46
  -7  -5   5   10.81    0.37
  -7  -5   5    9.96    0.45
   6   5  -5   13.37    0.53
   6   5  -5   13.65    0.43
  -6  -5   5   14.03    0.45
  -6  -5   5   14.19    0.54
   5   5  -5    3.20    0.13
   5   5  -5    3.35    0.21
   5   5  -5    3.20    0.19
  -5  -5   5    3.31    0.19
  -5  -5   5    3.28    0.15
   4   5  -5    2.34    0.14
   4   5  -5    2.00    0.09
   4   5  -5    2.00    0.16
   4   5  -5    2.42    0.15
   4   5  -5    2.35    0.17
  -4  -5   5    2.32    0.12
  -4  -5   5    2.60    0.16
  -4  -5   5    2.42    0.17
  -4  -5   5    2.73    0.15
   3   5  -5    0.11    0.04
   3   5  -5    0.10    0.05
   3   5  -5    0.11    0.06
   3   5  -5    0.07    0.04
  -3  -5   5    0.24    0.06
  -3  -5   5    0.19    0.05
  -3  -5   5    0.09    0.04
  -3  -5   5    0.14    0.05
   2   5  -5   25.33    0.85
   2   5  -5   26.57    0.85
   2   5  -5   26.38    0.93
   2   5  -5   27.38    0.79
   2   5  -5   27.64    0.93
  -2  -5   5   26.83    0.77
  -2  -5   5   26.55    0.87
  -2  -5   5   28.20    0.82
   1   5  -5   27.40    0.92
   1   5  -5   26.86    0.82
   1   5  -5   26.24    0.91
   1   5  -5   26.38    0.82
  -1  -5   5   26.51    0.85
  -1  -5   5   27.23    0.81
  -1  -5   5   27.00    0.75
   0   5  -5    3.65    0.17
   0   5  -5    3.63    0.17
   0  -5   5    3.40    0.14
   0  -5   5    3.68    0.15
  -1   5  -5    4.54    0.19
   1  -5   5    4.45    0.16
   1  -5   5    4.55    0.19
  -2   5  -5    0.55    0.06
   2  -5   5    0.57    0.07
   2  -5   5    0.63    0.05
   2  -5   5    0.57    0.05
  -3   5  -5   32.69    1.05
   3  -5   5   30.95    1.00
   3  -5   5   31.64    0.92
  -4   5  -5   36.02    1.17
   4  -5   5   34.10    1.11
   4  -5   5   34.85    1.03
  -5   5  -5   12.05    0.45
   5  -5   5   11.82    0.39
   5  -5   5   11.79    0.46
  -6   5  -5    0.27    0.07
   6  -5   5    0.41    0.07
   6  -5   5    0.43    0.10
  -7   5  -5    0.51    0.09
   7  -5   5    0.52    0.08
   7  -5   5    0.45    0.11
  -8   5  -5    5.74    0.29
   8  -5   5    4.87    0.29
   8  -5   5    4.74    0.24
  -9   5  -5    3.28    0.24
   9  -5   5    3.49    0.21
   9   4  -5    0.84    0.15
  -9  -4   5    0.84    0.15
   8   4  -5   10.39    0.46
   8   4  -5   10.54    0.37
  -8  -4   5   11.07    0.46
   7   4  -5    5.58    0.23
   7   4  -5    6.40    0.30
  -7  -4   5    5.74    0.23
  -7  -4   5    6.18    0.30
   6   4  -5    2.02    0.11
   6   4  -5    2.15    0.16
  -6  -4   5    2.03    0.16
  -6  -4   5    2.07    0.12
   5   4  -5    2.85    0.16
   5   4  -5    2.12    0.17
   5   4  -5    2.45    0.11
   5   4  -5    2.41    0.18
  -5  -4   5    2.59    0.16
  -5  -4   5    2.76    0.13
  -5  -4   5    2.74    0.18
   4   4  -5    0.67    0.08
   4   4  -5    0.89    0.09
   4   4  -5    0.76    0.08
   4   4  -5    0.79    0.05
   4   4  -5    0.89    0.10
   4   4  -5    0.90    0.11
  -4  -4   5    0.98    0.09
  -4  -4   5    0.69    0.09
  -4  -4   5    0.76    0.07
  -4  -4   5    0.82    0.09
   3   4  -5   39.68    1.32
   3   4  -5   38.51    1.32
   3   4  -5   39.87    1.22
   3   4  -5   39.45    1.22
  -3  -4   5   38.66    1.31
  -3  -4   5   40.17    1.11
  -3  -4   5   38.06    1.16
  -3  -4   5   37.38    1.23
   2   4  -5   16.72    0.61
   2   4  -5   17.68    0.55
   2   4  -5   16.95    0.61
   2   4  -5   17.39    0.55
  -2  -4   5   17.90    0.57
  -2  -4   5   16.91    0.54
  -2  -4   5   16.75    0.50
   1   4  -5    0.72    0.07
   1   4  -5    0.61    0.07
  -1  -4   5    0.70    0.06
  -1  -4   5    0.59    0.06
   0   4  -5    8.38    0.31
   0   4  -5    8.55    0.31
   0  -4   5    8.52    0.28
   0  -4   5    8.16    0.27
  -1   4  -5   11.91    0.39
   1  -4   5   11.08    0.38
   1  -4   5   10.87    0.33
  -2   4  -5   32.67    1.07
   2  -4   5   32.67    0.94
   2  -4   5   33.40    0.94
   2  -4   5   32.63    1.01
  -3   4  -5   22.02    0.73
   3  -4   5   22.30    0.64
   3  -4   5   21.39    0.71
  -4   4  -5    1.74    0.11
   4  -4   5    1.77    0.09
   4  -4   5    1.67    0.13
  -5   4  -5    0.41    0.07
   5  -4   5    0.27    0.08
   5  -4   5    0.31    0.05
  -6   4  -5    0.25    0.07
   6  -4   5    0.33    0.06
   6  -4   5   -0.02    0.07
  -7   4  -5    5.59    0.27
   7  -4   5    5.27    0.28
   7  -4   5    4.67    0.22
  -8   4  -5    7.14    0.34
   8  -4   5    7.04    0.36
   8  -4   5    7.04    0.30
  -9   4  -5    0.01    0.08
   9  -4   5   -0.01    0.07
  10   3  -5    0.92    0.16
 -10  -3   5    0.72    0.14
   9   3  -5    4.73    0.28
   9   3  -5    4.08    0.21
  -9  -3   5    4.55    0.27
   8   3  -5   23.21    0.73
   8   3  -5   23.59    0.85
  -8  -3   5   25.03    0.86
  -8  -3   5   23.66    0.72
   7   3  -5    1.59    0.16
   7   3  -5    1.56    0.11
  -7  -3   5    1.56    0.11
  -7  -3   5    1.61    0.16
   6   3  -5   22.60    0.85
   6   3  -5   22.45    0.67
   6   3  -5   23.27    0.78
  -6  -3   5   22.04    0.68
  -6  -3   5   23.07    0.78
   5   3  -5   13.68    0.44
   5   3  -5   13.28    0.47
   5   3  -5   12.69    0.39
   5   3  -5   12.37    0.51
  -5  -3   5   12.24    0.50
  -5  -3   5   12.34    0.40
  -5  -3   5   13.18    0.45
  -5  -3   5   12.46    0.47
   4   3  -5   28.83    0.92
   4   3  -5   28.88    1.00
   4   3  -5   27.70    0.81
   4   3  -5   29.23    0.92
   4   3  -5   28.51    1.00
   4   3  -5   28.26    0.87
  -4  -3   5   28.79    0.83
  -4  -3   5   28.57    0.92
  -4  -3   5   28.46    0.88
  -4  -3   5   27.86    0.98
   3   3  -5   37.04    1.13
   3   3  -5   34.55    1.21
   3   3  -5   36.11    1.12
   3   3  -5   38.12    1.22
   3   3  -5   36.83    1.06
  -3  -3   5   36.30    1.02
  -3  -3   5   35.59    1.07
  -3  -3   5   35.09    1.20
  -3  -3   5   34.44    1.13
   2   3  -5   43.06    1.41
   2   3  -5   41.47    1.30
   2   3  -5   42.92    1.30
   2   3  -5   40.97    1.41
  -2  -3   5   43.26    1.40
  -2  -3   5   45.13    1.32
  -2  -3   5   43.31    1.24
  -2  -3   5   40.96    1.19
   1   3  -5   13.22    0.44
   1   3  -5   12.34    0.43
  -1  -3   5   11.97    0.38
  -1  -3   5   12.25    0.38
  -1  -3   5   11.98    0.40
   0   3  -5   32.89    1.07
   0   3  -5   33.45    1.07
   0  -3   5   32.79    0.94
   0  -3   5   32.49    0.98
  -1   3  -5   57.85    1.93
  -1   3  -5   61.45    1.90
   1  -3   5   59.90    1.77
  -2   3  -5    7.04    0.25
  -2   3  -5    7.23    0.29
  -3   3  -5    0.36    0.04
   3  -3   5    0.36    0.03
  -4   3  -5   27.09    0.91
   4  -3   5   26.57    0.88
   4  -3   5   27.37    0.80
  -5   3  -5   22.64    0.77
   5  -3   5   21.22    0.75
   5  -3   5   22.30    0.68
  -6   3  -5    0.12    0.06
   6  -3   5    0.11    0.08
   6  -3   5    0.12    0.05
  -7   3  -5   15.57    0.60
   7  -3   5   15.75    0.60
   7  -3   5   15.30    0.53
  -8   3  -5    0.05    0.07
   8  -3   5    0.00    0.06
   8  -3   5    0.14    0.10
  -9   3  -5    2.36    0.21
   9  -3   5    2.35    0.18
  10   2  -5    5.78    0.32
  10   2  -5    5.74    0.26
 -10  -2   5    5.45    0.31
   9   2  -5    4.97    0.22
   9   2  -5    4.76    0.28
  -9  -2   5    4.58    0.27
   8   2  -5    7.20    0.33
   8   2  -5    6.91    0.27
  -8  -2   5    6.41    0.33
  -8  -2   5    6.88    0.25
   7   2  -5   11.83    0.39
   7   2  -5   11.87    0.46
  -7  -2   5   11.54    0.38
  -7  -2   5   11.39    0.46
   6   2  -5    9.37    0.37
   6   2  -5    9.71    0.31
   6   2  -5    8.74    0.40
   6   2  -5    8.97    0.41
  -6  -2   5    8.91    0.31
  -6  -2   5    9.56    0.41
  -6  -2   5    9.45    0.38
   5   2  -5   16.45    0.61
   5   2  -5   19.98    0.57
   5   2  -5   19.51    0.72
   5   2  -5   20.01    0.66
  -5  -2   5   19.72    0.71
  -5  -2   5   19.97    0.63
  -5  -2   5   19.27    0.58
  -5  -2   5   19.76    0.66
   4   2  -5   19.95    0.62
   4   2  -5   18.79    0.54
   4   2  -5   18.66    0.67
   4   2  -5   18.15    0.62
   4   2  -5   18.22    0.58
   4   2  -5   18.48    0.67
  -4  -2   5   17.63    0.59
  -4  -2   5   19.57    0.63
  -4  -2   5   18.02    0.55
  -4  -2   5   18.27    0.67
   3   2  -5   98.20    3.01
   3   2  -5   94.36    3.00
   3   2  -5  104.53    2.83
   3   2  -5  100.35    3.20
  -3  -2   5  100.55    2.74
  -3  -2   5   97.24    3.19
  -3  -2   5   97.52    3.01
  -3  -2   5  100.61    2.84
   2   2  -5   70.34    2.07
   2   2  -5   67.58    2.07
   2   2  -5   67.30    2.21
  -2  -2   5   68.03    1.96
  -2  -2   5   69.01    1.89
  -2  -2   5   67.09    2.21
  -2  -2   5   70.08    1.89
  -2  -2   5   68.89    2.08
   1   2  -5   15.44    0.52
  -1  -2   5   15.40    0.46
  -1  -2   5   15.34    0.48
   0   2  -5    2.69    0.12
   0   2  -5    2.89    0.11
  -1   2  -5   31.89    1.06
  -2   2  -5   14.27    0.47
  -2   2  -5   14.19    0.52
  -3   2  -5   10.86    0.38
  -3   2  -5   10.86    0.43
   3  -2   5   10.86    0.33
  -4   2  -5   21.24    0.78
  -4   2  -5   20.75    0.73
   4  -2   5   21.89    0.64
  -5   2  -5    2.33    0.14
   5  -2   5    2.13    0.12
  -6   2  -5    5.88    0.27
   6  -2   5    5.30    0.28
   6  -2   5    5.57    0.23
  -7   2  -5    0.27    0.08
   7  -2   5    0.36    0.10
   7  -2   5    0.40    0.08
  -8   2  -5    7.30    0.36
   8  -2   5    7.84    0.38
   8  -2   5    7.78    0.33
  -9   2  -5    3.87    0.26
   9  -2   5    4.04    0.24
  10   1  -5    0.35    0.11
  10   1  -5    0.39    0.09
 -10  -1   5    0.46    0.11
   9   1  -5    0.09    0.06
   9   1  -5    0.28    0.10
  -9  -1   5    0.03    0.09
   8   1  -5    2.43    0.17
   8   1  -5    2.32    0.14
  -8  -1   5    2.49    0.18
  -8  -1   5    2.26    0.12
   7   1  -5    5.95    0.23
   7   1  -5    6.31    0.29
  -7  -1   5    6.28    0.29
  -7  -1   5    6.17    0.23
   6   1  -5    5.14    0.27
   6   1  -5    4.93    0.23
   6   1  -5    5.22    0.26
   6   1  -5    5.19    0.19
   6   1  -5    4.79    0.22
  -6  -1   5    5.22    0.19
  -6  -1   5    4.76    0.26
  -6  -1   5    4.94    0.24
   5   1  -5    2.12    0.13
   5   1  -5    2.16    0.10
  -5  -1   5    2.04    0.14
  -5  -1   5    1.95    0.12
  -5  -1   5    2.13    0.10
  -5  -1   5    2.28    0.14
   4   1  -5    2.19    0.12
   4   1  -5    2.09    0.12
   4   1  -5    2.01    0.14
   4   1  -5    2.26    0.09
   4   1  -5    2.18    0.11
  -4  -1   5    2.20    0.14
  -4  -1   5    2.00    0.12
  -4  -1   5    2.27    0.12
  -4  -1   5    2.27    0.10
   3   1  -5   94.21    2.99
   3   1  -5   93.34    2.64
   3   1  -5   89.81    2.80
  -3  -1   5   92.39    2.56
  -3  -1   5   94.34    2.81
  -3  -1   5   91.06    2.98
  -3  -1   5   91.93    2.65
  -3  -1   5   93.77    2.66
   2   1  -5  142.53    4.57
   2   1  -5  137.68    4.30
   2   1  -5  141.81    4.30
  -2  -1   5  150.20    4.31
  -2  -1   5  146.63    4.05
  -2  -1   5  137.74    3.93
  -2  -1   5  145.30    4.56
  -2  -1   5  144.32    3.93
   1   1  -5   14.06    0.49
  -1  -1   5   14.90    0.42
  -1  -1   5   15.02    0.48
  -1  -1   5   13.74    0.45
   0   1  -5    0.05    0.02
  -1   1  -5   20.48    0.65
  -1   1  -5   20.04    0.69
  -1   1  -5   19.93    0.65
  -2   1  -5  105.07    3.32
  -2   1  -5  105.32    3.36
  -2   1  -5  102.51    3.32
  -3   1  -5   51.45    1.66
  -3   1  -5   50.29    1.66
  -3   1  -5   50.79    1.71
   3  -1   5   52.42    1.48
  -4   1  -5    1.14    0.09
  -4   1  -5    1.05    0.12
   4  -1   5    1.15    0.08
  -5   1  -5    0.49    0.08
  -5   1  -5    0.37    0.10
   5  -1   5    0.56    0.07
  -6   1  -5    1.12    0.15
  -6   1  -5    1.05    0.11
   6  -1   5    1.10    0.11
  -7   1  -5    3.78    0.23
   7  -1   5    3.67    0.20
  -8   1  -5    4.29    0.26
   8  -1   5    4.08    0.27
   8  -1   5    4.31    0.23
  -9   1  -5    0.07    0.09
   9  -1   5   -0.02    0.08
  11   0  -5    0.43    0.10
 -11   0   5    0.56    0.12
  10   0  -5    1.85    0.14
  10   0  -5    1.65    0.18
 -10   0   5    1.73    0.18
   9   0  -5   18.29    0.68
   9   0  -5   18.30    0.59
  -9   0   5   17.69    0.67
   8   0  -5   18.88    0.70
   8   0  -5   19.73    0.62
  -8   0   5   20.63    0.72
  -8   0   5   19.77    0.60
   7   0  -5    4.63    0.23
   7   0  -5    4.54    0.19
  -7   0   5    4.60    0.18
  -7   0   5    4.75    0.24
   6   0  -5    0.24    0.07
   6   0  -5    0.16    0.06
   6   0  -5    0.16    0.04
   6   0  -5    0.16    0.06
  -6   0   5    0.13    0.06
  -6   0   5    0.16    0.04
  -6   0   5    0.13    0.06
   5   0  -5    5.64    0.23
   5   0  -5    5.35    0.19
  -5   0   5    5.42    0.22
  -5   0   5    5.34    0.19
  -5   0   5    5.39    0.26
  -5   0   5    5.40    0.24
   4   0  -5   45.59    1.56
   4   0  -5   47.42    1.37
   4   0  -5   47.19    1.31
   4   0  -5   45.39    1.45
   4   0  -5   49.22    1.46
  -4   0   5   43.96    1.37
  -4   0   5   47.81    1.37
  -4   0   5   47.00    1.56
  -4   0   5   47.70    1.32
  -4   0   5   47.22    1.46
   3   0  -5   58.44    1.78
   3   0  -5   61.15    1.68
   3   0  -5   51.82    1.60
   3   0  -5   62.69    1.91
  -3   0   5   59.31    1.90
  -3   0   5   57.72    1.68
  -3   0   5   59.60    1.62
  -3   0   5   55.75    1.79
   2   0  -5   11.71    0.41
   2   0  -5   11.21    0.37
   2   0  -5   10.85    0.37
  -2   0   5   11.70    0.41
  -2   0   5   11.94    0.33
  -2   0   5   11.40    0.36
  -2   0   5   11.72    0.33
   1   0  -5   32.91    1.06
  -1   0   5   32.24    0.99
  -1   0   5   32.34    1.05
   0   0  -5    5.89    0.21
  -1   0  -5   21.85    0.72
  -2   0  -5   47.54    1.55
  -2   0  -5   48.66    1.55
  -2   0  -5   47.46    1.59
  -3   0  -5    9.21    0.35
  -3   0  -5    9.47    0.39
  -3   0  -5    8.82    0.34
   3   0   5    9.07    0.31
  -4   0  -5   12.52    0.52
  -4   0  -5   13.03    0.48
  -4   0  -5   12.53    0.47
   4   0   5   13.06    0.42
  -5   0  -5   13.35    0.51
  -5   0  -5   13.05    0.55
   5   0   5   13.54    0.40
   5   0   5   13.25    0.46
  -6   0  -5    3.80    0.22
  -6   0  -5    3.82    0.25
   6   0   5    3.86    0.20
  -7   0  -5    0.96    0.13
  -7   0  -5    0.97    0.16
   7   0   5    1.03    0.12
  -8   0  -5    0.25    0.09
   8   0   5    0.26    0.09
   8   0   5    0.39    0.12
  11  -1  -5    4.27    0.22
 -11   1   5    3.92    0.25
  10  -1  -5    4.00    0.25
  10  -1  -5    3.88    0.20
 -10   1   5    3.58    0.23
   9  -1  -5    4.48    0.21
   9  -1  -5    4.89    0.27
  -9   1   5    4.81    0.27
   8  -1  -5    0.06    0.07
   8  -1  -5    0.13    0.06
  -8   1   5   -0.01    0.04
  -8   1   5   -0.08    0.07
   7  -1  -5   12.40    0.41
   7  -1  -5   12.83    0.45
   7  -1  -5   12.76    0.48
  -7   1   5   12.42    0.52
  -7   1   5   12.71    0.40
  -7   1   5   12.97    0.48
   6  -1  -5   10.31    0.34
   6  -1  -5   10.46    0.37
   6  -1  -5   10.97    0.44
   6  -1  -5   10.27    0.39
  -6   1   5   10.44    0.40
  -6   1   5   10.39    0.34
  -6   1   5   10.61    0.43
  -6   1   5    9.92    0.35
   5  -1  -5   40.59    1.28
   5  -1  -5   39.89    1.15
  -5   1   5   40.23    1.29
  -5   1   5   40.37    1.37
  -5   1   5   41.86    1.21
  -5   1   5   40.47    1.21
  -5   1   5   40.77    1.16
   4  -1  -5   37.71    1.12
   4  -1  -5   36.00    1.00
   4  -1  -5   35.30    1.11
  -4   1   5   35.07    1.06
  -4   1   5   35.41    1.01
  -4   1   5   34.59    1.19
  -4   1   5   34.22    1.12
   3  -1  -5    0.42    0.07
   3  -1  -5    0.51    0.05
   3  -1  -5    0.39    0.05
   3  -1  -5    0.45    0.04
  -3   1   5    0.42    0.06
  -3   1   5    0.38    0.06
  -3   1   5    0.45    0.05
  -3   1   5    0.34    0.04
   2  -1  -5   30.58    1.01
   2  -1  -5   29.97    0.94
   2  -1  -5   30.08    0.94
  -2   1   5   30.85    1.01
  -2   1   5   30.87    0.95
  -2   1   5   30.64    0.85
  -2   1   5   29.84    0.89
   1  -1  -5   26.04    0.89
   1  -1  -5   26.78    0.81
   1  -1  -5   26.83    0.81
  -1   1   5   27.38    0.88
  -1   1   5   26.84    0.83
   0  -1  -5    7.08    0.27
   0   1   5    7.30    0.24
  -1  -1  -5    3.78    0.17
   1   1   5    3.82    0.14
  -2  -1  -5    1.50    0.10
  -2  -1  -5    1.45    0.10
   2   1   5    1.50    0.09
  -3  -1  -5   34.71    1.12
  -3  -1  -5   33.32    1.12
  -3  -1  -5   33.07    1.16
   3   1   5   33.55    1.06
   3   1   5   32.21    1.00
  -4  -1  -5   20.61    0.74
  -4  -1  -5   20.59    0.73
  -4  -1  -5   19.60    0.77
   4   1   5   20.44    0.69
   4   1   5   21.34    0.66
   4   1   5   20.39    0.59
  -5  -1  -5    7.77    0.39
  -5  -1  -5    7.64    0.34
  -5  -1  -5    7.63    0.34
   5   1   5    7.69    0.31
   5   1   5    8.20    0.26
  -6  -1  -5    2.56    0.19
  -6  -1  -5    2.80    0.22
   6   1   5    2.77    0.18
  -7  -1  -5    0.42    0.10
  -7  -1  -5    0.71    0.14
   7   1   5    0.75    0.11
  -8  -1  -5    4.43    0.28
   8   1   5    4.05    0.24
  11  -2  -5    2.24    0.16
 -11   2   5    2.64    0.20
  10  -2  -5    4.26    0.21
 -10   2   5    4.37    0.25
   9  -2  -5    0.65    0.09
   9  -2  -5    0.71    0.12
  -9   2   5    0.86    0.13
   8  -2  -5   20.11    0.73
   8  -2  -5   20.16    0.64
  -8   2   5   21.18    0.74
  -8   2   5   21.05    0.62
   7  -2  -5    8.08    0.34
   7  -2  -5    8.13    0.28
   7  -2  -5    8.19    0.32
  -7   2   5    8.16    0.27
  -7   2   5    7.83    0.34
  -7   2   5    7.72    0.37
   6  -2  -5    0.14    0.05
   6  -2  -5    0.13    0.07
   6  -2  -5    0.13    0.05
   6  -2  -5    0.15    0.04
  -6   2   5    0.25    0.05
  -6   2   5    0.21    0.07
  -6   2   5    0.07    0.05
   5  -2  -5    1.09    0.09
   5  -2  -5    0.98    0.11
   5  -2  -5    1.27    0.09
   5  -2  -5    0.97    0.07
  -5   2   5    1.04    0.11
  -5   2   5    0.94    0.07
  -5   2   5    1.02    0.08
  -5   2   5    1.11    0.10
  -5   2   5    1.10    0.09
   4  -2  -5   18.09    0.53
   4  -2  -5   17.62    0.59
   4  -2  -5   18.58    0.60
  -4   2   5   17.58    0.56
  -4   2   5   18.00    0.60
  -4   2   5   18.32    0.65
  -4   2   5   17.56    0.53
   3  -2  -5   75.65    2.33
   3  -2  -5   74.91    2.11
   3  -2  -5   76.98    2.48
   3  -2  -5   78.24    2.33
  -3   2   5   74.69    2.19
  -3   2   5   76.40    2.12
  -3   2   5   76.75    2.47
  -3   2   5   76.71    2.33
   2  -2  -5   48.35    1.43
   2  -2  -5   43.24    1.43
   2  -2  -5   47.55    1.53
  -2   2   5   44.85    1.43
  -2   2   5   48.04    1.30
  -2   2   5   47.22    1.53
   1  -2  -5   16.99    0.50
   1  -2  -5   16.16    0.55
   1  -2  -5   15.33    0.50
  -1   2   5   15.01    0.55
  -1   2   5   15.93    0.45
  -1   2   5   15.01    0.51
   0  -2  -5    0.72    0.05
   0  -2  -5    0.76    0.07
   0  -2  -5    0.64    0.05
   0   2   5    0.72    0.03
   0   2   5    0.68    0.06
   0   2   5    0.65    0.07
   0   2   5    0.71    0.03
  -1  -2  -5    2.92    0.16
   1   2   5    2.89    0.13
   1   2   5    3.12    0.09
   1   2   5    2.92    0.09
  -2  -2  -5   32.87    1.15
  -2  -2  -5   34.42    1.14
   2   2   5   33.90    1.02
   2   2   5   34.53    0.95
   2   2   5   34.04    1.07
   2   2   5   34.19    0.95
  -3  -2  -5   16.67    0.63
  -3  -2  -5   17.44    0.66
  -3  -2  -5   17.66    0.64
   3   2   5   17.91    0.60
   3   2   5   17.55    0.57
   3   2   5   17.43    0.51
  -4  -2  -5    1.01    0.13
  -4  -2  -5    1.05    0.11
  -4  -2  -5    1.03    0.12
   4   2   5    0.99    0.07
   4   2   5    1.08    0.11
  -5  -2  -5    0.10    0.08
  -5  -2  -5    0.09    0.07
   5   2   5   -0.05    0.05
  -6  -2  -5    0.63    0.11
  -6  -2  -5    0.54    0.13
   6   2   5    0.71    0.11
  -7  -2  -5    4.33    0.30
  -7  -2  -5    3.86    0.26
   7   2   5    4.04    0.24
  -8  -2  -5    2.81    0.26
  11  -3  -5    0.77    0.11
 -11   3   5    0.56    0.11
  10  -3  -5    0.28    0.08
 -10   3   5    0.40    0.10
   9  -3  -5   10.04    0.36
   9  -3  -5    9.83    0.42
  -9   3   5   10.45    0.43
   8  -3  -5   11.16    0.45
   8  -3  -5   11.29    0.38
  -8   3   5   11.29    0.45
   7  -3  -5    0.10    0.06
   7  -3  -5    0.07    0.05
   7  -3  -5    0.14    0.05
  -7   3   5    0.09    0.04
  -7   3   5    0.04    0.06
  -7   3   5    0.14    0.07
   6  -3  -5    1.43    0.14
   6  -3  -5    1.60    0.09
   6  -3  -5    1.51    0.11
   6  -3  -5    1.53    0.12
  -6   3   5    1.53    0.09
  -6   3   5    1.59    0.14
  -6   3   5    1.79    0.12
   5  -3  -5    0.60    0.09
   5  -3  -5    0.66    0.07
   5  -3  -5    0.65    0.06
   5  -3  -5    0.52    0.07
  -5   3   5    0.56    0.08
  -5   3   5    0.35    0.07
  -5   3   5    0.64    0.06
  -5   3   5    0.58    0.07
   4  -3  -5   64.07    1.81
   4  -3  -5   63.87    2.00
  -4   3   5   66.43    1.82
  -4   3   5   63.48    2.01
  -4   3   5   65.60    1.88
  -4   3   5   65.72    2.13
   3  -3  -5   82.85    2.57
   3  -3  -5   83.31    2.74
   3  -3  -5   83.31    2.34
   3  -3  -5   84.70    2.58
  -3   3   5   87.19    2.59
  -3   3   5   86.03    2.43
  -3   3   5   81.27    2.35
  -3   3   5   87.60    2.74
   2  -3  -5   10.28    0.29
   2  -3  -5   10.39    0.39
   2  -3  -5   10.30    0.35
  -2   3   5    9.56    0.31
  -2   3   5    9.82    0.38
  -2   3   5    9.96    0.36
   1  -3  -5    0.46    0.05
   1  -3  -5    0.61    0.08
   1  -3  -5    0.66    0.06
  -1   3   5    0.59    0.05
  -1   3   5    0.63    0.07
  -1   3   5    0.57    0.07
   0  -3  -5    2.35    0.11
   0  -3  -5    2.18    0.13
   0  -3  -5    2.29    0.11
   0   3   5    2.29    0.09
   0   3   5    2.25    0.13
   0   3   5    2.47    0.12
  -1  -3  -5    4.01    0.16
  -1  -3  -5    4.11    0.16
  -1  -3  -5    4.08    0.21
   1   3   5    4.05    0.18
   1   3   5    4.44    0.15
  -2  -3  -5   16.86    0.53
  -2  -3  -5   16.51    0.53
  -2  -3  -5   16.92    0.62
   2   3   5   16.65    0.49
   2   3   5   17.21    0.55
   2   3   5   16.09    0.57
  -3  -3  -5    0.08    0.03
  -3  -3  -5    0.14    0.03
  -3  -3  -5    0.19    0.06
  -3  -3  -5    0.15    0.06
   3   3   5    0.17    0.06
   3   3   5    0.11    0.06
   3   3   5    0.11    0.04
  -4  -3  -5    7.74    0.37
  -4  -3  -5    7.14    0.24
  -4  -3  -5    7.29    0.33
  -4  -3  -5    6.94    0.24
  -4  -3  -5    7.51    0.33
   4   3   5    6.51    0.25
   4   3   5    6.82    0.30
  -5  -3  -5    8.58    0.42
  -5  -3  -5    8.33    0.39
  -5  -3  -5    9.36    0.41
   5   3   5    8.36    0.35
  -6  -3  -5    6.19    0.33
  -6  -3  -5    6.30    0.36
   6   3   5    5.61    0.29
  -7  -3  -5    3.06    0.27
   7   3   5    2.74    0.21
  -8  -3  -5    0.13    0.13
  11  -4  -5    1.22    0.13
 -11   4   5    1.32    0.15
  10  -4  -5    8.32    0.33
 -10   4   5    9.12    0.39
   9  -4  -5    8.83    0.39
   9  -4  -5    8.35    0.32
  -9   4   5    8.39    0.38
   8  -4  -5    0.14    0.06
   8  -4  -5    0.26    0.08
  -8   4   5    0.32    0.09
   7  -4  -5   12.54    0.41
   7  -4  -5   12.74    0.45
   7  -4  -5   12.80    0.47
  -7   4   5   12.62    0.52
  -7   4   5   11.74    0.47
  -7   4   5   12.37    0.39
   6  -4  -5   20.63    0.78
   6  -4  -5   21.25    0.72
   6  -4  -5   20.35    0.63
   6  -4  -5   20.91    0.67
  -6   4   5   21.06    0.62
  -6   4   5   20.66    0.72
  -6   4   5   21.30    0.78
   5  -4  -5   28.20    0.92
   5  -4  -5   28.39    0.99
   5  -4  -5   28.15    0.82
  -5   4   5   26.96    0.92
  -5   4   5   29.31    1.00
  -5   4   5   27.68    0.82
   4  -4  -5   23.75    0.69
   4  -4  -5   22.05    0.77
  -4   4   5   24.28    0.73
  -4   4   5   24.52    0.84
  -4   4   5   23.35    0.69
  -4   4   5   23.83    0.78
   3  -4  -5    4.97    0.20
   3  -4  -5    4.61    0.17
   3  -4  -5    4.53    0.20
  -3   4   5    4.80    0.19
  -3   4   5    4.70    0.23
  -3   4   5    4.71    0.21
  -3   4   5    4.84    0.17
   2  -4  -5   23.67    0.79
   2  -4  -5   24.67    0.70
   2  -4  -5   23.55    0.86
   2  -4  -5   24.64    0.80
  -2   4   5   24.28    0.72
  -2   4   5   25.59    0.86
  -2   4   5   26.70    0.81
   1  -4  -5   19.04    0.65
   1  -4  -5   16.46    0.59
  -1   4   5   17.71    0.53
  -1   4   5   18.20    0.64
  -1   4   5   18.12    0.60
   0  -4  -5   34.89    1.20
   0  -4  -5   36.27    1.11
   0  -4  -5   36.27    1.11
   0   4   5   35.17    1.00
   0   4   5   34.05    1.12
   0   4   5   34.21    1.19
  -1  -4  -5   13.06    0.50
  -1  -4  -5   12.60    0.43
  -1  -4  -5   12.81    0.43
   1   4   5   12.92    0.46
   1   4   5   12.50    0.39
  -2  -4  -5    0.05    0.04
  -2  -4  -5   -0.02    0.03
  -2  -4  -5    0.18    0.06
   2   4   5    0.01    0.05
   2   4   5    0.16    0.06
   2   4   5    0.03    0.03
  -3  -4  -5    4.82    0.25
  -3  -4  -5    4.50    0.25
  -3  -4  -5    4.51    0.19
  -3  -4  -5    4.47    0.19
   3   4   5    4.62    0.23
   3   4   5    4.92    0.24
   3   4   5    4.54    0.19
  -4  -4  -5    7.37    0.36
  -4  -4  -5    6.00    0.33
  -4  -4  -5    6.54    0.25
  -4  -4  -5    6.85    0.33
  -4  -4  -5    6.67    0.25
   4   4   5    6.89    0.30
  -5  -4  -5    4.11    0.26
  -5  -4  -5    4.14    0.17
  -5  -4  -5    4.43    0.29
  -5  -4  -5    4.29    0.17
   5   4   5    4.17    0.23
  -6  -4  -5    2.02    0.23
   6   4   5    1.75    0.18
  -7  -4  -5    0.10    0.11
  11  -5  -5    2.63    0.17
 -11   5   5    2.61    0.19
  10  -5  -5    2.03    0.14
 -10   5   5    2.33    0.18
   9  -5  -5    0.31    0.09
   9  -5  -5    0.30    0.07
  -9   5   5    0.42    0.10
   8  -5  -5   11.97    0.41
   8  -5  -5   11.80    0.47
  -8   5   5   12.00    0.47
   7  -5  -5   11.79    0.45
   7  -5  -5   11.73    0.39
  -7   5   5   11.19    0.45
  -7   5   5   11.56    0.37
   6  -5  -5   10.65    0.41
   6  -5  -5   10.72    0.35
  -6   5   5   10.69    0.42
  -6   5   5   10.59    0.46
  -6   5   5   10.54    0.34
   5  -5  -5   11.44    0.48
   5  -5  -5   11.65    0.38
   5  -5  -5   11.94    0.44
  -5   5   5   12.22    0.49
  -5   5   5   12.23    0.38
  -5   5   5   11.29    0.44
   4  -5  -5    0.08    0.05
   4  -5  -5    0.09    0.05
   4  -5  -5    0.06    0.03
  -4   5   5    0.04    0.04
  -4   5   5    0.06    0.04
  -4   5   5    0.09    0.05
  -4   5   5    0.04    0.05
   3  -5  -5   44.12    1.24
   3  -5  -5   43.21    1.38
  -3   5   5   45.35    1.40
  -3   5   5   43.09    1.25
  -3   5   5   43.51    1.48
  -3   5   5   44.58    1.31
   2  -5  -5    8.76    0.36
   2  -5  -5    8.60    0.33
   2  -5  -5    8.98    0.32
   2  -5  -5    7.79    0.27
  -2   5   5    8.03    0.33
  -2   5   5    8.82    0.28
  -2   5   5    8.85    0.36
   1  -5  -5    0.48    0.04
   1  -5  -5    0.46    0.08
   1  -5  -5    0.37    0.06
   1  -5  -5    0.40    0.06
  -1   5   5    0.51    0.08
  -1   5   5    0.43    0.05
  -1   5   5    0.46    0.07
   0  -5  -5    0.02    0.03
   0  -5  -5    0.06    0.04
   0  -5  -5   -0.01    0.04
   0   5   5   -0.02    0.03
   0   5   5    0.06    0.05
   0   5   5    0.04    0.04
  -1  -5  -5   22.52    0.71
  -1  -5  -5   20.04    0.79
  -1  -5  -5   22.01    0.72
   1   5   5   20.81    0.70
   1   5   5   22.84    0.74
   1   5   5   20.96    0.64
  -2  -5  -5    7.26    0.35
  -2  -5  -5    7.81    0.30
  -2  -5  -5    7.22    0.29
   2   5   5    7.11    0.31
   2   5   5    7.31    0.26
   2   5   5    7.83    0.33
  -3  -5  -5   14.87    0.59
  -3  -5  -5   13.85    0.49
   3   5   5   14.48    0.52
  -4  -5  -5    0.39    0.11
   4   5   5    0.60    0.11
  -5  -5  -5   -0.12    0.08
  -5  -5  -5   -0.02    0.05
   5   5   5   -0.05    0.06
  -6  -5  -5    0.00    0.04
  -6  -5  -5    0.03    0.11
  -7  -5  -5    3.41    0.29
  11  -6  -5    1.15    0.12
 -11   6   5    0.99    0.14
  10  -6  -5    0.35    0.08
 -10   6   5    0.33    0.10
   9  -6  -5   14.27    0.55
   9  -6  -5   13.35    0.46
  -9   6   5   13.53    0.53
   8  -6  -5   14.46    0.49
   8  -6  -5   15.07    0.57
  -8   6   5   14.97    0.56
   7  -6  -5    0.05    0.06
   7  -6  -5    0.06    0.05
  -7   6   5   -0.01    0.06
   6  -6  -5    0.07    0.06
   6  -6  -5    0.08    0.05
  -6   6   5    0.07    0.07
  -6   6   5    0.07    0.04
  -6   6   5    0.05    0.06
   5  -6  -5    0.92    0.08
   5  -6  -5    0.80    0.10
   5  -6  -5    0.88    0.12
  -5   6   5    0.88    0.08
  -5   6   5    0.58    0.10
  -5   6   5    0.78    0.10
   4  -6  -5    9.05    0.36
   4  -6  -5    9.14    0.31
   4  -6  -5    9.29    0.40
  -4   6   5    9.08    0.37
  -4   6   5    9.50    0.31
  -4   6   5    9.71    0.40
   3  -6  -5   42.58    1.18
   3  -6  -5   39.19    1.31
  -3   6   5   41.03    1.32
  -3   6   5   42.73    1.19
  -3   6   5   40.57    1.41
   2  -6  -5   -0.06    0.04
   2  -6  -5   -0.01    0.03
   2  -6  -5    0.03    0.04
   2  -6  -5   -0.01    0.04
  -2   6   5   -0.05    0.03
  -2   6   5   -0.03    0.05
  -2   6   5   -0.02    0.04
   1  -6  -5    0.61    0.05
   1  -6  -5    0.51    0.08
   1  -6  -5    0.57    0.08
   1  -6  -5    0.57    0.09
  -1   6   5    0.49    0.06
  -1   6   5    0.63    0.10
  -1   6   5    0.57    0.08
   0  -6  -5    8.07    0.36
   0  -6  -5    7.55    0.22
   0  -6  -5    7.26    0.30
   0   6   5    6.62    0.33
   0   6   5    7.11    0.26
   0   6   5    7.20    0.31
  -1  -6  -5   41.17    1.32
  -1  -6  -5   43.74    1.44
   1   6   5   40.02    1.20
   1   6   5   40.78    1.34
   1   6   5   40.75    1.27
  -2  -6  -5    1.49    0.16
  -2  -6  -5    1.50    0.13
   2   6   5    1.40    0.14
   2   6   5    1.57    0.15
  -3  -6  -5    4.89    0.23
   3   6   5    5.25    0.26
  -4  -6  -5    0.53    0.08
   4   6   5    0.49    0.10
  -5  -6  -5    1.34    0.20
  -5  -6  -5    1.35    0.11
  -6  -6  -5    0.55    0.08
  -6  -6  -5    0.27    0.13
  11  -7  -5    0.03    0.07
 -11   7   5    0.02    0.08
  10  -7  -5    3.68    0.20
 -10   7   5    3.58    0.22
   9  -7  -5    4.45    0.21
  -9   7   5    3.96    0.24
   8  -7  -5    0.35    0.07
   8  -7  -5    0.16    0.08
  -8   7   5    0.20    0.09
   7  -7  -5    2.28    0.16
   7  -7  -5    2.52    0.14
  -7   7   5    2.33    0.17
   6  -7  -5   20.98    0.66
   6  -7  -5   22.24    0.75
  -6   7   5   21.88    0.64
  -6   7   5   20.94    0.75
   5  -7  -5   37.38    1.20
   5  -7  -5   36.14    1.07
  -5   7   5   36.20    1.06
  -5   7   5   37.37    1.29
  -5   7   5   35.89    1.20
   4  -7  -5   17.86    0.64
   4  -7  -5   18.57    0.57
  -4   7   5   19.82    0.66
  -4   7   5   17.23    0.70
  -4   7   5   18.53    0.56
   3  -7  -5    1.56    0.09
   3  -7  -5    1.80    0.15
   3  -7  -5    1.31    0.13
  -3   7   5    1.51    0.14
  -3   7   5    1.37    0.10
  -3   7   5    1.58    0.13
   2  -7  -5    1.43    0.12
   2  -7  -5    1.34    0.09
  -2   7   5    1.28    0.09
  -2   7   5    1.30    0.14
  -2   7   5    1.48    0.12
   1  -7  -5    3.91    0.16
   1  -7  -5    4.27    0.25
   1  -7  -5    5.16    0.23
  -1   7   5    4.78    0.19
  -1   7   5    4.62    0.24
  -1   7   5    4.73    0.26
   0  -7  -5    9.76    0.38
   0  -7  -5   10.02    0.44
   0   7   5    9.40    0.38
   0   7   5    9.51    0.34
   0   7   5    9.56    0.40
  -1  -7  -5    8.86    0.36
   1   7   5    8.52    0.38
   1   7   5    9.60    0.38
  -2  -7  -5    2.07    0.15
   2   7   5    1.80    0.17
   2   7   5    1.86    0.16
  -3  -7  -5    7.47    0.32
  -4  -7  -5    2.30    0.16
  -5  -7  -5    1.43    0.21
  -6  -7  -5    0.29    0.08
  -6  -7  -5    0.20    0.14
  10  -8  -5    3.61    0.20
 -10   8   5    3.51    0.23
   9  -8  -5    0.20    0.07
  -9   8   5    0.11    0.08
   8  -8  -5    4.07    0.24
   8  -8  -5    3.92    0.19
  -8   8   5    3.72    0.23
   7  -8  -5   -0.03    0.06
   7  -8  -5    0.12    0.06
  -7   8   5   -0.03    0.06
   6  -8  -5    5.76    0.24
   6  -8  -5    6.24    0.29
  -6   8   5    5.94    0.29
   5  -8  -5    3.15    0.16
   5  -8  -5    3.14    0.19
  -5   8   5    3.12    0.20
  -5   8   5    3.08    0.15
   4  -8  -5    0.57    0.07
   4  -8  -5    0.41    0.08
  -4   8   5    0.51    0.10
  -4   8   5    0.61    0.07
   3  -8  -5   11.07    0.36
   3  -8  -5   10.40    0.43
  -3   8   5   10.87    0.37
  -3   8   5   11.18    0.44
   2  -8  -5    2.06    0.15
   2  -8  -5    1.90    0.11
  -2   8   5    1.96    0.12
  -2   8   5    2.17    0.16
   1  -8  -5    6.81    0.30
   1  -8  -5    6.48    0.23
  -1   8   5    6.74    0.32
   0  -8  -5    2.00    0.15
   0   8   5    1.72    0.17
  -1  -8  -5    0.52    0.09
   1   8   5    0.67    0.11
  -2  -8  -5    4.51    0.24
  -3  -8  -5   10.53    0.43
  -4  -8  -5    0.38    0.09
  -5  -8  -5    0.09    0.11
  10  -9  -5    0.16    0.08
 -10   9   5    0.18    0.10
   9  -9  -5    8.79    0.35
  -9   9   5    9.15    0.40
   8  -9  -5    6.75    0.28
  -8   9   5    6.85    0.33
   7  -9  -5   -0.05    0.07
   7  -9  -5   -0.01    0.05
  -7   9   5   -0.02    0.07
   6  -9  -5    0.39    0.08
   6  -9  -5    0.46    0.10
  -6   9   5    0.25    0.09
   5  -9  -5    1.89    0.13
   5  -9  -5    2.36    0.17
  -5   9   5    1.57    0.16
   4  -9  -5   10.45    0.44
   4  -9  -5   10.84    0.36
  -4   9   5   10.80    0.45
   3  -9  -5    6.77    0.32
   3  -9  -5    7.03    0.25
  -3   9   5    6.34    0.32
   2  -9  -5   -0.04    0.03
   2  -9  -5   -0.05    0.05
  -2   9   5   -0.03    0.07
   1  -9  -5    0.06    0.06
  -1   9   5    0.00    0.08
   0  -9  -5    1.01    0.13
   0   9   5    1.11    0.14
  -1  -9  -5    4.37    0.24
   1   9   5    4.44    0.27
  -2  -9  -5    4.73    0.26
  -3  -9  -5    1.87    0.16
  -4  -9  -5    0.18    0.09
   9 -10  -5    3.04    0.19
  -9  10   5    3.32    0.22
   8 -10  -5    0.34    0.08
  -8  10   5    0.35    0.10
   7 -10  -5   -0.12    0.07
   7 -10  -5   -0.01    0.06
  -7  10   5    0.01    0.08
   6 -10  -5    1.32    0.15
   6 -10  -5    1.18    0.12
  -6  10   5    1.12    0.14
   5 -10  -5    9.80    0.43
   5 -10  -5   10.03    0.36
  -5  10   5   10.15    0.44
   4 -10  -5    4.53    0.20
   4 -10  -5    4.57    0.26
  -4  10   5    4.91    0.27
   3 -10  -5   -0.03    0.04
   3 -10  -5    0.05    0.07
  -3  10   5    0.08    0.09
   2 -10  -5    1.49    0.10
   2 -10  -5    1.33    0.14
  -2  10   5    1.31    0.16
   1 -10  -5    2.70    0.19
  -1  10   5    2.56    0.21
   0 -10  -5    3.01    0.20
   0  10   5    3.07    0.22
  -1 -10  -5    1.36    0.15
   1  10   5    1.79    0.19
  -2 -10  -5    0.28    0.09
  -3 -10  -5    0.13    0.09
   9 -11  -5    0.18    0.09
  -9  11   5    0.11    0.09
   8 -11  -5    3.46    0.21
  -8  11   5    3.46    0.23
   7 -11  -5    3.11    0.19
  -7  11   5    2.66    0.21
   6 -11  -5    3.59    0.24
   6 -11  -5    3.28    0.18
  -6  11   5    3.38    0.23
   5 -11  -5    3.10    0.17
   5 -11  -5    3.15    0.22
  -5  11   5    2.90    0.22
   4 -11  -5    0.52    0.08
   4 -11  -5    0.51    0.11
  -4  11   5    0.36    0.11
   3 -11  -5    4.17    0.25
   3 -11  -5    4.43    0.20
  -3  11   5    5.04    0.29
   2 -11  -5    4.15    0.25
  -2  11   5    4.16    0.27
   1 -11  -5    2.29    0.18
  -1  11   5    2.60    0.22
   0 -11  -5    0.69    0.12
   0  11   5    0.72    0.13
  -1 -11  -5    0.46    0.11
   1  11   5    0.47    0.12
  -2 -11  -5    2.56    0.21
   7 -12  -5    0.50    0.10
  -7  12   5    0.56    0.13
   6 -12  -5    0.21    0.07
  -6  12   5    0.15    0.10
   5 -12  -5   -0.01    0.08
   5 -12  -5    0.06    0.06
  -5  12   5    0.11    0.10
   4 -12  -5    3.40    0.18
   4 -12  -5    3.65    0.24
  -4  12   5    3.61    0.26
   3 -12  -5    2.20    0.19
  -3  12   5    1.90    0.21
   2 -12  -5    0.34    0.10
  -2  12   5    0.34    0.12
   1 -12  -5   -0.10    0.07
  -1  12   5    0.02    0.10
   0 -12  -5    0.26    0.10
   0  12   5    0.22    0.12
   6 -13  -5    1.07    0.12
  -6  13   5    0.95    0.16
   5 -13  -5    4.09    0.21
   5 -13  -5    3.97    0.27
  -5  13   5    4.00    0.28
   4 -13  -5    3.91    0.26
  -4  13   5    3.81    0.27
   3 -13  -5   -0.08    0.07
  -3  13   5   -0.04    0.09
   2 -13  -5    0.24    0.09
  -2  13   5    0.07    0.11
   1  13  -6    0.47    0.05
  -1 -13   6    0.43    0.09
   0 -13   6    4.58    0.22
   1 -13   6    2.62    0.16
   2 -13   6    0.99    0.12
   3 -13   6    0.15    0.07
  -4  13  -6    1.10    0.17
   4 -13   6    1.22    0.12
   3  12  -6    0.08    0.08
  -3 -12   6   -0.09    0.05
   2  12  -6    0.65    0.09
  -2 -12   6    0.80    0.10
   1  12  -6    5.52    0.21
  -1 -12   6    5.07    0.24
   0 -12   6    7.20    0.29
  -1  12  -6    2.78    0.22
   1 -12   6    2.45    0.16
  -2  12  -6   -0.05    0.07
   2 -12   6    0.01    0.06
  -3  12  -6    0.48    0.11
   3 -12   6    0.56    0.08
  -4  12  -6    2.83    0.23
   4 -12   6    3.41    0.16
  -5  12  -6    3.45    0.25
   5 -12   6    3.31    0.16
  -6  12  -6    0.16    0.09
   6 -12   6    0.11    0.06
   5  11  -6    0.05    0.09
  -5 -11   6    0.11    0.08
   4  11  -6    1.98    0.17
  -4 -11   6    1.81    0.14
   3  11  -6    0.10    0.07
  -3 -11   6    0.14    0.06
   2  11  -6    5.44    0.24
  -2 -11   6    5.18    0.23
   1  11  -6    2.53    0.13
  -1 -11   6    2.96    0.16
   0  11  -6    0.92    0.14
   0 -11   6    0.94    0.09
  -1  11  -6    1.37    0.16
   1 -11   6    1.48    0.12
  -2  11  -6    5.12    0.30
  -2  11  -6    5.17    0.29
   2 -11   6    5.49    0.22
  -3  11  -6    3.91    0.24
  -3  11  -6    4.04    0.25
   3 -11   6    3.80    0.17
  -4  11  -6    3.37    0.23
   4 -11   6    3.40    0.15
  -5  11  -6    0.19    0.08
   5 -11   6    0.23    0.06
  -6  11  -6    0.06    0.07
   6 -11   6    0.08    0.05
  -7  11  -6    2.67    0.21
   7 -11   6    3.08    0.16
   6  10  -6    0.27    0.11
  -6 -10   6    0.20    0.08
   5  10  -6    1.55    0.17
  -5 -10   6    1.43    0.14
   4  10  -6    6.21    0.30
  -4 -10   6    6.29    0.27
   3  10  -6    1.10    0.12
  -3 -10   6    1.13    0.11
   2  10  -6    1.04    0.10
  -2 -10   6    1.35    0.11
   1  10  -6    0.33    0.10
   1  10  -6    0.25    0.05
   1  10  -6    0.21    0.05
  -1 -10   6    0.27    0.06
   0  10  -6    4.80    0.28
   0  10  -6    4.73    0.27
   0 -10   6    4.49    0.20
  -1  10  -6    3.77    0.24
  -1  10  -6    4.08    0.24
   1 -10   6    4.19    0.17
  -2  10  -6    8.23    0.36
  -2  10  -6    7.37    0.37
   2 -10   6    7.71    0.26
  -3  10  -6    2.33    0.18
   3 -10   6    2.48    0.11
  -4  10  -6    1.60    0.16
   4 -10   6    1.43    0.09
  -5  10  -6    9.38    0.42
   5 -10   6    9.93    0.31
  -6  10  -6    1.40    0.15
   6 -10   6    1.45    0.09
  -7  10  -6    0.71    0.12
   7 -10   6    0.60    0.07
   6   9  -6    5.21    0.30
  -6  -9   6    5.42    0.25
   5   9  -6    4.14    0.25
  -5  -9   6    4.27    0.21
   4   9  -6    0.53    0.11
  -4  -9   6    0.87    0.10
   3   9  -6    0.99    0.11
  -3  -9   6    0.99    0.10
   2   9  -6   11.93    0.42
   2   9  -6   11.67    0.52
  -2  -9   6   11.43    0.39
   1   9  -6   10.86    0.36
   1   9  -6   11.30    0.48
   1   9  -6   10.23    0.36
   1   9  -6   10.94    0.48
  -1  -9   6   10.99    0.36
   0   9  -6    3.57    0.22
   0   9  -6    3.80    0.23
   0  -9   6    3.84    0.20
   0  -9   6    3.97    0.17
  -1   9  -6    0.06    0.06
  -1   9  -6    0.06    0.06
   1  -9   6    0.09    0.04
  -2   9  -6    0.04    0.06
  -2   9  -6    0.06    0.06
   2  -9   6    0.06    0.03
  -3   9  -6   -0.02    0.05
   3  -9   6   -0.02    0.02
  -4   9  -6   13.76    0.54
  -5   9  -6    8.37    0.37
  -6   9  -6    0.09    0.06
  -7   9  -6    0.85    0.12
   7  -9   6    0.58    0.09
  -8   9  -6    0.18    0.09
   8  -9   6    0.01    0.07
   7   8  -6    1.43    0.18
  -7  -8   6    1.33    0.13
  -7  -8   6    1.38    0.18
   6   8  -6    3.53    0.24
  -6  -8   6    3.76    0.25
  -6  -8   6    3.53    0.19
   5   8  -6    0.20    0.09
  -5  -8   6    0.12    0.06
   4   8  -6    1.35    0.14
  -4  -8   6    1.51    0.12
   3   8  -6    4.23    0.26
   3   8  -6    3.85    0.20
  -3  -8   6    4.26    0.19
   2   8  -6   58.92    1.76
   2   8  -6   55.53    1.94
   2   8  -6   58.11    1.94
   2   8  -6   57.16    1.76
  -2  -8   6   55.38    1.62
   1   8  -6   18.30    0.68
   1   8  -6   17.13    0.68
   1   8  -6   16.85    0.55
   1   8  -6   18.83    0.55
  -1  -8   6   17.48    0.59
  -1  -8   6   17.06    0.53
   0   8  -6    2.44    0.17
   0   8  -6    2.32    0.16
   0  -8   6    2.13    0.10
   0  -8   6    2.27    0.14
  -1   8  -6    2.59    0.16
  -1   8  -6    2.17    0.15
   1  -8   6    2.34    0.14
   1  -8   6    2.39    0.09
  -2   8  -6   14.14    0.54
  -3   8  -6    5.65    0.26
  -4   8  -6    4.85    0.24
   4  -8   6    4.94    0.25
  -5   8  -6   -0.02    0.05
   5  -8   6    0.08    0.08
  -6   8  -6    3.29    0.20
   6  -8   6    3.60    0.23
   6  -8   6    3.37    0.17
  -7   8  -6    3.88    0.23
   7  -8   6    3.91    0.25
   7  -8   6    3.87    0.20
  -8   8  -6    2.86    0.20
   8  -8   6    2.35    0.17
   8   7  -6    4.05    0.27
  -8  -7   6    4.16    0.28
   7   7  -6    2.06    0.20
  -7  -7   6    1.98    0.20
  -7  -7   6    1.99    0.14
   6   7  -6    0.12    0.09
  -6  -7   6    0.48    0.08
  -6  -7   6    0.49    0.11
   5   7  -6    3.77    0.22
  -5  -7   6    3.82    0.23
  -5  -7   6    3.45    0.18
   4   7  -6    3.09    0.18
   4   7  -6    2.61    0.21
  -4  -7   6    2.76    0.15
  -4  -7   6    3.25    0.19
   3   7  -6   13.61    0.55
   3   7  -6   15.14    0.56
   3   7  -6   13.03    0.47
  -3  -7   6   12.64    0.43
  -3  -7   6   12.73    0.49
   2   7  -6   17.23    0.55
   2   7  -6   17.84    0.64
   2   7  -6   16.28    0.64
   2   7  -6   15.91    0.54
   2   7  -6   16.64    0.52
  -2  -7   6   16.76    0.56
  -2  -7   6   15.18    0.58
  -2  -7   6   17.04    0.51
   1   7  -6    1.92    0.11
   1   7  -6    2.05    0.15
   1   7  -6    1.62    0.14
  -1  -7   6    1.87    0.13
  -1  -7   6    2.16    0.10
  -1  -7   6    1.53    0.12
   0   7  -6    8.57    0.35
   0   7  -6    8.45    0.36
   0  -7   6    8.17    0.25
   0  -7   6    8.84    0.32
   0  -7   6    8.44    0.31
  -1   7  -6    0.99    0.10
  -1   7  -6    1.09    0.10
   1  -7   6    1.06    0.09
  -2   7  -6    4.06    0.20
   2  -7   6    4.21    0.20
  -3   7  -6    2.34    0.14
   3  -7   6    2.23    0.15
  -4   7  -6    4.37    0.21
   4  -7   6    4.49    0.18
   4  -7   6    4.24    0.23
  -5   7  -6   22.24    0.77
   5  -7   6   21.30    0.67
   5  -7   6   20.47    0.74
  -6   7  -6    6.17    0.29
   6  -7   6    6.36    0.25
   6  -7   6    6.70    0.32
  -7   7  -6    0.72    0.10
   7  -7   6    0.73    0.09
   7  -7   6    0.81    0.13
  -8   7  -6    0.62    0.11
   8  -7   6    0.77    0.10
   9   6  -6    1.90    0.21
  -9  -6   6    1.94    0.21
   8   6  -6    1.66    0.19
  -8  -6   6    1.20    0.17
   7   6  -6    0.68    0.12
  -7  -6   6    0.75    0.13
  -7  -6   6    0.59    0.09
   6   6  -6    6.94    0.33
  -6  -6   6    7.08    0.28
  -6  -6   6    7.18    0.34
   5   6  -6    4.03    0.21
  -5  -6   6    3.75    0.22
  -5  -6   6    3.90    0.18
   4   6  -6    3.12    0.17
   4   6  -6    2.68    0.20
   4   6  -6    3.18    0.21
  -4  -6   6    2.79    0.14
  -4  -6   6    3.03    0.18
   3   6  -6    2.44    0.14
   3   6  -6    2.57    0.14
   3   6  -6    2.56    0.18
   3   6  -6    2.68    0.18
  -3  -6   6    2.67    0.16
  -3  -6   6    2.35    0.15
  -3  -6   6    2.39    0.12
   2   6  -6    3.22    0.19
   2   6  -6    3.46    0.14
   2   6  -6    3.61    0.20
   2   6  -6    3.13    0.14
  -2  -6   6    3.40    0.14
  -2  -6   6    3.29    0.16
  -2  -6   6    3.09    0.17
   1   6  -6   36.16    1.22
   1   6  -6   36.38    1.22
  -1  -6   6   35.32    1.01
  -1  -6   6   36.11    1.14
  -1  -6   6   36.15    1.08
   0   6  -6   23.53    0.82
   0   6  -6   23.11    0.81
   0  -6   6   23.92    0.72
  -1   6  -6   14.44    0.51
  -1   6  -6   14.32    0.51
   1  -6   6   14.09    0.47
   1  -6   6   13.69    0.44
  -2   6  -6    2.28    0.13
   2  -6   6    2.22    0.11
   2  -6   6    2.09    0.13
  -3   6  -6    3.41    0.16
   3  -6   6    3.07    0.18
   3  -6   6    3.24    0.13
  -4   6  -6   16.55    0.58
   4  -6   6   16.06    0.58
   4  -6   6   16.15    0.50
  -5   6  -6   17.75    0.65
   5  -6   6   17.94    0.65
   5  -6   6   18.50    0.57
  -6   6  -6    0.87    0.10
   6  -6   6    0.69    0.08
   6  -6   6    0.61    0.11
  -7   6  -6    0.01    0.05
   7  -6   6    0.02    0.08
   7  -6   6    0.01    0.05
  -8   6  -6    0.79    0.12
   8  -6   6    0.65    0.10
  -9   6  -6    3.76    0.25
   9  -6   6    3.61    0.21
   9   5  -6   -0.03    0.10
  -9  -5   6   -0.07    0.09
   8   5  -6    2.98    0.22
  -8  -5   6    2.75    0.16
   7   5  -6   17.54    0.65
  -7  -5   6   17.19    0.56
  -7  -5   6   16.92    0.65
   6   5  -6   12.75    0.49
  -6  -5   6   12.72    0.50
  -6  -5   6   12.56    0.43
   5   5  -6    0.18    0.07
   5   5  -6    0.23    0.07
  -5  -5   6    0.26    0.06
  -5  -5   6    0.15    0.07
   4   5  -6    0.16    0.07
   4   5  -6    0.11    0.06
   4   5  -6    0.16    0.06
   4   5  -6    0.13    0.05
  -4  -5   6    0.19    0.06
  -4  -5   6    0.18    0.06
  -4  -5   6    0.26    0.05
   3   5  -6    7.65    0.33
   3   5  -6    6.99    0.27
   3   5  -6    7.27    0.28
   3   5  -6    7.49    0.33
  -3  -5   6    7.48    0.28
  -3  -5   6    7.90    0.30
  -3  -5   6    7.24    0.25
   2   5  -6   42.88    1.29
   2   5  -6   42.47    1.42
   2   5  -6   42.18    1.41
   2   5  -6   40.82    1.29
  -2  -5   6   42.36    1.25
  -2  -5   6   43.23    1.19
  -2  -5   6   41.00    1.32
   1   5  -6   41.15    1.34
   1   5  -6   39.51    1.34
  -1  -5   6   41.30    1.19
  -1  -5   6   39.46    1.25
   0   5  -6    1.77    0.11
   0   5  -6    1.91    0.11
   0  -5   6    1.95    0.10
   0  -5   6    2.05    0.10
  -1   5  -6    6.65    0.25
  -1   5  -6    6.58    0.26
   1  -5   6    6.72    0.22
   1  -5   6    6.55    0.25
  -2   5  -6    9.08    0.33
   2  -5   6    9.37    0.29
   2  -5   6    8.91    0.28
   2  -5   6    9.21    0.34
  -3   5  -6   26.80    0.89
   3  -5   6   26.99    0.78
   3  -5   6   26.82    0.87
  -4   5  -6   12.59    0.45
   4  -5   6   11.93    0.46
   4  -5   6   12.92    0.39
  -5   5  -6    1.68    0.12
   5  -5   6    1.50    0.10
   5  -5   6    1.57    0.15
  -6   5  -6    0.56    0.09
   6  -5   6    0.79    0.12
   6  -5   6    0.69    0.08
  -7   5  -6    3.07    0.19
   7  -5   6    2.91    0.22
   7  -5   6    2.69    0.16
  -8   5  -6    2.57    0.19
   8  -5   6    2.94    0.23
   8  -5   6    2.41    0.16
  -9   5  -6    0.60    0.12
   9  -5   6    0.84    0.12
   9   4  -6    2.47    0.21
  -9  -4   6    2.76    0.22
   8   4  -6    9.89    0.44
  -8  -4   6   10.20    0.36
  -8  -4   6    9.90    0.44
   7   4  -6    2.36    0.18
  -7  -4   6    2.30    0.18
  -7  -4   6    2.70    0.15
   6   4  -6    0.20    0.07
  -6  -4   6    0.18    0.07
  -6  -4   6    0.07    0.04
   5   4  -6    0.20    0.06
   5   4  -6    0.18    0.07
   5   4  -6    0.18    0.07
  -5  -4   6    0.15    0.05
  -5  -4   6    0.13    0.06
   4   4  -6    7.25    0.32
   4   4  -6    6.96    0.28
   4   4  -6    7.23    0.28
   4   4  -6    6.68    0.32
  -4  -4   6    7.14    0.25
  -4  -4   6    6.92    0.31
  -4  -4   6    7.38    0.29
  -4  -4   6    6.98    0.28
   3   4  -6   45.04    1.36
   3   4  -6   42.79    1.36
   3   4  -6   44.37    1.48
   3   4  -6   46.76    1.48
  -3  -4   6   44.23    1.24
  -3  -4   6   40.90    1.37
  -3  -4   6   43.56    1.31
   2   4  -6   25.76    0.78
   2   4  -6   25.93    0.87
   2   4  -6   25.90    0.87
   2   4  -6   23.84    0.77
  -2  -4   6   25.84    0.71
  -2  -4   6   24.75    0.76
  -2  -4   6   24.28    0.80
   1   4  -6    2.92    0.14
   1   4  -6    2.86    0.14
  -1  -4   6    2.75    0.12
  -1  -4   6    2.69    0.11
  -1  -4   6    2.72    0.12
   0   4  -6   10.71    0.38
   0   4  -6   10.84    0.38
   0  -4   6   11.08    0.33
   0  -4   6   10.42    0.36
  -1   4  -6    7.92    0.28
  -1   4  -6    7.27    0.27
   1  -4   6    7.80    0.28
  -2   4  -6   23.36    0.75
   2  -4   6   22.21    0.73
  -3   4  -6   10.01    0.35
   3  -4   6    9.75    0.38
   3  -4   6   10.34    0.30
  -4   4  -6   10.01    0.36
   4  -4   6    9.80    0.32
  -5   4  -6   17.61    0.63
   5  -4   6   17.88    0.64
   5  -4   6   17.99    0.56
  -6   4  -6    8.68    0.35
   6  -4   6    8.34    0.37
   6  -4   6    8.21    0.31
  -7   4  -6    2.59    0.17
   7  -4   6    2.58    0.15
   7  -4   6    2.41    0.19
  -8   4  -6    1.35    0.15
   8  -4   6    1.47    0.13
   8  -4   6    1.78    0.19
  -9   4  -6   -0.06    0.07
   9  -4   6    0.02    0.07
  10   3  -6    2.16    0.22
 -10  -3   6    2.06    0.21
   9   3  -6    4.27    0.26
  -9  -3   6    4.93    0.29
   8   3  -6    4.14    0.19
   8   3  -6    4.31    0.25
  -8  -3   6    4.25    0.19
  -8  -3   6    4.17    0.25
   7   3  -6    3.96    0.22
   7   3  -6    3.47    0.16
  -7  -3   6    3.75    0.23
  -7  -3   6    3.35    0.16
   6   3  -6   34.52    1.12
   6   3  -6   33.81    1.21
   6   3  -6   33.80    0.98
  -6  -3   6   33.43    1.00
  -6  -3   6   34.49    1.13
   5   3  -6   16.62    0.58
   5   3  -6   15.88    0.49
   5   3  -6   17.59    0.58
   5   3  -6   17.68    0.55
   5   3  -6   16.07    0.64
   5   3  -6   17.13    0.65
  -5  -3   6   16.58    0.59
  -5  -3   6   16.98    0.63
  -5  -3   6   17.49    0.57
  -5  -3   6   16.38    0.52
   4   3  -6    1.30    0.09
   4   3  -6    0.99    0.08
   4   3  -6    1.19    0.11
   4   3  -6    1.41    0.12
  -4  -3   6    1.26    0.08
  -4  -3   6    1.23    0.09
  -4  -3   6    1.18    0.10
  -4  -3   6    1.35    0.11
   3   3  -6   11.02    0.38
   3   3  -6   11.07    0.38
   3   3  -6   11.17    0.43
   3   3  -6   10.94    0.43
  -3  -3   6   11.80    0.34
  -3  -3   6   11.21    0.37
  -3  -3   6   10.97    0.39
   2   3  -6    0.03    0.02
   2   3  -6    0.01    0.04
   2   3  -6    0.05    0.04
   2   3  -6    0.02    0.02
  -2  -3   6    0.05    0.02
  -2  -3   6    0.03    0.02
  -2  -3   6    0.00    0.03
  -2  -3   6    0.02    0.03
  -2  -3   6    0.02    0.01
   1   3  -6   32.79    1.08
   1   3  -6   31.36    1.05
   1   3  -6   32.00    1.08
  -1  -3   6   33.09    0.95
  -1  -3   6   34.35    0.97
   0   3  -6   26.56    0.86
   0   3  -6   26.26    0.87
   0   3  -6   27.05    0.86
   0  -3   6   25.99    0.75
  -1   3  -6    1.01    0.05
  -1   3  -6    1.14    0.09
  -1   3  -6    1.09    0.05
  -2   3  -6   14.04    0.51
  -2   3  -6   13.90    0.46
  -3   3  -6    4.80    0.19
  -3   3  -6    4.90    0.24
   3  -3   6    4.95    0.16
  -4   3  -6   22.69    0.79
   4  -3   6   24.10    0.70
  -5   3  -6    7.31    0.30
   5  -3   6    7.32    0.33
   5  -3   6    7.36    0.26
  -6   3  -6   16.85    0.61
   6  -3   6   16.13    0.54
   6  -3   6   16.69    0.62
  -7   3  -6   -0.06    0.05
   7  -3   6    0.14    0.09
   7  -3   6    0.06    0.06
  -8   3  -6    0.83    0.12
   8  -3   6    0.74    0.14
   8  -3   6    0.70    0.11
  -9   3  -6    3.43    0.24
   9  -3   6    3.20    0.20
  10   2  -6    2.65    0.22
 -10  -2   6    2.68    0.22
   9   2  -6    2.75    0.16
   9   2  -6    2.57    0.20
  -9  -2   6    2.72    0.21
   8   2  -6    2.75    0.15
   8   2  -6    2.49    0.19
  -8  -2   6    2.60    0.14
  -8  -2   6    2.65    0.20
   7   2  -6   11.89    0.48
   7   2  -6   12.90    0.40
  -7  -2   6   12.12    0.41
  -7  -2   6   12.97    0.49
   6   2  -6    7.23    0.34
   6   2  -6    7.45    0.30
   6   2  -6    6.79    0.24
  -6  -2   6    7.03    0.26
  -6  -2   6    7.03    0.31
   5   2  -6    3.64    0.13
   5   2  -6    3.74    0.18
   5   2  -6    3.79    0.21
   5   2  -6    3.61    0.17
   5   2  -6    3.34    0.21
   5   2  -6    3.73    0.18
  -5  -2   6    3.61    0.19
  -5  -2   6    3.64    0.15
  -5  -2   6    3.53    0.20
  -5  -2   6    3.31    0.17
   4   2  -6    0.56    0.07
   4   2  -6    0.70    0.07
   4   2  -6    0.49    0.08
  -4  -2   6    0.55    0.07
  -4  -2   6    0.54    0.08
  -4  -2   6    0.65    0.06
  -4  -2   6    0.53    0.07
   3   2  -6   15.76    0.50
   3   2  -6   14.98    0.55
   3   2  -6   15.29    0.50
  -3  -2   6   15.42    0.55
  -3  -2   6   15.41    0.49
  -3  -2   6   15.31    0.51
  -3  -2   6   15.20    0.45
   2   2  -6  106.48    3.45
   2   2  -6  109.02    3.23
  -2  -2   6  104.37    3.25
  -2  -2   6  110.88    3.06
   1   2  -6   27.05    0.88
  -1  -2   6   26.65    0.78
   0   2  -6    0.29    0.03
   0   2  -6    0.30    0.05
  -1   2  -6   13.11    0.47
  -2   2  -6    2.55    0.10
  -2   2  -6    2.44    0.10
  -2   2  -6    2.59    0.16
  -3   2  -6   22.07    0.81
  -3   2  -6   22.66    0.76
   3  -2   6   23.45    0.67
  -4   2  -6   11.35    0.41
  -4   2  -6   10.90    0.46
   4  -2   6   10.87    0.35
  -5   2  -6    0.02    0.07
  -5   2  -6    0.03    0.05
   5  -2   6    0.00    0.04
  -6   2  -6    0.30    0.07
   6  -2   6    0.19    0.06
  -7   2  -6    3.00    0.20
   7  -2   6    2.97    0.22
   7  -2   6    2.97    0.17
  -8   2  -6    3.06    0.22
   8  -2   6    3.46    0.25
   8  -2   6    3.04    0.19
  -9   2  -6    2.61    0.22
   9  -2   6    2.42    0.19
  10   1  -6    0.47    0.09
  10   1  -6    0.21    0.10
 -10  -1   6    0.47    0.12
   9   1  -6    6.14    0.25
   9   1  -6    5.91    0.31
  -9  -1   6    5.61    0.31
   8   1  -6   14.79    0.58
   8   1  -6   15.23    0.50
  -8  -1   6   15.92    0.59
  -8  -1   6   16.11    0.50
   7   1  -6   28.05    0.83
   7   1  -6   28.43    0.95
  -7  -1   6   28.66    0.96
  -7  -1   6   28.04    0.84
   6   1  -6    4.68    0.17
   6   1  -6    4.40    0.22
   6   1  -6    4.26    0.20
  -6  -1   6    4.93    0.26
  -6  -1   6    4.69    0.18
  -6  -1   6    4.78    0.23
  -6  -1   6    4.91    0.22
   5   1  -6    8.70    0.34
   5   1  -6    9.16    0.29
   5   1  -6    9.30    0.39
   5   1  -6    9.16    0.35
   5   1  -6    9.67    0.33
  -5  -1   6    9.31    0.39
  -5  -1   6    9.89    0.36
  -5  -1   6    9.44    0.30
  -5  -1   6    9.14    0.34
   4   1  -6   15.70    0.56
   4   1  -6   13.48    0.42
   4   1  -6   15.00    0.50
   4   1  -6   15.66    0.48
  -4  -1   6   14.99    0.45
  -4  -1   6   13.89    0.51
  -4  -1   6   14.78    0.44
  -4  -1   6   15.06    0.48
  -4  -1   6   15.49    0.55
   3   1  -6   81.39    2.46
   3   1  -6   80.41    2.46
   3   1  -6   82.78    2.63
  -3  -1   6   78.99    2.24
  -3  -1   6   80.99    2.62
  -3  -1   6   80.12    2.32
  -3  -1   6   82.62    2.47
   2   1  -6    5.12    0.17
   2   1  -6    5.19    0.17
   2   1  -6    5.09    0.21
  -2  -1   6    4.91    0.19
  -2  -1   6    5.26    0.18
   1   1  -6    0.07    0.03
   0   1  -6    8.13    0.28
  -1   1  -6   42.09    1.33
  -1   1  -6   40.90    1.38
  -2   1  -6  121.71    3.93
  -2   1  -6  124.92    3.88
  -2   1  -6  119.34    3.87
  -3   1  -6    7.48    0.28
  -3   1  -6    7.08    0.27
  -3   1  -6    7.16    0.33
   3  -1   6    7.34    0.25
  -4   1  -6    2.45    0.14
  -4   1  -6    2.56    0.18
   4  -1   6    2.34    0.12
  -5   1  -6    3.90    0.25
  -5   1  -6    3.77    0.20
   5  -1   6    3.85    0.18
  -6   1  -6    1.24    0.13
  -6   1  -6    1.24    0.17
   6  -1   6    1.29    0.12
   6  -1   6    1.28    0.07
  -7   1  -6    0.99    0.13
   7  -1   6    0.86    0.11
  -8   1  -6    5.86    0.31
   8  -1   6    5.38    0.31
   8  -1   6    5.13    0.27
  11   0  -6    0.54    0.10
 -11   0   6    0.42    0.12
  10   0  -6    1.95    0.19
  10   0  -6    1.58    0.14
 -10   0   6    1.37    0.17
   9   0  -6   13.00    0.44
   9   0  -6   12.67    0.52
  -9   0   6   12.87    0.52
   8   0  -6    6.33    0.25
   8   0  -6    6.72    0.31
  -8   0   6    6.42    0.24
  -8   0   6    6.54    0.32
   7   0  -6    6.71    0.30
   7   0  -6    6.86    0.24
  -7   0   6    6.33    0.30
  -7   0   6    6.66    0.24
   6   0  -6   36.80    1.05
   6   0  -6   36.30    1.18
  -6   0   6   34.74    1.26
  -6   0   6   36.97    1.12
  -6   0   6   38.43    1.19
  -6   0   6   36.46    1.06
   5   0  -6   17.29    0.59
   5   0  -6   16.17    0.64
   5   0  -6   17.45    0.56
   5   0  -6   17.17    0.51
   5   0  -6   18.50    0.59
  -5   0   6   17.10    0.56
  -5   0   6   17.47    0.54
  -5   0   6   17.38    0.64
  -5   0   6   17.94    0.60
  -5   0   6   17.48    0.53
   4   0  -6   27.83    0.81
   4   0  -6   28.34    0.86
   4   0  -6   28.57    0.92
   4   0  -6   29.16    1.00
  -4   0   6   28.61    0.83
  -4   0   6   29.16    0.87
  -4   0   6   29.38    0.93
  -4   0   6   30.08    0.99
   3   0  -6   46.69    1.41
   3   0  -6   46.59    1.41
   3   0  -6   46.14    1.33
   3   0  -6   46.52    1.52
  -3   0   6   44.43    1.34
  -3   0   6   46.35    1.42
  -3   0   6   44.73    1.51
  -3   0   6   46.07    1.28
   2   0  -6   65.24    1.91
   2   0  -6   61.27    1.91
   2   0  -6   65.92    2.06
  -2   0   6   60.37    1.93
  -2   0   6   60.57    2.04
  -2   0   6   65.42    1.74
  -2   0   6   64.70    1.82
  -2   0   6   63.39    1.74
   1   0  -6   29.81    0.98
   0   0  -6   11.00    0.38
  -1   0  -6    1.83    0.10
  -2   0  -6   14.35    0.54
  -2   0  -6   14.07    0.50
  -2   0  -6   14.73    0.50
  -3   0  -6    9.18    0.34
  -3   0  -6    9.05    0.39
  -3   0  -6    8.92    0.34
   3   0   6    8.83    0.31
  -4   0  -6   18.26    0.65
  -4   0  -6   18.44    0.69
  -4   0  -6   17.23    0.63
   4   0   6   17.69    0.57
  -5   0  -6   11.03    0.45
  -5   0  -6   11.80    0.51
   5   0   6   12.05    0.34
   5   0   6   11.46    0.41
  -6   0  -6    0.46    0.11
  -6   0  -6    0.31    0.08
   6   0   6    0.53    0.09
  -7   0  -6    2.58    0.24
  -7   0  -6    3.20    0.21
   7   0   6    2.91    0.18
  -8   0  -6    0.10    0.09
   8   0   6    0.20    0.08
  11  -1  -6    3.74    0.21
 -11   1   6    4.28    0.26
  10  -1  -6    3.65    0.24
  10  -1  -6    3.77    0.19
 -10   1   6    3.69    0.24
   9  -1  -6    0.46    0.10
   9  -1  -6    0.34    0.07
  -9   1   6    0.40    0.11
   8  -1  -6    2.56    0.18
   8  -1  -6    2.51    0.14
  -8   1   6    2.67    0.19
  -8   1   6    2.42    0.13
   7  -1  -6    0.99    0.08
   7  -1  -6    1.02    0.12
  -7   1   6    0.88    0.08
  -7   1   6    1.08    0.12
   6  -1  -6    3.94    0.24
   6  -1  -6    4.50    0.21
   6  -1  -6    4.40    0.17
  -6   1   6    4.50    0.24
  -6   1   6    4.49    0.18
  -6   1   6    4.51    0.21
  -6   1   6    4.23    0.22
  -6   1   6    4.89    0.19
   5  -1  -6    6.87    0.35
   5  -1  -6    9.19    0.33
   5  -1  -6    9.16    0.31
   5  -1  -6    8.50    0.27
   5  -1  -6    8.52    0.33
  -5   1   6    8.67    0.29
  -5   1   6    8.99    0.37
  -5   1   6    8.98    0.30
  -5   1   6    8.82    0.34
  -5   1   6    8.64    0.31
   4  -1  -6   12.42    0.39
   4  -1  -6   12.13    0.35
   4  -1  -6   11.50    0.41
   4  -1  -6   12.36    0.46
   4  -1  -6   10.02    0.40
  -4   1   6   11.84    0.39
  -4   1   6   11.77    0.42
  -4   1   6   12.33    0.45
  -4   1   6   12.57    0.37
   3  -1  -6    9.15    0.36
   3  -1  -6    8.58    0.32
   3  -1  -6    9.05    0.31
  -3   1   6    9.53    0.31
  -3   1   6    8.98    0.35
  -3   1   6    9.34    0.28
  -3   1   6    9.17    0.33
   2  -1  -6  122.55    3.85
   2  -1  -6  116.96    3.62
   2  -1  -6  115.09    3.62
  -2   1   6  125.49    3.64
  -2   1   6  117.19    3.31
  -2   1   6  122.36    3.42
  -2   1   6  122.71    3.85
   1  -1  -6   40.24    1.34
  -1   1   6   41.74    1.26
   0  -1  -6    4.62    0.19
  -1  -1  -6    1.40    0.10
  -2  -1  -6   11.76    0.42
  -2  -1  -6   10.56    0.41
  -3  -1  -6   34.35    1.15
  -3  -1  -6   34.01    1.15
  -3  -1  -6   34.15    1.19
   3   1   6   34.03    1.03
  -4  -1  -6   13.03    0.49
  -4  -1  -6   11.60    0.52
  -4  -1  -6   12.29    0.48
   4   1   6   12.75    0.36
   4   1   6   12.37    0.43
  -5  -1  -6    2.95    0.19
  -5  -1  -6    2.77    0.18
  -5  -1  -6    2.70    0.22
   5   1   6    2.65    0.16
   5   1   6    2.61    0.12
  -6  -1  -6    0.14    0.07
  -6  -1  -6    0.15    0.09
   6   1   6    0.15    0.07
  -7  -1  -6    2.23    0.24
  -7  -1  -6    2.84    0.22
   7   1   6    2.69    0.19
  -8  -1  -6    3.18    0.25
   8   1   6    3.05    0.21
  11  -2  -6    0.55    0.10
 -11   2   6    0.42    0.12
  10  -2  -6    0.04    0.06
  10  -2  -6    0.05    0.08
 -10   2   6   -0.10    0.07
   9  -2  -6    7.17    0.34
   9  -2  -6    7.19    0.28
  -9   2   6    7.37    0.35
   8  -2  -6   25.27    0.88
   8  -2  -6   24.52    0.77
  -8   2   6   25.84    0.89
  -8   2   6   26.16    0.76
   7  -2  -6    6.88    0.30
   7  -2  -6    6.99    0.25
  -7   2   6    7.15    0.25
  -7   2   6    6.56    0.30
   6  -2  -6    4.14    0.20
   6  -2  -6    4.05    0.23
   6  -2  -6    4.24    0.16
  -6   2   6    4.04    0.21
  -6   2   6    3.94    0.19
  -6   2   6    4.09    0.23
  -6   2   6    4.22    0.17
   5  -2  -6    3.01    0.12
   5  -2  -6    2.91    0.15
   5  -2  -6    2.19    0.13
  -5   2   6    2.99    0.13
  -5   2   6    2.91    0.16
  -5   2   6    3.08    0.15
  -5   2   6    2.92    0.14
  -5   2   6    2.64    0.17
   4  -2  -6   22.97    0.66
   4  -2  -6   23.32    0.74
   4  -2  -6   22.75    0.81
  -4   2   6   22.55    0.75
  -4   2   6   22.13    0.67
  -4   2   6   22.81    0.80
  -4   2   6   22.93    0.70
   3  -2  -6   89.48    2.80
   3  -2  -6   92.15    2.99
  -3   2   6   92.78    2.98
  -3   2   6   92.66    2.82
  -3   2   6   94.40    2.65
  -3   2   6   92.39    2.56
   2  -2  -6   43.93    1.41
   2  -2  -6   44.48    1.51
   2  -2  -6   46.26    1.40
  -2   2   6   49.69    1.28
  -2   2   6   44.87    1.50
  -2   2   6   45.14    1.42
   1  -2  -6    3.26    0.12
   1  -2  -6    2.84    0.15
   1  -2  -6    3.19    0.12
  -1   2   6    3.00    0.10
  -1   2   6    2.97    0.10
  -1   2   6    3.09    0.14
   0  -2  -6    0.18    0.05
   0   2   6    0.22    0.04
  -1  -2  -6   13.79    0.50
   1   2   6   13.17    0.45
  -2  -2  -6   28.54    1.03
   2   2   6   30.49    0.83
   2   2   6   29.99    0.84
   2   2   6   30.94    0.96
  -3  -2  -6   10.64    0.43
  -3  -2  -6   10.38    0.46
  -3  -2  -6   10.45    0.42
   3   2   6   11.00    0.40
   3   2   6   10.99    0.32
   3   2   6   10.67    0.38
  -4  -2  -6    0.28    0.07
  -4  -2  -6    0.16    0.07
  -4  -2  -6    0.42    0.10
   4   2   6    0.28    0.07
   4   2   6    0.38    0.05
  -5  -2  -6    6.36    0.31
  -5  -2  -6    6.38    0.31
  -5  -2  -6    6.05    0.34
   5   2   6    6.10    0.28
   5   2   6    6.06    0.23
  -6  -2  -6    3.20    0.22
  -6  -2  -6    3.43    0.26
   6   2   6    3.25    0.20
  -7  -2  -6    2.35    0.25
  -7  -2  -6    2.08    0.20
   7   2   6    1.87    0.18
  -8  -2  -6    1.02    0.19
  11  -3  -6    0.95    0.11
 -11   3   6    0.76    0.14
  10  -3  -6    3.54    0.19
  10  -3  -6    3.98    0.25
 -10   3   6    3.64    0.23
   9  -3  -6   10.31    0.38
   9  -3  -6   10.60    0.45
  -9   3   6   11.76    0.46
   8  -3  -6    6.28    0.24
   8  -3  -6    6.04    0.30
  -8   3   6    6.06    0.23
  -8   3   6    6.41    0.30
   7  -3  -6    2.68    0.13
   7  -3  -6    2.26    0.15
  -7   3   6    2.41    0.13
  -7   3   6    2.25    0.17
   6  -3  -6   10.64    0.38
   6  -3  -6   10.70    0.40
   6  -3  -6   10.11    0.33
   6  -3  -6   10.63    0.44
  -6   3   6   10.23    0.34
  -6   3   6   10.02    0.40
  -6   3   6   10.04    0.43
   5  -3  -6   11.34    0.35
   5  -3  -6   11.18    0.41
  -5   3   6   11.02    0.45
  -5   3   6   11.58    0.39
  -5   3   6   10.98    0.36
  -5   3   6   10.63    0.41
   4  -3  -6   30.98    0.89
   4  -3  -6   30.90    0.99
   4  -3  -6   30.36    1.07
   4  -3  -6   29.40    0.99
  -4   3   6   31.95    1.07
  -4   3   6   32.40    0.90
  -4   3   6   31.40    1.00
  -4   3   6   30.73    0.94
   3  -3  -6   16.20    0.59
   3  -3  -6   16.05    0.54
   3  -3  -6   15.56    0.46
  -3   3   6   16.36    0.59
  -3   3   6   16.01    0.51
  -3   3   6   16.54    0.48
  -3   3   6   16.16    0.55
   2  -3  -6    5.08    0.23
   2  -3  -6    4.95    0.20
   2  -3  -6    4.73    0.20
  -2   3   6    5.08    0.23
  -2   3   6    4.90    0.21
  -2   3   6    5.25    0.17
   1  -3  -6   15.42    0.49
   1  -3  -6   15.09    0.49
   1  -3  -6   13.05    0.54
  -1   3   6   15.53    0.51
  -1   3   6   15.79    0.55
  -1   3   6   15.96    0.45
   0  -3  -6    0.14    0.03
   0  -3  -6    0.09    0.03
   0  -3  -6    0.00    0.04
   0   3   6    0.05    0.04
   0   3   6    0.04    0.03
  -1  -3  -6    6.09    0.21
  -1  -3  -6    5.98    0.21
  -1  -3  -6    5.94    0.28
   1   3   6    6.13    0.20
   1   3   6    6.37    0.25
  -2  -3  -6    5.48    0.26
   2   3   6    5.62    0.24
   2   3   6    4.96    0.22
   2   3   6    5.29    0.18
  -3  -3  -6    1.58    0.14
  -3  -3  -6    1.41    0.14
   3   3   6    1.39    0.13
   3   3   6    1.31    0.08
  -4  -3  -6   10.53    0.45
  -4  -3  -6   10.27    0.44
  -4  -3  -6    9.96    0.47
   4   3   6   10.49    0.40
   4   3   6   10.08    0.34
  -5  -3  -6    6.80    0.37
  -5  -3  -6    6.47    0.32
  -5  -3  -6    5.84    0.32
   5   3   6    5.85    0.29
  -6  -3  -6    3.35    0.23
  -6  -3  -6    3.46    0.27
   6   3   6    3.01    0.21
  -7  -3  -6    0.40    0.14
   7   3   6    0.42    0.11
  11  -4  -6    2.50    0.17
 -11   4   6    2.62    0.20
  10  -4  -6    6.79    0.28
  10  -4  -6    6.54    0.34
 -10   4   6    7.03    0.34
   9  -4  -6    3.48    0.18
   9  -4  -6    3.69    0.23
  -9   4   6    4.14    0.24
   8  -4  -6    3.32    0.20
   8  -4  -6    3.28    0.16
  -8   4   6    3.46    0.15
  -8   4   6    3.47    0.21
   7  -4  -6   15.51    0.49
   7  -4  -6   15.40    0.56
  -7   4   6   14.93    0.48
  -7   4   6   15.54    0.57
   6  -4  -6    8.03    0.38
   6  -4  -6    8.24    0.34
   6  -4  -6    8.73    0.32
   6  -4  -6    8.51    0.29
  -6   4   6    8.16    0.38
  -6   4   6    8.68    0.29
  -6   4   6    8.36    0.35
   5  -4  -6    7.36    0.29
   5  -4  -6    7.11    0.25
  -5   4   6    7.43    0.28
  -5   4   6    7.37    0.30
  -5   4   6    7.11    0.33
  -5   4   6    7.60    0.26
   4  -4  -6    2.29    0.14
   4  -4  -6    2.29    0.13
   4  -4  -6    2.42    0.11
  -4   4   6    2.49    0.15
  -4   4   6    2.56    0.16
  -4   4   6    2.32    0.12
  -4   4   6    2.38    0.13
   3  -4  -6   13.86    0.43
   3  -4  -6   14.16    0.51
   3  -4  -6   14.70    0.56
   3  -4  -6   14.77    0.50
  -3   4   6   15.31    0.48
  -3   4   6   15.83    0.46
  -3   4   6   14.51    0.51
  -3   4   6   15.11    0.55
   2  -4  -6   52.80    1.73
   2  -4  -6   53.35    1.62
  -2   4   6   53.00    1.72
  -2   4   6   51.07    1.62
  -2   4   6   49.75    1.47
   1  -4  -6   44.98    1.45
   1  -4  -6   46.14    1.45
   1  -4  -6   49.65    1.57
  -1   4   6   47.21    1.32
  -1   4   6   45.40    1.46
  -1   4   6   46.63    1.55
   0  -4  -6    8.97    0.32
   0  -4  -6    9.04    0.38
   0  -4  -6    9.94    0.33
   0   4   6    9.03    0.30
   0   4   6    9.33    0.35
  -1  -4  -6    0.23    0.04
  -1  -4  -6    0.21    0.04
  -1  -4  -6    0.21    0.06
   1   4   6    0.18    0.06
   1   4   6    0.17    0.04
  -2  -4  -6    4.11    0.16
  -2  -4  -6    3.83    0.16
  -2  -4  -6    3.67    0.22
   2   4   6    4.07    0.16
   2   4   6    4.05    0.20
   2   4   6    4.06    0.21
  -3  -4  -6    7.19    0.25
  -3  -4  -6    7.21    0.35
  -3  -4  -6    7.01    0.25
   3   4   6    7.33    0.26
   3   4   6    7.71    0.31
  -4  -4  -6    4.23    0.25
  -4  -4  -6    3.84    0.24
  -4  -4  -6    3.90    0.27
   4   4   6    4.10    0.22
  -5  -4  -6    1.46    0.17
  -5  -4  -6    1.45    0.19
   5   4   6    1.62    0.16
  -6  -4  -6   -0.05    0.09
   6   4   6    0.12    0.09
  -7  -4  -6    0.47    0.15
  11  -5  -6    1.47    0.14
 -11   5   6    1.75    0.18
  10  -5  -6    0.34    0.11
  10  -5  -6    0.39    0.08
 -10   5   6    0.33    0.10
   9  -5  -6    5.00    0.22
   9  -5  -6    5.11    0.27
  -9   5   6    4.50    0.26
   8  -5  -6   16.37    0.60
   8  -5  -6   15.88    0.51
  -8   5   6   15.79    0.60
   7  -5  -6    4.06    0.17
   7  -5  -6    3.91    0.22
  -7   5   6    4.17    0.17
  -7   5   6    3.81    0.22
   6  -5  -6    0.63    0.07
   6  -5  -6    0.76    0.10
  -6   5   6    0.64    0.10
  -6   5   6    0.55    0.07
  -6   5   6    0.88    0.12
   5  -5  -6    0.84    0.07
   5  -5  -6    0.69    0.10
   5  -5  -6    0.60    0.08
  -5   5   6    0.72    0.07
  -5   5   6    0.76    0.11
  -5   5   6    0.79    0.10
  -5   5   6    0.92    0.09
   4  -5  -6    4.70    0.17
   4  -5  -6    4.62    0.21
  -4   5   6    4.38    0.20
  -4   5   6    4.24    0.23
  -4   5   6    4.80    0.22
  -4   5   6    4.26    0.18
   3  -5  -6   40.70    1.37
   3  -5  -6   41.24    1.27
   3  -5  -6   38.85    1.12
   3  -5  -6   39.97    1.27
  -3   5   6   37.53    1.27
  -3   5   6   41.46    1.36
  -3   5   6   39.09    1.14
   2  -5  -6   10.48    0.31
   2  -5  -6   10.48    0.43
   2  -5  -6   10.26    0.38
  -2   5   6   10.20    0.42
  -2   5   6   10.86    0.39
  -2   5   6    9.81    0.34
   1  -5  -6    0.41    0.06
   1  -5  -6    0.42    0.08
   1  -5  -6    0.30    0.06
  -1   5   6    0.25    0.07
  -1   5   6    0.41    0.06
  -1   5   6    0.36    0.07
   0  -5  -6    0.02    0.05
   0  -5  -6   -0.02    0.04
   0  -5  -6    0.09    0.04
   0   5   6    0.03    0.05
   0   5   6    0.07    0.04
  -1  -5  -6    1.77    0.11
  -1  -5  -6    1.73    0.11
  -1  -5  -6    1.95    0.16
   1   5   6    1.65    0.10
   1   5   6    1.69    0.14
   1   5   6    1.69    0.14
  -2  -5  -6   27.87    0.90
  -2  -5  -6   27.72    1.02
  -2  -5  -6   28.17    0.90
   2   5   6   28.49    0.90
   2   5   6   28.34    0.84
  -3  -5  -6    7.54    0.37
  -3  -5  -6    7.31    0.28
  -3  -5  -6    7.79    0.28
   3   5   6    7.58    0.28
   3   5   6    7.50    0.33
  -4  -5  -6    0.14    0.11
  -4  -5  -6    0.08    0.04
  -4  -5  -6    0.06    0.04
   4   5   6    0.09    0.07
  -5  -5  -6    0.91    0.17
   5   5   6    1.02    0.14
  -6  -5  -6    2.01    0.24
  11  -6  -6    0.12    0.07
 -11   6   6    0.00    0.09
  10  -6  -6    1.75    0.13
 -10   6   6    1.91    0.17
   9  -6  -6   11.23    0.47
   9  -6  -6   10.90    0.39
  -9   6   6   11.44    0.47
   8  -6  -6    5.87    0.29
   8  -6  -6    5.27    0.23
  -8   6   6    5.56    0.29
   7  -6  -6    1.81    0.12
   7  -6  -6    1.79    0.14
  -7   6   6    1.27    0.14
  -7   6   6    1.85    0.11
   6  -6  -6   16.06    0.50
   6  -6  -6   15.43    0.57
  -6   6   6   16.05    0.58
  -6   6   6   15.45    0.49
   5  -6  -6   25.29    0.74
   5  -6  -6   24.08    0.83
  -5   6   6   23.29    0.84
  -5   6   6   26.18    0.74
  -5   6   6   24.58    0.91
   4  -6  -6   25.66    0.85
   4  -6  -6   24.82    0.75
  -4   6   6   26.91    0.81
  -4   6   6   26.44    0.93
  -4   6   6   25.04    0.76
  -4   6   6   24.25    0.86
   3  -6  -6    8.75    0.36
   3  -6  -6    9.29    0.29
  -3   6   6    9.42    0.40
  -3   6   6    9.42    0.37
  -3   6   6    9.20    0.31
   2  -6  -6    0.02    0.05
   2  -6  -6    0.09    0.06
   2  -6  -6    0.06    0.05
   2  -6  -6    0.16    0.03
  -2   6   6    0.07    0.04
  -2   6   6    0.04    0.06
  -2   6   6    0.12    0.06
   1  -6  -6    7.55    0.30
   1  -6  -6    7.72    0.35
  -1   6   6    7.30    0.31
  -1   6   6    6.89    0.33
  -1   6   6    6.95    0.26
   0  -6  -6    9.17    0.36
   0  -6  -6    8.47    0.41
   0   6   6   10.02    0.38
   0   6   6    9.14    0.32
  -1  -6  -6    1.82    0.17
  -1  -6  -6    1.57    0.12
   1   6   6    1.52    0.15
   1   6   6    1.64    0.11
   1   6   6    1.50    0.14
  -2  -6  -6    0.61    0.08
   2   6   6    0.94    0.12
   2   6   6    0.57    0.08
  -3  -6  -6    0.35    0.07
   3   6   6    0.31    0.09
  -5  -6  -6    2.75    0.14
  -5  -6  -6    2.83    0.28
  -6  -6  -6    2.81    0.30
  11  -7  -6    2.56    0.17
 -11   7   6    2.04    0.20
  10  -7  -6    4.59    0.23
 -10   7   6    4.59    0.26
   9  -7  -6    1.41    0.16
   9  -7  -6    1.60    0.12
  -9   7   6    1.32    0.16
   8  -7  -6    1.48    0.12
   8  -7  -6    1.69    0.16
  -8   7   6    1.23    0.15
   7  -7  -6    8.56    0.37
   7  -7  -6    8.20    0.31
  -7   7   6    8.51    0.38
  -7   7   6    8.81    0.29
   6  -7  -6    3.98    0.18
   6  -7  -6    3.95    0.22
  -6   7   6    4.07    0.23
  -6   7   6    4.04    0.17
   5  -7  -6   10.50    0.37
   5  -7  -6   10.83    0.43
  -5   7   6   11.26    0.44
  -5   7   6   10.91    0.36
   4  -7  -6    8.52    0.29
   4  -7  -6    8.38    0.35
  -4   7   6    8.85    0.30
  -4   7   6    8.59    0.36
   3  -7  -6    0.26    0.05
   3  -7  -6    0.41    0.08
  -3   7   6    0.31    0.06
  -3   7   6    0.38    0.09
   2  -7  -6   22.04    0.73
   2  -7  -6   20.70    0.62
   2  -7  -6   21.15    0.80
  -2   7   6   21.55    0.65
  -2   7   6   20.73    0.74
   1  -7  -6    2.97    0.21
   1  -7  -6    2.86    0.17
  -1   7   6    3.09    0.19
  -1   7   6    3.12    0.15
   0  -7  -6    1.84    0.14
   0   7   6    2.12    0.17
   0   7   6    2.00    0.13
   0   7   6    1.88    0.17
  -1  -7  -6    0.38    0.08
   1   7   6    0.28    0.09
   1   7   6    0.30    0.09
   1   7   6    0.36    0.07
  -2  -7  -6    7.42    0.31
   2   7   6    7.05    0.33
  -3  -7  -6    1.63    0.13
  -4  -7  -6    2.44    0.15
  -5  -7  -6    0.29    0.14
  -5  -7  -6    0.13    0.06
  10  -8  -6    0.35    0.09
 -10   8   6    0.51    0.11
   9  -8  -6    2.72    0.17
  -9   8   6    2.83    0.21
   8  -8  -6    5.39    0.23
   8  -8  -6    4.80    0.27
  -8   8   6    5.14    0.28
   7  -8  -6    8.10    0.31
   7  -8  -6    8.02    0.36
  -7   8   6    8.39    0.37
   6  -8  -6    1.95    0.16
   6  -8  -6    2.10    0.14
  -6   8   6    2.10    0.17
  -6   8   6    2.08    0.12
   5  -8  -6    0.46    0.07
   5  -8  -6    0.23    0.08
  -5   8   6    0.34    0.06
  -5   8   6    0.55    0.11
   4  -8  -6    5.04    0.20
   4  -8  -6    4.61    0.25
  -4   8   6    4.86    0.21
  -4   8   6    5.13    0.26
   3  -8  -6    5.13    0.19
   3  -8  -6    4.91    0.25
  -3   8   6    5.01    0.21
  -3   8   6    4.59    0.26
   2  -8  -6    9.76    0.40
   2  -8  -6    9.78    0.32
  -2   8   6   10.36    0.35
  -2   8   6   10.12    0.42
   1  -8  -6   -0.06    0.05
  -1   8   6   -0.08    0.06
  -1   8   6   -0.03    0.05
   0  -8  -6   -0.09    0.05
   0   8   6    0.02    0.07
  -1  -8  -6    4.16    0.23
  -2  -8  -6   20.14    0.71
  -3  -8  -6    0.11    0.07
  -4  -8  -6    0.62    0.10
  10  -9  -6    0.15    0.08
 -10   9   6    0.29    0.11
   9  -9  -6    5.56    0.25
  -9   9   6    5.50    0.30
   8  -9  -6    3.91    0.25
   8  -9  -6    4.82    0.22
  -8   9   6    3.93    0.25
   7  -9  -6   -0.01    0.07
   7  -9  -6   -0.04    0.06
  -7   9   6    0.01    0.08
   6  -9  -6    3.64    0.18
   6  -9  -6    3.19    0.21
  -6   9   6    3.45    0.22
   5  -9  -6    7.41    0.34
   5  -9  -6    7.14    0.27
  -5   9   6    7.15    0.27
  -5   9   6    7.07    0.34
   4  -9  -6   10.84    0.36
   4  -9  -6   10.78    0.44
  -4   9   6   10.17    0.44
  -4   9   6   10.27    0.37
   3  -9  -6    5.09    0.19
   3  -9  -6    4.28    0.24
  -3   9   6    4.27    0.20
  -3   9   6    4.92    0.27
   2  -9  -6    0.36    0.09
  -2   9   6    0.34    0.10
   1  -9  -6    1.43    0.14
  -1   9   6    1.46    0.16
   0  -9  -6    2.94    0.19
   0   9   6    2.79    0.21
  -1  -9  -6    5.59    0.28
  -2  -9  -6    4.71    0.26
  -3  -9  -6    0.48    0.10
  -4  -9  -6    1.39    0.15
   9 -10  -6    0.42    0.09
  -9  10   6    0.26    0.10
   8 -10  -6    0.52    0.10
   8 -10  -6    0.52    0.12
  -8  10   6    0.39    0.11
   7 -10  -6    0.54    0.09
   7 -10  -6    0.44    0.11
  -7  10   6    0.69    0.12
   6 -10  -6    0.76    0.13
   6 -10  -6    0.81    0.10
  -6  10   6    0.89    0.13
   5 -10  -6    7.71    0.36
   5 -10  -6    7.52    0.29
  -5  10   6    7.47    0.37
   4 -10  -6    0.56    0.11
   4 -10  -6    0.63    0.08
  -4  10   6    0.82    0.14
   3 -10  -6    1.68    0.16
  -3  10   6    1.80    0.18
   2 -10  -6    2.66    0.19
  -2  10   6    2.53    0.21
   1 -10  -6    0.52    0.10
  -1  10   6    0.55    0.13
   0 -10  -6    1.34    0.15
   0  10   6    1.11    0.16
  -1 -10  -6    0.09    0.08
  -2 -10  -6    0.19    0.09
  -3 -10  -6    0.65    0.12
   8 -11  -6    4.71    0.24
  -8  11   6    4.48    0.28
   7 -11  -6    2.02    0.20
   7 -11  -6    2.25    0.16
  -7  11   6    2.35    0.20
   6 -11  -6    0.10    0.06
   6 -11  -6    0.28    0.10
  -6  11   6    0.04    0.09
   5 -11  -6    0.62    0.12
   5 -11  -6    0.49    0.08
  -5  11   6    0.36    0.11
   4 -11  -6    0.67    0.12
  -4  11   6    0.95    0.16
   3 -11  -6    4.81    0.27
  -3  11   6    4.96    0.30
   2 -11  -6    1.81    0.17
  -2  11   6    1.74    0.20
   1 -11  -6    0.14    0.08
  -1  11   6    0.09    0.10
   0 -11  -6   -0.06    0.06
   0  11   6   -0.03    0.10
  -1 -11  -6    0.80    0.13
   7 -12  -6    0.17    0.08
  -7  12   6    0.03    0.09
   6 -12  -6    0.35    0.12
   6 -12  -6    0.30    0.08
  -6  12   6    0.36    0.12
   5 -12  -6    2.51    0.20
  -5  12   6    2.61    0.23
   4 -12  -6    5.01    0.29
  -4  12   6    4.85    0.31
   3 -12  -6    1.02    0.14
  -3  12   6    0.87    0.16
   2 -12  -6   -0.06    0.07
  -2  12   6   -0.07    0.10
   1 -12  -6    0.35    0.11
  -1  12   6    0.32    0.13
   0 -12  -6    0.54    0.12
   5 -13  -6    1.38    0.17
  -5  13   6    1.59    0.20
   4 -13  -6    1.05    0.15
  -4  13   6    1.04    0.17
   3 -13  -6    0.15    0.09
  -3  13   6    0.20    0.13
  -1 -13   7    1.65    0.14
   0 -13   7    6.75    0.28
   1 -13   7    3.40    0.19
   2 -13   7    0.18    0.08
  -3  13  -7    0.29    0.11
   3 -13   7    0.27    0.07
  -4  13  -7    1.50    0.19
   4 -13   7    1.43    0.12
   3  12  -7    0.56    0.09
  -3 -12   7    0.72    0.10
   2  12  -7    1.72    0.09
  -2 -12   7    1.85    0.13
  -1 -12   7    2.66    0.16
   0 -12   7    0.42    0.08
  -1  12  -7    0.62    0.13
   1 -12   7    0.58    0.09
  -2  12  -7    1.22    0.16
   2 -12   7    1.53    0.12
  -3  12  -7    0.79    0.13
   3 -12   7    0.75    0.09
  -4  12  -7    3.07    0.23
   4 -12   7    3.07    0.15
  -5  12  -7    1.37    0.17
   5 -12   7    1.27    0.11
   4  11  -7    0.73    0.11
  -4 -11   7    0.75    0.10
   3  11  -7    1.87    0.13
  -3 -11   7    1.88    0.14
   2  11  -7    3.96    0.16
  -2 -11   7    3.65    0.19
   1  11  -7    1.86    0.20
  -1 -11   7    1.69    0.12
   0  11  -7    1.16    0.16
   0 -11   7    1.23    0.11
  -1  11  -7   10.44    0.47
  -1  11  -7   10.47    0.46
   1 -11   7    9.42    0.35
  -2  11  -7    5.44    0.30
  -2  11  -7    5.63    0.32
   2 -11   7    5.94    0.22
  -3  11  -7    1.78    0.17
  -3  11  -7    1.99    0.17
   3 -11   7    2.14    0.11
  -4  11  -7    0.05    0.07
   4 -11   7    0.02    0.04
  -5  11  -7    0.73    0.12
   5 -11   7    1.01    0.08
  -6  11  -7    3.46    0.23
   6 -11   7    3.97    0.17
   6  10  -7    2.65    0.21
  -6 -10   7    2.71    0.18
   5  10  -7    3.76    0.23
  -5 -10   7    3.73    0.20
   4  10  -7    0.31    0.08
  -4 -10   7    0.35    0.08
   3  10  -7    0.01    0.05
  -3 -10   7   -0.01    0.05
   2  10  -7    0.28    0.05
   2  10  -7    0.26    0.10
   2  10  -7    0.29    0.05
  -2 -10   7    0.30    0.06
   1  10  -7    2.92    0.22
  -1 -10   7    3.21    0.15
   0  10  -7   15.25    0.59
   0  10  -7   14.02    0.59
   0 -10   7   14.17    0.47
  -1  10  -7    7.28    0.35
  -1  10  -7    7.34    0.36
   1 -10   7    7.41    0.26
  -2  10  -7    2.37    0.17
  -2  10  -7    2.00    0.17
   2 -10   7    2.10    0.10
  -3  10  -7    0.22    0.07
  -3  10  -7    0.22    0.08
   3 -10   7    0.16    0.04
  -4  10  -7    2.64    0.18
  -5  10  -7    7.29    0.34
  -6  10  -7    1.95    0.16
  -7  10  -7    0.03    0.07
   6   9  -7    4.21    0.25
  -6  -9   7    4.14    0.22
   5   9  -7    2.13    0.17
  -5  -9   7    2.17    0.15
   4   9  -7   -0.05    0.06
  -4  -9   7    0.05    0.06
   3   9  -7    8.81    0.35
   3   9  -7    9.89    0.46
  -3  -9   7    9.34    0.34
   2   9  -7    0.70    0.06
   2   9  -7    0.82    0.07
   2   9  -7    0.73    0.12
  -2  -9   7    0.73    0.08
   1   9  -7   12.84    0.56
   1   9  -7   13.61    0.55
  -1  -9   7   13.70    0.43
   0   9  -7    2.52    0.19
   0   9  -7    2.74    0.19
   0  -9   7    2.67    0.13
   0  -9   7    2.54    0.17
  -1   9  -7    1.97    0.16
  -1   9  -7    1.98    0.16
   1  -9   7    1.96    0.14
   1  -9   7    1.71    0.09
  -2   9  -7    0.06    0.05
  -2   9  -7    0.07    0.06
   2  -9   7    0.07    0.02
  -3   9  -7    5.69    0.28
  -4   9  -7    6.82    0.31
  -5   9  -7    1.78    0.14
  -6   9  -7    1.58    0.14
   6  -9   7    1.90    0.19
  -7   9  -7    0.17    0.08
   7  -9   7    0.27    0.07
   7   8  -7    5.66    0.31
  -7  -8   7    6.21    0.27
   6   8  -7    1.30    0.15
  -6  -8   7    1.10    0.12
   5   8  -7    0.77    0.12
  -5  -8   7    1.09    0.11
   4   8  -7    3.20    0.18
  -4  -8   7    2.76    0.15
   3   8  -7   19.34    0.75
   3   8  -7   19.09    0.64
  -3  -8   7   19.23    0.60
   2   8  -7    3.04    0.20
   2   8  -7    3.11    0.21
   2   8  -7    2.87    0.12
   2   8  -7    2.82    0.12
  -2  -8   7    3.10    0.14
   1   8  -7    5.27    0.27
   1   8  -7    5.19    0.27
  -1  -8   7    4.99    0.23
  -1  -8   7    4.99    0.19
   0   8  -7    1.40    0.14
   0   8  -7    1.41    0.13
   0  -8   7    1.41    0.11
   0  -8   7    1.47    0.07
  -1   8  -7   12.07    0.49
  -1   8  -7   12.71    0.48
   1  -8   7   12.48    0.43
  -2   8  -7    2.72    0.17
  -2   8  -7    3.14    0.17
  -3   8  -7    7.56    0.32
   3  -8   7    7.65    0.33
  -4   8  -7    1.31    0.11
   4  -8   7    1.37    0.15
  -5   8  -7    1.76    0.14
   5  -8   7    1.82    0.11
   5  -8   7    1.72    0.17
  -6   8  -7    5.00    0.25
   6  -8   7    4.99    0.22
   6  -8   7    5.87    0.30
  -7   8  -7    0.98    0.12
   7  -8   7    0.90    0.10
  -8   8  -7    2.02    0.17
   8  -8   7    2.17    0.15
   8   7  -7    2.67    0.21
  -8  -7   7    2.41    0.23
  -8  -7   7    2.79    0.17
   7   7  -7    0.95    0.14
  -7  -7   7    0.79    0.10
   6   7  -7    1.48    0.15
  -6  -7   7    1.54    0.12
   5   7  -7    8.05    0.33
  -5  -7   7    7.29    0.29
   4   7  -7    5.85    0.26
   4   7  -7    6.25    0.32
  -4  -7   7    5.78    0.24
   3   7  -7    9.49    0.34
   3   7  -7    9.65    0.42
   3   7  -7    9.54    0.34
   3   7  -7    8.61    0.41
  -3  -7   7    9.05    0.32
   2   7  -7    2.26    0.10
   2   7  -7    2.47    0.10
   2   7  -7    2.56    0.18
   2   7  -7    2.52    0.18
  -2  -7   7    2.39    0.15
  -2  -7   7    2.63    0.12
   1   7  -7   27.45    1.02
   1   7  -7   29.75    1.02
  -1  -7   7   30.74    0.90
  -1  -7   7   28.91    0.84
   0   7  -7   18.42    0.71
   0   7  -7   20.51    0.71
   0  -7   7   19.75    0.62
  -1   7  -7    2.21    0.14
  -1   7  -7    2.29    0.14
   1  -7   7    2.29    0.12
  -2   7  -7    0.94    0.09
  -2   7  -7    0.92    0.09
   2  -7   7    1.00    0.09
   2  -7   7    0.91    0.10
  -3   7  -7    0.07    0.04
   3  -7   7    0.15    0.06
  -4   7  -7    5.83    0.25
   4  -7   7    5.88    0.28
   4  -7   7    5.87    0.22
  -5   7  -7   17.16    0.62
   5  -7   7   17.81    0.64
   5  -7   7   16.61    0.54
  -6   7  -7    2.50    0.16
   6  -7   7    2.34    0.19
   6  -7   7    2.36    0.14
  -7   7  -7    0.02    0.05
   7  -7   7    0.03    0.09
   7  -7   7   -0.01    0.05
  -8   7  -7    0.61    0.11
   8  -7   7    0.51    0.09
   9   6  -7    0.29    0.12
  -9  -6   7    0.25    0.12
   8   6  -7    0.06    0.09
  -8  -6   7    0.03    0.06
  -8  -6   7    0.00    0.09
   7   6  -7    3.37    0.21
  -7  -6   7    3.24    0.22
  -7  -6   7    2.93    0.17
   6   6  -7    7.14    0.32
  -6  -6   7    7.07    0.28
  -6  -6   7    7.14    0.34
   5   6  -7    3.97    0.21
   5   6  -7    3.72    0.24
  -5  -6   7    3.94    0.18
  -5  -6   7    3.86    0.22
   4   6  -7   -0.06    0.05
   4   6  -7    0.03    0.06
   4   6  -7   -0.02    0.06
  -4  -6   7   -0.01    0.04
  -4  -6   7   -0.02    0.05
   3   6  -7    1.96    0.11
   3   6  -7    1.94    0.11
   3   6  -7    2.09    0.17
   3   6  -7    1.95    0.15
  -3  -6   7    1.94    0.13
  -3  -6   7    1.96    0.11
  -3  -6   7    1.90    0.14
   2   6  -7    9.63    0.39
   2   6  -7    9.47    0.39
  -2  -6   7    8.93    0.29
  -2  -6   7    9.30    0.35
  -2  -6   7    8.82    0.33
   1   6  -7   70.14    2.34
   1   6  -7   71.56    2.34
  -1  -6   7   74.24    2.20
  -1  -6   7   71.27    1.97
  -1  -6   7   70.48    1.97
  -1  -6   7   71.27    2.07
   0   6  -7   18.02    0.64
   0   6  -7   17.69    0.64
   0  -6   7   17.97    0.58
   0  -6   7   18.60    0.56
  -1   6  -7    0.00    0.03
  -1   6  -7    0.09    0.04
   1  -6   7    0.01    0.03
   1  -6   7   -0.01    0.04
  -2   6  -7    1.03    0.08
   2  -6   7    1.01    0.07
   2  -6   7    0.95    0.10
  -3   6  -7    7.70    0.29
   3  -6   7    8.04    0.33
   3  -6   7    7.53    0.25
  -4   6  -7   16.76    0.58
   4  -6   7   16.31    0.59
   4  -6   7   15.76    0.50
  -5   6  -7    5.75    0.25
   5  -6   7    5.60    0.22
   5  -6   7    5.55    0.29
  -6   6  -7   -0.11    0.04
   6  -6   7   -0.09    0.07
   6  -6   7   -0.05    0.05
  -7   6  -7    1.17    0.13
   7  -6   7    1.07    0.15
   7  -6   7    1.19    0.11
  -8   6  -7    1.44    0.15
   8  -6   7    1.38    0.13
   9   5  -7    0.59    0.13
  -9  -5   7    0.95    0.16
   8   5  -7    3.86    0.25
  -8  -5   7    3.65    0.19
   7   5  -7    9.99    0.41
  -7  -5   7    9.60    0.43
  -7  -5   7    9.55    0.35
   6   5  -7    2.75    0.18
  -6  -5   7    2.64    0.15
  -6  -5   7    2.39    0.18
   5   5  -7    0.97    0.13
   5   5  -7    0.92    0.10
  -5  -5   7    0.88    0.09
  -5  -5   7    1.03    0.11
   4   5  -7    4.46    0.25
   4   5  -7    4.77    0.26
   4   5  -7    4.91    0.21
   4   5  -7    4.86    0.21
  -4  -5   7    5.05    0.23
  -4  -5   7    4.86    0.23
  -4  -5   7    5.11    0.20
   3   5  -7   14.42    0.48
   3   5  -7   13.73    0.55
   3   5  -7   14.89    0.48
   3   5  -7   14.44    0.56
  -3  -5   7   14.28    0.51
  -3  -5   7   14.66    0.49
  -3  -5   7   14.42    0.44
   2   5  -7   41.24    1.46
   2   5  -7   44.79    1.46
  -2  -5   7   44.15    1.22
  -2  -5   7   44.95    1.29
  -2  -5   7   42.80    1.36
   1   5  -7   14.86    0.53
   1   5  -7   15.86    0.54
  -1  -5   7   14.07    0.47
  -1  -5   7   14.44    0.46
   0   5  -7    1.31    0.09
   0   5  -7    1.36    0.09
   0  -5   7    1.15    0.09
   0  -5   7    1.29    0.08
  -1   5  -7    4.20    0.17
  -1   5  -7    4.21    0.18
   1  -5   7    4.36    0.15
   1  -5   7    3.90    0.18
  -2   5  -7    7.06    0.26
   2  -5   7    6.91    0.22
   2  -5   7    6.99    0.28
   2  -5   7    7.13    0.22
  -3   5  -7    7.75    0.29
   3  -5   7    7.92    0.24
   3  -5   7    7.73    0.32
  -4   5  -7   -0.04    0.03
   4  -5   7    0.11    0.06
   4  -5   7   -0.01    0.03
  -5   5  -7    6.78    0.28
   5  -5   7    6.66    0.31
   5  -5   7    6.58    0.24
  -6   5  -7    7.96    0.33
   6  -5   7    7.61    0.36
   6  -5   7    7.33    0.28
  -7   5  -7    3.65    0.21
   7  -5   7    3.85    0.24
   7  -5   7    3.57    0.18
  -8   5  -7    1.63    0.15
   8  -5   7    1.39    0.13
   9   4  -7    5.15    0.30
  -9  -4   7    5.70    0.32
   8   4  -7    5.95    0.32
  -8  -4   7    6.79    0.27
  -8  -4   7    6.85    0.34
   7   4  -7    0.69    0.11
  -7  -4   7    0.63    0.09
  -7  -4   7    0.56    0.11
   6   4  -7    5.33    0.25
  -6  -4   7    5.36    0.22
  -6  -4   7    5.41    0.27
   5   4  -7    8.73    0.38
   5   4  -7    8.39    0.38
   5   4  -7    8.06    0.32
  -5  -4   7    8.14    0.29
  -5  -4   7    7.76    0.34
   4   4  -7    2.53    0.13
   4   4  -7    2.48    0.17
   4   4  -7    2.56    0.13
   4   4  -7    2.37    0.16
  -4  -4   7    2.46    0.14
  -4  -4   7    2.38    0.12
  -4  -4   7    2.60    0.15
   3   4  -7   14.76    0.58
   3   4  -7   16.02    0.51
   3   4  -7   15.38    0.51
   3   4  -7   15.76    0.59
  -3  -4   7   15.94    0.47
  -3  -4   7   16.09    0.53
  -3  -4   7   15.69    0.51
   2   4  -7    7.95    0.33
   2   4  -7    8.08    0.33
  -2  -4   7    7.85    0.28
  -2  -4   7    8.36    0.24
  -2  -4   7    8.19    0.24
  -2  -4   7    7.89    0.29
   1   4  -7   12.27    0.45
   1   4  -7   13.50    0.46
  -1  -4   7   12.42    0.40
  -1  -4   7   12.09    0.39
   0   4  -7   40.80    1.32
   0   4  -7   41.24    1.32
   0  -4   7   40.94    1.16
   0  -4   7   39.38    1.22
  -1   4  -7    4.48    0.17
  -1   4  -7    4.46    0.17
   1  -4   7    4.44    0.19
  -2   4  -7    8.33    0.29
   2  -4   7    8.75    0.33
  -3   4  -7    2.63    0.12
   3  -4   7    3.05    0.17
  -4   4  -7    7.22    0.28
   4  -4   7    7.62    0.33
   4  -4   7    7.33    0.24
  -5   4  -7   20.73    0.72
   5  -4   7   20.50    0.64
   5  -4   7   21.01    0.73
  -6   4  -7    9.47    0.38
   6  -4   7    9.31    0.41
   6  -4   7    9.10    0.33
  -7   4  -7    0.71    0.10
   7  -4   7    0.77    0.09
   7  -4   7    0.83    0.14
  -8   4  -7    0.10    0.07
   8  -4   7    0.06    0.06
  10   3  -7    0.65    0.13
 -10  -3   7    0.67    0.14
   9   3  -7    2.23    0.19
  -9  -3   7    2.39    0.21
   8   3  -7    0.36    0.10
  -8  -3   7    0.25    0.10
  -8  -3   7    0.17    0.06
   7   3  -7   11.13    0.44
  -7  -3   7   10.97    0.46
  -7  -3   7   11.00    0.38
   6   3  -7   35.15    1.17
   6   3  -7   36.11    1.28
  -6  -3   7   37.30    1.06
  -6  -3   7   36.05    1.19
   5   3  -7   12.10    0.44
   5   3  -7   12.44    0.50
   5   3  -7   12.33    0.50
  -5  -3   7   11.71    0.39
  -5  -3   7   12.11    0.43
  -5  -3   7   12.21    0.48
  -5  -3   7   11.93    0.45
   4   3  -7    0.41    0.05
   4   3  -7    0.49    0.06
   4   3  -7    0.44    0.08
   4   3  -7    0.24    0.07
  -4  -3   7    0.46    0.05
  -4  -3   7    0.45    0.07
  -4  -3   7    0.41    0.07
   3   3  -7    1.52    0.12
   3   3  -7    1.41    0.08
   3   3  -7    1.30    0.11
   3   3  -7    1.30    0.08
  -3  -3   7    1.44    0.09
  -3  -3   7    1.32    0.07
  -3  -3   7    1.52    0.10
   2   3  -7   41.10    1.42
   2   3  -7   44.67    1.42
  -2  -3   7   42.28    1.25
  -2  -3   7   42.48    1.33
  -2  -3   7   44.57    1.26
   1   3  -7   73.48    2.46
   1   3  -7   80.20    2.46
   1   3  -7   76.40    2.44
  -1  -3   7   75.82    2.18
   0   3  -7   26.10    0.87
   0   3  -7   26.58    0.85
   0   3  -7   25.38    0.85
  -1   3  -7    0.27    0.06
  -2   3  -7    1.56    0.12
  -3   3  -7   14.13    0.54
  -3   3  -7   13.90    0.47
  -4   3  -7   24.15    0.88
  -4   3  -7   23.60    0.80
   4  -3   7   23.73    0.71
  -5   3  -7    3.81    0.19
   5  -3   7    4.08    0.17
   5  -3   7    4.06    0.23
  -6   3  -7    0.00    0.05
   6  -3   7    0.09    0.08
   6  -3   7    0.06    0.05
  -7   3  -7   -0.03    0.05
   7  -3   7   -0.02    0.05
   7  -3   7    0.07    0.09
  -8   3  -7    2.12    0.17
   8  -3   7    1.99    0.15
  10   2  -7    0.23    0.11
 -10  -2   7    0.23    0.11
   9   2  -7    1.15    0.15
  -9  -2   7    1.12    0.10
  -9  -2   7    1.12    0.15
   8   2  -7    8.41    0.36
  -8  -2   7    7.80    0.37
  -8  -2   7    7.60    0.29
   7   2  -7   12.09    0.38
   7   2  -7   11.97    0.46
  -7  -2   7   11.51    0.40
  -7  -2   7   12.04    0.48
   6   2  -7    4.75    0.27
   6   2  -7    4.54    0.22
   6   2  -7    4.68    0.26
   6   2  -7    4.11    0.16
  -6  -2   7    4.50    0.19
  -6  -2   7    4.45    0.24
   5   2  -7    0.42    0.07
   5   2  -7    0.54    0.09
  -5  -2   7    0.44    0.06
  -5  -2   7    0.54    0.09
  -5  -2   7    0.63    0.08
  -5  -2   7    0.54    0.08
   4   2  -7    0.00    0.03
   4   2  -7    0.03    0.04
   4   2  -7    0.02    0.03
  -4  -2   7   -0.05    0.03
  -4  -2   7    0.01    0.04
  -4  -2   7    0.00    0.02
   3   2  -7    5.49    0.25
   3   2  -7    5.68    0.20
   3   2  -7    5.45    0.20
  -3  -2   7    5.52    0.22
  -3  -2   7    5.77    0.21
  -3  -2   7    5.55    0.18
   2   2  -7   21.36    0.73
  -2  -2   7   20.83    0.67
  -2  -2   7   21.75    0.64
   1   2  -7    9.88    0.35
  -1  -2   7    9.72    0.30
   0   2  -7    2.63    0.14
   0   2  -7    2.64    0.11
  -1   2  -7   16.22    0.58
  -2   2  -7   12.41    0.39
  -2   2  -7   11.25    0.39
  -2   2  -7   11.71    0.46
  -3   2  -7   19.43    0.72
  -3   2  -7   19.26    0.64
   3  -2   7   19.21    0.57
  -4   2  -7    6.34    0.31
  -4   2  -7    5.70    0.24
   4  -2   7    5.36    0.21
  -5   2  -7    1.99    0.18
  -5   2  -7    1.71    0.12
   5  -2   7    1.70    0.11
  -6   2  -7    4.00    0.21
   6  -2   7    4.02    0.19
  -7   2  -7    5.42    0.28
   7  -2   7    5.31    0.25
   7  -2   7    4.93    0.30
  -8   2  -7    1.27    0.15
   8  -2   7    1.29    0.14
  10   1  -7    1.20    0.16
 -10  -1   7    1.29    0.17
   9   1  -7    7.45    0.35
   9   1  -7    7.06    0.27
  -9  -1   7    7.23    0.36
  -9  -1   7    7.26    0.27
   8   1  -7   29.97    1.03
   8   1  -7   31.01    0.89
  -8  -1   7   29.56    0.90
  -8  -1   7   30.32    1.04
   7   1  -7    0.08    0.04
   7   1  -7    0.04    0.06
  -7  -1   7   -0.05    0.06
  -7  -1   7   -0.01    0.04
   6   1  -7   19.68    0.69
   6   1  -7   19.83    0.59
   6   1  -7   20.62    0.76
  -6  -1   7   20.26    0.61
  -6  -1   7   20.16    0.75
  -6  -1   7   20.17    0.70
   5   1  -7   20.54    0.61
   5   1  -7   22.01    0.72
   5   1  -7   22.64    0.68
   5   1  -7   21.69    0.79
  -5  -1   7   21.61    0.69
  -5  -1   7   22.67    0.73
  -5  -1   7   21.30    0.64
  -5  -1   7   21.13    0.78
   4   1  -7   20.02    0.67
   4   1  -7   21.63    0.75
   4   1  -7   20.86    0.67
  -4  -1   7   20.62    0.61
  -4  -1   7   20.69    0.73
  -4  -1   7   20.65    0.65
  -4  -1   7   20.32    0.69
   3   1  -7   29.15    0.89
   3   1  -7   28.35    0.97
   3   1  -7   28.25    0.89
  -3  -1   7   28.22    0.81
  -3  -1   7   30.18    0.86
  -3  -1   7   27.31    0.90
   2   1  -7   35.83    1.17
  -2  -1   7   35.36    1.02
  -2  -1   7   34.08    1.08
   1   1  -7   13.88    0.48
   0   1  -7   15.94    0.53
  -1   1  -7   10.76    0.37
  -2   1  -7    2.90    0.12
  -2   1  -7    2.71    0.12
  -2   1  -7    2.81    0.18
  -3   1  -7    7.02    0.33
  -3   1  -7    6.64    0.26
  -3   1  -7    7.31    0.27
   3  -1   7    6.74    0.24
  -4   1  -7   10.67    0.46
  -4   1  -7   10.63    0.39
   4  -1   7   10.04    0.35
  -5   1  -7    9.51    0.45
  -5   1  -7    9.78    0.39
   5  -1   7    9.62    0.34
  -6   1  -7    0.60    0.13
  -6   1  -7    0.37    0.08
   6  -1   7    0.39    0.05
   6  -1   7    0.51    0.08
  -7   1  -7   12.30    0.51
   7  -1   7   12.08    0.46
  -8   1  -7   -0.06    0.07
   8  -1   7   -0.01    0.08
  11   0  -7    4.08    0.27
 -11   0   7    4.24    0.28
  10   0  -7    2.44    0.20
 -10   0   7    2.99    0.22
   9   0  -7    5.53    0.23
   9   0  -7    5.29    0.29
  -9   0   7    5.60    0.23
  -9   0   7    5.37    0.30
   8   0  -7    9.28    0.32
   8   0  -7    9.43    0.40
  -8   0   7    9.54    0.41
  -8   0   7    9.01    0.33
   7   0  -7   10.35    0.41
   7   0  -7   10.04    0.34
  -7   0   7   10.16    0.35
  -7   0   7   10.75    0.43
   6   0  -7   19.72    0.57
   6   0  -7   19.66    0.66
   6   0  -7   17.84    0.72
  -6   0   7   18.92    0.60
  -6   0   7   19.54    0.59
  -6   0   7   19.47    0.67
  -6   0   7   19.08    0.63
  -6   0   7   19.44    0.72
   5   0  -7   14.23    0.51
   5   0  -7   14.56    0.57
   5   0  -7   15.01    0.48
   5   0  -7   14.14    0.43
  -5   0   7   15.32    0.52
  -5   0   7   15.01    0.56
  -5   0   7   14.98    0.46
  -5   0   7   14.67    0.49
  -5   0   7   14.65    0.46
   4   0  -7    4.32    0.18
   4   0  -7    3.90    0.21
   4   0  -7    4.26    0.18
  -4   0   7    4.00    0.20
  -4   0   7    4.10    0.18
  -4   0   7    4.19    0.19
  -4   0   7    4.03    0.15
   3   0  -7    8.96    0.31
   3   0  -7    9.96    0.37
   3   0  -7    8.82    0.31
  -3   0   7    9.24    0.28
  -3   0   7    9.02    0.31
  -3   0   7    9.08    0.33
   2   0  -7   17.59    0.61
  -2   0   7   16.24    0.56
  -2   0   7   18.24    0.53
   1   0  -7   62.64    2.02
   0   0  -7   14.28    0.49
  -1   0  -7    2.17    0.11
  -2   0  -7    6.21    0.24
  -2   0  -7    6.19    0.25
  -2   0  -7    6.07    0.29
  -3   0  -7    2.87    0.15
  -3   0  -7    2.69    0.15
  -3   0  -7    2.87    0.19
   3   0   7    3.10    0.14
  -4   0  -7   21.32    0.76
  -4   0  -7   23.23    0.83
  -4   0  -7   20.93    0.76
   4   0   7   21.21    0.68
  -5   0  -7    4.67    0.23
  -5   0  -7    4.18    0.28
   5   0   7    4.91    0.21
  -6   0  -7    1.08    0.13
  -6   0  -7    0.99    0.16
   6   0   7    1.05    0.08
   6   0   7    1.11    0.12
  -7   0  -7    0.39    0.10
  -7   0  -7    0.48    0.13
   7   0   7    0.34    0.09
  -8   0  -7    2.30    0.20
   8   0   7    1.91    0.18
  11  -1  -7    0.65    0.13
 -11   1   7    0.66    0.13
  10  -1  -7    0.73    0.13
  10  -1  -7    0.80    0.10
 -10   1   7    0.58    0.12
   9  -1  -7   -0.04    0.07
   9  -1  -7   -0.02    0.05
  -9   1   7   -0.02    0.07
  -9   1   7   -0.06    0.05
   8  -1  -7    7.96    0.35
   8  -1  -7    8.02    0.29
  -8   1   7    8.02    0.29
  -8   1   7    7.87    0.36
   7  -1  -7   18.38    0.65
   7  -1  -7   19.06    0.56
  -7   1   7   18.16    0.57
  -7   1   7   17.15    0.65
  -7   1   7   18.11    0.59
   6  -1  -7   14.46    0.54
   6  -1  -7   15.68    0.51
   6  -1  -7   15.44    0.46
  -6   1   7   15.35    0.48
  -6   1   7   15.12    0.52
  -6   1   7   15.23    0.59
  -6   1   7   14.91    0.55
  -6   1   7   15.88    0.50
   5  -1  -7    2.21    0.10
   5  -1  -7    2.34    0.13
   5  -1  -7    2.21    0.13
   5  -1  -7    2.34    0.16
   5  -1  -7    2.39    0.14
  -5   1   7    2.16    0.11
  -5   1   7    2.20    0.14
  -5   1   7    2.13    0.13
  -5   1   7    2.43    0.11
  -5   1   7    2.23    0.16
   4  -1  -7    6.74    0.25
   4  -1  -7    6.20    0.25
   4  -1  -7    6.91    0.30
  -4   1   7    7.34    0.29
  -4   1   7    6.56    0.23
  -4   1   7    6.81    0.27
  -4   1   7    6.42    0.25
   3  -1  -7   42.97    1.45
   3  -1  -7   42.71    1.34
   3  -1  -7   43.47    1.34
  -3   1   7   44.71    1.28
  -3   1   7   44.04    1.36
  -3   1   7   44.67    1.44
  -3   1   7   42.39    1.22
   2  -1  -7   85.78    2.65
   2  -1  -7   86.09    2.85
   2  -1  -7   89.70    2.66
  -2   1   7   89.39    2.43
  -2   1   7   91.53    2.43
  -2   1   7   87.00    2.68
   1  -1  -7    2.33    0.12
  -1   1   7    2.27    0.11
   0  -1  -7    0.19    0.04
  -1  -1  -7    7.40    0.30
  -2  -1  -7   30.66    1.04
  -3  -1  -7   27.51    0.97
  -3  -1  -7   28.10    1.02
  -3  -1  -7   28.12    0.97
   3   1   7   29.10    0.87
  -4  -1  -7    0.38    0.07
  -4  -1  -7    0.28    0.07
  -4  -1  -7    0.33    0.10
   4   1   7    0.34    0.03
   4   1   7    0.25    0.07
  -5  -1  -7    0.70    0.10
  -5  -1  -7    0.83    0.14
  -5  -1  -7    0.83    0.11
   5   1   7    0.76    0.07
   5   1   7    0.83    0.10
  -6  -1  -7    0.61    0.14
  -6  -1  -7    0.52    0.10
   6   1   7    0.65    0.10
  -7  -1  -7    0.86    0.17
  -7  -1  -7    0.88    0.14
   7   1   7    0.86    0.13
  -8  -1  -7    1.34    0.17
   8   1   7    1.44    0.17
  11  -2  -7    3.07    0.24
  11  -2  -7    3.33    0.19
 -11   2   7    2.89    0.23
  10  -2  -7    0.29    0.10
  10  -2  -7    0.49    0.08
 -10   2   7    0.37    0.11
   9  -2  -7    8.98    0.40
   9  -2  -7    8.79    0.32
  -9   2   7    9.02    0.40
   8  -2  -7   23.13    0.69
   8  -2  -7   22.97    0.80
  -8   2   7   21.90    0.69
  -8   2   7   23.30    0.81
   7  -2  -7    0.01    0.06
   7  -2  -7    0.11    0.05
  -7   2   7    0.04    0.07
  -7   2   7    0.11    0.05
   6  -2  -7    2.63    0.12
   6  -2  -7    2.60    0.16
   6  -2  -7    2.63    0.15
  -6   2   7    2.83    0.18
  -6   2   7    2.73    0.13
  -6   2   7    2.81    0.19
  -6   2   7    2.63    0.16
   5  -2  -7   16.75    0.64
   5  -2  -7   17.05    0.58
   5  -2  -7   17.47    0.58
   5  -2  -7   16.71    0.50
   5  -2  -7   17.04    0.55
  -5   2   7   17.16    0.55
  -5   2   7   17.22    0.52
  -5   2   7   16.92    0.59
  -5   2   7   16.20    0.63
   4  -2  -7   17.01    0.57
   4  -2  -7   17.43    0.63
  -4   2   7   17.84    0.55
  -4   2   7   16.83    0.51
  -4   2   7   16.44    0.62
  -4   2   7   16.91    0.58
   3  -2  -7   42.23    1.22
   3  -2  -7   37.28    1.22
   3  -2  -7   38.60    1.32
  -3   2   7   39.57    1.31
  -3   2   7   39.48    1.24
  -3   2   7   38.31    1.11
  -3   2   7   38.79    1.16
   2  -2  -7   28.20    0.84
   2  -2  -7   26.91    0.93
   2  -2  -7   25.47    0.84
  -2   2   7   27.06    0.77
  -2   2   7   27.60    0.86
   1  -2  -7   26.94    0.83
   1  -2  -7   27.80    0.93
  -1   2   7   27.01    0.87
  -1   2   7   27.40    0.77
  -1   2   7   28.05    0.76
   0  -2  -7    8.38    0.33
   0   2   7    8.37    0.30
  -1  -2  -7    9.41    0.37
   1   2   7    9.02    0.33
  -2  -2  -7   13.83    0.55
   2   2   7   15.53    0.42
   2   2   7   14.91    0.51
  -3  -2  -7    7.05    0.32
  -3  -2  -7    7.12    0.32
  -3  -2  -7    7.19    0.36
   3   2   7    7.36    0.29
   3   2   7    7.23    0.23
  -4  -2  -7    6.19    0.34
  -4  -2  -7    5.77    0.29
  -4  -2  -7    6.23    0.29
   4   2   7    5.95    0.26
   4   2   7    6.10    0.21
  -5  -2  -7    9.11    0.39
  -5  -2  -7    8.47    0.44
  -5  -2  -7    9.13    0.40
   5   2   7    8.53    0.30
   5   2   7    8.18    0.35
  -6  -2  -7    2.27    0.19
  -6  -2  -7    2.65    0.26
   6   2   7    2.39    0.18
  -7  -2  -7    0.15    0.12
  -7  -2  -7    0.14    0.09
   7   2   7    0.23    0.10
  11  -3  -7    6.73    0.29
  11  -3  -7    7.21    0.37
 -11   3   7    6.60    0.35
  10  -3  -7    3.40    0.18
  10  -3  -7    3.47    0.23
 -10   3   7    3.37    0.23
   9  -3  -7    7.00    0.34
   9  -3  -7    7.39    0.28
  -9   3   7    8.06    0.36
   8  -3  -7    1.15    0.10
   8  -3  -7    1.04    0.13
  -8   3   7    1.22    0.15
  -8   3   7    1.04    0.10
   7  -3  -7    7.72    0.33
   7  -3  -7    7.98    0.27
  -7   3   7    7.45    0.33
   6  -3  -7    2.33    0.15
   6  -3  -7    2.23    0.11
  -6   3   7    2.17    0.12
  -6   3   7    2.15    0.15
  -6   3   7    2.05    0.16
   5  -3  -7    9.75    0.41
   5  -3  -7    9.97    0.36
   5  -3  -7    9.41    0.30
   5  -3  -7    9.01    0.35
  -5   3   7    8.57    0.39
  -5   3   7    9.64    0.34
  -5   3   7    9.35    0.32
  -5   3   7    9.78    0.37
   4  -3  -7   13.54    0.42
   4  -3  -7   14.78    0.56
   4  -3  -7   15.04    0.50
  -4   3   7   14.39    0.45
  -4   3   7   14.32    0.48
  -4   3   7   15.12    0.52
  -4   3   7   14.76    0.55
   3  -3  -7    1.71    0.10
   3  -3  -7    1.58    0.10
   3  -3  -7    1.54    0.12
  -3   3   7    1.78    0.09
  -3   3   7    1.45    0.12
  -3   3   7    1.48    0.11
  -3   3   7    1.71    0.10
   2  -3  -7   25.05    0.83
   2  -3  -7   26.31    0.92
   2  -3  -7   27.36    0.83
  -2   3   7   25.76    0.85
  -2   3   7   27.27    0.76
   1  -3  -7   54.62    1.75
   1  -3  -7   51.39    1.61
   1  -3  -7   54.62    1.61
  -1   3   7   52.95    1.64
  -1   3   7   50.93    1.48
   0  -3  -7    3.47    0.19
   0  -3  -7    3.49    0.13
   0  -3  -7    3.65    0.13
   0   3   7    3.53    0.13
   0   3   7    3.85    0.17
  -1  -3  -7    1.84    0.14
   1   3   7    1.97    0.09
   1   3   7    2.05    0.13
  -2  -3  -7    0.86    0.11
   2   3   7    0.90    0.10
   2   3   7    0.90    0.06
  -3  -3  -7    5.11    0.27
   3   3   7    5.57    0.25
   3   3   7    5.50    0.20
  -4  -3  -7   11.39    0.47
  -4  -3  -7   11.14    0.51
  -4  -3  -7   10.54    0.47
   4   3   7   10.54    0.42
   4   3   7   10.84    0.36
  -5  -3  -7    3.93    0.29
  -5  -3  -7    3.63    0.24
  -5  -3  -7    3.68    0.24
   5   3   7    3.50    0.22
  -6  -3  -7    0.85    0.17
  -6  -3  -7    0.86    0.14
   6   3   7    0.83    0.13
  -7  -3  -7   -0.10    0.09
  11  -4  -7    2.02    0.15
 -11   4   7    1.87    0.20
  10  -4  -7    1.82    0.13
  10  -4  -7    1.52    0.17
 -10   4   7    1.85    0.18
   9  -4  -7    0.15    0.06
   9  -4  -7    0.13    0.09
  -9   4   7    0.03    0.08
   8  -4  -7   14.06    0.52
   8  -4  -7   13.04    0.44
  -8   4   7   12.97    0.52
  -8   4   7   13.28    0.43
   7  -4  -7   15.51    0.49
   7  -4  -7   15.81    0.58
  -7   4   7   15.32    0.58
  -7   4   7   16.10    0.50
   6  -4  -7    2.42    0.12
   6  -4  -7    2.39    0.15
  -6   4   7    2.19    0.12
  -6   4   7    2.04    0.16
   5  -4  -7    0.31    0.05
   5  -4  -7    0.01    0.05
   5  -4  -7    0.16    0.05
  -5   4   7    0.19    0.06
  -5   4   7    0.13    0.04
  -5   4   7    0.24    0.07
  -5   4   7    0.22    0.06
   4  -4  -7    4.82    0.17
   4  -4  -7    5.32    0.23
   4  -4  -7    5.03    0.25
   4  -4  -7    5.27    0.22
  -4   4   7    5.07    0.25
  -4   4   7    5.10    0.21
  -4   4   7    4.79    0.23
  -4   4   7    4.73    0.19
   3  -4  -7   13.21    0.47
   3  -4  -7   13.34    0.52
  -3   4   7   13.66    0.52
  -3   4   7   13.01    0.42
  -3   4   7   14.00    0.48
   2  -4  -7   31.86    1.01
   2  -4  -7   31.17    1.00
   2  -4  -7   32.67    1.10
  -2   4   7   30.93    1.02
   1  -4  -7   23.66    0.74
   1  -4  -7   23.02    0.74
   1  -4  -7   22.16    0.82
  -1   4   7   23.56    0.77
  -1   4   7   22.70    0.68
   0  -4  -7    1.08    0.11
   0  -4  -7    1.01    0.07
   0  -4  -7    0.97    0.07
   0   4   7    1.07    0.10
   0   4   7    1.01    0.07
  -1  -4  -7    2.89    0.19
  -1  -4  -7    2.85    0.12
  -1  -4  -7    2.91    0.12
   1   4   7    3.03    0.17
   1   4   7    3.20    0.13
  -2  -4  -7   18.16    0.68
   2   4   7   17.56    0.54
   2   4   7   17.55    0.60
  -3  -4  -7   10.32    0.46
   3   4   7   10.64    0.41
   3   4   7   10.82    0.35
  -4  -4  -7    2.04    0.22
  -4  -4  -7    1.67    0.18
   4   4   7    1.74    0.12
   4   4   7    1.84    0.17
  -5  -4  -7   -0.04    0.09
   5   4   7    0.01    0.07
  -6  -4  -7    0.80    0.17
   6   4   7    0.60    0.12
  11  -5  -7    0.02    0.07
 -11   5   7    0.13    0.10
  10  -5  -7    0.03    0.08
  10  -5  -7   -0.03    0.06
 -10   5   7   -0.01    0.08
   9  -5  -7    7.03    0.28
   9  -5  -7    7.04    0.34
  -9   5   7    6.87    0.34
   8  -5  -7   15.67    0.51
   8  -5  -7   16.76    0.61
  -8   5   7   15.72    0.51
  -8   5   7   15.94    0.61
   7  -5  -7    0.15    0.05
   7  -5  -7    0.20    0.07
  -7   5   7    0.22    0.06
  -7   5   7    0.19    0.08
   6  -5  -7    7.23    0.31
   6  -5  -7    7.01    0.26
  -6   5   7    7.51    0.32
  -6   5   7    7.00    0.26
   5  -5  -7    2.34    0.15
   5  -5  -7    2.57    0.12
  -5   5   7    2.34    0.16
  -5   5   7    2.21    0.12
  -5   5   7    2.53    0.18
   4  -5  -7   20.48    0.79
   4  -5  -7   21.30    0.72
   4  -5  -7   21.33    0.62
  -4   5   7   20.67    0.73
  -4   5   7   22.46    0.69
  -4   5   7   21.89    0.79
  -4   5   7   21.31    0.65
   3  -5  -7   36.01    0.99
   3  -5  -7   35.79    1.14
   3  -5  -7   38.10    1.24
  -3   5   7   34.42    1.22
  -3   5   7   32.88    1.03
  -3   5   7   36.05    1.15
   2  -5  -7    3.82    0.22
   2  -5  -7    3.85    0.18
   2  -5  -7    3.94    0.18
  -2   5   7    3.95    0.16
  -2   5   7    3.79    0.21
  -2   5   7    3.85    0.20
   1  -5  -7    4.41    0.23
   1  -5  -7    3.77    0.18
   1  -5  -7    3.97    0.18
  -1   5   7    4.21    0.20
  -1   5   7    3.99    0.17
   0  -5  -7    0.61    0.07
   0  -5  -7    0.58    0.10
   0  -5  -7    0.57    0.07
   0   5   7    0.50    0.06
   0   5   7    0.49    0.09
  -1  -5  -7    0.82    0.08
  -1  -5  -7    0.82    0.08
  -1  -5  -7    0.83    0.12
   1   5   7    0.78    0.08
  -2  -5  -7    3.95    0.16
  -2  -5  -7    3.67    0.16
  -2  -5  -7    3.89    0.24
   2   5   7    3.66    0.21
   2   5   7    3.88    0.17
  -3  -5  -7    0.91    0.14
  -3  -5  -7    1.07    0.07
   3   5   7    1.38    0.14
   3   5   7    1.34    0.11
  -4  -5  -7    2.45    0.25
   4   5   7    2.25    0.18
  -5  -5  -7    3.60    0.29
   5   5   7    3.94    0.25
  -6  -5  -7    2.54    0.29
  11  -6  -7    1.88    0.16
 -11   6   7    1.68    0.18
  10  -6  -7    4.49    0.21
  10  -6  -7    4.32    0.26
 -10   6   7    4.11    0.26
   9  -6  -7    6.40    0.32
   9  -6  -7    7.20    0.27
  -9   6   7    6.27    0.33
   8  -6  -7    1.48    0.12
   8  -6  -7    1.66    0.16
  -8   6   7    1.37    0.15
   7  -6  -7    2.11    0.16
   7  -6  -7    1.96    0.13
  -7   6   7    2.00    0.12
  -7   6   7    2.09    0.17
   6  -6  -7    7.98    0.28
   6  -6  -7    7.42    0.33
  -6   6   7    7.70    0.28
  -6   6   7    7.89    0.35
   5  -6  -7   10.17    0.34
   5  -6  -7   11.32    0.42
  -5   6   7   10.41    0.42
  -5   6   7   10.51    0.36
   4  -6  -7   13.48    0.41
   4  -6  -7   13.38    0.49
  -4   6   7   13.57    0.44
  -4   6   7   13.06    0.50
   3  -6  -7    0.20    0.03
   3  -6  -7    0.21    0.08
   3  -6  -7    0.23    0.06
  -3   6   7    0.14    0.07
  -3   6   7    0.15    0.05
  -3   6   7    0.35    0.08
   2  -6  -7    6.82    0.28
   2  -6  -7    6.28    0.32
  -2   6   7    6.04    0.24
  -2   6   7    6.71    0.32
  -2   6   7    6.68    0.29
   1  -6  -7   17.58    0.64
   1  -6  -7   19.12    0.72
  -1   6   7   18.96    0.58
  -1   6   7   19.14    0.66
   0  -6  -7   18.96    0.64
   0  -6  -7   17.51    0.73
   0   6   7   20.06    0.59
   0   6   7   18.84    0.68
  -1  -6  -7    2.60    0.15
  -1  -6  -7    2.27    0.19
   1   6   7    2.48    0.18
   1   6   7    2.67    0.14
  -2  -6  -7    0.07    0.05
   2   6   7   -0.11    0.04
   2   6   7    0.10    0.07
   3   6   7    2.24    0.18
  -4  -6  -7    2.27    0.10
  -4  -6  -7    2.17    0.25
  -5  -6  -7    0.93    0.18
  10  -7  -7    2.12    0.20
  10  -7  -7    2.10    0.15
 -10   7   7    2.23    0.20
   9  -7  -7    0.18    0.09
   9  -7  -7    0.28    0.07
  -9   7   7    0.00    0.08
   8  -7  -7    9.62    0.35
   8  -7  -7   10.07    0.43
  -8   7   7    9.34    0.42
   7  -7  -7   14.68    0.55
   7  -7  -7   14.00    0.47
  -7   7   7   14.27    0.46
  -7   7   7   14.26    0.56
   6  -7  -7    1.91    0.15
   6  -7  -7    1.95    0.12
  -6   7   7    2.07    0.16
  -6   7   7    1.90    0.12
   5  -7  -7    0.24    0.05
   5  -7  -7    0.22    0.07
  -5   7   7    0.15    0.07
  -5   7   7    0.19    0.06
   4  -7  -7    0.03    0.03
   4  -7  -7    0.04    0.06
  -4   7   7   -0.01    0.04
  -4   7   7    0.13    0.07
   3  -7  -7    9.13    0.36
  -3   7   7    8.64    0.32
  -3   7   7    9.01    0.38
   2  -7  -7    9.06    0.36
  -2   7   7    8.37    0.37
  -2   7   7    8.83    0.31
   1  -7  -7    3.06    0.18
  -1   7   7    2.67    0.19
  -1   7   7    2.72    0.15
   0  -7  -7   -0.05    0.05
   0   7   7    0.13    0.08
   0   7   7    0.09    0.05
  -1  -7  -7    1.13    0.11
   1   7   7    1.07    0.13
   1   7   7    1.05    0.10
  -2  -7  -7    1.19    0.11
  -3  -7  -7    8.84    0.34
  -4  -7  -7    0.92    0.09
  -4  -7  -7    0.73    0.17
  -5  -7  -7   -0.02    0.12
  10  -8  -7    0.00    0.06
 -10   8   7   -0.10    0.07
   9  -8  -7    6.48    0.34
   9  -8  -7    6.24    0.27
  -9   8   7    6.53    0.33
   8  -8  -7    8.55    0.34
   8  -8  -7    9.40    0.41
  -8   8   7    9.07    0.41
   7  -8  -7    0.57    0.09
   7  -8  -7    0.33    0.09
  -7   8   7    0.24    0.09
   6  -8  -7    0.05    0.07
   6  -8  -7   -0.01    0.05
  -6   8   7    0.01    0.05
  -6   8   7   -0.01    0.07
   5  -8  -7    1.31    0.14
   5  -8  -7    1.26    0.10
  -5   8   7    1.41    0.11
  -5   8   7    1.09    0.14
   4  -8  -7   10.36    0.42
   4  -8  -7   10.25    0.34
  -4   8   7   10.64    0.37
  -4   8   7   10.27    0.43
   3  -8  -7   17.55    0.62
  -3   8   7   17.43    0.55
  -3   8   7   16.47    0.63
   2  -8  -7    0.29    0.08
  -2   8   7    0.39    0.10
  -2   8   7    0.29    0.07
   1  -8  -7    0.96    0.11
  -1   8   7    0.88    0.13
  -1   8   7    0.82    0.10
   0  -8  -7    2.73    0.18
   0   8   7    2.78    0.16
  -1  -8  -7    4.70    0.24
  -2  -8  -7    0.57    0.10
  -3  -8  -7    0.76    0.10
  10  -9  -7    1.86    0.16
 -10   9   7    2.07    0.20
   9  -9  -7    3.29    0.23
   9  -9  -7    3.42    0.19
  -9   9   7    3.17    0.23
   8  -9  -7    0.54    0.12
   8  -9  -7    0.82    0.11
  -8   9   7    0.70    0.13
   7  -9  -7    1.84    0.14
   7  -9  -7    2.15    0.18
  -7   9   7    1.74    0.18
   6  -9  -7    9.69    0.43
   6  -9  -7   10.41    0.36
  -6   9   7   10.54    0.36
  -6   9   7   10.26    0.45
   5  -9  -7    5.70    0.22
   5  -9  -7    5.22    0.29
  -5   9   7    5.37    0.30
  -5   9   7    5.84    0.24
   4  -9  -7    6.20    0.31
  -4   9   7    6.49    0.26
  -4   9   7    6.87    0.33
   3  -9  -7    3.63    0.21
  -3   9   7    3.91    0.24
  -3   9   7    3.71    0.18
   2  -9  -7    0.09    0.07
  -2   9   7    0.02    0.06
  -2   9   7   -0.06    0.08
   1  -9  -7    4.91    0.25
  -1   9   7    4.70    0.28
  -1   9   7    4.59    0.22
   0  -9  -7    1.69    0.15
  -1  -9  -7    1.20    0.14
  -2  -9  -7    0.00    0.07
  -3  -9  -7    2.03    0.17
   9 -10  -7    0.16    0.08
  -9  10   7    0.06    0.09
   8 -10  -7    1.96    0.15
   8 -10  -7    1.63    0.18
  -8  10   7    1.61    0.19
   7 -10  -7    1.06    0.15
   7 -10  -7    1.06    0.11
  -7  10   7    1.01    0.15
   6 -10  -7    5.95    0.25
   6 -10  -7    6.25    0.32
  -6  10   7    6.21    0.33
   5 -10  -7    1.53    0.17
  -5  10   7    1.71    0.18
   4 -10  -7    0.00    0.07
  -4  10   7    0.05    0.09
   3 -10  -7    2.94    0.20
  -3  10   7    3.11    0.23
   2 -10  -7    1.22    0.14
  -2  10   7    1.56    0.18
   1 -10  -7    3.74    0.23
  -1  10   7    3.62    0.26
   0 -10  -7   -0.04    0.06
  -1 -10  -7    0.37    0.10
  -2 -10  -7    2.22    0.18
   8 -11  -7    3.60    0.25
  -8  11   7    3.48    0.25
   7 -11  -7    0.13    0.09
  -7  11   7    0.01    0.09
   6 -11  -7    0.02    0.08
  -6  11   7   -0.07    0.08
   5 -11  -7    1.02    0.14
  -5  11   7    0.98    0.16
   4 -11  -7    3.27    0.22
  -4  11   7    3.43    0.25
   3 -11  -7    4.24    0.25
  -3  11   7    4.70    0.30
   2 -11  -7    0.53    0.11
  -2  11   7    0.31    0.12
   1 -11  -7    0.13    0.08
   0 -11  -7    0.15    0.09
  -1 -11  -7    0.66    0.12
   7 -12  -7    0.02    0.10
  -7  12   7    0.00    0.10
   6 -12  -7    0.23    0.11
  -6  12   7    0.35    0.12
   5 -12  -7    1.53    0.18
  -5  12   7    1.37    0.19
   4 -12  -7    2.34    0.20
  -4  12   7    2.05    0.23
   3 -12  -7   -0.02    0.07
  -3  12   7   -0.08    0.10
   2 -12  -7    0.72    0.13
  -2  12   7    0.59    0.15
   1 -12  -7    0.71    0.13
   0 -13   8    3.57    0.19
   1 -13   8    0.76    0.10
  -2  13  -8    0.52    0.12
   2 -13   8    0.49    0.09
  -3 -12   8    1.31    0.13
  -2 -12   8    1.94    0.14
  -1 -12   8    2.00    0.14
   0  12  -8    0.04    0.09
   0 -12   8    0.05    0.05
  -1  12  -8    5.19    0.31
   1 -12   8    4.95    0.23
  -2  12  -8    3.16    0.23
   2 -12   8    3.49    0.17
  -3  12  -8    0.41    0.11
  -3  12  -8    0.71    0.12
   3 -12   8    0.43    0.07
  -4  12  -8    0.26    0.08
  -4  12  -8    0.21    0.09
   4 -12   8    0.28    0.06
   4  11  -8    2.14    0.14
  -4 -11   8    2.16    0.15
   3  11  -8    1.11    0.08
  -3 -11   8    0.91    0.11
  -2 -11   8    0.82    0.09
   1  11  -8    0.04    0.08
  -1 -11   8   -0.03    0.05
   0  11  -8    3.29    0.24
   0 -11   8    3.48    0.17
  -1  11  -8    5.74    0.32
  -1  11  -8    5.89    0.31
   1 -11   8    5.91    0.23
  -2  11  -8    3.87    0.24
  -2  11  -8    3.85    0.25
   2 -11   8    3.72    0.16
  -3  11  -8    0.30    0.09
  -3  11  -8    0.13    0.07
   3 -11   8    0.22    0.05
  -4  11  -8    1.05    0.14
  -4  11  -8    1.11    0.13
  -5  11  -8    2.70    0.19
   5  10  -8    4.93    0.26
  -5 -10   8    5.69    0.25
   4  10  -8    0.50    0.08
  -4 -10   8    0.34    0.08
   3  10  -8    0.35    0.06
  -3 -10   8    0.45    0.08
   2  10  -8    1.01    0.15
  -2 -10   8    1.25    0.11
   1  10  -8    9.34    0.44
  -1 -10   8    9.13    0.32
   0  10  -8   13.05    0.55
   0  10  -8   13.58    0.55
   0 -10   8   12.66    0.43
  -1  10  -8    1.68    0.15
  -1  10  -8    1.69    0.15
   1 -10   8    1.53    0.09
  -2  10  -8    0.61    0.10
  -2  10  -8    0.61    0.10
   2 -10   8    0.55    0.05
  -3  10  -8    0.37    0.09
  -3  10  -8    0.28    0.08
  -4  10  -8    1.54    0.14
  -5  10  -8    5.11    0.26
  -6  10  -8    0.30    0.08
   6   9  -8    3.39    0.22
  -6  -9   8    3.20    0.19
   5   9  -8    0.83    0.11
  -5  -9   8    1.00    0.11
   4   9  -8    0.32    0.07
  -4  -9   8    0.35    0.07
   3   9  -8    0.01    0.03
   3   9  -8    0.05    0.04
   3   9  -8    0.08    0.08
  -3  -9   8   -0.03    0.04
   2   9  -8    6.16    0.33
   2   9  -8    6.01    0.32
  -2  -9   8    5.79    0.23
   1   9  -8    7.04    0.35
   1   9  -8    7.06    0.34
  -1  -9   8    6.79    0.25
   0   9  -8    0.36    0.08
   0   9  -8    0.31    0.08
   0  -9   8    0.20    0.07
   0  -9   8    0.41    0.05
  -1   9  -8    4.03    0.22
  -1   9  -8    3.46    0.21
   1  -9   8    3.78    0.13
   1  -9   8    3.63    0.20
  -2   9  -8   10.58    0.42
  -2   9  -8   10.21    0.43
  -3   9  -8    4.50    0.22
  -3   9  -8    4.23    0.23
  -4   9  -8    3.76    0.20
  -5   9  -8    0.03    0.06
   5  -9   8    0.22    0.09
  -6   9  -8    0.61    0.09
   6  -9   8    0.59    0.13
  -7   9  -8    4.94    0.26
   7  -9   8    4.88    0.23
   7   8  -8    3.23    0.22
  -7  -8   8    2.88    0.18
   6   8  -8    0.06    0.08
  -6  -8   8    0.11    0.07
   5   8  -8    6.56    0.29
  -5  -8   8    6.02    0.26
   4   8  -8    8.19    0.31
  -4  -8   8    7.89    0.30
   3   8  -8    0.24    0.04
   3   8  -8    0.34    0.05
   3   8  -8    0.34    0.09
   3   8  -8    0.22    0.08
  -3  -8   8    0.34    0.06
   2   8  -8    0.24    0.08
   2   8  -8    0.43    0.10
  -2  -8   8    0.32    0.06
   1   8  -8    0.08    0.06
   1   8  -8    0.06    0.06
  -1  -8   8    0.10    0.04
  -1  -8   8    0.10    0.05
   0   8  -8    8.53    0.38
   0   8  -8    9.02    0.38
   0  -8   8    9.16    0.34
   0  -8   8    8.91    0.27
  -1   8  -8   20.94    0.78
  -1   8  -8   21.35    0.77
   1  -8   8   23.17    0.70
  -2   8  -8    9.73    0.39
  -2   8  -8    9.58    0.38
  -3   8  -8    2.52    0.15
   3  -8   8    2.68    0.18
  -4   8  -8   -0.07    0.04
   4  -8   8    0.00    0.07
  -5   8  -8    5.07    0.24
   5  -8   8    5.49    0.22
   5  -8   8    5.41    0.29
  -6   8  -8    3.04    0.18
   6  -8   8    3.40    0.23
   6  -8   8    3.20    0.16
  -7   8  -8    0.54    0.09
   7  -8   8    0.46    0.08
   8   7  -8    0.78    0.13
  -8  -7   8    0.49    0.10
   7   7  -8    0.34    0.10
  -7  -7   8    0.46    0.09
   6   7  -8    9.78    0.39
  -6  -7   8    8.83    0.35
   5   7  -8    8.17    0.33
  -5  -7   8    7.63    0.30
   4   7  -8    0.92    0.09
   4   7  -8    0.93    0.13
  -4  -7   8    0.85    0.09
   3   7  -8    0.59    0.10
   3   7  -8    0.68    0.11
   3   7  -8    0.53    0.06
   3   7  -8    0.64    0.06
  -3  -7   8    0.53    0.07
   2   7  -8   16.50    0.64
   2   7  -8   17.30    0.65
  -2  -7   8   17.00    0.57
  -2  -7   8   16.86    0.51
   1   7  -8    3.31    0.19
   1   7  -8    3.21    0.19
  -1  -7   8    3.36    0.17
  -1  -7   8    3.23    0.12
   0   7  -8    9.29    0.38
   0   7  -8    8.81    0.37
   0  -7   8    9.36    0.32
  -1   7  -8    0.14    0.05
  -1   7  -8    0.15    0.05
   1  -7   8    0.15    0.05
   1  -7   8    0.08    0.05
  -2   7  -8    0.19    0.05
  -2   7  -8    0.17    0.05
   2  -7   8    0.09    0.06
   2  -7   8    0.19    0.05
  -3   7  -8    0.57    0.07
   3  -7   8    0.66    0.10
  -4   7  -8   14.24    0.51
   4  -7   8   13.48    0.44
   4  -7   8   14.66    0.54
  -5   7  -8   10.12    0.39
   5  -7   8    9.85    0.34
   5  -7   8    9.76    0.42
  -6   7  -8    0.51    0.08
   6  -7   8    0.57    0.12
   6  -7   8    0.48    0.07
  -7   7  -8    1.04    0.12
   7  -7   8    0.86    0.10
   8   6  -8    1.08    0.15
  -8  -6   8    1.31    0.13
   7   6  -8    2.92    0.20
  -7  -6   8    2.98    0.17
   6   6  -8   16.00    0.58
  -6  -6   8   15.85    0.53
   5   6  -8    1.04    0.14
   5   6  -8    0.94    0.10
  -5  -6   8    0.97    0.10
   4   6  -8    4.32    0.18
   4   6  -8    3.69    0.18
   4   6  -8    3.82    0.23
   4   6  -8    4.11    0.25
  -4  -6   8    3.85    0.17
   3   6  -8    6.10    0.29
   3   6  -8    5.83    0.20
   3   6  -8    5.87    0.21
   3   6  -8    5.70    0.29
  -3  -6   8    5.58    0.21
  -3  -6   8    5.61    0.25
   2   6  -8   54.88    1.90
   2   6  -8   55.51    1.90
  -2  -6   8   58.20    1.60
  -2  -6   8   60.46    1.69
   1   6  -8   18.13    0.68
   1   6  -8   18.94    0.68
  -1  -6   8   19.82    0.60
   0   6  -8    7.65    0.32
   0   6  -8    8.02    0.32
   0  -6   8    8.20    0.30
   0  -6   8    8.51    0.28
  -1   6  -8   10.07    0.37
  -1   6  -8    9.83    0.36
   1  -6   8    9.42    0.36
   1  -6   8    9.90    0.32
  -2   6  -8   13.39    0.48
  -2   6  -8   14.26    0.49
   2  -6   8   14.11    0.50
   2  -6   8   13.74    0.43
  -3   6  -8    0.12    0.04
   3  -6   8    0.07    0.06
   3  -6   8    0.14    0.03
  -4   6  -8    5.97    0.24
   4  -6   8    5.99    0.21
   4  -6   8    6.16    0.29
  -5   6  -8    1.00    0.09
   5  -6   8    0.84    0.13
   5  -6   8    0.96    0.08
  -6   6  -8    2.23    0.15
   6  -6   8    2.77    0.21
   6  -6   8    2.15    0.13
  -7   6  -8    3.51    0.20
   7  -6   8    3.29    0.18
  -8   6  -8    0.61    0.10
   8  -6   8    0.69    0.10
   9   5  -8    3.39    0.24
  -9  -5   8    2.74    0.17
  -9  -5   8    2.71    0.24
   8   5  -8    4.22    0.25
  -8  -5   8    4.56    0.21
   7   5  -8    4.34    0.24
  -7  -5   8    4.40    0.21
  -7  -5   8    4.21    0.25
   6   5  -8   -0.03    0.06
  -6  -5   8   -0.04    0.04
  -6  -5   8    0.00    0.06
   5   5  -8    5.70    0.25
   5   5  -8    5.87    0.31
  -5  -5   8    6.46    0.28
  -5  -5   8    6.02    0.23
   4   5  -8    6.92    0.26
   4   5  -8    7.42    0.34
   4   5  -8    7.20    0.33
   4   5  -8    6.67    0.26
  -4  -5   8    6.99    0.30
  -4  -5   8    7.14    0.25
  -4  -5   8    6.61    0.28
   3   5  -8   19.68    0.73
   3   5  -8   20.46    0.62
   3   5  -8   20.85    0.63
   3   5  -8   19.85    0.74
  -3  -5   8   19.26    0.59
  -3  -5   8   20.31    0.68
  -3  -5   8   20.33    0.65
   2   5  -8   26.56    0.92
   2   5  -8   27.54    0.92
  -2  -5   8   27.23    0.85
  -2  -5   8   26.39    0.75
  -2  -5   8   25.94    0.74
  -2  -5   8   24.90    0.81
   1   5  -8    0.10    0.05
   1   5  -8    0.09    0.05
  -1  -5   8    0.06    0.04
  -1  -5   8    0.07    0.04
   0   5  -8   15.38    0.55
   0   5  -8   15.56    0.55
   0  -5   8   16.07    0.48
   0  -5   8   16.02    0.52
  -1   5  -8    8.30    0.30
  -1   5  -8    9.20    0.31
   1  -5   8    8.20    0.32
   1  -5   8    8.19    0.26
  -2   5  -8    6.33    0.23
  -2   5  -8    6.61    0.23
   2  -5   8    6.61    0.28
  -3   5  -8    3.03    0.13
   3  -5   8    2.99    0.18
  -4   5  -8    1.71    0.10
   4  -5   8    1.97    0.16
   4  -5   8    1.89    0.09
  -5   5  -8   18.34    0.64
   5  -5   8   18.86    0.67
   5  -5   8   17.66    0.56
  -6   5  -8    8.78    0.35
   6  -5   8    8.39    0.31
   6  -5   8    8.99    0.40
  -7   5  -8    0.99    0.11
   7  -5   8    0.82    0.10
   7  -5   8    1.22    0.16
  -8   5  -8    0.17    0.08
   8  -5   8    0.09    0.07
   9   4  -8    2.73    0.21
  -9  -4   8    3.17    0.24
  -9  -4   8    2.87    0.17
   8   4  -8    3.32    0.22
  -8  -4   8    3.44    0.24
  -8  -4   8    3.32    0.18
   7   4  -8    0.15    0.07
  -7  -4   8    0.13    0.08
  -7  -4   8    0.18    0.06
   6   4  -8    8.72    0.35
   6   4  -8    8.67    0.41
  -6  -4   8    8.93    0.37
  -6  -4   8    8.39    0.31
   5   4  -8    9.53    0.43
   5   4  -8    9.98    0.43
   5   4  -8    9.32    0.36
  -5  -4   8    9.56    0.33
  -5  -4   8    9.55    0.38
   4   4  -8    0.56    0.09
   4   4  -8    0.57    0.06
   4   4  -8    0.60    0.10
   4   4  -8    0.53    0.06
  -4  -4   8    0.59    0.08
  -4  -4   8    0.63    0.06
  -4  -4   8    0.53    0.08
   3   4  -8    0.74    0.09
   3   4  -8    0.79    0.09
   3   4  -8    0.77    0.05
  -3  -4   8    0.69    0.08
  -3  -4   8    0.76    0.08
  -3  -4   8    0.77    0.06
   2   4  -8    4.87    0.23
   2   4  -8    5.23    0.23
  -2  -4   8    4.95    0.17
  -2  -4   8    5.26    0.20
  -2  -4   8    4.70    0.20
   1   4  -8   36.03    1.19
   1   4  -8   35.87    1.19
  -1  -4   8   36.55    1.05
  -1  -4   8   35.34    1.08
   0   4  -8   61.06    1.92
   0   4  -8   57.38    1.91
   0  -4   8   60.36    1.69
   0  -4   8   59.28    1.77
  -1   4  -8    9.78    0.34
  -1   4  -8   10.26    0.35
   1  -4   8   10.47    0.37
   2  -4   8    0.02    0.04
  -3   4  -8    0.02    0.02
   3  -4   8    0.01    0.05
  -4   4  -8    3.48    0.15
   4  -4   8    3.46    0.13
   4  -4   8    3.73    0.21
  -5   4  -8   11.79    0.43
   5  -4   8   11.72    0.48
   5  -4   8   11.65    0.38
  -6   4  -8    0.84    0.09
   6  -4   8    0.86    0.09
   6  -4   8    0.90    0.13
  -7   4  -8   -0.03    0.05
   7  -4   8    0.02    0.08
   7  -4   8   -0.01    0.06
  -8   4  -8    0.55    0.10
   8  -4   8    0.48    0.09
  10   3  -8    0.09    0.09
 -10  -3   8    0.15    0.10
   9   3  -8    0.23    0.09
  -9  -3   8    0.10    0.06
  -9  -3   8    0.16    0.10
   8   3  -8    1.66    0.16
  -8  -3   8    1.77    0.18
  -8  -3   8    1.61    0.12
   7   3  -8   17.90    0.64
  -7  -3   8   17.79    0.67
  -7  -3   8   17.94    0.57
   6   3  -8   20.35    0.73
   6   3  -8   22.13    0.82
  -6  -3   8   22.14    0.75
  -6  -3   8   20.95    0.65
   5   3  -8    1.45    0.11
   5   3  -8    1.51    0.11
   5   3  -8    1.57    0.14
   5   3  -8    1.18    0.13
  -5  -3   8    1.37    0.12
  -5  -3   8    1.47    0.12
  -5  -3   8    1.27    0.09
   4   3  -8    0.08    0.04
   4   3  -8    0.19    0.06
   4   3  -8    0.06    0.03
   4   3  -8    0.10    0.06
  -4  -3   8    0.14    0.04
  -4  -3   8    0.24    0.06
  -4  -3   8    0.17    0.05
   3   3  -8    0.00    0.02
   3   3  -8    0.06    0.05
   3   3  -8    0.08    0.05
  -3  -3   8    0.01    0.03
  -3  -3   8    0.05    0.02
  -3  -3   8    0.01    0.03
   2   3  -8   27.64    0.93
  -2  -3   8   26.77    0.81
   1   3  -8   68.68    2.21
   1   3  -8   66.26    2.22
  -1  -3   8   71.75    1.96
   0   3  -8    1.11    0.09
   0   3  -8    1.21    0.07
  -1   3  -8    5.59    0.25
  -2   3  -8    6.28    0.29
  -3   3  -8   13.27    0.52
  -3   3  -8   12.69    0.43
  -4   3  -8   10.60    0.38
  -4   3  -8   11.79    0.48
   4  -3   8   10.19    0.34
  -5   3  -8    0.74    0.08
   5  -3   8    0.90    0.08
  -6   3  -8    2.83    0.17
   6  -3   8    3.45    0.23
   6  -3   8    2.66    0.15
  -7   3  -8    2.27    0.16
   7  -3   8    2.18    0.15
   7  -3   8    2.49    0.20
  -8   3  -8    0.71    0.12
   8  -3   8    1.08    0.12
  10   2  -8    1.03    0.15
 -10  -2   8    1.08    0.16
   9   2  -8    3.24    0.22
  -9  -2   8    3.79    0.25
  -9  -2   8    3.45    0.18
   8   2  -8   12.50    0.50
  -8  -2   8   12.56    0.43
  -8  -2   8   13.07    0.52
   7   2  -8    6.75    0.31
  -7  -2   8    7.32    0.33
  -7  -2   8    6.88    0.27
   6   2  -8    0.25    0.09
   6   2  -8    0.19    0.07
   6   2  -8    0.33    0.09
  -6  -2   8    0.16    0.07
  -6  -2   8    0.28    0.06
   5   2  -8    6.60    0.26
   5   2  -8    6.54    0.26
   5   2  -8    6.27    0.31
  -5  -2   8    6.11    0.23
  -5  -2   8    6.26    0.26
  -5  -2   8    6.59    0.28
   4   2  -8   20.01    0.73
   4   2  -8   21.03    0.64
   4   2  -8   19.35    0.64
  -4  -2   8   19.89    0.59
  -4  -2   8   19.83    0.67
  -4  -2   8   19.59    0.63
   3   2  -8   18.44    0.64
   3   2  -8   18.10    0.55
  -3  -2   8   16.93    0.56
  -3  -2   8   17.77    0.51
  -3  -2   8   18.03    0.59
   2   2  -8   12.56    0.46
  -2  -2   8   12.82    0.40
   1   2  -8    0.33    0.05
  -1  -2   8    0.36    0.04
   0   2  -8    4.70    0.18
   0   2  -8    5.08    0.22
  -1   2  -8   11.25    0.38
  -1   2  -8   11.68    0.44
  -2   2  -8    5.99    0.21
  -2   2  -8    6.26    0.29
  -3   2  -8    4.21    0.17
  -3   2  -8    4.50    0.25
   3  -2   8    4.45    0.16
  -4   2  -8    0.41    0.06
  -4   2  -8    0.39    0.10
   4  -2   8    0.49    0.06
  -5   2  -8    7.40    0.31
  -5   2  -8    7.78    0.40
   5  -2   8    7.76    0.28
  -6   2  -8    9.41    0.39
   6  -2   8    9.67    0.36
  -7   2  -8    3.09    0.20
   7  -2   8    2.82    0.17
   7  -2   8    3.20    0.24
  -8   2  -8    0.89    0.13
   8  -2   8    0.82    0.12
  10   1  -8    0.63    0.13
 -10  -1   8    1.07    0.16
   9   1  -8    0.88    0.13
  -9  -1   8    0.65    0.13
  -9  -1   8    0.62    0.09
   8   1  -8   10.46    0.43
  -8  -1   8   10.48    0.44
  -8  -1   8   10.13    0.36
   7   1  -8    0.41    0.08
  -7  -1   8    0.40    0.09
  -7  -1   8    0.33    0.07
   6   1  -8   41.12    1.44
   6   1  -8   42.86    1.33
  -6  -1   8   40.39    1.20
  -6  -1   8   41.91    1.35
   5   1  -8   28.29    0.88
   5   1  -8   27.72    0.97
   5   1  -8   25.53    0.87
  -5  -1   8   27.61    0.80
  -5  -1   8   27.01    0.80
  -5  -1   8   26.79    0.90
  -5  -1   8   26.61    0.84
   4   1  -8    4.63    0.23
   4   1  -8    4.41    0.18
   4   1  -8    4.65    0.18
  -4  -1   8    4.77    0.19
  -4  -1   8    4.46    0.16
   3   1  -8   15.22    0.46
   3   1  -8   14.11    0.54
   3   1  -8   15.34    0.47
  -3  -1   8   14.58    0.47
  -3  -1   8   14.55    0.50
  -3  -1   8   15.16    0.43
   2   1  -8    0.19    0.05
  -2  -1   8    0.22    0.04
  -2  -1   8    0.14    0.04
   1   1  -8   55.50    1.80
   0   1  -8   43.55    1.41
  -1   1  -8    3.84    0.15
  -1   1  -8    3.57    0.20
  -2   1  -8    1.26    0.08
  -2   1  -8    0.97    0.12
  -3   1  -8    2.84    0.20
  -3   1  -8    2.71    0.14
  -3   1  -8    2.62    0.13
   3  -1   8    2.56    0.12
  -4   1  -8   13.98    0.52
  -4   1  -8   14.96    0.60
   4  -1   8   14.14    0.47
  -5   1  -8   10.78    0.49
  -5   1  -8   10.06    0.41
   5  -1   8   10.64    0.37
  -6   1  -8    4.07    0.22
  -6   1  -8    4.12    0.30
   6  -1   8    3.73    0.20
  -7   1  -8   -0.03    0.06
   7  -1   8    0.07    0.07
  11   0  -8    5.97    0.34
 -11   0   8    6.32    0.36
  10   0  -8    1.38    0.16
 -10   0   8    0.88    0.15
   9   0  -8    0.09    0.08
  -9   0   8   -0.06    0.05
  -9   0   8   -0.11    0.06
   8   0  -8    1.07    0.13
  -8   0   8    0.85    0.13
  -8   0   8    1.02    0.10
   7   0  -8   12.49    0.48
  -7   0   8   12.67    0.50
  -7   0   8   13.28    0.43
   6   0  -8   10.30    0.45
   6   0  -8   10.20    0.39
  -6   0   8   10.03    0.34
  -6   0   8   10.59    0.41
  -6   0   8    9.96    0.34
   5   0  -8    1.05    0.12
   5   0  -8    1.19    0.10
   5   0  -8    1.40    0.10
  -5   0   8    1.19    0.12
  -5   0   8    1.25    0.09
  -5   0   8    1.21    0.11
  -5   0   8    1.24    0.11
  -5   0   8    1.27    0.08
   4   0  -8    0.04    0.04
   4   0  -8    0.06    0.03
   4   0  -8    0.04    0.03
  -4   0   8    0.00    0.03
  -4   0   8   -0.03    0.04
  -4   0   8    0.03    0.04
   3   0  -8    2.49    0.11
   3   0  -8    2.81    0.11
   3   0  -8    2.61    0.16
  -3   0   8    2.71    0.10
  -3   0   8    2.79    0.14
  -3   0   8    2.92    0.13
   2   0  -8   23.05    0.78
  -2   0   8   21.75    0.72
  -2   0   8   23.52    0.68
   1   0  -8   26.18    0.88
   0   0  -8    3.68    0.16
  -1   0  -8    3.57    0.16
  -2   0  -8    1.57    0.10
  -2   0  -8    1.36    0.14
  -3   0  -8    4.40    0.20
  -3   0  -8    4.24    0.25
  -3   0  -8    4.33    0.20
   3   0   8    4.24    0.18
  -4   0  -8    9.55    0.38
  -4   0  -8    9.17    0.44
  -4   0  -8    9.45    0.38
   4   0   8    9.27    0.34
  -5   0  -8    1.09    0.12
  -5   0  -8    1.28    0.17
   5   0   8    1.27    0.11
  -6   0  -8    0.37    0.13
  -6   0  -8    0.28    0.08
   6   0   8    0.47    0.06
   6   0   8    0.36    0.08
  -7   0  -8    1.97    0.24
  -7   0  -8    1.95    0.17
   7   0   8    2.03    0.17
  11  -1  -8    0.58    0.14
 -11   1   8    0.42    0.12
  10  -1  -8    0.87    0.14
 -10   1   8    1.10    0.16
   9  -1  -8    2.83    0.20
  -9   1   8    3.32    0.23
  -9   1   8    3.05    0.16
   8  -1  -8   16.31    0.61
   8  -1  -8   16.54    0.51
  -8   1   8   16.67    0.62
  -8   1   8   16.31    0.53
   7  -1  -8   52.15    1.63
   7  -1  -8   51.27    1.45
  -7   1   8   49.86    1.65
  -7   1   8   51.72    1.47
   6  -1  -8    2.00    0.10
   6  -1  -8    2.42    0.18
   6  -1  -8    2.09    0.14
  -6   1   8    2.09    0.12
  -6   1   8    2.16    0.11
  -6   1   8    2.05    0.15
   5  -1  -8    8.74    0.34
   5  -1  -8    9.14    0.39
  -5   1   8    9.61    0.39
  -5   1   8    9.44    0.34
  -5   1   8    9.23    0.36
  -5   1   8    8.76    0.30
   4  -1  -8    9.29    0.33
   4  -1  -8    9.60    0.33
   4  -1  -8    9.51    0.39
  -4   1   8    8.90    0.30
  -4   1   8    9.42    0.35
  -4   1   8    9.29    0.33
   3  -1  -8   42.41    1.29
   3  -1  -8   41.29    1.29
   3  -1  -8   42.94    1.41
  -3   1   8   42.50    1.24
  -3   1   8   41.49    1.31
  -3   1   8   41.12    1.18
   2  -1  -8   16.96    0.62
  -2   1   8   17.74    0.57
  -2   1   8   17.71    0.49
  -2   1   8   16.97    0.49
   1  -1  -8    7.29    0.29
   0  -1  -8    7.90    0.31
  -1  -1  -8   14.46    0.53
  -2  -1  -8   24.41    0.85
  -3  -1  -8    2.01    0.14
  -3  -1  -8    2.17    0.19
   3   1   8    2.10    0.13
  -4  -1  -8    0.18    0.06
  -4  -1  -8    0.05    0.08
  -4  -1  -8    0.23    0.07
   4   1   8    0.08    0.06
  -5  -1  -8    3.44    0.21
  -5  -1  -8    3.19    0.20
  -5  -1  -8    3.46    0.26
   5   1   8    3.57    0.14
   5   1   8    3.48    0.19
  -6  -1  -8    1.61    0.21
  -6  -1  -8    1.86    0.17
   6   1   8    2.00    0.16
  -7  -1  -8    0.23    0.09
  -7  -1  -8    0.37    0.14
   7   1   8    0.35    0.10
  11  -2  -8    2.17    0.21
 -11   2   8    2.03    0.21
  10  -2  -8    3.94    0.24
 -10   2   8    3.77    0.25
   9  -2  -8    8.05    0.37
   9  -2  -8    8.72    0.31
  -9   2   8    8.29    0.39
  -9   2   8    8.32    0.31
   8  -2  -8   12.71    0.42
   8  -2  -8   12.40    0.50
  -8   2   8   13.05    0.52
  -8   2   8   13.90    0.44
   7  -2  -8    8.30    0.28
   7  -2  -8    7.92    0.34
  -7   2   8    8.23    0.30
  -7   2   8    8.16    0.36
   6  -2  -8   39.78    1.21
   6  -2  -8   36.92    1.06
   6  -2  -8   36.82    1.31
  -6   2   8   36.69    1.22
  -6   2   8   36.99    1.09
   5  -2  -8   13.73    0.54
   5  -2  -8   13.63    0.48
  -5   2   8   13.89    0.43
  -5   2   8   13.56    0.53
  -5   2   8   13.71    0.47
  -5   2   8   13.84    0.50
   4  -2  -8   10.29    0.41
   4  -2  -8   10.07    0.36
   4  -2  -8   10.08    0.36
  -4   2   8    9.97    0.35
  -4   2   8   10.31    0.32
  -4   2   8    9.43    0.37
   3  -2  -8    2.95    0.14
   3  -2  -8    3.14    0.14
   3  -2  -8    2.95    0.17
  -3   2   8    2.89    0.14
  -3   2   8    3.04    0.12
  -3   2   8    3.35    0.16
   2  -2  -8   24.61    0.78
   2  -2  -8   25.08    0.78
   2  -2  -8   25.07    0.88
  -2   2   8   25.85    0.82
  -2   2   8   25.79    0.72
   1  -2  -8   15.42    0.58
  -1   2   8   16.72    0.45
  -1   2   8   16.10    0.53
  -1   2   8   15.55    0.45
   0  -2  -8   21.07    0.74
   0   2   8   21.10    0.68
  -1  -2  -8    4.38    0.22
  -2  -2  -8    4.97    0.24
  -3  -2  -8    2.06    0.20
  -3  -2  -8    1.78    0.14
   3   2   8    1.96    0.08
   3   2   8    1.86    0.13
  -4  -2  -8    3.51    0.22
  -4  -2  -8    3.59    0.26
   4   2   8    3.54    0.14
   4   2   8    3.68    0.20
  -5  -2  -8    6.54    0.33
  -5  -2  -8    6.69    0.34
  -5  -2  -8    6.50    0.38
   5   2   8    6.64    0.24
   5   2   8    6.47    0.30
  -6  -2  -8    0.59    0.15
  -6  -2  -8    0.43    0.11
   6   2   8    0.41    0.10
  -7  -2  -8    0.54    0.12
  -7  -2  -8    0.39    0.15
   7   2   8    0.39    0.11
  11  -3  -8    4.31    0.27
 -11   3   8    4.05    0.27
  10  -3  -8    0.23    0.09
 -10   3   8    0.31    0.10
   9  -3  -8    0.87    0.09
   9  -3  -8    0.65    0.12
  -9   3   8    0.75    0.09
  -9   3   8    0.49    0.12
   8  -3  -8    0.02    0.05
   8  -3  -8    0.23    0.09
  -8   3   8    0.10    0.08
  -8   3   8    0.03    0.06
   7  -3  -8    4.88    0.25
   7  -3  -8    5.37    0.20
  -7   3   8    5.13    0.22
  -7   3   8    5.29    0.27
   6  -3  -8   14.22    0.44
   6  -3  -8   14.50    0.58
   6  -3  -8   14.02    0.51
  -6   3   8   14.14    0.46
  -6   3   8   14.35    0.53
   5  -3  -8    9.02    0.39
   5  -3  -8    8.27    0.27
   5  -3  -8    8.59    0.34
  -5   3   8    9.40    0.34
  -5   3   8    9.21    0.39
  -5   3   8    9.40    0.36
  -5   3   8    9.05    0.31
   4  -3  -8    3.91    0.22
   4  -3  -8    3.81    0.18
  -4   3   8    4.03    0.19
  -4   3   8    3.85    0.18
  -4   3   8    3.87    0.21
  -4   3   8    3.80    0.16
   3  -3  -8    0.46    0.08
   3  -3  -8    0.28    0.05
   3  -3  -8    0.32    0.06
  -3   3   8    0.49    0.05
  -3   3   8    0.44    0.07
  -3   3   8    0.54    0.06
   2  -3  -8   41.23    1.41
   2  -3  -8   44.54    1.29
   2  -3  -8   40.08    1.29
  -2   3   8   41.72    1.32
  -2   3   8   41.41    1.18
   1  -3  -8   32.40    1.13
   1  -3  -8   32.98    1.01
  -1   3   8   33.96    0.94
  -1   3   8   32.89    1.06
   0  -3  -8    0.04    0.05
   0   3   8   -0.03    0.04
   0   3   8    0.02    0.03
  -1  -3  -8    2.18    0.16
  -2  -3  -8    4.68    0.26
   2   3   8    5.33    0.18
  -3  -3  -8   13.54    0.55
   3   3   8   13.52    0.42
   3   3   8   13.64    0.49
  -4  -3  -8    9.52    0.47
  -4  -3  -8    9.14    0.42
   4   3   8    9.58    0.32
   4   3   8    8.85    0.37
  -5  -3  -8    0.91    0.16
   5   3   8    0.76    0.09
   5   3   8    0.63    0.11
  -6  -3  -8   -0.07    0.09
  -6  -3  -8    0.22    0.09
   6   3   8   -0.02    0.07
  11  -4  -8    0.22    0.12
 -11   4   8    0.11    0.11
  10  -4  -8    0.81    0.10
  10  -4  -8    0.64    0.12
 -10   4   8    0.84    0.14
   9  -4  -8    3.38    0.17
   9  -4  -8    3.25    0.22
  -9   4   8    3.14    0.22
  -9   4   8    3.14    0.16
   8  -4  -8   14.81    0.58
   8  -4  -8   15.56    0.49
  -8   4   8   15.50    0.50
  -8   4   8   16.06    0.60
   7  -4  -8    8.96    0.31
   7  -4  -8    8.92    0.37
  -7   4   8    9.29    0.39
  -7   4   8    9.20    0.32
   6  -4  -8    1.49    0.13
   6  -4  -8    1.49    0.10
  -6   4   8    1.49    0.11
  -6   4   8    1.64    0.14
   5  -4  -8   -0.07    0.04
   5  -4  -8    0.07    0.03
   5  -4  -8   -0.01    0.06
  -5   4   8    0.03    0.06
  -5   4   8    0.00    0.06
  -5   4   8    0.01    0.05
  -5   4   8    0.03    0.04
   4  -4  -8   14.51    0.51
   4  -4  -8   14.41    0.57
  -4   4   8   15.37    0.54
  -4   4   8   15.61    0.58
  -4   4   8   14.43    0.46
  -4   4   8   14.07    0.49
   3  -4  -8   27.76    0.90
   3  -4  -8   28.75    0.91
   3  -4  -8   29.02    1.00
  -3   4   8   27.16    0.92
  -3   4   8   28.09    0.83
   2  -4  -8   19.74    0.65
   2  -4  -8   18.38    0.65
   2  -4  -8   20.94    0.74
  -2   4   8   21.80    0.69
  -2   4   8   19.21    0.59
   1  -4  -8    9.52    0.40
   1  -4  -8    9.88    0.33
   1  -4  -8    9.07    0.33
  -1   4   8    9.44    0.36
  -1   4   8    9.41    0.31
   0  -4  -8    0.16    0.07
   0  -4  -8    0.13    0.03
   0  -4  -8    0.14    0.03
   0   4   8    0.07    0.04
   0   4   8    0.03    0.05
  -1  -4  -8    1.88    0.16
   1   4   8    1.75    0.10
  -2  -4  -8    7.88    0.37
   2   4   8    7.57    0.32
   2   4   8    7.88    0.27
  -3  -4  -8    5.79    0.31
   3   4   8    5.76    0.22
   3   4   8    6.14    0.28
  -4  -4  -8   -0.01    0.09
   4   4   8    0.15    0.06
   4   4   8    0.19    0.08
  -5  -4  -8    2.66    0.27
   5   4   8    2.47    0.19
  -6  -4  -8    2.23    0.26
  11  -5  -8    2.10    0.22
 -11   5   8    2.47    0.21
  10  -5  -8    2.94    0.17
  10  -5  -8    3.07    0.22
 -10   5   8    3.02    0.22
   9  -5  -8    5.36    0.23
   9  -5  -8    5.11    0.28
  -9   5   8    5.13    0.29
   8  -5  -8   14.71    0.47
   8  -5  -8   14.98    0.56
  -8   5   8   13.53    0.57
  -8   5   8   14.84    0.48
   7  -5  -8    0.12    0.05
   7  -5  -8    0.09    0.07
  -7   5   8    0.15    0.05
  -7   5   8    0.24    0.08
   6  -5  -8   10.59    0.42
   6  -5  -8   10.78    0.35
  -6   5   8   10.94    0.37
  -6   5   8   11.30    0.44
   5  -5  -8    3.53    0.14
   5  -5  -8    3.64    0.19
  -5   5   8    3.55    0.16
  -5   5   8    3.53    0.20
   4  -5  -8    9.13    0.36
   4  -5  -8    9.51    0.42
  -4   5   8    9.88    0.39
  -4   5   8    9.64    0.36
  -4   5   8    9.23    0.32
   3  -5  -8   10.60    0.45
   3  -5  -8   11.23    0.40
   3  -5  -8   10.41    0.39
  -3   5   8   10.79    0.41
  -3   5   8   10.36    0.35
   2  -5  -8    0.36    0.09
   2  -5  -8    0.37    0.06
   2  -5  -8    0.28    0.06
  -2   5   8    0.24    0.07
  -2   5   8    0.26    0.05
   1  -5  -8   16.28    0.54
   1  -5  -8   15.56    0.54
   1  -5  -8   16.47    0.63
  -1   5   8   15.96    0.50
  -1   5   8   16.25    0.57
   0  -5  -8    9.02    0.32
   0  -5  -8    8.69    0.41
   0  -5  -8    9.28    0.32
   0   5   8    9.17    0.31
  -1  -5  -8    1.38    0.08
  -1  -5  -8    1.05    0.08
  -1  -5  -8    1.71    0.17
   1   5   8    1.18    0.09
  -2  -5  -8    1.16    0.14
   2   5   8    1.12    0.10
   2   5   8    1.14    0.13
   3   5   8   -0.03    0.05
   3   5   8    0.03    0.07
  -4  -5  -8    2.79    0.25
   4   5   8    3.13    0.22
  -5  -5  -8    3.24    0.29
  11  -6  -8    4.73    0.29
 -11   6   8    3.79    0.27
  10  -6  -8    4.40    0.21
  10  -6  -8    4.62    0.28
 -10   6   8    4.27    0.28
   9  -6  -8    2.48    0.15
   9  -6  -8    2.58    0.20
  -9   6   8    2.53    0.20
   8  -6  -8    1.26    0.15
   8  -6  -8    1.43    0.11
  -8   6   8    1.21    0.16
  -8   6   8    1.47    0.11
   7  -6  -8    9.59    0.34
   7  -6  -8    9.63    0.41
  -7   6   8    9.79    0.43
  -7   6   8   10.01    0.35
   6  -6  -8    2.83    0.18
   6  -6  -8    3.01    0.14
  -6   6   8    2.94    0.20
  -6   6   8    2.44    0.15
   5  -6  -8    0.08    0.03
   5  -6  -8    0.11    0.06
  -5   6   8    0.03    0.06
  -5   6   8    0.04    0.05
   4  -6  -8    0.17    0.07
  -4   6   8    0.07    0.07
  -4   6   8    0.05    0.05
   3  -6  -8    3.66    0.19
   3  -6  -8    3.36    0.22
  -3   6   8    3.35    0.16
  -3   6   8    3.31    0.20
   2  -6  -8   14.10    0.56
   2  -6  -8   13.50    0.48
  -2   6   8   12.69    0.44
  -2   6   8   13.64    0.51
   1  -6  -8   19.68    0.74
   1  -6  -8   18.37    0.65
  -1   6   8   19.84    0.60
  -1   6   8   18.93    0.68
   0  -6  -8    6.39    0.25
   0  -6  -8    5.48    0.32
   0   6   8    5.71    0.23
  -1  -6  -8    0.02    0.04
   1   6   8    0.03    0.07
   1   6   8    0.01    0.05
  -2  -6  -8    0.43    0.06
  -2  -6  -8    0.47    0.06
   2   6   8    0.56    0.10
   2   6   8    0.43    0.08
   3   6   8    3.25    0.18
   3   6   8    3.50    0.22
  -4  -6  -8    2.98    0.27
  -5  -6  -8    0.22    0.12
  10  -7  -8    0.23    0.10
 -10   7   8    0.33    0.11
   9  -7  -8    0.63    0.12
   9  -7  -8    0.71    0.09
  -9   7   8    0.35    0.11
   8  -7  -8    9.31    0.34
   8  -7  -8    8.89    0.40
  -8   7   8    9.29    0.42
   7  -7  -8   10.72    0.38
   7  -7  -8   11.55    0.46
  -7   7   8   10.91    0.38
  -7   7   8   10.88    0.46
   6  -7  -8    1.23    0.10
   6  -7  -8    1.06    0.12
  -6   7   8    1.29    0.15
  -6   7   8    1.08    0.10
   5  -7  -8    0.57    0.09
  -5   7   8    0.65    0.08
  -5   7   8    0.52    0.10
   4  -7  -8    2.19    0.16
  -4   7   8    2.27    0.13
  -4   7   8    2.30    0.17
   3  -7  -8   16.14    0.55
  -3   7   8   13.92    0.48
  -3   7   8   14.20    0.56
   2  -7  -8    5.96    0.26
  -2   7   8    5.78    0.29
  -2   7   8    5.52    0.23
   1  -7  -8    0.00    0.05
  -1   7   8    0.07    0.05
   0  -7  -8    0.06    0.06
   0   7   8    0.06    0.05
  -1  -7  -8    0.72    0.09
   1   7   8    0.74    0.09
   1   7   8    0.67    0.11
  -2  -7  -8    2.46    0.14
   2   7   8    2.38    0.16
  -3  -7  -8    1.63    0.10
  -4  -7  -8    0.10    0.12
  10  -8  -8    0.45    0.12
 -10   8   8    0.37    0.12
   9  -8  -8    4.74    0.23
   9  -8  -8    5.14    0.28
  -9   8   8    4.91    0.29
   8  -8  -8    5.44    0.29
   8  -8  -8    4.81    0.23
  -8   8   8    5.21    0.29
   7  -8  -8    0.19    0.06
   7  -8  -8    0.19    0.08
  -7   8   8    0.29    0.10
  -7   8   8    0.17    0.06
   6  -8  -8    4.63    0.25
  -6   8   8    4.73    0.27
  -6   8   8    4.75    0.21
   5  -8  -8    4.31    0.24
  -5   8   8    4.57    0.26
  -5   8   8    4.48    0.20
   4  -8  -8    6.89    0.32
  -4   8   8    7.10    0.28
  -4   8   8    7.15    0.34
   3  -8  -8   10.08    0.41
  -3   8   8   10.49    0.44
  -3   8   8   10.29    0.37
   2  -8  -8    0.18    0.07
  -2   8   8    0.07    0.08
  -2   8   8    0.18    0.06
   1  -8  -8    2.86    0.18
  -1   8   8    2.72    0.16
   0  -8  -8    3.89    0.21
   0   8   8    3.95    0.20
  -1  -8  -8    2.15    0.15
   1   8   8    2.08    0.15
  -2  -8  -8    0.55    0.09
   9  -9  -8    1.49    0.17
  -9   9   8    1.48    0.17
   8  -9  -8    0.16    0.09
  -8   9   8    0.37    0.11
   7  -9  -8    8.28    0.39
  -7   9   8    8.56    0.40
   6  -9  -8    5.61    0.30
  -6   9   8    5.84    0.32
  -6   9   8    6.08    0.25
   5  -9  -8    2.09    0.18
  -5   9   8    2.39    0.15
  -5   9   8    2.19    0.19
   4  -9  -8    0.59    0.10
  -4   9   8    0.72    0.13
  -4   9   8    0.59    0.09
   3  -9  -8    0.04    0.06
  -3   9   8    0.08    0.06
  -3   9   8    0.09    0.08
   2  -9  -8    6.42    0.30
  -2   9   8    6.55    0.34
  -2   9   8    5.95    0.27
   1  -9  -8    1.88    0.16
  -1   9   8    1.79    0.14
   0  -9  -8    0.72    0.11
  -1  -9  -8    0.02    0.06
  -2  -9  -8    1.81    0.15
   9 -10  -8    0.21    0.10
  -9  10   8    0.17    0.11
   8 -10  -8    2.91    0.22
  -8  10   8    3.05    0.23
   7 -10  -8    3.17    0.23
  -7  10   8    2.94    0.23
   6 -10  -8    0.27    0.10
  -6  10   8    0.14    0.10
   5 -10  -8    0.09    0.08
  -5  10   8   -0.04    0.06
  -5  10   8   -0.06    0.08
   4 -10  -8    1.22    0.14
  -4  10   8    1.43    0.17
  -4  10   8    1.27    0.12
   3 -10  -8    3.54    0.22
  -3  10   8    3.61    0.25
  -3  10   8    3.42    0.19
   2 -10  -8    5.79    0.29
   1 -10  -8    0.09    0.07
   0 -10  -8   -0.01    0.07
  -1 -10  -8    0.45    0.10
   8 -11  -8    4.20    0.27
  -8  11   8    3.81    0.27
   7 -11  -8    0.17    0.10
  -7  11   8    0.25    0.11
   6 -11  -8    1.55    0.18
  -6  11   8    1.36    0.18
   5 -11  -8    3.68    0.25
  -5  11   8    3.95    0.27
   4 -11  -8    3.40    0.22
  -4  11   8    3.00    0.25
   3 -11  -8    2.76    0.20
  -3  11   8    2.40    0.24
   2 -11  -8    0.55    0.11
   1 -11  -8    0.31    0.09
   0 -11  -8    1.48    0.16
   6 -12  -8    0.31    0.11
  -6  12   8    0.21    0.11
   5 -12  -8    2.73    0.22
  -5  12   8    2.97    0.25
   4 -12  -8    0.56    0.12
  -4  12   8    0.61    0.15
   3 -12  -8   -0.04    0.07
  -3  12   8    0.00    0.11
  -2 -12   9    0.63    0.09
  -1 -12   9    0.83    0.10
   0  12  -9    0.14    0.09
   0 -12   9    0.12    0.06
  -1  12  -9    3.53    0.25
   1 -12   9    3.38    0.18
  -2  12  -9    3.73    0.25
  -2  12  -9    3.40    0.23
   2 -12   9    3.26    0.16
  -3  12  -9    0.05    0.07
  -3  12  -9    0.06    0.08
   3 -12   9    0.00    0.05
  -4  12  -9    0.08    0.08
  -4 -11   9    2.07    0.15
  -3 -11   9    0.47    0.08
  -2 -11   9    0.02    0.06
   1  11  -9    2.07    0.19
  -1 -11   9    2.01    0.13
   0  11  -9    6.08    0.34
   0 -11   9    6.85    0.26
  -1  11  -9    5.57    0.30
  -1  11  -9    5.29    0.30
   1 -11   9    5.29    0.21
  -2  11  -9    0.51    0.11
  -2  11  -9    0.44    0.10
   2 -11   9    0.46    0.06
  -3  11  -9    0.36    0.09
  -3  11  -9    0.34    0.09
  -4  11  -9    1.17    0.14
  -4  11  -9    1.11    0.13
  -5  11  -9    2.56    0.18
  -5  11  -9    2.69    0.18
   5  10  -9    5.05    0.23
  -5 -10   9    4.99    0.24
   4  10  -9   -0.02    0.04
  -4 -10   9   -0.02    0.06
  -3 -10   9    0.75    0.09
   2  10  -9    2.01    0.21
  -2 -10   9    1.80    0.12
   1  10  -9    4.74    0.28
   1  10  -9    4.25    0.27
  -1 -10   9    4.56    0.19
   0  10  -9    4.88    0.28
   0  10  -9    4.66    0.27
   0 -10   9    5.09    0.20
  -1  10  -9    0.21    0.07
  -1  10  -9    0.17    0.07
   1 -10   9    0.23    0.04
   1 -10   9    0.17    0.07
  -2  10  -9    5.83    0.30
  -2  10  -9    6.07    0.29
  -3  10  -9    1.67    0.14
  -3  10  -9    1.81    0.14
  -4  10  -9    1.88    0.14
  -4  10  -9    1.68    0.14
  -5  10  -9    1.27    0.13
  -6  10  -9    0.28    0.08
   6   9  -9    1.54    0.15
  -6  -9   9    1.54    0.15
   5   9  -9    0.03    0.06
  -5  -9   9    0.00    0.06
   4   9  -9    3.58    0.16
  -4  -9   9    3.96    0.19
   3   9  -9    2.27    0.20
  -3  -9   9    2.12    0.13
   2   9  -9    1.18    0.15
   2   9  -9    1.18    0.15
  -2  -9   9    1.18    0.09
   1   9  -9    1.34    0.16
   1   9  -9    1.24    0.15
  -1  -9   9    1.35    0.09
   0   9  -9    1.02    0.12
   0   9  -9    1.11    0.13
   0  -9   9    1.10    0.07
   0  -9   9    1.13    0.12
  -1   9  -9   10.47    0.44
  -1   9  -9   10.37    0.43
   1  -9   9   10.75    0.39
  -2   9  -9    7.42    0.32
  -2   9  -9    7.07    0.32
  -3   9  -9    2.29    0.15
  -3   9  -9    2.65    0.16
  -4   9  -9    0.05    0.05
   4  -9   9    0.18    0.08
  -5   9  -9    0.41    0.07
   5  -9   9    0.16    0.10
  -6   9  -9    2.23    0.15
   7   8  -9    0.20    0.09
  -7  -8   9    0.21    0.08
   6   8  -9    0.94    0.12
  -6  -8   9    1.00    0.11
   5   8  -9    7.56    0.30
  -5  -8   9    6.68    0.28
   4   8  -9    6.12    0.23
   4   8  -9    5.97    0.34
  -4  -8   9    6.18    0.25
   3   8  -9    0.26    0.09
   3   8  -9    0.46    0.10
  -3  -8   9    0.32    0.06
   2   8  -9    0.21    0.08
   2   8  -9    0.31    0.08
  -2  -8   9    0.25    0.05
   1   8  -9    1.84    0.15
   1   8  -9    1.94    0.16
  -1  -8   9    1.82    0.13
  -1  -8   9    1.98    0.10
   0   8  -9   21.30    0.81
   0   8  -9   23.62    0.81
   0  -8   9   22.85    0.72
  -1   8  -9   17.05    0.66
  -1   8  -9   19.19    0.68
   1  -8   9   18.90    0.59
  -2   8  -9    2.62    0.15
  -2   8  -9    2.54    0.15
   2  -8   9    2.29    0.14
   2  -8   9    2.36    0.16
  -3   8  -9    0.11    0.04
  -3   8  -9    0.08    0.05
   3  -8   9    0.15    0.07
  -4   8  -9    1.19    0.10
   4  -8   9    1.34    0.15
  -5   8  -9    5.17    0.23
   5  -8   9    5.02    0.21
   5  -8   9    5.23    0.29
  -6   8  -9    4.15    0.20
   6  -8   9    3.53    0.18
  -7   8  -9    0.20    0.07
   7  -8   9    0.19    0.07
   8   7  -9    0.09    0.09
  -8  -7   9    0.16    0.08
   7   7  -9    2.43    0.18
  -7  -7   9    2.14    0.16
   6   7  -9    7.41    0.32
  -6  -7   9    7.62    0.31
   5   7  -9    6.98    0.28
  -5  -7   9    6.47    0.27
   4   7  -9    0.05    0.04
   4   7  -9    0.08    0.04
   4   7  -9    0.04    0.07
  -4  -7   9    0.05    0.05
   3   7  -9    4.77    0.26
   3   7  -9    4.18    0.25
  -3  -7   9    4.75    0.19
   2   7  -9    0.25    0.07
   2   7  -9    0.26    0.07
  -2  -7   9    0.13    0.05
  -2  -7   9    0.26    0.04
   1   7  -9   17.58    0.66
   1   7  -9   18.21    0.66
  -1  -7   9   17.52    0.58
   0   7  -9    3.34    0.18
   0   7  -9    3.65    0.20
   0  -7   9    3.81    0.17
  -1   7  -9    2.05    0.13
  -1   7  -9    2.17    0.13
   1  -7   9    2.25    0.12
   1  -7   9    1.74    0.13
  -2   7  -9    0.88    0.08
  -2   7  -9    1.04    0.09
   2  -7   9    1.02    0.11
   2  -7   9    1.12    0.08
  -3   7  -9    6.97    0.27
  -3   7  -9    6.90    0.27
   3  -7   9    7.35    0.32
  -4   7  -9    5.42    0.23
   4  -7   9    6.03    0.29
   4  -7   9    5.27    0.20
  -5   7  -9    4.18    0.19
   5  -7   9    4.23    0.25
   5  -7   9    4.24    0.18
  -6   7  -9    0.36    0.07
   6  -7   9    0.15    0.06
   6  -7   9    0.30    0.10
  -7   7  -9    0.34    0.07
   7  -7   9    0.43    0.08
   8   6  -9    2.42    0.19
  -8  -6   9    2.12    0.16
   7   6  -9    7.21    0.33
  -7  -6   9    7.15    0.30
   6   6  -9    5.95    0.27
  -6  -6   9    5.45    0.24
   5   6  -9    0.74    0.09
   5   6  -9    0.59    0.11
  -5  -6   9    0.77    0.09
   4   6  -9   13.81    0.58
   4   6  -9   14.82    0.59
   4   6  -9   14.31    0.47
   4   6  -9   15.00    0.48
  -4  -6   9   14.29    0.46
   3   6  -9   17.17    0.64
   3   6  -9   14.95    0.62
  -3  -6   9   17.12    0.56
  -3  -6   9   16.72    0.50
   2   6  -9    0.44    0.08
   2   6  -9    0.49    0.08
  -2  -6   9    0.44    0.07
  -2  -6   9    0.53    0.05
   1   6  -9   10.83    0.41
   1   6  -9   10.01    0.40
  -1  -6   9   10.04    0.35
  -1  -6   9    9.91    0.35
   0   6  -9    0.61    0.07
   0   6  -9    0.69    0.08
   0  -6   9    0.63    0.06
   0  -6   9    0.59    0.08
  -1   6  -9   14.55    0.52
  -1   6  -9   14.74    0.51
   1  -6   9   14.49    0.51
   1  -6   9   15.22    0.45
  -2   6  -9   14.29    0.48
  -2   6  -9   13.83    0.48
   2  -6   9   13.80    0.42
   2  -6   9   14.21    0.51
  -3   6  -9    5.00    0.19
   3  -6   9    4.88    0.17
   3  -6   9    4.84    0.25
  -4   6  -9    0.34    0.05
   4  -6   9    0.38    0.05
   4  -6   9    0.32    0.10
  -5   6  -9    0.62    0.07
   5  -6   9    0.87    0.13
   5  -6   9    0.59    0.07
  -6   6  -9    5.28    0.23
   6  -6   9    4.83    0.21
   6  -6   9    5.42    0.30
  -7   6  -9    1.84    0.13
   7  -6   9    1.67    0.12
   9   5  -9    2.80    0.22
  -9  -5   9    2.48    0.17
   8   5  -9    3.18    0.21
  -8  -5   9    3.12    0.18
   7   5  -9    2.98    0.19
  -7  -5   9    2.75    0.16
   6   5  -9    0.19    0.07
  -6  -5   9    0.15    0.06
   5   5  -9   16.42    0.58
   5   5  -9   17.67    0.68
  -5  -5   9   17.11    0.54
   4   5  -9    6.01    0.30
   4   5  -9    6.04    0.22
   4   5  -9    5.75    0.29
   4   5  -9    5.87    0.22
  -4  -5   9    5.77    0.22
  -4  -5   9    5.89    0.26
   3   5  -9    1.04    0.12
   3   5  -9    1.06    0.12
  -3  -5   9    1.06    0.10
  -3  -5   9    1.05    0.07
   2   5  -9    0.56    0.08
   2   5  -9    0.64    0.09
  -2  -5   9    0.62    0.06
  -2  -5   9    0.66    0.08
   1   5  -9   45.37    1.41
   1   5  -9   41.56    1.41
  -1  -5   9   42.58    1.25
  -1  -5   9   40.63    1.27
   0   5  -9   11.48    0.42
   0   5  -9   12.34    0.42
   0  -5   9   11.71    0.37
   0  -5   9   11.45    0.41
  -1   5  -9    3.47    0.15
  -1   5  -9    4.04    0.16
   1  -5   9    3.58    0.18
   1  -5   9    3.54    0.12
   2  -5   9    1.29    0.12
   3  -5   9    1.47    0.14
  -4   5  -9    0.13    0.03
   4  -5   9    0.10    0.03
   4  -5   9    0.05    0.07
  -5   5  -9   11.09    0.40
   5  -5   9   10.74    0.36
   5  -5   9   11.22    0.46
  -6   5  -9    4.00    0.19
   6  -5   9    3.89    0.18
   6  -5   9    4.15    0.26
  -7   5  -9   -0.04    0.05
   7  -5   9   -0.03    0.05
   9   4  -9    0.24    0.10
  -9  -4   9    0.24    0.07
  -9  -4   9    0.27    0.11
   8   4  -9    0.06    0.07
  -8  -4   9    0.06    0.06
   7   4  -9    0.67    0.10
  -7  -4   9    0.89    0.10
   6   4  -9    7.86    0.33
   6   4  -9    8.50    0.40
  -6  -4   9    8.13    0.30
   5   4  -9   20.68    0.70
   5   4  -9   20.59    0.80
   5   4  -9   22.06    0.81
  -5  -4   9   21.51    0.65
   4   4  -9    0.87    0.11
   4   4  -9    0.93    0.07
   4   4  -9    0.87    0.07
   4   4  -9    0.97    0.12
  -4  -4   9    0.71    0.09
  -4  -4   9    0.84    0.07
   3   4  -9    1.60    0.13
   3   4  -9    1.87    0.14
  -3  -4   9    1.88    0.12
  -3  -4   9    1.73    0.08
   2   4  -9    8.71    0.36
   2   4  -9    9.60    0.37
  -2  -4   9    9.38    0.32
  -2  -4   9    9.20    0.30
   1   4  -9   99.83    3.13
   1   4  -9  102.40    3.16
   1   4  -9   91.02    3.16
  -1  -4   9   97.87    2.87
  -1  -4   9  100.78    2.80
   0   4  -9   23.40    0.79
   0   4  -9   22.85    0.77
   0   4  -9   23.42    0.77
   0  -4   9   23.32    0.67
  -1   4  -9    0.02    0.05
  -2   4  -9    6.35    0.29
   3  -4   9    7.66    0.33
  -4   4  -9    2.68    0.12
   4  -4   9    3.02    0.12
   4  -4   9    2.75    0.19
  -5   4  -9    4.53    0.19
   5  -4   9    4.28    0.18
   5  -4   9    4.40    0.26
  -6   4  -9    0.00    0.04
   6  -4   9   -0.01    0.05
   6  -4   9    0.03    0.08
  -7   4  -9    1.14    0.12
   7  -4   9    1.01    0.11
  10   3  -9    0.09    0.10
 -10  -3   9    0.15    0.11
   9   3  -9    2.73    0.20
  -9  -3   9    2.58    0.22
  -9  -3   9    2.56    0.16
   8   3  -9    4.24    0.24
  -8  -3   9    4.46    0.27
  -8  -3   9    4.59    0.21
   7   3  -9   13.01    0.49
  -7  -3   9   12.34    0.51
  -7  -3   9   12.93    0.43
   6   3  -9    7.83    0.39
   6   3  -9    7.77    0.32
  -6  -3   9    8.78    0.36
  -6  -3   9    8.13    0.29
   5   3  -9    3.79    0.17
   5   3  -9    3.65    0.17
   5   3  -9    3.53    0.22
   5   3  -9    3.74    0.22
  -5  -3   9    3.75    0.20
  -5  -3   9    3.29    0.18
  -5  -3   9    3.66    0.16
   4   3  -9   13.39    0.42
   4   3  -9   11.50    0.50
   4   3  -9   12.40    0.41
   4   3  -9   12.77    0.50
  -4  -3   9   12.47    0.39
  -4  -3   9   13.08    0.46
  -4  -3   9   12.59    0.43
   3   3  -9    3.09    0.18
  -3  -3   9    2.99    0.15
  -3  -3   9    3.53    0.12
  -3  -3   9    3.46    0.16
   2   3  -9   20.08    0.71
  -2  -3   9   20.27    0.62
   1   3  -9   30.38    1.03
   1   3  -9   31.87    1.04
  -1  -3   9   31.47    0.91
   0   3  -9    0.01    0.03
   0   3  -9    0.06    0.05
  -1   3  -9   11.04    0.43
  -2   3  -9    9.52    0.40
  -3   3  -9    5.05    0.27
  -4   3  -9    0.91    0.07
  -4   3  -9    0.81    0.13
   4  -3   9    0.86    0.06
  -5   3  -9    1.41    0.10
   5  -3   9    1.47    0.10
  -6   3  -9    8.90    0.36
   6  -3   9    9.14    0.33
   6  -3   9    8.97    0.42
  -7   3  -9    4.22    0.23
   7  -3   9    3.96    0.21
  10   2  -9    1.78    0.19
 -10  -2   9    2.08    0.21
   9   2  -9    4.00    0.25
  -9  -2   9    4.66    0.28
  -9  -2   9    3.97    0.20
   8   2  -9    4.87    0.25
  -8  -2   9    5.27    0.29
  -8  -2   9    4.64    0.22
   7   2  -9    3.43    0.19
  -7  -2   9    3.06    0.16
  -7  -2   9    3.37    0.22
   6   2  -9    0.60    0.09
  -6  -2   9    0.57    0.07
  -6  -2   9    0.43    0.10
   5   2  -9   10.60    0.38
   5   2  -9   11.04    0.46
   5   2  -9   11.10    0.38
  -5  -2   9   10.34    0.41
  -5  -2   9   11.08    0.39
  -5  -2   9   10.65    0.35
   4   2  -9    9.89    0.41
   4   2  -9   10.57    0.34
   4   2  -9    9.73    0.33
  -4  -2   9   10.05    0.35
  -4  -2   9    9.96    0.37
  -4  -2   9    9.36    0.31
   3   2  -9   10.99    0.43
  -3  -2   9   11.15    0.32
  -3  -2   9   10.47    0.36
  -3  -2   9   11.06    0.39
   2   2  -9    0.84    0.08
  -2  -2   9    0.76    0.06
   1   2  -9   10.45    0.39
  -1  -2   9   10.90    0.33
   0   2  -9   28.93    0.99
   0   2  -9   29.12    0.95
  -1   2  -9    6.45    0.29
  -1   2  -9    6.67    0.23
  -2   2  -9    3.34    0.21
  -2   2  -9    3.25    0.13
  -3   2  -9    0.47    0.10
  -3   2  -9    0.44    0.05
  -4   2  -9    1.70    0.18
  -4   2  -9    1.73    0.10
   4  -2   9    1.69    0.10
  -5   2  -9    7.40    0.39
  -5   2  -9    7.23    0.30
   5  -2   9    7.21    0.27
  -6   2  -9    6.56    0.30
  -6   2  -9    7.05    0.39
   6  -2   9    6.73    0.28
  -7   2  -9    0.39    0.09
   7  -2   9    0.39    0.08
  10   1  -9    1.97    0.19
 -10  -1   9    2.11    0.21
   9   1  -9    0.09    0.08
  -9  -1   9    0.04    0.05
  -9  -1   9    0.09    0.09
   8   1  -9    0.20    0.08
  -8  -1   9    0.02    0.07
  -8  -1   9    0.22    0.06
   7   1  -9    5.36    0.25
  -7  -1   9    5.15    0.27
  -7  -1   9    5.14    0.22
   6   1  -9   39.98    1.41
   6   1  -9   40.92    1.28
  -6  -1   9   40.68    1.31
  -6  -1   9   39.47    1.17
   5   1  -9   14.72    0.50
   5   1  -9   15.02    0.58
   5   1  -9   14.51    0.50
  -5  -1   9   14.79    0.45
  -5  -1   9   15.35    0.50
  -5  -1   9   14.38    0.46
  -5  -1   9   14.97    0.53
   4   1  -9    0.02    0.03
   4   1  -9    0.00    0.05
   4   1  -9    0.03    0.03
  -4  -1   9    0.03    0.03
  -4  -1   9    0.09    0.05
   3   1  -9    0.48    0.07
  -3  -1   9    0.55    0.04
  -3  -1   9    0.52    0.06
  -3  -1   9    0.46    0.06
   2   1  -9    3.16    0.16
  -2  -1   9    3.30    0.14
   1   1  -9   56.79    1.84
   0   1  -9   46.13    1.50
  -1   1  -9    0.09    0.03
  -1   1  -9    0.00    0.04
  -2   1  -9    0.41    0.05
  -2   1  -9    0.37    0.09
  -3   1  -9    3.78    0.17
  -3   1  -9    3.79    0.24
   3  -1   9    3.62    0.16
  -4   1  -9   10.22    0.40
  -4   1  -9   10.29    0.48
   4  -1   9   10.73    0.36
  -5   1  -9    3.63    0.20
  -5   1  -9    4.51    0.28
   5  -1   9    3.64    0.18
  -6   1  -9    0.22    0.07
  -6   1  -9    0.31    0.12
   6  -1   9    0.19    0.07
  -7   1  -9    0.65    0.11
   7  -1   9    0.44    0.10
  10   0  -9    0.00    0.08
 -10   0   9    0.00    0.09
   9   0  -9    1.26    0.14
  -9   0   9    1.23    0.16
  -9   0   9    1.18    0.11
   8   0  -9    5.01    0.26
  -8   0   9    4.90    0.22
  -8   0   9    5.26    0.28
   7   0  -9   19.81    0.70
  -7   0   9   20.02    0.63
  -7   0   9   20.32    0.72
   6   0  -9   12.91    0.54
   6   0  -9   12.73    0.47
  -6   0   9   13.53    0.43
  -6   0   9   12.51    0.49
   5   0  -9   -0.08    0.04
   5   0  -9   -0.02    0.04
   5   0  -9    0.00    0.05
  -5   0   9   -0.04    0.03
  -5   0   9   -0.02    0.04
  -5   0   9   -0.03    0.05
   4   0  -9    8.50    0.29
   4   0  -9    8.46    0.35
   4   0  -9    7.27    0.28
  -4   0   9    7.66    0.31
  -4   0   9    8.65    0.26
  -4   0   9    7.82    0.29
   3   0  -9   12.63    0.50
  -3   0   9   13.79    0.39
  -3   0   9   13.36    0.46
  -3   0   9   13.77    0.44
   2   0  -9   15.30    0.57
  -2   0   9   16.32    0.49
   1   0  -9   13.78    0.49
   0   0  -9    0.10    0.04
  -1   0  -9   10.67    0.40
  -2   0  -9    4.38    0.20
  -2   0  -9    4.31    0.25
  -3   0  -9    4.87    0.29
  -3   0  -9    5.27    0.23
   3   0   9    4.92    0.21
  -4   0  -9    1.49    0.12
  -4   0  -9    1.46    0.12
  -4   0  -9    1.59    0.19
   4   0   9    1.47    0.11
  -5   0  -9    1.12    0.17
  -5   0  -9    1.36    0.13
   5   0   9    1.35    0.12
  -6   0  -9    3.84    0.23
  -6   0  -9    3.58    0.28
   6   0   9    3.47    0.20
  -7   0  -9    4.49    0.33
  -7   0  -9    4.17    0.26
   7   0   9    4.24    0.24
  11  -1  -9    0.89    0.15
 -11   1   9    0.70    0.15
  10  -1  -9    3.41    0.23
 -10   1   9    3.32    0.24
   9  -1  -9    3.34    0.21
  -9   1   9    3.48    0.17
  -9   1   9    3.22    0.23
   8  -1  -9    7.65    0.35
  -8   1   9    8.79    0.38
  -8   1   9    8.18    0.31
   7  -1  -9    3.55    0.20
  -7   1   9    3.79    0.17
  -7   1   9    3.65    0.22
   6  -1  -9    4.20    0.25
   6  -1  -9    4.14    0.21
  -6   1   9    4.09    0.23
  -6   1   9    4.40    0.19
  -6   1   9    4.51    0.18
   5  -1  -9   22.70    0.85
   5  -1  -9   21.65    0.75
   5  -1  -9   24.79    0.76
  -5   1   9   23.77    0.74
  -5   1   9   22.73    0.69
  -5   1   9   23.09    0.78
   4  -1  -9    7.68    0.34
   4  -1  -9    7.78    0.28
   4  -1  -9    7.61    0.28
  -4   1   9    8.03    0.31
  -4   1   9    7.63    0.28
  -4   1   9    7.49    0.25
   3  -1  -9    6.42    0.29
   3  -1  -9    6.60    0.22
   3  -1  -9    6.18    0.21
  -3   1   9    6.77    0.21
  -3   1   9    6.75    0.24
  -3   1   9    6.34    0.26
   2  -1  -9   16.65    0.60
  -2   1   9   16.27    0.47
  -2   1   9   16.96    0.56
  -2   1   9   16.78    0.47
   1  -1  -9    3.44    0.17
   0  -1  -9   20.04    0.70
  -1  -1  -9   12.86    0.48
  -2  -1  -9    2.58    0.16
  -3  -1  -9    3.51    0.24
  -3  -1  -9    3.56    0.19
   3   1   9    3.75    0.18
  -4  -1  -9    1.83    0.14
  -4  -1  -9    1.71    0.20
   4   1   9    1.75    0.13
  -5  -1  -9    3.79    0.23
  -5  -1  -9    3.42    0.22
  -5  -1  -9    4.04    0.29
   5   1   9    3.77    0.15
   5   1   9    3.75    0.21
  -6  -1  -9    2.13    0.19
  -6  -1  -9    2.24    0.25
   6   1   9    2.32    0.17
   6   1   9    2.00    0.13
  11  -2  -9    4.75    0.29
 -11   2   9    4.79    0.30
  10  -2  -9    3.90    0.24
 -10   2   9    3.35    0.25
   9  -2  -9    3.42    0.22
  -9   2   9    3.66    0.18
  -9   2   9    3.45    0.23
   8  -2  -9    2.30    0.17
  -8   2   9    2.73    0.20
  -8   2   9    2.53    0.15
   7  -2  -9    4.91    0.25
  -7   2   9    5.37    0.28
  -7   2   9    5.34    0.22
   6  -2  -9   24.92    0.82
   6  -2  -9   25.44    0.92
  -6   2   9   24.63    0.75
  -6   2   9   23.96    0.85
   5  -2  -9   12.67    0.45
   5  -2  -9   12.36    0.45
   5  -2  -9   12.55    0.52
  -5   2   9   12.75    0.44
  -5   2   9   12.67    0.47
  -5   2   9   12.55    0.41
   4  -2  -9    2.16    0.12
   4  -2  -9    2.06    0.15
   4  -2  -9    2.11    0.12
  -4   2   9    2.13    0.11
  -4   2   9    2.11    0.13
  -4   2   9    2.08    0.14
   3  -2  -9    0.04    0.03
   3  -2  -9    0.07    0.03
   3  -2  -9    0.08    0.05
  -3   2   9    0.08    0.03
  -3   2   9    0.14    0.05
  -3   2   9    0.06    0.04
   2  -2  -9    4.08    0.21
  -2   2   9    4.51    0.20
  -2   2   9    4.64    0.15
   1  -2  -9   24.86    0.90
  -1   2   9   26.85    0.73
  -1   2   9   25.58    0.84
  -1   2   9   26.58    0.73
   0  -2  -9    7.58    0.32
  -1  -2  -9    0.08    0.06
  -2  -2  -9    1.84    0.14
  -3  -2  -9    0.94    0.12
  -3  -2  -9    0.98    0.15
   3   2   9    1.03    0.06
   3   2   9    1.11    0.11
  -4  -2  -9    7.89    0.37
  -4  -2  -9    7.95    0.42
   4   2   9    8.11    0.27
   4   2   9    7.74    0.33
  -5  -2  -9    3.12    0.22
  -5  -2  -9    3.26    0.26
   5   2   9    3.15    0.15
   5   2   9    3.20    0.20
  -6  -2  -9   -0.01    0.09
   6   2   9    0.00    0.07
  11  -3  -9    1.52    0.18
 -11   3   9    1.59    0.19
  10  -3  -9    0.11    0.09
 -10   3   9    0.07    0.09
   9  -3  -9    0.65    0.11
  -9   3   9    0.71    0.09
  -9   3   9    0.74    0.13
   8  -3  -9    4.11    0.23
  -8   3   9    3.68    0.18
  -8   3   9    3.80    0.23
   7  -3  -9   17.63    0.65
  -7   3   9   18.37    0.67
  -7   3   9   19.15    0.59
   6  -3  -9   37.16    1.19
  -6   3   9   36.64    1.08
  -6   3   9   36.45    1.21
   5  -3  -9    5.74    0.29
   5  -3  -9    6.02    0.25
  -5   3   9    6.17    0.27
  -5   3   9    5.56    0.24
  -5   3   9    5.49    0.22
   4  -3  -9    5.12    0.21
   4  -3  -9    4.85    0.26
   4  -3  -9    4.95    0.22
  -4   3   9    4.99    0.22
  -4   3   9    5.34    0.24
  -4   3   9    5.10    0.19
   3  -3  -9    5.40    0.22
   3  -3  -9    6.04    0.28
   3  -3  -9    5.72    0.22
  -3   3   9    5.54    0.23
  -3   3   9    5.81    0.25
  -3   3   9    6.23    0.21
   2  -3  -9   25.28    0.81
   2  -3  -9   25.98    0.92
   2  -3  -9   26.52    0.81
  -2   3   9   27.43    0.76
  -2   3   9   25.67    0.86
   1  -3  -9    7.09    0.31
  -1   3   9    6.49    0.28
  -1   3   9    7.03    0.22
   0  -3  -9    2.33    0.16
   0   3   9    2.39    0.10
  -1  -3  -9    4.74    0.25
   1   3   9    4.68    0.17
  -2  -3  -9   10.40    0.44
   2   3   9   10.52    0.33
  -3  -3  -9    7.99    0.39
   3   3   9    8.69    0.29
   3   3   9    8.74    0.35
  -4  -3  -9    0.39    0.10
  -4  -3  -9    0.31    0.12
   4   3   9    0.32    0.09
   4   3   9    0.31    0.06
  -5  -3  -9    0.06    0.10
   5   3   9   -0.03    0.05
   5   3   9   -0.01    0.07
  -6  -3  -9    0.97    0.20
   6   3   9    0.89    0.14
  11  -4  -9    2.77    0.23
 -11   4   9    2.91    0.24
  10  -4  -9    0.25    0.10
 -10   4   9    0.18    0.10
   9  -4  -9    6.79    0.33
  -9   4   9    7.12    0.28
  -9   4   9    6.88    0.34
   8  -4  -9   17.51    0.66
  -8   4   9   18.43    0.68
  -8   4   9   18.30    0.58
   7  -4  -9    5.48    0.26
  -7   4   9    5.33    0.28
   6  -4  -9    2.16    0.15
  -6   4   9    2.47    0.18
   5  -4  -9   30.95    1.09
   5  -4  -9   29.20    0.98
  -5   4   9   30.15    0.90
  -5   4   9   30.38    1.01
   4  -4  -9    9.28    0.35
   4  -4  -9    9.31    0.40
   4  -4  -9    8.82    0.34
  -4   4   9    9.46    0.37
  -4   4   9    9.10    0.32
  -4   4   9    9.13    0.34
   3  -4  -9   15.16    0.60
   3  -4  -9   16.26    0.52
   3  -4  -9   15.68    0.53
  -3   4   9   15.24    0.48
  -3   4   9   14.87    0.55
   2  -4  -9    5.26    0.27
   2  -4  -9    5.40    0.20
   2  -4  -9    5.21    0.20
  -2   4   9    5.14    0.24
  -2   4   9    4.87    0.19
   1  -4  -9   17.03    0.52
   1  -4  -9   16.25    0.63
  -1   4   9   16.57    0.51
   0  -4  -9    4.50    0.25
   0   4   9    4.25    0.17
  -1  -4  -9    2.98    0.20
   1   4   9    2.82    0.13
  -2  -4  -9    2.60    0.19
   2   4   9    2.37    0.12
   2   4   9    2.19    0.16
  -3  -4  -9    2.69    0.21
   3   4   9    2.34    0.17
   3   4   9    2.25    0.13
  -4  -4  -9    2.02    0.24
   4   4   9    1.76    0.12
   4   4   9    1.90    0.18
  -5  -4  -9    2.27    0.26
   5   4   9    2.06    0.20
  11  -5  -9    8.39    0.42
 -11   5   9    9.09    0.44
  10  -5  -9    1.98    0.19
 -10   5   9    1.83    0.19
   9  -5  -9    0.89    0.13
  -9   5   9    0.75    0.13
  -9   5   9    1.15    0.11
   8  -5  -9    1.83    0.16
  -8   5   9    1.69    0.18
  -8   5   9    2.03    0.13
   7  -5  -9    0.16    0.08
  -7   5   9    0.06    0.08
  -7   5   9    0.18    0.06
   6  -5  -9    0.23    0.07
  -6   5   9    0.28    0.06
  -6   5   9    0.33    0.09
   5  -5  -9    5.11    0.24
  -5   5   9    5.64    0.27
   4  -5  -9    4.75    0.26
   4  -5  -9    4.83    0.23
  -4   5   9    4.69    0.24
  -4   5   9    4.68    0.20
   3  -5  -9    2.23    0.14
   3  -5  -9    2.10    0.17
  -3   5   9    2.48    0.16
  -3   5   9    2.36    0.13
   2  -5  -9    4.14    0.18
   2  -5  -9    4.15    0.24
   2  -5  -9    3.87    0.18
  -2   5   9    3.88    0.17
  -2   5   9    3.96    0.21
   1  -5  -9   26.64    0.83
   1  -5  -9   26.19    0.82
   1  -5  -9   24.29    0.94
  -1   5   9   26.35    0.77
   0  -5  -9    7.25    0.35
   0  -5  -9    6.82    0.24
   0  -5  -9    6.98    0.24
   0   5   9    6.59    0.25
  -1  -5  -9    0.96    0.13
   1   5   9    0.89    0.08
  -2  -5  -9    0.05    0.07
   2   5   9    0.07    0.06
   2   5   9    0.08    0.05
   3   5   9    1.44    0.11
   3   5   9    1.79    0.17
  -4  -5  -9    4.59    0.34
   4   5   9    4.36    0.22
   4   5   9    4.40    0.26
  -5  -5  -9    2.11    0.27
  10  -6  -9    0.58    0.12
 -10   6   9    0.66    0.14
   9  -6  -9    0.16    0.08
  -9   6   9    0.23    0.10
   8  -6  -9    6.67    0.33
  -8   6   9    7.00    0.28
  -8   6   9    7.14    0.35
   7  -6  -9   18.99    0.69
  -7   6   9   19.72    0.61
  -7   6   9   18.30    0.71
   6  -6  -9    5.37    0.25
  -6   6   9    4.30    0.25
  -6   6   9    4.55    0.21
   5  -6  -9    1.42    0.13
  -5   6   9    1.38    0.10
  -5   6   9    1.37    0.15
   4  -6  -9    0.51    0.09
  -4   6   9    0.67    0.08
  -4   6   9    0.70    0.11
   3  -6  -9    2.91    0.17
  -3   6   9    2.86    0.18
  -3   6   9    3.25    0.16
   2  -6  -9   12.85    0.52
   2  -6  -9   11.02    0.43
  -2   6   9   11.76    0.40
   1  -6  -9   11.80    0.51
   1  -6  -9   11.69    0.42
  -1   6   9   11.57    0.39
   0  -6  -9    1.16    0.09
   0  -6  -9    1.11    0.09
   0   6   9    1.10    0.10
  -1  -6  -9    0.95    0.07
   1   6   9    0.96    0.10
   1   6   9    1.05    0.13
   2   6   9    2.38    0.18
   2   6   9    2.38    0.15
   3   6   9    2.37    0.19
   3   6   9    2.58    0.16
  -4  -6  -9    1.73    0.24
  10  -7  -9    0.51    0.12
 -10   7   9    0.65    0.13
   9  -7  -9    2.69    0.21
  -9   7   9    3.35    0.23
   8  -7  -9    6.68    0.33
  -8   7   9    6.65    0.34
  -8   7   9    7.00    0.27
   7  -7  -9    2.58    0.19
  -7   7   9    2.34    0.15
  -7   7   9    2.61    0.20
   6  -7  -9    0.48    0.10
  -6   7   9    0.50    0.08
  -6   7   9    0.57    0.12
   5  -7  -9    2.89    0.18
  -5   7   9    2.53    0.19
  -5   7   9    2.87    0.16
   4  -7  -9    6.12    0.28
  -4   7   9    6.09    0.25
  -4   7   9    6.43    0.31
   3  -7  -9   11.03    0.42
  -3   7   9   10.46    0.37
  -3   7   9   10.44    0.44
   2  -7  -9    1.77    0.14
  -2   7   9    2.20    0.14
   1  -7  -9    1.27    0.12
  -1   7   9    1.18    0.11
   0  -7  -9    1.91    0.13
   0   7   9    1.87    0.13
  -1  -7  -9    0.35    0.07
   1   7   9    0.32    0.08
   1   7   9    0.39    0.10
   2   7   9    2.06    0.15
  10  -8  -9    2.67    0.22
 -10   8   9    2.81    0.24
   9  -8  -9    3.76    0.25
  -9   8   9    3.85    0.26
   8  -8  -9    2.33    0.19
  -8   8   9    1.71    0.19
   7  -8  -9    1.04    0.14
  -7   8   9    1.03    0.11
  -7   8   9    1.17    0.16
   6  -8  -9    5.74    0.29
  -6   8   9    6.12    0.32
  -6   8   9    5.77    0.25
   5  -8  -9    1.88    0.16
  -5   8   9    1.75    0.18
  -5   8   9    1.52    0.12
   4  -8  -9    0.58    0.10
  -4   8   9    0.72    0.09
  -4   8   9    0.69    0.12
   3  -8  -9    0.40    0.08
  -3   8   9    0.27    0.07
   2  -8  -9    1.20    0.13
  -2   8   9    1.21    0.12
   1  -8  -9    6.65    0.30
  -1   8   9    6.40    0.27
   0  -8  -9    4.70    0.23
   0   8   9    4.62    0.23
  -1  -8  -9    0.22    0.07
   1   8   9    0.14    0.07
  -2  -8  -9   -0.07    0.04
   9  -9  -9    0.40    0.12
  -9   9   9    0.36    0.12
   8  -9  -9    1.15    0.15
  -8   9   9    1.01    0.15
   7  -9  -9    6.91    0.34
  -7   9   9    6.82    0.36
  -7   9   9    6.96    0.28
   6  -9  -9    3.74    0.24
  -6   9   9    3.72    0.25
  -6   9   9    3.73    0.19
   5  -9  -9    0.11    0.08
  -5   9   9    0.15    0.07
  -5   9   9    0.05    0.09
   4  -9  -9    0.11    0.07
  -4   9   9    0.17    0.07
  -4   9   9    0.22    0.10
   3  -9  -9    1.75    0.15
  -3   9   9    1.70    0.13
   2  -9  -9    4.49    0.24
  -2   9   9    4.69    0.22
   1  -9  -9    3.00    0.19
  -1   9   9    3.10    0.18
   0  -9  -9    0.34    0.08
   0   9   9    0.30    0.09
  -1  -9  -9    0.12    0.07
  -2  -9  -9    0.56    0.09
   8 -10  -9    3.26    0.24
  -8  10   9    4.07    0.27
   7 -10  -9    1.21    0.16
  -7  10   9    1.21    0.17
   6 -10  -9    0.28    0.10
  -6  10   9    0.26    0.08
  -6  10   9    0.11    0.11
   5 -10  -9    1.39    0.16
  -5  10   9    1.52    0.18
  -5  10   9    1.54    0.14
   4 -10  -9    3.17    0.21
  -4  10   9    3.50    0.19
  -4  10   9    3.79    0.25
   3 -10  -9    5.07    0.26
  -3  10   9    4.06    0.22
   2 -10  -9    1.35    0.15
  -2  10   9    1.29    0.14
   1 -10  -9    0.13    0.08
   0 -10  -9    0.66    0.11
   7 -11  -9    0.16    0.10
  -7  11   9    0.32    0.12
   6 -11  -9    3.43    0.25
  -6  11   9    4.45    0.29
   5 -11  -9    1.40    0.16
  -5  11   9    1.30    0.18
   4 -11  -9    1.61    0.17
  -4  11   9    1.53    0.20
   3 -11  -9    0.77    0.12
   2 -11  -9    0.24    0.09
   1 -11  -9    2.79    0.20
  -1 -12  10    1.69    0.13
   0  12 -10    0.83    0.14
   0 -12  10    0.93    0.10
  -1  12 -10    2.82    0.23
   1 -12  10    3.43    0.17
  -2  12 -10    1.76    0.18
  -2  12 -10    1.94    0.18
   2 -12  10    1.90    0.12
  -3 -11  10   -0.10    0.05
  -2 -11  10    0.89    0.10
   1  11 -10    3.17    0.23
  -1 -11  10    2.99    0.16
   0  11 -10    6.98    0.36
   0  11 -10    7.31    0.37
   0 -11  10    7.33    0.28
  -1  11 -10    1.40    0.16
  -1  11 -10    1.21    0.15
   1 -11  10    1.24    0.09
  -2  11 -10    1.13    0.14
  -2  11 -10    1.17    0.14
  -3  11 -10    2.42    0.18
  -3  11 -10    2.79    0.19
  -4  11 -10    1.63    0.14
  -4  11 -10    1.68    0.14
  -5 -10  10    1.32    0.13
  -4 -10  10    0.39    0.08
  -3 -10  10    3.55    0.18
   2  10 -10    1.72    0.19
  -2 -10  10    1.80    0.12
   1  10 -10    2.18    0.19
   1  10 -10    2.33    0.19
  -1 -10  10    2.13    0.12
   0  10 -10    1.02    0.13
   0  10 -10    1.01    0.13
   0 -10  10    1.11    0.09
  -1  10 -10    2.67    0.19
  -1  10 -10    2.46    0.18
   1 -10  10    2.74    0.18
  -2  10 -10    5.99    0.28
  -2  10 -10    5.53    0.29
  -3  10 -10    1.44    0.13
  -3  10 -10    1.53    0.13
  -4  10 -10    0.12    0.06
  -4  10 -10    0.25    0.07
  -5  10 -10    0.19    0.06
  -5  10 -10    0.22    0.07
   6   9 -10   -0.07    0.06
  -6  -9  10    0.05    0.07
   5   9 -10    2.58    0.13
  -5  -9  10    2.55    0.16
  -4  -9  10    8.41    0.32
   3   9 -10    3.23    0.24
  -3  -9  10    3.40    0.17
   2   9 -10    0.76    0.13
   2   9 -10    0.81    0.13
  -2  -9  10    0.92    0.08
   1   9 -10    0.01    0.05
   1   9 -10    0.02    0.07
  -1  -9  10   -0.01    0.04
   0   9 -10    3.73    0.22
   0   9 -10    3.62    0.22
   0  -9  10    4.01    0.20
  -1   9 -10   11.92    0.46
  -1   9 -10   10.98    0.45
   1  -9  10   10.80    0.40
  -2   9 -10    6.08    0.28
  -2   9 -10    6.14    0.28
  -3   9 -10    0.03    0.05
  -3   9 -10    0.02    0.04
   3  -9  10   -0.02    0.07
  -4   9 -10    1.02    0.10
  -4   9 -10    1.05    0.09
   4  -9  10    1.00    0.14
  -5   9 -10    1.24    0.10
   5  -9  10    1.45    0.17
   7   8 -10    0.88    0.12
  -7  -8  10    0.73    0.11
   6   8 -10    4.23    0.21
  -6  -8  10    3.79    0.21
   5   8 -10    9.31    0.33
  -5  -8  10    9.00    0.35
   4   8 -10    4.59    0.28
  -4  -8  10    4.30    0.20
   3   8 -10    1.36    0.16
   3   8 -10    0.97    0.13
  -3  -8  10    0.97    0.09
   2   8 -10    0.81    0.12
   2   8 -10    1.00    0.13
  -2  -8  10    0.78    0.07
   1   8 -10    3.96    0.23
   1   8 -10    4.47    0.24
  -1  -8  10    4.18    0.20
  -1  -8  10    4.30    0.15
   0   8 -10   10.22    0.41
   0   8 -10    9.70    0.41
   0  -8  10    9.72    0.36
  -1   8 -10    4.50    0.22
  -1   8 -10    4.21    0.21
   1  -8  10    4.29    0.22
   1  -8  10    4.36    0.19
  -2   8 -10    0.74    0.08
  -2   8 -10    0.66    0.08
   2  -8  10    0.70    0.08
   2  -8  10    0.69    0.10
  -3   8 -10    2.45    0.13
  -3   8 -10    2.43    0.13
   3  -8  10    2.46    0.18
  -4   8 -10    1.84    0.11
  -4   8 -10    1.66    0.10
   4  -8  10    1.89    0.18
  -5   8 -10    3.67    0.18
   5  -8  10    3.93    0.24
  -6   8 -10    0.81    0.09
   6  -8  10    0.78    0.09
   7   7 -10    1.66    0.15
  -7  -7  10    1.49    0.14
   6   7 -10    6.89    0.29
  -6  -7  10    6.66    0.28
   5   7 -10    4.52    0.19
  -5  -7  10    4.31    0.20
   4   7 -10    0.28    0.09
  -4  -7  10    0.26    0.06
   3   7 -10    3.01    0.20
   3   7 -10    3.14    0.20
  -3  -7  10    2.90    0.14
   2   7 -10    4.52    0.24
   2   7 -10    4.56    0.25
  -2  -7  10    4.78    0.22
  -2  -7  10    4.61    0.17
   1   7 -10    6.97    0.32
   1   7 -10    7.26    0.32
  -1  -7  10    7.20    0.28
   0   7 -10    1.98    0.14
   0   7 -10    2.14    0.14
   0  -7  10    2.09    0.12
   0  -7  10    2.01    0.13
  -1   7 -10    6.08    0.26
  -1   7 -10    6.33    0.25
   1  -7  10    5.71    0.26
   1  -7  10    5.93    0.22
  -2   7 -10   13.03    0.45
  -2   7 -10   12.04    0.44
   2  -7  10   12.06    0.47
   2  -7  10   13.16    0.41
  -3   7 -10    2.37    0.11
  -3   7 -10    2.25    0.11
   3  -7  10    2.38    0.17
  -4   7 -10    1.36    0.08
   4  -7  10    1.63    0.17
   4  -7  10    1.28    0.08
  -5   7 -10    0.12    0.04
   5  -7  10    0.12    0.05
   5  -7  10    0.04    0.08
  -6   7 -10    0.79    0.08
   6  -7  10    0.84    0.09
   8   6 -10    4.54    0.25
  -8  -6  10    4.09    0.22
   7   6 -10    2.76    0.17
  -7  -6  10    2.11    0.15
   6   6 -10    0.04    0.06
  -6  -6  10    0.15    0.06
   5   6 -10    3.11    0.22
   5   6 -10    3.16    0.15
  -5  -6  10    2.95    0.16
   4   6 -10   10.96    0.48
   4   6 -10   11.82    0.48
  -4  -6  10   10.58    0.37
   3   6 -10    2.47    0.18
   3   6 -10    2.68    0.18
  -3  -6  10    2.63    0.12
  -3  -6  10    2.86    0.16
   2   6 -10   -0.05    0.04
   2   6 -10    0.03    0.05
  -2  -6  10   -0.03    0.05
  -2  -6  10    0.02    0.03
   1   6 -10    1.64    0.12
   1   6 -10    1.56    0.12
  -1  -6  10    1.67    0.11
  -1  -6  10    1.68    0.11
   0   6 -10    3.72    0.18
   0   6 -10    3.92    0.18
   0  -6  10    3.80    0.18
   0  -6  10    3.89    0.16
  -1   6 -10   32.10    1.09
  -1   6 -10   33.66    1.09
   1  -6  10   33.52    0.96
   1  -6  10   32.85    1.05
  -2   6 -10   18.33    0.60
  -2   6 -10   17.37    0.60
   2  -6  10   18.42    0.64
   2  -6  10   18.47    0.54
   3  -6  10    4.73    0.25
   4  -6  10    0.04    0.03
   4  -6  10    0.12    0.08
  -5   6 -10    1.52    0.09
   5  -6  10    1.21    0.16
   5  -6  10    1.47    0.09
  -6   6 -10    2.97    0.15
   6  -6  10    3.04    0.15
   9   5 -10    0.80    0.13
  -9  -5  10    0.65    0.10
   8   5 -10    0.34    0.09
  -8  -5  10    0.23    0.07
   7   5 -10    0.57    0.10
  -7  -5  10    0.41    0.08
   6   5 -10   10.29    0.39
  -6  -5  10   10.57    0.37
   5   5 -10   18.07    0.61
   5   5 -10   19.83    0.74
   5   5 -10   17.86    0.61
  -5  -5  10   18.80    0.58
   4   5 -10    5.98    0.30
   4   5 -10    5.54    0.29
  -4  -5  10    5.89    0.26
  -4  -5  10    5.56    0.22
   3   5 -10    0.11    0.06
   3   5 -10    0.05    0.06
  -3  -5  10    0.18    0.04
  -3  -5  10    0.11    0.05
   2   5 -10   12.44    0.52
   2   5 -10   14.47    0.53
  -2  -5  10   14.19    0.44
  -2  -5  10   14.35    0.46
   1   5 -10    0.04    0.04
   1   5 -10    0.01    0.04
  -1  -5  10   -0.04    0.04
  -1  -5  10   -0.03    0.04
   0   5 -10   19.27    0.65
   0   5 -10   18.32    0.65
   0  -5  10   19.65    0.57
   0  -5  10   19.16    0.63
  -1   5 -10    0.72    0.06
  -1   5 -10    0.59    0.05
   1  -5  10    0.67    0.09
   2  -5  10    2.24    0.15
   3  -5  10    0.08    0.07
   4  -5  10    8.00    0.26
   4  -5  10    8.51    0.37
  -5   5 -10    3.87    0.17
   5  -5  10    4.23    0.25
   5  -5  10    4.09    0.16
  -6   5 -10    1.21    0.09
   6  -5  10    1.18    0.10
  -7   5 -10    0.38    0.07
   7  -5  10    0.33    0.07
   9   4 -10    1.34    0.15
  -9  -4  10    1.30    0.13
   8   4 -10    2.57    0.18
  -8  -4  10    2.36    0.16
   7   4 -10    2.28    0.16
  -7  -4  10    2.37    0.15
   6   4 -10   17.57    0.72
   6   4 -10   18.49    0.62
  -6  -4  10   17.69    0.57
   5   4 -10    3.09    0.15
   5   4 -10    3.27    0.22
   5   4 -10    3.32    0.22
   5   4 -10    3.05    0.15
  -5  -4  10    3.36    0.15
   4   4 -10    1.81    0.15
   4   4 -10    2.01    0.16
  -4  -4  10    1.88    0.13
  -4  -4  10    1.97    0.10
   3   4 -10    5.74    0.28
   3   4 -10    5.94    0.28
  -3  -4  10    5.67    0.19
  -3  -4  10    5.73    0.19
  -3  -4  10    6.27    0.24
   2   4 -10   21.73    0.75
   2   4 -10   20.61    0.75
  -2  -4  10   21.40    0.66
  -2  -4  10   20.94    0.66
   1   4 -10    6.09    0.24
   1   4 -10    5.88    0.25
   1   4 -10    5.66    0.25
  -1  -4  10    6.28    0.21
   0   4 -10   14.26    0.48
   0   4 -10   13.85    0.48
   0   4 -10   13.94    0.51
   0  -4  10   14.21    0.42
  -1   4 -10    3.91    0.21
  -2   4 -10    9.76    0.41
  -3   4 -10    1.25    0.15
   4  -4  10    6.86    0.23
   4  -4  10    7.00    0.34
  -5   4 -10    1.07    0.08
   5  -4  10    1.43    0.17
   5  -4  10    1.16    0.08
  -6   4 -10    1.32    0.10
   6  -4  10    1.40    0.10
  -7   4 -10    2.82    0.17
   7  -4  10    2.95    0.17
  10   3 -10    0.33    0.12
 -10  -3  10    0.48    0.10
   9   3 -10    7.66    0.36
  -9  -3  10    7.44    0.31
   8   3 -10    4.51    0.24
  -8  -3  10    4.06    0.20
   7   3 -10    7.47    0.31
  -7  -3  10    6.58    0.27
   6   3 -10    3.52    0.18
   6   3 -10    3.50    0.24
  -6  -3  10    3.21    0.16
   5   3 -10    5.61    0.29
   5   3 -10    5.91    0.22
   5   3 -10    5.78    0.22
   5   3 -10    5.98    0.30
  -5  -3  10    5.34    0.22
   4   3 -10   32.49    1.12
  -4  -3  10   32.10    0.92
  -4  -3  10   31.25    0.98
   3   3 -10   18.37    0.65
  -3  -3  10   17.16    0.51
  -3  -3  10   17.59    0.56
   2   3 -10    5.06    0.23
  -2  -3  10    4.86    0.19
   1   3 -10    0.21    0.05
   1   3 -10    0.28    0.06
  -1  -3  10    0.22    0.04
   0   3 -10   18.52    0.65
   0   3 -10   17.73    0.61
  -1   3 -10    9.11    0.38
  -2   3 -10    4.35    0.24
  -3   3 -10    0.70    0.12
  -4   3 -10   -0.06    0.07
  -4   3 -10    0.04    0.03
   4  -3  10    0.04    0.03
  -5   3 -10    1.65    0.11
   5  -3  10    1.87    0.11
  -6   3 -10    5.09    0.24
   6  -3  10    5.66    0.24
  -7   3 -10    1.64    0.14
   7  -3  10    1.80    0.14
  10   2 -10    2.92    0.22
 -10  -2  10    3.01    0.18
 -10  -2  10    2.96    0.24
   9   2 -10    3.59    0.23
  -9  -2  10    3.93    0.20
   8   2 -10    1.46    0.14
  -8  -2  10    1.28    0.12
   7   2 -10    1.09    0.11
  -7  -2  10    0.76    0.09
   6   2 -10    2.08    0.13
  -6  -2  10    2.21    0.13
   5   2 -10    9.18    0.41
   5   2 -10    9.63    0.34
   5   2 -10    9.68    0.33
  -5  -2  10    9.62    0.32
  -5  -2  10    9.35    0.36
   4   2 -10    5.56    0.27
  -4  -2  10    4.81    0.18
  -4  -2  10    5.49    0.22
   3   2 -10   -0.04    0.04
  -3  -2  10   -0.02    0.02
  -3  -2  10    0.02    0.04
   2   2 -10    1.62    0.11
  -2  -2  10    1.61    0.09
   1   2 -10   24.88    0.84
  -1  -2  10   25.22    0.74
   0   2 -10   87.00    2.70
   0   2 -10   82.03    2.75
  -1   2 -10   11.71    0.47
  -1   2 -10   11.30    0.39
  -2   2 -10    0.04    0.07
  -2   2 -10    0.02    0.02
  -3   2 -10    0.26    0.09
  -4   2 -10    3.73    0.25
   4  -2  10    3.05    0.14
  -5   2 -10    4.51    0.21
  -5   2 -10    4.21    0.29
   5  -2  10    4.28    0.19
  -6   2 -10    1.16    0.18
  -6   2 -10    0.94    0.11
   6  -2  10    0.91    0.11
  -7   2 -10    0.03    0.06
   7  -2  10    0.03    0.06
  10   1 -10    0.30    0.10
 -10  -1  10    0.26    0.12
 -10  -1  10    0.49    0.09
   9   1 -10    0.39    0.10
  -9  -1  10    0.58    0.12
  -9  -1  10    0.68    0.09
   8   1 -10    3.29    0.20
  -8  -1  10    2.94    0.22
  -8  -1  10    3.25    0.17
   7   1 -10   13.31    0.49
  -7  -1  10   13.49    0.52
  -7  -1  10   12.46    0.44
   6   1 -10   25.69    0.96
   6   1 -10   25.69    0.86
  -6  -1  10   26.83    0.90
  -6  -1  10   26.32    0.79
   5   1 -10    3.71    0.16
   5   1 -10    3.60    0.22
   5   1 -10    3.71    0.16
  -5  -1  10    3.53    0.20
  -5  -1  10    3.59    0.15
  -5  -1  10    3.77    0.19
   4   1 -10    3.38    0.13
   4   1 -10    4.02    0.21
  -4  -1  10    3.76    0.18
  -4  -1  10    4.15    0.19
  -4  -1  10    3.73    0.14
   3   1 -10    2.66    0.16
  -3  -1  10    2.56    0.13
  -3  -1  10    2.63    0.09
   2   1 -10    6.50    0.27
  -2  -1  10    6.58    0.23
   1   1 -10   33.87    1.13
   0   1 -10    9.40    0.34
  -1   1 -10    1.45    0.09
  -1   1 -10    1.67    0.15
  -2   1 -10    4.37    0.26
  -2   1 -10    4.56    0.19
  -3   1 -10    4.24    0.19
  -3   1 -10    4.10    0.27
  -4   1 -10    3.32    0.24
   4  -1  10    3.08    0.16
  -5   1 -10    0.50    0.13
  -5   1 -10    0.48    0.08
   5  -1  10    0.41    0.07
  -6   1 -10    1.41    0.14
  -6   1 -10    1.42    0.20
   6  -1  10    1.67    0.14
  10   0 -10    1.13    0.15
 -10   0  10    1.10    0.12
 -10   0  10    1.00    0.16
   9   0 -10    2.56    0.19
  -9   0  10    2.78    0.16
  -9   0  10    2.60    0.21
   8   0 -10    5.63    0.27
  -8   0  10    5.46    0.29
  -8   0  10    5.17    0.23
   7   0 -10    5.99    0.27
  -7   0  10    5.68    0.29
  -7   0  10    5.43    0.23
   6   0 -10    5.33    0.30
   6   0 -10    5.36    0.24
  -6   0  10    5.57    0.27
  -6   0  10    5.21    0.22
   5   0 -10    1.82    0.11
   5   0 -10    1.61    0.15
   5   0 -10    1.87    0.11
  -5   0  10    1.68    0.10
  -5   0  10    1.75    0.14
  -5   0  10    1.84    0.13
   4   0 -10   13.55    0.43
   4   0 -10   13.31    0.53
   4   0 -10   13.02    0.44
  -4   0  10   13.85    0.42
  -4   0  10   13.72    0.49
  -4   0  10   13.93    0.46
   3   0 -10    6.44    0.28
  -3   0  10    6.22    0.20
  -3   0  10    6.55    0.26
  -3   0  10    6.05    0.24
   2   0 -10    6.58    0.27
  -2   0  10    5.99    0.23
   1   0 -10    1.43    0.10
   0   0 -10    4.13    0.19
  -1   0 -10   14.08    0.51
  -2   0 -10    2.69    0.15
  -2   0 -10    2.71    0.21
  -3   0 -10    2.74    0.15
  -3   0 -10    2.45    0.21
   3   0  10    2.81    0.15
  -4   0 -10    0.19    0.10
  -4   0 -10    0.22    0.06
   4   0  10    0.16    0.06
  -5   0 -10    1.99    0.23
   5   0  10    2.26    0.15
  -6   0 -10    4.85    0.27
  -6   0 -10    5.03    0.35
   6   0  10    4.81    0.25
  10  -1 -10    4.00    0.25
 -10   1  10    4.51    0.21
 -10   1  10    4.46    0.28
   9  -1 -10    1.25    0.14
  -9   1  10    1.43    0.17
  -9   1  10    1.16    0.11
   8  -1 -10    4.24    0.23
  -8   1  10    4.28    0.20
  -8   1  10    4.57    0.26
   7  -1 -10    0.24    0.07
  -7   1  10    0.25    0.06
  -7   1  10    0.15    0.08
   6  -1 -10   22.53    0.75
   6  -1 -10   22.15    0.85
  -6   1  10   23.78    0.79
  -6   1  10   21.45    0.68
   5  -1 -10   36.60    1.14
   5  -1 -10   36.70    1.15
   5  -1 -10   35.50    1.27
  -5   1  10   36.75    1.05
  -5   1  10   37.06    1.19
  -5   1  10   35.08    1.11
   4  -1 -10    8.36    0.30
   4  -1 -10    9.03    0.38
   4  -1 -10    8.77    0.31
  -4   1  10    8.87    0.29
  -4   1  10    8.89    0.35
  -4   1  10    9.05    0.32
   3  -1 -10    2.23    0.15
  -3   1  10    2.23    0.13
  -3   1  10    1.98    0.12
  -3   1  10    2.18    0.09
   2  -1 -10    0.40    0.07
  -2   1  10    0.30    0.02
  -2   1  10    0.34    0.06
  -2   1  10    0.32    0.02
   1  -1 -10   12.06    0.46
   0  -1 -10   25.49    0.88
  -1  -1 -10    9.64    0.39
  -2  -1 -10   -0.03    0.04
  -3  -1 -10    0.91    0.10
  -3  -1 -10    0.98    0.15
   3   1  10    0.92    0.10
  -4  -1 -10    3.54    0.26
  -4  -1 -10    3.44    0.21
   4   1  10    3.49    0.19
  -5  -1 -10    3.88    0.23
  -5  -1 -10    3.91    0.30
   5   1  10    3.84    0.21
  -6  -1 -10    1.70    0.23
   6   1  10    1.87    0.12
   6   1  10    1.77    0.17
  11  -2 -10    5.74    0.33
 -11   2  10    6.94    0.37
  10  -2 -10    0.63    0.12
 -10   2  10    0.68    0.14
 -10   2  10    0.75    0.10
   9  -2 -10    0.17    0.08
  -9   2  10    0.28    0.10
  -9   2  10    0.19    0.07
   8  -2 -10    0.03    0.06
  -8   2  10    0.09    0.08
  -8   2  10   -0.06    0.05
   7  -2 -10    8.57    0.34
  -7   2  10    7.74    0.37
  -7   2  10    8.48    0.31
   6  -2 -10   16.27    0.58
  -6   2  10   17.18    0.53
  -6   2  10   16.79    0.62
   5  -2 -10    4.41    0.20
   5  -2 -10    4.90    0.26
   5  -2 -10    3.97    0.19
  -5   2  10    4.22    0.20
  -5   2  10    4.45    0.18
  -5   2  10    4.29    0.23
   4  -2 -10    0.07    0.06
   4  -2 -10    0.17    0.04
   4  -2 -10    0.20    0.05
  -4   2  10    0.24    0.07
  -4   2  10    0.17    0.05
  -4   2  10    0.10    0.04
   3  -2 -10    1.40    0.12
   3  -2 -10    1.41    0.06
  -3   2  10    1.45    0.08
  -3   2  10    1.40    0.10
  -3   2  10    1.50    0.11
   2  -2 -10    6.88    0.30
  -2   2  10    6.53    0.21
   1  -2 -10   22.95    0.83
  -1   2  10   24.05    0.66
   0  -2 -10    5.63    0.26
  -1  -2 -10    1.66    0.14
  -2  -2 -10    2.33    0.16
  -3  -2 -10    1.44    0.13
  -3  -2 -10    1.17    0.17
   3   2  10    1.32    0.07
   3   2  10    1.50    0.13
  -4  -2 -10    5.23    0.28
  -4  -2 -10    5.37    0.35
   4   2  10    5.35    0.19
   4   2  10    4.69    0.25
  -5  -2 -10    0.57    0.11
  -5  -2 -10    0.38    0.13
   5   2  10    0.52    0.07
   5   2  10    0.36    0.10
  -6  -2 -10    1.43    0.22
   6   2  10    1.26    0.15
  11  -3 -10    2.21    0.21
 -11   3  10    1.90    0.22
  10  -3 -10    1.65    0.18
 -10   3  10    1.52    0.19
   9  -3 -10    4.10    0.23
  -9   3  10    3.74    0.19
  -9   3  10    3.63    0.24
   8  -3 -10    6.21    0.30
  -8   3  10    6.46    0.26
  -8   3  10    6.14    0.31
   7  -3 -10   18.00    0.65
  -7   3  10   18.97    0.68
  -7   3  10   18.12    0.59
   6  -3 -10    0.14    0.06
  -6   3  10   -0.05    0.05
  -6   3  10   -0.04    0.07
   5  -3 -10    3.07    0.21
   5  -3 -10    2.94    0.16
  -5   3  10    3.12    0.15
  -5   3  10    3.18    0.19
   4  -3 -10   13.36    0.54
   4  -3 -10   13.80    0.46
   4  -3 -10   13.81    0.47
  -4   3  10   13.49    0.47
  -4   3  10   13.28    0.43
  -4   3  10   13.51    0.50
   3  -3 -10   10.90    0.45
   3  -3 -10   11.25    0.36
   3  -3 -10   10.90    0.36
  -3   3  10   10.40    0.38
  -3   3  10   10.13    0.34
  -3   3  10   11.19    0.41
   2  -3 -10    3.58    0.21
  -2   3  10    3.85    0.15
   1  -3 -10    4.93    0.26
  -1   3  10    5.54    0.19
   0  -3 -10    0.96    0.11
   0   3  10    1.08    0.07
  -1  -3 -10    3.70    0.22
   1   3  10    3.74    0.14
  -2  -3 -10    5.49    0.29
   2   3  10    5.53    0.20
  -3  -3 -10    0.42    0.10
  -3  -3 -10    0.32    0.12
   3   3  10    0.42    0.06
   3   3  10    0.34    0.09
  -4  -3 -10    0.99    0.18
  -4  -3 -10    0.73    0.12
   4   3  10    0.79    0.12
   4   3  10    0.70    0.08
  -5  -3 -10    0.64    0.16
   5   3  10    0.55    0.11
   5   3  10    0.73    0.09
  10  -4 -10    3.61    0.24
 -10   4  10    3.86    0.26
   9  -4 -10    3.99    0.24
  -9   4  10    4.29    0.20
  -9   4  10    4.06    0.26
   8  -4 -10   11.19    0.46
  -8   4  10   12.01    0.49
  -8   4  10   11.62    0.41
   7  -4 -10    7.23    0.32
  -7   4  10    6.79    0.34
   6  -4 -10   13.60    0.50
  -6   4  10   13.71    0.46
  -6   4  10   13.76    0.53
   5  -4 -10   13.32    0.48
  -5   4  10   13.46    0.51
  -5   4  10   12.90    0.44
   4  -4 -10    4.70    0.25
   4  -4 -10    4.29    0.20
  -4   4  10    4.71    0.24
  -4   4  10    4.30    0.19
   3  -4 -10    0.96    0.08
   3  -4 -10    0.86    0.12
   3  -4 -10    0.82    0.08
  -3   4  10    0.80    0.08
   2  -4 -10    0.63    0.10
   2  -4 -10    0.57    0.05
   2  -4 -10    0.59    0.05
  -2   4  10    0.55    0.07
   1  -4 -10    5.56    0.28
  -1   4  10    5.41    0.20
   0  -4 -10   19.49    0.75
   0   4  10   19.92    0.60
  -1  -4 -10    5.17    0.28
   1   4  10    5.14    0.20
  -2  -4 -10    0.73    0.12
   2   4  10    0.57    0.10
   2   4  10    0.62    0.07
  -3  -4 -10    0.46    0.11
   3   4  10    0.60    0.08
   3   4  10    0.55    0.11
  -4  -4 -10    0.85    0.18
   4   4  10    0.82    0.10
   4   4  10    0.77    0.12
  -5  -4 -10    2.30    0.29
   5   4  10    2.58    0.20
  10  -5 -10    0.11    0.09
 -10   5  10    0.40    0.12
   9  -5 -10    0.06    0.07
  -9   5  10    0.02    0.05
  -9   5  10    0.02    0.09
   8  -5 -10    0.54    0.10
  -8   5  10    0.43    0.11
  -8   5  10    0.52    0.09
   7  -5 -10    7.21    0.33
  -7   5  10    7.01    0.28
  -7   5  10    7.85    0.36
   6  -5 -10   12.91    0.49
  -6   5  10   12.29    0.44
  -6   5  10   14.61    0.54
   5  -5 -10   11.79    0.45
  -5   5  10   11.26    0.47
  -5   5  10   12.45    0.41
   4  -5 -10    0.46    0.08
  -4   5  10    0.44    0.09
  -4   5  10    0.55    0.07
   3  -5 -10    0.54    0.10
   3  -5 -10    0.47    0.07
  -3   5  10    0.50    0.07
   2  -5 -10    7.01    0.26
   2  -5 -10    7.34    0.35
   2  -5 -10    6.96    0.26
  -2   5  10    6.89    0.26
   1  -5 -10    9.30    0.30
   1  -5 -10    9.57    0.43
  -1   5  10    9.25    0.32
   0  -5 -10    0.06    0.07
   0   5  10    0.06    0.05
  -1  -5 -10    0.07    0.07
   1   5  10    0.02    0.05
   2   5  10    1.23    0.14
   2   5  10    1.41    0.11
   3   5  10    4.56    0.21
   3   5  10    4.22    0.25
  -4  -5 -10    4.75    0.35
   4   5  10    3.85    0.25
   4   5  10    4.02    0.21
  10  -6 -10    1.92    0.20
 -10   6  10    2.04    0.21
   9  -6 -10    0.30    0.09
  -9   6  10    0.29    0.07
  -9   6  10    0.28    0.11
   8  -6 -10    4.77    0.27
  -8   6  10    4.91    0.23
  -8   6  10    5.01    0.29
   7  -6 -10   10.54    0.43
  -7   6  10   10.67    0.46
  -7   6  10    9.90    0.37
   6  -6 -10    2.44    0.17
  -6   6  10    2.49    0.15
  -6   6  10    2.23    0.19
   5  -6 -10    1.16    0.12
  -5   6  10    0.93    0.10
  -5   6  10    1.12    0.14
   4  -6 -10   17.02    0.59
  -4   6  10   16.08    0.53
   3  -6 -10    6.10    0.26
  -3   6  10    6.40    0.25
   2  -6 -10    6.82    0.27
  -2   6  10    6.46    0.26
   1  -6 -10    3.96    0.17
   1  -6 -10    4.19    0.17
  -1   6  10    3.51    0.18
   0   6  10    1.97    0.13
   1   6  10    1.62    0.16
   1   6  10    1.80    0.13
   2   6  10    1.94    0.18
   2   6  10    1.70    0.13
   3   6  10    0.98    0.11
  10  -7 -10    4.00    0.26
 -10   7  10    3.95    0.27
   9  -7 -10    1.84    0.18
  -9   7  10    1.90    0.20
   8  -7 -10    4.92    0.27
  -8   7  10    5.31    0.23
  -8   7  10    4.62    0.29
   7  -7 -10    0.26    0.08
  -7   7  10    0.21    0.09
  -7   7  10    0.19    0.07
   6  -7 -10    1.26    0.14
  -6   7  10    1.52    0.17
  -6   7  10    1.20    0.12
   5  -7 -10    0.00    0.06
  -5   7  10    0.03    0.08
  -5   7  10    0.00    0.05
   4  -7 -10    3.35    0.19
  -4   7  10    2.70    0.16
   3  -7 -10    4.47    0.22
  -3   7  10    3.87    0.19
   2  -7 -10    0.34    0.07
  -2   7  10    0.26    0.07
   1  -7 -10    3.41    0.17
  -1   7  10    3.48    0.18
   0  -7 -10    5.76    0.22
   0   7  10    5.21    0.24
   1   7  10    0.81    0.10
   2   7  10    0.42    0.09
   9  -8 -10    1.11    0.15
  -9   8  10    0.61    0.14
   8  -8 -10    0.12    0.08
  -8   8  10    0.18    0.07
  -8   8  10    0.07    0.10
   7  -8 -10    4.50    0.26
  -7   8  10    4.46    0.28
  -7   8  10    4.69    0.22
   6  -8 -10    5.55    0.30
  -6   8  10    6.14    0.32
  -6   8  10    5.74    0.25
   5  -8 -10    0.47    0.09
  -5   8  10    0.24    0.10
  -5   8  10    0.35    0.08
   4  -8 -10    0.31    0.08
  -4   8  10    0.28    0.07
   3  -8 -10    0.67    0.10
  -3   8  10    0.63    0.09
   2  -8 -10    2.83    0.17
  -2   8  10    2.68    0.16
   1  -8 -10    8.17    0.33
  -1   8  10    8.45    0.33
   0  -8 -10    4.06    0.19
   0   8  10    3.51    0.20
  -1  -8 -10   -0.01    0.04
   1   8  10   -0.09    0.06
   9  -9 -10    0.51    0.12
  -9   9  10    0.41    0.13
   8  -9 -10    3.04    0.22
  -8   9  10    3.26    0.25
   7  -9 -10    4.42    0.27
  -7   9  10    4.59    0.23
  -7   9  10    5.25    0.30
   6  -9 -10    0.69    0.12
  -6   9  10    0.57    0.10
  -6   9  10    0.74    0.14
   5  -9 -10    0.50    0.10
  -5   9  10    0.63    0.10
   4  -9 -10    1.45    0.15
  -4   9  10    1.37    0.13
   3  -9 -10    3.78    0.21
  -3   9  10    3.54    0.20
   2  -9 -10    1.71    0.15
  -2   9  10    1.55    0.14
   1  -9 -10    0.15    0.07
  -1   9  10    0.16    0.08
   0  -9 -10    0.11    0.06
   0   9  10    0.15    0.08
  -1  -9 -10    0.22    0.06
   8 -10 -10    3.15    0.24
  -8  10  10    3.36    0.26
   7 -10 -10    0.34    0.11
  -7  10  10    0.39    0.13
   6 -10 -10    0.56    0.12
  -6  10  10    0.56    0.10
  -6  10  10    0.61    0.14
   5 -10 -10    1.61    0.16
  -5  10  10    1.71    0.15
   4 -10 -10    1.22    0.14
  -4  10  10    1.31    0.14
   3 -10 -10    1.99    0.16
  -3  10  10    1.58    0.15
   2 -10 -10   -0.10    0.06
  -2  10  10    0.07    0.08
   1 -10 -10    0.72    0.11
  -1  10  10    0.99    0.13
   6 -11 -10    2.96    0.22
  -6  11  10    3.07    0.25
   5 -11 -10    0.98    0.14
  -5  11  10    0.65    0.11
   4 -11 -10    0.32    0.10
  -4  11  10    0.19    0.09
   3 -11 -10    0.18    0.09
  -3 -11  11    1.00    0.11
   2  11 -11    1.83    0.21
  -2 -11  11    1.95    0.13
   1  11 -11    4.13    0.27
  -1 -11  11    4.17    0.19
   0  11 -11    1.01    0.14
   0  11 -11    0.72    0.12
   0 -11  11    1.14    0.10
  -1  11 -11    0.17    0.08
  -1  11 -11    0.04    0.07
  -2  11 -11    2.69    0.19
  -2  11 -11    2.48    0.19
  -3  11 -11    5.45    0.28
  -3  11 -11    5.55    0.28
  -4 -10  11    4.17    0.21
  -3 -10  11    5.60    0.24
   2  10 -11    0.98    0.15
  -2 -10  11    0.98    0.10
   1  10 -11    0.02    0.07
   1  10 -11   -0.02    0.07
  -1 -10  11   -0.04    0.04
   0  10 -11    0.71    0.11
   0  10 -11    0.58    0.11
  -1  10 -11    3.18    0.21
  -1  10 -11    3.49    0.21
   1 -10  11    3.35    0.20
  -2  10 -11    4.72    0.25
  -2  10 -11    4.77    0.25
  -3  10 -11    0.11    0.06
  -3  10 -11    0.16    0.06
  -4  10 -11    0.49    0.08
  -4  10 -11    0.49    0.07
   6   9 -11    0.40    0.06
  -5  -9  11    4.71    0.23
  -4  -9  11    7.88    0.31
   3   9 -11    2.51    0.21
  -3  -9  11    2.90    0.15
   2   9 -11   -0.05    0.06
   2   9 -11   -0.11    0.06
  -2  -9  11   -0.06    0.04
   1   9 -11    1.26    0.14
   1   9 -11    1.13    0.14
  -1  -9  11    1.11    0.08
   0   9 -11    3.74    0.22
   0   9 -11    3.76    0.22
   0  -9  11    3.91    0.20
  -1   9 -11    8.14    0.37
  -1   9 -11    8.99    0.37
   1  -9  11    8.71    0.33
  -2   9 -11    1.39    0.11
  -2   9 -11    1.20    0.11
  -3   9 -11    1.35    0.10
  -3   9 -11    1.20    0.10
   3  -9  11    1.40    0.16
  -4   9 -11    1.77    0.11
  -4   9 -11    1.89    0.12
   4  -9  11    1.94    0.19
  -5   9 -11    1.24    0.09
  -5   9 -11    1.25    0.09
   6   8 -11    4.17    0.18
  -6  -8  11    3.83    0.21
  -5  -8  11    4.82    0.23
   4   8 -11    0.25    0.10
  -4  -8  11    0.36    0.07
   3   8 -11    1.58    0.17
   3   8 -11    1.44    0.16
  -3  -8  11    1.75    0.11
   2   8 -11    6.45    0.31
   2   8 -11    5.87    0.31
  -2  -8  11    6.04    0.22
   1   8 -11    5.47    0.28
   1   8 -11    5.69    0.28
  -1  -8  11    5.89    0.25
   0   8 -11    7.12    0.32
   0   8 -11    7.34    0.32
   0  -8  11    7.58    0.29
  -1   8 -11    0.22    0.06
  -1   8 -11    0.26    0.06
   1  -8  11    0.27    0.06
   1  -8  11    0.25    0.08
  -2   8 -11    4.50    0.20
  -2   8 -11    4.37    0.20
   2  -8  11    4.26    0.24
   2  -8  11    4.34    0.19
  -3   8 -11    2.38    0.12
  -3   8 -11    2.11    0.11
   3  -8  11    2.43    0.18
  -4   8 -11    0.87    0.06
   4  -8  11    1.12    0.15
   7   7 -11    0.93    0.11
  -7  -7  11    0.62    0.10
   6   7 -11    1.60    0.11
  -6  -7  11    1.70    0.13
  -5  -7  11    0.33    0.08
   4   7 -11    6.74    0.35
  -4  -7  11    6.68    0.26
   3   7 -11    5.93    0.30
   3   7 -11    5.93    0.31
  -3  -7  11    5.90    0.22
   2   7 -11    0.57    0.09
   2   7 -11    0.39    0.08
  -2  -7  11    0.61    0.05
  -2  -7  11    0.59    0.08
   1   7 -11    0.54    0.09
   1   7 -11    0.59    0.09
  -1  -7  11    0.71    0.08
   0   7 -11   -0.02    0.04
   0   7 -11   -0.02    0.04
   0  -7  11   -0.04    0.04
   0  -7  11    0.06    0.06
  -1   7 -11    8.17    0.32
  -1   7 -11    8.22    0.32
   1  -7  11    8.10    0.28
   1  -7  11    8.48    0.34
  -2   7 -11   14.98    0.51
  -2   7 -11   14.76    0.51
   2  -7  11   15.25    0.55
   2  -7  11   14.87    0.47
   3  -7  11    4.12    0.24
   4  -7  11    0.07    0.08
   4  -7  11    0.05    0.03
   5  -7  11    0.18    0.05
   6  -7  11    1.06    0.09
   8   6 -11    1.33    0.14
  -8  -6  11    1.40    0.14
   7   6 -11    0.17    0.07
  -7  -6  11   -0.01    0.06
   6   6 -11    1.15    0.10
  -6  -6  11    0.90    0.11
   5   6 -11   11.77    0.52
  -5  -6  11   11.64    0.40
   4   6 -11   16.89    0.66
   4   6 -11   16.63    0.66
  -4  -6  11   16.70    0.53
   3   6 -11    1.99    0.16
   3   6 -11    1.99    0.15
  -3  -6  11    1.84    0.10
  -3  -6  11    2.01    0.14
   2   6 -11    0.44    0.08
   2   6 -11    0.44    0.08
  -2  -6  11    0.40    0.07
   1   6 -11    1.63    0.12
   1   6 -11    1.67    0.12
  -1  -6  11    1.92    0.11
  -1  -6  11    1.87    0.11
   0   6 -11   11.48    0.43
   0   6 -11   11.52    0.43
   0  -6  11   11.53    0.38
   0  -6  11   12.18    0.43
  -1   6 -11   12.88    0.46
  -1   6 -11   13.85    0.47
   1  -6  11   14.08    0.50
   1  -6  11   13.44    0.42
   2  -6  11    1.93    0.08
   2  -6  11    1.97    0.15
   3  -6  11    0.65    0.11
   4  -6  11    0.28    0.10
   4  -6  11    0.37    0.04
   5  -6  11    1.52    0.09
   5  -6  11    1.80    0.19
   6  -6  11    2.71    0.14
   8   5 -11    1.42    0.15
  -8  -5  11    1.59    0.14
   7   5 -11    1.35    0.12
  -7  -5  11    1.57    0.12
   6   5 -11    4.82    0.21
  -6  -5  11    4.81    0.22
   5   5 -11   15.03    0.62
  -5  -5  11   15.20    0.49
   4   5 -11    4.96    0.28
   4   5 -11    5.80    0.30
  -4  -5  11    5.75    0.21
   3   5 -11    0.12    0.06
   3   5 -11    0.02    0.05
  -3  -5  11    0.18    0.06
  -3  -5  11    0.15    0.04
   2   5 -11    0.11    0.06
   2   5 -11    0.06    0.05
  -2  -5  11    0.12    0.04
  -2  -5  11    0.09    0.05
   1   5 -11   11.06    0.41
   1   5 -11   10.68    0.41
  -1  -5  11   10.90    0.39
  -1  -5  11   11.24    0.36
   0   5 -11    3.90    0.17
   0   5 -11    4.04    0.18
   0  -5  11    3.90    0.20
   0  -5  11    4.18    0.15
   1  -5  11    0.03    0.06
   2  -5  11    4.13    0.23
   3  -5  11   12.32    0.49
   4  -5  11    4.18    0.15
   4  -5  11    4.11    0.25
   5  -5  11    1.96    0.11
   5  -5  11    2.27    0.19
  -6   5 -11   -0.05    0.03
   6  -5  11   -0.02    0.04
   9   4 -11    3.69    0.23
  -9  -4  11    3.92    0.21
   8   4 -11    5.05    0.26
  -8  -4  11    5.24    0.24
   7   4 -11    5.90    0.26
  -7  -4  11    5.74    0.25
   6   4 -11    7.11    0.37
   6   4 -11    6.70    0.27
  -6  -4  11    6.94    0.27
   5   4 -11    0.89    0.13
   5   4 -11    0.79    0.13
  -5  -4  11    0.80    0.08
   4   4 -11   19.74    0.78
   4   4 -11   22.21    0.79
  -4  -4  11   21.02    0.62
  -4  -4  11   20.62    0.68
   3   4 -11   12.34    0.48
   3   4 -11   11.86    0.48
  -3  -4  11   12.14    0.38
  -3  -4  11   11.64    0.35
  -3  -4  11   11.59    0.41
   2   4 -11    0.08    0.05
   2   4 -11    0.00    0.04
  -2  -4  11    0.15    0.05
  -2  -4  11   -0.06    0.04
   1   4 -11    5.24    0.22
   1   4 -11    4.71    0.22
   1   4 -11    5.30    0.22
  -1  -4  11    5.37    0.19
   0   4 -11    5.24    0.20
   0   4 -11    5.24    0.24
   0   4 -11    5.30    0.20
   0  -4  11    4.98    0.17
  -1   4 -11    8.30    0.36
  -2   4 -11   18.53    0.70
  -3   4 -11    3.10    0.23
   4  -4  11    1.25    0.07
   4  -4  11    1.40    0.16
   5  -4  11    0.03    0.04
   5  -4  11   -0.02    0.08
  -6   4 -11    2.45    0.14
   6  -4  11    2.38    0.14
   9   3 -11    3.80    0.23
  -9  -3  11    3.50    0.20
   8   3 -11    1.80    0.14
  -8  -3  11    1.60    0.13
   7   3 -11    1.87    0.13
  -7  -3  11    1.64    0.12
   6   3 -11    0.70    0.12
   6   3 -11    0.88    0.09
  -6  -3  11    0.80    0.09
   5   3 -11   16.19    0.62
   5   3 -11   14.34    0.61
   5   3 -11   14.77    0.48
  -5  -3  11   15.45    0.48
   4   3 -11   14.32    0.56
  -4  -3  11   14.34    0.49
  -4  -3  11   14.44    0.44
   3   3 -11    3.24    0.19
  -3  -3  11    3.51    0.17
  -3  -3  11    3.60    0.12
   2   3 -11    0.44    0.06
   2   3 -11    0.51    0.07
  -2  -3  11    0.38    0.06
   1   3 -11   31.33    1.06
   1   3 -11   30.59    1.07
  -1  -3  11   33.34    0.93
   0   3 -11    0.75    0.06
   0   3 -11    0.86    0.10
  -1   3 -11   12.52    0.50
  -2   3 -11    2.28    0.18
  -3   3 -11    0.03    0.08
  -4   3 -11    0.15    0.09
   4  -3  11    0.06    0.04
   5  -3  11    5.58    0.22
  -6   3 -11    1.58    0.12
   6  -3  11    1.77    0.12
  10   2 -11   10.57    0.46
 -10  -2  11   10.12    0.39
   9   2 -11    0.15    0.08
  -9  -2  11    0.20    0.07
   8   2 -11    0.83    0.11
  -8  -2  11    1.04    0.11
   7   2 -11    0.75    0.09
  -7  -2  11    0.76    0.09
   6   2 -11    4.77    0.20
  -6  -2  11    4.27    0.19
   5   2 -11   24.28    0.76
   5   2 -11   25.01    0.90
   5   2 -11   24.38    0.77
  -5  -2  11   24.24    0.73
   4   2 -11    0.38    0.09
  -4  -2  11    0.58    0.06
  -4  -2  11    0.48    0.08
   3   2 -11    2.66    0.16
  -3  -2  11    2.29    0.13
  -3  -2  11    2.60    0.09
   2   2 -11    4.32    0.21
  -2  -2  11    4.77    0.18
   1   2 -11   39.39    1.32
  -1  -2  11   40.47    1.16
   0   2 -11    7.71    0.34
   0   2 -11    7.42    0.28
  -1   2 -11    2.95    0.20
  -1   2 -11    2.73    0.13
  -2   2 -11    3.28    0.14
  -2   2 -11    3.32    0.22
  -3   2 -11    2.42    0.21
  -4   2 -11    0.16    0.10
   4  -2  11    0.26    0.05
  -5   2 -11    5.18    0.33
   5  -2  11    4.12    0.19
  -6   2 -11    0.10    0.11
   6  -2  11    0.02    0.06
  10   1 -11    0.24    0.10
 -10  -1  11    0.18    0.08
   9   1 -11    1.86    0.17
  -9  -1  11    1.98    0.14
   8   1 -11    6.21    0.29
  -8  -1  11    6.33    0.26
   7   1 -11   12.12    0.45
  -7  -1  11   12.35    0.42
   6   1 -11   17.71    0.59
  -6  -1  11   17.34    0.55
   5   1 -11    0.38    0.09
   5   1 -11    0.15    0.04
   5   1 -11    0.21    0.04
  -5  -1  11    0.28    0.07
  -5  -1  11    0.23    0.05
   4   1 -11   10.22    0.43
  -4  -1  11   10.55    0.33
  -4  -1  11   10.17    0.37
   3   1 -11   10.11    0.42
  -3  -1  11   10.64    0.31
  -3  -1  11   10.71    0.36
   2   1 -11   12.64    0.48
  -2  -1  11   13.01    0.42
   1   1 -11   13.38    0.49
   0   1 -11    0.05    0.04
  -1   1 -11   13.93    0.50
  -1   1 -11   13.95    0.56
  -2   1 -11   11.52    0.50
  -2   1 -11   11.29    0.41
  -3   1 -11    3.57    0.17
  -3   1 -11    3.37    0.25
   3  -1  11    3.39    0.16
  -4   1 -11    0.46    0.12
   4  -1  11    0.47    0.07
  -5   1 -11    0.14    0.11
   5  -1  11    0.10    0.06
  -6   1 -11    2.18    0.25
   6  -1  11    2.12    0.15
  10   0 -11    4.41    0.26
 -10   0  11    4.83    0.23
   9   0 -11    3.65    0.22
  -9   0  11    3.68    0.19
   8   0 -11    1.57    0.13
  -8   0  11    1.74    0.13
   7   0 -11    1.32    0.12
  -7   0  11    1.31    0.11
   6   0 -11    0.37    0.07
  -6   0  11    0.34    0.07
   5   0 -11    6.18    0.23
   5   0 -11    5.71    0.30
   5   0 -11    6.33    0.24
  -5   0  11    6.07    0.23
  -5   0  11    6.63    0.27
   4   0 -11   11.08    0.47
  -4   0  11   11.59    0.40
  -4   0  11   11.57    0.36
   3   0 -11    3.12    0.18
  -3   0  11    3.14    0.15
  -3   0  11    3.15    0.11
   2   0 -11    0.04    0.04
  -2   0  11    0.03    0.04
   1   0 -11    2.03    0.13
   0   0 -11   14.00    0.51
  -1   0 -11   17.26    0.62
  -2   0 -11    2.55    0.15
  -2   0 -11    2.73    0.22
  -3   0 -11   -0.05    0.08
  -3   0 -11    0.05    0.04
   3   0  11   -0.02    0.04
  -4   0 -11    0.07    0.06
  -4   0 -11    0.05    0.09
   4   0  11    0.11    0.06
  -5   0 -11    2.24    0.26
   5   0  11    2.31    0.16
  -6   0 -11    4.20    0.33
   6   0  11    4.20    0.23
  10  -1 -11    4.03    0.25
 -10   1  11    3.62    0.27
 -10   1  11    4.24    0.21
   9  -1 -11   -0.10    0.06
  -9   1  11    0.01    0.05
   8  -1 -11   -0.06    0.05
  -8   1  11    0.06    0.05
   7  -1 -11    3.75    0.20
  -7   1  11    3.48    0.18
   6  -1 -11   21.89    0.73
  -6   1  11   22.04    0.68
   5  -1 -11   16.43    0.65
   5  -1 -11   16.90    0.55
   5  -1 -11   16.32    0.55
  -5   1  11   16.65    0.52
   4  -1 -11    2.12    0.16
  -4   1  11    1.68    0.12
  -4   1  11    1.57    0.09
   3  -1 -11    0.08    0.05
  -3   1  11    0.00    0.04
  -3   1  11    0.06    0.03
   2  -1 -11    1.30    0.11
  -2   1  11    1.23    0.05
   1  -1 -11   17.56    0.64
   0  -1 -11   19.74    0.71
  -1  -1 -11    1.28    0.12
  -2  -1 -11    0.20    0.07
  -2  -1 -11    0.30    0.10
  -3  -1 -11    2.42    0.22
  -3  -1 -11    2.36    0.16
   3   1  11    2.47    0.15
  -4  -1 -11    3.54    0.28
  -4  -1 -11    3.27    0.20
   4   1  11    3.14    0.19
  -5  -1 -11    1.11    0.19
  -5  -1 -11    0.93    0.12
   5   1  11    0.79    0.12
  10  -2 -11    0.28    0.10
 -10   2  11   -0.08    0.08
 -10   2  11    0.28    0.08
   9  -2 -11    2.19    0.17
  -9   2  11    2.41    0.15
  -9   2  11    2.27    0.20
   8  -2 -11    1.33    0.14
  -8   2  11    1.46    0.12
   7  -2 -11    8.45    0.34
  -7   2  11    7.60    0.30
   6  -2 -11   10.08    0.38
  -6   2  11    9.78    0.35
   5  -2 -11    0.11    0.07
   5  -2 -11    0.09    0.05
   5  -2 -11    0.11    0.04
  -5   2  11    0.13    0.05
   4  -2 -11   10.77    0.36
   4  -2 -11   11.18    0.47
   4  -2 -11   11.24    0.37
  -4   2  11   11.53    0.40
  -4   2  11   10.90    0.36
   3  -2 -11    8.44    0.38
  -3   2  11    9.24    0.29
  -3   2  11    8.97    0.33
   2  -2 -11    3.53    0.20
  -2   2  11    3.75    0.14
   1  -2 -11   10.57    0.43
  -1   2  11   10.43    0.31
   0  -2 -11    2.85    0.18
  -1  -2 -11    2.20    0.17
  -2  -2 -11    2.03    0.16
  -3  -2 -11    0.95    0.16
  -3  -2 -11    0.75    0.11
   3   2  11    0.64    0.10
  -4  -2 -11    0.91    0.13
  -4  -2 -11    1.03    0.18
   4   2  11    0.97    0.08
   4   2  11    0.91    0.12
  -5  -2 -11    0.00    0.10
  -5  -2 -11   -0.04    0.07
   5   2  11    0.00    0.07
   5   2  11   -0.09    0.05
  10  -3 -11    3.22    0.22
 -10   3  11    2.73    0.23
 -10   3  11    3.08    0.18
   9  -3 -11    3.62    0.23
  -9   3  11    4.06    0.20
  -9   3  11    3.95    0.26
   8  -3 -11    3.54    0.21
  -8   3  11    4.41    0.26
  -8   3  11    3.85    0.20
   7  -3 -11    7.08    0.31
  -7   3  11    7.02    0.28
   6  -3 -11    0.50    0.08
  -6   3  11    0.43    0.07
   5  -3 -11   12.28    0.52
   5  -3 -11   12.84    0.45
  -5   3  11   12.27    0.41
   4  -3 -11   10.87    0.37
   4  -3 -11    9.64    0.37
   4  -3 -11   11.28    0.46
  -4   3  11   11.10    0.35
   3  -3 -11    6.16    0.30
  -3   3  11    6.03    0.25
  -3   3  11    6.35    0.23
   2  -3 -11    1.94    0.15
  -2   3  11    2.08    0.10
   1  -3 -11    2.84    0.18
  -1   3  11    3.00    0.12
   0  -3 -11   12.18    0.51
   0   3  11   12.95    0.39
  -1  -3 -11   10.43    0.46
   1   3  11   10.70    0.34
  -2  -3 -11    2.22    0.18
   2   3  11    2.51    0.12
  -3  -3 -11    0.05    0.10
  -3  -3 -11    0.11    0.08
   3   3  11    0.15    0.07
   3   3  11    0.33    0.06
  -4  -3 -11    0.36    0.10
  -4  -3 -11    0.66    0.16
   4   3  11    0.43    0.07
   4   3  11    0.46    0.10
  10  -4 -11    4.84    0.28
 -10   4  11    5.01    0.31
   9  -4 -11   -0.05    0.07
  -9   4  11   -0.11    0.07
  -9   4  11    0.04    0.06
   8  -4 -11    0.12    0.07
  -8   4  11    0.09    0.06
  -8   4  11    0.20    0.10
   7  -4 -11    0.55    0.09
  -7   4  11    0.55    0.09
   6  -4 -11   11.55    0.44
  -6   4  11   12.01    0.41
   5  -4 -11    9.03    0.35
  -5   4  11    8.79    0.32
   4  -4 -11    1.77    0.15
   4  -4 -11    1.43    0.10
  -4   4  11    1.48    0.11
   3  -4 -11    0.08    0.06
   3  -4 -11   -0.04    0.03
   3  -4 -11   -0.01    0.03
  -3   4  11    0.05    0.05
   2  -4 -11    0.17    0.07
  -2   4  11    0.21    0.05
   1  -4 -11    3.08    0.20
  -1   4  11    3.03    0.14
   0  -4 -11    6.25    0.32
   0   4  11    6.14    0.23
  -1  -4 -11    0.73    0.12
   1   4  11    0.86    0.08
  -2  -4 -11    0.34    0.09
   2   4  11    0.51    0.07
   2   4  11    0.43    0.09
  -3  -4 -11    1.11    0.19
   3   4  11    0.92    0.10
   3   4  11    1.04    0.14
  -4  -4 -11    2.54    0.28
   4   4  11    2.35    0.15
   4   4  11    2.36    0.19
  10  -5 -11    0.70    0.13
 -10   5  11    0.34    0.12
   9  -5 -11    1.13    0.14
  -9   5  11    0.82    0.15
  -9   5  11    1.05    0.11
   8  -5 -11    1.77    0.16
  -8   5  11    1.70    0.18
  -8   5  11    1.64    0.13
   7  -5 -11   11.80    0.48
  -7   5  11   12.04    0.43
  -7   5  11   13.07    0.52
   6  -5 -11   26.50    0.89
  -6   5  11   26.32    0.81
   5  -5 -11    1.91    0.14
  -5   5  11    1.76    0.13
   4  -5 -11    1.30    0.11
  -4   5  11    1.29    0.11
   3  -5 -11    3.06    0.15
   3  -5 -11    3.08    0.15
   2  -5 -11    6.24    0.21
   2  -5 -11    5.77    0.31
  -2   5  11    5.80    0.23
   1  -5 -11    2.31    0.18
  -1   5  11    2.21    0.13
   0  -5 -11    1.40    0.16
   0   5  11    1.34    0.10
   1   5  11    2.43    0.14
   2   5  11    1.89    0.13
   2   5  11    1.82    0.18
   3   5  11    1.12    0.12
   3   5  11    1.48    0.17
  10  -6 -11    1.25    0.16
 -10   6  11    1.03    0.17
   9  -6 -11    4.90    0.28
  -9   6  11    5.06    0.24
  -9   6  11    5.52    0.32
   8  -6 -11    3.54    0.22
  -8   6  11    4.17    0.20
  -8   6  11    4.03    0.26
   7  -6 -11    4.46    0.25
  -7   6  11    5.08    0.28
  -7   6  11    4.65    0.22
   6  -6 -11    2.73    0.19
  -6   6  11    3.01    0.17
   5  -6 -11   13.36    0.50
  -5   6  11   12.76    0.45
   4  -6 -11    6.08    0.27
  -4   6  11    6.08    0.25
   3  -6 -11    4.60    0.22
  -3   6  11    5.35    0.22
   2  -6 -11    1.08    0.09
  -2   6  11    0.87    0.10
  -1   6  11    1.29    0.11
   0   6  11    0.98    0.10
   1   6  11    4.27    0.21
   1   6  11    4.69    0.26
   2   6  11    1.55    0.14
   2   6  11    1.63    0.17
   3   6  11    0.35    0.09
   9  -7 -11    0.14    0.09
  -9   7  11    0.40    0.12
   8  -7 -11    1.23    0.15
  -8   7  11    1.48    0.13
  -8   7  11    1.17    0.16
   7  -7 -11    0.11    0.07
  -7   7  11    0.05    0.06
   6  -7 -11    2.95    0.19
  -6   7  11    2.49    0.16
   5  -7 -11    5.15    0.26
  -5   7  11    5.31    0.24
   4  -7 -11    2.66    0.17
  -4   7  11    2.44    0.16
   3  -7 -11   -0.04    0.05
  -3   7  11   -0.01    0.05
   2  -7 -11    1.37    0.11
  -2   7  11    1.53    0.12
   1  -7 -11    6.88    0.25
  -1   7  11    6.37    0.27
   0   7  11    1.99    0.14
   1   7  11    0.06    0.06
   2   7  11   -0.05    0.06
   9  -8 -11    0.77    0.13
  -9   8  11    0.88    0.16
   8  -8 -11    0.39    0.11
  -8   8  11    0.70    0.11
  -8   8  11    0.54    0.14
   7  -8 -11    4.14    0.25
  -7   8  11    4.12    0.21
   6  -8 -11    4.49    0.25
  -6   8  11    4.12    0.21
   5  -8 -11    0.00    0.06
  -5   8  11    0.08    0.07
   4  -8 -11    0.06    0.07
  -4   8  11    0.01    0.06
   3  -8 -11    2.21    0.16
  -3   8  11    2.13    0.15
   2  -8 -11    2.25    0.15
  -2   8  11    2.45    0.16
   1  -8 -11    5.09    0.22
  -1   8  11    4.34    0.23
   0   8  11    1.36    0.14
   1   8  11    0.42    0.09
   8  -9 -11    2.98    0.22
  -8   9  11    2.97    0.24
   7  -9 -11    2.88    0.22
  -7   9  11    3.09    0.18
   6  -9 -11    0.04    0.07
  -6   9  11    0.00    0.07
   5  -9 -11    0.62    0.11
  -5   9  11    0.80    0.11
   4  -9 -11    0.49    0.09
  -4   9  11    0.59    0.10
   3  -9 -11    1.98    0.16
  -3   9  11    2.16    0.16
   2  -9 -11    0.42    0.09
  -2   9  11    0.54    0.10
   1  -9 -11    0.22    0.07
  -1   9  11    0.12    0.08
   0  -9 -11    1.33    0.10
   0   9  11    1.09    0.13
   7 -10 -11    0.33    0.11
   6 -10 -11    1.63    0.17
  -6  10  11    1.94    0.15
   5 -10 -11    1.40    0.15
  -5  10  11    1.15    0.13
   4 -10 -11    0.17    0.08
  -4  10  11    0.22    0.08
   3 -10 -11   -0.03    0.07
  -3  10  11   -0.05    0.07
   2 -10 -11    0.19    0.09
  -2  10  11    0.13    0.08
   2  11 -12    3.03    0.25
  -2 -11  12    3.70    0.18
   1  11 -12    0.15    0.08
  -1 -11  12    0.00    0.05
   0  11 -12    0.72    0.12
   0  11 -12    1.11    0.15
   0 -11  12    0.92    0.09
  -1  11 -12    0.28    0.09
  -1  11 -12    0.29    0.09
  -4 -10  12    2.77    0.17
   3  10 -12    4.81    0.31
  -3 -10  12    5.04    0.22
   2  10 -12    0.00    0.08
  -2 -10  12    0.01    0.05
   1  10 -12    2.61    0.20
   1  10 -12    2.39    0.20
  -1 -10  12    2.47    0.13
   0  10 -12    1.14    0.13
   0  10 -12    1.01    0.13
  -1  10 -12    2.69    0.18
  -1  10 -12    2.53    0.18
   1 -10  12    2.79    0.17
  -2  10 -12    1.86    0.14
  -2  10 -12    2.07    0.15
  -3  10 -12    0.05    0.05
  -3  10 -12    0.04    0.05
  -5  -9  12    4.88    0.24
  -4  -9  12    1.01    0.11
   3   9 -12    0.17    0.09
  -3  -9  12   -0.05    0.05
   2   9 -12    2.84    0.21
   2   9 -12    2.86    0.21
  -2  -9  12    3.04    0.14
   1   9 -12    3.82    0.24
   1   9 -12    3.73    0.23
   0   9 -12    5.34    0.27
   0   9 -12    5.20    0.26
   0  -9  12    5.27    0.24
  -1   9 -12    1.66    0.13
  -1   9 -12    1.36    0.12
   1  -9  12    1.39    0.12
  -2   9 -12    0.01    0.04
  -2   9 -12    0.04    0.04
   2  -9  12   -0.07    0.07
  -3   9 -12    2.49    0.13
  -3   9 -12    2.79    0.13
   3  -9  12    3.00    0.21
  -6  -8  12    1.59    0.14
  -5  -8  12    2.31    0.15
   4   8 -12    1.10    0.15
  -4  -8  12    1.28    0.11
   3   8 -12    6.53    0.35
   3   8 -12    7.12    0.36
  -3  -8  12    7.35    0.26
   2   8 -12    4.18    0.25
   2   8 -12    4.27    0.25
  -2  -8  12    4.41    0.17
   1   8 -12    2.72    0.18
   1   8 -12    2.59    0.18
  -1  -8  12    2.74    0.16
   0   8 -12    1.17    0.12
   0   8 -12    1.25    0.11
   0  -8  12    1.31    0.11
  -1   8 -12    1.61    0.12
  -1   8 -12    1.51    0.11
   1  -8  12    1.67    0.11
   1  -8  12    1.64    0.15
  -2   8 -12    6.39    0.25
  -2   8 -12    6.48    0.25
   2  -8  12    7.08    0.25
   2  -8  12    6.54    0.31
   3  -8  12    2.81    0.20
   4  -8  12    0.24    0.09
   7   7 -12   -0.04    0.05
  -7  -7  12    0.05    0.07
  -6  -7  12    0.00    0.06
  -5  -7  12    0.66    0.09
   4   7 -12    9.65    0.45
  -4  -7  12   10.00    0.35
   3   7 -12    8.26    0.39
   3   7 -12    8.64    0.39
  -3  -7  12    8.79    0.29
   2   7 -12    0.91    0.11
   2   7 -12    0.82    0.11
  -2  -7  12    0.81    0.06
  -2  -7  12    0.89    0.10
   1   7 -12    0.14    0.06
   1   7 -12    0.25    0.07
  -1  -7  12    0.19    0.06
   0   7 -12    1.71    0.12
   0   7 -12    1.51    0.11
   0  -7  12    1.34    0.10
   0  -7  12    1.45    0.13
  -1   7 -12    5.21    0.22
  -1   7 -12    5.20    0.22
   1  -7  12    5.52    0.20
   1  -7  12    5.87    0.27
   2  -7  12    8.33    0.37
   2  -7  12    8.28    0.28
   3  -7  12    0.45    0.11
   4  -7  12    0.29    0.11
   5  -7  12    0.35    0.05
   8   6 -12    0.06    0.07
  -8  -6  12   -0.01    0.06
   7   6 -12    2.03    0.13
  -7  -6  12    2.25    0.15
  -6  -6  12    3.56    0.19
   5   6 -12   12.54    0.55
  -5  -6  12   12.65    0.43
   4   6 -12   13.59    0.55
   4   6 -12   12.62    0.55
  -4  -6  12   13.18    0.43
   3   6 -12    0.09    0.06
   3   6 -12   -0.01    0.06
  -3  -6  12    0.09    0.04
  -3  -6  12    0.00    0.05
   2   6 -12    0.55    0.09
   2   6 -12    0.86    0.10
  -2  -6  12    0.65    0.08
   1   6 -12    3.76    0.20
   1   6 -12    4.00    0.20
  -1  -6  12    3.82    0.17
  -1  -6  12    3.76    0.18
   0   6 -12    8.04    0.32
   0   6 -12    8.33    0.32
   0  -6  12    8.23    0.33
   0  -6  12    8.36    0.28
  -1   6 -12    7.79    0.27
   1  -6  12    7.20    0.25
   1  -6  12    7.71    0.33
   2  -6  12    0.32    0.09
   3  -6  12    6.86    0.33
   4  -6  12    2.44    0.20
   4  -6  12    2.10    0.09
   5  -6  12    1.09    0.08
   8   5 -12    2.34    0.16
  -8  -5  12    2.08    0.15
   7   5 -12    2.82    0.15
  -7  -5  12    2.66    0.16
  -6  -5  12    2.75    0.16
   5   5 -12    2.42    0.20
  -5  -5  12    2.50    0.14
   4   5 -12    0.03    0.07
   4   5 -12    0.10    0.07
  -4  -5  12    0.24    0.05
   3   5 -12    7.20    0.34
   3   5 -12    7.33    0.34
  -3  -5  12    7.44    0.24
  -3  -5  12    7.61    0.30
   2   5 -12    3.02    0.18
   2   5 -12    3.01    0.18
  -2  -5  12    3.47    0.16
   1   5 -12    2.01    0.13
   1   5 -12    1.99    0.12
  -1  -5  12    2.08    0.13
  -1  -5  12    1.91    0.11
   0   5 -12    0.87    0.07
   0   5 -12    1.02    0.08
   0  -5  12    0.95    0.11
   0  -5  12    0.86    0.07
   1  -5  12    0.97    0.12
   2  -5  12    4.91    0.26
   3  -5  12    4.50    0.26
   4  -5  12    1.87    0.19
   5  -5  12    0.09    0.04
   9   4 -12    5.69    0.28
  -9  -4  12    5.10    0.25
   8   4 -12    4.34    0.22
  -8  -4  12    4.33    0.22
   7   4 -12    1.62    0.12
  -7  -4  12    1.36    0.12
   6   4 -12    1.59    0.09
   6   4 -12    1.54    0.18
   6   4 -12    1.28    0.08
  -6  -4  12    1.46    0.11
   5   4 -12    0.44    0.10
   5   4 -12    0.39    0.10
  -5  -4  12    0.45    0.07
   4   4 -12   22.03    0.83
   4   4 -12   21.10    0.82
  -4  -4  12   22.46    0.66
  -4  -4  12   22.78    0.72
   3   4 -12   15.07    0.57
   3   4 -12   14.21    0.57
  -3  -4  12   15.84    0.51
  -3  -4  12   14.80    0.44
   2   4 -12    0.03    0.04
   2   4 -12    0.05    0.05
  -2  -4  12    0.01    0.04
   1   4 -12    0.47    0.06
   1   4 -12    0.37    0.06
  -1  -4  12    0.46    0.06
   0   4 -12    2.21    0.15
   0   4 -12    1.98    0.10
   0   4 -12    1.82    0.10
   0  -4  12    1.96    0.09
  -1   4 -12   22.05    0.80
  -2   4 -12   12.79    0.53
  -3   4 -12    0.74    0.14
   4  -4  12    0.09    0.09
   4  -4  12    0.22    0.04
   5  -4  12    0.09    0.04
   9   3 -12    1.71    0.16
  -9  -3  12    1.76    0.15
   8   3 -12    0.05    0.07
  -8  -3  12   -0.03    0.06
   7   3 -12    0.57    0.08
  -7  -3  12    0.53    0.08
   6   3 -12    5.97    0.22
   6   3 -12    5.69    0.22
   6   3 -12    5.75    0.32
  -6  -3  12    5.50    0.23
   5   3 -12    9.12    0.42
  -5  -3  12    9.08    0.31
   4   3 -12   12.29    0.50
  -4  -3  12   12.18    0.44
  -4  -3  12   12.48    0.38
   3   3 -12    1.12    0.12
  -3  -3  12    1.17    0.10
   2   3 -12    2.73    0.15
   2   3 -12    2.54    0.15
  -2  -3  12    2.99    0.14
   1   3 -12    0.08    0.06
   1   3 -12    0.09    0.04
  -1  -3  12    0.07    0.04
   0   3 -12   15.43    0.58
   0   3 -12   15.10    0.52
  -1   3 -12    2.43    0.20
  -2   3 -12    0.03    0.08
  -3   3 -12    1.01    0.15
  -4   3 -12    7.91    0.41
   4  -3  12    7.52    0.27
   5  -3  12    1.97    0.12
   9   2 -12    0.61    0.11
  -9  -2  12    0.69    0.10
   8   2 -12    4.58    0.23
  -8  -2  12    4.62    0.22
   7   2 -12    4.22    0.20
  -7  -2  12    3.79    0.19
   6   2 -12   13.95    0.47
   6   2 -12   14.30    0.46
  -6  -2  12   13.40    0.46
   5   2 -12    7.86    0.37
  -5  -2  12    7.92    0.28
   4   2 -12    1.55    0.15
  -4  -2  12    1.71    0.09
  -4  -2  12    1.54    0.12
   3   2 -12   14.53    0.56
  -3  -2  12   14.76    0.48
   2   2 -12    7.71    0.32
  -2  -2  12    7.86    0.28
   1   2 -12    0.30    0.06
  -1  -2  12    0.51    0.05
   0   2 -12    6.70    0.31
   0   2 -12    6.06    0.24
  -1   2 -12    0.16    0.04
  -1   2 -12    0.25    0.09
  -2   2 -12    7.62    0.28
  -2   2 -12    8.27    0.39
  -3   2 -12    3.88    0.27
  -4   2 -12    3.35    0.26
   4  -2  12    2.92    0.15
  -5   2 -12    1.04    0.18
   5  -2  12    0.80    0.09
  10   1 -12    0.24    0.10
 -10  -1  12    0.21    0.09
   9   1 -12   10.59    0.43
  -9  -1  12   10.05    0.39
   8   1 -12    2.57    0.16
  -8  -1  12    2.26    0.15
   7   1 -12    3.68    0.19
  -7  -1  12    3.63    0.18
   6   1 -12    4.57    0.20
  -6  -1  12    4.75    0.20
   5   1 -12    0.11    0.07
  -5  -1  12    0.11    0.05
   4   1 -12   22.97    0.85
  -4  -1  12   23.64    0.69
  -4  -1  12   23.93    0.75
   3   1 -12    9.31    0.39
  -3  -1  12    8.99    0.33
  -3  -1  12    9.91    0.28
   2   1 -12    0.92    0.10
  -2  -1  12    0.98    0.08
   1   1 -12    0.04    0.04
   0   1 -12   12.29    0.45
  -1   1 -12    1.80    0.12
  -1   1 -12    1.99    0.19
  -2   1 -12    6.65    0.35
  -2   1 -12    6.01    0.25
  -3   1 -12    1.35    0.18
  -3   1 -12    1.40    0.10
   3  -1  12    1.24    0.10
  -4   1 -12    0.09    0.10
   4  -1  12    0.06    0.05
  -5   1 -12    0.09    0.11
   5  -1  12    0.07    0.06
  10   0 -12    4.66    0.27
 -10   0  12    4.70    0.23
   9   0 -12   11.20    0.46
  -9   0  12   11.36    0.41
   8   0 -12    0.09    0.06
  -8   0  12    0.05    0.06
   7   0 -12    0.01    0.05
  -7   0  12    0.03    0.05
   6   0 -12    0.26    0.06
  -6   0  12    0.33    0.07
   5   0 -12    8.69    0.40
  -5   0  12    8.49    0.30
   4   0 -12   19.58    0.74
  -4   0  12   19.85    0.65
  -4   0  12   20.42    0.60
   3   0 -12    0.14    0.06
  -3   0  12    0.24    0.03
  -3   0  12    0.10    0.05
   2   0 -12    1.96    0.14
  -2   0  12    1.92    0.11
   1   0 -12    7.38    0.31
   0   0 -12   32.00    1.08
  -1   0 -12    3.12    0.18
  -2   0 -12    0.01    0.04
  -2   0 -12    0.10    0.09
  -3   0 -12    1.83    0.21
  -3   0 -12    1.51    0.12
   3   0  12    1.56    0.12
  -4   0 -12    1.21    0.12
  -4   0 -12    1.38    0.19
   4   0  12    1.25    0.12
  -5   0 -12    0.43    0.14
   5   0  12    0.46    0.09
  10  -1 -12    1.38    0.16
 -10   1  12    1.52    0.14
   9  -1 -12   -0.11    0.07
  -9   1  12   -0.03    0.07
   8  -1 -12    2.33    0.16
  -8   1  12    2.07    0.14
   7  -1 -12    7.32    0.30
  -7   1  12    6.85    0.28
   6  -1 -12   16.02    0.54
  -6   1  12   15.22    0.50
   5  -1 -12    4.34    0.25
   5  -1 -12    4.05    0.17
   5  -1 -12    4.45    0.16
  -5   1  12    4.42    0.18
   4  -1 -12    1.20    0.13
  -4   1  12    1.20    0.09
  -4   1  12    1.37    0.11
   3  -1 -12    2.63    0.17
  -3   1  12    2.68    0.11
  -3   1  12    2.82    0.15
   2  -1 -12    5.09    0.24
  -2   1  12    4.61    0.15
   1  -1 -12   19.14    0.70
   0  -1 -12   11.67    0.46
  -1  -1 -12    0.09    0.06
  -2  -1 -12    2.73    0.18
  -2  -1 -12    3.05    0.24
  -3  -1 -12    2.74    0.18
  -3  -1 -12    3.49    0.27
   3   1  12    2.89    0.17
  -4  -1 -12    1.47    0.15
  -4  -1 -12    1.43    0.21
   4   1  12    1.42    0.14
  -5  -1 -12   -0.01    0.10
   5   1  12    0.03    0.07
  10  -2 -12    0.04    0.08
 -10   2  12    0.17    0.08
   9  -2 -12    5.76    0.28
  -9   2  12    5.27    0.25
   8  -2 -12    2.96    0.18
  -8   2  12    3.29    0.18
   7  -2 -12    1.24    0.12
  -7   2  12    1.42    0.11
   6  -2 -12    6.20    0.26
  -6   2  12    6.17    0.25
   5  -2 -12   -0.03    0.06
   5  -2 -12    0.08    0.04
   5  -2 -12    0.01    0.03
  -5   2  12   -0.05    0.04
   4  -2 -12   11.06    0.47
  -4   2  12   11.14    0.40
  -4   2  12   10.55    0.36
   3  -2 -12    5.40    0.28
  -3   2  12    5.82    0.21
  -3   2  12    5.89    0.24
   2  -2 -12    0.10    0.06
  -2   2  12    0.09    0.03
   1  -2 -12    0.08    0.06
  -1   2  12    0.16    0.03
   0  -2 -12    1.58    0.14
  -1  -2 -12    7.36    0.34
  -2  -2 -12    3.06    0.20
  -3  -2 -12    0.96    0.12
  -3  -2 -12    0.87    0.17
   3   2  12    1.00    0.12
  -4  -2 -12    0.06    0.10
  -4  -2 -12    0.04    0.07
   4   2  12    0.13    0.08
  10  -3 -12    4.49    0.27
   9  -3 -12    1.60    0.16
  -9   3  12    1.63    0.14
   8  -3 -12    0.70    0.10
  -8   3  12    0.66    0.09
   7  -3 -12    0.00    0.05
  -7   3  12   -0.05    0.05
   6  -3 -12    4.55    0.22
  -6   3  12    4.84    0.21
   5  -3 -12   15.46    0.52
  -5   3  12   14.81    0.49
   4  -3 -12    5.81    0.20
   4  -3 -12    6.02    0.31
  -4   3  12    6.69    0.24
   3  -3 -12    1.74    0.15
  -3   3  12    2.00    0.13
  -3   3  12    1.83    0.11
   2  -3 -12    1.03    0.13
  -2   3  12    1.00    0.08
   1  -3 -12    1.51    0.15
  -1   3  12    1.79    0.10
   0  -3 -12   11.67    0.49
   0   3  12   12.02    0.37
  -1  -3 -12    8.50    0.39
   1   3  12    8.13    0.28
  -2  -3 -12    0.10    0.07
   2   3  12    0.05    0.05
   2   3  12    0.05    0.06
  -3  -3 -12    0.36    0.13
  -3  -3 -12    0.22    0.09
   3   3  12    0.24    0.06
   3   3  12    0.44    0.09
  -4  -3 -12    1.67    0.23
   4   3  12    1.32    0.15
   4   3  12    1.19    0.11
  10  -4 -12    4.45    0.27
 -10   4  12    4.64    0.23
   9  -4 -12   -0.08    0.07
  -9   4  12    0.07    0.07
   8  -4 -12    1.45    0.14
  -8   4  12    1.28    0.13
   7  -4 -12    5.63    0.26
  -7   4  12    5.63    0.25
   6  -4 -12   11.74    0.44
  -6   4  12   11.29    0.41
   5  -4 -12    6.03    0.25
  -5   4  12    5.56    0.24
   4  -4 -12    0.26    0.05
   4  -4 -12    0.25    0.05
  -4   4  12    0.34    0.07
   3  -4 -12    4.02    0.24
  -3   4  12    3.68    0.17
   2  -4 -12    3.30    0.22
  -2   4  12    3.26    0.16
   1  -4 -12    4.61    0.26
  -1   4  12    4.52    0.19
   0  -4 -12    2.43    0.19
   0   4  12    2.46    0.13
  -1  -4 -12    0.10    0.08
   1   4  12   -0.02    0.05
  -2  -4 -12    0.72    0.13
   2   4  12    0.46    0.08
   2   4  12    0.61    0.11
  -3  -4 -12    0.53    0.15
   3   4  12    0.39    0.11
   3   4  12    0.53    0.08
  10  -5 -12    0.55    0.12
   9  -5 -12    2.13    0.17
  -9   5  12    1.89    0.15
   8  -5 -12    0.79    0.11
  -8   5  12    0.59    0.10
   7  -5 -12    3.33    0.20
  -7   5  12    3.40    0.18
   6  -5 -12    3.00    0.18
  -6   5  12    3.16    0.17
   5  -5 -12    0.26    0.07
  -5   5  12    0.18    0.07
   4  -5 -12    7.95    0.30
   3  -5 -12    5.50    0.19
  -2   5  12    2.16    0.13
  -1   5  12    1.93    0.12
   0   5  12    0.55    0.08
   1   5  12    3.73    0.18
   2   5  12    2.34    0.19
   2   5  12    2.81    0.16
  -3  -5 -12    0.07    0.11
   3   5  12    0.01    0.08
   3   5  12    0.03    0.07
   9  -6 -12    5.33    0.29
  -9   6  12    4.93    0.24
   8  -6 -12    2.03    0.17
  -8   6  12    1.88    0.14
   7  -6 -12    0.13    0.07
  -7   6  12    0.15    0.07
   6  -6 -12    2.47    0.17
  -6   6  12    2.92    0.17
   5  -6 -12    6.66    0.29
  -5   6  12    6.26    0.27
   4  -6 -12    1.91    0.13
  -4   6  12    1.89    0.14
   3  -6 -12    0.33    0.06
  -3   6  12    0.39    0.08
  -2   6  12   -0.02    0.05
  -1   6  12    0.35    0.08
   0   6  12    2.60    0.15
   1   6  12    2.20    0.15
   1   6  12    2.04    0.20
   2   6  12    0.45    0.09
   2   6  12    0.43    0.11
   9  -7 -12    0.28    0.10
  -9   7  12    0.21    0.08
   8  -7 -12    0.38    0.10
  -8   7  12    0.42    0.09
   7  -7 -12    1.76    0.17
  -7   7  12    2.15    0.16
   6  -7 -12    8.16    0.36
  -6   7  12    8.10    0.33
   5  -7 -12   11.35    0.43
  -5   7  12   10.70    0.41
   4  -7 -12    0.84    0.10
  -4   7  12    0.71    0.10
   3  -7 -12    0.05    0.05
  -3   7  12    0.00    0.06
   2  -7 -12    2.45    0.11
  -2   7  12    2.08    0.15
  -1   7  12    3.81    0.20
   0   7  12    0.40    0.08
   1   7  12    0.08    0.07
   8  -8 -12    3.06    0.22
  -8   8  12    3.47    0.20
   7  -8 -12    3.57    0.23
  -7   8  12    3.65    0.20
   6  -8 -12    2.96    0.19
  -6   8  12    2.75    0.17
   5  -8 -12    0.81    0.11
  -5   8  12    0.71    0.11
   4  -8 -12    9.54    0.38
  -4   8  12    9.24    0.37
   3  -8 -12    1.20    0.12
  -3   8  12    1.31    0.13
   2  -8 -12    1.36    0.11
  -2   8  12    1.01    0.12
  -1   8  12    0.51    0.10
   0   8  12    0.51    0.10
   7  -9 -12    0.64    0.12
  -7   9  12    0.52    0.10
   6  -9 -12   -0.02    0.07
  -6   9  12    0.12    0.08
   5  -9 -12    0.36    0.09
  -5   9  12    0.27    0.09
   4  -9 -12    2.65    0.18
  -4   9  12    3.04    0.19
   3  -9 -12    1.06    0.12
  -3   9  12    1.26    0.14
   2  -9 -12    0.00    0.06
  -2   9  12   -0.07    0.07
   3  10 -13    1.50    0.19
  -3 -10  13    1.79    0.13
   2  10 -13    1.46    0.18
  -2 -10  13    1.61    0.12
   1  10 -13    3.07    0.22
   1  10 -13    3.12    0.22
   0  10 -13    0.28    0.08
   0  10 -13    0.20    0.08
  -1  10 -13    1.51    0.13
  -1  10 -13    1.54    0.14
   1 -10  13    1.58    0.14
  -4  -9  13    1.23    0.12
   3   9 -13    0.64    0.12
  -3  -9  13    0.59    0.08
   2   9 -13    4.77    0.27
   2   9 -13    4.44    0.27
  -2  -9  13    4.62    0.19
   1   9 -13    6.36    0.33
   1   9 -13    7.06    0.33
   0   9 -13    0.07    0.06
   0   9 -13    0.18    0.07
   0  -9  13    0.25    0.07
  -1   9 -13    0.55    0.08
  -1   9 -13    0.58    0.09
   1  -9  13    0.61    0.09
  -2   9 -13    1.18    0.08
  -2   9 -13    1.10    0.09
  -5  -8  13    0.39    0.08
   4   8 -13    1.31    0.16
  -4  -8  13    1.81    0.12
   3   8 -13    7.12    0.35
   3   8 -13    6.18    0.34
  -3  -8  13    6.98    0.25
   2   8 -13    1.99    0.16
   2   8 -13    1.91    0.16
   1   8 -13    0.10    0.07
   1   8 -13    0.10    0.07
  -1  -8  13    0.09    0.06
   0   8 -13    0.74    0.09
   0   8 -13    0.62    0.08
   0  -8  13    0.78    0.09
  -1   8 -13    1.26    0.10
  -1   8 -13    1.43    0.10
   1  -8  13    1.51    0.10
   2  -8  13    5.87    0.23
   2  -8  13    5.77    0.29
   3  -8  13    1.31    0.16
  -6  -7  13    1.45    0.14
   5   7 -13    4.34    0.28
  -5  -7  13    4.19    0.20
   4   7 -13   11.95    0.53
  -4  -7  13   12.10    0.41
   3   7 -13    4.83    0.27
   3   7 -13    4.58    0.27
  -3  -7  13    5.07    0.19
   2   7 -13   -0.05    0.05
   2   7 -13   -0.01    0.05
  -2  -7  13    0.07    0.06
   1   7 -13    2.83    0.17
   1   7 -13    3.11    0.18
  -1  -7  13    3.26    0.17
   0   7 -13    3.10    0.16
   0   7 -13    3.20    0.17
   0  -7  13    2.90    0.15
  -1   7 -13    4.41    0.18
  -1   7 -13    4.56    0.18
   1  -7  13    4.74    0.24
   1  -7  13    4.59    0.18
   2  -7  13    0.48    0.11
   2  -7  13    0.48    0.05
   3  -7  13    1.57    0.17
  -7  -6  13    2.85    0.18
  -6  -6  13    1.97    0.14
   5   6 -13    2.51    0.20
  -5  -6  13    2.48    0.14
   4   6 -13    2.32    0.19
   4   6 -13    1.83    0.17
  -4  -6  13    2.60    0.13
   3   6 -13    1.60    0.16
   3   6 -13    1.75    0.15
  -3  -6  13    2.00    0.15
  -3  -6  13    1.89    0.10
   2   6 -13    9.57    0.40
   2   6 -13    9.22    0.40
  -2  -6  13    9.73    0.35
   1   6 -13    4.88    0.22
   1   6 -13    4.30    0.22
  -1  -6  13    4.80    0.20
   0   6 -13    6.36    0.25
   0   6 -13    6.26    0.26
   0  -6  13    6.75    0.29
   0  -6  13    5.95    0.23
   1  -6  13    2.76    0.18
   1  -6  13    2.26    0.11
   2  -6  13    1.03    0.14
   3  -6  13    4.36    0.26
   8   5 -13    2.63    0.16
  -8  -5  13    2.73    0.17
  -7  -5  13    2.07    0.15
  -6  -5  13    0.90    0.10
   5   5 -13    0.33    0.10
  -5  -5  13    0.25    0.06
   4   5 -13    5.83    0.30
   4   5 -13    5.36    0.29
  -4  -5  13    5.40    0.21
   3   5 -13   11.11    0.46
   3   5 -13   11.08    0.46
  -3  -5  13   11.56    0.34
  -3  -5  13   10.89    0.41
   2   5 -13    2.71    0.16
   2   5 -13    2.46    0.16
  -2  -5  13    2.43    0.14
   1   5 -13    0.31    0.06
   1   5 -13    0.39    0.06
  -1  -5  13    0.36    0.06
  -1  -5  13    0.33    0.08
   0   5 -13    0.08    0.04
   0   5 -13    0.13    0.04
   0  -5  13    0.11    0.04
   0  -5  13    0.08    0.07
   1  -5  13    3.97    0.23
   2  -5  13    7.68    0.35
   3  -5  13    2.94    0.22
   8   4 -13    1.64    0.12
  -8  -4  13    1.51    0.14
   7   4 -13    0.07    0.04
  -7  -4  13    0.03    0.06
   6   4 -13    1.45    0.18
  -6  -4  13    1.60    0.12
   5   4 -13    3.45    0.24
   5   4 -13    4.11    0.25
  -5  -4  13    3.97    0.17
   4   4 -13   18.19    0.72
   4   4 -13   19.21    0.72
  -4  -4  13   18.82    0.57
   3   4 -13    8.90    0.40
   3   4 -13    9.53    0.40
  -3  -4  13    9.65    0.35
   2   4 -13    0.61    0.08
   2   4 -13    0.57    0.08
  -2  -4  13    0.64    0.07
   1   4 -13    0.53    0.07
   1   4 -13    0.60    0.07
  -1  -4  13    0.61    0.06
   0   4 -13    4.00    0.16
   0   4 -13    3.79    0.16
   0  -4  13    3.93    0.15
  -1   4 -13   12.30    0.51
  -2   4 -13    5.55    0.31
  -3   4 -13    0.62    0.14
   4  -4  13    1.62    0.09
   9   3 -13    0.46    0.10
  -9  -3  13    0.39    0.09
   8   3 -13    1.92    0.14
  -8  -3  13    2.20    0.15
   7   3 -13    2.92    0.14
  -7  -3  13    2.61    0.16
   6   3 -13    5.69    0.32
  -6  -3  13    5.51    0.23
   5   3 -13   10.30    0.47
  -5  -3  13   10.79    0.36
   4   3 -13    5.12    0.28
  -4  -3  13    5.36    0.24
  -4  -3  13    5.42    0.20
   3   3 -13    0.07    0.06
  -3  -3  13    0.14    0.06
   2   3 -13    3.40    0.19
  -2  -3  13    3.66    0.16
   1   3 -13    2.45    0.17
   1   3 -13    2.44    0.14
  -1  -3  13    2.60    0.12
   0   3 -13    0.36    0.05
   0   3 -13    0.31    0.09
   0  -3  13    0.44    0.05
  -1   3 -13    0.11    0.09
  -2   3 -13    2.16    0.20
  -3   3 -13    5.63    0.34
  -4   3 -13    3.30    0.27
   4  -3  13    2.78    0.13
   5  -3  13    1.19    0.10
   9   2 -13    1.20    0.14
  -9  -2  13    1.19    0.13
   8   2 -13    5.66    0.25
  -8  -2  13    5.09    0.24
   7   2 -13    2.87    0.15
  -7  -2  13    2.94    0.16
  -6  -2  13    3.82    0.18
   5   2 -13    0.45    0.10
  -5  -2  13    0.40    0.06
   4   2 -13    3.76    0.23
  -4  -2  13    3.98    0.20
  -4  -2  13    4.10    0.16
   3   2 -13   14.78    0.55
  -3  -2  13   13.57    0.47
   2   2 -13    4.37    0.22
  -2  -2  13    4.19    0.18
   1   2 -13    1.68    0.11
   1   2 -13    1.67    0.15
  -1  -2  13    1.57    0.09
   0   2 -13    4.04    0.25
   0   2 -13    4.06    0.18
  -1   2 -13    5.30    0.30
  -1   2 -13    5.22    0.21
  -2   2 -13   14.50    0.62
  -3   2 -13    3.93    0.27
   3  -2  13    3.40    0.16
  -4   2 -13    0.91    0.17
   4  -2  13    0.79    0.09
   9   1 -13    6.46    0.30
  -9  -1  13    6.12    0.28
   8   1 -13    1.72    0.13
  -8  -1  13    1.76    0.13
   7   1 -13   -0.03    0.04
  -7  -1  13   -0.02    0.05
  -6  -1  13   -0.08    0.04
   5   1 -13   12.48    0.53
  -5  -1  13   12.44    0.40
   4   1 -13   12.01    0.51
  -4  -1  13   13.03    0.45
  -4  -1  13   13.17    0.40
   3   1 -13    6.82    0.31
  -3  -1  13    6.42    0.26
  -3  -1  13    6.84    0.21
   2   1 -13    0.26    0.06
  -2  -1  13    0.18    0.05
   1   1 -13    6.64    0.28
   0   1 -13    0.80    0.08
  -1   1 -13   11.40    0.50
  -1   1 -13   10.82    0.41
  -2   1 -13    1.21    0.09
  -2   1 -13    1.20    0.17
  -3   1 -13    0.15    0.05
  -3   1 -13    0.24    0.10
   3  -1  13    0.03    0.05
  -4   1 -13    0.15    0.12
   4  -1  13    0.20    0.06
   9   0 -13    1.91    0.16
  -9   0  13    1.72    0.15
   8   0 -13    1.51    0.12
  -8   0  13    1.33    0.12
   7   0 -13    1.55    0.11
  -7   0  13    1.77    0.12
   6   0 -13    1.12    0.07
   6   0 -13    1.04    0.07
  -6   0  13    1.14    0.10
   5   0 -13   12.90    0.54
  -5   0  13   13.19    0.42
   4   0 -13    2.91    0.20
  -4   0  13    2.99    0.17
  -4   0  13    2.91    0.13
   3   0 -13    1.35    0.14
  -3   0  13    1.55    0.11
  -3   0  13    1.30    0.07
   2   0 -13    8.84    0.37
  -2   0  13    8.71    0.31
   1   0 -13   11.67    0.45
   0   0 -13    1.04    0.10
  -1   0 -13    3.54    0.19
  -1   0 -13    3.64    0.26
  -2   0 -13    0.39    0.12
  -2   0 -13    0.27    0.06
  -3   0 -13    1.74    0.22
  -3   0 -13    1.88    0.13
   3   0  13    1.61    0.13
  -4   0 -13    0.74    0.16
  -4   0 -13    0.78    0.10
   4   0  13    0.73    0.10
  10  -1 -13    0.70    0.13
 -10   1  13    0.67    0.11
   9  -1 -13    1.85    0.16
  -9   1  13    1.80    0.15
   8  -1 -13    9.72    0.39
  -8   1  13    9.91    0.37
   7  -1 -13    6.69    0.27
  -7   1  13    6.37    0.27
   6  -1 -13   11.18    0.36
   6  -1 -13   10.27    0.37
  -6   1  13   10.48    0.37
   5  -1 -13    2.39    0.19
  -5   1  13    2.15    0.13
   4  -1 -13    3.29    0.21
  -4   1  13    3.61    0.15
   3  -1 -13    9.82    0.42
  -3   1  13    9.61    0.31
  -3   1  13    9.65    0.36
   2  -1 -13    2.45    0.16
  -2   1  13    2.50    0.10
   1  -1 -13    1.86    0.14
   0  -1 -13    0.01    0.05
  -1  -1 -13    6.65    0.31
  -2  -1 -13    3.42    0.27
  -2  -1 -13    3.19    0.20
  -3  -1 -13    1.66    0.14
  -3  -1 -13    2.08    0.24
   3   1  13    2.08    0.15
  -4  -1 -13    0.75    0.17
  -4  -1 -13    0.40    0.09
   4   1  13    0.70    0.11
  10  -2 -13    1.44    0.16
 -10   2  13    1.24    0.14
   9  -2 -13    4.54    0.24
  -9   2  13    4.31    0.23
   8  -2 -13    4.70    0.24
  -8   2  13    4.60    0.22
   7  -2 -13    0.17    0.06
  -7   2  13    0.16    0.06
   6  -2 -13    0.74    0.08
  -6   2  13    0.66    0.08
  -5   2  13    0.49    0.07
   4  -2 -13    8.99    0.42
  -4   2  13    9.51    0.32
   3  -2 -13    8.85    0.41
  -3   2  13    9.24    0.35
  -3   2  13    9.76    0.31
   2  -2 -13    0.07    0.06
  -2   2  13   -0.01    0.03
   1  -2 -13    1.33    0.14
  -1   2  13    1.41    0.08
   0  -2 -13    7.03    0.33
  -1  -2 -13   13.41    0.55
  -2  -2 -13    1.32    0.19
  -2  -2 -13    0.75    0.12
  -3  -2 -13    0.03    0.06
  -3  -2 -13   -0.07    0.10
   3   2  13    0.07    0.07
   9  -3 -13    0.20    0.08
  -9   3  13    0.34    0.09
   8  -3 -13    0.53    0.09
  -8   3  13    0.38    0.08
   7  -3 -13    4.34    0.21
  -7   3  13    4.01    0.20
   6  -3 -13    7.58    0.30
  -6   3  13    7.56    0.29
   5  -3 -13    9.97    0.32
  -5   3  13    9.21    0.34
   4  -3 -13    1.84    0.17
  -4   3  13    1.82    0.12
   3  -3 -13    0.16    0.07
  -3   3  13    0.18    0.05
   2  -3 -13    0.65    0.11
  -2   3  13    0.59    0.07
   1  -3 -13    2.39    0.17
  -1   3  13    2.35    0.12
   0  -3 -13    5.75    0.31
   0   3  13    6.26    0.22
  -1  -3 -13    3.38    0.23
  -2  -3 -13    0.02    0.07
   2   3  13    0.02    0.07
   2   3  13    0.00    0.05
  -3  -3 -13    1.51    0.22
  -3  -3 -13    1.46    0.17
   3   3  13    1.54    0.16
   3   3  13    1.25    0.11
   9  -4 -13    0.20    0.08
  -9   4  13    0.13    0.07
   8  -4 -13    0.71    0.10
  -8   4  13    0.46    0.09
   7  -4 -13    3.47    0.19
  -7   4  13    2.77    0.17
   6  -4 -13    3.91    0.19
  -6   4  13    3.37    0.18
   5  -4 -13    1.16    0.09
  -5   4  13    1.16    0.11
  -4   4  13    3.10    0.16
  -3   4  13    6.63    0.26
   2  -4 -13    2.89    0.20
  -2   4  13    2.56    0.14
   1  -4 -13    2.61    0.20
  -1   4  13    2.74    0.14
   0  -4 -13    0.55    0.11
   0   4  13    0.34    0.07
  -1  -4 -13    1.04    0.14
   1   4  13    1.13    0.10
   2   4  13    1.17    0.11
   2   4  13    1.32    0.15
   9  -5 -13    5.67    0.30
  -9   5  13    5.86    0.27
   8  -5 -13    1.30    0.14
  -8   5  13    1.36    0.14
   7  -5 -13    0.79    0.11
  -7   5  13    0.58    0.10
   6  -5 -13    0.00    0.05
  -6   5  13    0.00    0.05
   5  -5 -13    1.55    0.12
  -5   5  13    1.72    0.13
   4  -5 -13    6.82    0.24
  -2   5  13    0.28    0.07
  -1   5  13    0.05    0.06
   0   5  13    1.88    0.13
   1   5  13    4.82    0.22
   2   5  13    2.38    0.20
   2   5  13    2.47    0.16
   9  -6 -13    1.00    0.14
  -9   6  13    0.82    0.12
   8  -6 -13    0.05    0.07
  -8   6  13   -0.03    0.06
   7  -6 -13    0.33    0.09
  -7   6  13    0.48    0.09
   6  -6 -13    7.60    0.32
  -6   6  13    6.88    0.30
   5  -6 -13    7.02    0.29
  -5   6  13    6.54    0.28
   4  -6 -13    2.09    0.12
  -4   6  13    1.90    0.14
  -3   6  13    0.26    0.07
  -2   6  13    0.88    0.10
  -1   6  13    1.36    0.13
   0   6  13    2.97    0.17
   1   6  13    0.82    0.14
   1   6  13    0.63    0.10
   8  -7 -13    0.94    0.14
  -8   7  13    0.89    0.12
   7  -7 -13    2.17    0.17
  -7   7  13    1.89    0.15
   6  -7 -13    5.64    0.26
  -6   7  13    4.87    0.24
   5  -7 -13    0.03    0.06
  -5   7  13    0.08    0.07
   4  -7 -13    0.01    0.05
  -4   7  13    0.01    0.07
   3  -7 -13    1.88    0.09
  -3   7  13    1.86    0.14
  -2   7  13    0.97    0.11
  -1   7  13    0.51    0.09
   0   7  13    0.33    0.08
   7  -8 -13    1.73    0.17
  -7   8  13    1.63    0.15
   6  -8 -13    0.40    0.09
  -6   8  13    0.58    0.11
   5  -8 -13    3.23    0.19
  -5   8  13    3.10    0.19
   4  -8 -13    3.22    0.18
  -4   8  13    3.18    0.19
   3  -8 -13    1.67    0.11
  -3   8  13    1.59    0.15
  -2   8  13    0.15    0.08
   5  -9 -13    3.51    0.21
   4  -9 -13    3.37    0.20
   3   9 -14    1.92    0.19
  -3  -9  14    1.72    0.13
   2   9 -14    4.53    0.27
   2   9 -14    4.42    0.26
   1   9 -14    0.59    0.10
   1   9 -14    0.53    0.10
   0   9 -14    0.86    0.11
   0   9 -14    0.61    0.09
   0  -9  14    0.70    0.10
  -1   9 -14    0.44    0.07
  -1   9 -14    0.68    0.08
   1  -9  14    0.48    0.08
  -5  -8  14    0.09    0.06
   4   8 -14    1.53    0.18
  -4  -8  14    1.48    0.12
   3   8 -14    8.46    0.41
   3   8 -14    8.24    0.41
  -3  -8  14    8.91    0.31
   2   8 -14    0.54    0.10
   2   8 -14    0.59    0.11
   1   8 -14    3.31    0.20
   1   8 -14    3.52    0.20
  -1  -8  14    3.46    0.18
   0   8 -14    1.08    0.10
   0   8 -14    1.30    0.11
   0  -8  14    1.11    0.10
  -1   8 -14    0.15    0.04
   1  -8  14    0.22    0.06
   2  -8  14    1.10    0.09
  -6  -7  14    2.46    0.16
   5   7 -14    2.62    0.21
  -5  -7  14    2.24    0.15
   4   7 -14    0.67    0.12
  -4  -7  14    0.75    0.09
   3   7 -14    1.97    0.17
   3   7 -14    2.25    0.18
  -3  -7  14    2.16    0.12
   2   7 -14    1.85    0.15
   2   7 -14    2.07    0.16
  -2  -7  14    2.19    0.15
   1   7 -14    5.36    0.26
   1   7 -14    5.27    0.26
  -1  -7  14    6.15    0.24
   0   7 -14    5.43    0.23
   0   7 -14    5.52    0.24
   0  -7  14    5.91    0.22
   1  -7  14    1.22    0.08
   2  -7  14    0.49    0.05
   2  -7  14    0.64    0.13
   3  -7  14    2.52    0.21
  -6  -6  14    1.51    0.13
   5   6 -14    0.26    0.10
  -5  -6  14    0.28    0.07
   4   6 -14    3.12    0.22
   4   6 -14    2.73    0.20
  -4  -6  14    2.50    0.14
   3   6 -14    5.20    0.28
   3   6 -14    5.36    0.28
  -3  -6  14    5.88    0.20
   2   6 -14    7.59    0.34
   2   6 -14    7.76    0.34
  -2  -6  14    7.51    0.30
   1   6 -14    1.90    0.13
   1   6 -14    2.12    0.13
  -1  -6  14    1.81    0.12
   0   6 -14    0.01    0.04
   0   6 -14    0.04    0.04
   0  -6  14    0.07    0.04
   1  -6  14    0.33    0.05
   1  -6  14    0.74    0.11
   2  -6  14    1.99    0.19
   3  -6  14    2.80    0.21
  -7  -5  14    0.43    0.09
  -6  -5  14    0.13    0.06
   5   5 -14   -0.09    0.06
  -5  -5  14    0.01    0.05
   4   5 -14    7.90    0.38
   4   5 -14    7.53    0.37
  -4  -5  14    7.95    0.28
   3   5 -14   14.25    0.56
   3   5 -14   14.13    0.56
  -3  -5  14   14.01    0.49
   2   5 -14    2.18    0.15
   2   5 -14    1.82    0.14
  -2  -5  14    2.27    0.14
   1   5 -14    1.02    0.09
   1   5 -14    1.00    0.09
  -1  -5  14    0.99    0.09
   0   5 -14    2.02    0.10
   0  -5  14    2.12    0.10
   0  -5  14    2.20    0.16
   1  -5  14    4.05    0.23
   1  -5  14    3.71    0.14
   2  -5  14    5.87    0.31
   3  -5  14    0.30    0.11
   8   4 -14    0.50    0.06
  -8  -4  14    0.35    0.09
  -7  -4  14    2.82    0.17
   6   4 -14    4.34    0.28
  -6  -4  14    4.22    0.20
   5   4 -14    4.96    0.29
  -5  -4  14    5.26    0.21
   4   4 -14    7.76    0.37
   4   4 -14    7.89    0.37
  -4  -4  14    8.01    0.27
   3   4 -14    0.95    0.12
   3   4 -14    1.22    0.13
  -3  -4  14    1.22    0.11
   2   4 -14    0.48    0.08
   2   4 -14    0.45    0.08
  -2  -4  14    0.58    0.07
   1   4 -14    4.09    0.19
   1   4 -14    3.99    0.19
  -1  -4  14    4.08    0.17
   0   4 -14    3.39    0.14
   0   4 -14    3.55    0.14
   0  -4  14    3.19    0.13
   1  -4  14    5.06    0.17
  -2   4 -14    0.56    0.12
  -3   4 -14    2.39    0.23
   4  -4  14    2.08    0.10
   8   3 -14    1.72    0.11
  -8  -3  14    1.52    0.14
  -7  -3  14    3.79    0.19
   6   3 -14    2.22    0.19
  -6  -3  14    1.82    0.13
   5   3 -14    2.09    0.18
  -5  -3  14    2.13    0.12
   4   3 -14    0.04    0.07
  -4  -3  14    0.03    0.04
   3   3 -14    7.14    0.33
  -3  -3  14    7.64    0.29
   2   3 -14    7.21    0.31
  -2  -3  14    7.42    0.27
   1   3 -14    2.02    0.12
  -1  -3  14    1.78    0.10
   0   3 -14    0.03    0.03
   0   3 -14   -0.01    0.07
   0  -3  14    0.05    0.04
  -1   3 -14    0.49    0.11
  -2   3 -14    3.66    0.27
  -3   3 -14    5.29    0.33
   3  -3  14    4.44    0.18
  -4   3 -14    2.14    0.24
   4  -3  14    1.63    0.10
   8   2 -14    4.59    0.20
  -8  -2  14    4.50    0.22
  -7  -2  14    0.34    0.07
  -6  -2  14    0.07    0.05
   5   2 -14    1.03    0.14
  -5  -2  14    0.91    0.09
   4   2 -14   12.77    0.52
  -4  -2  14   12.30    0.39
   3   2 -14   14.51    0.58
  -3  -2  14   15.39    0.51
   2   2 -14    1.25    0.12
  -2  -2  14    1.58    0.11
   1   2 -14    0.12    0.08
   1   2 -14    0.12    0.05
  -1  -2  14    0.10    0.04
   0   2 -14    0.31    0.09
   0   2 -14    0.26    0.05
  -1   2 -14    4.72    0.19
  -1   2 -14    4.87    0.30
  -2   2 -14    6.25    0.36
  -3   2 -14    0.50    0.14
   3  -2  14    0.36    0.07
  -4   2 -14    0.32    0.13
   4  -2  14    0.28    0.06
   9   1 -14    4.52    0.23
  -9  -1  14    4.65    0.23
   8   1 -14    0.17    0.06
  -8  -1  14    0.18    0.07
  -7  -1  14    1.45    0.13
  -6  -1  14    2.38    0.14
   5   1 -14    5.03    0.28
  -5  -1  14    5.15    0.21
   4   1 -14   14.62    0.58
  -4  -1  14   14.50    0.45
   3   1 -14    3.40    0.20
  -3  -1  14    3.10    0.12
  -3  -1  14    2.89    0.16
   2   1 -14    1.30    0.12
  -2  -1  14    1.49    0.11
   1   1 -14    1.07    0.10
  -1  -1  14    0.89    0.08
   0   1 -14    4.33    0.21
   0   1 -14    4.65    0.28
  -1   1 -14    1.67    0.11
  -1   1 -14    1.34    0.18
  -2   1 -14    0.72    0.15
  -2   1 -14    0.58    0.07
  -3   1 -14    1.37    0.20
  -3   1 -14    1.31    0.10
   3  -1  14    1.28    0.12
   9   0 -14   -0.05    0.07
  -9   0  14    0.00    0.07
   8   0 -14    3.74    0.19
  -8   0  14    3.59    0.20
   7   0 -14    4.81    0.19
  -7   0  14    4.80    0.22
  -6   0  14    4.62    0.20
   5   0 -14    3.04    0.22
  -5   0  14    3.36    0.16
   4   0 -14    0.19    0.08
  -4   0  14   -0.01    0.04
   3   0 -14    3.75    0.22
  -3   0  14    4.04    0.19
  -3   0  14    3.79    0.14
   2   0 -14    4.41    0.23
  -2   0  14    4.65    0.20
   1   0 -14    1.26    0.12
   0   0 -14    1.59    0.12
  -1   0 -14    0.45    0.12
  -1   0 -14    0.30    0.07
  -2   0 -14    3.42    0.27
  -2   0 -14    3.04    0.18
  -3   0 -14    3.13    0.18
  -3   0 -14    3.46    0.28
   3   0  14    3.07    0.18
   9  -1 -14    8.73    0.36
  -9   1  14    7.86    0.34
   8  -1 -14    4.17    0.20
  -8   1  14    3.74    0.20
   7  -1 -14    2.29    0.13
  -7   1  14    2.16    0.14
  -6   1  14    1.97    0.13
  -5   1  14    0.10    0.05
   4  -1 -14   14.80    0.60
  -4   1  14   14.97    0.47
   3  -1 -14    7.34    0.36
  -3   1  14    8.44    0.32
  -3   1  14    8.15    0.27
   2  -1 -14    0.85    0.11
  -2   1  14    0.85    0.06
  -2   1  14    0.89    0.10
   1  -1 -14    0.91    0.11
   0  -1 -14    5.03    0.26
  -1  -1 -14    0.05    0.06
  -2  -1 -14    7.24    0.32
  -2  -1 -14    6.26    0.39
  -3  -1 -14    0.41    0.09
  -3  -1 -14    0.37    0.14
   3   1  14    0.52    0.10
   9  -2 -14    9.58    0.39
  -9   2  14    8.81    0.37
   8  -2 -14    0.09    0.06
  -8   2  14    0.03    0.06
   7  -2 -14    1.22    0.11
  -7   2  14    1.09    0.11
  -6   2  14    0.25    0.07
  -5   2  14    2.32    0.13
   4  -2 -14   13.08    0.54
  -4   2  14   12.61    0.42
   3  -2 -14    0.96    0.12
  -3   2  14    0.74    0.08
   2  -2 -14    0.10    0.07
  -2   2  14    0.22    0.05
   1  -2 -14    1.61    0.15
  -1   2  14    1.78    0.09
   0  -2 -14    6.32    0.32
  -1  -2 -14    0.40    0.09
  -2  -2 -14    0.55    0.15
  -2  -2 -14    0.57    0.10
   9  -3 -14    1.24    0.14
  -9   3  14    1.30    0.14
   8  -3 -14    1.66    0.14
  -8   3  14    1.46    0.14
   7  -3 -14    8.81    0.34
  -7   3  14    8.08    0.33
   6  -3 -14    7.27    0.26
  -6   3  14    7.28    0.29
  -5   3  14    4.25    0.19
  -4   3  14    0.20    0.06
   3  -3 -14    2.12    0.18
  -3   3  14    2.19    0.12
   2  -3 -14    6.52    0.33
  -2   3  14    6.80    0.25
   1  -3 -14    5.35    0.29
  -1   3  14    5.07    0.20
   0  -3 -14    2.17    0.19
   0   3  14    2.23    0.12
  -1  -3 -14    0.00    0.07
   1   3  14    0.04    0.05
  -2  -3 -14    1.12    0.20
  -2  -3 -14    1.04    0.14
   2   3  14    1.05    0.14
   2   3  14    1.08    0.10
   9  -4 -14    3.21    0.20
  -9   4  14    3.11    0.20
   8  -4 -14    1.33    0.14
  -8   4  14    1.11    0.12
   7  -4 -14    1.10    0.12
  -7   4  14    0.90    0.11
   6  -4 -14    2.11    0.12
  -6   4  14    2.10    0.15
  -5   4  14    0.52    0.09
  -4   4  14    3.16    0.17
  -3   4  14    3.72    0.18
  -2   4  14    0.67    0.09
   1  -4 -14   -0.04    0.06
  -1   4  14   -0.09    0.05
   0   4  14    0.34    0.07
   1   4  14    3.92    0.19
   8  -5 -14    0.35    0.10
  -8   5  14    0.33    0.09
   7  -5 -14    0.18    0.07
  -7   5  14    0.39    0.09
   6  -5 -14    2.19    0.14
  -6   5  14    2.11    0.15
  -3   5  14    0.76    0.10
  -2   5  14    0.02    0.06
  -1   5  14    0.50    0.08
   0   5  14    2.28    0.15
   1   5  14    2.73    0.21
   1   5  14    2.81    0.17
   8  -6 -14    0.39    0.10
  -8   6  14    0.36    0.10
   7  -6 -14    0.93    0.12
  -7   6  14    0.88    0.11
   6  -6 -14    3.90    0.20
  -6   6  14    3.74    0.21
   5  -6 -14    2.87    0.14
  -5   6  14    2.94    0.17
  -4   6  14    0.12    0.07
  -3   6  14    0.72    0.10
  -2   6  14    1.17    0.12
  -1   6  14    1.36    0.13
   0   6  14    1.03    0.12
   7  -7 -14    0.92    0.12
  -7   7  14    0.92    0.12
   6  -7 -14    1.18    0.12
  -6   7  14    1.19    0.13
   5  -7 -14    0.17    0.06
  -5   7  14    0.22    0.08
  -4   7  14    2.45    0.17
  -3   7  14    2.54    0.17
  -2   7  14    0.84    0.11
   5  -8 -14    3.42    0.18
  -5   8  14    3.03    0.20
   4  -8 -14    1.81    0.11
  -4   8  14    1.54    0.15
   3   8 -15    3.23    0.22
   3   8 -15    3.18    0.22
  -3  -8  15    3.16    0.16
   2   8 -15    0.22    0.08
   2   8 -15    0.16    0.07
   1   8 -15    3.68    0.21
   1   8 -15    3.59    0.22
  -1  -8  15    4.32    0.20
   0   8 -15    1.78    0.12
   0   8 -15    1.60    0.11
   0  -8  15    1.63    0.12
   5   7 -15   -0.09    0.07
  -5  -7  15    0.11    0.06
   4   7 -15    0.95    0.14
  -4  -7  15    0.96    0.10
   3   7 -15    0.14    0.08
   3   7 -15    0.08    0.08
   2   7 -15    3.84    0.22
   2   7 -15    3.63    0.22
   1   7 -15    5.27    0.25
   1   7 -15    5.25    0.25
  -1  -7  15    5.24    0.23
   0   7 -15    0.00    0.04
   0   7 -15    0.06    0.04
   0  -7  15    0.06    0.05
   1  -7  15    1.30    0.09
  -6  -6  15    0.39    0.08
   5   6 -15    0.08    0.08
  -5  -6  15    0.07    0.06
   4   6 -15    0.57    0.11
   4   6 -15    0.50    0.11
  -4  -6  15    0.51    0.07
   3   6 -15    4.87    0.26
   3   6 -15    4.72    0.26
   2   6 -15    5.45    0.26
   2   6 -15    5.24    0.26
  -2  -6  15    5.17    0.24
   1   6 -15    0.06    0.04
   1   6 -15    0.05    0.05
  -1  -6  15    0.07    0.05
   0  -6  15    1.93    0.11
   1  -6  15    1.28    0.08
   2  -6  15    1.80    0.18
  -6  -5  15    2.77    0.16
   5   5 -15    1.71    0.19
  -5  -5  15    1.51    0.11
   4   5 -15    4.59    0.27
   4   5 -15    4.90    0.28
  -4  -5  15    4.97    0.20
   3   5 -15    2.75    0.19
   3   5 -15    2.88    0.19
   2   5 -15    0.63    0.09
   2   5 -15    0.57    0.09
  -2  -5  15    0.65    0.09
   1   5 -15    2.49    0.14
   1   5 -15    2.41    0.14
  -1  -5  15    2.73    0.14
   0  -5  15    2.68    0.13
   1  -5  15    2.35    0.10
   1  -5  15    2.65    0.19
   2  -5  15    0.67    0.13
  -7  -4  15    5.88    0.26
  -6  -4  15    4.31    0.20
   5   4 -15    2.18    0.19
  -5  -4  15    1.99    0.12
   4   4 -15    1.23    0.15
   4   4 -15    0.94    0.13
  -4  -4  15    1.31    0.09
   3   4 -15    2.86    0.19
   3   4 -15    3.05    0.20
  -3  -4  15    3.19    0.18
   2   4 -15    8.53    0.35
   2   4 -15    7.85    0.35
  -2  -4  15    8.12    0.31
   1   4 -15    4.98    0.22
   1   4 -15    5.15    0.22
  -1  -4  15    5.08    0.20
   0  -4  15    2.17    0.11
   1  -4  15    0.44    0.05
  -8  -3  15    1.24    0.13
  -7  -3  15    2.44    0.15
   6   3 -15    0.22    0.10
  -6  -3  15    0.16    0.06
  -5  -3  15    0.08    0.05
   4   3 -15    0.50    0.10
  -4  -3  15    0.57    0.06
   3   3 -15    7.80    0.35
  -3  -3  15    7.90    0.31
   2   3 -15    7.48    0.33
  -2  -3  15    7.64    0.29
   1   3 -15    1.25    0.10
  -1  -3  15    1.31    0.09
   0   3 -15    0.51    0.06
   0  -3  15    0.41    0.05
  -1   3 -15    1.37    0.17
  -2   3 -15    3.03    0.26
  -3   3 -15    2.75    0.25
   3  -3  15    2.22    0.12
  -8  -2  15    3.93    0.21
  -7  -2  15   -0.03    0.05
  -6  -2  15    2.66    0.15
   5   2 -15    2.77    0.21
  -5  -2  15    2.72    0.14
   4   2 -15   10.41    0.46
  -4  -2  15   10.58    0.34
   3   2 -15    7.67    0.36
  -3  -2  15    8.08    0.31
   2   2 -15    0.03    0.05
  -2  -2  15   -0.03    0.05
   1   2 -15    0.08    0.05
  -1  -2  15    0.16    0.05
   0   2 -15    2.73    0.22
   0   2 -15    2.70    0.14
  -1   2 -15    6.15    0.35
  -2   2 -15    3.09    0.26
  -3   2 -15    0.09    0.12
   3  -2  15    0.06    0.05
  -8  -1  15    0.25    0.08
  -7  -1  15    3.41    0.18
  -6  -1  15    3.64    0.18
  -5  -1  15    1.77    0.11
   4   1 -15    3.10    0.22
  -4  -1  15    3.55    0.15
   3   1 -15    0.00    0.06
  -3  -1  15   -0.04    0.06
   2   1 -15    6.28    0.29
  -2  -1  15    5.84    0.24
   1   1 -15    2.27    0.15
  -1  -1  15    2.25    0.13
   0   1 -15    0.32    0.07
   0   1 -15    0.30    0.11
  -1   1 -15    0.23    0.06
  -1   1 -15    0.09    0.10
  -2   1 -15   -0.03    0.09
  -2   1 -15    0.01    0.04
   8   0 -15    4.25    0.18
  -8   0  15    4.20    0.22
  -7   0  15    2.96    0.17
  -6   0  15    1.61    0.12
  -5   0  15    0.22    0.06
   4   0 -15    1.30    0.15
  -4   0  15    1.34    0.09
   3   0 -15    9.39    0.41
  -3   0  15    9.57    0.30
  -3   0  15    9.32    0.36
   2   0 -15    4.43    0.24
  -2   0  15    4.35    0.20
   1   0 -15    0.23    0.07
   0   0 -15    0.58    0.09
  -1   0 -15    2.70    0.24
  -1   0 -15    2.35    0.16
  -2   0 -15    4.02    0.30
  -2   0 -15    3.45    0.19
   8  -1 -15    2.61    0.14
  -8   1  15    2.18    0.16
  -7   1  15    0.01    0.06
  -6   1  15    0.64    0.09
  -5   1  15    3.47    0.17
   4  -1 -15    5.79    0.31
  -4   1  15    6.16    0.23
   3  -1 -15   10.47    0.47
  -3   1  15   11.47    0.36
   2  -1 -15    1.19    0.14
  -2   1  15    1.16    0.11
   1  -1 -15    0.50    0.09
   0  -1 -15    0.16    0.07
  -1  -1 -15    4.49    0.24
  -1  -1 -15    4.21    0.31
  -2  -1 -15    0.89    0.11
  -2  -1 -15    0.73    0.16
   8  -2 -15    0.75    0.09
  -8   2  15    0.78    0.11
  -7   2  15    3.07    0.17
  -6   2  15    1.59    0.12
  -5   2  15    4.62    0.21
  -4   2  15    1.82    0.12
   3  -2 -15    1.25    0.15
  -3   2  15    1.02    0.09
   2  -2 -15    5.27    0.29
  -2   2  15    5.54    0.21
   1  -2 -15    2.40    0.18
  -1   2  15    2.73    0.12
   0  -2 -15    0.02    0.07
  -1  -2 -15    1.20    0.14
   8  -3 -15    6.23    0.27
  -8   3  15    6.23    0.28
   7  -3 -15    3.52    0.15
  -7   3  15    3.47    0.19
  -6   3  15    4.04    0.20
  -5   3  15    1.41    0.11
  -4   3  15    0.13    0.06
  -3   3  15    5.42    0.22
   2  -3 -15    2.13    0.18
  -2   3  15    2.53    0.14
   1  -3 -15    0.76    0.13
  -1   3  15    0.93    0.09
   0  -3 -15    0.20    0.09
   0   3  15    0.11    0.06
  -1  -3 -15    2.37    0.20
   8  -4 -15    5.93    0.28
   7  -4 -15    0.12    0.05
  -7   4  15    0.06    0.07
  -6   4  15    0.07    0.06
  -5   4  15    0.13    0.07
  -4   4  15    3.23    0.18
  -3   4  15    5.66    0.24
  -2   4  15   -0.04    0.06
  -1   4  15    0.20    0.07
   0   4  15    1.25    0.11
   7  -5 -15    1.82    0.13
  -7   5  15    1.89    0.15
  -4   5  15    2.07    0.15
  -3   5  15    0.05    0.07
  -2   5  15    0.55    0.09
  -1   5  15    1.85    0.14
   7  -6 -15    1.09    0.11
   6  -6 -15    0.71    0.07
  -6   6  15    0.73    0.11
  -5   6  15    0.83    0.11
  -4   6  15    0.12    0.08
  -3   6  15    1.22    0.13
  -2   6  15    0.92    0.12
   3   7 -16    1.18    0.14
   3   7 -16    1.00    0.14
   2   7 -16    4.86    0.25
   2   7 -16    4.32    0.24
   1   7 -16    2.07    0.14
   1   7 -16    2.05    0.14
  -1  -7  16    1.90    0.14
   4   6 -16    0.50    0.11
   4   6 -16    0.60    0.12
  -4  -6  16    1.01    0.09
   3   6 -16    7.17    0.35
   3   6 -16    7.27    0.34
   2   6 -16    2.01    0.15
   2   6 -16    2.07    0.15
  -2  -6  16    1.65    0.14
   1   6 -16    0.68    0.08
   1   6 -16    0.59    0.08
  -1  -6  16    0.61    0.08
   0  -6  16    1.35    0.10
   5   5 -16    1.58    0.18
  -5  -5  16    1.62    0.12
   4   5 -16    0.02    0.07
   4   5 -16   -0.02    0.06
  -4  -5  16    0.00    0.04
   3   5 -16    2.75    0.19
   3   5 -16    2.77    0.19
   2   5 -16    0.80    0.10
   2   5 -16    0.81    0.10
  -2  -5  16    0.75    0.10
   1   5 -16    4.24    0.20
   1   5 -16    4.47    0.20
  -1  -5  16    4.39    0.19
   0  -5  16    2.60    0.13
   1  -5  16    0.00    0.03
  -6  -4  16    2.38    0.15
   5   4 -16    0.10    0.08
  -5  -4  16   -0.01    0.05
   4   4 -16    0.58    0.11
   4   4 -16    0.69    0.12
  -4  -4  16    0.83    0.08
   3   4 -16    1.32    0.14
   3   4 -16    1.11    0.13
   2   4 -16    7.31    0.32
   2   4 -16    7.12    0.32
  -2  -4  16    7.58    0.29
   1   4 -16    3.77    0.18
   1   4 -16    3.91    0.18
  -1  -4  16    3.72    0.17
   0  -4  16    0.03    0.04
   1  -4  16    0.51    0.05
  -7  -3  16    3.78    0.20
   6   3 -16    0.07    0.09
  -6  -3  16    0.25    0.07
  -5  -3  16    1.10    0.10
   4   3 -16    2.80    0.20
  -4  -3  16    2.81    0.13
   3   3 -16    6.34    0.30
  -3  -3  16    5.91    0.26
   2   3 -16    1.49    0.13
  -2  -3  16    1.35    0.12
   1   3 -16    0.28    0.06
  -1  -3  16    0.37    0.06
   0  -3  16    2.38    0.12
  -7  -2  16    0.12    0.07
  -6  -2  16    3.55    0.18
  -5  -2  16    2.47    0.14
   4   2 -16    4.11    0.25
  -4  -2  16    4.08    0.17
   3   2 -16    1.70    0.15
   2   2 -16    1.48    0.13
  -2  -2  16    1.35    0.12
   1   2 -16    3.99    0.20
  -1  -2  16    4.17    0.18
   0   2 -16    2.52    0.14
   0  -2  16    2.56    0.13
  -1   2 -16    4.15    0.30
  -7  -1  16    4.10    0.21
  -6  -1  16    2.51    0.15
  -5  -1  16    0.18    0.06
   4   1 -16    0.22    0.08
  -4  -1  16    0.15    0.05
   3   1 -16    1.13    0.13
   2   1 -16    5.06    0.26
  -2  -1  16    5.25    0.23
   1   1 -16    2.26    0.16
   1   1 -16    2.57    0.22
  -1  -1  16    2.40    0.14
   0   1 -16   -0.01    0.09
   0   1 -16   -0.04    0.05
  -1   1 -16    0.46    0.13
  -1   1 -16    0.44    0.07
  -7   0  16    0.73    0.10
  -6   0  16    0.07    0.06
  -5   0  16    1.48    0.11
   4   0 -16    4.74    0.28
  -4   0  16    4.87    0.20
   3   0 -16   11.80    0.50
  -3   0  16   11.82    0.37
   2   0 -16    4.43    0.25
   1   0 -16    0.14    0.07
   0   0 -16   -0.12    0.08
   0   0 -16   -0.03    0.05
  -1   0 -16    1.55    0.13
  -1   0 -16    2.12    0.24
  -7   1  16    0.88    0.11
  -6   1  16    2.38    0.15
  -5   1  16    2.92    0.16
   4  -1 -16    2.97    0.21
  -4   1  16    2.68    0.14
   3  -1 -16    1.17    0.14
  -3   1  16    1.30    0.10
   2  -1 -16    0.32    0.09
   1  -1 -16    1.39    0.15
   0  -1 -16    0.65    0.11
  -1  -1 -16    0.49    0.15
  -1  -1 -16    0.75    0.11
  -7   2  16    3.77    0.20
  -6   2  16    1.56    0.12
  -5   2  16    1.52    0.12
  -4   2  16    0.27    0.07
   3  -2 -16    0.64    0.12
  -3   2  16    0.81    0.09
   2  -2 -16    6.34    0.33
  -2   2  16    6.19    0.23
   1  -2 -16    2.36    0.19
   0  -2 -16    0.04    0.08
  -7   3  16    1.77    0.14
  -6   3  16    0.02    0.06
  -5   3  16    0.07    0.06
  -4   3  16    4.49    0.21
  -3   3  16    2.13    0.13
  -2   3  16    1.97    0.13
   1  -3 -16   -0.06    0.06
  -1   3  16   -0.05    0.05
  -7   4  16    0.97    0.12
  -6   4  16    0.86    0.11
  -5   4  16    1.13    0.12
  -4   4  16    5.98    0.26
  -3   4  16    0.82    0.10
  -2   4  16    0.39    0.08
  -6   5  16    1.57    0.15
  -5   5  16    1.47    0.14
  -4   5  16    0.73    0.11
  -3   5  16    0.08    0.07
   4   5 -17    0.58    0.12
   3   5 -17    0.04    0.07
   3   5 -17    0.03    0.07
   2   5 -17    2.49    0.16
   2   5 -17    2.43    0.16
  -2  -5  17    2.39    0.16
   1   5 -17    5.55    0.22
   1   5 -17    5.33    0.22
  -1  -5  17    5.20    0.23
   5   4 -17    0.16    0.09
  -5  -4  17    0.12    0.06
   4   4 -17    0.24    0.08
   4   4 -17    0.11    0.08
  -4  -4  17    0.19    0.05
   3   4 -17    1.29    0.14
   3   4 -17    1.03    0.13
   2   4 -17    4.99    0.25
   2   4 -17    5.08    0.25
  -2  -4  17    5.08    0.23
   1   4 -17    0.68    0.07
   1   4 -17    0.75    0.08
  -1  -4  17    0.61    0.08
   5   3 -17    1.76    0.19
  -5  -3  17    2.08    0.13
   4   3 -17    1.62    0.17
  -4  -3  17    1.72    0.10
   3   3 -17    0.45    0.09
   2   3 -17    1.46    0.13
  -2  -3  17    1.35    0.12
   1   3 -17    1.60    0.12
   1   3 -17    1.37    0.11
  -1  -3  17    1.56    0.11
   0  -3  17    3.56    0.16
  -6  -2  17    5.59    0.25
  -5  -2  17    1.17    0.10
   4   2 -17    0.14    0.08
  -4  -2  17    0.15    0.05
   3   2 -17    0.99    0.12
   2   2 -17    1.90    0.15
  -2  -2  17    1.77    0.13
   1   2 -17    3.70    0.19
  -1  -2  17    3.43    0.17
   0   2 -17    0.93    0.09
   0  -2  17    0.89    0.09
  -6  -1  17    1.67    0.13
  -5  -1  17    0.01    0.05
   4   1 -17    0.78    0.13
  -4  -1  17    1.04    0.09
   3   1 -17    4.53    0.26
   2   1 -17    5.37    0.27
   1   1 -17    1.26    0.13
  -1  -1  17    1.12    0.11
   0   1 -17    0.43    0.08
  -6   0  17    1.17    0.12
  -5   0  17    1.23    0.11
   4   0 -17    2.12    0.18
  -4   0  17    2.11    0.13
   3   0 -17    3.36    0.22
   2   0 -17    0.70    0.11
   1   0 -17    0.00    0.06
  -6   1  17    3.20    0.18
  -5   1  17    1.56    0.12
  -4   1  17    0.86    0.09
   3  -1 -17    0.00    0.06
  -3   1  17    0.02    0.05
   2  -1 -17    3.66    0.23
   1  -1 -17    2.32    0.18
  -6   2  17    0.53    0.09
  -5   2  17    0.00    0.06
  -4   2  17    0.25    0.07
  -3   2  17    2.20    0.13
   2  -2 -17    3.71    0.24
  -2   2  17    3.52    0.17
  -5   3  17    1.84    0.14
  -4   3  17    2.60    0.16
  -3   3  17    3.31    0.18
   0   0   0    0.00    0.00
;
_shelx_hkl_checksum                89674
_olex2_submission_special_instructions  'No special instructions were received'
