default_name
  -OEChem-02102213163D

 23 22  0     1  0  0  0  0  0999 V2000
   -2.6721   -3.7279    0.7212 H   0  0  0  0  0  0  0  0  0  0  0  0
   -2.6561   -2.6819    0.4162 C   0  0  0  0  0  0  0  0  0  0  0  0
   -3.2401   -2.0889    1.1172 H   0  0  0  0  0  0  0  0  0  0  0  0
   -3.0671   -2.5859   -0.5858 H   0  0  0  0  0  0  0  0  0  0  0  0
   -1.2261   -2.1939    0.4202 C   0  0  0  0  0  0  0  0  0  0  0  0
   -0.3181   -2.9519    0.7312 O   0  0  0  0  0  0  0  0  0  0  0  0
   -1.0281   -0.9259    0.0662 N   0  0  0  0  0  0  0  0  0  0  0  0
   -1.8301   -0.3519   -0.1548 H   0  0  0  0  0  0  0  0  0  0  0  0
    0.2709   -0.2409    0.0912 C   0  0  1  0  0  0  0  0  0  0  0  0
    0.9659   -0.7829   -0.5505 H   0  0  0  0  0  0  0  0  0  0  0  0
    0.1223    1.1810   -0.4656 C   0  0  0  0  0  0  0  0  0  0  0  0
   -0.2361    1.1265   -1.4949 H   0  0  0  0  0  0  0  0  0  0  0  0
   -0.6056    1.7325    0.1320 H   0  0  0  0  0  0  0  0  0  0  0  0
    1.3634    1.8612   -0.4513 O   0  0  0  0  0  0  0  0  0  0  0  0
    1.2684    2.6725   -0.9619 H   0  0  0  0  0  0  0  0  0  0  0  0
    0.8483   -0.2295    1.5163 C   0  0  0  0  0  0  0  0  0  0  0  0
    2.0363   -0.4957    1.7022 O   0  0  0  0  0  0  0  0  0  0  0  0
    0.0217    0.0878    2.5186 N   0  0  0  0  0  0  0  0  0  0  0  0
   -0.9550    0.1996    2.2807 H   0  0  0  0  0  0  0  0  0  0  0  0
    0.4111    0.1659    3.9252 C   0  0  0  0  0  0  0  0  0  0  0  0
    1.3526    0.7115    4.0184 H   0  0  0  0  0  0  0  0  0  0  0  0
   -0.3597    0.6789    4.5010 H   0  0  0  0  0  0  0  0  0  0  0  0
    0.5502   -0.8414    4.3232 H   0  0  0  0  0  0  0  0  0  0  0  0
  5  6  2  0  0  0  0
  5  7  1  0  0  0  0
  2  3  1  0  0  0  0
  2  4  1  0  0  0  0
  2  5  1  0  0  0  0
  1  2  1  0  0  0  0
 16 17  2  0  0  0  0
 16 18  1  0  0  0  0
 14 15  1  0  0  0  0
 11 12  1  0  0  0  0
 11 13  1  0  0  0  0
 11 14  1  0  0  0  0
  9 10  1  0  0  0  0
  9 11  1  0  0  0  0
  9 16  1  0  0  0  0
  7  8  1  0  0  0  0
  7  9  1  0  0  0  0
 20 21  1  0  0  0  0
 20 22  1  0  0  0  0
 20 23  1  0  0  0  0
 18 19  1  0  0  0  0
 18 20  1  0  0  0  0
M  END
$$$$
default_name
  -OEChem-02102213163D

 23 22  0     1  0  0  0  0  0999 V2000
   -2.6721   -3.7279    0.7212 H   0  0  0  0  0  0  0  0  0  0  0  0
   -2.6561   -2.6819    0.4162 C   0  0  0  0  0  0  0  0  0  0  0  0
   -3.2401   -2.0889    1.1172 H   0  0  0  0  0  0  0  0  0  0  0  0
   -3.0671   -2.5859   -0.5858 H   0  0  0  0  0  0  0  0  0  0  0  0
   -1.2261   -2.1939    0.4202 C   0  0  0  0  0  0  0  0  0  0  0  0
   -0.3181   -2.9519    0.7312 O   0  0  0  0  0  0  0  0  0  0  0  0
   -1.0281   -0.9259    0.0662 N   0  0  0  0  0  0  0  0  0  0  0  0
   -1.8301   -0.3519   -0.1548 H   0  0  0  0  0  0  0  0  0  0  0  0
    0.2709   -0.2409    0.0912 C   0  0  1  0  0  0  0  0  0  0  0  0
    0.9659   -0.7829   -0.5505 H   0  0  0  0  0  0  0  0  0  0  0  0
    0.1223    1.1810   -0.4656 C   0  0  0  0  0  0  0  0  0  0  0  0
   -0.4771    1.1475   -1.3770 H   0  0  0  0  0  0  0  0  0  0  0  0
   -0.3869    1.8086    0.2679 H   0  0  0  0  0  0  0  0  0  0  0  0
    1.3867    1.7378   -0.7728 O   0  0  0  0  0  0  0  0  0  0  0  0
    1.2456    2.5474   -1.2752 H   0  0  0  0  0  0  0  0  0  0  0  0
    0.8483   -0.2295    1.5163 C   0  0  0  0  0  0  0  0  0  0  0  0
    2.0363   -0.4957    1.7022 O   0  0  0  0  0  0  0  0  0  0  0  0
    0.0217    0.0878    2.5186 N   0  0  0  0  0  0  0  0  0  0  0  0
   -0.9550    0.1996    2.2807 H   0  0  0  0  0  0  0  0  0  0  0  0
    0.4111    0.1659    3.9252 C   0  0  0  0  0  0  0  0  0  0  0  0
    1.3526    0.7115    4.0184 H   0  0  0  0  0  0  0  0  0  0  0  0
   -0.3597    0.6789    4.5010 H   0  0  0  0  0  0  0  0  0  0  0  0
    0.5502   -0.8414    4.3232 H   0  0  0  0  0  0  0  0  0  0  0  0
  5  6  2  0  0  0  0
  5  7  1  0  0  0  0
  2  3  1  0  0  0  0
  2  4  1  0  0  0  0
  2  5  1  0  0  0  0
  1  2  1  0  0  0  0
 16 17  2  0  0  0  0
 16 18  1  0  0  0  0
 14 15  1  0  0  0  0
 11 12  1  0  0  0  0
 11 13  1  0  0  0  0
 11 14  1  0  0  0  0
  9 10  1  0  0  0  0
  9 11  1  0  0  0  0
  9 16  1  0  0  0  0
  7  8  1  0  0  0  0
  7  9  1  0  0  0  0
 20 21  1  0  0  0  0
 20 22  1  0  0  0  0
 20 23  1  0  0  0  0
 18 19  1  0  0  0  0
 18 20  1  0  0  0  0
M  END
$$$$
default_name
  -OEChem-02102213163D

 23 22  0     1  0  0  0  0  0999 V2000
   -2.6721   -3.7279    0.7212 H   0  0  0  0  0  0  0  0  0  0  0  0
   -2.6561   -2.6819    0.4162 C   0  0  0  0  0  0  0  0  0  0  0  0
   -3.2401   -2.0889    1.1172 H   0  0  0  0  0  0  0  0  0  0  0  0
   -3.0671   -2.5859   -0.5858 H   0  0  0  0  0  0  0  0  0  0  0  0
   -1.2261   -2.1939    0.4202 C   0  0  0  0  0  0  0  0  0  0  0  0
   -0.3181   -2.9519    0.7312 O   0  0  0  0  0  0  0  0  0  0  0  0
   -1.0281   -0.9259    0.0662 N   0  0  0  0  0  0  0  0  0  0  0  0
   -1.8301   -0.3519   -0.1548 H   0  0  0  0  0  0  0  0  0  0  0  0
    0.2709   -0.2409    0.0912 C   0  0  1  0  0  0  0  0  0  0  0  0
    0.9659   -0.7829   -0.5505 H   0  0  0  0  0  0  0  0  0  0  0  0
    0.1223    1.1810   -0.4656 C   0  0  0  0  0  0  0  0  0  0  0  0
   -0.6795    1.1934   -1.2057 H   0  0  0  0  0  0  0  0  0  0  0  0
   -0.1358    1.8650    0.3448 H   0  0  0  0  0  0  0  0  0  0  0  0
    1.3206    1.6083   -1.0858 O   0  0  0  0  0  0  0  0  0  0  0  0
    1.1367    2.4209   -1.5693 H   0  0  0  0  0  0  0  0  0  0  0  0
    0.8483   -0.2295    1.5163 C   0  0  0  0  0  0  0  0  0  0  0  0
    2.0363   -0.4957    1.7022 O   0  0  0  0  0  0  0  0  0  0  0  0
    0.0217    0.0878    2.5186 N   0  0  0  0  0  0  0  0  0  0  0  0
   -0.9550    0.1996    2.2807 H   0  0  0  0  0  0  0  0  0  0  0  0
    0.4111    0.1659    3.9252 C   0  0  0  0  0  0  0  0  0  0  0  0
    1.3526    0.7115    4.0184 H   0  0  0  0  0  0  0  0  0  0  0  0
   -0.3597    0.6789    4.5010 H   0  0  0  0  0  0  0  0  0  0  0  0
    0.5502   -0.8414    4.3232 H   0  0  0  0  0  0  0  0  0  0  0  0
  5  6  2  0  0  0  0
  5  7  1  0  0  0  0
  2  3  1  0  0  0  0
  2  4  1  0  0  0  0
  2  5  1  0  0  0  0
  1  2  1  0  0  0  0
 16 17  2  0  0  0  0
 16 18  1  0  0  0  0
 14 15  1  0  0  0  0
 11 12  1  0  0  0  0
 11 13  1  0  0  0  0
 11 14  1  0  0  0  0
  9 10  1  0  0  0  0
  9 11  1  0  0  0  0
  9 16  1  0  0  0  0
  7  8  1  0  0  0  0
  7  9  1  0  0  0  0
 20 21  1  0  0  0  0
 20 22  1  0  0  0  0
 20 23  1  0  0  0  0
 18 19  1  0  0  0  0
 18 20  1  0  0  0  0
M  END
$$$$
default_name
  -OEChem-02102213163D

 23 22  0     1  0  0  0  0  0999 V2000
   -2.6721   -3.7279    0.7212 H   0  0  0  0  0  0  0  0  0  0  0  0
   -2.6561   -2.6819    0.4162 C   0  0  0  0  0  0  0  0  0  0  0  0
   -3.2401   -2.0889    1.1172 H   0  0  0  0  0  0  0  0  0  0  0  0
   -3.0671   -2.5859   -0.5858 H   0  0  0  0  0  0  0  0  0  0  0  0
   -1.2261   -2.1939    0.4202 C   0  0  0  0  0  0  0  0  0  0  0  0
   -0.3181   -2.9519    0.7312 O   0  0  0  0  0  0  0  0  0  0  0  0
   -1.0281   -0.9259    0.0662 N   0  0  0  0  0  0  0  0  0  0  0  0
   -1.8301   -0.3519   -0.1548 H   0  0  0  0  0  0  0  0  0  0  0  0
    0.2709   -0.2409    0.0912 C   0  0  1  0  0  0  0  0  0  0  0  0
    0.9659   -0.7829   -0.5505 H   0  0  0  0  0  0  0  0  0  0  0  0
    0.1223    1.1810   -0.4656 C   0  0  0  0  0  0  0  0  0  0  0  0
   -0.8298    1.2610   -0.9929 H   0  0  0  0  0  0  0  0  0  0  0  0
    0.1304    1.8977    0.3575 H   0  0  0  0  0  0  0  0  0  0  0  0
    1.1695    1.4815   -1.3691 O   0  0  0  0  0  0  0  0  0  0  0  0
    0.9491    2.3015   -1.8240 H   0  0  0  0  0  0  0  0  0  0  0  0
    0.8483   -0.2295    1.5163 C   0  0  0  0  0  0  0  0  0  0  0  0
    2.0363   -0.4957    1.7022 O   0  0  0  0  0  0  0  0  0  0  0  0
    0.0217    0.0878    2.5186 N   0  0  0  0  0  0  0  0  0  0  0  0
   -0.9550    0.1996    2.2807 H   0  0  0  0  0  0  0  0  0  0  0  0
    0.4111    0.1659    3.9252 C   0  0  0  0  0  0  0  0  0  0  0  0
    1.3526    0.7115    4.0184 H   0  0  0  0  0  0  0  0  0  0  0  0
   -0.3597    0.6789    4.5010 H   0  0  0  0  0  0  0  0  0  0  0  0
    0.5502   -0.8414    4.3232 H   0  0  0  0  0  0  0  0  0  0  0  0
  5  6  2  0  0  0  0
  5  7  1  0  0  0  0
  2  3  1  0  0  0  0
  2  4  1  0  0  0  0
  2  5  1  0  0  0  0
  1  2  1  0  0  0  0
 16 17  2  0  0  0  0
 16 18  1  0  0  0  0
 14 15  1  0  0  0  0
 11 12  1  0  0  0  0
 11 13  1  0  0  0  0
 11 14  1  0  0  0  0
  9 10  1  0  0  0  0
  9 11  1  0  0  0  0
  9 16  1  0  0  0  0
  7  8  1  0  0  0  0
  7  9  1  0  0  0  0
 20 21  1  0  0  0  0
 20 22  1  0  0  0  0
 20 23  1  0  0  0  0
 18 19  1  0  0  0  0
 18 20  1  0  0  0  0
M  END
$$$$
default_name
  -OEChem-02102213163D

 23 22  0     1  0  0  0  0  0999 V2000
   -2.6721   -3.7279    0.7212 H   0  0  0  0  0  0  0  0  0  0  0  0
   -2.6561   -2.6819    0.4162 C   0  0  0  0  0  0  0  0  0  0  0  0
   -3.2401   -2.0889    1.1172 H   0  0  0  0  0  0  0  0  0  0  0  0
   -3.0671   -2.5859   -0.5858 H   0  0  0  0  0  0  0  0  0  0  0  0
   -1.2261   -2.1939    0.4202 C   0  0  0  0  0  0  0  0  0  0  0  0
   -0.3181   -2.9519    0.7312 O   0  0  0  0  0  0  0  0  0  0  0  0
   -1.0281   -0.9259    0.0662 N   0  0  0  0  0  0  0  0  0  0  0  0
   -1.8301   -0.3519   -0.1548 H   0  0  0  0  0  0  0  0  0  0  0  0
    0.2709   -0.2409    0.0912 C   0  0  1  0  0  0  0  0  0  0  0  0
    0.9659   -0.7829   -0.5505 H   0  0  0  0  0  0  0  0  0  0  0  0
    0.1223    1.1810   -0.4656 C   0  0  0  0  0  0  0  0  0  0  0  0
   -0.9175    1.3458   -0.7530 H   0  0  0  0  0  0  0  0  0  0  0  0
    0.3937    1.9047    0.3050 H   0  0  0  0  0  0  0  0  0  0  0  0
    0.9437    1.3662   -1.6032 O   0  0  0  0  0  0  0  0  0  0  0  0
    0.6956    2.1975   -2.0221 H   0  0  0  0  0  0  0  0  0  0  0  0
    0.8483   -0.2295    1.5163 C   0  0  0  0  0  0  0  0  0  0  0  0
    2.0363   -0.4957    1.7022 O   0  0  0  0  0  0  0  0  0  0  0  0
    0.0217    0.0878    2.5186 N   0  0  0  0  0  0  0  0  0  0  0  0
   -0.9550    0.1996    2.2807 H   0  0  0  0  0  0  0  0  0  0  0  0
    0.4111    0.1659    3.9252 C   0  0  0  0  0  0  0  0  0  0  0  0
    1.3526    0.7115    4.0184 H   0  0  0  0  0  0  0  0  0  0  0  0
   -0.3597    0.6789    4.5010 H   0  0  0  0  0  0  0  0  0  0  0  0
    0.5502   -0.8414    4.3232 H   0  0  0  0  0  0  0  0  0  0  0  0
  5  6  2  0  0  0  0
  5  7  1  0  0  0  0
  2  3  1  0  0  0  0
  2  4  1  0  0  0  0
  2  5  1  0  0  0  0
  1  2  1  0  0  0  0
 16 17  2  0  0  0  0
 16 18  1  0  0  0  0
 14 15  1  0  0  0  0
 11 12  1  0  0  0  0
 11 13  1  0  0  0  0
 11 14  1  0  0  0  0
  9 10  1  0  0  0  0
  9 11  1  0  0  0  0
  9 16  1  0  0  0  0
  7  8  1  0  0  0  0
  7  9  1  0  0  0  0
 20 21  1  0  0  0  0
 20 22  1  0  0  0  0
 20 23  1  0  0  0  0
 18 19  1  0  0  0  0
 18 20  1  0  0  0  0
M  END
$$$$
default_name
  -OEChem-02102213163D

 23 22  0     1  0  0  0  0  0999 V2000
   -2.6721   -3.7279    0.7212 H   0  0  0  0  0  0  0  0  0  0  0  0
   -2.6561   -2.6819    0.4162 C   0  0  0  0  0  0  0  0  0  0  0  0
   -3.2401   -2.0889    1.1172 H   0  0  0  0  0  0  0  0  0  0  0  0
   -3.0671   -2.5859   -0.5858 H   0  0  0  0  0  0  0  0  0  0  0  0
   -1.2261   -2.1939    0.4202 C   0  0  0  0  0  0  0  0  0  0  0  0
   -0.3181   -2.9519    0.7312 O   0  0  0  0  0  0  0  0  0  0  0  0
   -1.0281   -0.9259    0.0662 N   0  0  0  0  0  0  0  0  0  0  0  0
   -1.8301   -0.3519   -0.1548 H   0  0  0  0  0  0  0  0  0  0  0  0
    0.2709   -0.2409    0.0912 C   0  0  1  0  0  0  0  0  0  0  0  0
    0.9659   -0.7829   -0.5505 H   0  0  0  0  0  0  0  0  0  0  0  0
    0.1223    1.1810   -0.4656 C   0  0  0  0  0  0  0  0  0  0  0  0
   -0.9367    1.4420   -0.5024 H   0  0  0  0  0  0  0  0  0  0  0  0
    0.6361    1.8854    0.1910 H   0  0  0  0  0  0  0  0  0  0  0  0
    0.6586    1.2702   -1.7724 O   0  0  0  0  0  0  0  0  0  0  0  0
    0.3934    2.1158   -2.1500 H   0  0  0  0  0  0  0  0  0  0  0  0
    0.8483   -0.2295    1.5163 C   0  0  0  0  0  0  0  0  0  0  0  0
    2.0363   -0.4957    1.7022 O   0  0  0  0  0  0  0  0  0  0  0  0
    0.0217    0.0878    2.5186 N   0  0  0  0  0  0  0  0  0  0  0  0
   -0.9550    0.1996    2.2807 H   0  0  0  0  0  0  0  0  0  0  0  0
    0.4111    0.1659    3.9252 C   0  0  0  0  0  0  0  0  0  0  0  0
    1.3526    0.7115    4.0184 H   0  0  0  0  0  0  0  0  0  0  0  0
   -0.3597    0.6789    4.5010 H   0  0  0  0  0  0  0  0  0  0  0  0
    0.5502   -0.8414    4.3232 H   0  0  0  0  0  0  0  0  0  0  0  0
  5  6  2  0  0  0  0
  5  7  1  0  0  0  0
  2  3  1  0  0  0  0
  2  4  1  0  0  0  0
  2  5  1  0  0  0  0
  1  2  1  0  0  0  0
 16 17  2  0  0  0  0
 16 18  1  0  0  0  0
 14 15  1  0  0  0  0
 11 12  1  0  0  0  0
 11 13  1  0  0  0  0
 11 14  1  0  0  0  0
  9 10  1  0  0  0  0
  9 11  1  0  0  0  0
  9 16  1  0  0  0  0
  7  8  1  0  0  0  0
  7  9  1  0  0  0  0
 20 21  1  0  0  0  0
 20 22  1  0  0  0  0
 20 23  1  0  0  0  0
 18 19  1  0  0  0  0
 18 20  1  0  0  0  0
M  END
$$$$
default_name
  -OEChem-02102213163D

 23 22  0     1  0  0  0  0  0999 V2000
   -2.6721   -3.7279    0.7212 H   0  0  0  0  0  0  0  0  0  0  0  0
   -2.6561   -2.6819    0.4162 C   0  0  0  0  0  0  0  0  0  0  0  0
   -3.2401   -2.0889    1.1172 H   0  0  0  0  0  0  0  0  0  0  0  0
   -3.0671   -2.5859   -0.5858 H   0  0  0  0  0  0  0  0  0  0  0  0
   -1.2261   -2.1939    0.4202 C   0  0  0  0  0  0  0  0  0  0  0  0
   -0.3181   -2.9519    0.7312 O   0  0  0  0  0  0  0  0  0  0  0  0
   -1.0281   -0.9259    0.0662 N   0  0  0  0  0  0  0  0  0  0  0  0
   -1.8301   -0.3519   -0.1548 H   0  0  0  0  0  0  0  0  0  0  0  0
    0.2709   -0.2409    0.0912 C   0  0  1  0  0  0  0  0  0  0  0  0
    0.9659   -0.7829   -0.5505 H   0  0  0  0  0  0  0  0  0  0  0  0
    0.1223    1.1810   -0.4656 C   0  0  0  0  0  0  0  0  0  0  0  0
   -0.8860    1.5429   -0.2581 H   0  0  0  0  0  0  0  0  0  0  0  0
    0.8411    1.8411    0.0232 H   0  0  0  0  0  0  0  0  0  0  0  0
    0.3336    1.2000   -1.8650 O   0  0  0  0  0  0  0  0  0  0  0  0
    0.0632    2.0621   -2.1990 H   0  0  0  0  0  0  0  0  0  0  0  0
    0.8483   -0.2295    1.5163 C   0  0  0  0  0  0  0  0  0  0  0  0
    2.0363   -0.4957    1.7022 O   0  0  0  0  0  0  0  0  0  0  0  0
    0.0217    0.0878    2.5186 N   0  0  0  0  0  0  0  0  0  0  0  0
   -0.9550    0.1996    2.2807 H   0  0  0  0  0  0  0  0  0  0  0  0
    0.4111    0.1659    3.9252 C   0  0  0  0  0  0  0  0  0  0  0  0
    1.3526    0.7115    4.0184 H   0  0  0  0  0  0  0  0  0  0  0  0
   -0.3597    0.6789    4.5010 H   0  0  0  0  0  0  0  0  0  0  0  0
    0.5502   -0.8414    4.3232 H   0  0  0  0  0  0  0  0  0  0  0  0
  5  6  2  0  0  0  0
  5  7  1  0  0  0  0
  2  3  1  0  0  0  0
  2  4  1  0  0  0  0
  2  5  1  0  0  0  0
  1  2  1  0  0  0  0
 16 17  2  0  0  0  0
 16 18  1  0  0  0  0
 14 15  1  0  0  0  0
 11 12  1  0  0  0  0
 11 13  1  0  0  0  0
 11 14  1  0  0  0  0
  9 10  1  0  0  0  0
  9 11  1  0  0  0  0
  9 16  1  0  0  0  0
  7  8  1  0  0  0  0
  7  9  1  0  0  0  0
 20 21  1  0  0  0  0
 20 22  1  0  0  0  0
 20 23  1  0  0  0  0
 18 19  1  0  0  0  0
 18 20  1  0  0  0  0
M  END
$$$$
default_name
  -OEChem-02102213163D

 23 22  0     1  0  0  0  0  0999 V2000
   -2.6721   -3.7279    0.7212 H   0  0  0  0  0  0  0  0  0  0  0  0
   -2.6561   -2.6819    0.4162 C   0  0  0  0  0  0  0  0  0  0  0  0
   -3.2401   -2.0889    1.1172 H   0  0  0  0  0  0  0  0  0  0  0  0
   -3.0671   -2.5859   -0.5858 H   0  0  0  0  0  0  0  0  0  0  0  0
   -1.2261   -2.1939    0.4202 C   0  0  0  0  0  0  0  0  0  0  0  0
   -0.3181   -2.9519    0.7312 O   0  0  0  0  0  0  0  0  0  0  0  0
   -1.0281   -0.9259    0.0662 N   0  0  0  0  0  0  0  0  0  0  0  0
   -1.8301   -0.3519   -0.1548 H   0  0  0  0  0  0  0  0  0  0  0  0
    0.2709   -0.2409    0.0912 C   0  0  1  0  0  0  0  0  0  0  0  0
    0.9659   -0.7829   -0.5505 H   0  0  0  0  0  0  0  0  0  0  0  0
    0.1223    1.1810   -0.4656 C   0  0  0  0  0  0  0  0  0  0  0  0
   -0.7691    1.6418   -0.0368 H   0  0  0  0  0  0  0  0  0  0  0  0
    0.9946    1.7748   -0.1869 H   0  0  0  0  0  0  0  0  0  0  0  0
   -0.0091    1.1604   -1.8747 O   0  0  0  0  0  0  0  0  0  0  0  0
   -0.2726    2.0400   -2.1658 H   0  0  0  0  0  0  0  0  0  0  0  0
    0.8483   -0.2295    1.5163 C   0  0  0  0  0  0  0  0  0  0  0  0
    2.0363   -0.4957    1.7022 O   0  0  0  0  0  0  0  0  0  0  0  0
    0.0217    0.0878    2.5186 N   0  0  0  0  0  0  0  0  0  0  0  0
   -0.9550    0.1996    2.2807 H   0  0  0  0  0  0  0  0  0  0  0  0
    0.4111    0.1659    3.9252 C   0  0  0  0  0  0  0  0  0  0  0  0
    1.3526    0.7115    4.0184 H   0  0  0  0  0  0  0  0  0  0  0  0
   -0.3597    0.6789    4.5010 H   0  0  0  0  0  0  0  0  0  0  0  0
    0.5502   -0.8414    4.3232 H   0  0  0  0  0  0  0  0  0  0  0  0
  5  6  2  0  0  0  0
  5  7  1  0  0  0  0
  2  3  1  0  0  0  0
  2  4  1  0  0  0  0
  2  5  1  0  0  0  0
  1  2  1  0  0  0  0
 16 17  2  0  0  0  0
 16 18  1  0  0  0  0
 14 15  1  0  0  0  0
 11 12  1  0  0  0  0
 11 13  1  0  0  0  0
 11 14  1  0  0  0  0
  9 10  1  0  0  0  0
  9 11  1  0  0  0  0
  9 16  1  0  0  0  0
  7  8  1  0  0  0  0
  7  9  1  0  0  0  0
 20 21  1  0  0  0  0
 20 22  1  0  0  0  0
 20 23  1  0  0  0  0
 18 19  1  0  0  0  0
 18 20  1  0  0  0  0
M  END
$$$$
default_name
  -OEChem-02102213163D

 23 22  0     1  0  0  0  0  0999 V2000
   -2.6721   -3.7279    0.7212 H   0  0  0  0  0  0  0  0  0  0  0  0
   -2.6561   -2.6819    0.4162 C   0  0  0  0  0  0  0  0  0  0  0  0
   -3.2401   -2.0889    1.1172 H   0  0  0  0  0  0  0  0  0  0  0  0
   -3.0671   -2.5859   -0.5858 H   0  0  0  0  0  0  0  0  0  0  0  0
   -1.2261   -2.1939    0.4202 C   0  0  0  0  0  0  0  0  0  0  0  0
   -0.3181   -2.9519    0.7312 O   0  0  0  0  0  0  0  0  0  0  0  0
   -1.0281   -0.9259    0.0662 N   0  0  0  0  0  0  0  0  0  0  0  0
   -1.8301   -0.3519   -0.1548 H   0  0  0  0  0  0  0  0  0  0  0  0
    0.2709   -0.2409    0.0912 C   0  0  1  0  0  0  0  0  0  0  0  0
    0.9659   -0.7829   -0.5505 H   0  0  0  0  0  0  0  0  0  0  0  0
    0.1223    1.1810   -0.4656 C   0  0  0  0  0  0  0  0  0  0  0  0
   -0.5937    1.7319    0.1464 H   0  0  0  0  0  0  0  0  0  0  0  0
    1.0863    1.6912   -0.4251 H   0  0  0  0  0  0  0  0  0  0  0  0
   -0.3463    1.1540   -1.8009 O   0  0  0  0  0  0  0  0  0  0  0  0
   -0.5911    2.0511   -2.0526 H   0  0  0  0  0  0  0  0  0  0  0  0
    0.8483   -0.2295    1.5163 C   0  0  0  0  0  0  0  0  0  0  0  0
    2.0363   -0.4957    1.7022 O   0  0  0  0  0  0  0  0  0  0  0  0
    0.0217    0.0878    2.5186 N   0  0  0  0  0  0  0  0  0  0  0  0
   -0.9550    0.1996    2.2807 H   0  0  0  0  0  0  0  0  0  0  0  0
    0.4111    0.1659    3.9252 C   0  0  0  0  0  0  0  0  0  0  0  0
    1.3526    0.7115    4.0184 H   0  0  0  0  0  0  0  0  0  0  0  0
   -0.3597    0.6789    4.5010 H   0  0  0  0  0  0  0  0  0  0  0  0
    0.5502   -0.8414    4.3232 H   0  0  0  0  0  0  0  0  0  0  0  0
  5  6  2  0  0  0  0
  5  7  1  0  0  0  0
  2  3  1  0  0  0  0
  2  4  1  0  0  0  0
  2  5  1  0  0  0  0
  1  2  1  0  0  0  0
 16 17  2  0  0  0  0
 16 18  1  0  0  0  0
 14 15  1  0  0  0  0
 11 12  1  0  0  0  0
 11 13  1  0  0  0  0
 11 14  1  0  0  0  0
  9 10  1  0  0  0  0
  9 11  1  0  0  0  0
  9 16  1  0  0  0  0
  7  8  1  0  0  0  0
  7  9  1  0  0  0  0
 20 21  1  0  0  0  0
 20 22  1  0  0  0  0
 20 23  1  0  0  0  0
 18 19  1  0  0  0  0
 18 20  1  0  0  0  0
M  END
$$$$
default_name
  -OEChem-02102213163D

 23 22  0     1  0  0  0  0  0999 V2000
   -2.6721   -3.7279    0.7212 H   0  0  0  0  0  0  0  0  0  0  0  0
   -2.6561   -2.6819    0.4162 C   0  0  0  0  0  0  0  0  0  0  0  0
   -3.2401   -2.0889    1.1172 H   0  0  0  0  0  0  0  0  0  0  0  0
   -3.0671   -2.5859   -0.5858 H   0  0  0  0  0  0  0  0  0  0  0  0
   -1.2261   -2.1939    0.4202 C   0  0  0  0  0  0  0  0  0  0  0  0
   -0.3181   -2.9519    0.7312 O   0  0  0  0  0  0  0  0  0  0  0  0
   -1.0281   -0.9259    0.0662 N   0  0  0  0  0  0  0  0  0  0  0  0
   -1.8301   -0.3519   -0.1548 H   0  0  0  0  0  0  0  0  0  0  0  0
    0.2709   -0.2409    0.0912 C   0  0  1  0  0  0  0  0  0  0  0  0
    0.9659   -0.7829   -0.5505 H   0  0  0  0  0  0  0  0  0  0  0  0
    0.1223    1.1810   -0.4656 C   0  0  0  0  0  0  0  0  0  0  0  0
   -0.3719    1.8070    0.2791 H   0  0  0  0  0  0  0  0  0  0  0  0
    1.1099    1.5958   -0.6750 H   0  0  0  0  0  0  0  0  0  0  0  0
   -0.6548    1.1815   -1.6486 O   0  0  0  0  0  0  0  0  0  0  0  0
   -0.8705    2.0945   -1.8672 H   0  0  0  0  0  0  0  0  0  0  0  0
    0.8483   -0.2295    1.5163 C   0  0  0  0  0  0  0  0  0  0  0  0
    2.0363   -0.4957    1.7022 O   0  0  0  0  0  0  0  0  0  0  0  0
    0.0217    0.0878    2.5186 N   0  0  0  0  0  0  0  0  0  0  0  0
   -0.9550    0.1996    2.2807 H   0  0  0  0  0  0  0  0  0  0  0  0
    0.4111    0.1659    3.9252 C   0  0  0  0  0  0  0  0  0  0  0  0
    1.3526    0.7115    4.0184 H   0  0  0  0  0  0  0  0  0  0  0  0
   -0.3597    0.6789    4.5010 H   0  0  0  0  0  0  0  0  0  0  0  0
    0.5502   -0.8414    4.3232 H   0  0  0  0  0  0  0  0  0  0  0  0
  5  6  2  0  0  0  0
  5  7  1  0  0  0  0
  2  3  1  0  0  0  0
  2  4  1  0  0  0  0
  2  5  1  0  0  0  0
  1  2  1  0  0  0  0
 16 17  2  0  0  0  0
 16 18  1  0  0  0  0
 14 15  1  0  0  0  0
 11 12  1  0  0  0  0
 11 13  1  0  0  0  0
 11 14  1  0  0  0  0
  9 10  1  0  0  0  0
  9 11  1  0  0  0  0
  9 16  1  0  0  0  0
  7  8  1  0  0  0  0
  7  9  1  0  0  0  0
 20 21  1  0  0  0  0
 20 22  1  0  0  0  0
 20 23  1  0  0  0  0
 18 19  1  0  0  0  0
 18 20  1  0  0  0  0
M  END
$$$$
default_name
  -OEChem-02102213163D

 23 22  0     1  0  0  0  0  0999 V2000
   -2.6721   -3.7279    0.7212 H   0  0  0  0  0  0  0  0  0  0  0  0
   -2.6561   -2.6819    0.4162 C   0  0  0  0  0  0  0  0  0  0  0  0
   -3.2401   -2.0889    1.1172 H   0  0  0  0  0  0  0  0  0  0  0  0
   -3.0671   -2.5859   -0.5858 H   0  0  0  0  0  0  0  0  0  0  0  0
   -1.2261   -2.1939    0.4202 C   0  0  0  0  0  0  0  0  0  0  0  0
   -0.3181   -2.9519    0.7312 O   0  0  0  0  0  0  0  0  0  0  0  0
   -1.0281   -0.9259    0.0662 N   0  0  0  0  0  0  0  0  0  0  0  0
   -1.8301   -0.3519   -0.1548 H   0  0  0  0  0  0  0  0  0  0  0  0
    0.2709   -0.2409    0.0912 C   0  0  1  0  0  0  0  0  0  0  0  0
    0.9659   -0.7829   -0.5505 H   0  0  0  0  0  0  0  0  0  0  0  0
    0.1223    1.1810   -0.4656 C   0  0  0  0  0  0  0  0  0  0  0  0
   -0.1188    1.8621    0.3522 H   0  0  0  0  0  0  0  0  0  0  0  0
    1.0638    1.4951   -0.9197 H   0  0  0  0  0  0  0  0  0  0  0  0
   -0.9137    1.2407   -1.4281 O   0  0  0  0  0  0  0  0  0  0  0  0
   -1.0918    2.1673   -1.6222 H   0  0  0  0  0  0  0  0  0  0  0  0
    0.8483   -0.2295    1.5163 C   0  0  0  0  0  0  0  0  0  0  0  0
    2.0363   -0.4957    1.7022 O   0  0  0  0  0  0  0  0  0  0  0  0
    0.0217    0.0878    2.5186 N   0  0  0  0  0  0  0  0  0  0  0  0
   -0.9550    0.1996    2.2807 H   0  0  0  0  0  0  0  0  0  0  0  0
    0.4111    0.1659    3.9252 C   0  0  0  0  0  0  0  0  0  0  0  0
    1.3526    0.7115    4.0184 H   0  0  0  0  0  0  0  0  0  0  0  0
   -0.3597    0.6789    4.5010 H   0  0  0  0  0  0  0  0  0  0  0  0
    0.5502   -0.8414    4.3232 H   0  0  0  0  0  0  0  0  0  0  0  0
  5  6  2  0  0  0  0
  5  7  1  0  0  0  0
  2  3  1  0  0  0  0
  2  4  1  0  0  0  0
  2  5  1  0  0  0  0
  1  2  1  0  0  0  0
 16 17  2  0  0  0  0
 16 18  1  0  0  0  0
 14 15  1  0  0  0  0
 11 12  1  0  0  0  0
 11 13  1  0  0  0  0
 11 14  1  0  0  0  0
  9 10  1  0  0  0  0
  9 11  1  0  0  0  0
  9 16  1  0  0  0  0
  7  8  1  0  0  0  0
  7  9  1  0  0  0  0
 20 21  1  0  0  0  0
 20 22  1  0  0  0  0
 20 23  1  0  0  0  0
 18 19  1  0  0  0  0
 18 20  1  0  0  0  0
M  END
$$$$
default_name
  -OEChem-02102213163D

 23 22  0     1  0  0  0  0  0999 V2000
   -2.6721   -3.7279    0.7212 H   0  0  0  0  0  0  0  0  0  0  0  0
   -2.6561   -2.6819    0.4162 C   0  0  0  0  0  0  0  0  0  0  0  0
   -3.2401   -2.0889    1.1172 H   0  0  0  0  0  0  0  0  0  0  0  0
   -3.0671   -2.5859   -0.5858 H   0  0  0  0  0  0  0  0  0  0  0  0
   -1.2261   -2.1939    0.4202 C   0  0  0  0  0  0  0  0  0  0  0  0
   -0.3181   -2.9519    0.7312 O   0  0  0  0  0  0  0  0  0  0  0  0
   -1.0281   -0.9259    0.0662 N   0  0  0  0  0  0  0  0  0  0  0  0
   -1.8301   -0.3519   -0.1548 H   0  0  0  0  0  0  0  0  0  0  0  0
    0.2709   -0.2409    0.0912 C   0  0  1  0  0  0  0  0  0  0  0  0
    0.9659   -0.7829   -0.5505 H   0  0  0  0  0  0  0  0  0  0  0  0
    0.1223    1.1810   -0.4656 C   0  0  0  0  0  0  0  0  0  0  0  0
    0.1483    1.8933    0.3606 H   0  0  0  0  0  0  0  0  0  0  0  0
    0.9512    1.3961   -1.1424 H   0  0  0  0  0  0  0  0  0  0  0  0
   -1.1053    1.3278   -1.1546 O   0  0  0  0  0  0  0  0  0  0  0  0
   -1.2400    2.2646   -1.3342 H   0  0  0  0  0  0  0  0  0  0  0  0
    0.8483   -0.2295    1.5163 C   0  0  0  0  0  0  0  0  0  0  0  0
    2.0363   -0.4957    1.7022 O   0  0  0  0  0  0  0  0  0  0  0  0
    0.0217    0.0878    2.5186 N   0  0  0  0  0  0  0  0  0  0  0  0
   -0.9550    0.1996    2.2807 H   0  0  0  0  0  0  0  0  0  0  0  0
    0.4111    0.1659    3.9252 C   0  0  0  0  0  0  0  0  0  0  0  0
    1.3526    0.7115    4.0184 H   0  0  0  0  0  0  0  0  0  0  0  0
   -0.3597    0.6789    4.5010 H   0  0  0  0  0  0  0  0  0  0  0  0
    0.5502   -0.8414    4.3232 H   0  0  0  0  0  0  0  0  0  0  0  0
  5  6  2  0  0  0  0
  5  7  1  0  0  0  0
  2  3  1  0  0  0  0
  2  4  1  0  0  0  0
  2  5  1  0  0  0  0
  1  2  1  0  0  0  0
 16 17  2  0  0  0  0
 16 18  1  0  0  0  0
 14 15  1  0  0  0  0
 11 12  1  0  0  0  0
 11 13  1  0  0  0  0
 11 14  1  0  0  0  0
  9 10  1  0  0  0  0
  9 11  1  0  0  0  0
  9 16  1  0  0  0  0
  7  8  1  0  0  0  0
  7  9  1  0  0  0  0
 20 21  1  0  0  0  0
 20 22  1  0  0  0  0
 20 23  1  0  0  0  0
 18 19  1  0  0  0  0
 18 20  1  0  0  0  0
M  END
$$$$
default_name
  -OEChem-02102213163D

 23 22  0     1  0  0  0  0  0999 V2000
   -2.6721   -3.7279    0.7212 H   0  0  0  0  0  0  0  0  0  0  0  0
   -2.6561   -2.6819    0.4162 C   0  0  0  0  0  0  0  0  0  0  0  0
   -3.2401   -2.0889    1.1172 H   0  0  0  0  0  0  0  0  0  0  0  0
   -3.0671   -2.5859   -0.5858 H   0  0  0  0  0  0  0  0  0  0  0  0
   -1.2261   -2.1939    0.4202 C   0  0  0  0  0  0  0  0  0  0  0  0
   -0.3181   -2.9519    0.7312 O   0  0  0  0  0  0  0  0  0  0  0  0
   -1.0281   -0.9259    0.0662 N   0  0  0  0  0  0  0  0  0  0  0  0
   -1.8301   -0.3519   -0.1548 H   0  0  0  0  0  0  0  0  0  0  0  0
    0.2709   -0.2409    0.0912 C   0  0  1  0  0  0  0  0  0  0  0  0
    0.9659   -0.7829   -0.5505 H   0  0  0  0  0  0  0  0  0  0  0  0
    0.1223    1.1810   -0.4656 C   0  0  0  0  0  0  0  0  0  0  0  0
    0.4114    1.8986    0.3040 H   0  0  0  0  0  0  0  0  0  0  0  0
    0.7796    1.3055   -1.3281 H   0  0  0  0  0  0  0  0  0  0  0  0
   -1.2166    1.4368   -0.8466 O   0  0  0  0  0  0  0  0  0  0  0  0
   -1.3049    2.3797   -1.0230 H   0  0  0  0  0  0  0  0  0  0  0  0
    0.8483   -0.2295    1.5163 C   0  0  0  0  0  0  0  0  0  0  0  0
    2.0363   -0.4957    1.7022 O   0  0  0  0  0  0  0  0  0  0  0  0
    0.0217    0.0878    2.5186 N   0  0  0  0  0  0  0  0  0  0  0  0
   -0.9550    0.1996    2.2807 H   0  0  0  0  0  0  0  0  0  0  0  0
    0.4111    0.1659    3.9252 C   0  0  0  0  0  0  0  0  0  0  0  0
    1.3526    0.7115    4.0184 H   0  0  0  0  0  0  0  0  0  0  0  0
   -0.3597    0.6789    4.5010 H   0  0  0  0  0  0  0  0  0  0  0  0
    0.5502   -0.8414    4.3232 H   0  0  0  0  0  0  0  0  0  0  0  0
  5  6  2  0  0  0  0
  5  7  1  0  0  0  0
  2  3  1  0  0  0  0
  2  4  1  0  0  0  0
  2  5  1  0  0  0  0
  1  2  1  0  0  0  0
 16 17  2  0  0  0  0
 16 18  1  0  0  0  0
 14 15  1  0  0  0  0
 11 12  1  0  0  0  0
 11 13  1  0  0  0  0
 11 14  1  0  0  0  0
  9 10  1  0  0  0  0
  9 11  1  0  0  0  0
  9 16  1  0  0  0  0
  7  8  1  0  0  0  0
  7  9  1  0  0  0  0
 20 21  1  0  0  0  0
 20 22  1  0  0  0  0
 20 23  1  0  0  0  0
 18 19  1  0  0  0  0
 18 20  1  0  0  0  0
M  END
$$$$
default_name
  -OEChem-02102213163D

 23 22  0     1  0  0  0  0  0999 V2000
   -2.6721   -3.7279    0.7212 H   0  0  0  0  0  0  0  0  0  0  0  0
   -2.6561   -2.6819    0.4162 C   0  0  0  0  0  0  0  0  0  0  0  0
   -3.2401   -2.0889    1.1172 H   0  0  0  0  0  0  0  0  0  0  0  0
   -3.0671   -2.5859   -0.5858 H   0  0  0  0  0  0  0  0  0  0  0  0
   -1.2261   -2.1939    0.4202 C   0  0  0  0  0  0  0  0  0  0  0  0
   -0.3181   -2.9519    0.7312 O   0  0  0  0  0  0  0  0  0  0  0  0
   -1.0281   -0.9259    0.0662 N   0  0  0  0  0  0  0  0  0  0  0  0
   -1.8301   -0.3519   -0.1548 H   0  0  0  0  0  0  0  0  0  0  0  0
    0.2709   -0.2409    0.0912 C   0  0  1  0  0  0  0  0  0  0  0  0
    0.9659   -0.7829   -0.5505 H   0  0  0  0  0  0  0  0  0  0  0  0
    0.1223    1.1810   -0.4656 C   0  0  0  0  0  0  0  0  0  0  0  0
    0.6524    1.8776    0.1860 H   0  0  0  0  0  0  0  0  0  0  0  0
    0.5608    1.2294   -1.4640 H   0  0  0  0  0  0  0  0  0  0  0  0
   -1.2400    1.5603   -0.5251 O   0  0  0  0  0  0  0  0  0  0  0  0
   -1.2821    2.5048   -0.7096 H   0  0  0  0  0  0  0  0  0  0  0  0
    0.8483   -0.2295    1.5163 C   0  0  0  0  0  0  0  0  0  0  0  0
    2.0363   -0.4957    1.7022 O   0  0  0  0  0  0  0  0  0  0  0  0
    0.0217    0.0878    2.5186 N   0  0  0  0  0  0  0  0  0  0  0  0
   -0.9550    0.1996    2.2807 H   0  0  0  0  0  0  0  0  0  0  0  0
    0.4111    0.1659    3.9252 C   0  0  0  0  0  0  0  0  0  0  0  0
    1.3526    0.7115    4.0184 H   0  0  0  0  0  0  0  0  0  0  0  0
   -0.3597    0.6789    4.5010 H   0  0  0  0  0  0  0  0  0  0  0  0
    0.5502   -0.8414    4.3232 H   0  0  0  0  0  0  0  0  0  0  0  0
  5  6  2  0  0  0  0
  5  7  1  0  0  0  0
  2  3  1  0  0  0  0
  2  4  1  0  0  0  0
  2  5  1  0  0  0  0
  1  2  1  0  0  0  0
 16 17  2  0  0  0  0
 16 18  1  0  0  0  0
 14 15  1  0  0  0  0
 11 12  1  0  0  0  0
 11 13  1  0  0  0  0
 11 14  1  0  0  0  0
  9 10  1  0  0  0  0
  9 11  1  0  0  0  0
  9 16  1  0  0  0  0
  7  8  1  0  0  0  0
  7  9  1  0  0  0  0
 20 21  1  0  0  0  0
 20 22  1  0  0  0  0
 20 23  1  0  0  0  0
 18 19  1  0  0  0  0
 18 20  1  0  0  0  0
M  END
$$$$
default_name
  -OEChem-02102213163D

 23 22  0     1  0  0  0  0  0999 V2000
   -2.6721   -3.7279    0.7212 H   0  0  0  0  0  0  0  0  0  0  0  0
   -2.6561   -2.6819    0.4162 C   0  0  0  0  0  0  0  0  0  0  0  0
   -3.2401   -2.0889    1.1172 H   0  0  0  0  0  0  0  0  0  0  0  0
   -3.0671   -2.5859   -0.5858 H   0  0  0  0  0  0  0  0  0  0  0  0
   -1.2261   -2.1939    0.4202 C   0  0  0  0  0  0  0  0  0  0  0  0
   -0.3181   -2.9519    0.7312 O   0  0  0  0  0  0  0  0  0  0  0  0
   -1.0281   -0.9259    0.0662 N   0  0  0  0  0  0  0  0  0  0  0  0
   -1.8301   -0.3519   -0.1548 H   0  0  0  0  0  0  0  0  0  0  0  0
    0.2709   -0.2409    0.0912 C   0  0  1  0  0  0  0  0  0  0  0  0
    0.9659   -0.7829   -0.5505 H   0  0  0  0  0  0  0  0  0  0  0  0
    0.1223    1.1810   -0.4656 C   0  0  0  0  0  0  0  0  0  0  0  0
    0.8549    1.8317    0.0148 H   0  0  0  0  0  0  0  0  0  0  0  0
    0.3098    1.1731   -1.5409 H   0  0  0  0  0  0  0  0  0  0  0  0
   -1.1738    1.6898   -0.2121 O   0  0  0  0  0  0  0  0  0  0  0  0
   -1.1732    2.6313   -0.4156 H   0  0  0  0  0  0  0  0  0  0  0  0
    0.8483   -0.2295    1.5163 C   0  0  0  0  0  0  0  0  0  0  0  0
    2.0363   -0.4957    1.7022 O   0  0  0  0  0  0  0  0  0  0  0  0
    0.0217    0.0878    2.5186 N   0  0  0  0  0  0  0  0  0  0  0  0
   -0.9550    0.1996    2.2807 H   0  0  0  0  0  0  0  0  0  0  0  0
    0.4111    0.1659    3.9252 C   0  0  0  0  0  0  0  0  0  0  0  0
    1.3526    0.7115    4.0184 H   0  0  0  0  0  0  0  0  0  0  0  0
   -0.3597    0.6789    4.5010 H   0  0  0  0  0  0  0  0  0  0  0  0
    0.5502   -0.8414    4.3232 H   0  0  0  0  0  0  0  0  0  0  0  0
  5  6  2  0  0  0  0
  5  7  1  0  0  0  0
  2  3  1  0  0  0  0
  2  4  1  0  0  0  0
  2  5  1  0  0  0  0
  1  2  1  0  0  0  0
 16 17  2  0  0  0  0
 16 18  1  0  0  0  0
 14 15  1  0  0  0  0
 11 12  1  0  0  0  0
 11 13  1  0  0  0  0
 11 14  1  0  0  0  0
  9 10  1  0  0  0  0
  9 11  1  0  0  0  0
  9 16  1  0  0  0  0
  7  8  1  0  0  0  0
  7  9  1  0  0  0  0
 20 21  1  0  0  0  0
 20 22  1  0  0  0  0
 20 23  1  0  0  0  0
 18 19  1  0  0  0  0
 18 20  1  0  0  0  0
M  END
$$$$
default_name
  -OEChem-02102213163D

 23 22  0     1  0  0  0  0  0999 V2000
   -2.6721   -3.7279    0.7212 H   0  0  0  0  0  0  0  0  0  0  0  0
   -2.6561   -2.6819    0.4162 C   0  0  0  0  0  0  0  0  0  0  0  0
   -3.2401   -2.0889    1.1172 H   0  0  0  0  0  0  0  0  0  0  0  0
   -3.0671   -2.5859   -0.5858 H   0  0  0  0  0  0  0  0  0  0  0  0
   -1.2261   -2.1939    0.4202 C   0  0  0  0  0  0  0  0  0  0  0  0
   -0.3181   -2.9519    0.7312 O   0  0  0  0  0  0  0  0  0  0  0  0
   -1.0281   -0.9259    0.0662 N   0  0  0  0  0  0  0  0  0  0  0  0
   -1.8301   -0.3519   -0.1548 H   0  0  0  0  0  0  0  0  0  0  0  0
    0.2709   -0.2409    0.0912 C   0  0  1  0  0  0  0  0  0  0  0  0
    0.9659   -0.7829   -0.5505 H   0  0  0  0  0  0  0  0  0  0  0  0
    0.1223    1.1810   -0.4656 C   0  0  0  0  0  0  0  0  0  0  0  0
    1.0051    1.7640   -0.1981 H   0  0  0  0  0  0  0  0  0  0  0  0
    0.0435    1.1403   -1.5535 H   0  0  0  0  0  0  0  0  0  0  0  0
   -1.0227    1.8165    0.0712 O   0  0  0  0  0  0  0  0  0  0  0  0
   -0.9856    2.7507   -0.1608 H   0  0  0  0  0  0  0  0  0  0  0  0
    0.8483   -0.2295    1.5163 C   0  0  0  0  0  0  0  0  0  0  0  0
    2.0363   -0.4957    1.7022 O   0  0  0  0  0  0  0  0  0  0  0  0
    0.0217    0.0878    2.5186 N   0  0  0  0  0  0  0  0  0  0  0  0
   -0.9550    0.1996    2.2807 H   0  0  0  0  0  0  0  0  0  0  0  0
    0.4111    0.1659    3.9252 C   0  0  0  0  0  0  0  0  0  0  0  0
    1.3526    0.7115    4.0184 H   0  0  0  0  0  0  0  0  0  0  0  0
   -0.3597    0.6789    4.5010 H   0  0  0  0  0  0  0  0  0  0  0  0
    0.5502   -0.8414    4.3232 H   0  0  0  0  0  0  0  0  0  0  0  0
  5  6  2  0  0  0  0
  5  7  1  0  0  0  0
  2  3  1  0  0  0  0
  2  4  1  0  0  0  0
  2  5  1  0  0  0  0
  1  2  1  0  0  0  0
 16 17  2  0  0  0  0
 16 18  1  0  0  0  0
 14 15  1  0  0  0  0
 11 12  1  0  0  0  0
 11 13  1  0  0  0  0
 11 14  1  0  0  0  0
  9 10  1  0  0  0  0
  9 11  1  0  0  0  0
  9 16  1  0  0  0  0
  7  8  1  0  0  0  0
  7  9  1  0  0  0  0
 20 21  1  0  0  0  0
 20 22  1  0  0  0  0
 20 23  1  0  0  0  0
 18 19  1  0  0  0  0
 18 20  1  0  0  0  0
M  END
$$$$
default_name
  -OEChem-02102213163D

 23 22  0     1  0  0  0  0  0999 V2000
   -2.6721   -3.7279    0.7212 H   0  0  0  0  0  0  0  0  0  0  0  0
   -2.6561   -2.6819    0.4162 C   0  0  0  0  0  0  0  0  0  0  0  0
   -3.2401   -2.0889    1.1172 H   0  0  0  0  0  0  0  0  0  0  0  0
   -3.0671   -2.5859   -0.5858 H   0  0  0  0  0  0  0  0  0  0  0  0
   -1.2261   -2.1939    0.4202 C   0  0  0  0  0  0  0  0  0  0  0  0
   -0.3181   -2.9519    0.7312 O   0  0  0  0  0  0  0  0  0  0  0  0
   -1.0281   -0.9259    0.0662 N   0  0  0  0  0  0  0  0  0  0  0  0
   -1.8301   -0.3519   -0.1548 H   0  0  0  0  0  0  0  0  0  0  0  0
    0.2709   -0.2409    0.0912 C   0  0  1  0  0  0  0  0  0  0  0  0
    0.9659   -0.7829   -0.5505 H   0  0  0  0  0  0  0  0  0  0  0  0
    0.1223    1.1810   -0.4656 C   0  0  0  0  0  0  0  0  0  0  0  0
    1.0928    1.6792   -0.4380 H   0  0  0  0  0  0  0  0  0  0  0  0
   -0.2198    1.1333   -1.5010 H   0  0  0  0  0  0  0  0  0  0  0  0
   -0.7969    1.9318    0.3054 O   0  0  0  0  0  0  0  0  0  0  0  0
   -0.7321    2.8548    0.0373 H   0  0  0  0  0  0  0  0  0  0  0  0
    0.8483   -0.2295    1.5163 C   0  0  0  0  0  0  0  0  0  0  0  0
    2.0363   -0.4957    1.7022 O   0  0  0  0  0  0  0  0  0  0  0  0
    0.0217    0.0878    2.5186 N   0  0  0  0  0  0  0  0  0  0  0  0
   -0.9550    0.1996    2.2807 H   0  0  0  0  0  0  0  0  0  0  0  0
    0.4111    0.1659    3.9252 C   0  0  0  0  0  0  0  0  0  0  0  0
    1.3526    0.7115    4.0184 H   0  0  0  0  0  0  0  0  0  0  0  0
   -0.3597    0.6789    4.5010 H   0  0  0  0  0  0  0  0  0  0  0  0
    0.5502   -0.8414    4.3232 H   0  0  0  0  0  0  0  0  0  0  0  0
  5  6  2  0  0  0  0
  5  7  1  0  0  0  0
  2  3  1  0  0  0  0
  2  4  1  0  0  0  0
  2  5  1  0  0  0  0
  1  2  1  0  0  0  0
 16 17  2  0  0  0  0
 16 18  1  0  0  0  0
 14 15  1  0  0  0  0
 11 12  1  0  0  0  0
 11 13  1  0  0  0  0
 11 14  1  0  0  0  0
  9 10  1  0  0  0  0
  9 11  1  0  0  0  0
  9 16  1  0  0  0  0
  7  8  1  0  0  0  0
  7  9  1  0  0  0  0
 20 21  1  0  0  0  0
 20 22  1  0  0  0  0
 20 23  1  0  0  0  0
 18 19  1  0  0  0  0
 18 20  1  0  0  0  0
M  END
$$$$
default_name
  -OEChem-02102213163D

 23 22  0     1  0  0  0  0  0999 V2000
   -2.6721   -3.7279    0.7212 H   0  0  0  0  0  0  0  0  0  0  0  0
   -2.6561   -2.6819    0.4162 C   0  0  0  0  0  0  0  0  0  0  0  0
   -3.2401   -2.0889    1.1172 H   0  0  0  0  0  0  0  0  0  0  0  0
   -3.0671   -2.5859   -0.5858 H   0  0  0  0  0  0  0  0  0  0  0  0
   -1.2261   -2.1939    0.4202 C   0  0  0  0  0  0  0  0  0  0  0  0
   -0.3181   -2.9519    0.7312 O   0  0  0  0  0  0  0  0  0  0  0  0
   -1.0281   -0.9259    0.0662 N   0  0  0  0  0  0  0  0  0  0  0  0
   -1.8301   -0.3519   -0.1548 H   0  0  0  0  0  0  0  0  0  0  0  0
    0.2709   -0.2409    0.0912 C   0  0  1  0  0  0  0  0  0  0  0  0
    0.9659   -0.7829   -0.5505 H   0  0  0  0  0  0  0  0  0  0  0  0
    0.1223    1.1810   -0.4656 C   0  0  0  0  0  0  0  0  0  0  0  0
    1.1120    1.5831   -0.6886 H   0  0  0  0  0  0  0  0  0  0  0  0
   -0.4621    1.1526   -1.3870 H   0  0  0  0  0  0  0  0  0  0  0  0
   -0.5118    2.0278    0.4745 O   0  0  0  0  0  0  0  0  0  0  0  0
   -0.4299    2.9364    0.1652 H   0  0  0  0  0  0  0  0  0  0  0  0
    0.8483   -0.2295    1.5163 C   0  0  0  0  0  0  0  0  0  0  0  0
    2.0363   -0.4957    1.7022 O   0  0  0  0  0  0  0  0  0  0  0  0
    0.0217    0.0878    2.5186 N   0  0  0  0  0  0  0  0  0  0  0  0
   -0.9550    0.1996    2.2807 H   0  0  0  0  0  0  0  0  0  0  0  0
    0.4111    0.1659    3.9252 C   0  0  0  0  0  0  0  0  0  0  0  0
    1.3526    0.7115    4.0184 H   0  0  0  0  0  0  0  0  0  0  0  0
   -0.3597    0.6789    4.5010 H   0  0  0  0  0  0  0  0  0  0  0  0
    0.5502   -0.8414    4.3232 H   0  0  0  0  0  0  0  0  0  0  0  0
  5  6  2  0  0  0  0
  5  7  1  0  0  0  0
  2  3  1  0  0  0  0
  2  4  1  0  0  0  0
  2  5  1  0  0  0  0
  1  2  1  0  0  0  0
 16 17  2  0  0  0  0
 16 18  1  0  0  0  0
 14 15  1  0  0  0  0
 11 12  1  0  0  0  0
 11 13  1  0  0  0  0
 11 14  1  0  0  0  0
  9 10  1  0  0  0  0
  9 11  1  0  0  0  0
  9 16  1  0  0  0  0
  7  8  1  0  0  0  0
  7  9  1  0  0  0  0
 20 21  1  0  0  0  0
 20 22  1  0  0  0  0
 20 23  1  0  0  0  0
 18 19  1  0  0  0  0
 18 20  1  0  0  0  0
M  END
$$$$
default_name
  -OEChem-02102213163D

 23 22  0     1  0  0  0  0  0999 V2000
   -2.6721   -3.7279    0.7212 H   0  0  0  0  0  0  0  0  0  0  0  0
   -2.6561   -2.6819    0.4162 C   0  0  0  0  0  0  0  0  0  0  0  0
   -3.2401   -2.0889    1.1172 H   0  0  0  0  0  0  0  0  0  0  0  0
   -3.0671   -2.5859   -0.5858 H   0  0  0  0  0  0  0  0  0  0  0  0
   -1.2261   -2.1939    0.4202 C   0  0  0  0  0  0  0  0  0  0  0  0
   -0.3181   -2.9519    0.7312 O   0  0  0  0  0  0  0  0  0  0  0  0
   -1.0281   -0.9259    0.0662 N   0  0  0  0  0  0  0  0  0  0  0  0
   -1.8301   -0.3519   -0.1548 H   0  0  0  0  0  0  0  0  0  0  0  0
    0.2709   -0.2409    0.0912 C   0  0  1  0  0  0  0  0  0  0  0  0
    0.9659   -0.7829   -0.5505 H   0  0  0  0  0  0  0  0  0  0  0  0
    0.1223    1.1810   -0.4656 C   0  0  0  0  0  0  0  0  0  0  0  0
    1.0614    1.4821   -0.9329 H   0  0  0  0  0  0  0  0  0  0  0  0
   -0.6671    1.1969   -1.2192 H   0  0  0  0  0  0  0  0  0  0  0  0
   -0.1868    2.0981    0.5671 O   0  0  0  0  0  0  0  0  0  0  0  0
   -0.0997    2.9901    0.2142 H   0  0  0  0  0  0  0  0  0  0  0  0
    0.8483   -0.2295    1.5163 C   0  0  0  0  0  0  0  0  0  0  0  0
    2.0363   -0.4957    1.7022 O   0  0  0  0  0  0  0  0  0  0  0  0
    0.0217    0.0878    2.5186 N   0  0  0  0  0  0  0  0  0  0  0  0
   -0.9550    0.1996    2.2807 H   0  0  0  0  0  0  0  0  0  0  0  0
    0.4111    0.1659    3.9252 C   0  0  0  0  0  0  0  0  0  0  0  0
    1.3526    0.7115    4.0184 H   0  0  0  0  0  0  0  0  0  0  0  0
   -0.3597    0.6789    4.5010 H   0  0  0  0  0  0  0  0  0  0  0  0
    0.5502   -0.8414    4.3232 H   0  0  0  0  0  0  0  0  0  0  0  0
  5  6  2  0  0  0  0
  5  7  1  0  0  0  0
  2  3  1  0  0  0  0
  2  4  1  0  0  0  0
  2  5  1  0  0  0  0
  1  2  1  0  0  0  0
 16 17  2  0  0  0  0
 16 18  1  0  0  0  0
 14 15  1  0  0  0  0
 11 12  1  0  0  0  0
 11 13  1  0  0  0  0
 11 14  1  0  0  0  0
  9 10  1  0  0  0  0
  9 11  1  0  0  0  0
  9 16  1  0  0  0  0
  7  8  1  0  0  0  0
  7  9  1  0  0  0  0
 20 21  1  0  0  0  0
 20 22  1  0  0  0  0
 20 23  1  0  0  0  0
 18 19  1  0  0  0  0
 18 20  1  0  0  0  0
M  END
$$$$
default_name
  -OEChem-02102213163D

 23 22  0     1  0  0  0  0  0999 V2000
   -2.6721   -3.7279    0.7212 H   0  0  0  0  0  0  0  0  0  0  0  0
   -2.6561   -2.6819    0.4162 C   0  0  0  0  0  0  0  0  0  0  0  0
   -3.2401   -2.0889    1.1172 H   0  0  0  0  0  0  0  0  0  0  0  0
   -3.0671   -2.5859   -0.5858 H   0  0  0  0  0  0  0  0  0  0  0  0
   -1.2261   -2.1939    0.4202 C   0  0  0  0  0  0  0  0  0  0  0  0
   -0.3181   -2.9519    0.7312 O   0  0  0  0  0  0  0  0  0  0  0  0
   -1.0281   -0.9259    0.0662 N   0  0  0  0  0  0  0  0  0  0  0  0
   -1.8301   -0.3519   -0.1548 H   0  0  0  0  0  0  0  0  0  0  0  0
    0.2709   -0.2409    0.0912 C   0  0  1  0  0  0  0  0  0  0  0  0
    0.9659   -0.7829   -0.5505 H   0  0  0  0  0  0  0  0  0  0  0  0
    0.1223    1.1810   -0.4656 C   0  0  0  0  0  0  0  0  0  0  0  0
    0.9444    1.3832   -1.1542 H   0  0  0  0  0  0  0  0  0  0  0  0
   -0.8207    1.2632   -1.0091 H   0  0  0  0  0  0  0  0  0  0  0  0
    0.1559    2.1377    0.5768 O   0  0  0  0  0  0  0  0  0  0  0  0
    0.2361    3.0122    0.1810 H   0  0  0  0  0  0  0  0  0  0  0  0
    0.8483   -0.2295    1.5163 C   0  0  0  0  0  0  0  0  0  0  0  0
    2.0363   -0.4957    1.7022 O   0  0  0  0  0  0  0  0  0  0  0  0
    0.0217    0.0878    2.5186 N   0  0  0  0  0  0  0  0  0  0  0  0
   -0.9550    0.1996    2.2807 H   0  0  0  0  0  0  0  0  0  0  0  0
    0.4111    0.1659    3.9252 C   0  0  0  0  0  0  0  0  0  0  0  0
    1.3526    0.7115    4.0184 H   0  0  0  0  0  0  0  0  0  0  0  0
   -0.3597    0.6789    4.5010 H   0  0  0  0  0  0  0  0  0  0  0  0
    0.5502   -0.8414    4.3232 H   0  0  0  0  0  0  0  0  0  0  0  0
  5  6  2  0  0  0  0
  5  7  1  0  0  0  0
  2  3  1  0  0  0  0
  2  4  1  0  0  0  0
  2  5  1  0  0  0  0
  1  2  1  0  0  0  0
 16 17  2  0  0  0  0
 16 18  1  0  0  0  0
 14 15  1  0  0  0  0
 11 12  1  0  0  0  0
 11 13  1  0  0  0  0
 11 14  1  0  0  0  0
  9 10  1  0  0  0  0
  9 11  1  0  0  0  0
  9 16  1  0  0  0  0
  7  8  1  0  0  0  0
  7  9  1  0  0  0  0
 20 21  1  0  0  0  0
 20 22  1  0  0  0  0
 20 23  1  0  0  0  0
 18 19  1  0  0  0  0
 18 20  1  0  0  0  0
M  END
$$$$
default_name
  -OEChem-02102213163D

 23 22  0     1  0  0  0  0  0999 V2000
   -2.6721   -3.7279    0.7212 H   0  0  0  0  0  0  0  0  0  0  0  0
   -2.6561   -2.6819    0.4162 C   0  0  0  0  0  0  0  0  0  0  0  0
   -3.2401   -2.0889    1.1172 H   0  0  0  0  0  0  0  0  0  0  0  0
   -3.0671   -2.5859   -0.5858 H   0  0  0  0  0  0  0  0  0  0  0  0
   -1.2261   -2.1939    0.4202 C   0  0  0  0  0  0  0  0  0  0  0  0
   -0.3181   -2.9519    0.7312 O   0  0  0  0  0  0  0  0  0  0  0  0
   -1.0281   -0.9259    0.0662 N   0  0  0  0  0  0  0  0  0  0  0  0
   -1.8301   -0.3519   -0.1548 H   0  0  0  0  0  0  0  0  0  0  0  0
    0.2709   -0.2409    0.0912 C   0  0  1  0  0  0  0  0  0  0  0  0
    0.9659   -0.7829   -0.5505 H   0  0  0  0  0  0  0  0  0  0  0  0
    0.1223    1.1810   -0.4656 C   0  0  0  0  0  0  0  0  0  0  0  0
    0.7690    1.2932   -1.3374 H   0  0  0  0  0  0  0  0  0  0  0  0
   -0.9124    1.3469   -0.7710 H   0  0  0  0  0  0  0  0  0  0  0  0
    0.4930    2.1440    0.5030 O   0  0  0  0  0  0  0  0  0  0  0  0
    0.5546    3.0012    0.0678 H   0  0  0  0  0  0  0  0  0  0  0  0
    0.8483   -0.2295    1.5163 C   0  0  0  0  0  0  0  0  0  0  0  0
    2.0363   -0.4957    1.7022 O   0  0  0  0  0  0  0  0  0  0  0  0
    0.0217    0.0878    2.5186 N   0  0  0  0  0  0  0  0  0  0  0  0
   -0.9550    0.1996    2.2807 H   0  0  0  0  0  0  0  0  0  0  0  0
    0.4111    0.1659    3.9252 C   0  0  0  0  0  0  0  0  0  0  0  0
    1.3526    0.7115    4.0184 H   0  0  0  0  0  0  0  0  0  0  0  0
   -0.3597    0.6789    4.5010 H   0  0  0  0  0  0  0  0  0  0  0  0
    0.5502   -0.8414    4.3232 H   0  0  0  0  0  0  0  0  0  0  0  0
  5  6  2  0  0  0  0
  5  7  1  0  0  0  0
  2  3  1  0  0  0  0
  2  4  1  0  0  0  0
  2  5  1  0  0  0  0
  1  2  1  0  0  0  0
 16 17  2  0  0  0  0
 16 18  1  0  0  0  0
 14 15  1  0  0  0  0
 11 12  1  0  0  0  0
 11 13  1  0  0  0  0
 11 14  1  0  0  0  0
  9 10  1  0  0  0  0
  9 11  1  0  0  0  0
  9 16  1  0  0  0  0
  7  8  1  0  0  0  0
  7  9  1  0  0  0  0
 20 21  1  0  0  0  0
 20 22  1  0  0  0  0
 20 23  1  0  0  0  0
 18 19  1  0  0  0  0
 18 20  1  0  0  0  0
M  END
$$$$
default_name
  -OEChem-02102213163D

 23 22  0     1  0  0  0  0  0999 V2000
   -2.6721   -3.7279    0.7212 H   0  0  0  0  0  0  0  0  0  0  0  0
   -2.6561   -2.6819    0.4162 C   0  0  0  0  0  0  0  0  0  0  0  0
   -3.2401   -2.0889    1.1172 H   0  0  0  0  0  0  0  0  0  0  0  0
   -3.0671   -2.5859   -0.5858 H   0  0  0  0  0  0  0  0  0  0  0  0
   -1.2261   -2.1939    0.4202 C   0  0  0  0  0  0  0  0  0  0  0  0
   -0.3181   -2.9519    0.7312 O   0  0  0  0  0  0  0  0  0  0  0  0
   -1.0281   -0.9259    0.0662 N   0  0  0  0  0  0  0  0  0  0  0  0
   -1.8301   -0.3519   -0.1548 H   0  0  0  0  0  0  0  0  0  0  0  0
    0.2709   -0.2409    0.0912 C   0  0  1  0  0  0  0  0  0  0  0  0
    0.9659   -0.7829   -0.5505 H   0  0  0  0  0  0  0  0  0  0  0  0
    0.1223    1.1810   -0.4656 C   0  0  0  0  0  0  0  0  0  0  0  0
    0.5473    1.2180   -1.4701 H   0  0  0  0  0  0  0  0  0  0  0  0
   -0.9360    1.4423   -0.5211 H   0  0  0  0  0  0  0  0  0  0  0  0
    0.8016    2.1166    0.3507 O   0  0  0  0  0  0  0  0  0  0  0  0
    0.8340    2.9577   -0.1177 H   0  0  0  0  0  0  0  0  0  0  0  0
    0.8483   -0.2295    1.5163 C   0  0  0  0  0  0  0  0  0  0  0  0
    2.0363   -0.4957    1.7022 O   0  0  0  0  0  0  0  0  0  0  0  0
    0.0217    0.0878    2.5186 N   0  0  0  0  0  0  0  0  0  0  0  0
   -0.9550    0.1996    2.2807 H   0  0  0  0  0  0  0  0  0  0  0  0
    0.4111    0.1659    3.9252 C   0  0  0  0  0  0  0  0  0  0  0  0
    1.3526    0.7115    4.0184 H   0  0  0  0  0  0  0  0  0  0  0  0
   -0.3597    0.6789    4.5010 H   0  0  0  0  0  0  0  0  0  0  0  0
    0.5502   -0.8414    4.3232 H   0  0  0  0  0  0  0  0  0  0  0  0
  5  6  2  0  0  0  0
  5  7  1  0  0  0  0
  2  3  1  0  0  0  0
  2  4  1  0  0  0  0
  2  5  1  0  0  0  0
  1  2  1  0  0  0  0
 16 17  2  0  0  0  0
 16 18  1  0  0  0  0
 14 15  1  0  0  0  0
 11 12  1  0  0  0  0
 11 13  1  0  0  0  0
 11 14  1  0  0  0  0
  9 10  1  0  0  0  0
  9 11  1  0  0  0  0
  9 16  1  0  0  0  0
  7  8  1  0  0  0  0
  7  9  1  0  0  0  0
 20 21  1  0  0  0  0
 20 22  1  0  0  0  0
 20 23  1  0  0  0  0
 18 19  1  0  0  0  0
 18 20  1  0  0  0  0
M  END
$$$$
default_name
  -OEChem-02102213163D

 23 22  0     1  0  0  0  0  0999 V2000
   -2.6721   -3.7279    0.7212 H   0  0  0  0  0  0  0  0  0  0  0  0
   -2.6561   -2.6819    0.4162 C   0  0  0  0  0  0  0  0  0  0  0  0
   -3.2401   -2.0889    1.1172 H   0  0  0  0  0  0  0  0  0  0  0  0
   -3.0671   -2.5859   -0.5858 H   0  0  0  0  0  0  0  0  0  0  0  0
   -1.2261   -2.1939    0.4202 C   0  0  0  0  0  0  0  0  0  0  0  0
   -0.3181   -2.9519    0.7312 O   0  0  0  0  0  0  0  0  0  0  0  0
   -1.0281   -0.9259    0.0662 N   0  0  0  0  0  0  0  0  0  0  0  0
   -1.8301   -0.3519   -0.1548 H   0  0  0  0  0  0  0  0  0  0  0  0
    0.2709   -0.2409    0.0912 C   0  0  1  0  0  0  0  0  0  0  0  0
    0.9659   -0.7829   -0.5505 H   0  0  0  0  0  0  0  0  0  0  0  0
    0.1223    1.1810   -0.4656 C   0  0  0  0  0  0  0  0  0  0  0  0
    0.2942    1.1630   -1.5431 H   0  0  0  0  0  0  0  0  0  0  0  0
   -0.8899    1.5429   -0.2764 H   0  0  0  0  0  0  0  0  0  0  0  0
    1.0604    2.0573    0.1303 O   0  0  0  0  0  0  0  0  0  0  0  0
    1.0553    2.8849   -0.3627 H   0  0  0  0  0  0  0  0  0  0  0  0
    0.8483   -0.2295    1.5163 C   0  0  0  0  0  0  0  0  0  0  0  0
    2.0363   -0.4957    1.7022 O   0  0  0  0  0  0  0  0  0  0  0  0
    0.0217    0.0878    2.5186 N   0  0  0  0  0  0  0  0  0  0  0  0
   -0.9550    0.1996    2.2807 H   0  0  0  0  0  0  0  0  0  0  0  0
    0.4111    0.1659    3.9252 C   0  0  0  0  0  0  0  0  0  0  0  0
    1.3526    0.7115    4.0184 H   0  0  0  0  0  0  0  0  0  0  0  0
   -0.3597    0.6789    4.5010 H   0  0  0  0  0  0  0  0  0  0  0  0
    0.5502   -0.8414    4.3232 H   0  0  0  0  0  0  0  0  0  0  0  0
  5  6  2  0  0  0  0
  5  7  1  0  0  0  0
  2  3  1  0  0  0  0
  2  4  1  0  0  0  0
  2  5  1  0  0  0  0
  1  2  1  0  0  0  0
 16 17  2  0  0  0  0
 16 18  1  0  0  0  0
 14 15  1  0  0  0  0
 11 12  1  0  0  0  0
 11 13  1  0  0  0  0
 11 14  1  0  0  0  0
  9 10  1  0  0  0  0
  9 11  1  0  0  0  0
  9 16  1  0  0  0  0
  7  8  1  0  0  0  0
  7  9  1  0  0  0  0
 20 21  1  0  0  0  0
 20 22  1  0  0  0  0
 20 23  1  0  0  0  0
 18 19  1  0  0  0  0
 18 20  1  0  0  0  0
M  END
$$$$
default_name
  -OEChem-02102213163D

 23 22  0     1  0  0  0  0  0999 V2000
   -2.6721   -3.7279    0.7212 H   0  0  0  0  0  0  0  0  0  0  0  0
   -2.6561   -2.6819    0.4162 C   0  0  0  0  0  0  0  0  0  0  0  0
   -3.2401   -2.0889    1.1172 H   0  0  0  0  0  0  0  0  0  0  0  0
   -3.0671   -2.5859   -0.5858 H   0  0  0  0  0  0  0  0  0  0  0  0
   -1.2261   -2.1939    0.4202 C   0  0  0  0  0  0  0  0  0  0  0  0
   -0.3181   -2.9519    0.7312 O   0  0  0  0  0  0  0  0  0  0  0  0
   -1.0281   -0.9259    0.0662 N   0  0  0  0  0  0  0  0  0  0  0  0
   -1.8301   -0.3519   -0.1548 H   0  0  0  0  0  0  0  0  0  0  0  0
    0.2709   -0.2409    0.0912 C   0  0  1  0  0  0  0  0  0  0  0  0
    0.9659   -0.7829   -0.5505 H   0  0  0  0  0  0  0  0  0  0  0  0
    0.1223    1.1810   -0.4656 C   0  0  0  0  0  0  0  0  0  0  0  0
    0.0270    1.1317   -1.5516 H   0  0  0  0  0  0  0  0  0  0  0  0
   -0.7772    1.6419   -0.0536 H   0  0  0  0  0  0  0  0  0  0  0  0
    1.2521    1.9702   -0.1433 O   0  0  0  0  0  0  0  0  0  0  0  0
    1.2035    2.7876   -0.6507 H   0  0  0  0  0  0  0  0  0  0  0  0
    0.8483   -0.2295    1.5163 C   0  0  0  0  0  0  0  0  0  0  0  0
    2.0363   -0.4957    1.7022 O   0  0  0  0  0  0  0  0  0  0  0  0
    0.0217    0.0878    2.5186 N   0  0  0  0  0  0  0  0  0  0  0  0
   -0.9550    0.1996    2.2807 H   0  0  0  0  0  0  0  0  0  0  0  0
    0.4111    0.1659    3.9252 C   0  0  0  0  0  0  0  0  0  0  0  0
    1.3526    0.7115    4.0184 H   0  0  0  0  0  0  0  0  0  0  0  0
   -0.3597    0.6789    4.5010 H   0  0  0  0  0  0  0  0  0  0  0  0
    0.5502   -0.8414    4.3232 H   0  0  0  0  0  0  0  0  0  0  0  0
  5  6  2  0  0  0  0
  5  7  1  0  0  0  0
  2  3  1  0  0  0  0
  2  4  1  0  0  0  0
  2  5  1  0  0  0  0
  1  2  1  0  0  0  0
 16 17  2  0  0  0  0
 16 18  1  0  0  0  0
 14 15  1  0  0  0  0
 11 12  1  0  0  0  0
 11 13  1  0  0  0  0
 11 14  1  0  0  0  0
  9 10  1  0  0  0  0
  9 11  1  0  0  0  0
  9 16  1  0  0  0  0
  7  8  1  0  0  0  0
  7  9  1  0  0  0  0
 20 21  1  0  0  0  0
 20 22  1  0  0  0  0
 20 23  1  0  0  0  0
 18 19  1  0  0  0  0
 18 20  1  0  0  0  0
M  END
$$$$
