default_name
  -OEChem-02102213163D

 23 22  0     1  0  0  0  0  0999 V2000
   -2.6721   -3.7279    0.7212 H   0  0  0  0  0  0  0  0  0  0  0  0
   -2.6561   -2.6819    0.4162 C   0  0  0  0  0  0  0  0  0  0  0  0
   -3.2401   -2.0889    1.1172 H   0  0  0  0  0  0  0  0  0  0  0  0
   -3.0671   -2.5859   -0.5858 H   0  0  0  0  0  0  0  0  0  0  0  0
   -1.2261   -2.1939    0.4202 C   0  0  0  0  0  0  0  0  0  0  0  0
   -0.3181   -2.9519    0.7312 O   0  0  0  0  0  0  0  0  0  0  0  0
   -1.0281   -0.9259    0.0662 N   0  0  0  0  0  0  0  0  0  0  0  0
   -1.8301   -0.3519   -0.1548 H   0  0  0  0  0  0  0  0  0  0  0  0
    0.2709   -0.2409    0.0912 C   0  0  1  0  0  0  0  0  0  0  0  0
    0.9610   -0.8195    0.7057 H   0  0  0  0  0  0  0  0  0  0  0  0
    0.8490   -0.1656   -1.3279 C   0  0  0  0  0  0  0  0  0  0  0  0
    0.9831   -1.1775   -1.7138 H   0  0  0  0  0  0  0  0  0  0  0  0
    0.1537    0.3696   -1.9771 H   0  0  0  0  0  0  0  0  0  0  0  0
    2.1025    0.4915   -1.3284 O   0  0  0  0  0  0  0  0  0  0  0  0
    2.5086    0.3656   -2.1928 H   0  0  0  0  0  0  0  0  0  0  0  0
    0.1327    1.1568    0.7173 C   0  0  0  0  0  0  0  0  0  0  0  0
   -0.8069    1.8857    0.3967 O   0  0  0  0  0  0  0  0  0  0  0  0
    1.0524    1.5291    1.6140 N   0  0  0  0  0  0  0  0  0  0  0  0
    1.8362    0.9033    1.7438 H   0  0  0  0  0  0  0  0  0  0  0  0
    1.0579    2.8104    2.3171 C   0  0  0  0  0  0  0  0  0  0  0  0
    0.0539    3.0358    2.6828 H   0  0  0  0  0  0  0  0  0  0  0  0
    1.7474    2.7734    3.1610 H   0  0  0  0  0  0  0  0  0  0  0  0
    1.3663    3.6029    1.6321 H   0  0  0  0  0  0  0  0  0  0  0  0
  5  6  2  0  0  0  0
  5  7  1  0  0  0  0
  2  3  1  0  0  0  0
  2  4  1  0  0  0  0
  2  5  1  0  0  0  0
  1  2  1  0  0  0  0
 16 17  2  0  0  0  0
 16 18  1  0  0  0  0
 14 15  1  0  0  0  0
 11 12  1  0  0  0  0
 11 13  1  0  0  0  0
 11 14  1  0  0  0  0
  9 10  1  0  0  0  0
  9 11  1  0  0  0  0
  9 16  1  0  0  0  0
  7  8  1  0  0  0  0
  7  9  1  0  0  0  0
 20 21  1  0  0  0  0
 20 22  1  0  0  0  0
 20 23  1  0  0  0  0
 18 19  1  0  0  0  0
 18 20  1  0  0  0  0
M  END
$$$$
default_name
  -OEChem-02102213163D

 23 22  0     1  0  0  0  0  0999 V2000
   -2.6721   -3.7279    0.7212 H   0  0  0  0  0  0  0  0  0  0  0  0
   -2.6561   -2.6819    0.4162 C   0  0  0  0  0  0  0  0  0  0  0  0
   -3.2401   -2.0889    1.1172 H   0  0  0  0  0  0  0  0  0  0  0  0
   -3.0671   -2.5859   -0.5858 H   0  0  0  0  0  0  0  0  0  0  0  0
   -1.2261   -2.1939    0.4202 C   0  0  0  0  0  0  0  0  0  0  0  0
   -0.3181   -2.9519    0.7312 O   0  0  0  0  0  0  0  0  0  0  0  0
   -1.0281   -0.9259    0.0662 N   0  0  0  0  0  0  0  0  0  0  0  0
   -1.8301   -0.3519   -0.1548 H   0  0  0  0  0  0  0  0  0  0  0  0
    0.2709   -0.2409    0.0912 C   0  0  1  0  0  0  0  0  0  0  0  0
    0.9610   -0.8195    0.7057 H   0  0  0  0  0  0  0  0  0  0  0  0
    0.8490   -0.1656   -1.3279 C   0  0  0  0  0  0  0  0  0  0  0  0
    0.7360   -1.1369   -1.8123 H   0  0  0  0  0  0  0  0  0  0  0  0
    0.3019    0.5818   -1.9055 H   0  0  0  0  0  0  0  0  0  0  0  0
    2.2236    0.1699   -1.2961 O   0  0  0  0  0  0  0  0  0  0  0  0
    2.5869    0.0369   -2.1784 H   0  0  0  0  0  0  0  0  0  0  0  0
    0.1327    1.1568    0.7173 C   0  0  0  0  0  0  0  0  0  0  0  0
   -0.8069    1.8857    0.3967 O   0  0  0  0  0  0  0  0  0  0  0  0
    1.0524    1.5291    1.6140 N   0  0  0  0  0  0  0  0  0  0  0  0
    1.8362    0.9033    1.7438 H   0  0  0  0  0  0  0  0  0  0  0  0
    1.0579    2.8104    2.3171 C   0  0  0  0  0  0  0  0  0  0  0  0
    0.0539    3.0358    2.6828 H   0  0  0  0  0  0  0  0  0  0  0  0
    1.7474    2.7734    3.1610 H   0  0  0  0  0  0  0  0  0  0  0  0
    1.3663    3.6029    1.6321 H   0  0  0  0  0  0  0  0  0  0  0  0
  5  6  2  0  0  0  0
  5  7  1  0  0  0  0
  2  3  1  0  0  0  0
  2  4  1  0  0  0  0
  2  5  1  0  0  0  0
  1  2  1  0  0  0  0
 16 17  2  0  0  0  0
 16 18  1  0  0  0  0
 14 15  1  0  0  0  0
 11 12  1  0  0  0  0
 11 13  1  0  0  0  0
 11 14  1  0  0  0  0
  9 10  1  0  0  0  0
  9 11  1  0  0  0  0
  9 16  1  0  0  0  0
  7  8  1  0  0  0  0
  7  9  1  0  0  0  0
 20 21  1  0  0  0  0
 20 22  1  0  0  0  0
 20 23  1  0  0  0  0
 18 19  1  0  0  0  0
 18 20  1  0  0  0  0
M  END
$$$$
default_name
  -OEChem-02102213163D

 23 22  0     1  0  0  0  0  0999 V2000
   -2.6721   -3.7279    0.7212 H   0  0  0  0  0  0  0  0  0  0  0  0
   -2.6561   -2.6819    0.4162 C   0  0  0  0  0  0  0  0  0  0  0  0
   -3.2401   -2.0889    1.1172 H   0  0  0  0  0  0  0  0  0  0  0  0
   -3.0671   -2.5859   -0.5858 H   0  0  0  0  0  0  0  0  0  0  0  0
   -1.2261   -2.1939    0.4202 C   0  0  0  0  0  0  0  0  0  0  0  0
   -0.3181   -2.9519    0.7312 O   0  0  0  0  0  0  0  0  0  0  0  0
   -1.0281   -0.9259    0.0662 N   0  0  0  0  0  0  0  0  0  0  0  0
   -1.8301   -0.3519   -0.1548 H   0  0  0  0  0  0  0  0  0  0  0  0
    0.2709   -0.2409    0.0912 C   0  0  1  0  0  0  0  0  0  0  0  0
    0.9610   -0.8195    0.7057 H   0  0  0  0  0  0  0  0  0  0  0  0
    0.8490   -0.1656   -1.3279 C   0  0  0  0  0  0  0  0  0  0  0  0
    0.5057   -1.0289   -1.9003 H   0  0  0  0  0  0  0  0  0  0  0  0
    0.4968    0.7442   -1.8175 H   0  0  0  0  0  0  0  0  0  0  0  0
    2.2640   -0.1729   -1.2979 O   0  0  0  0  0  0  0  0  0  0  0  0
    2.5840   -0.3007   -2.1975 H   0  0  0  0  0  0  0  0  0  0  0  0
    0.1327    1.1568    0.7173 C   0  0  0  0  0  0  0  0  0  0  0  0
   -0.8069    1.8857    0.3967 O   0  0  0  0  0  0  0  0  0  0  0  0
    1.0524    1.5291    1.6140 N   0  0  0  0  0  0  0  0  0  0  0  0
    1.8362    0.9033    1.7438 H   0  0  0  0  0  0  0  0  0  0  0  0
    1.0579    2.8104    2.3171 C   0  0  0  0  0  0  0  0  0  0  0  0
    0.0539    3.0358    2.6828 H   0  0  0  0  0  0  0  0  0  0  0  0
    1.7474    2.7734    3.1610 H   0  0  0  0  0  0  0  0  0  0  0  0
    1.3663    3.6029    1.6321 H   0  0  0  0  0  0  0  0  0  0  0  0
  5  6  2  0  0  0  0
  5  7  1  0  0  0  0
  2  3  1  0  0  0  0
  2  4  1  0  0  0  0
  2  5  1  0  0  0  0
  1  2  1  0  0  0  0
 16 17  2  0  0  0  0
 16 18  1  0  0  0  0
 14 15  1  0  0  0  0
 11 12  1  0  0  0  0
 11 13  1  0  0  0  0
 11 14  1  0  0  0  0
  9 10  1  0  0  0  0
  9 11  1  0  0  0  0
  9 16  1  0  0  0  0
  7  8  1  0  0  0  0
  7  9  1  0  0  0  0
 20 21  1  0  0  0  0
 20 22  1  0  0  0  0
 20 23  1  0  0  0  0
 18 19  1  0  0  0  0
 18 20  1  0  0  0  0
M  END
$$$$
default_name
  -OEChem-02102213163D

 23 22  0     1  0  0  0  0  0999 V2000
   -2.6721   -3.7279    0.7212 H   0  0  0  0  0  0  0  0  0  0  0  0
   -2.6561   -2.6819    0.4162 C   0  0  0  0  0  0  0  0  0  0  0  0
   -3.2401   -2.0889    1.1172 H   0  0  0  0  0  0  0  0  0  0  0  0
   -3.0671   -2.5859   -0.5858 H   0  0  0  0  0  0  0  0  0  0  0  0
   -1.2261   -2.1939    0.4202 C   0  0  0  0  0  0  0  0  0  0  0  0
   -0.3181   -2.9519    0.7312 O   0  0  0  0  0  0  0  0  0  0  0  0
   -1.0281   -0.9259    0.0662 N   0  0  0  0  0  0  0  0  0  0  0  0
   -1.8301   -0.3519   -0.1548 H   0  0  0  0  0  0  0  0  0  0  0  0
    0.2709   -0.2409    0.0912 C   0  0  1  0  0  0  0  0  0  0  0  0
    0.9610   -0.8195    0.7057 H   0  0  0  0  0  0  0  0  0  0  0  0
    0.8490   -0.1656   -1.3279 C   0  0  0  0  0  0  0  0  0  0  0  0
    0.3080   -0.8609   -1.9720 H   0  0  0  0  0  0  0  0  0  0  0  0
    0.7251    0.8458   -1.7191 H   0  0  0  0  0  0  0  0  0  0  0  0
    2.2209   -0.5135   -1.3335 O   0  0  0  0  0  0  0  0  0  0  0  0
    2.5001   -0.6242   -2.2488 H   0  0  0  0  0  0  0  0  0  0  0  0
    0.1327    1.1568    0.7173 C   0  0  0  0  0  0  0  0  0  0  0  0
   -0.8069    1.8857    0.3967 O   0  0  0  0  0  0  0  0  0  0  0  0
    1.0524    1.5291    1.6140 N   0  0  0  0  0  0  0  0  0  0  0  0
    1.8362    0.9033    1.7438 H   0  0  0  0  0  0  0  0  0  0  0  0
    1.0579    2.8104    2.3171 C   0  0  0  0  0  0  0  0  0  0  0  0
    0.0539    3.0358    2.6828 H   0  0  0  0  0  0  0  0  0  0  0  0
    1.7474    2.7734    3.1610 H   0  0  0  0  0  0  0  0  0  0  0  0
    1.3663    3.6029    1.6321 H   0  0  0  0  0  0  0  0  0  0  0  0
  5  6  2  0  0  0  0
  5  7  1  0  0  0  0
  2  3  1  0  0  0  0
  2  4  1  0  0  0  0
  2  5  1  0  0  0  0
  1  2  1  0  0  0  0
 16 17  2  0  0  0  0
 16 18  1  0  0  0  0
 14 15  1  0  0  0  0
 11 12  1  0  0  0  0
 11 13  1  0  0  0  0
 11 14  1  0  0  0  0
  9 10  1  0  0  0  0
  9 11  1  0  0  0  0
  9 16  1  0  0  0  0
  7  8  1  0  0  0  0
  7  9  1  0  0  0  0
 20 21  1  0  0  0  0
 20 22  1  0  0  0  0
 20 23  1  0  0  0  0
 18 19  1  0  0  0  0
 18 20  1  0  0  0  0
M  END
$$$$
default_name
  -OEChem-02102213163D

 23 22  0     1  0  0  0  0  0999 V2000
   -2.6721   -3.7279    0.7212 H   0  0  0  0  0  0  0  0  0  0  0  0
   -2.6561   -2.6819    0.4162 C   0  0  0  0  0  0  0  0  0  0  0  0
   -3.2401   -2.0889    1.1172 H   0  0  0  0  0  0  0  0  0  0  0  0
   -3.0671   -2.5859   -0.5858 H   0  0  0  0  0  0  0  0  0  0  0  0
   -1.2261   -2.1939    0.4202 C   0  0  0  0  0  0  0  0  0  0  0  0
   -0.3181   -2.9519    0.7312 O   0  0  0  0  0  0  0  0  0  0  0  0
   -1.0281   -0.9259    0.0662 N   0  0  0  0  0  0  0  0  0  0  0  0
   -1.8301   -0.3519   -0.1548 H   0  0  0  0  0  0  0  0  0  0  0  0
    0.2709   -0.2409    0.0912 C   0  0  1  0  0  0  0  0  0  0  0  0
    0.9610   -0.8195    0.7057 H   0  0  0  0  0  0  0  0  0  0  0  0
    0.8490   -0.1656   -1.3279 C   0  0  0  0  0  0  0  0  0  0  0  0
    0.1564   -0.6443   -2.0222 H   0  0  0  0  0  0  0  0  0  0  0  0
    0.9712    0.8798   -1.6170 H   0  0  0  0  0  0  0  0  0  0  0  0
    2.0973   -0.8287   -1.4006 O   0  0  0  0  0  0  0  0  0  0  0  0
    2.3410   -0.9116   -2.3288 H   0  0  0  0  0  0  0  0  0  0  0  0
    0.1327    1.1568    0.7173 C   0  0  0  0  0  0  0  0  0  0  0  0
   -0.8069    1.8857    0.3967 O   0  0  0  0  0  0  0  0  0  0  0  0
    1.0524    1.5291    1.6140 N   0  0  0  0  0  0  0  0  0  0  0  0
    1.8362    0.9033    1.7438 H   0  0  0  0  0  0  0  0  0  0  0  0
    1.0579    2.8104    2.3171 C   0  0  0  0  0  0  0  0  0  0  0  0
    0.0539    3.0358    2.6828 H   0  0  0  0  0  0  0  0  0  0  0  0
    1.7474    2.7734    3.1610 H   0  0  0  0  0  0  0  0  0  0  0  0
    1.3663    3.6029    1.6321 H   0  0  0  0  0  0  0  0  0  0  0  0
  5  6  2  0  0  0  0
  5  7  1  0  0  0  0
  2  3  1  0  0  0  0
  2  4  1  0  0  0  0
  2  5  1  0  0  0  0
  1  2  1  0  0  0  0
 16 17  2  0  0  0  0
 16 18  1  0  0  0  0
 14 15  1  0  0  0  0
 11 12  1  0  0  0  0
 11 13  1  0  0  0  0
 11 14  1  0  0  0  0
  9 10  1  0  0  0  0
  9 11  1  0  0  0  0
  9 16  1  0  0  0  0
  7  8  1  0  0  0  0
  7  9  1  0  0  0  0
 20 21  1  0  0  0  0
 20 22  1  0  0  0  0
 20 23  1  0  0  0  0
 18 19  1  0  0  0  0
 18 20  1  0  0  0  0
M  END
$$$$
default_name
  -OEChem-02102213163D

 23 22  0     1  0  0  0  0  0999 V2000
   -2.6721   -3.7279    0.7212 H   0  0  0  0  0  0  0  0  0  0  0  0
   -2.6561   -2.6819    0.4162 C   0  0  0  0  0  0  0  0  0  0  0  0
   -3.2401   -2.0889    1.1172 H   0  0  0  0  0  0  0  0  0  0  0  0
   -3.0671   -2.5859   -0.5858 H   0  0  0  0  0  0  0  0  0  0  0  0
   -1.2261   -2.1939    0.4202 C   0  0  0  0  0  0  0  0  0  0  0  0
   -0.3181   -2.9519    0.7312 O   0  0  0  0  0  0  0  0  0  0  0  0
   -1.0281   -0.9259    0.0662 N   0  0  0  0  0  0  0  0  0  0  0  0
   -1.8301   -0.3519   -0.1548 H   0  0  0  0  0  0  0  0  0  0  0  0
    0.2709   -0.2409    0.0912 C   0  0  1  0  0  0  0  0  0  0  0  0
    0.9610   -0.8195    0.7057 H   0  0  0  0  0  0  0  0  0  0  0  0
    0.8490   -0.1656   -1.3279 C   0  0  0  0  0  0  0  0  0  0  0  0
    0.0612   -0.3939   -2.0477 H   0  0  0  0  0  0  0  0  0  0  0  0
    1.2183    0.8437   -1.5183 H   0  0  0  0  0  0  0  0  0  0  0  0
    1.9015   -1.0970   -1.4946 O   0  0  0  0  0  0  0  0  0  0  0  0
    2.1175   -1.1433   -2.4322 H   0  0  0  0  0  0  0  0  0  0  0  0
    0.1327    1.1568    0.7173 C   0  0  0  0  0  0  0  0  0  0  0  0
   -0.8069    1.8857    0.3967 O   0  0  0  0  0  0  0  0  0  0  0  0
    1.0524    1.5291    1.6140 N   0  0  0  0  0  0  0  0  0  0  0  0
    1.8362    0.9033    1.7438 H   0  0  0  0  0  0  0  0  0  0  0  0
    1.0579    2.8104    2.3171 C   0  0  0  0  0  0  0  0  0  0  0  0
    0.0539    3.0358    2.6828 H   0  0  0  0  0  0  0  0  0  0  0  0
    1.7474    2.7734    3.1610 H   0  0  0  0  0  0  0  0  0  0  0  0
    1.3663    3.6029    1.6321 H   0  0  0  0  0  0  0  0  0  0  0  0
  5  6  2  0  0  0  0
  5  7  1  0  0  0  0
  2  3  1  0  0  0  0
  2  4  1  0  0  0  0
  2  5  1  0  0  0  0
  1  2  1  0  0  0  0
 16 17  2  0  0  0  0
 16 18  1  0  0  0  0
 14 15  1  0  0  0  0
 11 12  1  0  0  0  0
 11 13  1  0  0  0  0
 11 14  1  0  0  0  0
  9 10  1  0  0  0  0
  9 11  1  0  0  0  0
  9 16  1  0  0  0  0
  7  8  1  0  0  0  0
  7  9  1  0  0  0  0
 20 21  1  0  0  0  0
 20 22  1  0  0  0  0
 20 23  1  0  0  0  0
 18 19  1  0  0  0  0
 18 20  1  0  0  0  0
M  END
$$$$
default_name
  -OEChem-02102213163D

 23 22  0     1  0  0  0  0  0999 V2000
   -2.6721   -3.7279    0.7212 H   0  0  0  0  0  0  0  0  0  0  0  0
   -2.6561   -2.6819    0.4162 C   0  0  0  0  0  0  0  0  0  0  0  0
   -3.2401   -2.0889    1.1172 H   0  0  0  0  0  0  0  0  0  0  0  0
   -3.0671   -2.5859   -0.5858 H   0  0  0  0  0  0  0  0  0  0  0  0
   -1.2261   -2.1939    0.4202 C   0  0  0  0  0  0  0  0  0  0  0  0
   -0.3181   -2.9519    0.7312 O   0  0  0  0  0  0  0  0  0  0  0  0
   -1.0281   -0.9259    0.0662 N   0  0  0  0  0  0  0  0  0  0  0  0
   -1.8301   -0.3519   -0.1548 H   0  0  0  0  0  0  0  0  0  0  0  0
    0.2709   -0.2409    0.0912 C   0  0  1  0  0  0  0  0  0  0  0  0
    0.9610   -0.8195    0.7057 H   0  0  0  0  0  0  0  0  0  0  0  0
    0.8490   -0.1656   -1.3279 C   0  0  0  0  0  0  0  0  0  0  0  0
    0.0288   -0.1267   -2.0467 H   0  0  0  0  0  0  0  0  0  0  0  0
    1.4496    0.7401   -1.4295 H   0  0  0  0  0  0  0  0  0  0  0  0
    1.6471   -1.3002   -1.6090 O   0  0  0  0  0  0  0  0  0  0  0  0
    1.8448   -1.3036   -2.5518 H   0  0  0  0  0  0  0  0  0  0  0  0
    0.1327    1.1568    0.7173 C   0  0  0  0  0  0  0  0  0  0  0  0
   -0.8069    1.8857    0.3967 O   0  0  0  0  0  0  0  0  0  0  0  0
    1.0524    1.5291    1.6140 N   0  0  0  0  0  0  0  0  0  0  0  0
    1.8362    0.9033    1.7438 H   0  0  0  0  0  0  0  0  0  0  0  0
    1.0579    2.8104    2.3171 C   0  0  0  0  0  0  0  0  0  0  0  0
    0.0539    3.0358    2.6828 H   0  0  0  0  0  0  0  0  0  0  0  0
    1.7474    2.7734    3.1610 H   0  0  0  0  0  0  0  0  0  0  0  0
    1.3663    3.6029    1.6321 H   0  0  0  0  0  0  0  0  0  0  0  0
  5  6  2  0  0  0  0
  5  7  1  0  0  0  0
  2  3  1  0  0  0  0
  2  4  1  0  0  0  0
  2  5  1  0  0  0  0
  1  2  1  0  0  0  0
 16 17  2  0  0  0  0
 16 18  1  0  0  0  0
 14 15  1  0  0  0  0
 11 12  1  0  0  0  0
 11 13  1  0  0  0  0
 11 14  1  0  0  0  0
  9 10  1  0  0  0  0
  9 11  1  0  0  0  0
  9 16  1  0  0  0  0
  7  8  1  0  0  0  0
  7  9  1  0  0  0  0
 20 21  1  0  0  0  0
 20 22  1  0  0  0  0
 20 23  1  0  0  0  0
 18 19  1  0  0  0  0
 18 20  1  0  0  0  0
M  END
$$$$
default_name
  -OEChem-02102213163D

 23 22  0     1  0  0  0  0  0999 V2000
   -2.6721   -3.7279    0.7212 H   0  0  0  0  0  0  0  0  0  0  0  0
   -2.6561   -2.6819    0.4162 C   0  0  0  0  0  0  0  0  0  0  0  0
   -3.2401   -2.0889    1.1172 H   0  0  0  0  0  0  0  0  0  0  0  0
   -3.0671   -2.5859   -0.5858 H   0  0  0  0  0  0  0  0  0  0  0  0
   -1.2261   -2.1939    0.4202 C   0  0  0  0  0  0  0  0  0  0  0  0
   -0.3181   -2.9519    0.7312 O   0  0  0  0  0  0  0  0  0  0  0  0
   -1.0281   -0.9259    0.0662 N   0  0  0  0  0  0  0  0  0  0  0  0
   -1.8301   -0.3519   -0.1548 H   0  0  0  0  0  0  0  0  0  0  0  0
    0.2709   -0.2409    0.0912 C   0  0  1  0  0  0  0  0  0  0  0  0
    0.9610   -0.8195    0.7057 H   0  0  0  0  0  0  0  0  0  0  0  0
    0.8490   -0.1656   -1.3279 C   0  0  0  0  0  0  0  0  0  0  0  0
    0.0615    0.1390   -2.0193 H   0  0  0  0  0  0  0  0  0  0  0  0
    1.6494    0.5759   -1.3569 H   0  0  0  0  0  0  0  0  0  0  0  0
    1.3512   -1.4243   -1.7361 O   0  0  0  0  0  0  0  0  0  0  0  0
    1.5415   -1.3814   -2.6795 H   0  0  0  0  0  0  0  0  0  0  0  0
    0.1327    1.1568    0.7173 C   0  0  0  0  0  0  0  0  0  0  0  0
   -0.8069    1.8857    0.3967 O   0  0  0  0  0  0  0  0  0  0  0  0
    1.0524    1.5291    1.6140 N   0  0  0  0  0  0  0  0  0  0  0  0
    1.8362    0.9033    1.7438 H   0  0  0  0  0  0  0  0  0  0  0  0
    1.0579    2.8104    2.3171 C   0  0  0  0  0  0  0  0  0  0  0  0
    0.0539    3.0358    2.6828 H   0  0  0  0  0  0  0  0  0  0  0  0
    1.7474    2.7734    3.1610 H   0  0  0  0  0  0  0  0  0  0  0  0
    1.3663    3.6029    1.6321 H   0  0  0  0  0  0  0  0  0  0  0  0
  5  6  2  0  0  0  0
  5  7  1  0  0  0  0
  2  3  1  0  0  0  0
  2  4  1  0  0  0  0
  2  5  1  0  0  0  0
  1  2  1  0  0  0  0
 16 17  2  0  0  0  0
 16 18  1  0  0  0  0
 14 15  1  0  0  0  0
 11 12  1  0  0  0  0
 11 13  1  0  0  0  0
 11 14  1  0  0  0  0
  9 10  1  0  0  0  0
  9 11  1  0  0  0  0
  9 16  1  0  0  0  0
  7  8  1  0  0  0  0
  7  9  1  0  0  0  0
 20 21  1  0  0  0  0
 20 22  1  0  0  0  0
 20 23  1  0  0  0  0
 18 19  1  0  0  0  0
 18 20  1  0  0  0  0
M  END
$$$$
default_name
  -OEChem-02102213163D

 23 22  0     1  0  0  0  0  0999 V2000
   -2.6721   -3.7279    0.7212 H   0  0  0  0  0  0  0  0  0  0  0  0
   -2.6561   -2.6819    0.4162 C   0  0  0  0  0  0  0  0  0  0  0  0
   -3.2401   -2.0889    1.1172 H   0  0  0  0  0  0  0  0  0  0  0  0
   -3.0671   -2.5859   -0.5858 H   0  0  0  0  0  0  0  0  0  0  0  0
   -1.2261   -2.1939    0.4202 C   0  0  0  0  0  0  0  0  0  0  0  0
   -0.3181   -2.9519    0.7312 O   0  0  0  0  0  0  0  0  0  0  0  0
   -1.0281   -0.9259    0.0662 N   0  0  0  0  0  0  0  0  0  0  0  0
   -1.8301   -0.3519   -0.1548 H   0  0  0  0  0  0  0  0  0  0  0  0
    0.2709   -0.2409    0.0912 C   0  0  1  0  0  0  0  0  0  0  0  0
    0.9610   -0.8195    0.7057 H   0  0  0  0  0  0  0  0  0  0  0  0
    0.8490   -0.1656   -1.3279 C   0  0  0  0  0  0  0  0  0  0  0  0
    0.1571    0.3852   -1.9673 H   0  0  0  0  0  0  0  0  0  0  0  0
    1.8039    0.3625   -1.3052 H   0  0  0  0  0  0  0  0  0  0  0  0
    1.0340   -1.4610   -1.8673 O   0  0  0  0  0  0  0  0  0  0  0  0
    1.2283   -1.3716   -2.8065 H   0  0  0  0  0  0  0  0  0  0  0  0
    0.1327    1.1568    0.7173 C   0  0  0  0  0  0  0  0  0  0  0  0
   -0.8069    1.8857    0.3967 O   0  0  0  0  0  0  0  0  0  0  0  0
    1.0524    1.5291    1.6140 N   0  0  0  0  0  0  0  0  0  0  0  0
    1.8362    0.9033    1.7438 H   0  0  0  0  0  0  0  0  0  0  0  0
    1.0579    2.8104    2.3171 C   0  0  0  0  0  0  0  0  0  0  0  0
    0.0539    3.0358    2.6828 H   0  0  0  0  0  0  0  0  0  0  0  0
    1.7474    2.7734    3.1610 H   0  0  0  0  0  0  0  0  0  0  0  0
    1.3663    3.6029    1.6321 H   0  0  0  0  0  0  0  0  0  0  0  0
  5  6  2  0  0  0  0
  5  7  1  0  0  0  0
  2  3  1  0  0  0  0
  2  4  1  0  0  0  0
  2  5  1  0  0  0  0
  1  2  1  0  0  0  0
 16 17  2  0  0  0  0
 16 18  1  0  0  0  0
 14 15  1  0  0  0  0
 11 12  1  0  0  0  0
 11 13  1  0  0  0  0
 11 14  1  0  0  0  0
  9 10  1  0  0  0  0
  9 11  1  0  0  0  0
  9 16  1  0  0  0  0
  7  8  1  0  0  0  0
  7  9  1  0  0  0  0
 20 21  1  0  0  0  0
 20 22  1  0  0  0  0
 20 23  1  0  0  0  0
 18 19  1  0  0  0  0
 18 20  1  0  0  0  0
M  END
$$$$
default_name
  -OEChem-02102213163D

 23 22  0     1  0  0  0  0  0999 V2000
   -2.6721   -3.7279    0.7212 H   0  0  0  0  0  0  0  0  0  0  0  0
   -2.6561   -2.6819    0.4162 C   0  0  0  0  0  0  0  0  0  0  0  0
   -3.2401   -2.0889    1.1172 H   0  0  0  0  0  0  0  0  0  0  0  0
   -3.0671   -2.5859   -0.5858 H   0  0  0  0  0  0  0  0  0  0  0  0
   -1.2261   -2.1939    0.4202 C   0  0  0  0  0  0  0  0  0  0  0  0
   -0.3181   -2.9519    0.7312 O   0  0  0  0  0  0  0  0  0  0  0  0
   -1.0281   -0.9259    0.0662 N   0  0  0  0  0  0  0  0  0  0  0  0
   -1.8301   -0.3519   -0.1548 H   0  0  0  0  0  0  0  0  0  0  0  0
    0.2709   -0.2409    0.0912 C   0  0  1  0  0  0  0  0  0  0  0  0
    0.9610   -0.8195    0.7057 H   0  0  0  0  0  0  0  0  0  0  0  0
    0.8490   -0.1656   -1.3279 C   0  0  0  0  0  0  0  0  0  0  0  0
    0.3090    0.5950   -1.8943 H   0  0  0  0  0  0  0  0  0  0  0  0
    1.9028    0.1143   -1.2781 H   0  0  0  0  0  0  0  0  0  0  0  0
    0.7172   -1.4077   -1.9935 O   0  0  0  0  0  0  0  0  0  0  0  0
    0.9265   -1.2746   -2.9243 H   0  0  0  0  0  0  0  0  0  0  0  0
    0.1327    1.1568    0.7173 C   0  0  0  0  0  0  0  0  0  0  0  0
   -0.8069    1.8857    0.3967 O   0  0  0  0  0  0  0  0  0  0  0  0
    1.0524    1.5291    1.6140 N   0  0  0  0  0  0  0  0  0  0  0  0
    1.8362    0.9033    1.7438 H   0  0  0  0  0  0  0  0  0  0  0  0
    1.0579    2.8104    2.3171 C   0  0  0  0  0  0  0  0  0  0  0  0
    0.0539    3.0358    2.6828 H   0  0  0  0  0  0  0  0  0  0  0  0
    1.7474    2.7734    3.1610 H   0  0  0  0  0  0  0  0  0  0  0  0
    1.3663    3.6029    1.6321 H   0  0  0  0  0  0  0  0  0  0  0  0
  5  6  2  0  0  0  0
  5  7  1  0  0  0  0
  2  3  1  0  0  0  0
  2  4  1  0  0  0  0
  2  5  1  0  0  0  0
  1  2  1  0  0  0  0
 16 17  2  0  0  0  0
 16 18  1  0  0  0  0
 14 15  1  0  0  0  0
 11 12  1  0  0  0  0
 11 13  1  0  0  0  0
 11 14  1  0  0  0  0
  9 10  1  0  0  0  0
  9 11  1  0  0  0  0
  9 16  1  0  0  0  0
  7  8  1  0  0  0  0
  7  9  1  0  0  0  0
 20 21  1  0  0  0  0
 20 22  1  0  0  0  0
 20 23  1  0  0  0  0
 18 19  1  0  0  0  0
 18 20  1  0  0  0  0
M  END
$$$$
default_name
  -OEChem-02102213163D

 23 22  0     1  0  0  0  0  0999 V2000
   -2.6721   -3.7279    0.7212 H   0  0  0  0  0  0  0  0  0  0  0  0
   -2.6561   -2.6819    0.4162 C   0  0  0  0  0  0  0  0  0  0  0  0
   -3.2401   -2.0889    1.1172 H   0  0  0  0  0  0  0  0  0  0  0  0
   -3.0671   -2.5859   -0.5858 H   0  0  0  0  0  0  0  0  0  0  0  0
   -1.2261   -2.1939    0.4202 C   0  0  0  0  0  0  0  0  0  0  0  0
   -0.3181   -2.9519    0.7312 O   0  0  0  0  0  0  0  0  0  0  0  0
   -1.0281   -0.9259    0.0662 N   0  0  0  0  0  0  0  0  0  0  0  0
   -1.8301   -0.3519   -0.1548 H   0  0  0  0  0  0  0  0  0  0  0  0
    0.2709   -0.2409    0.0912 C   0  0  1  0  0  0  0  0  0  0  0  0
    0.9610   -0.8195    0.7057 H   0  0  0  0  0  0  0  0  0  0  0  0
    0.8490   -0.1656   -1.3279 C   0  0  0  0  0  0  0  0  0  0  0  0
    0.5069    0.7542   -1.8053 H   0  0  0  0  0  0  0  0  0  0  0  0
    1.9392   -0.1518   -1.2774 H   0  0  0  0  0  0  0  0  0  0  0  0
    0.4224   -1.2681   -2.1062 O   0  0  0  0  0  0  0  0  0  0  0  0
    0.6567   -1.0973   -3.0248 H   0  0  0  0  0  0  0  0  0  0  0  0
    0.1327    1.1568    0.7173 C   0  0  0  0  0  0  0  0  0  0  0  0
   -0.8069    1.8857    0.3967 O   0  0  0  0  0  0  0  0  0  0  0  0
    1.0524    1.5291    1.6140 N   0  0  0  0  0  0  0  0  0  0  0  0
    1.8362    0.9033    1.7438 H   0  0  0  0  0  0  0  0  0  0  0  0
    1.0579    2.8104    2.3171 C   0  0  0  0  0  0  0  0  0  0  0  0
    0.0539    3.0358    2.6828 H   0  0  0  0  0  0  0  0  0  0  0  0
    1.7474    2.7734    3.1610 H   0  0  0  0  0  0  0  0  0  0  0  0
    1.3663    3.6029    1.6321 H   0  0  0  0  0  0  0  0  0  0  0  0
  5  6  2  0  0  0  0
  5  7  1  0  0  0  0
  2  3  1  0  0  0  0
  2  4  1  0  0  0  0
  2  5  1  0  0  0  0
  1  2  1  0  0  0  0
 16 17  2  0  0  0  0
 16 18  1  0  0  0  0
 14 15  1  0  0  0  0
 11 12  1  0  0  0  0
 11 13  1  0  0  0  0
 11 14  1  0  0  0  0
  9 10  1  0  0  0  0
  9 11  1  0  0  0  0
  9 16  1  0  0  0  0
  7  8  1  0  0  0  0
  7  9  1  0  0  0  0
 20 21  1  0  0  0  0
 20 22  1  0  0  0  0
 20 23  1  0  0  0  0
 18 19  1  0  0  0  0
 18 20  1  0  0  0  0
M  END
$$$$
default_name
  -OEChem-02102213163D

 23 22  0     1  0  0  0  0  0999 V2000
   -2.6721   -3.7279    0.7212 H   0  0  0  0  0  0  0  0  0  0  0  0
   -2.6561   -2.6819    0.4162 C   0  0  0  0  0  0  0  0  0  0  0  0
   -3.2401   -2.0889    1.1172 H   0  0  0  0  0  0  0  0  0  0  0  0
   -3.0671   -2.5859   -0.5858 H   0  0  0  0  0  0  0  0  0  0  0  0
   -1.2261   -2.1939    0.4202 C   0  0  0  0  0  0  0  0  0  0  0  0
   -0.3181   -2.9519    0.7312 O   0  0  0  0  0  0  0  0  0  0  0  0
   -1.0281   -0.9259    0.0662 N   0  0  0  0  0  0  0  0  0  0  0  0
   -1.8301   -0.3519   -0.1548 H   0  0  0  0  0  0  0  0  0  0  0  0
    0.2709   -0.2409    0.0912 C   0  0  1  0  0  0  0  0  0  0  0  0
    0.9610   -0.8195    0.7057 H   0  0  0  0  0  0  0  0  0  0  0  0
    0.8490   -0.1656   -1.3279 C   0  0  0  0  0  0  0  0  0  0  0  0
    0.7373    0.8519   -1.7062 H   0  0  0  0  0  0  0  0  0  0  0  0
    1.9107   -0.4176   -1.3031 H   0  0  0  0  0  0  0  0  0  0  0  0
    0.1696   -1.0516   -2.1977 O   0  0  0  0  0  0  0  0  0  0  0  0
    0.4373   -0.8516   -3.1012 H   0  0  0  0  0  0  0  0  0  0  0  0
    0.1327    1.1568    0.7173 C   0  0  0  0  0  0  0  0  0  0  0  0
   -0.8069    1.8857    0.3967 O   0  0  0  0  0  0  0  0  0  0  0  0
    1.0524    1.5291    1.6140 N   0  0  0  0  0  0  0  0  0  0  0  0
    1.8362    0.9033    1.7438 H   0  0  0  0  0  0  0  0  0  0  0  0
    1.0579    2.8104    2.3171 C   0  0  0  0  0  0  0  0  0  0  0  0
    0.0539    3.0358    2.6828 H   0  0  0  0  0  0  0  0  0  0  0  0
    1.7474    2.7734    3.1610 H   0  0  0  0  0  0  0  0  0  0  0  0
    1.3663    3.6029    1.6321 H   0  0  0  0  0  0  0  0  0  0  0  0
  5  6  2  0  0  0  0
  5  7  1  0  0  0  0
  2  3  1  0  0  0  0
  2  4  1  0  0  0  0
  2  5  1  0  0  0  0
  1  2  1  0  0  0  0
 16 17  2  0  0  0  0
 16 18  1  0  0  0  0
 14 15  1  0  0  0  0
 11 12  1  0  0  0  0
 11 13  1  0  0  0  0
 11 14  1  0  0  0  0
  9 10  1  0  0  0  0
  9 11  1  0  0  0  0
  9 16  1  0  0  0  0
  7  8  1  0  0  0  0
  7  9  1  0  0  0  0
 20 21  1  0  0  0  0
 20 22  1  0  0  0  0
 20 23  1  0  0  0  0
 18 19  1  0  0  0  0
 18 20  1  0  0  0  0
M  END
$$$$
default_name
  -OEChem-02102213163D

 23 22  0     1  0  0  0  0  0999 V2000
   -2.6721   -3.7279    0.7212 H   0  0  0  0  0  0  0  0  0  0  0  0
   -2.6561   -2.6819    0.4162 C   0  0  0  0  0  0  0  0  0  0  0  0
   -3.2401   -2.0889    1.1172 H   0  0  0  0  0  0  0  0  0  0  0  0
   -3.0671   -2.5859   -0.5858 H   0  0  0  0  0  0  0  0  0  0  0  0
   -1.2261   -2.1939    0.4202 C   0  0  0  0  0  0  0  0  0  0  0  0
   -0.3181   -2.9519    0.7312 O   0  0  0  0  0  0  0  0  0  0  0  0
   -1.0281   -0.9259    0.0662 N   0  0  0  0  0  0  0  0  0  0  0  0
   -1.8301   -0.3519   -0.1548 H   0  0  0  0  0  0  0  0  0  0  0  0
    0.2709   -0.2409    0.0912 C   0  0  1  0  0  0  0  0  0  0  0  0
    0.9610   -0.8195    0.7057 H   0  0  0  0  0  0  0  0  0  0  0  0
    0.8490   -0.1656   -1.3279 C   0  0  0  0  0  0  0  0  0  0  0  0
    0.9845    0.8815   -1.6040 H   0  0  0  0  0  0  0  0  0  0  0  0
    1.8192   -0.6650   -1.3535 H   0  0  0  0  0  0  0  0  0  0  0  0
   -0.0240   -0.7731   -2.2618 O   0  0  0  0  0  0  0  0  0  0  0  0
    0.2832   -0.5543   -3.1482 H   0  0  0  0  0  0  0  0  0  0  0  0
    0.1327    1.1568    0.7173 C   0  0  0  0  0  0  0  0  0  0  0  0
   -0.8069    1.8857    0.3967 O   0  0  0  0  0  0  0  0  0  0  0  0
    1.0524    1.5291    1.6140 N   0  0  0  0  0  0  0  0  0  0  0  0
    1.8362    0.9033    1.7438 H   0  0  0  0  0  0  0  0  0  0  0  0
    1.0579    2.8104    2.3171 C   0  0  0  0  0  0  0  0  0  0  0  0
    0.0539    3.0358    2.6828 H   0  0  0  0  0  0  0  0  0  0  0  0
    1.7474    2.7734    3.1610 H   0  0  0  0  0  0  0  0  0  0  0  0
    1.3663    3.6029    1.6321 H   0  0  0  0  0  0  0  0  0  0  0  0
  5  6  2  0  0  0  0
  5  7  1  0  0  0  0
  2  3  1  0  0  0  0
  2  4  1  0  0  0  0
  2  5  1  0  0  0  0
  1  2  1  0  0  0  0
 16 17  2  0  0  0  0
 16 18  1  0  0  0  0
 14 15  1  0  0  0  0
 11 12  1  0  0  0  0
 11 13  1  0  0  0  0
 11 14  1  0  0  0  0
  9 10  1  0  0  0  0
  9 11  1  0  0  0  0
  9 16  1  0  0  0  0
  7  8  1  0  0  0  0
  7  9  1  0  0  0  0
 20 21  1  0  0  0  0
 20 22  1  0  0  0  0
 20 23  1  0  0  0  0
 18 19  1  0  0  0  0
 18 20  1  0  0  0  0
M  END
$$$$
default_name
  -OEChem-02102213163D

 23 22  0     1  0  0  0  0  0999 V2000
   -2.6721   -3.7279    0.7212 H   0  0  0  0  0  0  0  0  0  0  0  0
   -2.6561   -2.6819    0.4162 C   0  0  0  0  0  0  0  0  0  0  0  0
   -3.2401   -2.0889    1.1172 H   0  0  0  0  0  0  0  0  0  0  0  0
   -3.0671   -2.5859   -0.5858 H   0  0  0  0  0  0  0  0  0  0  0  0
   -1.2261   -2.1939    0.4202 C   0  0  0  0  0  0  0  0  0  0  0  0
   -0.3181   -2.9519    0.7312 O   0  0  0  0  0  0  0  0  0  0  0  0
   -1.0281   -0.9259    0.0662 N   0  0  0  0  0  0  0  0  0  0  0  0
   -1.8301   -0.3519   -0.1548 H   0  0  0  0  0  0  0  0  0  0  0  0
    0.2709   -0.2409    0.0912 C   0  0  1  0  0  0  0  0  0  0  0  0
    0.9610   -0.8195    0.7057 H   0  0  0  0  0  0  0  0  0  0  0  0
    0.8490   -0.1656   -1.3279 C   0  0  0  0  0  0  0  0  0  0  0  0
    1.2316    0.8409   -1.5054 H   0  0  0  0  0  0  0  0  0  0  0  0
    1.6709   -0.8771   -1.4252 H   0  0  0  0  0  0  0  0  0  0  0  0
   -0.1450   -0.4515   -2.2940 O   0  0  0  0  0  0  0  0  0  0  0  0
    0.2049   -0.2257   -3.1626 H   0  0  0  0  0  0  0  0  0  0  0  0
    0.1327    1.1568    0.7173 C   0  0  0  0  0  0  0  0  0  0  0  0
   -0.8069    1.8857    0.3967 O   0  0  0  0  0  0  0  0  0  0  0  0
    1.0524    1.5291    1.6140 N   0  0  0  0  0  0  0  0  0  0  0  0
    1.8362    0.9033    1.7438 H   0  0  0  0  0  0  0  0  0  0  0  0
    1.0579    2.8104    2.3171 C   0  0  0  0  0  0  0  0  0  0  0  0
    0.0539    3.0358    2.6828 H   0  0  0  0  0  0  0  0  0  0  0  0
    1.7474    2.7734    3.1610 H   0  0  0  0  0  0  0  0  0  0  0  0
    1.3663    3.6029    1.6321 H   0  0  0  0  0  0  0  0  0  0  0  0
  5  6  2  0  0  0  0
  5  7  1  0  0  0  0
  2  3  1  0  0  0  0
  2  4  1  0  0  0  0
  2  5  1  0  0  0  0
  1  2  1  0  0  0  0
 16 17  2  0  0  0  0
 16 18  1  0  0  0  0
 14 15  1  0  0  0  0
 11 12  1  0  0  0  0
 11 13  1  0  0  0  0
 11 14  1  0  0  0  0
  9 10  1  0  0  0  0
  9 11  1  0  0  0  0
  9 16  1  0  0  0  0
  7  8  1  0  0  0  0
  7  9  1  0  0  0  0
 20 21  1  0  0  0  0
 20 22  1  0  0  0  0
 20 23  1  0  0  0  0
 18 19  1  0  0  0  0
 18 20  1  0  0  0  0
M  END
$$$$
default_name
  -OEChem-02102213163D

 23 22  0     1  0  0  0  0  0999 V2000
   -2.6721   -3.7279    0.7212 H   0  0  0  0  0  0  0  0  0  0  0  0
   -2.6561   -2.6819    0.4162 C   0  0  0  0  0  0  0  0  0  0  0  0
   -3.2401   -2.0889    1.1172 H   0  0  0  0  0  0  0  0  0  0  0  0
   -3.0671   -2.5859   -0.5858 H   0  0  0  0  0  0  0  0  0  0  0  0
   -1.2261   -2.1939    0.4202 C   0  0  0  0  0  0  0  0  0  0  0  0
   -0.3181   -2.9519    0.7312 O   0  0  0  0  0  0  0  0  0  0  0  0
   -1.0281   -0.9259    0.0662 N   0  0  0  0  0  0  0  0  0  0  0  0
   -1.8301   -0.3519   -0.1548 H   0  0  0  0  0  0  0  0  0  0  0  0
    0.2709   -0.2409    0.0912 C   0  0  1  0  0  0  0  0  0  0  0  0
    0.9610   -0.8195    0.7057 H   0  0  0  0  0  0  0  0  0  0  0  0
    0.8490   -0.1656   -1.3279 C   0  0  0  0  0  0  0  0  0  0  0  0
    1.4619    0.7329   -1.4174 H   0  0  0  0  0  0  0  0  0  0  0  0
    1.4760   -1.0396   -1.5132 H   0  0  0  0  0  0  0  0  0  0  0  0
   -0.1854   -0.1087   -2.2923 O   0  0  0  0  0  0  0  0  0  0  0  0
    0.2078    0.1119   -3.1435 H   0  0  0  0  0  0  0  0  0  0  0  0
    0.1327    1.1568    0.7173 C   0  0  0  0  0  0  0  0  0  0  0  0
   -0.8069    1.8857    0.3967 O   0  0  0  0  0  0  0  0  0  0  0  0
    1.0524    1.5291    1.6140 N   0  0  0  0  0  0  0  0  0  0  0  0
    1.8362    0.9033    1.7438 H   0  0  0  0  0  0  0  0  0  0  0  0
    1.0579    2.8104    2.3171 C   0  0  0  0  0  0  0  0  0  0  0  0
    0.0539    3.0358    2.6828 H   0  0  0  0  0  0  0  0  0  0  0  0
    1.7474    2.7734    3.1610 H   0  0  0  0  0  0  0  0  0  0  0  0
    1.3663    3.6029    1.6321 H   0  0  0  0  0  0  0  0  0  0  0  0
  5  6  2  0  0  0  0
  5  7  1  0  0  0  0
  2  3  1  0  0  0  0
  2  4  1  0  0  0  0
  2  5  1  0  0  0  0
  1  2  1  0  0  0  0
 16 17  2  0  0  0  0
 16 18  1  0  0  0  0
 14 15  1  0  0  0  0
 11 12  1  0  0  0  0
 11 13  1  0  0  0  0
 11 14  1  0  0  0  0
  9 10  1  0  0  0  0
  9 11  1  0  0  0  0
  9 16  1  0  0  0  0
  7  8  1  0  0  0  0
  7  9  1  0  0  0  0
 20 21  1  0  0  0  0
 20 22  1  0  0  0  0
 20 23  1  0  0  0  0
 18 19  1  0  0  0  0
 18 20  1  0  0  0  0
M  END
$$$$
default_name
  -OEChem-02102213163D

 23 22  0     1  0  0  0  0  0999 V2000
   -2.6721   -3.7279    0.7212 H   0  0  0  0  0  0  0  0  0  0  0  0
   -2.6561   -2.6819    0.4162 C   0  0  0  0  0  0  0  0  0  0  0  0
   -3.2401   -2.0889    1.1172 H   0  0  0  0  0  0  0  0  0  0  0  0
   -3.0671   -2.5859   -0.5858 H   0  0  0  0  0  0  0  0  0  0  0  0
   -1.2261   -2.1939    0.4202 C   0  0  0  0  0  0  0  0  0  0  0  0
   -0.3181   -2.9519    0.7312 O   0  0  0  0  0  0  0  0  0  0  0  0
   -1.0281   -0.9259    0.0662 N   0  0  0  0  0  0  0  0  0  0  0  0
   -1.8301   -0.3519   -0.1548 H   0  0  0  0  0  0  0  0  0  0  0  0
    0.2709   -0.2409    0.0912 C   0  0  1  0  0  0  0  0  0  0  0  0
    0.9610   -0.8195    0.7057 H   0  0  0  0  0  0  0  0  0  0  0  0
    0.8490   -0.1656   -1.3279 C   0  0  0  0  0  0  0  0  0  0  0  0
    1.6595    0.5649   -1.3458 H   0  0  0  0  0  0  0  0  0  0  0  0
    1.2477   -1.1412   -1.6116 H   0  0  0  0  0  0  0  0  0  0  0  0
   -0.1423    0.2319   -2.2567 O   0  0  0  0  0  0  0  0  0  0  0  0
    0.2917    0.4355   -3.0922 H   0  0  0  0  0  0  0  0  0  0  0  0
    0.1327    1.1568    0.7173 C   0  0  0  0  0  0  0  0  0  0  0  0
   -0.8069    1.8857    0.3967 O   0  0  0  0  0  0  0  0  0  0  0  0
    1.0524    1.5291    1.6140 N   0  0  0  0  0  0  0  0  0  0  0  0
    1.8362    0.9033    1.7438 H   0  0  0  0  0  0  0  0  0  0  0  0
    1.0579    2.8104    2.3171 C   0  0  0  0  0  0  0  0  0  0  0  0
    0.0539    3.0358    2.6828 H   0  0  0  0  0  0  0  0  0  0  0  0
    1.7474    2.7734    3.1610 H   0  0  0  0  0  0  0  0  0  0  0  0
    1.3663    3.6029    1.6321 H   0  0  0  0  0  0  0  0  0  0  0  0
  5  6  2  0  0  0  0
  5  7  1  0  0  0  0
  2  3  1  0  0  0  0
  2  4  1  0  0  0  0
  2  5  1  0  0  0  0
  1  2  1  0  0  0  0
 16 17  2  0  0  0  0
 16 18  1  0  0  0  0
 14 15  1  0  0  0  0
 11 12  1  0  0  0  0
 11 13  1  0  0  0  0
 11 14  1  0  0  0  0
  9 10  1  0  0  0  0
  9 11  1  0  0  0  0
  9 16  1  0  0  0  0
  7  8  1  0  0  0  0
  7  9  1  0  0  0  0
 20 21  1  0  0  0  0
 20 22  1  0  0  0  0
 20 23  1  0  0  0  0
 18 19  1  0  0  0  0
 18 20  1  0  0  0  0
M  END
$$$$
default_name
  -OEChem-02102213163D

 23 22  0     1  0  0  0  0  0999 V2000
   -2.6721   -3.7279    0.7212 H   0  0  0  0  0  0  0  0  0  0  0  0
   -2.6561   -2.6819    0.4162 C   0  0  0  0  0  0  0  0  0  0  0  0
   -3.2401   -2.0889    1.1172 H   0  0  0  0  0  0  0  0  0  0  0  0
   -3.0671   -2.5859   -0.5858 H   0  0  0  0  0  0  0  0  0  0  0  0
   -1.2261   -2.1939    0.4202 C   0  0  0  0  0  0  0  0  0  0  0  0
   -0.3181   -2.9519    0.7312 O   0  0  0  0  0  0  0  0  0  0  0  0
   -1.0281   -0.9259    0.0662 N   0  0  0  0  0  0  0  0  0  0  0  0
   -1.8301   -0.3519   -0.1548 H   0  0  0  0  0  0  0  0  0  0  0  0
    0.2709   -0.2409    0.0912 C   0  0  1  0  0  0  0  0  0  0  0  0
    0.9610   -0.8195    0.7057 H   0  0  0  0  0  0  0  0  0  0  0  0
    0.8490   -0.1656   -1.3279 C   0  0  0  0  0  0  0  0  0  0  0  0
    1.8111    0.3482   -1.2955 H   0  0  0  0  0  0  0  0  0  0  0  0
    1.0017   -1.1752   -1.7136 H   0  0  0  0  0  0  0  0  0  0  0  0
   -0.0187    0.5471   -2.1896 O   0  0  0  0  0  0  0  0  0  0  0  0
    0.4508    0.7229   -3.0121 H   0  0  0  0  0  0  0  0  0  0  0  0
    0.1327    1.1568    0.7173 C   0  0  0  0  0  0  0  0  0  0  0  0
   -0.8069    1.8857    0.3967 O   0  0  0  0  0  0  0  0  0  0  0  0
    1.0524    1.5291    1.6140 N   0  0  0  0  0  0  0  0  0  0  0  0
    1.8362    0.9033    1.7438 H   0  0  0  0  0  0  0  0  0  0  0  0
    1.0579    2.8104    2.3171 C   0  0  0  0  0  0  0  0  0  0  0  0
    0.0539    3.0358    2.6828 H   0  0  0  0  0  0  0  0  0  0  0  0
    1.7474    2.7734    3.1610 H   0  0  0  0  0  0  0  0  0  0  0  0
    1.3663    3.6029    1.6321 H   0  0  0  0  0  0  0  0  0  0  0  0
  5  6  2  0  0  0  0
  5  7  1  0  0  0  0
  2  3  1  0  0  0  0
  2  4  1  0  0  0  0
  2  5  1  0  0  0  0
  1  2  1  0  0  0  0
 16 17  2  0  0  0  0
 16 18  1  0  0  0  0
 14 15  1  0  0  0  0
 11 12  1  0  0  0  0
 11 13  1  0  0  0  0
 11 14  1  0  0  0  0
  9 10  1  0  0  0  0
  9 11  1  0  0  0  0
  9 16  1  0  0  0  0
  7  8  1  0  0  0  0
  7  9  1  0  0  0  0
 20 21  1  0  0  0  0
 20 22  1  0  0  0  0
 20 23  1  0  0  0  0
 18 19  1  0  0  0  0
 18 20  1  0  0  0  0
M  END
$$$$
default_name
  -OEChem-02102213163D

 23 22  0     1  0  0  0  0  0999 V2000
   -2.6721   -3.7279    0.7212 H   0  0  0  0  0  0  0  0  0  0  0  0
   -2.6561   -2.6819    0.4162 C   0  0  0  0  0  0  0  0  0  0  0  0
   -3.2401   -2.0889    1.1172 H   0  0  0  0  0  0  0  0  0  0  0  0
   -3.0671   -2.5859   -0.5858 H   0  0  0  0  0  0  0  0  0  0  0  0
   -1.2261   -2.1939    0.4202 C   0  0  0  0  0  0  0  0  0  0  0  0
   -0.3181   -2.9519    0.7312 O   0  0  0  0  0  0  0  0  0  0  0  0
   -1.0281   -0.9259    0.0662 N   0  0  0  0  0  0  0  0  0  0  0  0
   -1.8301   -0.3519   -0.1548 H   0  0  0  0  0  0  0  0  0  0  0  0
    0.2709   -0.2409    0.0912 C   0  0  1  0  0  0  0  0  0  0  0  0
    0.9610   -0.8195    0.7057 H   0  0  0  0  0  0  0  0  0  0  0  0
    0.8490   -0.1656   -1.3279 C   0  0  0  0  0  0  0  0  0  0  0  0
    1.9064    0.0978   -1.2700 H   0  0  0  0  0  0  0  0  0  0  0  0
    0.7545   -1.1391   -1.8124 H   0  0  0  0  0  0  0  0  0  0  0  0
    0.1770    0.8154   -2.0956 O   0  0  0  0  0  0  0  0  0  0  0  0
    0.6743    0.9546   -2.9088 H   0  0  0  0  0  0  0  0  0  0  0  0
    0.1327    1.1568    0.7173 C   0  0  0  0  0  0  0  0  0  0  0  0
   -0.8069    1.8857    0.3967 O   0  0  0  0  0  0  0  0  0  0  0  0
    1.0524    1.5291    1.6140 N   0  0  0  0  0  0  0  0  0  0  0  0
    1.8362    0.9033    1.7438 H   0  0  0  0  0  0  0  0  0  0  0  0
    1.0579    2.8104    2.3171 C   0  0  0  0  0  0  0  0  0  0  0  0
    0.0539    3.0358    2.6828 H   0  0  0  0  0  0  0  0  0  0  0  0
    1.7474    2.7734    3.1610 H   0  0  0  0  0  0  0  0  0  0  0  0
    1.3663    3.6029    1.6321 H   0  0  0  0  0  0  0  0  0  0  0  0
  5  6  2  0  0  0  0
  5  7  1  0  0  0  0
  2  3  1  0  0  0  0
  2  4  1  0  0  0  0
  2  5  1  0  0  0  0
  1  2  1  0  0  0  0
 16 17  2  0  0  0  0
 16 18  1  0  0  0  0
 14 15  1  0  0  0  0
 11 12  1  0  0  0  0
 11 13  1  0  0  0  0
 11 14  1  0  0  0  0
  9 10  1  0  0  0  0
  9 11  1  0  0  0  0
  9 16  1  0  0  0  0
  7  8  1  0  0  0  0
  7  9  1  0  0  0  0
 20 21  1  0  0  0  0
 20 22  1  0  0  0  0
 20 23  1  0  0  0  0
 18 19  1  0  0  0  0
 18 20  1  0  0  0  0
M  END
$$$$
default_name
  -OEChem-02102213163D

 23 22  0     1  0  0  0  0  0999 V2000
   -2.6721   -3.7279    0.7212 H   0  0  0  0  0  0  0  0  0  0  0  0
   -2.6561   -2.6819    0.4162 C   0  0  0  0  0  0  0  0  0  0  0  0
   -3.2401   -2.0889    1.1172 H   0  0  0  0  0  0  0  0  0  0  0  0
   -3.0671   -2.5859   -0.5858 H   0  0  0  0  0  0  0  0  0  0  0  0
   -1.2261   -2.1939    0.4202 C   0  0  0  0  0  0  0  0  0  0  0  0
   -0.3181   -2.9519    0.7312 O   0  0  0  0  0  0  0  0  0  0  0  0
   -1.0281   -0.9259    0.0662 N   0  0  0  0  0  0  0  0  0  0  0  0
   -1.8301   -0.3519   -0.1548 H   0  0  0  0  0  0  0  0  0  0  0  0
    0.2709   -0.2409    0.0912 C   0  0  1  0  0  0  0  0  0  0  0  0
    0.9610   -0.8195    0.7057 H   0  0  0  0  0  0  0  0  0  0  0  0
    0.8490   -0.1656   -1.3279 C   0  0  0  0  0  0  0  0  0  0  0  0
    1.9387   -0.1694   -1.2710 H   0  0  0  0  0  0  0  0  0  0  0  0
    0.5232   -1.0355   -1.9011 H   0  0  0  0  0  0  0  0  0  0  0  0
    0.4315    1.0185   -1.9812 O   0  0  0  0  0  0  0  0  0  0  0  0
    0.9470    1.1149   -2.7892 H   0  0  0  0  0  0  0  0  0  0  0  0
    0.1327    1.1568    0.7173 C   0  0  0  0  0  0  0  0  0  0  0  0
   -0.8069    1.8857    0.3967 O   0  0  0  0  0  0  0  0  0  0  0  0
    1.0524    1.5291    1.6140 N   0  0  0  0  0  0  0  0  0  0  0  0
    1.8362    0.9033    1.7438 H   0  0  0  0  0  0  0  0  0  0  0  0
    1.0579    2.8104    2.3171 C   0  0  0  0  0  0  0  0  0  0  0  0
    0.0539    3.0358    2.6828 H   0  0  0  0  0  0  0  0  0  0  0  0
    1.7474    2.7734    3.1610 H   0  0  0  0  0  0  0  0  0  0  0  0
    1.3663    3.6029    1.6321 H   0  0  0  0  0  0  0  0  0  0  0  0
  5  6  2  0  0  0  0
  5  7  1  0  0  0  0
  2  3  1  0  0  0  0
  2  4  1  0  0  0  0
  2  5  1  0  0  0  0
  1  2  1  0  0  0  0
 16 17  2  0  0  0  0
 16 18  1  0  0  0  0
 14 15  1  0  0  0  0
 11 12  1  0  0  0  0
 11 13  1  0  0  0  0
 11 14  1  0  0  0  0
  9 10  1  0  0  0  0
  9 11  1  0  0  0  0
  9 16  1  0  0  0  0
  7  8  1  0  0  0  0
  7  9  1  0  0  0  0
 20 21  1  0  0  0  0
 20 22  1  0  0  0  0
 20 23  1  0  0  0  0
 18 19  1  0  0  0  0
 18 20  1  0  0  0  0
M  END
$$$$
default_name
  -OEChem-02102213163D

 23 22  0     1  0  0  0  0  0999 V2000
   -2.6721   -3.7279    0.7212 H   0  0  0  0  0  0  0  0  0  0  0  0
   -2.6561   -2.6819    0.4162 C   0  0  0  0  0  0  0  0  0  0  0  0
   -3.2401   -2.0889    1.1172 H   0  0  0  0  0  0  0  0  0  0  0  0
   -3.0671   -2.5859   -0.5858 H   0  0  0  0  0  0  0  0  0  0  0  0
   -1.2261   -2.1939    0.4202 C   0  0  0  0  0  0  0  0  0  0  0  0
   -0.3181   -2.9519    0.7312 O   0  0  0  0  0  0  0  0  0  0  0  0
   -1.0281   -0.9259    0.0662 N   0  0  0  0  0  0  0  0  0  0  0  0
   -1.8301   -0.3519   -0.1548 H   0  0  0  0  0  0  0  0  0  0  0  0
    0.2709   -0.2409    0.0912 C   0  0  1  0  0  0  0  0  0  0  0  0
    0.9610   -0.8195    0.7057 H   0  0  0  0  0  0  0  0  0  0  0  0
    0.8490   -0.1656   -1.3279 C   0  0  0  0  0  0  0  0  0  0  0  0
    1.9060   -0.4351   -1.2984 H   0  0  0  0  0  0  0  0  0  0  0  0
    0.3235   -0.8713   -1.9738 H   0  0  0  0  0  0  0  0  0  0  0  0
    0.7274    1.1427   -1.8540 O   0  0  0  0  0  0  0  0  0  0  0  0
    1.2503    1.1927   -2.6615 H   0  0  0  0  0  0  0  0  0  0  0  0
    0.1327    1.1568    0.7173 C   0  0  0  0  0  0  0  0  0  0  0  0
   -0.8069    1.8857    0.3967 O   0  0  0  0  0  0  0  0  0  0  0  0
    1.0524    1.5291    1.6140 N   0  0  0  0  0  0  0  0  0  0  0  0
    1.8362    0.9033    1.7438 H   0  0  0  0  0  0  0  0  0  0  0  0
    1.0579    2.8104    2.3171 C   0  0  0  0  0  0  0  0  0  0  0  0
    0.0539    3.0358    2.6828 H   0  0  0  0  0  0  0  0  0  0  0  0
    1.7474    2.7734    3.1610 H   0  0  0  0  0  0  0  0  0  0  0  0
    1.3663    3.6029    1.6321 H   0  0  0  0  0  0  0  0  0  0  0  0
  5  6  2  0  0  0  0
  5  7  1  0  0  0  0
  2  3  1  0  0  0  0
  2  4  1  0  0  0  0
  2  5  1  0  0  0  0
  1  2  1  0  0  0  0
 16 17  2  0  0  0  0
 16 18  1  0  0  0  0
 14 15  1  0  0  0  0
 11 12  1  0  0  0  0
 11 13  1  0  0  0  0
 11 14  1  0  0  0  0
  9 10  1  0  0  0  0
  9 11  1  0  0  0  0
  9 16  1  0  0  0  0
  7  8  1  0  0  0  0
  7  9  1  0  0  0  0
 20 21  1  0  0  0  0
 20 22  1  0  0  0  0
 20 23  1  0  0  0  0
 18 19  1  0  0  0  0
 18 20  1  0  0  0  0
M  END
$$$$
default_name
  -OEChem-02102213163D

 23 22  0     1  0  0  0  0  0999 V2000
   -2.6721   -3.7279    0.7212 H   0  0  0  0  0  0  0  0  0  0  0  0
   -2.6561   -2.6819    0.4162 C   0  0  0  0  0  0  0  0  0  0  0  0
   -3.2401   -2.0889    1.1172 H   0  0  0  0  0  0  0  0  0  0  0  0
   -3.0671   -2.5859   -0.5858 H   0  0  0  0  0  0  0  0  0  0  0  0
   -1.2261   -2.1939    0.4202 C   0  0  0  0  0  0  0  0  0  0  0  0
   -0.3181   -2.9519    0.7312 O   0  0  0  0  0  0  0  0  0  0  0  0
   -1.0281   -0.9259    0.0662 N   0  0  0  0  0  0  0  0  0  0  0  0
   -1.8301   -0.3519   -0.1548 H   0  0  0  0  0  0  0  0  0  0  0  0
    0.2709   -0.2409    0.0912 C   0  0  1  0  0  0  0  0  0  0  0  0
    0.9610   -0.8195    0.7057 H   0  0  0  0  0  0  0  0  0  0  0  0
    0.8490   -0.1656   -1.3279 C   0  0  0  0  0  0  0  0  0  0  0  0
    1.8105   -0.6812   -1.3504 H   0  0  0  0  0  0  0  0  0  0  0  0
    0.1689   -0.6579   -2.0254 H   0  0  0  0  0  0  0  0  0  0  0  0
    1.0446    1.1794   -1.7229 O   0  0  0  0  0  0  0  0  0  0  0  0
    1.5635    1.1828   -2.5345 H   0  0  0  0  0  0  0  0  0  0  0  0
    0.1327    1.1568    0.7173 C   0  0  0  0  0  0  0  0  0  0  0  0
   -0.8069    1.8857    0.3967 O   0  0  0  0  0  0  0  0  0  0  0  0
    1.0524    1.5291    1.6140 N   0  0  0  0  0  0  0  0  0  0  0  0
    1.8362    0.9033    1.7438 H   0  0  0  0  0  0  0  0  0  0  0  0
    1.0579    2.8104    2.3171 C   0  0  0  0  0  0  0  0  0  0  0  0
    0.0539    3.0358    2.6828 H   0  0  0  0  0  0  0  0  0  0  0  0
    1.7474    2.7734    3.1610 H   0  0  0  0  0  0  0  0  0  0  0  0
    1.3663    3.6029    1.6321 H   0  0  0  0  0  0  0  0  0  0  0  0
  5  6  2  0  0  0  0
  5  7  1  0  0  0  0
  2  3  1  0  0  0  0
  2  4  1  0  0  0  0
  2  5  1  0  0  0  0
  1  2  1  0  0  0  0
 16 17  2  0  0  0  0
 16 18  1  0  0  0  0
 14 15  1  0  0  0  0
 11 12  1  0  0  0  0
 11 13  1  0  0  0  0
 11 14  1  0  0  0  0
  9 10  1  0  0  0  0
  9 11  1  0  0  0  0
  9 16  1  0  0  0  0
  7  8  1  0  0  0  0
  7  9  1  0  0  0  0
 20 21  1  0  0  0  0
 20 22  1  0  0  0  0
 20 23  1  0  0  0  0
 18 19  1  0  0  0  0
 18 20  1  0  0  0  0
M  END
$$$$
default_name
  -OEChem-02102213163D

 23 22  0     1  0  0  0  0  0999 V2000
   -2.6721   -3.7279    0.7212 H   0  0  0  0  0  0  0  0  0  0  0  0
   -2.6561   -2.6819    0.4162 C   0  0  0  0  0  0  0  0  0  0  0  0
   -3.2401   -2.0889    1.1172 H   0  0  0  0  0  0  0  0  0  0  0  0
   -3.0671   -2.5859   -0.5858 H   0  0  0  0  0  0  0  0  0  0  0  0
   -1.2261   -2.1939    0.4202 C   0  0  0  0  0  0  0  0  0  0  0  0
   -0.3181   -2.9519    0.7312 O   0  0  0  0  0  0  0  0  0  0  0  0
   -1.0281   -0.9259    0.0662 N   0  0  0  0  0  0  0  0  0  0  0  0
   -1.8301   -0.3519   -0.1548 H   0  0  0  0  0  0  0  0  0  0  0  0
    0.2709   -0.2409    0.0912 C   0  0  1  0  0  0  0  0  0  0  0  0
    0.9610   -0.8195    0.7057 H   0  0  0  0  0  0  0  0  0  0  0  0
    0.8490   -0.1656   -1.3279 C   0  0  0  0  0  0  0  0  0  0  0  0
    1.6586   -0.8911   -1.4234 H   0  0  0  0  0  0  0  0  0  0  0  0
    0.0700   -0.4097   -2.0525 H   0  0  0  0  0  0  0  0  0  0  0  0
    1.3613    1.1261   -1.5967 O   0  0  0  0  0  0  0  0  0  0  0  0
    1.8653    1.0859   -2.4167 H   0  0  0  0  0  0  0  0  0  0  0  0
    0.1327    1.1568    0.7173 C   0  0  0  0  0  0  0  0  0  0  0  0
   -0.8069    1.8857    0.3967 O   0  0  0  0  0  0  0  0  0  0  0  0
    1.0524    1.5291    1.6140 N   0  0  0  0  0  0  0  0  0  0  0  0
    1.8362    0.9033    1.7438 H   0  0  0  0  0  0  0  0  0  0  0  0
    1.0579    2.8104    2.3171 C   0  0  0  0  0  0  0  0  0  0  0  0
    0.0539    3.0358    2.6828 H   0  0  0  0  0  0  0  0  0  0  0  0
    1.7474    2.7734    3.1610 H   0  0  0  0  0  0  0  0  0  0  0  0
    1.3663    3.6029    1.6321 H   0  0  0  0  0  0  0  0  0  0  0  0
  5  6  2  0  0  0  0
  5  7  1  0  0  0  0
  2  3  1  0  0  0  0
  2  4  1  0  0  0  0
  2  5  1  0  0  0  0
  1  2  1  0  0  0  0
 16 17  2  0  0  0  0
 16 18  1  0  0  0  0
 14 15  1  0  0  0  0
 11 12  1  0  0  0  0
 11 13  1  0  0  0  0
 11 14  1  0  0  0  0
  9 10  1  0  0  0  0
  9 11  1  0  0  0  0
  9 16  1  0  0  0  0
  7  8  1  0  0  0  0
  7  9  1  0  0  0  0
 20 21  1  0  0  0  0
 20 22  1  0  0  0  0
 20 23  1  0  0  0  0
 18 19  1  0  0  0  0
 18 20  1  0  0  0  0
M  END
$$$$
default_name
  -OEChem-02102213163D

 23 22  0     1  0  0  0  0  0999 V2000
   -2.6721   -3.7279    0.7212 H   0  0  0  0  0  0  0  0  0  0  0  0
   -2.6561   -2.6819    0.4162 C   0  0  0  0  0  0  0  0  0  0  0  0
   -3.2401   -2.0889    1.1172 H   0  0  0  0  0  0  0  0  0  0  0  0
   -3.0671   -2.5859   -0.5858 H   0  0  0  0  0  0  0  0  0  0  0  0
   -1.2261   -2.1939    0.4202 C   0  0  0  0  0  0  0  0  0  0  0  0
   -0.3181   -2.9519    0.7312 O   0  0  0  0  0  0  0  0  0  0  0  0
   -1.0281   -0.9259    0.0662 N   0  0  0  0  0  0  0  0  0  0  0  0
   -1.8301   -0.3519   -0.1548 H   0  0  0  0  0  0  0  0  0  0  0  0
    0.2709   -0.2409    0.0912 C   0  0  1  0  0  0  0  0  0  0  0  0
    0.9610   -0.8195    0.7057 H   0  0  0  0  0  0  0  0  0  0  0  0
    0.8490   -0.1656   -1.3279 C   0  0  0  0  0  0  0  0  0  0  0  0
    1.4607   -1.0503   -1.5125 H   0  0  0  0  0  0  0  0  0  0  0  0
    0.0336   -0.1436   -2.0532 H   0  0  0  0  0  0  0  0  0  0  0  0
    1.6562    0.9865   -1.4840 O   0  0  0  0  0  0  0  0  0  0  0  0
    2.1351    0.9086   -2.3162 H   0  0  0  0  0  0  0  0  0  0  0  0
    0.1327    1.1568    0.7173 C   0  0  0  0  0  0  0  0  0  0  0  0
   -0.8069    1.8857    0.3967 O   0  0  0  0  0  0  0  0  0  0  0  0
    1.0524    1.5291    1.6140 N   0  0  0  0  0  0  0  0  0  0  0  0
    1.8362    0.9033    1.7438 H   0  0  0  0  0  0  0  0  0  0  0  0
    1.0579    2.8104    2.3171 C   0  0  0  0  0  0  0  0  0  0  0  0
    0.0539    3.0358    2.6828 H   0  0  0  0  0  0  0  0  0  0  0  0
    1.7474    2.7734    3.1610 H   0  0  0  0  0  0  0  0  0  0  0  0
    1.3663    3.6029    1.6321 H   0  0  0  0  0  0  0  0  0  0  0  0
  5  6  2  0  0  0  0
  5  7  1  0  0  0  0
  2  3  1  0  0  0  0
  2  4  1  0  0  0  0
  2  5  1  0  0  0  0
  1  2  1  0  0  0  0
 16 17  2  0  0  0  0
 16 18  1  0  0  0  0
 14 15  1  0  0  0  0
 11 12  1  0  0  0  0
 11 13  1  0  0  0  0
 11 14  1  0  0  0  0
  9 10  1  0  0  0  0
  9 11  1  0  0  0  0
  9 16  1  0  0  0  0
  7  8  1  0  0  0  0
  7  9  1  0  0  0  0
 20 21  1  0  0  0  0
 20 22  1  0  0  0  0
 20 23  1  0  0  0  0
 18 19  1  0  0  0  0
 18 20  1  0  0  0  0
M  END
$$$$
default_name
  -OEChem-02102213163D

 23 22  0     1  0  0  0  0  0999 V2000
   -2.6721   -3.7279    0.7212 H   0  0  0  0  0  0  0  0  0  0  0  0
   -2.6561   -2.6819    0.4162 C   0  0  0  0  0  0  0  0  0  0  0  0
   -3.2401   -2.0889    1.1172 H   0  0  0  0  0  0  0  0  0  0  0  0
   -3.0671   -2.5859   -0.5858 H   0  0  0  0  0  0  0  0  0  0  0  0
   -1.2261   -2.1939    0.4202 C   0  0  0  0  0  0  0  0  0  0  0  0
   -0.3181   -2.9519    0.7312 O   0  0  0  0  0  0  0  0  0  0  0  0
   -1.0281   -0.9259    0.0662 N   0  0  0  0  0  0  0  0  0  0  0  0
   -1.8301   -0.3519   -0.1548 H   0  0  0  0  0  0  0  0  0  0  0  0
    0.2709   -0.2409    0.0912 C   0  0  1  0  0  0  0  0  0  0  0  0
    0.9610   -0.8195    0.7057 H   0  0  0  0  0  0  0  0  0  0  0  0
    0.8490   -0.1656   -1.3279 C   0  0  0  0  0  0  0  0  0  0  0  0
    1.2303   -1.1480   -1.6115 H   0  0  0  0  0  0  0  0  0  0  0  0
    0.0622    0.1222   -2.0275 H   0  0  0  0  0  0  0  0  0  0  0  0
    1.9090    0.7700   -1.3925 O   0  0  0  0  0  0  0  0  0  0  0  0
    2.3545    0.6629   -2.2398 H   0  0  0  0  0  0  0  0  0  0  0  0
    0.1327    1.1568    0.7173 C   0  0  0  0  0  0  0  0  0  0  0  0
   -0.8069    1.8857    0.3967 O   0  0  0  0  0  0  0  0  0  0  0  0
    1.0524    1.5291    1.6140 N   0  0  0  0  0  0  0  0  0  0  0  0
    1.8362    0.9033    1.7438 H   0  0  0  0  0  0  0  0  0  0  0  0
    1.0579    2.8104    2.3171 C   0  0  0  0  0  0  0  0  0  0  0  0
    0.0539    3.0358    2.6828 H   0  0  0  0  0  0  0  0  0  0  0  0
    1.7474    2.7734    3.1610 H   0  0  0  0  0  0  0  0  0  0  0  0
    1.3663    3.6029    1.6321 H   0  0  0  0  0  0  0  0  0  0  0  0
  5  6  2  0  0  0  0
  5  7  1  0  0  0  0
  2  3  1  0  0  0  0
  2  4  1  0  0  0  0
  2  5  1  0  0  0  0
  1  2  1  0  0  0  0
 16 17  2  0  0  0  0
 16 18  1  0  0  0  0
 14 15  1  0  0  0  0
 11 12  1  0  0  0  0
 11 13  1  0  0  0  0
 11 14  1  0  0  0  0
  9 10  1  0  0  0  0
  9 11  1  0  0  0  0
  9 16  1  0  0  0  0
  7  8  1  0  0  0  0
  7  9  1  0  0  0  0
 20 21  1  0  0  0  0
 20 22  1  0  0  0  0
 20 23  1  0  0  0  0
 18 19  1  0  0  0  0
 18 20  1  0  0  0  0
M  END
$$$$
