
  -OEChem-02102214163D

 23 22  0     1  0  0  0  0  0999 V2000
   -2.6660   -3.7253    0.3319 H   0  0  0  0  0  0  0  0  0  0  0  0
   -2.6455   -2.6740    0.0311 C   0  0  0  0  0  0  0  0  0  0  0  0
   -3.2078   -2.0879    0.7620 H   0  0  0  0  0  0  0  0  0  0  0  0
   -3.1225   -2.5786   -0.9472 H   0  0  0  0  0  0  0  0  0  0  0  0
   -1.2134   -2.1782   -0.0401 C   0  0  0  0  0  0  0  0  0  0  0  0
   -0.2916   -2.9360    0.2141 O   0  0  0  0  0  0  0  0  0  0  0  0
   -0.9574   -0.8714   -0.3961 N   0  0  0  0  0  0  0  0  0  0  0  0
   -1.7585   -0.2470   -0.4803 H   0  0  0  0  0  0  0  0  0  0  0  0
    0.3695   -0.2336   -0.3332 C   0  0  1  0  0  0  0  0  0  0  0  0
    1.0415   -0.8274    0.2941 H   0  0  0  0  0  0  0  0  0  0  0  0
    0.9785   -0.1401   -1.7320 C   0  0  0  0  0  0  0  0  0  0  0  0
    1.0736   -1.1449   -2.1564 H   0  0  0  0  0  0  0  0  0  0  0  0
    0.3207    0.4425   -2.3857 H   0  0  0  0  0  0  0  0  0  0  0  0
    2.2687    0.4789   -1.6701 O   0  0  0  0  0  0  0  0  0  0  0  0
    2.6653    0.5314   -2.5579 H   0  0  0  0  0  0  0  0  0  0  0  0
    0.2636    1.1664    0.2968 C   0  0  0  0  0  0  0  0  0  0  0  0
   -0.7235    1.8593    0.0649 O   0  0  0  0  0  0  0  0  0  0  0  0
    1.1708    1.5781    1.2554 N   0  0  0  0  0  0  0  0  0  0  0  0
    2.0187    1.0247    1.3458 H   0  0  0  0  0  0  0  0  0  0  0  0
    1.1137    2.8849    1.8979 C   0  0  0  0  0  0  0  0  0  0  0  0
    0.1460    3.0293    2.3898 H   0  0  0  0  0  0  0  0  0  0  0  0
    1.8989    2.9681    2.6556 H   0  0  0  0  0  0  0  0  0  0  0  0
    1.2566    3.6808    1.1597 H   0  0  0  0  0  0  0  0  0  0  0  0
  1  2  1  0  0  0  0
  2  3  1  0  0  0  0
  2  4  1  0  0  0  0
  2  5  1  0  0  0  0
  5  6  2  0  0  0  0
  5  7  1  0  0  0  0
  7  8  1  0  0  0  0
  7  9  1  0  0  0  0
  9 10  1  0  0  0  0
  9 11  1  0  0  0  0
  9 16  1  0  0  0  0
 11 12  1  0  0  0  0
 11 13  1  0  0  0  0
 11 14  1  0  0  0  0
 14 15  1  0  0  0  0
 16 17  2  0  0  0  0
 16 18  1  0  0  0  0
 18 19  1  0  0  0  0
 18 20  1  0  0  0  0
 20 21  1  0  0  0  0
 20 22  1  0  0  0  0
 20 23  1  0  0  0  0
M  END
$$$$

  -OEChem-02102214163D

 23 22  0     1  0  0  0  0  0999 V2000
   -2.6586   -3.7434    0.3183 H   0  0  0  0  0  0  0  0  0  0  0  0
   -2.6455   -2.6909    0.0216 C   0  0  0  0  0  0  0  0  0  0  0  0
   -3.2164   -2.1125    0.7520 H   0  0  0  0  0  0  0  0  0  0  0  0
   -3.1174   -2.5953   -0.9593 H   0  0  0  0  0  0  0  0  0  0  0  0
   -1.2173   -2.1834   -0.0397 C   0  0  0  0  0  0  0  0  0  0  0  0
   -0.2917   -2.9344    0.2200 O   0  0  0  0  0  0  0  0  0  0  0  0
   -0.9722   -0.8734   -0.3916 N   0  0  0  0  0  0  0  0  0  0  0  0
   -1.7795   -0.2598   -0.4901 H   0  0  0  0  0  0  0  0  0  0  0  0
    0.3481   -0.2217   -0.3315 C   0  0  1  0  0  0  0  0  0  0  0  0
    1.0189   -0.8200    0.2933 H   0  0  0  0  0  0  0  0  0  0  0  0
    0.9615   -0.1252   -1.7274 C   0  0  0  0  0  0  0  0  0  0  0  0
    0.8457   -1.0845   -2.2429 H   0  0  0  0  0  0  0  0  0  0  0  0
    0.4458    0.6396   -2.3179 H   0  0  0  0  0  0  0  0  0  0  0  0
    2.3564    0.1803   -1.6205 O   0  0  0  0  0  0  0  0  0  0  0  0
    2.7711    0.1947   -2.5014 H   0  0  0  0  0  0  0  0  0  0  0  0
    0.2569    1.1769    0.2992 C   0  0  0  0  0  0  0  0  0  0  0  0
   -0.7175    1.8839    0.0602 O   0  0  0  0  0  0  0  0  0  0  0  0
    1.1766    1.5826    1.2480 N   0  0  0  0  0  0  0  0  0  0  0  0
    2.0082    1.0070    1.3534 H   0  0  0  0  0  0  0  0  0  0  0  0
    1.1380    2.8897    1.8911 C   0  0  0  0  0  0  0  0  0  0  0  0
    0.1795    3.0401    2.3990 H   0  0  0  0  0  0  0  0  0  0  0  0
    1.9365    2.9676    2.6352 H   0  0  0  0  0  0  0  0  0  0  0  0
    1.2735    3.6847    1.1506 H   0  0  0  0  0  0  0  0  0  0  0  0
  1  2  1  0  0  0  0
  2  3  1  0  0  0  0
  2  4  1  0  0  0  0
  2  5  1  0  0  0  0
  5  6  2  0  0  0  0
  5  7  1  0  0  0  0
  7  8  1  0  0  0  0
  7  9  1  0  0  0  0
  9 10  1  0  0  0  0
  9 11  1  0  0  0  0
  9 16  1  0  0  0  0
 11 12  1  0  0  0  0
 11 13  1  0  0  0  0
 11 14  1  0  0  0  0
 14 15  1  0  0  0  0
 16 17  2  0  0  0  0
 16 18  1  0  0  0  0
 18 19  1  0  0  0  0
 18 20  1  0  0  0  0
 20 21  1  0  0  0  0
 20 22  1  0  0  0  0
 20 23  1  0  0  0  0
M  END
$$$$

  -OEChem-02102214163D

 23 22  0     1  0  0  0  0  0999 V2000
   -2.6542   -3.7572    0.3038 H   0  0  0  0  0  0  0  0  0  0  0  0
   -2.6460   -2.7032    0.0123 C   0  0  0  0  0  0  0  0  0  0  0  0
   -3.2258   -2.1324    0.7418 H   0  0  0  0  0  0  0  0  0  0  0  0
   -3.1124   -2.6065   -0.9711 H   0  0  0  0  0  0  0  0  0  0  0  0
   -1.2205   -2.1857   -0.0374 C   0  0  0  0  0  0  0  0  0  0  0  0
   -0.2928   -2.9316    0.2284 O   0  0  0  0  0  0  0  0  0  0  0  0
   -0.9828   -0.8725   -0.3843 N   0  0  0  0  0  0  0  0  0  0  0  0
   -1.7949   -0.2673   -0.4933 H   0  0  0  0  0  0  0  0  0  0  0  0
    0.3333   -0.2098   -0.3308 C   0  0  1  0  0  0  0  0  0  0  0  0
    1.0024   -0.8106    0.2941 H   0  0  0  0  0  0  0  0  0  0  0  0
    0.9539   -0.1115   -1.7265 C   0  0  0  0  0  0  0  0  0  0  0  0
    0.6332   -0.9680   -2.3288 H   0  0  0  0  0  0  0  0  0  0  0  0
    0.6218    0.7990   -2.2369 H   0  0  0  0  0  0  0  0  0  0  0  0
    2.3813   -0.1415   -1.6191 O   0  0  0  0  0  0  0  0  0  0  0  0
    2.7905   -0.1764   -2.5018 H   0  0  0  0  0  0  0  0  0  0  0  0
    0.2503    1.1861    0.3042 C   0  0  0  0  0  0  0  0  0  0  0  0
   -0.7145    1.9041    0.0608 O   0  0  0  0  0  0  0  0  0  0  0  0
    1.1810    1.5878    1.2436 N   0  0  0  0  0  0  0  0  0  0  0  0
    1.9956    0.9918    1.3683 H   0  0  0  0  0  0  0  0  0  0  0  0
    1.1545    2.8937    1.8897 C   0  0  0  0  0  0  0  0  0  0  0  0
    0.2102    3.0381    2.4252 H   0  0  0  0  0  0  0  0  0  0  0  0
    1.9743    2.9756    2.6100 H   0  0  0  0  0  0  0  0  0  0  0  0
    1.2642    3.6906    1.1467 H   0  0  0  0  0  0  0  0  0  0  0  0
  1  2  1  0  0  0  0
  2  3  1  0  0  0  0
  2  4  1  0  0  0  0
  2  5  1  0  0  0  0
  5  6  2  0  0  0  0
  5  7  1  0  0  0  0
  7  8  1  0  0  0  0
  7  9  1  0  0  0  0
  9 10  1  0  0  0  0
  9 11  1  0  0  0  0
  9 16  1  0  0  0  0
 11 12  1  0  0  0  0
 11 13  1  0  0  0  0
 11 14  1  0  0  0  0
 14 15  1  0  0  0  0
 16 17  2  0  0  0  0
 16 18  1  0  0  0  0
 18 19  1  0  0  0  0
 18 20  1  0  0  0  0
 20 21  1  0  0  0  0
 20 22  1  0  0  0  0
 20 23  1  0  0  0  0
M  END
$$$$

  -OEChem-02102214163D

 23 22  0     1  0  0  0  0  0999 V2000
   -2.6519   -3.7594    0.2917 H   0  0  0  0  0  0  0  0  0  0  0  0
   -2.6424   -2.7046    0.0030 C   0  0  0  0  0  0  0  0  0  0  0  0
   -3.2367   -2.1370    0.7232 H   0  0  0  0  0  0  0  0  0  0  0  0
   -3.0923   -2.6075   -0.9879 H   0  0  0  0  0  0  0  0  0  0  0  0
   -1.2182   -2.1820   -0.0212 C   0  0  0  0  0  0  0  0  0  0  0  0
   -0.2946   -2.9217    0.2742 O   0  0  0  0  0  0  0  0  0  0  0  0
   -0.9801   -0.8696   -0.3714 N   0  0  0  0  0  0  0  0  0  0  0  0
   -1.7921   -0.2696   -0.5053 H   0  0  0  0  0  0  0  0  0  0  0  0
    0.3363   -0.2060   -0.3279 C   0  0  1  0  0  0  0  0  0  0  0  0
    1.0088   -0.8033    0.2968 H   0  0  0  0  0  0  0  0  0  0  0  0
    0.9486   -0.1082   -1.7319 C   0  0  0  0  0  0  0  0  0  0  0  0
    0.4271   -0.7933   -2.4087 H   0  0  0  0  0  0  0  0  0  0  0  0
    0.8394    0.9030   -2.1385 H   0  0  0  0  0  0  0  0  0  0  0  0
    2.3296   -0.4824   -1.6856 O   0  0  0  0  0  0  0  0  0  0  0  0
    2.6991   -0.5460   -2.5838 H   0  0  0  0  0  0  0  0  0  0  0  0
    0.2542    1.1908    0.3058 C   0  0  0  0  0  0  0  0  0  0  0  0
   -0.7018    1.9160    0.0507 O   0  0  0  0  0  0  0  0  0  0  0  0
    1.1892    1.5964    1.2393 N   0  0  0  0  0  0  0  0  0  0  0  0
    1.9803    0.9787    1.4038 H   0  0  0  0  0  0  0  0  0  0  0  0
    1.1558    2.8963    1.8976 C   0  0  0  0  0  0  0  0  0  0  0  0
    0.2191    3.0223    2.4507 H   0  0  0  0  0  0  0  0  0  0  0  0
    1.9872    2.9835    2.6037 H   0  0  0  0  0  0  0  0  0  0  0  0
    1.2417    3.7014    1.1604 H   0  0  0  0  0  0  0  0  0  0  0  0
  1  2  1  0  0  0  0
  2  3  1  0  0  0  0
  2  4  1  0  0  0  0
  2  5  1  0  0  0  0
  5  6  2  0  0  0  0
  5  7  1  0  0  0  0
  7  8  1  0  0  0  0
  7  9  1  0  0  0  0
  9 10  1  0  0  0  0
  9 11  1  0  0  0  0
  9 16  1  0  0  0  0
 11 12  1  0  0  0  0
 11 13  1  0  0  0  0
 11 14  1  0  0  0  0
 14 15  1  0  0  0  0
 16 17  2  0  0  0  0
 16 18  1  0  0  0  0
 18 19  1  0  0  0  0
 18 20  1  0  0  0  0
 20 21  1  0  0  0  0
 20 22  1  0  0  0  0
 20 23  1  0  0  0  0
M  END
$$$$

  -OEChem-02102214163D

 23 22  0     1  0  0  0  0  0999 V2000
   -2.6518   -3.7537    0.2944 H   0  0  0  0  0  0  0  0  0  0  0  0
   -2.6374   -2.7012   -0.0022 C   0  0  0  0  0  0  0  0  0  0  0  0
   -3.2500   -2.1295    0.6990 H   0  0  0  0  0  0  0  0  0  0  0  0
   -3.0630   -2.6127   -1.0046 H   0  0  0  0  0  0  0  0  0  0  0  0
   -1.2138   -2.1762    0.0044 C   0  0  0  0  0  0  0  0  0  0  0  0
   -0.2995   -2.9080    0.3443 O   0  0  0  0  0  0  0  0  0  0  0  0
   -0.9689   -0.8678   -0.3559 N   0  0  0  0  0  0  0  0  0  0  0  0
   -1.7763   -0.2709   -0.5246 H   0  0  0  0  0  0  0  0  0  0  0  0
    0.3521   -0.2127   -0.3225 C   0  0  1  0  0  0  0  0  0  0  0  0
    1.0350   -0.8020    0.2981 H   0  0  0  0  0  0  0  0  0  0  0  0
    0.9428   -0.1080   -1.7389 C   0  0  0  0  0  0  0  0  0  0  0  0
    0.2495   -0.5443   -2.4656 H   0  0  0  0  0  0  0  0  0  0  0  0
    1.0975    0.9388   -2.0228 H   0  0  0  0  0  0  0  0  0  0  0  0
    2.1890   -0.8088   -1.8024 O   0  0  0  0  0  0  0  0  0  0  0  0
    2.5117   -0.8600   -2.7189 H   0  0  0  0  0  0  0  0  0  0  0  0
    0.2631    1.1866    0.3053 C   0  0  0  0  0  0  0  0  0  0  0  0
   -0.6801    1.9191    0.0255 O   0  0  0  0  0  0  0  0  0  0  0  0
    1.1958    1.5996    1.2380 N   0  0  0  0  0  0  0  0  0  0  0  0
    1.9602    0.9627    1.4485 H   0  0  0  0  0  0  0  0  0  0  0  0
    1.1481    2.8949    1.9040 C   0  0  0  0  0  0  0  0  0  0  0  0
    0.2092    3.0084    2.4560 H   0  0  0  0  0  0  0  0  0  0  0  0
    1.9772    2.9860    2.6123 H   0  0  0  0  0  0  0  0  0  0  0  0
    1.2278    3.7054    1.1720 H   0  0  0  0  0  0  0  0  0  0  0  0
  1  2  1  0  0  0  0
  2  3  1  0  0  0  0
  2  4  1  0  0  0  0
  2  5  1  0  0  0  0
  5  6  2  0  0  0  0
  5  7  1  0  0  0  0
  7  8  1  0  0  0  0
  7  9  1  0  0  0  0
  9 10  1  0  0  0  0
  9 11  1  0  0  0  0
  9 16  1  0  0  0  0
 11 12  1  0  0  0  0
 11 13  1  0  0  0  0
 11 14  1  0  0  0  0
 14 15  1  0  0  0  0
 16 17  2  0  0  0  0
 16 18  1  0  0  0  0
 18 19  1  0  0  0  0
 18 20  1  0  0  0  0
 20 21  1  0  0  0  0
 20 22  1  0  0  0  0
 20 23  1  0  0  0  0
M  END
$$$$

  -OEChem-02102214163D

 23 22  0     1  0  0  0  0  0999 V2000
   -2.6526   -3.7553    0.2921 H   0  0  0  0  0  0  0  0  0  0  0  0
   -2.6324   -2.7059   -0.0152 C   0  0  0  0  0  0  0  0  0  0  0  0
   -3.2710   -2.1292    0.6582 H   0  0  0  0  0  0  0  0  0  0  0  0
   -3.0231   -2.6300   -1.0327 H   0  0  0  0  0  0  0  0  0  0  0  0
   -1.2125   -2.1740    0.0350 C   0  0  0  0  0  0  0  0  0  0  0  0
   -0.3114   -2.8907    0.4371 O   0  0  0  0  0  0  0  0  0  0  0  0
   -0.9611   -0.8698   -0.3359 N   0  0  0  0  0  0  0  0  0  0  0  0
   -1.7617   -0.2822   -0.5595 H   0  0  0  0  0  0  0  0  0  0  0  0
    0.3647   -0.2248   -0.3108 C   0  0  1  0  0  0  0  0  0  0  0  0
    1.0618   -0.8085    0.2991 H   0  0  0  0  0  0  0  0  0  0  0  0
    0.9283   -0.1035   -1.7369 C   0  0  0  0  0  0  0  0  0  0  0  0
    0.1290   -0.2414   -2.4728 H   0  0  0  0  0  0  0  0  0  0  0  0
    1.3549    0.8926   -1.8991 H   0  0  0  0  0  0  0  0  0  0  0  0
    1.9568   -1.0768   -1.9413 O   0  0  0  0  0  0  0  0  0  0  0  0
    2.2545   -1.0805   -2.8673 H   0  0  0  0  0  0  0  0  0  0  0  0
    0.2716    1.1776    0.3101 C   0  0  0  0  0  0  0  0  0  0  0  0
   -0.6534    1.9210    0.0002 O   0  0  0  0  0  0  0  0  0  0  0  0
    1.2022    1.5965    1.2425 N   0  0  0  0  0  0  0  0  0  0  0  0
    1.9353    0.9405    1.5004 H   0  0  0  0  0  0  0  0  0  0  0  0
    1.1511    2.8964    1.8991 C   0  0  0  0  0  0  0  0  0  0  0  0
    0.2162    3.0065    2.4585 H   0  0  0  0  0  0  0  0  0  0  0  0
    1.9864    3.0000    2.5983 H   0  0  0  0  0  0  0  0  0  0  0  0
    1.2172    3.7018    1.1601 H   0  0  0  0  0  0  0  0  0  0  0  0
  1  2  1  0  0  0  0
  2  3  1  0  0  0  0
  2  4  1  0  0  0  0
  2  5  1  0  0  0  0
  5  6  2  0  0  0  0
  5  7  1  0  0  0  0
  7  8  1  0  0  0  0
  7  9  1  0  0  0  0
  9 10  1  0  0  0  0
  9 11  1  0  0  0  0
  9 16  1  0  0  0  0
 11 12  1  0  0  0  0
 11 13  1  0  0  0  0
 11 14  1  0  0  0  0
 14 15  1  0  0  0  0
 16 17  2  0  0  0  0
 16 18  1  0  0  0  0
 18 19  1  0  0  0  0
 18 20  1  0  0  0  0
 20 21  1  0  0  0  0
 20 22  1  0  0  0  0
 20 23  1  0  0  0  0
M  END
$$$$

  -OEChem-02102214163D

 23 22  0     1  0  0  0  0  0999 V2000
   -2.6422   -3.7719    0.2682 H   0  0  0  0  0  0  0  0  0  0  0  0
   -2.6244   -2.7219   -0.0368 C   0  0  0  0  0  0  0  0  0  0  0  0
   -3.2961   -2.1549    0.6122 H   0  0  0  0  0  0  0  0  0  0  0  0
   -2.9763   -2.6499   -1.0686 H   0  0  0  0  0  0  0  0  0  0  0  0
   -1.2144   -2.1720    0.0687 C   0  0  0  0  0  0  0  0  0  0  0  0
   -0.3264   -2.8682    0.5326 O   0  0  0  0  0  0  0  0  0  0  0  0
   -0.9615   -0.8707   -0.3106 N   0  0  0  0  0  0  0  0  0  0  0  0
   -1.7532   -0.3018   -0.6018 H   0  0  0  0  0  0  0  0  0  0  0  0
    0.3667   -0.2316   -0.2950 C   0  0  1  0  0  0  0  0  0  0  0  0
    1.0757   -0.8163    0.2996 H   0  0  0  0  0  0  0  0  0  0  0  0
    0.9031   -0.0974   -1.7282 C   0  0  0  0  0  0  0  0  0  0  0  0
    0.0757    0.0556   -2.4293 H   0  0  0  0  0  0  0  0  0  0  0  0
    1.5648    0.7722   -1.8023 H   0  0  0  0  0  0  0  0  0  0  0  0
    1.6526   -1.2622   -2.0855 O   0  0  0  0  0  0  0  0  0  0  0  0
    1.9500   -1.2174   -3.0102 H   0  0  0  0  0  0  0  0  0  0  0  0
    0.2776    1.1737    0.3202 C   0  0  0  0  0  0  0  0  0  0  0  0
   -0.6302    1.9286   -0.0114 O   0  0  0  0  0  0  0  0  0  0  0  0
    1.2115    1.5963    1.2480 N   0  0  0  0  0  0  0  0  0  0  0  0
    1.9218    0.9283    1.5361 H   0  0  0  0  0  0  0  0  0  0  0  0
    1.1685    2.9040    1.8901 C   0  0  0  0  0  0  0  0  0  0  0  0
    0.2259    3.0351    2.4320 H   0  0  0  0  0  0  0  0  0  0  0  0
    1.9929    3.0022    2.6029 H   0  0  0  0  0  0  0  0  0  0  0  0
    1.2604    3.7004    1.1441 H   0  0  0  0  0  0  0  0  0  0  0  0
  1  2  1  0  0  0  0
  2  3  1  0  0  0  0
  2  4  1  0  0  0  0
  2  5  1  0  0  0  0
  5  6  2  0  0  0  0
  5  7  1  0  0  0  0
  7  8  1  0  0  0  0
  7  9  1  0  0  0  0
  9 10  1  0  0  0  0
  9 11  1  0  0  0  0
  9 16  1  0  0  0  0
 11 12  1  0  0  0  0
 11 13  1  0  0  0  0
 11 14  1  0  0  0  0
 14 15  1  0  0  0  0
 16 17  2  0  0  0  0
 16 18  1  0  0  0  0
 18 19  1  0  0  0  0
 18 20  1  0  0  0  0
 20 21  1  0  0  0  0
 20 22  1  0  0  0  0
 20 23  1  0  0  0  0
M  END
$$$$

  -OEChem-02102214163D

 23 22  0     1  0  0  0  0  0999 V2000
   -2.6195   -3.7972    0.2328 H   0  0  0  0  0  0  0  0  0  0  0  0
   -2.6113   -2.7468   -0.0712 C   0  0  0  0  0  0  0  0  0  0  0  0
   -3.3263   -2.1955    0.5439 H   0  0  0  0  0  0  0  0  0  0  0  0
   -2.9141   -2.6822   -1.1189 H   0  0  0  0  0  0  0  0  0  0  0  0
   -1.2214   -2.1643    0.1025 C   0  0  0  0  0  0  0  0  0  0  0  0
   -0.3468   -2.8312    0.6314 O   0  0  0  0  0  0  0  0  0  0  0  0
   -0.9766   -0.8635   -0.2841 N   0  0  0  0  0  0  0  0  0  0  0  0
   -1.7556   -0.3286   -0.6594 H   0  0  0  0  0  0  0  0  0  0  0  0
    0.3514   -0.2247   -0.2780 C   0  0  1  0  0  0  0  0  0  0  0  0
    1.0656   -0.8136    0.3057 H   0  0  0  0  0  0  0  0  0  0  0  0
    0.8722   -0.0922   -1.7151 C   0  0  0  0  0  0  0  0  0  0  0  0
    0.0875    0.3135   -2.3624 H   0  0  0  0  0  0  0  0  0  0  0  0
    1.7184    0.6028   -1.7389 H   0  0  0  0  0  0  0  0  0  0  0  0
    1.3096   -1.3624   -2.2075 O   0  0  0  0  0  0  0  0  0  0  0  0
    1.6218   -1.2940   -3.1258 H   0  0  0  0  0  0  0  0  0  0  0  0
    0.2805    1.1845    0.3307 C   0  0  0  0  0  0  0  0  0  0  0  0
   -0.6100    1.9550   -0.0113 O   0  0  0  0  0  0  0  0  0  0  0  0
    1.2273    1.6020    1.2479 N   0  0  0  0  0  0  0  0  0  0  0  0
    1.9139    0.9187    1.5566 H   0  0  0  0  0  0  0  0  0  0  0  0
    1.2007    2.9129    1.8845 C   0  0  0  0  0  0  0  0  0  0  0  0
    0.2709    3.0474    2.4472 H   0  0  0  0  0  0  0  0  0  0  0  0
    2.0416    3.0139    2.5773 H   0  0  0  0  0  0  0  0  0  0  0  0
    1.2761    3.7054    1.1325 H   0  0  0  0  0  0  0  0  0  0  0  0
  1  2  1  0  0  0  0
  2  3  1  0  0  0  0
  2  4  1  0  0  0  0
  2  5  1  0  0  0  0
  5  6  2  0  0  0  0
  5  7  1  0  0  0  0
  7  8  1  0  0  0  0
  7  9  1  0  0  0  0
  9 10  1  0  0  0  0
  9 11  1  0  0  0  0
  9 16  1  0  0  0  0
 11 12  1  0  0  0  0
 11 13  1  0  0  0  0
 11 14  1  0  0  0  0
 14 15  1  0  0  0  0
 16 17  2  0  0  0  0
 16 18  1  0  0  0  0
 18 19  1  0  0  0  0
 18 20  1  0  0  0  0
 20 21  1  0  0  0  0
 20 22  1  0  0  0  0
 20 23  1  0  0  0  0
M  END
$$$$

  -OEChem-02102214163D

 23 22  0     1  0  0  0  0  0999 V2000
   -2.6180   -3.7955    0.2667 H   0  0  0  0  0  0  0  0  0  0  0  0
   -2.6036   -2.7625   -0.0918 C   0  0  0  0  0  0  0  0  0  0  0  0
   -3.3534   -2.1880    0.4573 H   0  0  0  0  0  0  0  0  0  0  0  0
   -2.8539   -2.7560   -1.1554 H   0  0  0  0  0  0  0  0  0  0  0  0
   -1.2290   -2.1561    0.1187 C   0  0  0  0  0  0  0  0  0  0  0  0
   -0.3592   -2.8052    0.6785 O   0  0  0  0  0  0  0  0  0  0  0  0
   -0.9938   -0.8536   -0.2680 N   0  0  0  0  0  0  0  0  0  0  0  0
   -1.7599   -0.3502   -0.7069 H   0  0  0  0  0  0  0  0  0  0  0  0
    0.3334   -0.2126   -0.2716 C   0  0  1  0  0  0  0  0  0  0  0  0
    1.0467   -0.8079    0.3062 H   0  0  0  0  0  0  0  0  0  0  0  0
    0.8542   -0.0876   -1.7107 C   0  0  0  0  0  0  0  0  0  0  0  0
    0.1716    0.5349   -2.2992 H   0  0  0  0  0  0  0  0  0  0  0  0
    1.8341    0.4018   -1.7049 H   0  0  0  0  0  0  0  0  0  0  0  0
    0.9720   -1.3753   -2.3266 O   0  0  0  0  0  0  0  0  0  0  0  0
    1.3085   -1.2989   -3.2356 H   0  0  0  0  0  0  0  0  0  0  0  0
    0.2801    1.1970    0.3385 C   0  0  0  0  0  0  0  0  0  0  0  0
   -0.6025    1.9788    0.0020 O   0  0  0  0  0  0  0  0  0  0  0  0
    1.2413    1.6067    1.2446 N   0  0  0  0  0  0  0  0  0  0  0  0
    1.9107    0.9110    1.5628 H   0  0  0  0  0  0  0  0  0  0  0  0
    1.2251    2.9147    1.8882 C   0  0  0  0  0  0  0  0  0  0  0  0
    0.3195    3.0336    2.4923 H   0  0  0  0  0  0  0  0  0  0  0  0
    2.0951    3.0251    2.5427 H   0  0  0  0  0  0  0  0  0  0  0  0
    1.2560    3.7116    1.1377 H   0  0  0  0  0  0  0  0  0  0  0  0
  1  2  1  0  0  0  0
  2  3  1  0  0  0  0
  2  4  1  0  0  0  0
  2  5  1  0  0  0  0
  5  6  2  0  0  0  0
  5  7  1  0  0  0  0
  7  8  1  0  0  0  0
  7  9  1  0  0  0  0
  9 10  1  0  0  0  0
  9 11  1  0  0  0  0
  9 16  1  0  0  0  0
 11 12  1  0  0  0  0
 11 13  1  0  0  0  0
 11 14  1  0  0  0  0
 14 15  1  0  0  0  0
 16 17  2  0  0  0  0
 16 18  1  0  0  0  0
 18 19  1  0  0  0  0
 18 20  1  0  0  0  0
 20 21  1  0  0  0  0
 20 22  1  0  0  0  0
 20 23  1  0  0  0  0
M  END
$$$$

  -OEChem-02102214163D

 23 22  0     1  0  0  0  0  0999 V2000
   -2.5954   -3.8189    0.2393 H   0  0  0  0  0  0  0  0  0  0  0  0
   -2.5972   -2.7817   -0.1073 C   0  0  0  0  0  0  0  0  0  0  0  0
   -3.3674   -2.2292    0.4362 H   0  0  0  0  0  0  0  0  0  0  0  0
   -2.8311   -2.7682   -1.1745 H   0  0  0  0  0  0  0  0  0  0  0  0
   -1.2393   -2.1490    0.1327 C   0  0  0  0  0  0  0  0  0  0  0  0
   -0.3704   -2.7807    0.7143 O   0  0  0  0  0  0  0  0  0  0  0  0
   -1.0181   -0.8434   -0.2522 N   0  0  0  0  0  0  0  0  0  0  0  0
   -1.7701   -0.3734   -0.7479 H   0  0  0  0  0  0  0  0  0  0  0  0
    0.3072   -0.1974   -0.2653 C   0  0  1  0  0  0  0  0  0  0  0  0
    1.0167   -0.7966    0.3127 H   0  0  0  0  0  0  0  0  0  0  0  0
    0.8401   -0.0841   -1.7042 C   0  0  0  0  0  0  0  0  0  0  0  0
    0.3113    0.7186   -2.2299 H   0  0  0  0  0  0  0  0  0  0  0  0
    1.9035    0.1761   -1.6792 H   0  0  0  0  0  0  0  0  0  0  0  0
    0.6560   -1.3026   -2.4372 O   0  0  0  0  0  0  0  0  0  0  0  0
    1.0218   -1.2273   -3.3351 H   0  0  0  0  0  0  0  0  0  0  0  0
    0.2693    1.2116    0.3481 C   0  0  0  0  0  0  0  0  0  0  0  0
   -0.6053    2.0049    0.0188 O   0  0  0  0  0  0  0  0  0  0  0  0
    1.2458    1.6108    1.2424 N   0  0  0  0  0  0  0  0  0  0  0  0
    1.9049    0.9050    1.5597 H   0  0  0  0  0  0  0  0  0  0  0  0
    1.2529    2.9192    1.8856 C   0  0  0  0  0  0  0  0  0  0  0  0
    0.3527    3.0522    2.4950 H   0  0  0  0  0  0  0  0  0  0  0  0
    2.1285    3.0163    2.5348 H   0  0  0  0  0  0  0  0  0  0  0  0
    1.2913    3.7157    1.1348 H   0  0  0  0  0  0  0  0  0  0  0  0
  1  2  1  0  0  0  0
  2  3  1  0  0  0  0
  2  4  1  0  0  0  0
  2  5  1  0  0  0  0
  5  6  2  0  0  0  0
  5  7  1  0  0  0  0
  7  8  1  0  0  0  0
  7  9  1  0  0  0  0
  9 10  1  0  0  0  0
  9 11  1  0  0  0  0
  9 16  1  0  0  0  0
 11 12  1  0  0  0  0
 11 13  1  0  0  0  0
 11 14  1  0  0  0  0
 14 15  1  0  0  0  0
 16 17  2  0  0  0  0
 16 18  1  0  0  0  0
 18 19  1  0  0  0  0
 18 20  1  0  0  0  0
 20 21  1  0  0  0  0
 20 22  1  0  0  0  0
 20 23  1  0  0  0  0
M  END
$$$$

  -OEChem-02102214163D

 23 22  0     1  0  0  0  0  0999 V2000
   -2.5923   -3.8179    0.2510 H   0  0  0  0  0  0  0  0  0  0  0  0
   -2.5911   -2.7889   -0.1187 C   0  0  0  0  0  0  0  0  0  0  0  0
   -3.3816   -2.2308    0.3888 H   0  0  0  0  0  0  0  0  0  0  0  0
   -2.7925   -2.8003   -1.1925 H   0  0  0  0  0  0  0  0  0  0  0  0
   -1.2460   -2.1396    0.1466 C   0  0  0  0  0  0  0  0  0  0  0  0
   -0.3739   -2.7650    0.7309 O   0  0  0  0  0  0  0  0  0  0  0  0
   -1.0342   -0.8319   -0.2362 N   0  0  0  0  0  0  0  0  0  0  0  0
   -1.7712   -0.3902   -0.7783 H   0  0  0  0  0  0  0  0  0  0  0  0
    0.2908   -0.1853   -0.2623 C   0  0  1  0  0  0  0  0  0  0  0  0
    0.9980   -0.7859    0.3168 H   0  0  0  0  0  0  0  0  0  0  0  0
    0.8300   -0.0863   -1.7046 C   0  0  0  0  0  0  0  0  0  0  0  0
    0.5043    0.8576   -2.1553 H   0  0  0  0  0  0  0  0  0  0  0  0
    1.9246   -0.0818   -1.6813 H   0  0  0  0  0  0  0  0  0  0  0  0
    0.3642   -1.1554   -2.5421 O   0  0  0  0  0  0  0  0  0  0  0  0
    0.7434   -1.0862   -3.4351 H   0  0  0  0  0  0  0  0  0  0  0  0
    0.2645    1.2228    0.3564 C   0  0  0  0  0  0  0  0  0  0  0  0
   -0.6091    2.0219    0.0395 O   0  0  0  0  0  0  0  0  0  0  0  0
    1.2538    1.6170    1.2394 N   0  0  0  0  0  0  0  0  0  0  0  0
    1.9066    0.9053    1.5559 H   0  0  0  0  0  0  0  0  0  0  0  0
    1.2675    2.9213    1.8912 C   0  0  0  0  0  0  0  0  0  0  0  0
    0.3833    3.0422    2.5259 H   0  0  0  0  0  0  0  0  0  0  0  0
    2.1597    3.0218    2.5168 H   0  0  0  0  0  0  0  0  0  0  0  0
    1.2786    3.7234    1.1456 H   0  0  0  0  0  0  0  0  0  0  0  0
  1  2  1  0  0  0  0
  2  3  1  0  0  0  0
  2  4  1  0  0  0  0
  2  5  1  0  0  0  0
  5  6  2  0  0  0  0
  5  7  1  0  0  0  0
  7  8  1  0  0  0  0
  7  9  1  0  0  0  0
  9 10  1  0  0  0  0
  9 11  1  0  0  0  0
  9 16  1  0  0  0  0
 11 12  1  0  0  0  0
 11 13  1  0  0  0  0
 11 14  1  0  0  0  0
 14 15  1  0  0  0  0
 16 17  2  0  0  0  0
 16 18  1  0  0  0  0
 18 19  1  0  0  0  0
 18 20  1  0  0  0  0
 20 21  1  0  0  0  0
 20 22  1  0  0  0  0
 20 23  1  0  0  0  0
M  END
$$$$

  -OEChem-02102214163D

 23 22  0     1  0  0  0  0  0999 V2000
   -2.5809   -3.8250    0.2256 H   0  0  0  0  0  0  0  0  0  0  0  0
   -2.5880   -2.7888   -0.1237 C   0  0  0  0  0  0  0  0  0  0  0  0
   -3.3838   -2.2471    0.3930 H   0  0  0  0  0  0  0  0  0  0  0  0
   -2.7877   -2.7808   -1.1980 H   0  0  0  0  0  0  0  0  0  0  0  0
   -1.2489   -2.1333    0.1564 C   0  0  0  0  0  0  0  0  0  0  0  0
   -0.3734   -2.7588    0.7356 O   0  0  0  0  0  0  0  0  0  0  0  0
   -1.0392   -0.8257   -0.2252 N   0  0  0  0  0  0  0  0  0  0  0  0
   -1.7629   -0.4008   -0.7983 H   0  0  0  0  0  0  0  0  0  0  0  0
    0.2862   -0.1809   -0.2589 C   0  0  1  0  0  0  0  0  0  0  0  0
    0.9944   -0.7782    0.3229 H   0  0  0  0  0  0  0  0  0  0  0  0
    0.8266   -0.0886   -1.7050 C   0  0  0  0  0  0  0  0  0  0  0  0
    0.7498    0.9426   -2.0666 H   0  0  0  0  0  0  0  0  0  0  0  0
    1.8877   -0.3577   -1.7067 H   0  0  0  0  0  0  0  0  0  0  0  0
    0.1161   -0.9313   -2.6275 O   0  0  0  0  0  0  0  0  0  0  0  0
    0.4988   -0.8664   -3.5196 H   0  0  0  0  0  0  0  0  0  0  0  0
    0.2596    1.2260    0.3641 C   0  0  0  0  0  0  0  0  0  0  0  0
   -0.6156    2.0261    0.0540 O   0  0  0  0  0  0  0  0  0  0  0  0
    1.2528    1.6194    1.2433 N   0  0  0  0  0  0  0  0  0  0  0  0
    1.9125    0.9102    1.5510 H   0  0  0  0  0  0  0  0  0  0  0  0
    1.2702    2.9243    1.8937 C   0  0  0  0  0  0  0  0  0  0  0  0
    0.3857    3.0488    2.5273 H   0  0  0  0  0  0  0  0  0  0  0  0
    2.1621    3.0228    2.5199 H   0  0  0  0  0  0  0  0  0  0  0  0
    1.2848    3.7250    1.1467 H   0  0  0  0  0  0  0  0  0  0  0  0
  1  2  1  0  0  0  0
  2  3  1  0  0  0  0
  2  4  1  0  0  0  0
  2  5  1  0  0  0  0
  5  6  2  0  0  0  0
  5  7  1  0  0  0  0
  7  8  1  0  0  0  0
  7  9  1  0  0  0  0
  9 10  1  0  0  0  0
  9 11  1  0  0  0  0
  9 16  1  0  0  0  0
 11 12  1  0  0  0  0
 11 13  1  0  0  0  0
 11 14  1  0  0  0  0
 14 15  1  0  0  0  0
 16 17  2  0  0  0  0
 16 18  1  0  0  0  0
 18 19  1  0  0  0  0
 18 20  1  0  0  0  0
 20 21  1  0  0  0  0
 20 22  1  0  0  0  0
 20 23  1  0  0  0  0
M  END
$$$$

  -OEChem-02102214163D

 23 22  0     1  0  0  0  0  0999 V2000
   -2.5862   -3.8109    0.2479 H   0  0  0  0  0  0  0  0  0  0  0  0
   -2.5856   -2.7803   -0.1176 C   0  0  0  0  0  0  0  0  0  0  0  0
   -3.3812   -2.2265    0.3864 H   0  0  0  0  0  0  0  0  0  0  0  0
   -2.7799   -2.7879   -1.1928 H   0  0  0  0  0  0  0  0  0  0  0  0
   -1.2448   -2.1276    0.1599 C   0  0  0  0  0  0  0  0  0  0  0  0
   -0.3670   -2.7563    0.7320 O   0  0  0  0  0  0  0  0  0  0  0  0
   -1.0299   -0.8225   -0.2255 N   0  0  0  0  0  0  0  0  0  0  0  0
   -1.7392   -0.4060   -0.8234 H   0  0  0  0  0  0  0  0  0  0  0  0
    0.2982   -0.1851   -0.2606 C   0  0  1  0  0  0  0  0  0  0  0  0
    1.0106   -0.7762    0.3220 H   0  0  0  0  0  0  0  0  0  0  0  0
    0.8299   -0.0895   -1.7109 C   0  0  0  0  0  0  0  0  0  0  0  0
    1.0364    0.9542   -1.9723 H   0  0  0  0  0  0  0  0  0  0  0  0
    1.7787   -0.6328   -1.7714 H   0  0  0  0  0  0  0  0  0  0  0  0
   -0.0778   -0.6352   -2.6842 O   0  0  0  0  0  0  0  0  0  0  0  0
    0.2927   -0.5591   -3.5807 H   0  0  0  0  0  0  0  0  0  0  0  0
    0.2634    1.2230    0.3615 C   0  0  0  0  0  0  0  0  0  0  0  0
   -0.6119    2.0220    0.0490 O   0  0  0  0  0  0  0  0  0  0  0  0
    1.2523    1.6193    1.2447 N   0  0  0  0  0  0  0  0  0  0  0  0
    1.9088    0.9104    1.5594 H   0  0  0  0  0  0  0  0  0  0  0  0
    1.2587    2.9213    1.9009 C   0  0  0  0  0  0  0  0  0  0  0  0
    0.3729    3.0354    2.5345 H   0  0  0  0  0  0  0  0  0  0  0  0
    2.1494    3.0243    2.5281 H   0  0  0  0  0  0  0  0  0  0  0  0
    1.2667    3.7258    1.1578 H   0  0  0  0  0  0  0  0  0  0  0  0
  1  2  1  0  0  0  0
  2  3  1  0  0  0  0
  2  4  1  0  0  0  0
  2  5  1  0  0  0  0
  5  6  2  0  0  0  0
  5  7  1  0  0  0  0
  7  8  1  0  0  0  0
  7  9  1  0  0  0  0
  9 10  1  0  0  0  0
  9 11  1  0  0  0  0
  9 16  1  0  0  0  0
 11 12  1  0  0  0  0
 11 13  1  0  0  0  0
 11 14  1  0  0  0  0
 14 15  1  0  0  0  0
 16 17  2  0  0  0  0
 16 18  1  0  0  0  0
 18 19  1  0  0  0  0
 18 20  1  0  0  0  0
 20 21  1  0  0  0  0
 20 22  1  0  0  0  0
 20 23  1  0  0  0  0
M  END
$$$$

  -OEChem-02102214163D

 23 22  0     1  0  0  0  0  0999 V2000
   -2.5828   -3.8113    0.2204 H   0  0  0  0  0  0  0  0  0  0  0  0
   -2.5885   -2.7692   -0.1107 C   0  0  0  0  0  0  0  0  0  0  0  0
   -3.3669   -2.2296    0.4342 H   0  0  0  0  0  0  0  0  0  0  0  0
   -2.8143   -2.7401   -1.1794 H   0  0  0  0  0  0  0  0  0  0  0  0
   -1.2378   -2.1299    0.1503 C   0  0  0  0  0  0  0  0  0  0  0  0
   -0.3560   -2.7681    0.7051 O   0  0  0  0  0  0  0  0  0  0  0  0
   -1.0135   -0.8276   -0.2367 N   0  0  0  0  0  0  0  0  0  0  0  0
   -1.7208   -0.3993   -0.8300 H   0  0  0  0  0  0  0  0  0  0  0  0
    0.3139   -0.1906   -0.2613 C   0  0  1  0  0  0  0  0  0  0  0  0
    1.0285   -0.7739    0.3266 H   0  0  0  0  0  0  0  0  0  0  0  0
    0.8415   -0.0942   -1.7101 C   0  0  0  0  0  0  0  0  0  0  0  0
    1.3125    0.8801   -1.8816 H   0  0  0  0  0  0  0  0  0  0  0  0
    1.6140   -0.8578   -1.8478 H   0  0  0  0  0  0  0  0  0  0  0  0
   -0.1848   -0.3106   -2.6947 O   0  0  0  0  0  0  0  0  0  0  0  0
    0.1754   -0.2161   -3.5935 H   0  0  0  0  0  0  0  0  0  0  0  0
    0.2676    1.2193    0.3559 C   0  0  0  0  0  0  0  0  0  0  0  0
   -0.6114    2.0139    0.0429 O   0  0  0  0  0  0  0  0  0  0  0  0
    1.2468    1.6187    1.2484 N   0  0  0  0  0  0  0  0  0  0  0  0
    1.9086    0.9148    1.5629 H   0  0  0  0  0  0  0  0  0  0  0  0
    1.2442    2.9217    1.9021 C   0  0  0  0  0  0  0  0  0  0  0  0
    0.3463    3.0400    2.5178 H   0  0  0  0  0  0  0  0  0  0  0  0
    2.1225    3.0229    2.5469 H   0  0  0  0  0  0  0  0  0  0  0  0
    1.2694    3.7244    1.1574 H   0  0  0  0  0  0  0  0  0  0  0  0
  1  2  1  0  0  0  0
  2  3  1  0  0  0  0
  2  4  1  0  0  0  0
  2  5  1  0  0  0  0
  5  6  2  0  0  0  0
  5  7  1  0  0  0  0
  7  8  1  0  0  0  0
  7  9  1  0  0  0  0
  9 10  1  0  0  0  0
  9 11  1  0  0  0  0
  9 16  1  0  0  0  0
 11 12  1  0  0  0  0
 11 13  1  0  0  0  0
 11 14  1  0  0  0  0
 14 15  1  0  0  0  0
 16 17  2  0  0  0  0
 16 18  1  0  0  0  0
 18 19  1  0  0  0  0
 18 20  1  0  0  0  0
 20 21  1  0  0  0  0
 20 22  1  0  0  0  0
 20 23  1  0  0  0  0
M  END
$$$$

  -OEChem-02102214163D

 23 22  0     1  0  0  0  0  0999 V2000
   -2.5922   -3.7989    0.2179 H   0  0  0  0  0  0  0  0  0  0  0  0
   -2.5960   -2.7522   -0.0985 C   0  0  0  0  0  0  0  0  0  0  0  0
   -3.3490   -2.2109    0.4793 H   0  0  0  0  0  0  0  0  0  0  0  0
   -2.8568   -2.7054   -1.1584 H   0  0  0  0  0  0  0  0  0  0  0  0
   -1.2295   -2.1331    0.1253 C   0  0  0  0  0  0  0  0  0  0  0  0
   -0.3374   -2.7897    0.6407 O   0  0  0  0  0  0  0  0  0  0  0  0
   -0.9964   -0.8318   -0.2597 N   0  0  0  0  0  0  0  0  0  0  0  0
   -1.7220   -0.3680   -0.8029 H   0  0  0  0  0  0  0  0  0  0  0  0
    0.3278   -0.1896   -0.2705 C   0  0  1  0  0  0  0  0  0  0  0  0
    1.0379   -0.7688    0.3266 H   0  0  0  0  0  0  0  0  0  0  0  0
    0.8619   -0.1076   -1.7128 C   0  0  0  0  0  0  0  0  0  0  0  0
    1.5531    0.7362   -1.8128 H   0  0  0  0  0  0  0  0  0  0  0  0
    1.4253   -1.0217   -1.9267 H   0  0  0  0  0  0  0  0  0  0  0  0
   -0.1947    0.0061   -2.6806 O   0  0  0  0  0  0  0  0  0  0  0  0
    0.1675    0.1072   -3.5778 H   0  0  0  0  0  0  0  0  0  0  0  0
    0.2745    1.2227    0.3424 C   0  0  0  0  0  0  0  0  0  0  0  0
   -0.6242    2.0042    0.0534 O   0  0  0  0  0  0  0  0  0  0  0  0
    1.2458    1.6243    1.2431 N   0  0  0  0  0  0  0  0  0  0  0  0
    1.9237    0.9292    1.5422 H   0  0  0  0  0  0  0  0  0  0  0  0
    1.2254    2.9197    1.9120 C   0  0  0  0  0  0  0  0  0  0  0  0
    0.3219    3.0223    2.5223 H   0  0  0  0  0  0  0  0  0  0  0  0
    2.0977    3.0224    2.5647 H   0  0  0  0  0  0  0  0  0  0  0  0
    1.2480    3.7308    1.1766 H   0  0  0  0  0  0  0  0  0  0  0  0
  1  2  1  0  0  0  0
  2  3  1  0  0  0  0
  2  4  1  0  0  0  0
  2  5  1  0  0  0  0
  5  6  2  0  0  0  0
  5  7  1  0  0  0  0
  7  8  1  0  0  0  0
  7  9  1  0  0  0  0
  9 10  1  0  0  0  0
  9 11  1  0  0  0  0
  9 16  1  0  0  0  0
 11 12  1  0  0  0  0
 11 13  1  0  0  0  0
 11 14  1  0  0  0  0
 14 15  1  0  0  0  0
 16 17  2  0  0  0  0
 16 18  1  0  0  0  0
 18 19  1  0  0  0  0
 18 20  1  0  0  0  0
 20 21  1  0  0  0  0
 20 22  1  0  0  0  0
 20 23  1  0  0  0  0
M  END
$$$$

  -OEChem-02102214163D

 23 22  0     1  0  0  0  0  0999 V2000
   -2.6088   -3.7744    0.2357 H   0  0  0  0  0  0  0  0  0  0  0  0
   -2.6066   -2.7272   -0.0792 C   0  0  0  0  0  0  0  0  0  0  0  0
   -3.3226   -2.1731    0.5326 H   0  0  0  0  0  0  0  0  0  0  0  0
   -2.9139   -2.6732   -1.1264 H   0  0  0  0  0  0  0  0  0  0  0  0
   -1.2195   -2.1353    0.0843 C   0  0  0  0  0  0  0  0  0  0  0  0
   -0.3133   -2.8144    0.5423 O   0  0  0  0  0  0  0  0  0  0  0  0
   -0.9814   -0.8330   -0.2937 N   0  0  0  0  0  0  0  0  0  0  0  0
   -1.7369   -0.3228   -0.7473 H   0  0  0  0  0  0  0  0  0  0  0  0
    0.3368   -0.1801   -0.2880 C   0  0  1  0  0  0  0  0  0  0  0  0
    1.0362   -0.7575    0.3233 H   0  0  0  0  0  0  0  0  0  0  0  0
    0.8920   -0.1243   -1.7184 C   0  0  0  0  0  0  0  0  0  0  0  0
    1.7533    0.5507   -1.7570 H   0  0  0  0  0  0  0  0  0  0  0  0
    1.2390   -1.1235   -2.0015 H   0  0  0  0  0  0  0  0  0  0  0  0
   -0.1049    0.3007   -2.6590 O   0  0  0  0  0  0  0  0  0  0  0  0
    0.2686    0.3715   -3.5542 H   0  0  0  0  0  0  0  0  0  0  0  0
    0.2778    1.2326    0.3239 C   0  0  0  0  0  0  0  0  0  0  0  0
   -0.6553    1.9899    0.0825 O   0  0  0  0  0  0  0  0  0  0  0  0
    1.2432    1.6328    1.2319 N   0  0  0  0  0  0  0  0  0  0  0  0
    1.9430    0.9489    1.5047 H   0  0  0  0  0  0  0  0  0  0  0  0
    1.2017    2.9123    1.9298 C   0  0  0  0  0  0  0  0  0  0  0  0
    0.3076    2.9772    2.5586 H   0  0  0  0  0  0  0  0  0  0  0  0
    2.0833    3.0237    2.5683 H   0  0  0  0  0  0  0  0  0  0  0  0
    1.1894    3.7401    1.2127 H   0  0  0  0  0  0  0  0  0  0  0  0
  1  2  1  0  0  0  0
  2  3  1  0  0  0  0
  2  4  1  0  0  0  0
  2  5  1  0  0  0  0
  5  6  2  0  0  0  0
  5  7  1  0  0  0  0
  7  8  1  0  0  0  0
  7  9  1  0  0  0  0
  9 10  1  0  0  0  0
  9 11  1  0  0  0  0
  9 16  1  0  0  0  0
 11 12  1  0  0  0  0
 11 13  1  0  0  0  0
 11 14  1  0  0  0  0
 14 15  1  0  0  0  0
 16 17  2  0  0  0  0
 16 18  1  0  0  0  0
 18 19  1  0  0  0  0
 18 20  1  0  0  0  0
 20 21  1  0  0  0  0
 20 22  1  0  0  0  0
 20 23  1  0  0  0  0
M  END
$$$$

  -OEChem-02102214163D

 23 22  0     1  0  0  0  0  0999 V2000
   -2.6225   -3.7487    0.2543 H   0  0  0  0  0  0  0  0  0  0  0  0
   -2.6178   -2.6981   -0.0492 C   0  0  0  0  0  0  0  0  0  0  0  0
   -3.2875   -2.1380    0.6078 H   0  0  0  0  0  0  0  0  0  0  0  0
   -2.9824   -2.6265   -1.0767 H   0  0  0  0  0  0  0  0  0  0  0  0
   -1.2127   -2.1339    0.0412 C   0  0  0  0  0  0  0  0  0  0  0  0
   -0.2939   -2.8363    0.4337 O   0  0  0  0  0  0  0  0  0  0  0  0
   -0.9726   -0.8296   -0.3293 N   0  0  0  0  0  0  0  0  0  0  0  0
   -1.7563   -0.2759   -0.6706 H   0  0  0  0  0  0  0  0  0  0  0  0
    0.3420   -0.1693   -0.3120 C   0  0  1  0  0  0  0  0  0  0  0  0
    1.0257   -0.7488    0.3154 H   0  0  0  0  0  0  0  0  0  0  0  0
    0.9289   -0.1405   -1.7287 C   0  0  0  0  0  0  0  0  0  0  0  0
    1.9162    0.3324   -1.7045 H   0  0  0  0  0  0  0  0  0  0  0  0
    1.0595   -1.1674   -2.0858 H   0  0  0  0  0  0  0  0  0  0  0  0
    0.0808    0.5725   -2.6369 O   0  0  0  0  0  0  0  0  0  0  0  0
    0.4630    0.5916   -3.5309 H   0  0  0  0  0  0  0  0  0  0  0  0
    0.2776    1.2423    0.3031 C   0  0  0  0  0  0  0  0  0  0  0  0
   -0.6960    1.9658    0.1233 O   0  0  0  0  0  0  0  0  0  0  0  0
    1.2387    1.6412    1.2164 N   0  0  0  0  0  0  0  0  0  0  0  0
    1.9717    0.9775    1.4483 H   0  0  0  0  0  0  0  0  0  0  0  0
    1.1702    2.8990    1.9509 C   0  0  0  0  0  0  0  0  0  0  0  0
    0.2865    2.9179    2.5973 H   0  0  0  0  0  0  0  0  0  0  0  0
    2.0597    3.0210    2.5764 H   0  0  0  0  0  0  0  0  0  0  0  0
    1.1183    3.7455    1.2580 H   0  0  0  0  0  0  0  0  0  0  0  0
  1  2  1  0  0  0  0
  2  3  1  0  0  0  0
  2  4  1  0  0  0  0
  2  5  1  0  0  0  0
  5  6  2  0  0  0  0
  5  7  1  0  0  0  0
  7  8  1  0  0  0  0
  7  9  1  0  0  0  0
  9 10  1  0  0  0  0
  9 11  1  0  0  0  0
  9 16  1  0  0  0  0
 11 12  1  0  0  0  0
 11 13  1  0  0  0  0
 11 14  1  0  0  0  0
 14 15  1  0  0  0  0
 16 17  2  0  0  0  0
 16 18  1  0  0  0  0
 18 19  1  0  0  0  0
 18 20  1  0  0  0  0
 20 21  1  0  0  0  0
 20 22  1  0  0  0  0
 20 23  1  0  0  0  0
M  END
$$$$

  -OEChem-02102214163D

 23 22  0     1  0  0  0  0  0999 V2000
   -2.6304   -3.7222    0.2866 H   0  0  0  0  0  0  0  0  0  0  0  0
   -2.6258   -2.6705   -0.0130 C   0  0  0  0  0  0  0  0  0  0  0  0
   -3.2455   -2.1022    0.6850 H   0  0  0  0  0  0  0  0  0  0  0  0
   -3.0500   -2.5884   -1.0167 H   0  0  0  0  0  0  0  0  0  0  0  0
   -1.2083   -2.1302   -0.0042 C   0  0  0  0  0  0  0  0  0  0  0  0
   -0.2783   -2.8541    0.3155 O   0  0  0  0  0  0  0  0  0  0  0  0
   -0.9699   -0.8228   -0.3660 N   0  0  0  0  0  0  0  0  0  0  0  0
   -1.7712   -0.2357   -0.5919 H   0  0  0  0  0  0  0  0  0  0  0  0
    0.3435   -0.1597   -0.3381 C   0  0  1  0  0  0  0  0  0  0  0  0
    1.0100   -0.7419    0.3049 H   0  0  0  0  0  0  0  0  0  0  0  0
    0.9664   -0.1539   -1.7402 C   0  0  0  0  0  0  0  0  0  0  0  0
    2.0315    0.0853   -1.6568 H   0  0  0  0  0  0  0  0  0  0  0  0
    0.8844   -1.1532   -2.1807 H   0  0  0  0  0  0  0  0  0  0  0  0
    0.3435    0.8067   -2.5986 O   0  0  0  0  0  0  0  0  0  0  0  0
    0.7278    0.7799   -3.4916 H   0  0  0  0  0  0  0  0  0  0  0  0
    0.2710    1.2484    0.2856 C   0  0  0  0  0  0  0  0  0  0  0  0
   -0.7362    1.9374    0.1573 O   0  0  0  0  0  0  0  0  0  0  0  0
    1.2261    1.6452    1.2062 N   0  0  0  0  0  0  0  0  0  0  0  0
    1.9965    1.0096    1.3899 H   0  0  0  0  0  0  0  0  0  0  0  0
    1.1356    2.8827    1.9721 C   0  0  0  0  0  0  0  0  0  0  0  0
    0.2592    2.8640    2.6284 H   0  0  0  0  0  0  0  0  0  0  0  0
    2.0291    3.0110    2.5906 H   0  0  0  0  0  0  0  0  0  0  0  0
    1.0551    3.7443    1.3008 H   0  0  0  0  0  0  0  0  0  0  0  0
  1  2  1  0  0  0  0
  2  3  1  0  0  0  0
  2  4  1  0  0  0  0
  2  5  1  0  0  0  0
  5  6  2  0  0  0  0
  5  7  1  0  0  0  0
  7  8  1  0  0  0  0
  7  9  1  0  0  0  0
  9 10  1  0  0  0  0
  9 11  1  0  0  0  0
  9 16  1  0  0  0  0
 11 12  1  0  0  0  0
 11 13  1  0  0  0  0
 11 14  1  0  0  0  0
 14 15  1  0  0  0  0
 16 17  2  0  0  0  0
 16 18  1  0  0  0  0
 18 19  1  0  0  0  0
 18 20  1  0  0  0  0
 20 21  1  0  0  0  0
 20 22  1  0  0  0  0
 20 23  1  0  0  0  0
M  END
$$$$

  -OEChem-02102214163D

 23 22  0     1  0  0  0  0  0999 V2000
   -2.6340   -3.7040    0.3047 H   0  0  0  0  0  0  0  0  0  0  0  0
   -2.6290   -2.6500    0.0135 C   0  0  0  0  0  0  0  0  0  0  0  0
   -3.2121   -2.0807    0.7414 H   0  0  0  0  0  0  0  0  0  0  0  0
   -3.0937   -2.5540   -0.9708 H   0  0  0  0  0  0  0  0  0  0  0  0
   -1.2057   -2.1272   -0.0331 C   0  0  0  0  0  0  0  0  0  0  0  0
   -0.2719   -2.8647    0.2411 O   0  0  0  0  0  0  0  0  0  0  0  0
   -0.9673   -0.8180   -0.3893 N   0  0  0  0  0  0  0  0  0  0  0  0
   -1.7736   -0.2126   -0.5373 H   0  0  0  0  0  0  0  0  0  0  0  0
    0.3484   -0.1579   -0.3549 C   0  0  1  0  0  0  0  0  0  0  0  0
    1.0024   -0.7435    0.2980 H   0  0  0  0  0  0  0  0  0  0  0  0
    0.9947   -0.1637   -1.7497 C   0  0  0  0  0  0  0  0  0  0  0  0
    2.0830   -0.1844   -1.6329 H   0  0  0  0  0  0  0  0  0  0  0  0
    0.7047   -1.0722   -2.2883 H   0  0  0  0  0  0  0  0  0  0  0  0
    0.6481    0.9916   -2.5193 O   0  0  0  0  0  0  0  0  0  0  0  0
    1.0194    0.9389   -3.4168 H   0  0  0  0  0  0  0  0  0  0  0  0
    0.2669    1.2467    0.2765 C   0  0  0  0  0  0  0  0  0  0  0  0
   -0.7597    1.9118    0.1712 O   0  0  0  0  0  0  0  0  0  0  0  0
    1.2144    1.6442    1.2045 N   0  0  0  0  0  0  0  0  0  0  0  0
    2.0106    1.0327    1.3571 H   0  0  0  0  0  0  0  0  0  0  0  0
    1.1062    2.8710    1.9848 C   0  0  0  0  0  0  0  0  0  0  0  0
    0.2284    2.8333    2.6383 H   0  0  0  0  0  0  0  0  0  0  0  0
    1.9961    3.0028    2.6076 H   0  0  0  0  0  0  0  0  0  0  0  0
    1.0162    3.7391    1.3233 H   0  0  0  0  0  0  0  0  0  0  0  0
  1  2  1  0  0  0  0
  2  3  1  0  0  0  0
  2  4  1  0  0  0  0
  2  5  1  0  0  0  0
  5  6  2  0  0  0  0
  5  7  1  0  0  0  0
  7  8  1  0  0  0  0
  7  9  1  0  0  0  0
  9 10  1  0  0  0  0
  9 11  1  0  0  0  0
  9 16  1  0  0  0  0
 11 12  1  0  0  0  0
 11 13  1  0  0  0  0
 11 14  1  0  0  0  0
 14 15  1  0  0  0  0
 16 17  2  0  0  0  0
 16 18  1  0  0  0  0
 18 19  1  0  0  0  0
 18 20  1  0  0  0  0
 20 21  1  0  0  0  0
 20 22  1  0  0  0  0
 20 23  1  0  0  0  0
M  END
$$$$

  -OEChem-02102214163D

 23 22  0     1  0  0  0  0  0999 V2000
   -2.6333   -3.6939    0.3266 H   0  0  0  0  0  0  0  0  0  0  0  0
   -2.6285   -2.6407    0.0324 C   0  0  0  0  0  0  0  0  0  0  0  0
   -3.1870   -2.0648    0.7744 H   0  0  0  0  0  0  0  0  0  0  0  0
   -3.1193   -2.5437   -0.9389 H   0  0  0  0  0  0  0  0  0  0  0  0
   -1.2031   -2.1291   -0.0543 C   0  0  0  0  0  0  0  0  0  0  0  0
   -0.2676   -2.8773    0.1813 O   0  0  0  0  0  0  0  0  0  0  0  0
   -0.9640   -0.8180   -0.4042 N   0  0  0  0  0  0  0  0  0  0  0  0
   -1.7701   -0.2010   -0.4969 H   0  0  0  0  0  0  0  0  0  0  0  0
    0.3552   -0.1641   -0.3619 C   0  0  1  0  0  0  0  0  0  0  0  0
    1.0033   -0.7507    0.2960 H   0  0  0  0  0  0  0  0  0  0  0  0
    1.0133   -0.1682   -1.7543 C   0  0  0  0  0  0  0  0  0  0  0  0
    2.0610   -0.4668   -1.6456 H   0  0  0  0  0  0  0  0  0  0  0  0
    0.5273   -0.9141   -2.3924 H   0  0  0  0  0  0  0  0  0  0  0  0
    0.9759    1.1106   -2.3957 O   0  0  0  0  0  0  0  0  0  0  0  0
    1.3298    1.0577   -3.3004 H   0  0  0  0  0  0  0  0  0  0  0  0
    0.2599    1.2356    0.2793 C   0  0  0  0  0  0  0  0  0  0  0  0
   -0.7767    1.8864    0.1768 O   0  0  0  0  0  0  0  0  0  0  0  0
    1.1965    1.6334    1.2178 N   0  0  0  0  0  0  0  0  0  0  0  0
    2.0234    1.0553    1.3313 H   0  0  0  0  0  0  0  0  0  0  0  0
    1.0859    2.8668    1.9865 C   0  0  0  0  0  0  0  0  0  0  0  0
    0.1731    2.8606    2.5915 H   0  0  0  0  0  0  0  0  0  0  0  0
    1.9436    2.9724    2.6576 H   0  0  0  0  0  0  0  0  0  0  0  0
    1.0605    3.7335    1.3177 H   0  0  0  0  0  0  0  0  0  0  0  0
  1  2  1  0  0  0  0
  2  3  1  0  0  0  0
  2  4  1  0  0  0  0
  2  5  1  0  0  0  0
  5  6  2  0  0  0  0
  5  7  1  0  0  0  0
  7  8  1  0  0  0  0
  7  9  1  0  0  0  0
  9 10  1  0  0  0  0
  9 11  1  0  0  0  0
  9 16  1  0  0  0  0
 11 12  1  0  0  0  0
 11 13  1  0  0  0  0
 11 14  1  0  0  0  0
 14 15  1  0  0  0  0
 16 17  2  0  0  0  0
 16 18  1  0  0  0  0
 18 19  1  0  0  0  0
 18 20  1  0  0  0  0
 20 21  1  0  0  0  0
 20 22  1  0  0  0  0
 20 23  1  0  0  0  0
M  END
$$$$

  -OEChem-02102214163D

 23 22  0     1  0  0  0  0  0999 V2000
   -2.6432   -3.6793    0.3510 H   0  0  0  0  0  0  0  0  0  0  0  0
   -2.6300   -2.6285    0.0484 C   0  0  0  0  0  0  0  0  0  0  0  0
   -3.1685   -2.0402    0.7955 H   0  0  0  0  0  0  0  0  0  0  0  0
   -3.1363   -2.5322   -0.9150 H   0  0  0  0  0  0  0  0  0  0  0  0
   -1.1998   -2.1361   -0.0668 C   0  0  0  0  0  0  0  0  0  0  0  0
   -0.2698   -2.8968    0.1490 O   0  0  0  0  0  0  0  0  0  0  0  0
   -0.9506   -0.8264   -0.4139 N   0  0  0  0  0  0  0  0  0  0  0  0
   -1.7504   -0.1966   -0.4728 H   0  0  0  0  0  0  0  0  0  0  0  0
    0.3759   -0.1873   -0.3616 C   0  0  1  0  0  0  0  0  0  0  0  0
    1.0268   -0.7733    0.2946 H   0  0  0  0  0  0  0  0  0  0  0  0
    1.0301   -0.1707   -1.7579 C   0  0  0  0  0  0  0  0  0  0  0  0
    1.9608   -0.7459   -1.7197 H   0  0  0  0  0  0  0  0  0  0  0  0
    0.3716   -0.6677   -2.4784 H   0  0  0  0  0  0  0  0  0  0  0  0
    1.3203    1.1484   -2.2331 O   0  0  0  0  0  0  0  0  0  0  0  0
    1.6496    1.1227   -3.1485 H   0  0  0  0  0  0  0  0  0  0  0  0
    0.2587    1.2087    0.2863 C   0  0  0  0  0  0  0  0  0  0  0  0
   -0.7787    1.8549    0.1581 O   0  0  0  0  0  0  0  0  0  0  0  0
    1.1753    1.6120    1.2417 N   0  0  0  0  0  0  0  0  0  0  0  0
    2.0244    1.0629    1.3337 H   0  0  0  0  0  0  0  0  0  0  0  0
    1.0637    2.8658    1.9766 C   0  0  0  0  0  0  0  0  0  0  0  0
    0.1281    2.8954    2.5449 H   0  0  0  0  0  0  0  0  0  0  0  0
    1.8962    2.9676    2.6792 H   0  0  0  0  0  0  0  0  0  0  0  0
    1.0855    3.7167    1.2877 H   0  0  0  0  0  0  0  0  0  0  0  0
  1  2  1  0  0  0  0
  2  3  1  0  0  0  0
  2  4  1  0  0  0  0
  2  5  1  0  0  0  0
  5  6  2  0  0  0  0
  5  7  1  0  0  0  0
  7  8  1  0  0  0  0
  7  9  1  0  0  0  0
  9 10  1  0  0  0  0
  9 11  1  0  0  0  0
  9 16  1  0  0  0  0
 11 12  1  0  0  0  0
 11 13  1  0  0  0  0
 11 14  1  0  0  0  0
 14 15  1  0  0  0  0
 16 17  2  0  0  0  0
 16 18  1  0  0  0  0
 18 19  1  0  0  0  0
 18 20  1  0  0  0  0
 20 21  1  0  0  0  0
 20 22  1  0  0  0  0
 20 23  1  0  0  0  0
M  END
$$$$

  -OEChem-02102214163D

 23 22  0     1  0  0  0  0  0999 V2000
   -2.6528   -3.6794    0.3548 H   0  0  0  0  0  0  0  0  0  0  0  0
   -2.6329   -2.6292    0.0500 C   0  0  0  0  0  0  0  0  0  0  0  0
   -3.1690   -2.0362    0.7949 H   0  0  0  0  0  0  0  0  0  0  0  0
   -3.1371   -2.5325   -0.9145 H   0  0  0  0  0  0  0  0  0  0  0  0
   -1.1995   -2.1456   -0.0631 C   0  0  0  0  0  0  0  0  0  0  0  0
   -0.2753   -2.9121    0.1564 O   0  0  0  0  0  0  0  0  0  0  0  0
   -0.9395   -0.8386   -0.4131 N   0  0  0  0  0  0  0  0  0  0  0  0
   -1.7341   -0.2016   -0.4665 H   0  0  0  0  0  0  0  0  0  0  0  0
    0.3935   -0.2131   -0.3519 C   0  0  1  0  0  0  0  0  0  0  0  0
    1.0514   -0.7974    0.2985 H   0  0  0  0  0  0  0  0  0  0  0  0
    1.0322   -0.1717   -1.7534 C   0  0  0  0  0  0  0  0  0  0  0  0
    1.7768   -0.9704   -1.8335 H   0  0  0  0  0  0  0  0  0  0  0  0
    0.2619   -0.3659   -2.5075 H   0  0  0  0  0  0  0  0  0  0  0  0
    1.6398    1.0891   -2.0581 O   0  0  0  0  0  0  0  0  0  0  0  0
    1.9504    1.1084   -2.9804 H   0  0  0  0  0  0  0  0  0  0  0  0
    0.2636    1.1834    0.2936 C   0  0  0  0  0  0  0  0  0  0  0  0
   -0.7634    1.8373    0.1255 O   0  0  0  0  0  0  0  0  0  0  0  0
    1.1631    1.5941    1.2619 N   0  0  0  0  0  0  0  0  0  0  0  0
    2.0218    1.0590    1.3497 H   0  0  0  0  0  0  0  0  0  0  0  0
    1.0581    2.8711    1.9570 C   0  0  0  0  0  0  0  0  0  0  0  0
    0.1039    2.9414    2.4897 H   0  0  0  0  0  0  0  0  0  0  0  0
    1.8668    2.9714    2.6871 H   0  0  0  0  0  0  0  0  0  0  0  0
    1.1276    3.7007    1.2456 H   0  0  0  0  0  0  0  0  0  0  0  0
  1  2  1  0  0  0  0
  2  3  1  0  0  0  0
  2  4  1  0  0  0  0
  2  5  1  0  0  0  0
  5  6  2  0  0  0  0
  5  7  1  0  0  0  0
  7  8  1  0  0  0  0
  7  9  1  0  0  0  0
  9 10  1  0  0  0  0
  9 11  1  0  0  0  0
  9 16  1  0  0  0  0
 11 12  1  0  0  0  0
 11 13  1  0  0  0  0
 11 14  1  0  0  0  0
 14 15  1  0  0  0  0
 16 17  2  0  0  0  0
 16 18  1  0  0  0  0
 18 19  1  0  0  0  0
 18 20  1  0  0  0  0
 20 21  1  0  0  0  0
 20 22  1  0  0  0  0
 20 23  1  0  0  0  0
M  END
$$$$

  -OEChem-02102214163D

 23 22  0     1  0  0  0  0  0999 V2000
   -2.6629   -3.6859    0.3544 H   0  0  0  0  0  0  0  0  0  0  0  0
   -2.6372   -2.6362    0.0485 C   0  0  0  0  0  0  0  0  0  0  0  0
   -3.1770   -2.0407    0.7887 H   0  0  0  0  0  0  0  0  0  0  0  0
   -3.1339   -2.5393   -0.9198 H   0  0  0  0  0  0  0  0  0  0  0  0
   -1.2015   -2.1575   -0.0549 C   0  0  0  0  0  0  0  0  0  0  0  0
   -0.2819   -2.9262    0.1747 O   0  0  0  0  0  0  0  0  0  0  0  0
   -0.9353   -0.8528   -0.4091 N   0  0  0  0  0  0  0  0  0  0  0  0
   -1.7279   -0.2140   -0.4689 H   0  0  0  0  0  0  0  0  0  0  0  0
    0.3997   -0.2324   -0.3432 C   0  0  1  0  0  0  0  0  0  0  0  0
    1.0648   -0.8175    0.2994 H   0  0  0  0  0  0  0  0  0  0  0  0
    1.0213   -0.1663   -1.7465 C   0  0  0  0  0  0  0  0  0  0  0  0
    1.5489   -1.1028   -1.9548 H   0  0  0  0  0  0  0  0  0  0  0  0
    0.2221   -0.0629   -2.4881 H   0  0  0  0  0  0  0  0  0  0  0  0
    1.9107    0.9466   -1.8980 O   0  0  0  0  0  0  0  0  0  0  0  0
    2.2393    1.0007   -2.8129 H   0  0  0  0  0  0  0  0  0  0  0  0
    0.2667    1.1657    0.2959 C   0  0  0  0  0  0  0  0  0  0  0  0
   -0.7469    1.8309    0.0942 O   0  0  0  0  0  0  0  0  0  0  0  0
    1.1582    1.5810    1.2688 N   0  0  0  0  0  0  0  0  0  0  0  0
    2.0196    1.0496    1.3551 H   0  0  0  0  0  0  0  0  0  0  0  0
    1.0645    2.8747    1.9336 C   0  0  0  0  0  0  0  0  0  0  0  0
    0.1006    2.9764    2.4435 H   0  0  0  0  0  0  0  0  0  0  0  0
    1.8589    2.9738    2.6793 H   0  0  0  0  0  0  0  0  0  0  0  0
    1.1670    3.6871    1.2065 H   0  0  0  0  0  0  0  0  0  0  0  0
  1  2  1  0  0  0  0
  2  3  1  0  0  0  0
  2  4  1  0  0  0  0
  2  5  1  0  0  0  0
  5  6  2  0  0  0  0
  5  7  1  0  0  0  0
  7  8  1  0  0  0  0
  7  9  1  0  0  0  0
  9 10  1  0  0  0  0
  9 11  1  0  0  0  0
  9 16  1  0  0  0  0
 11 12  1  0  0  0  0
 11 13  1  0  0  0  0
 11 14  1  0  0  0  0
 14 15  1  0  0  0  0
 16 17  2  0  0  0  0
 16 18  1  0  0  0  0
 18 19  1  0  0  0  0
 18 20  1  0  0  0  0
 20 21  1  0  0  0  0
 20 22  1  0  0  0  0
 20 23  1  0  0  0  0
M  END
$$$$

  -OEChem-02102214163D

 23 22  0     1  0  0  0  0  0999 V2000
   -2.6708   -3.7007    0.3453 H   0  0  0  0  0  0  0  0  0  0  0  0
   -2.6435   -2.6501    0.0428 C   0  0  0  0  0  0  0  0  0  0  0  0
   -3.1898   -2.0573    0.7804 H   0  0  0  0  0  0  0  0  0  0  0  0
   -3.1322   -2.5508   -0.9293 H   0  0  0  0  0  0  0  0  0  0  0  0
   -1.2075   -2.1690   -0.0478 C   0  0  0  0  0  0  0  0  0  0  0  0
   -0.2890   -2.9356    0.1925 O   0  0  0  0  0  0  0  0  0  0  0  0
   -0.9417   -0.8647   -0.4046 N   0  0  0  0  0  0  0  0  0  0  0  0
   -1.7361   -0.2293   -0.4724 H   0  0  0  0  0  0  0  0  0  0  0  0
    0.3913   -0.2403   -0.3373 C   0  0  1  0  0  0  0  0  0  0  0  0
    1.0602   -0.8294    0.2975 H   0  0  0  0  0  0  0  0  0  0  0  0
    1.0041   -0.1561   -1.7387 C   0  0  0  0  0  0  0  0  0  0  0  0
    1.3125   -1.1553   -2.0636 H   0  0  0  0  0  0  0  0  0  0  0  0
    0.2489    0.2085   -2.4433 H   0  0  0  0  0  0  0  0  0  0  0  0
    2.1247    0.7366   -1.7631 O   0  0  0  0  0  0  0  0  0  0  0  0
    2.4866    0.8068   -2.6644 H   0  0  0  0  0  0  0  0  0  0  0  0
    0.2678    1.1595    0.2953 C   0  0  0  0  0  0  0  0  0  0  0  0
   -0.7326    1.8374    0.0731 O   0  0  0  0  0  0  0  0  0  0  0  0
    1.1620    1.5752    1.2650 N   0  0  0  0  0  0  0  0  0  0  0  0
    2.0208    1.0386    1.3505 H   0  0  0  0  0  0  0  0  0  0  0  0
    1.0824    2.8783    1.9122 C   0  0  0  0  0  0  0  0  0  0  0  0
    0.1195    2.9967    2.4204 H   0  0  0  0  0  0  0  0  0  0  0  0
    1.8781    2.9797    2.6565 H   0  0  0  0  0  0  0  0  0  0  0  0
    1.1926    3.6793    1.1737 H   0  0  0  0  0  0  0  0  0  0  0  0
  1  2  1  0  0  0  0
  2  3  1  0  0  0  0
  2  4  1  0  0  0  0
  2  5  1  0  0  0  0
  5  6  2  0  0  0  0
  5  7  1  0  0  0  0
  7  8  1  0  0  0  0
  7  9  1  0  0  0  0
  9 10  1  0  0  0  0
  9 11  1  0  0  0  0
  9 16  1  0  0  0  0
 11 12  1  0  0  0  0
 11 13  1  0  0  0  0
 11 14  1  0  0  0  0
 14 15  1  0  0  0  0
 16 17  2  0  0  0  0
 16 18  1  0  0  0  0
 18 19  1  0  0  0  0
 18 20  1  0  0  0  0
 20 21  1  0  0  0  0
 20 22  1  0  0  0  0
 20 23  1  0  0  0  0
M  END
$$$$
