
  -OEChem-04042216033D

 23 22  0     1  0  0  0  0  0999 V2000
   -2.3737   -3.4002   -0.4528 H   0  0  0  0  0  0  0  0  0  0  0  0
   -2.3544   -2.3568   -0.7809 C   0  0  0  0  0  0  0  0  0  0  0  0
   -3.1064   -1.7982   -0.2187 H   0  0  0  0  0  0  0  0  0  0  0  0
   -2.5998   -2.3199   -1.8449 H   0  0  0  0  0  0  0  0  0  0  0  0
   -0.9790   -1.7618   -0.5436 C   0  0  0  0  0  0  0  0  0  0  0  0
   -0.1199   -2.4274    0.0022 O   0  0  0  0  0  0  0  0  0  0  0  0
   -0.7132   -0.4687   -0.9496 N   0  0  0  0  0  0  0  0  0  0  0  0
   -1.4398   -0.0117   -1.4914 H   0  0  0  0  0  0  0  0  0  0  0  0
    0.6280    0.1577   -0.9082 C   0  0  1  0  0  0  0  0  0  0  0  0
    1.3160   -0.4244   -1.5304 H   0  0  0  0  0  0  0  0  0  0  0  0
    0.4996    1.5669   -1.5055 C   0  0  0  0  0  0  0  0  0  0  0  0
    0.1268    1.4931   -2.5323 H   0  0  0  0  0  0  0  0  0  0  0  0
   -0.2251    2.1465   -0.9239 H   0  0  0  0  0  0  0  0  0  0  0  0
    1.7506    2.2564   -1.5114 O   0  0  0  0  0  0  0  0  0  0  0  0
    1.6657    3.1529   -1.8787 H   0  0  0  0  0  0  0  0  0  0  0  0
    1.2483    0.2320    0.5065 C   0  0  0  0  0  0  0  0  0  0  0  0
    2.4343   -0.0148    0.6877 O   0  0  0  0  0  0  0  0  0  0  0  0
    0.4776    0.6485    1.5796 N   0  0  0  0  0  0  0  0  0  0  0  0
   -0.5224    0.6977    1.4226 H   0  0  0  0  0  0  0  0  0  0  0  0
    0.9751    0.6555    2.9492 C   0  0  0  0  0  0  0  0  0  0  0  0
    1.8626    1.2919    3.0307 H   0  0  0  0  0  0  0  0  0  0  0  0
    0.2104    1.0440    3.6282 H   0  0  0  0  0  0  0  0  0  0  0  0
    1.2389   -0.3592    3.2653 H   0  0  0  0  0  0  0  0  0  0  0  0
  1  2  1  0  0  0  0
  2  3  1  0  0  0  0
  2  4  1  0  0  0  0
  2  5  1  0  0  0  0
  5  6  2  0  0  0  0
  5  7  1  0  0  0  0
  7  8  1  0  0  0  0
  7  9  1  0  0  0  0
  9 10  1  0  0  0  0
  9 11  1  0  0  0  0
  9 16  1  0  0  0  0
 11 12  1  0  0  0  0
 11 13  1  0  0  0  0
 11 14  1  0  0  0  0
 14 15  1  0  0  0  0
 16 17  2  0  0  0  0
 16 18  1  0  0  0  0
 18 19  1  0  0  0  0
 18 20  1  0  0  0  0
 20 21  1  0  0  0  0
 20 22  1  0  0  0  0
 20 23  1  0  0  0  0
M  END
$$$$

  -OEChem-04042216033D

 23 22  0     1  0  0  0  0  0999 V2000
   -2.3677   -3.4188   -0.4737 H   0  0  0  0  0  0  0  0  0  0  0  0
   -2.3596   -2.3724   -0.7922 C   0  0  0  0  0  0  0  0  0  0  0  0
   -3.1254   -1.8288   -0.2338 H   0  0  0  0  0  0  0  0  0  0  0  0
   -2.5939   -2.3297   -1.8585 H   0  0  0  0  0  0  0  0  0  0  0  0
   -0.9955   -1.7608   -0.5336 C   0  0  0  0  0  0  0  0  0  0  0  0
   -0.1420   -2.4111    0.0391 O   0  0  0  0  0  0  0  0  0  0  0  0
   -0.7370   -0.4665   -0.9405 N   0  0  0  0  0  0  0  0  0  0  0  0
   -1.4531   -0.0281   -1.5111 H   0  0  0  0  0  0  0  0  0  0  0  0
    0.6041    0.1598   -0.9058 C   0  0  1  0  0  0  0  0  0  0  0  0
    1.2800   -0.4286   -1.5355 H   0  0  0  0  0  0  0  0  0  0  0  0
    0.4900    1.5711   -1.4992 C   0  0  0  0  0  0  0  0  0  0  0  0
   -0.1058    1.5362   -2.4171 H   0  0  0  0  0  0  0  0  0  0  0  0
   -0.0202    2.2338   -0.7924 H   0  0  0  0  0  0  0  0  0  0  0  0
    1.7796    2.0977   -1.8150 O   0  0  0  0  0  0  0  0  0  0  0  0
    1.7251    3.0152   -2.1327 H   0  0  0  0  0  0  0  0  0  0  0  0
    1.2401    0.2363    0.5004 C   0  0  0  0  0  0  0  0  0  0  0  0
    2.4365    0.0330    0.6635 O   0  0  0  0  0  0  0  0  0  0  0  0
    0.4775    0.6531    1.5788 N   0  0  0  0  0  0  0  0  0  0  0  0
   -0.5267    0.6536    1.4389 H   0  0  0  0  0  0  0  0  0  0  0  0
    0.9930    0.6712    2.9419 C   0  0  0  0  0  0  0  0  0  0  0  0
    1.8749    1.3170    3.0101 H   0  0  0  0  0  0  0  0  0  0  0  0
    0.2328    1.0547    3.6289 H   0  0  0  0  0  0  0  0  0  0  0  0
    1.2715   -0.3395    3.2585 H   0  0  0  0  0  0  0  0  0  0  0  0
  1  2  1  0  0  0  0
  2  3  1  0  0  0  0
  2  4  1  0  0  0  0
  2  5  1  0  0  0  0
  5  6  2  0  0  0  0
  5  7  1  0  0  0  0
  7  8  1  0  0  0  0
  7  9  1  0  0  0  0
  9 10  1  0  0  0  0
  9 11  1  0  0  0  0
  9 16  1  0  0  0  0
 11 12  1  0  0  0  0
 11 13  1  0  0  0  0
 11 14  1  0  0  0  0
 14 15  1  0  0  0  0
 16 17  2  0  0  0  0
 16 18  1  0  0  0  0
 18 19  1  0  0  0  0
 18 20  1  0  0  0  0
 20 21  1  0  0  0  0
 20 22  1  0  0  0  0
 20 23  1  0  0  0  0
M  END
$$$$

  -OEChem-04042216033D

 23 22  0     1  0  0  0  0  0999 V2000
   -2.3808   -3.4308   -0.4814 H   0  0  0  0  0  0  0  0  0  0  0  0
   -2.3699   -2.3897   -0.8170 C   0  0  0  0  0  0  0  0  0  0  0  0
   -3.1548   -1.8422   -0.2900 H   0  0  0  0  0  0  0  0  0  0  0  0
   -2.5737   -2.3660   -1.8903 H   0  0  0  0  0  0  0  0  0  0  0  0
   -1.0178   -1.7642   -0.5298 C   0  0  0  0  0  0  0  0  0  0  0  0
   -0.1704   -2.4036    0.0645 O   0  0  0  0  0  0  0  0  0  0  0  0
   -0.7649   -0.4668   -0.9300 N   0  0  0  0  0  0  0  0  0  0  0  0
   -1.4705   -0.0429   -1.5242 H   0  0  0  0  0  0  0  0  0  0  0  0
    0.5768    0.1588   -0.8987 C   0  0  1  0  0  0  0  0  0  0  0  0
    1.2414   -0.4355   -1.5353 H   0  0  0  0  0  0  0  0  0  0  0  0
    0.4799    1.5757   -1.4858 C   0  0  0  0  0  0  0  0  0  0  0  0
   -0.3098    1.6126   -2.2430 H   0  0  0  0  0  0  0  0  0  0  0  0
    0.2221    2.2952   -0.7014 H   0  0  0  0  0  0  0  0  0  0  0  0
    1.7125    1.9434   -2.1080 O   0  0  0  0  0  0  0  0  0  0  0  0
    1.7079    2.8753   -2.3863 H   0  0  0  0  0  0  0  0  0  0  0  0
    1.2299    0.2300    0.4995 C   0  0  0  0  0  0  0  0  0  0  0  0
    2.4379    0.0861    0.6358 O   0  0  0  0  0  0  0  0  0  0  0  0
    0.4790    0.6412    1.5881 N   0  0  0  0  0  0  0  0  0  0  0  0
   -0.5276    0.6045    1.4703 H   0  0  0  0  0  0  0  0  0  0  0  0
    1.0211    0.6924    2.9400 C   0  0  0  0  0  0  0  0  0  0  0  0
    1.8842    1.3653    2.9823 H   0  0  0  0  0  0  0  0  0  0  0  0
    0.2634    1.0618    3.6376 H   0  0  0  0  0  0  0  0  0  0  0  0
    1.3361   -0.3056    3.2632 H   0  0  0  0  0  0  0  0  0  0  0  0
  1  2  1  0  0  0  0
  2  3  1  0  0  0  0
  2  4  1  0  0  0  0
  2  5  1  0  0  0  0
  5  6  2  0  0  0  0
  5  7  1  0  0  0  0
  7  8  1  0  0  0  0
  7  9  1  0  0  0  0
  9 10  1  0  0  0  0
  9 11  1  0  0  0  0
  9 16  1  0  0  0  0
 11 12  1  0  0  0  0
 11 13  1  0  0  0  0
 11 14  1  0  0  0  0
 14 15  1  0  0  0  0
 16 17  2  0  0  0  0
 16 18  1  0  0  0  0
 18 19  1  0  0  0  0
 18 20  1  0  0  0  0
 20 21  1  0  0  0  0
 20 22  1  0  0  0  0
 20 23  1  0  0  0  0
M  END
$$$$

  -OEChem-04042216033D

 23 22  0     1  0  0  0  0  0999 V2000
   -2.3963   -3.4220   -0.4430 H   0  0  0  0  0  0  0  0  0  0  0  0
   -2.3715   -2.3973   -0.8250 C   0  0  0  0  0  0  0  0  0  0  0  0
   -3.1739   -1.8267   -0.3514 H   0  0  0  0  0  0  0  0  0  0  0  0
   -2.5371   -2.4222   -1.9048 H   0  0  0  0  0  0  0  0  0  0  0  0
   -1.0290   -1.7599   -0.5200 C   0  0  0  0  0  0  0  0  0  0  0  0
   -0.1853   -2.3900    0.0898 O   0  0  0  0  0  0  0  0  0  0  0  0
   -0.7825   -0.4607   -0.9175 N   0  0  0  0  0  0  0  0  0  0  0  0
   -1.4795   -0.0516   -1.5321 H   0  0  0  0  0  0  0  0  0  0  0  0
    0.5588    0.1659   -0.8945 C   0  0  1  0  0  0  0  0  0  0  0  0
    1.2186   -0.4332   -1.5318 H   0  0  0  0  0  0  0  0  0  0  0  0
    0.4710    1.5861   -1.4817 C   0  0  0  0  0  0  0  0  0  0  0  0
   -0.4706    1.7145   -2.0249 H   0  0  0  0  0  0  0  0  0  0  0  0
    0.4924    2.3346   -0.6822 H   0  0  0  0  0  0  0  0  0  0  0  0
    1.5502    1.8123   -2.3919 O   0  0  0  0  0  0  0  0  0  0  0  0
    1.5952    2.7454   -2.6632 H   0  0  0  0  0  0  0  0  0  0  0  0
    1.2211    0.2308    0.4991 C   0  0  0  0  0  0  0  0  0  0  0  0
    2.4350    0.1258    0.6169 O   0  0  0  0  0  0  0  0  0  0  0  0
    0.4771    0.6360    1.5943 N   0  0  0  0  0  0  0  0  0  0  0  0
   -0.5298    0.5703    1.4897 H   0  0  0  0  0  0  0  0  0  0  0  0
    1.0334    0.6869    2.9406 C   0  0  0  0  0  0  0  0  0  0  0  0
    1.8790    1.3817    2.9808 H   0  0  0  0  0  0  0  0  0  0  0  0
    0.2745    1.0279    3.6510 H   0  0  0  0  0  0  0  0  0  0  0  0
    1.3782   -0.3058    3.2492 H   0  0  0  0  0  0  0  0  0  0  0  0
  1  2  1  0  0  0  0
  2  3  1  0  0  0  0
  2  4  1  0  0  0  0
  2  5  1  0  0  0  0
  5  6  2  0  0  0  0
  5  7  1  0  0  0  0
  7  8  1  0  0  0  0
  7  9  1  0  0  0  0
  9 10  1  0  0  0  0
  9 11  1  0  0  0  0
  9 16  1  0  0  0  0
 11 12  1  0  0  0  0
 11 13  1  0  0  0  0
 11 14  1  0  0  0  0
 14 15  1  0  0  0  0
 16 17  2  0  0  0  0
 16 18  1  0  0  0  0
 18 19  1  0  0  0  0
 18 20  1  0  0  0  0
 20 21  1  0  0  0  0
 20 22  1  0  0  0  0
 20 23  1  0  0  0  0
M  END
$$$$

  -OEChem-04042216033D

 23 22  0     1  0  0  0  0  0999 V2000
   -2.4055   -3.4204   -0.4330 H   0  0  0  0  0  0  0  0  0  0  0  0
   -2.3749   -2.4014   -0.8296 C   0  0  0  0  0  0  0  0  0  0  0  0
   -3.1837   -1.8237   -0.3760 H   0  0  0  0  0  0  0  0  0  0  0  0
   -2.5250   -2.4419   -1.9112 H   0  0  0  0  0  0  0  0  0  0  0  0
   -1.0368   -1.7594   -0.5145 C   0  0  0  0  0  0  0  0  0  0  0  0
   -0.1980   -2.3849    0.1068 O   0  0  0  0  0  0  0  0  0  0  0  0
   -0.7902   -0.4601   -0.9120 N   0  0  0  0  0  0  0  0  0  0  0  0
   -1.4765   -0.0619   -1.5456 H   0  0  0  0  0  0  0  0  0  0  0  0
    0.5531    0.1624   -0.8969 C   0  0  1  0  0  0  0  0  0  0  0  0
    1.2149   -0.4325   -1.5360 H   0  0  0  0  0  0  0  0  0  0  0  0
    0.4642    1.5919   -1.4659 C   0  0  0  0  0  0  0  0  0  0  0  0
   -0.5676    1.8372   -1.7379 H   0  0  0  0  0  0  0  0  0  0  0  0
    0.7852    2.3241   -0.7167 H   0  0  0  0  0  0  0  0  0  0  0  0
    1.2979    1.7113   -2.6217 O   0  0  0  0  0  0  0  0  0  0  0  0
    1.3883    2.6405   -2.8959 H   0  0  0  0  0  0  0  0  0  0  0  0
    1.2169    0.2188    0.4965 C   0  0  0  0  0  0  0  0  0  0  0  0
    2.4339    0.1418    0.6043 O   0  0  0  0  0  0  0  0  0  0  0  0
    0.4746    0.6221    1.5932 N   0  0  0  0  0  0  0  0  0  0  0  0
   -0.5317    0.5376    1.4953 H   0  0  0  0  0  0  0  0  0  0  0  0
    1.0376    0.6906    2.9358 C   0  0  0  0  0  0  0  0  0  0  0  0
    1.8719    1.3994    2.9667 H   0  0  0  0  0  0  0  0  0  0  0  0
    0.2770    1.0242    3.6480 H   0  0  0  0  0  0  0  0  0  0  0  0
    1.4000   -0.2942    3.2491 H   0  0  0  0  0  0  0  0  0  0  0  0
  1  2  1  0  0  0  0
  2  3  1  0  0  0  0
  2  4  1  0  0  0  0
  2  5  1  0  0  0  0
  5  6  2  0  0  0  0
  5  7  1  0  0  0  0
  7  8  1  0  0  0  0
  7  9  1  0  0  0  0
  9 10  1  0  0  0  0
  9 11  1  0  0  0  0
  9 16  1  0  0  0  0
 11 12  1  0  0  0  0
 11 13  1  0  0  0  0
 11 14  1  0  0  0  0
 14 15  1  0  0  0  0
 16 17  2  0  0  0  0
 16 18  1  0  0  0  0
 18 19  1  0  0  0  0
 18 20  1  0  0  0  0
 20 21  1  0  0  0  0
 20 22  1  0  0  0  0
 20 23  1  0  0  0  0
M  END
$$$$

  -OEChem-04042216033D

 23 22  0     1  0  0  0  0  0999 V2000
   -2.4070   -3.4187   -0.4365 H   0  0  0  0  0  0  0  0  0  0  0  0
   -2.3746   -2.3994   -0.8322 C   0  0  0  0  0  0  0  0  0  0  0  0
   -3.1872   -1.8228   -0.3840 H   0  0  0  0  0  0  0  0  0  0  0  0
   -2.5173   -2.4392   -1.9148 H   0  0  0  0  0  0  0  0  0  0  0  0
   -1.0393   -1.7564   -0.5075 C   0  0  0  0  0  0  0  0  0  0  0  0
   -0.2064   -2.3799    0.1240 O   0  0  0  0  0  0  0  0  0  0  0  0
   -0.7883   -0.4595   -0.9099 N   0  0  0  0  0  0  0  0  0  0  0  0
   -1.4630   -0.0704   -1.5619 H   0  0  0  0  0  0  0  0  0  0  0  0
    0.5570    0.1573   -0.8993 C   0  0  1  0  0  0  0  0  0  0  0  0
    1.2254   -0.4283   -1.5403 H   0  0  0  0  0  0  0  0  0  0  0  0
    0.4598    1.5922   -1.4480 C   0  0  0  0  0  0  0  0  0  0  0  0
   -0.5753    1.9487   -1.4317 H   0  0  0  0  0  0  0  0  0  0  0  0
    1.0497    2.2758   -0.8271 H   0  0  0  0  0  0  0  0  0  0  0  0
    0.9810    1.6381   -2.7796 O   0  0  0  0  0  0  0  0  0  0  0  0
    1.0844    2.5572   -3.0826 H   0  0  0  0  0  0  0  0  0  0  0  0
    1.2157    0.2116    0.4963 C   0  0  0  0  0  0  0  0  0  0  0  0
    2.4336    0.1445    0.6017 O   0  0  0  0  0  0  0  0  0  0  0  0
    0.4727    0.6194    1.5909 N   0  0  0  0  0  0  0  0  0  0  0  0
   -0.5335    0.5309    1.4928 H   0  0  0  0  0  0  0  0  0  0  0  0
    1.0348    0.6901    2.9338 C   0  0  0  0  0  0  0  0  0  0  0  0
    1.8694    1.3985    2.9646 H   0  0  0  0  0  0  0  0  0  0  0  0
    0.2735    1.0253    3.6446 H   0  0  0  0  0  0  0  0  0  0  0  0
    1.3963   -0.2945    3.2492 H   0  0  0  0  0  0  0  0  0  0  0  0
  1  2  1  0  0  0  0
  2  3  1  0  0  0  0
  2  4  1  0  0  0  0
  2  5  1  0  0  0  0
  5  6  2  0  0  0  0
  5  7  1  0  0  0  0
  7  8  1  0  0  0  0
  7  9  1  0  0  0  0
  9 10  1  0  0  0  0
  9 11  1  0  0  0  0
  9 16  1  0  0  0  0
 11 12  1  0  0  0  0
 11 13  1  0  0  0  0
 11 14  1  0  0  0  0
 14 15  1  0  0  0  0
 16 17  2  0  0  0  0
 16 18  1  0  0  0  0
 18 19  1  0  0  0  0
 18 20  1  0  0  0  0
 20 21  1  0  0  0  0
 20 22  1  0  0  0  0
 20 23  1  0  0  0  0
M  END
$$$$

  -OEChem-04042216033D

 23 22  0     1  0  0  0  0  0999 V2000
   -2.4095   -3.4159   -0.4535 H   0  0  0  0  0  0  0  0  0  0  0  0
   -2.3748   -2.3941   -0.8422 C   0  0  0  0  0  0  0  0  0  0  0  0
   -3.1909   -1.8204   -0.3965 H   0  0  0  0  0  0  0  0  0  0  0  0
   -2.5095   -2.4266   -1.9261 H   0  0  0  0  0  0  0  0  0  0  0  0
   -1.0423   -1.7528   -0.5032 C   0  0  0  0  0  0  0  0  0  0  0  0
   -0.2193   -2.3742    0.1436 O   0  0  0  0  0  0  0  0  0  0  0  0
   -0.7843   -0.4584   -0.9076 N   0  0  0  0  0  0  0  0  0  0  0  0
   -1.4441   -0.0761   -1.5792 H   0  0  0  0  0  0  0  0  0  0  0  0
    0.5622    0.1529   -0.8957 C   0  0  1  0  0  0  0  0  0  0  0  0
    1.2333   -0.4244   -1.5409 H   0  0  0  0  0  0  0  0  0  0  0  0
    0.4543    1.5886   -1.4291 C   0  0  0  0  0  0  0  0  0  0  0  0
   -0.5068    2.0367   -1.1556 H   0  0  0  0  0  0  0  0  0  0  0  0
    1.2448    2.2087   -0.9916 H   0  0  0  0  0  0  0  0  0  0  0  0
    0.6293    1.5864   -2.8495 O   0  0  0  0  0  0  0  0  0  0  0  0
    0.7333    2.4934   -3.1877 H   0  0  0  0  0  0  0  0  0  0  0  0
    1.2185    0.2080    0.5001 C   0  0  0  0  0  0  0  0  0  0  0  0
    2.4368    0.1425    0.6037 O   0  0  0  0  0  0  0  0  0  0  0  0
    0.4761    0.6208    1.5928 N   0  0  0  0  0  0  0  0  0  0  0  0
   -0.5298    0.5278    1.4953 H   0  0  0  0  0  0  0  0  0  0  0  0
    1.0375    0.6926    2.9358 C   0  0  0  0  0  0  0  0  0  0  0  0
    1.8757    1.3969    2.9647 H   0  0  0  0  0  0  0  0  0  0  0  0
    0.2777    1.0338    3.6453 H   0  0  0  0  0  0  0  0  0  0  0  0
    1.3937   -0.2928    3.2544 H   0  0  0  0  0  0  0  0  0  0  0  0
  1  2  1  0  0  0  0
  2  3  1  0  0  0  0
  2  4  1  0  0  0  0
  2  5  1  0  0  0  0
  5  6  2  0  0  0  0
  5  7  1  0  0  0  0
  7  8  1  0  0  0  0
  7  9  1  0  0  0  0
  9 10  1  0  0  0  0
  9 11  1  0  0  0  0
  9 16  1  0  0  0  0
 11 12  1  0  0  0  0
 11 13  1  0  0  0  0
 11 14  1  0  0  0  0
 14 15  1  0  0  0  0
 16 17  2  0  0  0  0
 16 18  1  0  0  0  0
 18 19  1  0  0  0  0
 18 20  1  0  0  0  0
 20 21  1  0  0  0  0
 20 22  1  0  0  0  0
 20 23  1  0  0  0  0
M  END
$$$$

  -OEChem-04042216033D

 23 22  0     1  0  0  0  0  0999 V2000
   -2.4046   -3.4226   -0.4990 H   0  0  0  0  0  0  0  0  0  0  0  0
   -2.3763   -2.3916   -0.8631 C   0  0  0  0  0  0  0  0  0  0  0  0
   -3.2004   -1.8356   -0.4099 H   0  0  0  0  0  0  0  0  0  0  0  0
   -2.5028   -2.3989   -1.9483 H   0  0  0  0  0  0  0  0  0  0  0  0
   -1.0521   -1.7470   -0.4994 C   0  0  0  0  0  0  0  0  0  0  0  0
   -0.2396   -2.3651    0.1640 O   0  0  0  0  0  0  0  0  0  0  0  0
   -0.7876   -0.4538   -0.9017 N   0  0  0  0  0  0  0  0  0  0  0  0
   -1.4326   -0.0721   -1.5887 H   0  0  0  0  0  0  0  0  0  0  0  0
    0.5599    0.1512   -0.8826 C   0  0  1  0  0  0  0  0  0  0  0  0
    1.2274   -0.4251   -1.5321 H   0  0  0  0  0  0  0  0  0  0  0  0
    0.4518    1.5829   -1.4155 C   0  0  0  0  0  0  0  0  0  0  0  0
   -0.3799    2.1120   -0.9385 H   0  0  0  0  0  0  0  0  0  0  0  0
    1.3729    2.1307   -1.1871 H   0  0  0  0  0  0  0  0  0  0  0  0
    0.2811    1.5511   -2.8371 O   0  0  0  0  0  0  0  0  0  0  0  0
    0.3708    2.4441   -3.2150 H   0  0  0  0  0  0  0  0  0  0  0  0
    1.2209    0.2093    0.5097 C   0  0  0  0  0  0  0  0  0  0  0  0
    2.4397    0.1438    0.6059 O   0  0  0  0  0  0  0  0  0  0  0  0
    0.4844    0.6275    1.6041 N   0  0  0  0  0  0  0  0  0  0  0  0
   -0.5222    0.5347    1.5107 H   0  0  0  0  0  0  0  0  0  0  0  0
    1.0511    0.6976    2.9450 C   0  0  0  0  0  0  0  0  0  0  0  0
    1.8943    1.3960    2.9705 H   0  0  0  0  0  0  0  0  0  0  0  0
    0.2960    1.0452    3.6564 H   0  0  0  0  0  0  0  0  0  0  0  0
    1.4016   -0.2899    3.2637 H   0  0  0  0  0  0  0  0  0  0  0  0
  1  2  1  0  0  0  0
  2  3  1  0  0  0  0
  2  4  1  0  0  0  0
  2  5  1  0  0  0  0
  5  6  2  0  0  0  0
  5  7  1  0  0  0  0
  7  8  1  0  0  0  0
  7  9  1  0  0  0  0
  9 10  1  0  0  0  0
  9 11  1  0  0  0  0
  9 16  1  0  0  0  0
 11 12  1  0  0  0  0
 11 13  1  0  0  0  0
 11 14  1  0  0  0  0
 14 15  1  0  0  0  0
 16 17  2  0  0  0  0
 16 18  1  0  0  0  0
 18 19  1  0  0  0  0
 18 20  1  0  0  0  0
 20 21  1  0  0  0  0
 20 22  1  0  0  0  0
 20 23  1  0  0  0  0
M  END
$$$$

  -OEChem-04042216033D

 23 22  0     1  0  0  0  0  0999 V2000
   -2.4223   -3.4153   -0.5110 H   0  0  0  0  0  0  0  0  0  0  0  0
   -2.3827   -2.3857   -0.8778 C   0  0  0  0  0  0  0  0  0  0  0  0
   -3.2033   -1.8204   -0.4296 H   0  0  0  0  0  0  0  0  0  0  0  0
   -2.5053   -2.3954   -1.9635 H   0  0  0  0  0  0  0  0  0  0  0  0
   -1.0544   -1.7514   -0.5109 C   0  0  0  0  0  0  0  0  0  0  0  0
   -0.2436   -2.3779    0.1472 O   0  0  0  0  0  0  0  0  0  0  0  0
   -0.7840   -0.4564   -0.9011 N   0  0  0  0  0  0  0  0  0  0  0  0
   -1.4238   -0.0608   -1.5863 H   0  0  0  0  0  0  0  0  0  0  0  0
    0.5616    0.1494   -0.8695 C   0  0  1  0  0  0  0  0  0  0  0  0
    1.2256   -0.4261   -1.5231 H   0  0  0  0  0  0  0  0  0  0  0  0
    0.4551    1.5784   -1.4065 C   0  0  0  0  0  0  0  0  0  0  0  0
   -0.2094    2.1750   -0.7728 H   0  0  0  0  0  0  0  0  0  0  0  0
    1.4446    2.0485   -1.3946 H   0  0  0  0  0  0  0  0  0  0  0  0
   -0.0430    1.5537   -2.7512 O   0  0  0  0  0  0  0  0  0  0  0  0
    0.0176    2.4381   -3.1548 H   0  0  0  0  0  0  0  0  0  0  0  0
    1.2257    0.2046    0.5203 C   0  0  0  0  0  0  0  0  0  0  0  0
    2.4457    0.1538    0.6096 O   0  0  0  0  0  0  0  0  0  0  0  0
    0.4903    0.6173    1.6172 N   0  0  0  0  0  0  0  0  0  0  0  0
   -0.5162    0.5196    1.5272 H   0  0  0  0  0  0  0  0  0  0  0  0
    1.0613    0.7036    2.9553 C   0  0  0  0  0  0  0  0  0  0  0  0
    1.8969    1.4112    2.9720 H   0  0  0  0  0  0  0  0  0  0  0  0
    0.3053    1.0489    3.6668 H   0  0  0  0  0  0  0  0  0  0  0  0
    1.4234   -0.2773    3.2810 H   0  0  0  0  0  0  0  0  0  0  0  0
  1  2  1  0  0  0  0
  2  3  1  0  0  0  0
  2  4  1  0  0  0  0
  2  5  1  0  0  0  0
  5  6  2  0  0  0  0
  5  7  1  0  0  0  0
  7  8  1  0  0  0  0
  7  9  1  0  0  0  0
  9 10  1  0  0  0  0
  9 11  1  0  0  0  0
  9 16  1  0  0  0  0
 11 12  1  0  0  0  0
 11 13  1  0  0  0  0
 11 14  1  0  0  0  0
 14 15  1  0  0  0  0
 16 17  2  0  0  0  0
 16 18  1  0  0  0  0
 18 19  1  0  0  0  0
 18 20  1  0  0  0  0
 20 21  1  0  0  0  0
 20 22  1  0  0  0  0
 20 23  1  0  0  0  0
M  END
$$$$

  -OEChem-04042216033D

 23 22  0     1  0  0  0  0  0999 V2000
   -2.4264   -3.4159   -0.5146 H   0  0  0  0  0  0  0  0  0  0  0  0
   -2.3853   -2.3869   -0.8833 C   0  0  0  0  0  0  0  0  0  0  0  0
   -3.2078   -1.8208   -0.4395 H   0  0  0  0  0  0  0  0  0  0  0  0
   -2.5034   -2.3983   -1.9696 H   0  0  0  0  0  0  0  0  0  0  0  0
   -1.0578   -1.7526   -0.5129 C   0  0  0  0  0  0  0  0  0  0  0  0
   -0.2427   -2.3830    0.1364 O   0  0  0  0  0  0  0  0  0  0  0  0
   -0.7875   -0.4555   -0.8947 N   0  0  0  0  0  0  0  0  0  0  0  0
   -1.4311   -0.0433   -1.5678 H   0  0  0  0  0  0  0  0  0  0  0  0
    0.5549    0.1553   -0.8565 C   0  0  1  0  0  0  0  0  0  0  0  0
    1.2132   -0.4304   -1.5067 H   0  0  0  0  0  0  0  0  0  0  0  0
    0.4642    1.5790   -1.4168 C   0  0  0  0  0  0  0  0  0  0  0  0
    0.0043    2.2440   -0.6782 H   0  0  0  0  0  0  0  0  0  0  0  0
    1.4723    1.9534   -1.6249 H   0  0  0  0  0  0  0  0  0  0  0  0
   -0.3231    1.5967   -2.6185 O   0  0  0  0  0  0  0  0  0  0  0  0
   -0.2893    2.4770   -3.0346 H   0  0  0  0  0  0  0  0  0  0  0  0
    1.2240    0.2112    0.5302 C   0  0  0  0  0  0  0  0  0  0  0  0
    2.4447    0.1650    0.6128 O   0  0  0  0  0  0  0  0  0  0  0  0
    0.4928    0.6175    1.6322 N   0  0  0  0  0  0  0  0  0  0  0  0
   -0.5145    0.5256    1.5441 H   0  0  0  0  0  0  0  0  0  0  0  0
    1.0688    0.6958    2.9687 C   0  0  0  0  0  0  0  0  0  0  0  0
    1.8962    1.4129    2.9893 H   0  0  0  0  0  0  0  0  0  0  0  0
    0.3121    1.0238    3.6877 H   0  0  0  0  0  0  0  0  0  0  0  0
    1.4439   -0.2845    3.2814 H   0  0  0  0  0  0  0  0  0  0  0  0
  1  2  1  0  0  0  0
  2  3  1  0  0  0  0
  2  4  1  0  0  0  0
  2  5  1  0  0  0  0
  5  6  2  0  0  0  0
  5  7  1  0  0  0  0
  7  8  1  0  0  0  0
  7  9  1  0  0  0  0
  9 10  1  0  0  0  0
  9 11  1  0  0  0  0
  9 16  1  0  0  0  0
 11 12  1  0  0  0  0
 11 13  1  0  0  0  0
 11 14  1  0  0  0  0
 14 15  1  0  0  0  0
 16 17  2  0  0  0  0
 16 18  1  0  0  0  0
 18 19  1  0  0  0  0
 18 20  1  0  0  0  0
 20 21  1  0  0  0  0
 20 22  1  0  0  0  0
 20 23  1  0  0  0  0
M  END
$$$$

  -OEChem-04042216033D

 23 22  0     1  0  0  0  0  0999 V2000
   -2.4045   -3.4405   -0.5691 H   0  0  0  0  0  0  0  0  0  0  0  0
   -2.3889   -2.3897   -0.8720 C   0  0  0  0  0  0  0  0  0  0  0  0
   -3.1900   -1.8605   -0.3507 H   0  0  0  0  0  0  0  0  0  0  0  0
   -2.5635   -2.3326   -1.9491 H   0  0  0  0  0  0  0  0  0  0  0  0
   -1.0484   -1.7676   -0.5297 C   0  0  0  0  0  0  0  0  0  0  0  0
   -0.2163   -2.4126    0.0828 O   0  0  0  0  0  0  0  0  0  0  0  0
   -0.7813   -0.4665   -0.8980 N   0  0  0  0  0  0  0  0  0  0  0  0
   -1.4463   -0.0218   -1.5291 H   0  0  0  0  0  0  0  0  0  0  0  0
    0.5542    0.1574   -0.8494 C   0  0  1  0  0  0  0  0  0  0  0  0
    1.2143   -0.4339   -1.4923 H   0  0  0  0  0  0  0  0  0  0  0  0
    0.4783    1.5787   -1.4300 C   0  0  0  0  0  0  0  0  0  0  0  0
    0.2513    2.2943   -0.6325 H   0  0  0  0  0  0  0  0  0  0  0  0
    1.4517    1.8497   -1.8526 H   0  0  0  0  0  0  0  0  0  0  0  0
   -0.5459    1.6819   -2.4356 O   0  0  0  0  0  0  0  0  0  0  0  0
   -0.5280    2.5647   -2.8476 H   0  0  0  0  0  0  0  0  0  0  0  0
    1.2207    0.2120    0.5381 C   0  0  0  0  0  0  0  0  0  0  0  0
    2.4417    0.1785    0.6208 O   0  0  0  0  0  0  0  0  0  0  0  0
    0.4847    0.6037    1.6420 N   0  0  0  0  0  0  0  0  0  0  0  0
   -0.5228    0.5147    1.5519 H   0  0  0  0  0  0  0  0  0  0  0  0
    1.0605    0.6965    2.9774 C   0  0  0  0  0  0  0  0  0  0  0  0
    1.8972    1.4029    2.9873 H   0  0  0  0  0  0  0  0  0  0  0  0
    0.3080    1.0465    3.6902 H   0  0  0  0  0  0  0  0  0  0  0  0
    1.4227   -0.2834    3.3056 H   0  0  0  0  0  0  0  0  0  0  0  0
  1  2  1  0  0  0  0
  2  3  1  0  0  0  0
  2  4  1  0  0  0  0
  2  5  1  0  0  0  0
  5  6  2  0  0  0  0
  5  7  1  0  0  0  0
  7  8  1  0  0  0  0
  7  9  1  0  0  0  0
  9 10  1  0  0  0  0
  9 11  1  0  0  0  0
  9 16  1  0  0  0  0
 11 12  1  0  0  0  0
 11 13  1  0  0  0  0
 11 14  1  0  0  0  0
 14 15  1  0  0  0  0
 16 17  2  0  0  0  0
 16 18  1  0  0  0  0
 18 19  1  0  0  0  0
 18 20  1  0  0  0  0
 20 21  1  0  0  0  0
 20 22  1  0  0  0  0
 20 23  1  0  0  0  0
M  END
$$$$

  -OEChem-04042216033D

 23 22  0     1  0  0  0  0  0999 V2000
   -2.4097   -3.4336   -0.5308 H   0  0  0  0  0  0  0  0  0  0  0  0
   -2.3879   -2.3849   -0.8410 C   0  0  0  0  0  0  0  0  0  0  0  0
   -3.1599   -1.8389   -0.2937 H   0  0  0  0  0  0  0  0  0  0  0  0
   -2.6017   -2.3308   -1.9112 H   0  0  0  0  0  0  0  0  0  0  0  0
   -1.0253   -1.7834   -0.5528 C   0  0  0  0  0  0  0  0  0  0  0  0
   -0.1708   -2.4472    0.0066 O   0  0  0  0  0  0  0  0  0  0  0  0
   -0.7614   -0.4787   -0.9101 N   0  0  0  0  0  0  0  0  0  0  0  0
   -1.4617    0.0062   -1.4698 H   0  0  0  0  0  0  0  0  0  0  0  0
    0.5661    0.1613   -0.8556 C   0  0  1  0  0  0  0  0  0  0  0  0
    1.2348   -0.4280   -1.4916 H   0  0  0  0  0  0  0  0  0  0  0  0
    0.4929    1.5846   -1.4440 C   0  0  0  0  0  0  0  0  0  0  0  0
    0.5282    2.3246   -0.6369 H   0  0  0  0  0  0  0  0  0  0  0  0
    1.3658    1.7545   -2.0827 H   0  0  0  0  0  0  0  0  0  0  0  0
   -0.7156    1.8010   -2.1971 O   0  0  0  0  0  0  0  0  0  0  0  0
   -0.7097    2.6901   -2.5958 H   0  0  0  0  0  0  0  0  0  0  0  0
    1.2226    0.2120    0.5369 C   0  0  0  0  0  0  0  0  0  0  0  0
    2.4432    0.1868    0.6294 O   0  0  0  0  0  0  0  0  0  0  0  0
    0.4738    0.5865    1.6379 N   0  0  0  0  0  0  0  0  0  0  0  0
   -0.5333    0.5103    1.5333 H   0  0  0  0  0  0  0  0  0  0  0  0
    1.0349    0.6799    2.9796 C   0  0  0  0  0  0  0  0  0  0  0  0
    1.8586    1.4013    3.0027 H   0  0  0  0  0  0  0  0  0  0  0  0
    0.2691    1.0112    3.6873 H   0  0  0  0  0  0  0  0  0  0  0  0
    1.4114   -0.2956    3.3049 H   0  0  0  0  0  0  0  0  0  0  0  0
  1  2  1  0  0  0  0
  2  3  1  0  0  0  0
  2  4  1  0  0  0  0
  2  5  1  0  0  0  0
  5  6  2  0  0  0  0
  5  7  1  0  0  0  0
  7  8  1  0  0  0  0
  7  9  1  0  0  0  0
  9 10  1  0  0  0  0
  9 11  1  0  0  0  0
  9 16  1  0  0  0  0
 11 12  1  0  0  0  0
 11 13  1  0  0  0  0
 11 14  1  0  0  0  0
 14 15  1  0  0  0  0
 16 17  2  0  0  0  0
 16 18  1  0  0  0  0
 18 19  1  0  0  0  0
 18 20  1  0  0  0  0
 20 21  1  0  0  0  0
 20 22  1  0  0  0  0
 20 23  1  0  0  0  0
M  END
$$$$

  -OEChem-04042216033D

 23 22  0     1  0  0  0  0  0999 V2000
   -2.3951   -3.4264   -0.4957 H   0  0  0  0  0  0  0  0  0  0  0  0
   -2.3784   -2.3746   -0.7948 C   0  0  0  0  0  0  0  0  0  0  0  0
   -3.1091   -1.8261   -0.1960 H   0  0  0  0  0  0  0  0  0  0  0  0
   -2.6547   -2.3052   -1.8497 H   0  0  0  0  0  0  0  0  0  0  0  0
   -0.9930   -1.7946   -0.5815 C   0  0  0  0  0  0  0  0  0  0  0  0
   -0.1150   -2.4784   -0.0864 O   0  0  0  0  0  0  0  0  0  0  0  0
   -0.7307   -0.4890   -0.9361 N   0  0  0  0  0  0  0  0  0  0  0  0
   -1.4697    0.0411   -1.3963 H   0  0  0  0  0  0  0  0  0  0  0  0
    0.5918    0.1612   -0.8755 C   0  0  1  0  0  0  0  0  0  0  0  0
    1.2764   -0.4195   -1.5027 H   0  0  0  0  0  0  0  0  0  0  0  0
    0.5115    1.5904   -1.4549 C   0  0  0  0  0  0  0  0  0  0  0  0
    0.8259    2.3237   -0.7040 H   0  0  0  0  0  0  0  0  0  0  0  0
    1.2080    1.6697   -2.2960 H   0  0  0  0  0  0  0  0  0  0  0  0
   -0.8146    1.9299   -1.9047 O   0  0  0  0  0  0  0  0  0  0  0  0
   -0.8235    2.8292   -2.2801 H   0  0  0  0  0  0  0  0  0  0  0  0
    1.2249    0.2079    0.5284 C   0  0  0  0  0  0  0  0  0  0  0  0
    2.4432    0.1726    0.6444 O   0  0  0  0  0  0  0  0  0  0  0  0
    0.4567    0.5727    1.6194 N   0  0  0  0  0  0  0  0  0  0  0  0
   -0.5493    0.5301    1.4898 H   0  0  0  0  0  0  0  0  0  0  0  0
    0.9903    0.6602    2.9724 C   0  0  0  0  0  0  0  0  0  0  0  0
    1.8179    1.3760    3.0139 H   0  0  0  0  0  0  0  0  0  0  0  0
    0.2121    0.9953    3.6646 H   0  0  0  0  0  0  0  0  0  0  0  0
    1.3536   -0.3182    3.3038 H   0  0  0  0  0  0  0  0  0  0  0  0
  1  2  1  0  0  0  0
  2  3  1  0  0  0  0
  2  4  1  0  0  0  0
  2  5  1  0  0  0  0
  5  6  2  0  0  0  0
  5  7  1  0  0  0  0
  7  8  1  0  0  0  0
  7  9  1  0  0  0  0
  9 10  1  0  0  0  0
  9 11  1  0  0  0  0
  9 16  1  0  0  0  0
 11 12  1  0  0  0  0
 11 13  1  0  0  0  0
 11 14  1  0  0  0  0
 14 15  1  0  0  0  0
 16 17  2  0  0  0  0
 16 18  1  0  0  0  0
 18 19  1  0  0  0  0
 18 20  1  0  0  0  0
 20 21  1  0  0  0  0
 20 22  1  0  0  0  0
 20 23  1  0  0  0  0
M  END
$$$$

  -OEChem-04042216033D

 23 22  0     1  0  0  0  0  0999 V2000
   -2.3896   -3.4073   -0.4550 H   0  0  0  0  0  0  0  0  0  0  0  0
   -2.3675   -2.3551   -0.7524 C   0  0  0  0  0  0  0  0  0  0  0  0
   -3.0523   -1.7937   -0.1125 H   0  0  0  0  0  0  0  0  0  0  0  0
   -2.7001   -2.2764   -1.7902 H   0  0  0  0  0  0  0  0  0  0  0  0
   -0.9608   -1.8041   -0.6159 C   0  0  0  0  0  0  0  0  0  0  0  0
   -0.0665   -2.5117   -0.1881 O   0  0  0  0  0  0  0  0  0  0  0  0
   -0.6959   -0.4994   -0.9712 N   0  0  0  0  0  0  0  0  0  0  0  0
   -1.4650    0.0718   -1.3178 H   0  0  0  0  0  0  0  0  0  0  0  0
    0.6245    0.1537   -0.8991 C   0  0  1  0  0  0  0  0  0  0  0  0
    1.3269   -0.4127   -1.5193 H   0  0  0  0  0  0  0  0  0  0  0  0
    0.5297    1.5890   -1.4567 C   0  0  0  0  0  0  0  0  0  0  0  0
    1.0971    2.2846   -0.8283 H   0  0  0  0  0  0  0  0  0  0  0  0
    0.9863    1.6060   -2.4516 H   0  0  0  0  0  0  0  0  0  0  0  0
   -0.8328    2.0426   -1.5721 O   0  0  0  0  0  0  0  0  0  0  0  0
   -0.8569    2.9525   -1.9207 H   0  0  0  0  0  0  0  0  0  0  0  0
    1.2302    0.1984    0.5169 C   0  0  0  0  0  0  0  0  0  0  0  0
    2.4447    0.1405    0.6609 O   0  0  0  0  0  0  0  0  0  0  0  0
    0.4421    0.5617    1.5939 N   0  0  0  0  0  0  0  0  0  0  0  0
   -0.5602    0.5759    1.4338 H   0  0  0  0  0  0  0  0  0  0  0  0
    0.9448    0.6481    2.9587 C   0  0  0  0  0  0  0  0  0  0  0  0
    1.7676    1.3680    3.0208 H   0  0  0  0  0  0  0  0  0  0  0  0
    0.1491    0.9765    3.6341 H   0  0  0  0  0  0  0  0  0  0  0  0
    1.3055   -0.3295    3.2951 H   0  0  0  0  0  0  0  0  0  0  0  0
  1  2  1  0  0  0  0
  2  3  1  0  0  0  0
  2  4  1  0  0  0  0
  2  5  1  0  0  0  0
  5  6  2  0  0  0  0
  5  7  1  0  0  0  0
  7  8  1  0  0  0  0
  7  9  1  0  0  0  0
  9 10  1  0  0  0  0
  9 11  1  0  0  0  0
  9 16  1  0  0  0  0
 11 12  1  0  0  0  0
 11 13  1  0  0  0  0
 11 14  1  0  0  0  0
 14 15  1  0  0  0  0
 16 17  2  0  0  0  0
 16 18  1  0  0  0  0
 18 19  1  0  0  0  0
 18 20  1  0  0  0  0
 20 21  1  0  0  0  0
 20 22  1  0  0  0  0
 20 23  1  0  0  0  0
M  END
$$$$

  -OEChem-04042216033D

 23 22  0     1  0  0  0  0  0999 V2000
   -2.3911   -3.3888   -0.4267 H   0  0  0  0  0  0  0  0  0  0  0  0
   -2.3634   -2.3372   -0.7269 C   0  0  0  0  0  0  0  0  0  0  0  0
   -3.0013   -1.7615   -0.0520 H   0  0  0  0  0  0  0  0  0  0  0  0
   -2.7499   -2.2521   -1.7453 H   0  0  0  0  0  0  0  0  0  0  0  0
   -0.9402   -1.8155   -0.6680 C   0  0  0  0  0  0  0  0  0  0  0  0
   -0.0356   -2.5488   -0.3111 O   0  0  0  0  0  0  0  0  0  0  0  0
   -0.6715   -0.5091   -1.0152 N   0  0  0  0  0  0  0  0  0  0  0  0
   -1.4570    0.0953   -1.2480 H   0  0  0  0  0  0  0  0  0  0  0  0
    0.6511    0.1361   -0.9180 C   0  0  1  0  0  0  0  0  0  0  0  0
    1.3655   -0.4171   -1.5366 H   0  0  0  0  0  0  0  0  0  0  0  0
    0.5504    1.5768   -1.4463 C   0  0  0  0  0  0  0  0  0  0  0  0
    1.3112    2.2105   -0.9768 H   0  0  0  0  0  0  0  0  0  0  0  0
    0.7504    1.5695   -2.5226 H   0  0  0  0  0  0  0  0  0  0  0  0
   -0.7606    2.1312   -1.2304 O   0  0  0  0  0  0  0  0  0  0  0  0
   -0.7901    3.0557   -1.5377 H   0  0  0  0  0  0  0  0  0  0  0  0
    1.2313    0.1696    0.5088 C   0  0  0  0  0  0  0  0  0  0  0  0
    2.4410    0.0854    0.6779 O   0  0  0  0  0  0  0  0  0  0  0  0
    0.4274    0.5322    1.5743 N   0  0  0  0  0  0  0  0  0  0  0  0
   -0.5621    0.6501    1.3803 H   0  0  0  0  0  0  0  0  0  0  0  0
    0.9121    0.6620    2.9417 C   0  0  0  0  0  0  0  0  0  0  0  0
    1.6973    1.4230    3.0000 H   0  0  0  0  0  0  0  0  0  0  0  0
    0.0948    0.9577    3.6059 H   0  0  0  0  0  0  0  0  0  0  0  0
    1.3179   -0.2918    3.2949 H   0  0  0  0  0  0  0  0  0  0  0  0
  1  2  1  0  0  0  0
  2  3  1  0  0  0  0
  2  4  1  0  0  0  0
  2  5  1  0  0  0  0
  5  6  2  0  0  0  0
  5  7  1  0  0  0  0
  7  8  1  0  0  0  0
  7  9  1  0  0  0  0
  9 10  1  0  0  0  0
  9 11  1  0  0  0  0
  9 16  1  0  0  0  0
 11 12  1  0  0  0  0
 11 13  1  0  0  0  0
 11 14  1  0  0  0  0
 14 15  1  0  0  0  0
 16 17  2  0  0  0  0
 16 18  1  0  0  0  0
 18 19  1  0  0  0  0
 18 20  1  0  0  0  0
 20 21  1  0  0  0  0
 20 22  1  0  0  0  0
 20 23  1  0  0  0  0
M  END
$$$$

  -OEChem-04042216033D

 23 22  0     1  0  0  0  0  0999 V2000
   -2.4024   -3.3849   -0.4546 H   0  0  0  0  0  0  0  0  0  0  0  0
   -2.3710   -2.3282   -0.7352 C   0  0  0  0  0  0  0  0  0  0  0  0
   -2.9748   -1.7581   -0.0254 H   0  0  0  0  0  0  0  0  0  0  0  0
   -2.7945   -2.2178   -1.7363 H   0  0  0  0  0  0  0  0  0  0  0  0
   -0.9393   -1.8269   -0.7201 C   0  0  0  0  0  0  0  0  0  0  0  0
   -0.0315   -2.5826   -0.4232 O   0  0  0  0  0  0  0  0  0  0  0  0
   -0.6660   -0.5161   -1.0480 N   0  0  0  0  0  0  0  0  0  0  0  0
   -1.4568    0.1066   -1.1952 H   0  0  0  0  0  0  0  0  0  0  0  0
    0.6604    0.1145   -0.9158 C   0  0  1  0  0  0  0  0  0  0  0  0
    1.3790   -0.4341   -1.5337 H   0  0  0  0  0  0  0  0  0  0  0  0
    0.5651    1.5551   -1.4310 C   0  0  0  0  0  0  0  0  0  0  0  0
    1.4590    2.1175   -1.1395 H   0  0  0  0  0  0  0  0  0  0  0  0
    0.5239    1.5426   -2.5250 H   0  0  0  0  0  0  0  0  0  0  0  0
   -0.6157    2.2026   -0.9255 O   0  0  0  0  0  0  0  0  0  0  0  0
   -0.6328    3.1371   -1.2026 H   0  0  0  0  0  0  0  0  0  0  0  0
    1.2254    0.1302    0.5178 C   0  0  0  0  0  0  0  0  0  0  0  0
    2.4306    0.0147    0.7011 O   0  0  0  0  0  0  0  0  0  0  0  0
    0.4145    0.4899    1.5791 N   0  0  0  0  0  0  0  0  0  0  0  0
   -0.5387    0.7543    1.3492 H   0  0  0  0  0  0  0  0  0  0  0  0
    0.9087    0.6999    2.9332 C   0  0  0  0  0  0  0  0  0  0  0  0
    1.6102    1.5402    2.9588 H   0  0  0  0  0  0  0  0  0  0  0  0
    0.0772    0.9200    3.6094 H   0  0  0  0  0  0  0  0  0  0  0  0
    1.4198   -0.1977    3.2973 H   0  0  0  0  0  0  0  0  0  0  0  0
  1  2  1  0  0  0  0
  2  3  1  0  0  0  0
  2  4  1  0  0  0  0
  2  5  1  0  0  0  0
  5  6  2  0  0  0  0
  5  7  1  0  0  0  0
  7  8  1  0  0  0  0
  7  9  1  0  0  0  0
  9 10  1  0  0  0  0
  9 11  1  0  0  0  0
  9 16  1  0  0  0  0
 11 12  1  0  0  0  0
 11 13  1  0  0  0  0
 11 14  1  0  0  0  0
 14 15  1  0  0  0  0
 16 17  2  0  0  0  0
 16 18  1  0  0  0  0
 18 19  1  0  0  0  0
 18 20  1  0  0  0  0
 20 21  1  0  0  0  0
 20 22  1  0  0  0  0
 20 23  1  0  0  0  0
M  END
$$$$

  -OEChem-04042216033D

 23 22  0     1  0  0  0  0  0999 V2000
   -2.3941   -3.3908   -0.4760 H   0  0  0  0  0  0  0  0  0  0  0  0
   -2.3693   -2.3295   -0.7400 C   0  0  0  0  0  0  0  0  0  0  0  0
   -2.9637   -1.7722   -0.0122 H   0  0  0  0  0  0  0  0  0  0  0  0
   -2.8075   -2.2041   -1.7329 H   0  0  0  0  0  0  0  0  0  0  0  0
   -0.9385   -1.8255   -0.7378 C   0  0  0  0  0  0  0  0  0  0  0  0
   -0.0261   -2.5837   -0.4621 O   0  0  0  0  0  0  0  0  0  0  0  0
   -0.6721   -0.5101   -1.0549 N   0  0  0  0  0  0  0  0  0  0  0  0
   -1.4689    0.1103   -1.1710 H   0  0  0  0  0  0  0  0  0  0  0  0
    0.6526    0.1196   -0.9034 C   0  0  1  0  0  0  0  0  0  0  0  0
    1.3693   -0.4376   -1.5163 H   0  0  0  0  0  0  0  0  0  0  0  0
    0.5640    1.5468   -1.4497 C   0  0  0  0  0  0  0  0  0  0  0  0
    1.5425    2.0313   -1.3617 H   0  0  0  0  0  0  0  0  0  0  0  0
    0.3000    1.5196   -2.5121 H   0  0  0  0  0  0  0  0  0  0  0  0
   -0.4189    2.3058   -0.7278 O   0  0  0  0  0  0  0  0  0  0  0  0
   -0.3984    3.2394   -1.0072 H   0  0  0  0  0  0  0  0  0  0  0  0
    1.2193    0.1330    0.5303 C   0  0  0  0  0  0  0  0  0  0  0  0
    2.4223   -0.0062    0.7129 O   0  0  0  0  0  0  0  0  0  0  0  0
    0.4117    0.4876    1.5958 N   0  0  0  0  0  0  0  0  0  0  0  0
   -0.5186    0.8177    1.3564 H   0  0  0  0  0  0  0  0  0  0  0  0
    0.9151    0.6982    2.9465 C   0  0  0  0  0  0  0  0  0  0  0  0
    1.6143    1.5404    2.9685 H   0  0  0  0  0  0  0  0  0  0  0  0
    0.0874    0.9146    3.6284 H   0  0  0  0  0  0  0  0  0  0  0  0
    1.4312   -0.1982    3.3064 H   0  0  0  0  0  0  0  0  0  0  0  0
  1  2  1  0  0  0  0
  2  3  1  0  0  0  0
  2  4  1  0  0  0  0
  2  5  1  0  0  0  0
  5  6  2  0  0  0  0
  5  7  1  0  0  0  0
  7  8  1  0  0  0  0
  7  9  1  0  0  0  0
  9 10  1  0  0  0  0
  9 11  1  0  0  0  0
  9 16  1  0  0  0  0
 11 12  1  0  0  0  0
 11 13  1  0  0  0  0
 11 14  1  0  0  0  0
 14 15  1  0  0  0  0
 16 17  2  0  0  0  0
 16 18  1  0  0  0  0
 18 19  1  0  0  0  0
 18 20  1  0  0  0  0
 20 21  1  0  0  0  0
 20 22  1  0  0  0  0
 20 23  1  0  0  0  0
M  END
$$$$

  -OEChem-04042216033D

 23 22  0     1  0  0  0  0  0999 V2000
   -2.3874   -3.4108   -0.5136 H   0  0  0  0  0  0  0  0  0  0  0  0
   -2.3726   -2.3460   -0.7631 C   0  0  0  0  0  0  0  0  0  0  0  0
   -2.9799   -1.8054   -0.0333 H   0  0  0  0  0  0  0  0  0  0  0  0
   -2.8031   -2.2123   -1.7585 H   0  0  0  0  0  0  0  0  0  0  0  0
   -0.9475   -1.8265   -0.7406 C   0  0  0  0  0  0  0  0  0  0  0  0
   -0.0298   -2.5790   -0.4676 O   0  0  0  0  0  0  0  0  0  0  0  0
   -0.6923   -0.5051   -1.0435 N   0  0  0  0  0  0  0  0  0  0  0  0
   -1.4964    0.1033   -1.1662 H   0  0  0  0  0  0  0  0  0  0  0  0
    0.6284    0.1317   -0.8817 C   0  0  1  0  0  0  0  0  0  0  0  0
    1.3394   -0.4383   -1.4896 H   0  0  0  0  0  0  0  0  0  0  0  0
    0.5571    1.5456   -1.4672 C   0  0  0  0  0  0  0  0  0  0  0  0
    1.5766    1.9262   -1.5918 H   0  0  0  0  0  0  0  0  0  0  0  0
    0.0890    1.5209   -2.4567 H   0  0  0  0  0  0  0  0  0  0  0  0
   -0.1664    2.4307   -0.6007 O   0  0  0  0  0  0  0  0  0  0  0  0
   -0.0812    3.3522   -0.9059 H   0  0  0  0  0  0  0  0  0  0  0  0
    1.2067    0.1417    0.5486 C   0  0  0  0  0  0  0  0  0  0  0  0
    2.4100   -0.0111    0.7192 O   0  0  0  0  0  0  0  0  0  0  0  0
    0.4106    0.4822    1.6278 N   0  0  0  0  0  0  0  0  0  0  0  0
   -0.5088    0.8462    1.3979 H   0  0  0  0  0  0  0  0  0  0  0  0
    0.9393    0.6984    2.9678 C   0  0  0  0  0  0  0  0  0  0  0  0
    1.6470    1.5338    2.9706 H   0  0  0  0  0  0  0  0  0  0  0  0
    0.1261    0.9287    3.6625 H   0  0  0  0  0  0  0  0  0  0  0  0
    1.4532   -0.2000    3.3256 H   0  0  0  0  0  0  0  0  0  0  0  0
  1  2  1  0  0  0  0
  2  3  1  0  0  0  0
  2  4  1  0  0  0  0
  2  5  1  0  0  0  0
  5  6  2  0  0  0  0
  5  7  1  0  0  0  0
  7  8  1  0  0  0  0
  7  9  1  0  0  0  0
  9 10  1  0  0  0  0
  9 11  1  0  0  0  0
  9 16  1  0  0  0  0
 11 12  1  0  0  0  0
 11 13  1  0  0  0  0
 11 14  1  0  0  0  0
 14 15  1  0  0  0  0
 16 17  2  0  0  0  0
 16 18  1  0  0  0  0
 18 19  1  0  0  0  0
 18 20  1  0  0  0  0
 20 21  1  0  0  0  0
 20 22  1  0  0  0  0
 20 23  1  0  0  0  0
M  END
$$$$

  -OEChem-04042216033D

 23 22  0     1  0  0  0  0  0999 V2000
   -2.3787   -3.4231   -0.5309 H   0  0  0  0  0  0  0  0  0  0  0  0
   -2.3718   -2.3560   -0.7706 C   0  0  0  0  0  0  0  0  0  0  0  0
   -2.9893   -1.8280   -0.0401 H   0  0  0  0  0  0  0  0  0  0  0  0
   -2.7966   -2.2173   -1.7677 H   0  0  0  0  0  0  0  0  0  0  0  0
   -0.9518   -1.8234   -0.7332 C   0  0  0  0  0  0  0  0  0  0  0  0
   -0.0298   -2.5684   -0.4549 O   0  0  0  0  0  0  0  0  0  0  0  0
   -0.7078   -0.4979   -1.0283 N   0  0  0  0  0  0  0  0  0  0  0  0
   -1.5177    0.0985   -1.1669 H   0  0  0  0  0  0  0  0  0  0  0  0
    0.6092    0.1487   -0.8669 C   0  0  1  0  0  0  0  0  0  0  0  0
    1.3146   -0.4339   -1.4695 H   0  0  0  0  0  0  0  0  0  0  0  0
    0.5528    1.5512   -1.4894 C   0  0  0  0  0  0  0  0  0  0  0  0
    1.5587    1.8112   -1.8358 H   0  0  0  0  0  0  0  0  0  0  0  0
   -0.1073    1.5572   -2.3631 H   0  0  0  0  0  0  0  0  0  0  0  0
    0.1363    2.5446   -0.5443 O   0  0  0  0  0  0  0  0  0  0  0  0
    0.2771    3.4399   -0.9017 H   0  0  0  0  0  0  0  0  0  0  0  0
    1.1979    0.1567    0.5605 C   0  0  0  0  0  0  0  0  0  0  0  0
    2.4004   -0.0118    0.7232 O   0  0  0  0  0  0  0  0  0  0  0  0
    0.4092    0.4846    1.6496 N   0  0  0  0  0  0  0  0  0  0  0  0
   -0.5078    0.8603    1.4317 H   0  0  0  0  0  0  0  0  0  0  0  0
    0.9505    0.6823    2.9876 C   0  0  0  0  0  0  0  0  0  0  0  0
    1.6528    1.5224    2.9963 H   0  0  0  0  0  0  0  0  0  0  0  0
    0.1430    0.8952    3.6942 H   0  0  0  0  0  0  0  0  0  0  0  0
    1.4740   -0.2184    3.3254 H   0  0  0  0  0  0  0  0  0  0  0  0
  1  2  1  0  0  0  0
  2  3  1  0  0  0  0
  2  4  1  0  0  0  0
  2  5  1  0  0  0  0
  5  6  2  0  0  0  0
  5  7  1  0  0  0  0
  7  8  1  0  0  0  0
  7  9  1  0  0  0  0
  9 10  1  0  0  0  0
  9 11  1  0  0  0  0
  9 16  1  0  0  0  0
 11 12  1  0  0  0  0
 11 13  1  0  0  0  0
 11 14  1  0  0  0  0
 14 15  1  0  0  0  0
 16 17  2  0  0  0  0
 16 18  1  0  0  0  0
 18 19  1  0  0  0  0
 18 20  1  0  0  0  0
 20 21  1  0  0  0  0
 20 22  1  0  0  0  0
 20 23  1  0  0  0  0
M  END
$$$$

  -OEChem-04042216033D

 23 22  0     1  0  0  0  0  0999 V2000
   -2.3667   -3.4257   -0.5226 H   0  0  0  0  0  0  0  0  0  0  0  0
   -2.3658   -2.3589   -0.7642 C   0  0  0  0  0  0  0  0  0  0  0  0
   -2.9895   -1.8341   -0.0368 H   0  0  0  0  0  0  0  0  0  0  0  0
   -2.7882   -2.2249   -1.7629 H   0  0  0  0  0  0  0  0  0  0  0  0
   -0.9493   -1.8170   -0.7221 C   0  0  0  0  0  0  0  0  0  0  0  0
   -0.0241   -2.5564   -0.4405 O   0  0  0  0  0  0  0  0  0  0  0  0
   -0.7126   -0.4897   -1.0169 N   0  0  0  0  0  0  0  0  0  0  0  0
   -1.5259    0.0973   -1.1731 H   0  0  0  0  0  0  0  0  0  0  0  0
    0.6031    0.1647   -0.8630 C   0  0  1  0  0  0  0  0  0  0  0  0
    1.3070   -0.4248   -1.4607 H   0  0  0  0  0  0  0  0  0  0  0  0
    0.5498    1.5620   -1.5083 C   0  0  0  0  0  0  0  0  0  0  0  0
    1.4701    1.7022   -2.0850 H   0  0  0  0  0  0  0  0  0  0  0  0
   -0.2872    1.6314   -2.2109 H   0  0  0  0  0  0  0  0  0  0  0  0
    0.4713    2.6194   -0.5459 O   0  0  0  0  0  0  0  0  0  0  0  0
    0.6478    3.4818   -0.9624 H   0  0  0  0  0  0  0  0  0  0  0  0
    1.1952    0.1709    0.5640 C   0  0  0  0  0  0  0  0  0  0  0  0
    2.3945   -0.0204    0.7277 O   0  0  0  0  0  0  0  0  0  0  0  0
    0.4073    0.4919    1.6560 N   0  0  0  0  0  0  0  0  0  0  0  0
   -0.5158    0.8565    1.4485 H   0  0  0  0  0  0  0  0  0  0  0  0
    0.9468    0.6617    2.9983 C   0  0  0  0  0  0  0  0  0  0  0  0
    1.6600    1.4922    3.0220 H   0  0  0  0  0  0  0  0  0  0  0  0
    0.1403    0.8747    3.7061 H   0  0  0  0  0  0  0  0  0  0  0  0
    1.4575   -0.2511    3.3231 H   0  0  0  0  0  0  0  0  0  0  0  0
  1  2  1  0  0  0  0
  2  3  1  0  0  0  0
  2  4  1  0  0  0  0
  2  5  1  0  0  0  0
  5  6  2  0  0  0  0
  5  7  1  0  0  0  0
  7  8  1  0  0  0  0
  7  9  1  0  0  0  0
  9 10  1  0  0  0  0
  9 11  1  0  0  0  0
  9 16  1  0  0  0  0
 11 12  1  0  0  0  0
 11 13  1  0  0  0  0
 11 14  1  0  0  0  0
 14 15  1  0  0  0  0
 16 17  2  0  0  0  0
 16 18  1  0  0  0  0
 18 19  1  0  0  0  0
 18 20  1  0  0  0  0
 20 21  1  0  0  0  0
 20 22  1  0  0  0  0
 20 23  1  0  0  0  0
M  END
$$$$

  -OEChem-04042216033D

 23 22  0     1  0  0  0  0  0999 V2000
   -2.3609   -3.4175   -0.5033 H   0  0  0  0  0  0  0  0  0  0  0  0
   -2.3595   -2.3529   -0.7547 C   0  0  0  0  0  0  0  0  0  0  0  0
   -2.9919   -1.8221   -0.0392 H   0  0  0  0  0  0  0  0  0  0  0  0
   -2.7706   -2.2293   -1.7595 H   0  0  0  0  0  0  0  0  0  0  0  0
   -0.9445   -1.8086   -0.7013 C   0  0  0  0  0  0  0  0  0  0  0  0
   -0.0225   -2.5452   -0.4044 O   0  0  0  0  0  0  0  0  0  0  0  0
   -0.7062   -0.4837   -1.0067 N   0  0  0  0  0  0  0  0  0  0  0  0
   -1.5170    0.0956   -1.1984 H   0  0  0  0  0  0  0  0  0  0  0  0
    0.6129    0.1705   -0.8702 C   0  0  1  0  0  0  0  0  0  0  0  0
    1.3188   -0.4180   -1.4668 H   0  0  0  0  0  0  0  0  0  0  0  0
    0.5489    1.5713   -1.5171 C   0  0  0  0  0  0  0  0  0  0  0  0
    1.2926    1.6082   -2.3199 H   0  0  0  0  0  0  0  0  0  0  0  0
   -0.4306    1.7379   -1.9767 H   0  0  0  0  0  0  0  0  0  0  0  0
    0.8253    2.6384   -0.6044 O   0  0  0  0  0  0  0  0  0  0  0  0
    0.9765    3.4751   -1.0786 H   0  0  0  0  0  0  0  0  0  0  0  0
    1.2012    0.1746    0.5599 C   0  0  0  0  0  0  0  0  0  0  0  0
    2.3940   -0.0474    0.7336 O   0  0  0  0  0  0  0  0  0  0  0  0
    0.4095    0.4995    1.6486 N   0  0  0  0  0  0  0  0  0  0  0  0
   -0.5236    0.8384    1.4453 H   0  0  0  0  0  0  0  0  0  0  0  0
    0.9382    0.6482    2.9977 C   0  0  0  0  0  0  0  0  0  0  0  0
    1.6620    1.4690    3.0362 H   0  0  0  0  0  0  0  0  0  0  0  0
    0.1279    0.8654    3.6999 H   0  0  0  0  0  0  0  0  0  0  0  0
    1.4334   -0.2746    3.3185 H   0  0  0  0  0  0  0  0  0  0  0  0
  1  2  1  0  0  0  0
  2  3  1  0  0  0  0
  2  4  1  0  0  0  0
  2  5  1  0  0  0  0
  5  6  2  0  0  0  0
  5  7  1  0  0  0  0
  7  8  1  0  0  0  0
  7  9  1  0  0  0  0
  9 10  1  0  0  0  0
  9 11  1  0  0  0  0
  9 16  1  0  0  0  0
 11 12  1  0  0  0  0
 11 13  1  0  0  0  0
 11 14  1  0  0  0  0
 14 15  1  0  0  0  0
 16 17  2  0  0  0  0
 16 18  1  0  0  0  0
 18 19  1  0  0  0  0
 18 20  1  0  0  0  0
 20 21  1  0  0  0  0
 20 22  1  0  0  0  0
 20 23  1  0  0  0  0
M  END
$$$$

  -OEChem-04042216033D

 23 22  0     1  0  0  0  0  0999 V2000
   -2.3659   -3.4004   -0.4668 H   0  0  0  0  0  0  0  0  0  0  0  0
   -2.3534   -2.3436   -0.7491 C   0  0  0  0  0  0  0  0  0  0  0  0
   -3.0120   -1.7924   -0.0739 H   0  0  0  0  0  0  0  0  0  0  0  0
   -2.7265   -2.2494   -1.7717 H   0  0  0  0  0  0  0  0  0  0  0  0
   -0.9407   -1.7972   -0.6593 C   0  0  0  0  0  0  0  0  0  0  0  0
   -0.0303   -2.5258   -0.3121 O   0  0  0  0  0  0  0  0  0  0  0  0
   -0.6926   -0.4804   -0.9921 N   0  0  0  0  0  0  0  0  0  0  0  0
   -1.4902    0.0799   -1.2739 H   0  0  0  0  0  0  0  0  0  0  0  0
    0.6326    0.1695   -0.8853 C   0  0  1  0  0  0  0  0  0  0  0  0
    1.3425   -0.4123   -1.4831 H   0  0  0  0  0  0  0  0  0  0  0  0
    0.5431    1.5755   -1.5205 C   0  0  0  0  0  0  0  0  0  0  0  0
    1.0194    1.5411   -2.5057 H   0  0  0  0  0  0  0  0  0  0  0  0
   -0.5051    1.8517   -1.6744 H   0  0  0  0  0  0  0  0  0  0  0  0
    1.1603    2.6040   -0.7411 O   0  0  0  0  0  0  0  0  0  0  0  0
    1.2286    3.4357   -1.2417 H   0  0  0  0  0  0  0  0  0  0  0  0
    1.2173    0.1851    0.5471 C   0  0  0  0  0  0  0  0  0  0  0  0
    2.4017   -0.0685    0.7332 O   0  0  0  0  0  0  0  0  0  0  0  0
    0.4244    0.5298    1.6291 N   0  0  0  0  0  0  0  0  0  0  0  0
   -0.5273    0.8150    1.4316 H   0  0  0  0  0  0  0  0  0  0  0  0
    0.9341    0.6354    2.9895 C   0  0  0  0  0  0  0  0  0  0  0  0
    1.7051    1.4109    3.0492 H   0  0  0  0  0  0  0  0  0  0  0  0
    0.1250    0.8963    3.6781 H   0  0  0  0  0  0  0  0  0  0  0  0
    1.3669   -0.3180    3.3108 H   0  0  0  0  0  0  0  0  0  0  0  0
  1  2  1  0  0  0  0
  2  3  1  0  0  0  0
  2  4  1  0  0  0  0
  2  5  1  0  0  0  0
  5  6  2  0  0  0  0
  5  7  1  0  0  0  0
  7  8  1  0  0  0  0
  7  9  1  0  0  0  0
  9 10  1  0  0  0  0
  9 11  1  0  0  0  0
  9 16  1  0  0  0  0
 11 12  1  0  0  0  0
 11 13  1  0  0  0  0
 11 14  1  0  0  0  0
 14 15  1  0  0  0  0
 16 17  2  0  0  0  0
 16 18  1  0  0  0  0
 18 19  1  0  0  0  0
 18 20  1  0  0  0  0
 20 21  1  0  0  0  0
 20 22  1  0  0  0  0
 20 23  1  0  0  0  0
M  END
$$$$

  -OEChem-04042216033D

 23 22  0     1  0  0  0  0  0999 V2000
   -2.3565   -3.3859   -0.4259 H   0  0  0  0  0  0  0  0  0  0  0  0
   -2.3412   -2.3369   -0.7358 C   0  0  0  0  0  0  0  0  0  0  0  0
   -3.0330   -1.7744   -0.1044 H   0  0  0  0  0  0  0  0  0  0  0  0
   -2.6707   -2.2739   -1.7756 H   0  0  0  0  0  0  0  0  0  0  0  0
   -0.9386   -1.7748   -0.5989 C   0  0  0  0  0  0  0  0  0  0  0  0
   -0.0449   -2.4797   -0.1702 O   0  0  0  0  0  0  0  0  0  0  0  0
   -0.6831   -0.4703   -0.9735 N   0  0  0  0  0  0  0  0  0  0  0  0
   -1.4568    0.0503   -1.3737 H   0  0  0  0  0  0  0  0  0  0  0  0
    0.6487    0.1736   -0.9042 C   0  0  1  0  0  0  0  0  0  0  0  0
    1.3566   -0.4067   -1.5055 H   0  0  0  0  0  0  0  0  0  0  0  0
    0.5313    1.5788   -1.5307 C   0  0  0  0  0  0  0  0  0  0  0  0
    0.7001    1.5008   -2.6097 H   0  0  0  0  0  0  0  0  0  0  0  0
   -0.4830    1.9630   -1.3809 H   0  0  0  0  0  0  0  0  0  0  0  0
    1.4400    2.5304   -0.9713 O   0  0  0  0  0  0  0  0  0  0  0  0
    1.4148    3.3757   -1.4520 H   0  0  0  0  0  0  0  0  0  0  0  0
    1.2388    0.2192    0.5257 C   0  0  0  0  0  0  0  0  0  0  0  0
    2.4169   -0.0555    0.7216 O   0  0  0  0  0  0  0  0  0  0  0  0
    0.4485    0.5979    1.5983 N   0  0  0  0  0  0  0  0  0  0  0  0
   -0.5327    0.7672    1.4116 H   0  0  0  0  0  0  0  0  0  0  0  0
    0.9261    0.6109    2.9744 C   0  0  0  0  0  0  0  0  0  0  0  0
    1.7895    1.2772    3.0736 H   0  0  0  0  0  0  0  0  0  0  0  0
    0.1382    0.9652    3.6456 H   0  0  0  0  0  0  0  0  0  0  0  0
    1.2207   -0.3969    3.2856 H   0  0  0  0  0  0  0  0  0  0  0  0
  1  2  1  0  0  0  0
  2  3  1  0  0  0  0
  2  4  1  0  0  0  0
  2  5  1  0  0  0  0
  5  6  2  0  0  0  0
  5  7  1  0  0  0  0
  7  8  1  0  0  0  0
  7  9  1  0  0  0  0
  9 10  1  0  0  0  0
  9 11  1  0  0  0  0
  9 16  1  0  0  0  0
 11 12  1  0  0  0  0
 11 13  1  0  0  0  0
 11 14  1  0  0  0  0
 14 15  1  0  0  0  0
 16 17  2  0  0  0  0
 16 18  1  0  0  0  0
 18 19  1  0  0  0  0
 18 20  1  0  0  0  0
 20 21  1  0  0  0  0
 20 22  1  0  0  0  0
 20 23  1  0  0  0  0
M  END
$$$$

  -OEChem-04042216033D

 23 22  0     1  0  0  0  0  0999 V2000
   -2.3640   -3.3860   -0.4279 H   0  0  0  0  0  0  0  0  0  0  0  0
   -2.3443   -2.3400   -0.7478 C   0  0  0  0  0  0  0  0  0  0  0  0
   -3.0613   -1.7755   -0.1470 H   0  0  0  0  0  0  0  0  0  0  0  0
   -2.6380   -2.2896   -1.7988 H   0  0  0  0  0  0  0  0  0  0  0  0
   -0.9509   -1.7672   -0.5686 C   0  0  0  0  0  0  0  0  0  0  0  0
   -0.0746   -2.4545   -0.0797 O   0  0  0  0  0  0  0  0  0  0  0  0
   -0.6874   -0.4705   -0.9644 N   0  0  0  0  0  0  0  0  0  0  0  0
   -1.4374    0.0188   -1.4420 H   0  0  0  0  0  0  0  0  0  0  0  0
    0.6495    0.1639   -0.9122 C   0  0  1  0  0  0  0  0  0  0  0  0
    1.3507   -0.4133   -1.5240 H   0  0  0  0  0  0  0  0  0  0  0  0
    0.5165    1.5716   -1.5198 C   0  0  0  0  0  0  0  0  0  0  0  0
    0.3982    1.4848   -2.6047 H   0  0  0  0  0  0  0  0  0  0  0  0
   -0.3819    2.0547   -1.1214 H   0  0  0  0  0  0  0  0  0  0  0  0
    1.6372    2.4082   -1.2270 O   0  0  0  0  0  0  0  0  0  0  0  0
    1.5567    3.2792   -1.6523 H   0  0  0  0  0  0  0  0  0  0  0  0
    1.2500    0.2274    0.5122 C   0  0  0  0  0  0  0  0  0  0  0  0
    2.4280   -0.0459    0.7092 O   0  0  0  0  0  0  0  0  0  0  0  0
    0.4648    0.6295    1.5802 N   0  0  0  0  0  0  0  0  0  0  0  0
   -0.5273    0.7319    1.4021 H   0  0  0  0  0  0  0  0  0  0  0  0
    0.9405    0.6271    2.9572 C   0  0  0  0  0  0  0  0  0  0  0  0
    1.8305    1.2575    3.0557 H   0  0  0  0  0  0  0  0  0  0  0  0
    0.1672    1.0173    3.6253 H   0  0  0  0  0  0  0  0  0  0  0  0
    1.1924   -0.3909    3.2725 H   0  0  0  0  0  0  0  0  0  0  0  0
  1  2  1  0  0  0  0
  2  3  1  0  0  0  0
  2  4  1  0  0  0  0
  2  5  1  0  0  0  0
  5  6  2  0  0  0  0
  5  7  1  0  0  0  0
  7  8  1  0  0  0  0
  7  9  1  0  0  0  0
  9 10  1  0  0  0  0
  9 11  1  0  0  0  0
  9 16  1  0  0  0  0
 11 12  1  0  0  0  0
 11 13  1  0  0  0  0
 11 14  1  0  0  0  0
 14 15  1  0  0  0  0
 16 17  2  0  0  0  0
 16 18  1  0  0  0  0
 18 19  1  0  0  0  0
 18 20  1  0  0  0  0
 20 21  1  0  0  0  0
 20 22  1  0  0  0  0
 20 23  1  0  0  0  0
M  END
$$$$
