@<TRIPOS>MOLECULE
default_name
   31    30     1     0     0
SMALL
No Charge or Current Charge


@<TRIPOS>ATOM
      1 H1          25.6800    25.1830    24.3020 H          1 ACE       0.112300
      2 CH3         25.7930    26.2530    24.1350 C.3        1 ACE      -0.366200
      3 H2          25.3030    26.8050    24.9350 H          1 ACE       0.112300
      4 H3          25.3580    26.5280    23.1760 H          1 ACE       0.112300
      5 C           27.2650    26.5980    24.1290 C.2        1 ACE       0.597200
      6 O           28.0980    25.7100    24.2890 O.2        1 ACE      -0.567900
      7 N           27.5680    27.8810    23.9300 N.am       2 CAR      -0.567900
      8 H           26.8160    28.5500    23.8130 H          2 CAR      -0.567900
      9 CA          28.9030    28.4930    23.9720 C.3        2 CAR      -0.567900
     10 HA          29.4550    28.1070    24.8270 H          2 CAR      -0.567900
     11 CB          29.6610    28.1680    22.6720 C.3        2 CAR      -0.567900
     12 HB2         29.7920    27.0870    22.5980 H          2 CAR      -0.567900
     13 HB3         29.0790    28.5150    21.8160 H          2 CAR      -0.567900
     14 CG          31.0350    28.8460    22.6570 C.3        2 CAR      -0.567900
     15 HG2         30.9030    29.9270    22.5950 H          2 CAR      -0.567900
     16 HG3         31.5690    28.6040    23.5780 H          2 CAR      -0.567900
     17 CD          31.8840    28.4190    21.4640 C.3        2 CAR      -0.567900
     18 HD2         32.1070    27.3540    21.5480 H          2 CAR      -0.567900
     19 HD3         31.3210    28.6010    20.5460 H          2 CAR      -0.567900
     20 NE          33.1310    29.2010    21.4440 N.3        2 CAR      -0.567900
     21 HE          33.2090    29.8970    22.1690 H          2 CAR      -0.567900
     22 CZ          34.1120    29.1070    20.5750 C.cat      2 CAR      -0.567900
     23 NH1         34.0870    28.2450    19.5990 N.3        2 CAR      -0.567900
     24 HH11        33.2850    27.6450    19.5240 H          2 CAR      -0.567900
     25 HH12        34.8390    28.1840    18.9410 H          2 CAR      -0.567900
     26 NH2         35.1480    29.8890    20.6730 N.3        2 CAR      -0.567900
     27 HH21        35.1820    30.5660    21.4150 H          2 CAR      -0.567900
     28 HH22        35.8970    29.8240    20.0120 H          2 CAR      -0.567900
     29 C           28.7780    30.0030    24.1890 C.2        2 CAR      -0.567900
     30 O           27.7470    30.5470    23.7400 O.co2      2 CAR      -0.567900
     31 OXT         29.7390    30.5660    24.7530 O.co2      2 CAR      -0.567900
@<TRIPOS>BOND
     1     5     6 2   
     2     5     7 am  
     3     2     3 1   
     4     2     4 1   
     5     2     5 1   
     6     1     2 1   
     7    29    30 1   
     8    29    31 1   
     9    26    27 1   
    10    26    28 1   
    11    23    24 1   
    12    23    25 1   
    13    22    23 1   
    14    22    26 1   
    15    20    21 1   
    16    20    22 2   
    17    17    18 1   
    18    17    19 1   
    19    17    20 1   
    20    14    15 1   
    21    14    16 1   
    22    14    17 1   
    23    11    12 1   
    24    11    13 1   
    25    11    14 1   
    26     9    10 1   
    27     9    11 1   
    28     9    29 1   
    29     7     8 1   
    30     7     9 1   
@<TRIPOS>SUBSTRUCTURE
     1 ACE         1 TEMP              0 ****  ****    0 ROOT
