
  -OEChem-02062319033D

 46 45  0     1  0  0  0  0  0999 V2000
   -0.0543    1.9736    3.8406 C   0  0  0  0  0  0  0  0  0  0  0  0
    0.6744    1.6099    4.7562 O   0  0  0  0  0  0  0  0  0  0  0  0
   -0.5599    3.3779    3.8160 C   0  0  0  0  0  0  0  0  0  0  0  0
   -1.5202    3.4885    4.3450 H   0  0  0  0  0  0  0  0  0  0  0  0
    0.1282    4.0814    4.3116 H   0  0  0  0  0  0  0  0  0  0  0  0
   -0.7317    3.7994    2.8126 H   0  0  0  0  0  0  0  0  0  0  0  0
   -0.4812    1.1968    2.7762 N   0  0  0  0  0  0  0  0  0  0  0  0
   -0.1106   -0.1834    2.6051 C   0  0  2  0  0  0  0  0  0  0  0  0
   -0.0696   -0.4775    1.1113 C   0  0  0  0  0  0  0  0  0  0  0  0
   -0.6805    0.1900    0.2792 O   0  0  0  0  0  0  0  0  0  0  0  0
   -1.0852   -1.1101    3.3150 C   0  0  0  0  0  0  0  0  0  0  0  0
   -1.0883    1.6241    2.0791 H   0  0  0  0  0  0  0  0  0  0  0  0
    0.8937   -0.2959    3.0277 H   0  0  0  0  0  0  0  0  0  0  0  0
   -2.0970   -1.0114    2.9051 H   0  0  0  0  0  0  0  0  0  0  0  0
   -0.7860   -2.1580    3.2078 H   0  0  0  0  0  0  0  0  0  0  0  0
   -1.1357   -0.8775    4.3842 H   0  0  0  0  0  0  0  0  0  0  0  0
    0.6950   -1.6003    0.8178 N   0  0  0  0  0  0  0  0  0  0  0  0
    0.8875   -2.0838   -0.5257 C   0  0  2  0  0  0  0  0  0  0  0  0
   -0.4852   -2.4227   -1.0932 C   0  0  0  0  0  0  0  0  0  0  0  0
   -0.8293   -2.1327   -2.2374 O   0  0  0  0  0  0  0  0  0  0  0  0
    1.8033   -3.3074   -0.5649 C   0  0  0  0  0  0  0  0  0  0  0  0
    3.2500   -2.9813   -0.2383 C   0  0  0  0  0  0  0  0  0  0  0  0
    3.8444   -1.9933   -0.6592 O   0  0  0  0  0  0  0  0  0  0  0  0
    3.8228   -3.9211    0.5923 N   0  0  0  0  0  0  0  0  0  0  0  0
    1.1738   -2.0854    1.5730 H   0  0  0  0  0  0  0  0  0  0  0  0
    1.3143   -1.2525   -1.0989 H   0  0  0  0  0  0  0  0  0  0  0  0
    1.4691   -4.0553    0.1653 H   0  0  0  0  0  0  0  0  0  0  0  0
    1.7682   -3.7829   -1.5535 H   0  0  0  0  0  0  0  0  0  0  0  0
    3.2917   -4.7214    0.9190 H   0  0  0  0  0  0  0  0  0  0  0  0
    4.7854   -3.8528    0.9070 H   0  0  0  0  0  0  0  0  0  0  0  0
   -1.2656   -3.1314   -0.1906 N   0  0  0  0  0  0  0  0  0  0  0  0
   -2.5964   -3.5836   -0.5186 C   0  0  2  0  0  0  0  0  0  0  0  0
   -2.5014   -4.4676   -1.7551 C   0  0  0  0  0  0  0  0  0  0  0  0
   -1.5679   -4.4074   -2.5526 O   0  0  0  0  0  0  0  0  0  0  0  0
   -3.5353   -2.4117   -0.7591 C   0  0  0  0  0  0  0  0  0  0  0  0
   -0.8968   -3.3515    0.7299 H   0  0  0  0  0  0  0  0  0  0  0  0
   -2.9463   -4.1797    0.3312 H   0  0  0  0  0  0  0  0  0  0  0  0
   -3.2010   -1.8028   -1.6070 H   0  0  0  0  0  0  0  0  0  0  0  0
   -4.5511   -2.7560   -0.9797 H   0  0  0  0  0  0  0  0  0  0  0  0
   -3.5794   -1.7607    0.1207 H   0  0  0  0  0  0  0  0  0  0  0  0
   -3.6029   -5.3016   -1.8863 N   0  0  0  0  0  0  0  0  0  0  0  0
   -3.7539   -6.2267   -2.9851 C   0  0  0  0  0  0  0  0  0  0  0  0
   -4.3206   -5.2983   -1.1675 H   0  0  0  0  0  0  0  0  0  0  0  0
   -4.3207   -5.7450   -3.7954 H   0  0  0  0  0  0  0  0  0  0  0  0
   -2.7609   -6.5200   -3.3565 H   0  0  0  0  0  0  0  0  0  0  0  0
   -4.2949   -7.1202   -2.6403 H   0  0  0  0  0  0  0  0  0  0  0  0
  1  3  1  0  0  0  0
  1  7  1  0  0  0  0
  1  2  2  0  0  0  0
 21 22  1  0  0  0  0
 22 24  1  0  0  0  0
 22 23  2  0  0  0  0
 32 33  1  0  0  0  0
 33 41  1  0  0  0  0
 33 34  2  0  0  0  0
  8  9  1  0  0  0  0
  9 17  1  0  0  0  0
  9 10  2  0  0  0  0
 18 19  1  0  0  0  0
 19 31  1  0  0  0  0
 19 20  2  0  0  0  0
 32 35  1  0  0  0  0
  8 11  1  0  0  0  0
 41 42  1  0  0  0  0
 18 21  1  0  0  0  0
 31 32  1  0  0  0  0
  7  8  1  0  0  0  0
 17 18  1  0  0  0  0
  3  4  1  0  0  0  0
  3  5  1  0  0  0  0
  3  6  1  0  0  0  0
 35 38  1  0  0  0  0
 35 39  1  0  0  0  0
 35 40  1  0  0  0  0
 11 14  1  0  0  0  0
 11 15  1  0  0  0  0
 11 16  1  0  0  0  0
 42 44  1  0  0  0  0
 42 45  1  0  0  0  0
 42 46  1  0  0  0  0
 21 27  1  0  0  0  0
 21 28  1  0  0  0  0
 32 37  1  0  0  0  0
  8 13  1  0  0  0  0
 18 26  1  0  0  0  0
 24 29  1  0  0  0  0
 24 30  1  0  0  0  0
 41 43  1  0  0  0  0
  7 12  1  0  0  0  0
 31 36  1  0  0  0  0
 17 25  1  0  0  0  0
M  END
$$$$

  -OEChem-02062319033D

 46 45  0     1  0  0  0  0  0999 V2000
   -0.0543    1.9736    3.8406 C   0  0  0  0  0  0  0  0  0  0  0  0
    0.6744    1.6099    4.7562 O   0  0  0  0  0  0  0  0  0  0  0  0
   -0.5599    3.3779    3.8160 C   0  0  0  0  0  0  0  0  0  0  0  0
   -1.5202    3.4885    4.3450 H   0  0  0  0  0  0  0  0  0  0  0  0
    0.1282    4.0814    4.3116 H   0  0  0  0  0  0  0  0  0  0  0  0
   -0.7317    3.7994    2.8126 H   0  0  0  0  0  0  0  0  0  0  0  0
   -0.4812    1.1968    2.7762 N   0  0  0  0  0  0  0  0  0  0  0  0
   -0.1106   -0.1834    2.6051 C   0  0  2  0  0  0  0  0  0  0  0  0
   -0.0696   -0.4775    1.1113 C   0  0  0  0  0  0  0  0  0  0  0  0
   -0.6805    0.1900    0.2792 O   0  0  0  0  0  0  0  0  0  0  0  0
   -1.0852   -1.1101    3.3150 C   0  0  0  0  0  0  0  0  0  0  0  0
   -1.0883    1.6241    2.0791 H   0  0  0  0  0  0  0  0  0  0  0  0
    0.8937   -0.2959    3.0277 H   0  0  0  0  0  0  0  0  0  0  0  0
   -2.0970   -1.0114    2.9051 H   0  0  0  0  0  0  0  0  0  0  0  0
   -0.7860   -2.1580    3.2078 H   0  0  0  0  0  0  0  0  0  0  0  0
   -1.1357   -0.8775    4.3842 H   0  0  0  0  0  0  0  0  0  0  0  0
    0.6950   -1.6003    0.8178 N   0  0  0  0  0  0  0  0  0  0  0  0
    1.1500   -1.9080   -0.5142 C   0  0  2  0  0  0  0  0  0  0  0  0
   -0.0825   -2.0695   -1.3950 C   0  0  0  0  0  0  0  0  0  0  0  0
   -0.1632   -1.6027   -2.5295 O   0  0  0  0  0  0  0  0  0  0  0  0
    2.0041   -3.1757   -0.5455 C   0  0  0  0  0  0  0  0  0  0  0  0
    3.3598   -2.9991    0.1155 C   0  0  0  0  0  0  0  0  0  0  0  0
    4.0687   -2.0068   -0.0233 O   0  0  0  0  0  0  0  0  0  0  0  0
    3.7048   -4.0812    0.8973 N   0  0  0  0  0  0  0  0  0  0  0  0
    0.9824   -2.2163    1.5747 H   0  0  0  0  0  0  0  0  0  0  0  0
    1.7217   -1.0380   -0.8579 H   0  0  0  0  0  0  0  0  0  0  0  0
    1.4927   -3.9912   -0.0186 H   0  0  0  0  0  0  0  0  0  0  0  0
    2.1617   -3.5081   -1.5796 H   0  0  0  0  0  0  0  0  0  0  0  0
    3.0851   -4.8796    0.9857 H   0  0  0  0  0  0  0  0  0  0  0  0
    4.5802   -4.1239    1.4093 H   0  0  0  0  0  0  0  0  0  0  0  0
   -1.0646   -2.8387   -0.7869 N   0  0  0  0  0  0  0  0  0  0  0  0
   -2.3118   -3.1478   -1.4442 C   0  0  2  0  0  0  0  0  0  0  0  0
   -1.9906   -3.8591   -2.7520 C   0  0  0  0  0  0  0  0  0  0  0  0
   -0.9070   -3.7558   -3.3232 O   0  0  0  0  0  0  0  0  0  0  0  0
   -3.1309   -1.8914   -1.6958 C   0  0  0  0  0  0  0  0  0  0  0  0
   -0.9094   -3.2076    0.1467 H   0  0  0  0  0  0  0  0  0  0  0  0
   -2.8581   -3.8285   -0.7822 H   0  0  0  0  0  0  0  0  0  0  0  0
   -2.5998   -1.1972   -2.3573 H   0  0  0  0  0  0  0  0  0  0  0  0
   -4.0892   -2.1306   -2.1687 H   0  0  0  0  0  0  0  0  0  0  0  0
   -3.3357   -1.3652   -0.7572 H   0  0  0  0  0  0  0  0  0  0  0  0
   -3.0709   -4.5884   -3.2285 N   0  0  0  0  0  0  0  0  0  0  0  0
   -3.0208   -5.3420   -4.4596 C   0  0  0  0  0  0  0  0  0  0  0  0
   -3.9246   -4.6332   -2.6799 H   0  0  0  0  0  0  0  0  0  0  0  0
   -3.3825   -4.7157   -5.2885 H   0  0  0  0  0  0  0  0  0  0  0  0
   -1.9838   -5.6503   -4.6587 H   0  0  0  0  0  0  0  0  0  0  0  0
   -3.6578   -6.2342   -4.3695 H   0  0  0  0  0  0  0  0  0  0  0  0
  1  3  1  0  0  0  0
  1  7  1  0  0  0  0
  1  2  2  0  0  0  0
 21 22  1  0  0  0  0
 22 24  1  0  0  0  0
 22 23  2  0  0  0  0
 32 33  1  0  0  0  0
 33 41  1  0  0  0  0
 33 34  2  0  0  0  0
  8  9  1  0  0  0  0
  9 17  1  0  0  0  0
  9 10  2  0  0  0  0
 18 19  1  0  0  0  0
 19 31  1  0  0  0  0
 19 20  2  0  0  0  0
 32 35  1  0  0  0  0
  8 11  1  0  0  0  0
 41 42  1  0  0  0  0
 18 21  1  0  0  0  0
 31 32  1  0  0  0  0
  7  8  1  0  0  0  0
 17 18  1  0  0  0  0
  3  4  1  0  0  0  0
  3  5  1  0  0  0  0
  3  6  1  0  0  0  0
 35 38  1  0  0  0  0
 35 39  1  0  0  0  0
 35 40  1  0  0  0  0
 11 14  1  0  0  0  0
 11 15  1  0  0  0  0
 11 16  1  0  0  0  0
 42 44  1  0  0  0  0
 42 45  1  0  0  0  0
 42 46  1  0  0  0  0
 21 27  1  0  0  0  0
 21 28  1  0  0  0  0
 32 37  1  0  0  0  0
  8 13  1  0  0  0  0
 18 26  1  0  0  0  0
 24 29  1  0  0  0  0
 24 30  1  0  0  0  0
 41 43  1  0  0  0  0
  7 12  1  0  0  0  0
 31 36  1  0  0  0  0
 17 25  1  0  0  0  0
M  END
$$$$

  -OEChem-02062319033D

 46 45  0     1  0  0  0  0  0999 V2000
   -0.0543    1.9736    3.8406 C   0  0  0  0  0  0  0  0  0  0  0  0
    0.6744    1.6099    4.7562 O   0  0  0  0  0  0  0  0  0  0  0  0
   -0.5599    3.3779    3.8160 C   0  0  0  0  0  0  0  0  0  0  0  0
   -1.5202    3.4885    4.3450 H   0  0  0  0  0  0  0  0  0  0  0  0
    0.1282    4.0814    4.3116 H   0  0  0  0  0  0  0  0  0  0  0  0
   -0.7317    3.7994    2.8126 H   0  0  0  0  0  0  0  0  0  0  0  0
   -0.4812    1.1968    2.7762 N   0  0  0  0  0  0  0  0  0  0  0  0
   -0.1106   -0.1834    2.6051 C   0  0  2  0  0  0  0  0  0  0  0  0
   -0.0696   -0.4775    1.1113 C   0  0  0  0  0  0  0  0  0  0  0  0
   -0.6805    0.1900    0.2792 O   0  0  0  0  0  0  0  0  0  0  0  0
   -1.0852   -1.1101    3.3150 C   0  0  0  0  0  0  0  0  0  0  0  0
   -1.0883    1.6241    2.0791 H   0  0  0  0  0  0  0  0  0  0  0  0
    0.8937   -0.2959    3.0277 H   0  0  0  0  0  0  0  0  0  0  0  0
   -2.0970   -1.0114    2.9051 H   0  0  0  0  0  0  0  0  0  0  0  0
   -0.7860   -2.1580    3.2078 H   0  0  0  0  0  0  0  0  0  0  0  0
   -1.1357   -0.8775    4.3842 H   0  0  0  0  0  0  0  0  0  0  0  0
    0.6950   -1.6003    0.8178 N   0  0  0  0  0  0  0  0  0  0  0  0
    1.4108   -1.7542   -0.4231 C   0  0  2  0  0  0  0  0  0  0  0  0
    0.3888   -1.7074   -1.5521 C   0  0  0  0  0  0  0  0  0  0  0  0
    0.5703   -1.0855   -2.5969 O   0  0  0  0  0  0  0  0  0  0  0  0
    2.2012   -3.0622   -0.4661 C   0  0  0  0  0  0  0  0  0  0  0  0
    3.3908   -3.0726    0.4776 C   0  0  0  0  0  0  0  0  0  0  0  0
    4.1517   -2.1226    0.6359 O   0  0  0  0  0  0  0  0  0  0  0  0
    3.5183   -4.2728    1.1444 N   0  0  0  0  0  0  0  0  0  0  0  0
    0.7899   -2.3325    1.5177 H   0  0  0  0  0  0  0  0  0  0  0  0
    2.0765   -0.8875   -0.5094 H   0  0  0  0  0  0  0  0  0  0  0  0
    1.5575   -3.9043   -0.1821 H   0  0  0  0  0  0  0  0  0  0  0  0
    2.5622   -3.2605   -1.4835 H   0  0  0  0  0  0  0  0  0  0  0  0
    2.8629   -5.0306    0.9845 H   0  0  0  0  0  0  0  0  0  0  0  0
    4.2622   -4.4460    1.8130 H   0  0  0  0  0  0  0  0  0  0  0  0
   -0.7299   -2.4820   -1.2792 N   0  0  0  0  0  0  0  0  0  0  0  0
   -1.8196   -2.6106   -2.2168 C   0  0  2  0  0  0  0  0  0  0  0  0
   -1.2555   -3.1573   -3.5215 C   0  0  0  0  0  0  0  0  0  0  0  0
   -0.0718   -3.0528   -3.8365 O   0  0  0  0  0  0  0  0  0  0  0  0
   -2.5160   -1.2775   -2.4420 C   0  0  0  0  0  0  0  0  0  0  0  0
   -0.7918   -2.9849   -0.3989 H   0  0  0  0  0  0  0  0  0  0  0  0
   -2.5208   -3.3356   -1.7892 H   0  0  0  0  0  0  0  0  0  0  0  0
   -1.8291   -0.5383   -2.8700 H   0  0  0  0  0  0  0  0  0  0  0  0
   -3.3602   -1.3824   -3.1315 H   0  0  0  0  0  0  0  0  0  0  0  0
   -2.8951   -0.8715   -1.4980 H   0  0  0  0  0  0  0  0  0  0  0  0
   -2.2375   -3.7375   -4.3122 N   0  0  0  0  0  0  0  0  0  0  0  0
   -1.9560   -4.3174   -5.6047 C   0  0  0  0  0  0  0  0  0  0  0  0
   -3.1895   -3.7971   -3.9632 H   0  0  0  0  0  0  0  0  0  0  0  0
   -2.1078   -3.5601   -6.3879 H   0  0  0  0  0  0  0  0  0  0  0  0
   -0.9135   -4.6673   -5.6302 H   0  0  0  0  0  0  0  0  0  0  0  0
   -2.6323   -5.1670   -5.7803 H   0  0  0  0  0  0  0  0  0  0  0  0
  1  3  1  0  0  0  0
  1  7  1  0  0  0  0
  1  2  2  0  0  0  0
 21 22  1  0  0  0  0
 22 24  1  0  0  0  0
 22 23  2  0  0  0  0
 32 33  1  0  0  0  0
 33 41  1  0  0  0  0
 33 34  2  0  0  0  0
  8  9  1  0  0  0  0
  9 17  1  0  0  0  0
  9 10  2  0  0  0  0
 18 19  1  0  0  0  0
 19 31  1  0  0  0  0
 19 20  2  0  0  0  0
 32 35  1  0  0  0  0
  8 11  1  0  0  0  0
 41 42  1  0  0  0  0
 18 21  1  0  0  0  0
 31 32  1  0  0  0  0
  7  8  1  0  0  0  0
 17 18  1  0  0  0  0
  3  4  1  0  0  0  0
  3  5  1  0  0  0  0
  3  6  1  0  0  0  0
 35 38  1  0  0  0  0
 35 39  1  0  0  0  0
 35 40  1  0  0  0  0
 11 14  1  0  0  0  0
 11 15  1  0  0  0  0
 11 16  1  0  0  0  0
 42 44  1  0  0  0  0
 42 45  1  0  0  0  0
 42 46  1  0  0  0  0
 21 27  1  0  0  0  0
 21 28  1  0  0  0  0
 32 37  1  0  0  0  0
  8 13  1  0  0  0  0
 18 26  1  0  0  0  0
 24 29  1  0  0  0  0
 24 30  1  0  0  0  0
 41 43  1  0  0  0  0
  7 12  1  0  0  0  0
 31 36  1  0  0  0  0
 17 25  1  0  0  0  0
M  END
$$$$

  -OEChem-02062319033D

 46 45  0     1  0  0  0  0  0999 V2000
   -0.0543    1.9736    3.8406 C   0  0  0  0  0  0  0  0  0  0  0  0
    0.6744    1.6099    4.7562 O   0  0  0  0  0  0  0  0  0  0  0  0
   -0.5599    3.3779    3.8160 C   0  0  0  0  0  0  0  0  0  0  0  0
   -1.5202    3.4885    4.3450 H   0  0  0  0  0  0  0  0  0  0  0  0
    0.1282    4.0814    4.3116 H   0  0  0  0  0  0  0  0  0  0  0  0
   -0.7317    3.7994    2.8126 H   0  0  0  0  0  0  0  0  0  0  0  0
   -0.4812    1.1968    2.7762 N   0  0  0  0  0  0  0  0  0  0  0  0
   -0.1106   -0.1834    2.6051 C   0  0  2  0  0  0  0  0  0  0  0  0
   -0.0696   -0.4775    1.1113 C   0  0  0  0  0  0  0  0  0  0  0  0
   -0.6805    0.1900    0.2792 O   0  0  0  0  0  0  0  0  0  0  0  0
   -1.0852   -1.1101    3.3150 C   0  0  0  0  0  0  0  0  0  0  0  0
   -1.0883    1.6241    2.0791 H   0  0  0  0  0  0  0  0  0  0  0  0
    0.8937   -0.2959    3.0277 H   0  0  0  0  0  0  0  0  0  0  0  0
   -2.0970   -1.0114    2.9051 H   0  0  0  0  0  0  0  0  0  0  0  0
   -0.7860   -2.1580    3.2078 H   0  0  0  0  0  0  0  0  0  0  0  0
   -1.1357   -0.8775    4.3842 H   0  0  0  0  0  0  0  0  0  0  0  0
    0.6950   -1.6003    0.8178 N   0  0  0  0  0  0  0  0  0  0  0  0
    1.6521   -1.6329   -0.2587 C   0  0  2  0  0  0  0  0  0  0  0  0
    0.8968   -1.3611   -1.5536 C   0  0  0  0  0  0  0  0  0  0  0  0
    1.3211   -0.6165   -2.4351 O   0  0  0  0  0  0  0  0  0  0  0  0
    2.3812   -2.9747   -0.3320 C   0  0  0  0  0  0  0  0  0  0  0  0
    3.3411   -3.1969    0.8235 C   0  0  0  0  0  0  0  0  0  0  0  0
    4.0877   -2.3328    1.2734 O   0  0  0  0  0  0  0  0  0  0  0  0
    3.2761   -4.4828    1.3168 N   0  0  0  0  0  0  0  0  0  0  0  0
    0.6096   -2.4260    1.4059 H   0  0  0  0  0  0  0  0  0  0  0  0
    2.3546   -0.8111   -0.0772 H   0  0  0  0  0  0  0  0  0  0  0  0
    1.6590   -3.8007   -0.3142 H   0  0  0  0  0  0  0  0  0  0  0  0
    2.9426   -3.0568   -1.2716 H   0  0  0  0  0  0  0  0  0  0  0  0
    2.6404   -5.1641    0.9153 H   0  0  0  0  0  0  0  0  0  0  0  0
    3.8529   -4.7973    2.0905 H   0  0  0  0  0  0  0  0  0  0  0  0
   -0.2841   -2.0857   -1.6339 N   0  0  0  0  0  0  0  0  0  0  0  0
   -1.1533   -2.0086   -2.7836 C   0  0  2  0  0  0  0  0  0  0  0  0
   -0.3461   -2.4100   -4.0111 C   0  0  0  0  0  0  0  0  0  0  0  0
    0.8806   -2.3464   -4.0576 O   0  0  0  0  0  0  0  0  0  0  0  0
   -1.7325   -0.6119   -2.9467 C   0  0  0  0  0  0  0  0  0  0  0  0
   -0.5520   -2.6985   -0.8695 H   0  0  0  0  0  0  0  0  0  0  0  0
   -1.9575   -2.7344   -2.6212 H   0  0  0  0  0  0  0  0  0  0  0  0
   -0.9415    0.1291   -3.1104 H   0  0  0  0  0  0  0  0  0  0  0  0
   -2.4139   -0.5624   -3.8025 H   0  0  0  0  0  0  0  0  0  0  0  0
   -2.2876   -0.3132   -2.0510 H   0  0  0  0  0  0  0  0  0  0  0  0
   -1.1593   -2.8068   -5.0635 N   0  0  0  0  0  0  0  0  0  0  0  0
   -0.6321   -3.2229   -6.3421 C   0  0  0  0  0  0  0  0  0  0  0  0
   -2.1654   -2.8469   -4.9300 H   0  0  0  0  0  0  0  0  0  0  0  0
   -0.5834   -2.3570   -7.0187 H   0  0  0  0  0  0  0  0  0  0  0  0
    0.3773   -3.6380   -6.2049 H   0  0  0  0  0  0  0  0  0  0  0  0
   -1.2885   -3.9912   -6.7767 H   0  0  0  0  0  0  0  0  0  0  0  0
  1  3  1  0  0  0  0
  1  7  1  0  0  0  0
  1  2  2  0  0  0  0
 21 22  1  0  0  0  0
 22 24  1  0  0  0  0
 22 23  2  0  0  0  0
 32 33  1  0  0  0  0
 33 41  1  0  0  0  0
 33 34  2  0  0  0  0
  8  9  1  0  0  0  0
  9 17  1  0  0  0  0
  9 10  2  0  0  0  0
 18 19  1  0  0  0  0
 19 31  1  0  0  0  0
 19 20  2  0  0  0  0
 32 35  1  0  0  0  0
  8 11  1  0  0  0  0
 41 42  1  0  0  0  0
 18 21  1  0  0  0  0
 31 32  1  0  0  0  0
  7  8  1  0  0  0  0
 17 18  1  0  0  0  0
  3  4  1  0  0  0  0
  3  5  1  0  0  0  0
  3  6  1  0  0  0  0
 35 38  1  0  0  0  0
 35 39  1  0  0  0  0
 35 40  1  0  0  0  0
 11 14  1  0  0  0  0
 11 15  1  0  0  0  0
 11 16  1  0  0  0  0
 42 44  1  0  0  0  0
 42 45  1  0  0  0  0
 42 46  1  0  0  0  0
 21 27  1  0  0  0  0
 21 28  1  0  0  0  0
 32 37  1  0  0  0  0
  8 13  1  0  0  0  0
 18 26  1  0  0  0  0
 24 29  1  0  0  0  0
 24 30  1  0  0  0  0
 41 43  1  0  0  0  0
  7 12  1  0  0  0  0
 31 36  1  0  0  0  0
 17 25  1  0  0  0  0
M  END
$$$$

  -OEChem-02062319033D

 46 45  0     1  0  0  0  0  0999 V2000
   -0.0543    1.9736    3.8406 C   0  0  0  0  0  0  0  0  0  0  0  0
    0.6744    1.6099    4.7562 O   0  0  0  0  0  0  0  0  0  0  0  0
   -0.5599    3.3779    3.8160 C   0  0  0  0  0  0  0  0  0  0  0  0
   -1.5202    3.4885    4.3450 H   0  0  0  0  0  0  0  0  0  0  0  0
    0.1282    4.0814    4.3116 H   0  0  0  0  0  0  0  0  0  0  0  0
   -0.7317    3.7994    2.8126 H   0  0  0  0  0  0  0  0  0  0  0  0
   -0.4812    1.1968    2.7762 N   0  0  0  0  0  0  0  0  0  0  0  0
   -0.1106   -0.1834    2.6051 C   0  0  2  0  0  0  0  0  0  0  0  0
   -0.0696   -0.4775    1.1113 C   0  0  0  0  0  0  0  0  0  0  0  0
   -0.6805    0.1900    0.2792 O   0  0  0  0  0  0  0  0  0  0  0  0
   -1.0852   -1.1101    3.3150 C   0  0  0  0  0  0  0  0  0  0  0  0
   -1.0883    1.6241    2.0791 H   0  0  0  0  0  0  0  0  0  0  0  0
    0.8937   -0.2959    3.0277 H   0  0  0  0  0  0  0  0  0  0  0  0
   -2.0970   -1.0114    2.9051 H   0  0  0  0  0  0  0  0  0  0  0  0
   -0.7860   -2.1580    3.2078 H   0  0  0  0  0  0  0  0  0  0  0  0
   -1.1357   -0.8775    4.3842 H   0  0  0  0  0  0  0  0  0  0  0  0
    0.6950   -1.6003    0.8178 N   0  0  0  0  0  0  0  0  0  0  0  0
    1.8574   -1.5522   -0.0321 C   0  0  2  0  0  0  0  0  0  0  0  0
    1.4067   -1.0541   -1.3996 C   0  0  0  0  0  0  0  0  0  0  0  0
    2.0381   -0.2275   -2.0549 O   0  0  0  0  0  0  0  0  0  0  0  0
    2.5318   -2.9191   -0.1524 C   0  0  0  0  0  0  0  0  0  0  0  0
    3.2139   -3.3635    1.1294 C   0  0  0  0  0  0  0  0  0  0  0  0
    3.8811   -2.6232    1.8460 O   0  0  0  0  0  0  0  0  0  0  0  0
    2.9945   -4.6971    1.4027 N   0  0  0  0  0  0  0  0  0  0  0  0
    0.4537   -2.4906    1.2469 H   0  0  0  0  0  0  0  0  0  0  0  0
    2.5370   -0.8140    0.4094 H   0  0  0  0  0  0  0  0  0  0  0  0
    1.7903   -3.6873   -0.4057 H   0  0  0  0  0  0  0  0  0  0  0  0
    3.2767   -2.9111   -0.9584 H   0  0  0  0  0  0  0  0  0  0  0  0
    2.4325   -5.2710    0.7830 H   0  0  0  0  0  0  0  0  0  0  0  0
    3.3804   -5.1538    2.2230 H   0  0  0  0  0  0  0  0  0  0  0  0
    0.2423   -1.6767   -1.8269 N   0  0  0  0  0  0  0  0  0  0  0  0
   -0.3582   -1.3828   -3.1060 C   0  0  2  0  0  0  0  0  0  0  0  0
    0.6754   -1.6681   -4.1875 C   0  0  0  0  0  0  0  0  0  0  0  0
    1.8854   -1.6845   -3.9714 O   0  0  0  0  0  0  0  0  0  0  0  0
   -0.8337    0.0600   -3.1757 C   0  0  0  0  0  0  0  0  0  0  0  0
   -0.2063   -2.3680   -1.2331 H   0  0  0  0  0  0  0  0  0  0  0  0
   -1.2067   -2.0661   -3.2215 H   0  0  0  0  0  0  0  0  0  0  0  0
    0.0026    0.7594   -3.0619 H   0  0  0  0  0  0  0  0  0  0  0  0
   -1.3146    0.2734   -4.1360 H   0  0  0  0  0  0  0  0  0  0  0  0
   -1.5547    0.2717   -2.3787 H   0  0  0  0  0  0  0  0  0  0  0  0
    0.0901   -1.8597   -5.4313 N   0  0  0  0  0  0  0  0  0  0  0  0
    0.8608   -2.1331   -6.6218 C   0  0  0  0  0  0  0  0  0  0  0  0
   -0.9221   -1.8473   -5.5144 H   0  0  0  0  0  0  0  0  0  0  0  0
    1.0866   -1.1884   -7.1380 H   0  0  0  0  0  0  0  0  0  0  0  0
    1.8005   -2.6325   -6.3435 H   0  0  0  0  0  0  0  0  0  0  0  0
    0.2822   -2.7871   -7.2908 H   0  0  0  0  0  0  0  0  0  0  0  0
  1  3  1  0  0  0  0
  1  7  1  0  0  0  0
  1  2  2  0  0  0  0
 21 22  1  0  0  0  0
 22 24  1  0  0  0  0
 22 23  2  0  0  0  0
 32 33  1  0  0  0  0
 33 41  1  0  0  0  0
 33 34  2  0  0  0  0
  8  9  1  0  0  0  0
  9 17  1  0  0  0  0
  9 10  2  0  0  0  0
 18 19  1  0  0  0  0
 19 31  1  0  0  0  0
 19 20  2  0  0  0  0
 32 35  1  0  0  0  0
  8 11  1  0  0  0  0
 41 42  1  0  0  0  0
 18 21  1  0  0  0  0
 31 32  1  0  0  0  0
  7  8  1  0  0  0  0
 17 18  1  0  0  0  0
  3  4  1  0  0  0  0
  3  5  1  0  0  0  0
  3  6  1  0  0  0  0
 35 38  1  0  0  0  0
 35 39  1  0  0  0  0
 35 40  1  0  0  0  0
 11 14  1  0  0  0  0
 11 15  1  0  0  0  0
 11 16  1  0  0  0  0
 42 44  1  0  0  0  0
 42 45  1  0  0  0  0
 42 46  1  0  0  0  0
 21 27  1  0  0  0  0
 21 28  1  0  0  0  0
 32 37  1  0  0  0  0
  8 13  1  0  0  0  0
 18 26  1  0  0  0  0
 24 29  1  0  0  0  0
 24 30  1  0  0  0  0
 41 43  1  0  0  0  0
  7 12  1  0  0  0  0
 31 36  1  0  0  0  0
 17 25  1  0  0  0  0
M  END
$$$$

  -OEChem-02062319033D

 46 45  0     1  0  0  0  0  0999 V2000
   -0.0543    1.9736    3.8406 C   0  0  0  0  0  0  0  0  0  0  0  0
    0.6744    1.6099    4.7562 O   0  0  0  0  0  0  0  0  0  0  0  0
   -0.5599    3.3779    3.8160 C   0  0  0  0  0  0  0  0  0  0  0  0
   -1.5202    3.4885    4.3450 H   0  0  0  0  0  0  0  0  0  0  0  0
    0.1282    4.0814    4.3116 H   0  0  0  0  0  0  0  0  0  0  0  0
   -0.7317    3.7994    2.8126 H   0  0  0  0  0  0  0  0  0  0  0  0
   -0.4812    1.1968    2.7762 N   0  0  0  0  0  0  0  0  0  0  0  0
   -0.1106   -0.1834    2.6051 C   0  0  2  0  0  0  0  0  0  0  0  0
   -0.0696   -0.4775    1.1113 C   0  0  0  0  0  0  0  0  0  0  0  0
   -0.6805    0.1900    0.2792 O   0  0  0  0  0  0  0  0  0  0  0  0
   -1.0852   -1.1101    3.3150 C   0  0  0  0  0  0  0  0  0  0  0  0
   -1.0883    1.6241    2.0791 H   0  0  0  0  0  0  0  0  0  0  0  0
    0.8937   -0.2959    3.0277 H   0  0  0  0  0  0  0  0  0  0  0  0
   -2.0970   -1.0114    2.9051 H   0  0  0  0  0  0  0  0  0  0  0  0
   -0.7860   -2.1580    3.2078 H   0  0  0  0  0  0  0  0  0  0  0  0
   -1.1357   -0.8775    4.3842 H   0  0  0  0  0  0  0  0  0  0  0  0
    0.6950   -1.6003    0.8178 N   0  0  0  0  0  0  0  0  0  0  0  0
    2.0128   -1.5179    0.2411 C   0  0  2  0  0  0  0  0  0  0  0  0
    1.8837   -0.8074   -1.1004 C   0  0  0  0  0  0  0  0  0  0  0  0
    2.6725    0.0548   -1.4824 O   0  0  0  0  0  0  0  0  0  0  0  0
    2.6427   -2.8991    0.0605 C   0  0  0  0  0  0  0  0  0  0  0  0
    3.0180   -3.5611    1.3746 C   0  0  0  0  0  0  0  0  0  0  0  0
    3.5459   -2.9740    2.3144 O   0  0  0  0  0  0  0  0  0  0  0  0
    2.6929   -4.9008    1.3964 N   0  0  0  0  0  0  0  0  0  0  0  0
    0.3329   -2.5218    1.0514 H   0  0  0  0  0  0  0  0  0  0  0  0
    2.6113   -0.8961    0.9171 H   0  0  0  0  0  0  0  0  0  0  0  0
    1.9425   -3.5720   -0.4506 H   0  0  0  0  0  0  0  0  0  0  0  0
    3.5420   -2.8332   -0.5653 H   0  0  0  0  0  0  0  0  0  0  0  0
    2.2536   -5.3441    0.5965 H   0  0  0  0  0  0  0  0  0  0  0  0
    2.8768   -5.4911    2.2014 H   0  0  0  0  0  0  0  0  0  0  0  0
    0.8135   -1.2829   -1.8450 N   0  0  0  0  0  0  0  0  0  0  0  0
    0.5114   -0.7759   -3.1621 C   0  0  2  0  0  0  0  0  0  0  0  0
    1.7396   -0.9823   -4.0387 C   0  0  0  0  0  0  0  0  0  0  0  0
    2.8741   -1.1125   -3.5838 O   0  0  0  0  0  0  0  0  0  0  0  0
    0.1191    0.6926   -3.1131 C   0  0  0  0  0  0  0  0  0  0  0  0
    0.2217   -2.0159   -1.4651 H   0  0  0  0  0  0  0  0  0  0  0  0
   -0.3193   -1.3761   -3.5492 H   0  0  0  0  0  0  0  0  0  0  0  0
    0.9389    1.3097   -2.7279 H   0  0  0  0  0  0  0  0  0  0  0  0
   -0.1374    1.0681   -4.1092 H   0  0  0  0  0  0  0  0  0  0  0  0
   -0.7463    0.8432   -2.4587 H   0  0  0  0  0  0  0  0  0  0  0  0
    1.4256   -0.9608   -5.3904 N   0  0  0  0  0  0  0  0  0  0  0  0
    2.4208   -1.1222   -6.4246 C   0  0  0  0  0  0  0  0  0  0  0  0
    0.4556   -0.8666   -5.6766 H   0  0  0  0  0  0  0  0  0  0  0  0
    2.7886   -0.1339   -6.7377 H   0  0  0  0  0  0  0  0  0  0  0  0
    3.2592   -1.7192   -6.0365 H   0  0  0  0  0  0  0  0  0  0  0  0
    1.9727   -1.6367   -7.2874 H   0  0  0  0  0  0  0  0  0  0  0  0
  1  3  1  0  0  0  0
  1  7  1  0  0  0  0
  1  2  2  0  0  0  0
 21 22  1  0  0  0  0
 22 24  1  0  0  0  0
 22 23  2  0  0  0  0
 32 33  1  0  0  0  0
 33 41  1  0  0  0  0
 33 34  2  0  0  0  0
  8  9  1  0  0  0  0
  9 17  1  0  0  0  0
  9 10  2  0  0  0  0
 18 19  1  0  0  0  0
 19 31  1  0  0  0  0
 19 20  2  0  0  0  0
 32 35  1  0  0  0  0
  8 11  1  0  0  0  0
 41 42  1  0  0  0  0
 18 21  1  0  0  0  0
 31 32  1  0  0  0  0
  7  8  1  0  0  0  0
 17 18  1  0  0  0  0
  3  4  1  0  0  0  0
  3  5  1  0  0  0  0
  3  6  1  0  0  0  0
 35 38  1  0  0  0  0
 35 39  1  0  0  0  0
 35 40  1  0  0  0  0
 11 14  1  0  0  0  0
 11 15  1  0  0  0  0
 11 16  1  0  0  0  0
 42 44  1  0  0  0  0
 42 45  1  0  0  0  0
 42 46  1  0  0  0  0
 21 27  1  0  0  0  0
 21 28  1  0  0  0  0
 32 37  1  0  0  0  0
  8 13  1  0  0  0  0
 18 26  1  0  0  0  0
 24 29  1  0  0  0  0
 24 30  1  0  0  0  0
 41 43  1  0  0  0  0
  7 12  1  0  0  0  0
 31 36  1  0  0  0  0
 17 25  1  0  0  0  0
M  END
$$$$

  -OEChem-02062319033D

 46 45  0     1  0  0  0  0  0999 V2000
   -0.0543    1.9736    3.8406 C   0  0  0  0  0  0  0  0  0  0  0  0
    0.6744    1.6099    4.7562 O   0  0  0  0  0  0  0  0  0  0  0  0
   -0.5599    3.3779    3.8160 C   0  0  0  0  0  0  0  0  0  0  0  0
   -1.5202    3.4885    4.3450 H   0  0  0  0  0  0  0  0  0  0  0  0
    0.1282    4.0814    4.3116 H   0  0  0  0  0  0  0  0  0  0  0  0
   -0.7317    3.7994    2.8126 H   0  0  0  0  0  0  0  0  0  0  0  0
   -0.4812    1.1968    2.7762 N   0  0  0  0  0  0  0  0  0  0  0  0
   -0.1106   -0.1834    2.6051 C   0  0  2  0  0  0  0  0  0  0  0  0
   -0.0696   -0.4775    1.1113 C   0  0  0  0  0  0  0  0  0  0  0  0
   -0.6805    0.1900    0.2792 O   0  0  0  0  0  0  0  0  0  0  0  0
   -1.0852   -1.1101    3.3150 C   0  0  0  0  0  0  0  0  0  0  0  0
   -1.0883    1.6241    2.0791 H   0  0  0  0  0  0  0  0  0  0  0  0
    0.8937   -0.2959    3.0277 H   0  0  0  0  0  0  0  0  0  0  0  0
   -2.0970   -1.0114    2.9051 H   0  0  0  0  0  0  0  0  0  0  0  0
   -0.7860   -2.1580    3.2078 H   0  0  0  0  0  0  0  0  0  0  0  0
   -1.1357   -0.8775    4.3842 H   0  0  0  0  0  0  0  0  0  0  0  0
    0.6950   -1.6003    0.8178 N   0  0  0  0  0  0  0  0  0  0  0  0
    2.1076   -1.5321    0.5424 C   0  0  2  0  0  0  0  0  0  0  0  0
    2.2955   -0.6377   -0.6766 C   0  0  0  0  0  0  0  0  0  0  0  0
    3.1810    0.2114   -0.7566 O   0  0  0  0  0  0  0  0  0  0  0  0
    2.7065   -2.9163    0.2921 C   0  0  0  0  0  0  0  0  0  0  0  0
    2.7667   -3.7761    1.5424 C   0  0  0  0  0  0  0  0  0  0  0  0
    3.1050   -3.3612    2.6469 O   0  0  0  0  0  0  0  0  0  0  0  0
    2.3917   -5.0803    1.2982 N   0  0  0  0  0  0  0  0  0  0  0  0
    0.2553   -2.5176    0.8329 H   0  0  0  0  0  0  0  0  0  0  0  0
    2.5725   -1.0518    1.4113 H   0  0  0  0  0  0  0  0  0  0  0  0
    2.1051   -3.4625   -0.4456 H   0  0  0  0  0  0  0  0  0  0  0  0
    3.7204   -2.8284   -0.1190 H   0  0  0  0  0  0  0  0  0  0  0  0
    2.1158   -5.3784    0.3685 H   0  0  0  0  0  0  0  0  0  0  0  0
    2.3764   -5.7864    2.0272 H   0  0  0  0  0  0  0  0  0  0  0  0
    1.3906   -0.9313   -1.6870 N   0  0  0  0  0  0  0  0  0  0  0  0
    1.3962   -0.2292   -2.9480 C   0  0  2  0  0  0  0  0  0  0  0  0
    2.7739   -0.3992   -3.5747 C   0  0  0  0  0  0  0  0  0  0  0  0
    3.7794   -0.6692   -2.9212 O   0  0  0  0  0  0  0  0  0  0  0  0
    1.0608    1.2426   -2.7635 C   0  0  0  0  0  0  0  0  0  0  0  0
    0.7029   -1.6661   -1.5494 H   0  0  0  0  0  0  0  0  0  0  0  0
    0.6441   -0.7114   -3.5818 H   0  0  0  0  0  0  0  0  0  0  0  0
    1.8035    1.7426   -2.1311 H   0  0  0  0  0  0  0  0  0  0  0  0
    1.0375    1.7677   -3.7241 H   0  0  0  0  0  0  0  0  0  0  0  0
    0.0826    1.3624   -2.2855 H   0  0  0  0  0  0  0  0  0  0  0  0
    2.7562   -0.1714   -4.9436 N   0  0  0  0  0  0  0  0  0  0  0  0
    3.9417   -0.2591   -5.7639 C   0  0  0  0  0  0  0  0  0  0  0  0
    1.8739    0.0285   -5.4056 H   0  0  0  0  0  0  0  0  0  0  0  0
    4.4065    0.7346   -5.8449 H   0  0  0  0  0  0  0  0  0  0  0  0
    4.6539   -0.9606   -5.3050 H   0  0  0  0  0  0  0  0  0  0  0  0
    3.6677   -0.6184   -6.7669 H   0  0  0  0  0  0  0  0  0  0  0  0
  1  3  1  0  0  0  0
  1  7  1  0  0  0  0
  1  2  2  0  0  0  0
 21 22  1  0  0  0  0
 22 24  1  0  0  0  0
 22 23  2  0  0  0  0
 32 33  1  0  0  0  0
 33 41  1  0  0  0  0
 33 34  2  0  0  0  0
  8  9  1  0  0  0  0
  9 17  1  0  0  0  0
  9 10  2  0  0  0  0
 18 19  1  0  0  0  0
 19 31  1  0  0  0  0
 19 20  2  0  0  0  0
 32 35  1  0  0  0  0
  8 11  1  0  0  0  0
 41 42  1  0  0  0  0
 18 21  1  0  0  0  0
 31 32  1  0  0  0  0
  7  8  1  0  0  0  0
 17 18  1  0  0  0  0
  3  4  1  0  0  0  0
  3  5  1  0  0  0  0
  3  6  1  0  0  0  0
 35 38  1  0  0  0  0
 35 39  1  0  0  0  0
 35 40  1  0  0  0  0
 11 14  1  0  0  0  0
 11 15  1  0  0  0  0
 11 16  1  0  0  0  0
 42 44  1  0  0  0  0
 42 45  1  0  0  0  0
 42 46  1  0  0  0  0
 21 27  1  0  0  0  0
 21 28  1  0  0  0  0
 32 37  1  0  0  0  0
  8 13  1  0  0  0  0
 18 26  1  0  0  0  0
 24 29  1  0  0  0  0
 24 30  1  0  0  0  0
 41 43  1  0  0  0  0
  7 12  1  0  0  0  0
 31 36  1  0  0  0  0
 17 25  1  0  0  0  0
M  END
$$$$

  -OEChem-02062319033D

 46 45  0     1  0  0  0  0  0999 V2000
   -0.0543    1.9736    3.8406 C   0  0  0  0  0  0  0  0  0  0  0  0
    0.6744    1.6099    4.7562 O   0  0  0  0  0  0  0  0  0  0  0  0
   -0.5599    3.3779    3.8160 C   0  0  0  0  0  0  0  0  0  0  0  0
   -1.5202    3.4885    4.3450 H   0  0  0  0  0  0  0  0  0  0  0  0
    0.1282    4.0814    4.3116 H   0  0  0  0  0  0  0  0  0  0  0  0
   -0.7317    3.7994    2.8126 H   0  0  0  0  0  0  0  0  0  0  0  0
   -0.4812    1.1968    2.7762 N   0  0  0  0  0  0  0  0  0  0  0  0
   -0.1106   -0.1834    2.6051 C   0  0  2  0  0  0  0  0  0  0  0  0
   -0.0696   -0.4775    1.1113 C   0  0  0  0  0  0  0  0  0  0  0  0
   -0.6805    0.1900    0.2792 O   0  0  0  0  0  0  0  0  0  0  0  0
   -1.0852   -1.1101    3.3150 C   0  0  0  0  0  0  0  0  0  0  0  0
   -1.0883    1.6241    2.0791 H   0  0  0  0  0  0  0  0  0  0  0  0
    0.8937   -0.2959    3.0277 H   0  0  0  0  0  0  0  0  0  0  0  0
   -2.0970   -1.0114    2.9051 H   0  0  0  0  0  0  0  0  0  0  0  0
   -0.7860   -2.1580    3.2078 H   0  0  0  0  0  0  0  0  0  0  0  0
   -1.1357   -0.8775    4.3842 H   0  0  0  0  0  0  0  0  0  0  0  0
    0.6950   -1.6003    0.8178 N   0  0  0  0  0  0  0  0  0  0  0  0
    2.1354   -1.5939    0.8512 C   0  0  2  0  0  0  0  0  0  0  0  0
    2.6139   -0.5567   -0.1570 C   0  0  0  0  0  0  0  0  0  0  0  0
    3.5290    0.2315    0.0732 O   0  0  0  0  0  0  0  0  0  0  0  0
    2.7187   -2.9693    0.5268 C   0  0  0  0  0  0  0  0  0  0  0  0
    2.4771   -3.9939    1.6213 C   0  0  0  0  0  0  0  0  0  0  0  0
    2.5884   -3.7584    2.8207 O   0  0  0  0  0  0  0  0  0  0  0  0
    2.1116   -5.2231    1.1148 N   0  0  0  0  0  0  0  0  0  0  0  0
    0.2263   -2.4781    0.6063 H   0  0  0  0  0  0  0  0  0  0  0  0
    2.4231   -1.2704    1.8584 H   0  0  0  0  0  0  0  0  0  0  0  0
    2.2672   -3.3663   -0.3912 H   0  0  0  0  0  0  0  0  0  0  0  0
    3.7995   -2.8971    0.3501 H   0  0  0  0  0  0  0  0  0  0  0  0
    2.0285   -5.3715    0.1146 H   0  0  0  0  0  0  0  0  0  0  0  0
    1.9134   -6.0194    1.7123 H   0  0  0  0  0  0  0  0  0  0  0  0
    1.9341   -0.6456   -1.3636 N   0  0  0  0  0  0  0  0  0  0  0  0
    2.2361    0.2200   -2.4784 C   0  0  2  0  0  0  0  0  0  0  0  0
    3.7078    0.0415   -2.8272 C   0  0  0  0  0  0  0  0  0  0  0  0
    4.5395   -0.3848   -2.0287 O   0  0  0  0  0  0  0  0  0  0  0  0
    1.9275    1.6726   -2.1505 C   0  0  0  0  0  0  0  0  0  0  0  0
    1.2045   -1.3425   -1.4805 H   0  0  0  0  0  0  0  0  0  0  0  0
    1.6177   -0.1175   -3.3173 H   0  0  0  0  0  0  0  0  0  0  0  0
    2.5375    2.0284   -1.3122 H   0  0  0  0  0  0  0  0  0  0  0  0
    2.1301    2.3243   -3.0068 H   0  0  0  0  0  0  0  0  0  0  0  0
    0.8754    1.7940   -1.8710 H   0  0  0  0  0  0  0  0  0  0  0  0
    3.9912    0.4548   -4.1215 N   0  0  0  0  0  0  0  0  0  0  0  0
    5.3198    0.3974   -4.6849 C   0  0  0  0  0  0  0  0  0  0  0  0
    3.2362    0.7770   -4.7197 H   0  0  0  0  0  0  0  0  0  0  0  0
    5.8301    1.3579   -4.5206 H   0  0  0  0  0  0  0  0  0  0  0  0
    5.8896   -0.4082   -4.1988 H   0  0  0  0  0  0  0  0  0  0  0  0
    5.2518    0.1985   -5.7646 H   0  0  0  0  0  0  0  0  0  0  0  0
  1  3  1  0  0  0  0
  1  7  1  0  0  0  0
  1  2  2  0  0  0  0
 21 22  1  0  0  0  0
 22 24  1  0  0  0  0
 22 23  2  0  0  0  0
 32 33  1  0  0  0  0
 33 41  1  0  0  0  0
 33 34  2  0  0  0  0
  8  9  1  0  0  0  0
  9 17  1  0  0  0  0
  9 10  2  0  0  0  0
 18 19  1  0  0  0  0
 19 31  1  0  0  0  0
 19 20  2  0  0  0  0
 32 35  1  0  0  0  0
  8 11  1  0  0  0  0
 41 42  1  0  0  0  0
 18 21  1  0  0  0  0
 31 32  1  0  0  0  0
  7  8  1  0  0  0  0
 17 18  1  0  0  0  0
  3  4  1  0  0  0  0
  3  5  1  0  0  0  0
  3  6  1  0  0  0  0
 35 38  1  0  0  0  0
 35 39  1  0  0  0  0
 35 40  1  0  0  0  0
 11 14  1  0  0  0  0
 11 15  1  0  0  0  0
 11 16  1  0  0  0  0
 42 44  1  0  0  0  0
 42 45  1  0  0  0  0
 42 46  1  0  0  0  0
 21 27  1  0  0  0  0
 21 28  1  0  0  0  0
 32 37  1  0  0  0  0
  8 13  1  0  0  0  0
 18 26  1  0  0  0  0
 24 29  1  0  0  0  0
 24 30  1  0  0  0  0
 41 43  1  0  0  0  0
  7 12  1  0  0  0  0
 31 36  1  0  0  0  0
 17 25  1  0  0  0  0
M  END
$$$$

  -OEChem-02062319033D

 46 45  0     1  0  0  0  0  0999 V2000
   -0.0543    1.9736    3.8406 C   0  0  0  0  0  0  0  0  0  0  0  0
    0.6744    1.6099    4.7562 O   0  0  0  0  0  0  0  0  0  0  0  0
   -0.5599    3.3779    3.8160 C   0  0  0  0  0  0  0  0  0  0  0  0
   -1.5202    3.4885    4.3450 H   0  0  0  0  0  0  0  0  0  0  0  0
    0.1282    4.0814    4.3116 H   0  0  0  0  0  0  0  0  0  0  0  0
   -0.7317    3.7994    2.8126 H   0  0  0  0  0  0  0  0  0  0  0  0
   -0.4812    1.1968    2.7762 N   0  0  0  0  0  0  0  0  0  0  0  0
   -0.1106   -0.1834    2.6051 C   0  0  2  0  0  0  0  0  0  0  0  0
   -0.0696   -0.4775    1.1113 C   0  0  0  0  0  0  0  0  0  0  0  0
   -0.6805    0.1900    0.2792 O   0  0  0  0  0  0  0  0  0  0  0  0
   -1.0852   -1.1101    3.3150 C   0  0  0  0  0  0  0  0  0  0  0  0
   -1.0883    1.6241    2.0791 H   0  0  0  0  0  0  0  0  0  0  0  0
    0.8937   -0.2959    3.0277 H   0  0  0  0  0  0  0  0  0  0  0  0
   -2.0970   -1.0114    2.9051 H   0  0  0  0  0  0  0  0  0  0  0  0
   -0.7860   -2.1580    3.2078 H   0  0  0  0  0  0  0  0  0  0  0  0
   -1.1357   -0.8775    4.3842 H   0  0  0  0  0  0  0  0  0  0  0  0
    0.6950   -1.6003    0.8178 N   0  0  0  0  0  0  0  0  0  0  0  0
    2.0943   -1.6991    1.1466 C   0  0  2  0  0  0  0  0  0  0  0  0
    2.8172   -0.5699    0.4231 C   0  0  0  0  0  0  0  0  0  0  0  0
    3.6927    0.1137    0.9502 O   0  0  0  0  0  0  0  0  0  0  0  0
    2.6785   -3.0547    0.7485 C   0  0  0  0  0  0  0  0  0  0  0  0
    2.1690   -4.1997    1.6059 C   0  0  0  0  0  0  0  0  0  0  0  0
    2.0314   -4.1386    2.8241 O   0  0  0  0  0  0  0  0  0  0  0  0
    1.8715   -5.3197    0.8587 N   0  0  0  0  0  0  0  0  0  0  0  0
    0.2478   -2.4061    0.3869 H   0  0  0  0  0  0  0  0  0  0  0  0
    2.1734   -1.5371    2.2279 H   0  0  0  0  0  0  0  0  0  0  0  0
    2.4177   -3.2900   -0.2911 H   0  0  0  0  0  0  0  0  0  0  0  0
    3.7742   -3.0346    0.8099 H   0  0  0  0  0  0  0  0  0  0  0  0
    1.9976   -5.3239   -0.1480 H   0  0  0  0  0  0  0  0  0  0  0  0
    1.5192   -6.1743    1.2781 H   0  0  0  0  0  0  0  0  0  0  0  0
    2.4072   -0.4454   -0.8969 N   0  0  0  0  0  0  0  0  0  0  0  0
    2.9736    0.5411   -1.7852 C   0  0  2  0  0  0  0  0  0  0  0  0
    4.4777    0.3096   -1.8472 C   0  0  0  0  0  0  0  0  0  0  0  0
    5.1027   -0.2787   -0.9673 O   0  0  0  0  0  0  0  0  0  0  0  0
    2.6599    1.9532   -1.3159 C   0  0  0  0  0  0  0  0  0  0  0  0
    1.6922   -1.0672   -1.2630 H   0  0  0  0  0  0  0  0  0  0  0  0
    2.5354    0.3654   -2.7736 H   0  0  0  0  0  0  0  0  0  0  0  0
    3.0909    2.1478   -0.3271 H   0  0  0  0  0  0  0  0  0  0  0  0
    3.0659    2.7001   -2.0062 H   0  0  0  0  0  0  0  0  0  0  0  0
    1.5781    2.1085   -1.2433 H   0  0  0  0  0  0  0  0  0  0  0  0
    5.0464    0.8750   -2.9799 N   0  0  0  0  0  0  0  0  0  0  0  0
    6.4612    0.8026   -3.2609 C   0  0  0  0  0  0  0  0  0  0  0  0
    4.4495    1.3279   -3.6658 H   0  0  0  0  0  0  0  0  0  0  0  0
    6.9623    1.6936   -2.8549 H   0  0  0  0  0  0  0  0  0  0  0  0
    6.8821   -0.0997   -2.7932 H   0  0  0  0  0  0  0  0  0  0  0  0
    6.6170    0.7582   -4.3490 H   0  0  0  0  0  0  0  0  0  0  0  0
  1  3  1  0  0  0  0
  1  7  1  0  0  0  0
  1  2  2  0  0  0  0
 21 22  1  0  0  0  0
 22 24  1  0  0  0  0
 22 23  2  0  0  0  0
 32 33  1  0  0  0  0
 33 41  1  0  0  0  0
 33 34  2  0  0  0  0
  8  9  1  0  0  0  0
  9 17  1  0  0  0  0
  9 10  2  0  0  0  0
 18 19  1  0  0  0  0
 19 31  1  0  0  0  0
 19 20  2  0  0  0  0
 32 35  1  0  0  0  0
  8 11  1  0  0  0  0
 41 42  1  0  0  0  0
 18 21  1  0  0  0  0
 31 32  1  0  0  0  0
  7  8  1  0  0  0  0
 17 18  1  0  0  0  0
  3  4  1  0  0  0  0
  3  5  1  0  0  0  0
  3  6  1  0  0  0  0
 35 38  1  0  0  0  0
 35 39  1  0  0  0  0
 35 40  1  0  0  0  0
 11 14  1  0  0  0  0
 11 15  1  0  0  0  0
 11 16  1  0  0  0  0
 42 44  1  0  0  0  0
 42 45  1  0  0  0  0
 42 46  1  0  0  0  0
 21 27  1  0  0  0  0
 21 28  1  0  0  0  0
 32 37  1  0  0  0  0
  8 13  1  0  0  0  0
 18 26  1  0  0  0  0
 24 29  1  0  0  0  0
 24 30  1  0  0  0  0
 41 43  1  0  0  0  0
  7 12  1  0  0  0  0
 31 36  1  0  0  0  0
 17 25  1  0  0  0  0
M  END
$$$$

  -OEChem-02062319033D

 46 45  0     1  0  0  0  0  0999 V2000
   -0.0543    1.9736    3.8406 C   0  0  0  0  0  0  0  0  0  0  0  0
    0.6744    1.6099    4.7562 O   0  0  0  0  0  0  0  0  0  0  0  0
   -0.5599    3.3779    3.8160 C   0  0  0  0  0  0  0  0  0  0  0  0
   -1.5202    3.4885    4.3450 H   0  0  0  0  0  0  0  0  0  0  0  0
    0.1282    4.0814    4.3116 H   0  0  0  0  0  0  0  0  0  0  0  0
   -0.7317    3.7994    2.8126 H   0  0  0  0  0  0  0  0  0  0  0  0
   -0.4812    1.1968    2.7762 N   0  0  0  0  0  0  0  0  0  0  0  0
   -0.1106   -0.1834    2.6051 C   0  0  2  0  0  0  0  0  0  0  0  0
   -0.0696   -0.4775    1.1113 C   0  0  0  0  0  0  0  0  0  0  0  0
   -0.6805    0.1900    0.2792 O   0  0  0  0  0  0  0  0  0  0  0  0
   -1.0852   -1.1101    3.3150 C   0  0  0  0  0  0  0  0  0  0  0  0
   -1.0883    1.6241    2.0791 H   0  0  0  0  0  0  0  0  0  0  0  0
    0.8937   -0.2959    3.0277 H   0  0  0  0  0  0  0  0  0  0  0  0
   -2.0970   -1.0114    2.9051 H   0  0  0  0  0  0  0  0  0  0  0  0
   -0.7860   -2.1580    3.2078 H   0  0  0  0  0  0  0  0  0  0  0  0
   -1.1357   -0.8775    4.3842 H   0  0  0  0  0  0  0  0  0  0  0  0
    0.6950   -1.6003    0.8178 N   0  0  0  0  0  0  0  0  0  0  0  0
    1.9871   -1.8405    1.4083 C   0  0  2  0  0  0  0  0  0  0  0  0
    2.8916   -0.6763    1.0240 C   0  0  0  0  0  0  0  0  0  0  0  0
    3.6609   -0.1340    1.8149 O   0  0  0  0  0  0  0  0  0  0  0  0
    2.5887   -3.1664    0.9420 C   0  0  0  0  0  0  0  0  0  0  0  0
    1.8633   -4.3795    1.4973 C   0  0  0  0  0  0  0  0  0  0  0  0
    1.4719   -4.4759    2.6567 O   0  0  0  0  0  0  0  0  0  0  0  0
    1.6878   -5.3634    0.5474 N   0  0  0  0  0  0  0  0  0  0  0  0
    0.3184   -2.3065    0.1897 H   0  0  0  0  0  0  0  0  0  0  0  0
    1.8403   -1.8337    2.4946 H   0  0  0  0  0  0  0  0  0  0  0  0
    2.5462   -3.2388   -0.1521 H   0  0  0  0  0  0  0  0  0  0  0  0
    3.6460   -3.2315    1.2292 H   0  0  0  0  0  0  0  0  0  0  0  0
    2.0253   -5.2388   -0.4012 H   0  0  0  0  0  0  0  0  0  0  0  0
    1.2208   -6.2406    0.7542 H   0  0  0  0  0  0  0  0  0  0  0  0
    2.7774   -0.3444   -0.3187 N   0  0  0  0  0  0  0  0  0  0  0  0
    3.5587    0.7122   -0.9156 C   0  0  2  0  0  0  0  0  0  0  0  0
    5.0310    0.3870   -0.7014 C   0  0  0  0  0  0  0  0  0  0  0  0
    5.4305   -0.3582    0.1909 O   0  0  0  0  0  0  0  0  0  0  0  0
    3.2083    2.0655   -0.3167 C   0  0  0  0  0  0  0  0  0  0  0  0
    2.1329   -0.8589   -0.9117 H   0  0  0  0  0  0  0  0  0  0  0  0
    3.3345    0.7042   -1.9879 H   0  0  0  0  0  0  0  0  0  0  0  0
    3.4260    2.0926    0.7572 H   0  0  0  0  0  0  0  0  0  0  0  0
    3.7812    2.8694   -0.7905 H   0  0  0  0  0  0  0  0  0  0  0  0
    2.1428    2.2845   -0.4454 H   0  0  0  0  0  0  0  0  0  0  0  0
    5.8499    1.0607   -1.5968 N   0  0  0  0  0  0  0  0  0  0  0  0
    7.2882    0.9287   -1.5892 C   0  0  0  0  0  0  0  0  0  0  0  0
    5.4313    1.6435   -2.3157 H   0  0  0  0  0  0  0  0  0  0  0  0
    7.7261    1.7188   -0.9615 H   0  0  0  0  0  0  0  0  0  0  0  0
    7.5637   -0.0562   -1.1841 H   0  0  0  0  0  0  0  0  0  0  0  0
    7.6703    1.0226   -2.6164 H   0  0  0  0  0  0  0  0  0  0  0  0
  1  3  1  0  0  0  0
  1  7  1  0  0  0  0
  1  2  2  0  0  0  0
 21 22  1  0  0  0  0
 22 24  1  0  0  0  0
 22 23  2  0  0  0  0
 32 33  1  0  0  0  0
 33 41  1  0  0  0  0
 33 34  2  0  0  0  0
  8  9  1  0  0  0  0
  9 17  1  0  0  0  0
  9 10  2  0  0  0  0
 18 19  1  0  0  0  0
 19 31  1  0  0  0  0
 19 20  2  0  0  0  0
 32 35  1  0  0  0  0
  8 11  1  0  0  0  0
 41 42  1  0  0  0  0
 18 21  1  0  0  0  0
 31 32  1  0  0  0  0
  7  8  1  0  0  0  0
 17 18  1  0  0  0  0
  3  4  1  0  0  0  0
  3  5  1  0  0  0  0
  3  6  1  0  0  0  0
 35 38  1  0  0  0  0
 35 39  1  0  0  0  0
 35 40  1  0  0  0  0
 11 14  1  0  0  0  0
 11 15  1  0  0  0  0
 11 16  1  0  0  0  0
 42 44  1  0  0  0  0
 42 45  1  0  0  0  0
 42 46  1  0  0  0  0
 21 27  1  0  0  0  0
 21 28  1  0  0  0  0
 32 37  1  0  0  0  0
  8 13  1  0  0  0  0
 18 26  1  0  0  0  0
 24 29  1  0  0  0  0
 24 30  1  0  0  0  0
 41 43  1  0  0  0  0
  7 12  1  0  0  0  0
 31 36  1  0  0  0  0
 17 25  1  0  0  0  0
M  END
$$$$

  -OEChem-02062319033D

 46 45  0     1  0  0  0  0  0999 V2000
   -0.0543    1.9736    3.8406 C   0  0  0  0  0  0  0  0  0  0  0  0
    0.6744    1.6099    4.7562 O   0  0  0  0  0  0  0  0  0  0  0  0
   -0.5599    3.3779    3.8160 C   0  0  0  0  0  0  0  0  0  0  0  0
   -1.5202    3.4885    4.3450 H   0  0  0  0  0  0  0  0  0  0  0  0
    0.1282    4.0814    4.3116 H   0  0  0  0  0  0  0  0  0  0  0  0
   -0.7317    3.7994    2.8126 H   0  0  0  0  0  0  0  0  0  0  0  0
   -0.4812    1.1968    2.7762 N   0  0  0  0  0  0  0  0  0  0  0  0
   -0.1106   -0.1834    2.6051 C   0  0  2  0  0  0  0  0  0  0  0  0
   -0.0696   -0.4775    1.1113 C   0  0  0  0  0  0  0  0  0  0  0  0
   -0.6805    0.1900    0.2792 O   0  0  0  0  0  0  0  0  0  0  0  0
   -1.0852   -1.1101    3.3150 C   0  0  0  0  0  0  0  0  0  0  0  0
   -1.0883    1.6241    2.0791 H   0  0  0  0  0  0  0  0  0  0  0  0
    0.8937   -0.2959    3.0277 H   0  0  0  0  0  0  0  0  0  0  0  0
   -2.0970   -1.0114    2.9051 H   0  0  0  0  0  0  0  0  0  0  0  0
   -0.7860   -2.1580    3.2078 H   0  0  0  0  0  0  0  0  0  0  0  0
   -1.1357   -0.8775    4.3842 H   0  0  0  0  0  0  0  0  0  0  0  0
    0.6950   -1.6003    0.8178 N   0  0  0  0  0  0  0  0  0  0  0  0
    1.8211   -2.0085    1.6185 C   0  0  2  0  0  0  0  0  0  0  0  0
    2.8320   -0.8687    1.6048 C   0  0  0  0  0  0  0  0  0  0  0  0
    3.4360   -0.4946    2.6082 O   0  0  0  0  0  0  0  0  0  0  0  0
    2.4553   -3.2971    1.0943 C   0  0  0  0  0  0  0  0  0  0  0  0
    1.5810   -4.5210    1.3029 C   0  0  0  0  0  0  0  0  0  0  0  0
    0.9481   -4.7473    2.3299 O   0  0  0  0  0  0  0  0  0  0  0  0
    1.5731   -5.3513    0.2021 N   0  0  0  0  0  0  0  0  0  0  0  0
    0.4332   -2.1860    0.0282 H   0  0  0  0  0  0  0  0  0  0  0  0
    1.4466   -2.1399    2.6404 H   0  0  0  0  0  0  0  0  0  0  0  0
    2.6441   -3.2162    0.0163 H   0  0  0  0  0  0  0  0  0  0  0  0
    3.4238   -3.4744    1.5794 H   0  0  0  0  0  0  0  0  0  0  0  0
    2.1096   -5.1221   -0.6280 H   0  0  0  0  0  0  0  0  0  0  0  0
    1.0385   -6.2137    0.1764 H   0  0  0  0  0  0  0  0  0  0  0  0
    3.0197   -0.3494    0.3316 N   0  0  0  0  0  0  0  0  0  0  0  0
    3.9513    0.7217    0.0710 C   0  0  2  0  0  0  0  0  0  0  0  0
    5.3302    0.2683    0.5320 C   0  0  0  0  0  0  0  0  0  0  0  0
    5.5006   -0.6179    1.3668 O   0  0  0  0  0  0  0  0  0  0  0  0
    3.5351    2.0016    0.7791 C   0  0  0  0  0  0  0  0  0  0  0  0
    2.4965   -0.7318   -0.4505 H   0  0  0  0  0  0  0  0  0  0  0  0
    3.9606    0.8759   -1.0135 H   0  0  0  0  0  0  0  0  0  0  0  0
    3.5200    1.8665    1.8668 H   0  0  0  0  0  0  0  0  0  0  0  0
    4.2272    2.8207    0.5574 H   0  0  0  0  0  0  0  0  0  0  0  0
    2.5310    2.3100    0.4685 H   0  0  0  0  0  0  0  0  0  0  0  0
    6.3471    0.9991   -0.0663 N   0  0  0  0  0  0  0  0  0  0  0  0
    7.7443    0.7673    0.2165 C   0  0  0  0  0  0  0  0  0  0  0  0
    6.1145    1.7025   -0.7613 H   0  0  0  0  0  0  0  0  0  0  0  0
    8.0693    1.4317    1.0307 H   0  0  0  0  0  0  0  0  0  0  0  0
    7.8881   -0.2805    0.5190 H   0  0  0  0  0  0  0  0  0  0  0  0
    8.3399    0.9737   -0.6849 H   0  0  0  0  0  0  0  0  0  0  0  0
  1  3  1  0  0  0  0
  1  7  1  0  0  0  0
  1  2  2  0  0  0  0
 21 22  1  0  0  0  0
 22 24  1  0  0  0  0
 22 23  2  0  0  0  0
 32 33  1  0  0  0  0
 33 41  1  0  0  0  0
 33 34  2  0  0  0  0
  8  9  1  0  0  0  0
  9 17  1  0  0  0  0
  9 10  2  0  0  0  0
 18 19  1  0  0  0  0
 19 31  1  0  0  0  0
 19 20  2  0  0  0  0
 32 35  1  0  0  0  0
  8 11  1  0  0  0  0
 41 42  1  0  0  0  0
 18 21  1  0  0  0  0
 31 32  1  0  0  0  0
  7  8  1  0  0  0  0
 17 18  1  0  0  0  0
  3  4  1  0  0  0  0
  3  5  1  0  0  0  0
  3  6  1  0  0  0  0
 35 38  1  0  0  0  0
 35 39  1  0  0  0  0
 35 40  1  0  0  0  0
 11 14  1  0  0  0  0
 11 15  1  0  0  0  0
 11 16  1  0  0  0  0
 42 44  1  0  0  0  0
 42 45  1  0  0  0  0
 42 46  1  0  0  0  0
 21 27  1  0  0  0  0
 21 28  1  0  0  0  0
 32 37  1  0  0  0  0
  8 13  1  0  0  0  0
 18 26  1  0  0  0  0
 24 29  1  0  0  0  0
 24 30  1  0  0  0  0
 41 43  1  0  0  0  0
  7 12  1  0  0  0  0
 31 36  1  0  0  0  0
 17 25  1  0  0  0  0
M  END
$$$$

  -OEChem-02062319033D

 46 45  0     1  0  0  0  0  0999 V2000
   -0.0543    1.9736    3.8406 C   0  0  0  0  0  0  0  0  0  0  0  0
    0.6744    1.6099    4.7562 O   0  0  0  0  0  0  0  0  0  0  0  0
   -0.5599    3.3779    3.8160 C   0  0  0  0  0  0  0  0  0  0  0  0
   -1.5202    3.4885    4.3450 H   0  0  0  0  0  0  0  0  0  0  0  0
    0.1282    4.0814    4.3116 H   0  0  0  0  0  0  0  0  0  0  0  0
   -0.7317    3.7994    2.8126 H   0  0  0  0  0  0  0  0  0  0  0  0
   -0.4812    1.1968    2.7762 N   0  0  0  0  0  0  0  0  0  0  0  0
   -0.1106   -0.1834    2.6051 C   0  0  2  0  0  0  0  0  0  0  0  0
   -0.0696   -0.4775    1.1113 C   0  0  0  0  0  0  0  0  0  0  0  0
   -0.6805    0.1900    0.2792 O   0  0  0  0  0  0  0  0  0  0  0  0
   -1.0852   -1.1101    3.3150 C   0  0  0  0  0  0  0  0  0  0  0  0
   -1.0883    1.6241    2.0791 H   0  0  0  0  0  0  0  0  0  0  0  0
    0.8937   -0.2959    3.0277 H   0  0  0  0  0  0  0  0  0  0  0  0
   -2.0970   -1.0114    2.9051 H   0  0  0  0  0  0  0  0  0  0  0  0
   -0.7860   -2.1580    3.2078 H   0  0  0  0  0  0  0  0  0  0  0  0
   -1.1357   -0.8775    4.3842 H   0  0  0  0  0  0  0  0  0  0  0  0
    0.6950   -1.6003    0.8178 N   0  0  0  0  0  0  0  0  0  0  0  0
    1.6076   -2.1917    1.7629 C   0  0  2  0  0  0  0  0  0  0  0  0
    2.6425   -1.1341    2.1260 C   0  0  0  0  0  0  0  0  0  0  0  0
    3.0331   -0.9435    3.2760 O   0  0  0  0  0  0  0  0  0  0  0  0
    2.2875   -3.4376    1.1949 C   0  0  0  0  0  0  0  0  0  0  0  0
    1.3412   -4.6145    1.0359 C   0  0  0  0  0  0  0  0  0  0  0  0
    0.4955   -4.9343    1.8662 O   0  0  0  0  0  0  0  0  0  0  0  0
    1.5352   -5.2841   -0.1537 N   0  0  0  0  0  0  0  0  0  0  0  0
    0.5845   -2.0530   -0.0866 H   0  0  0  0  0  0  0  0  0  0  0  0
    1.0191   -2.4349    2.6553 H   0  0  0  0  0  0  0  0  0  0  0  0
    2.7047   -3.2236    0.2027 H   0  0  0  0  0  0  0  0  0  0  0  0
    3.1226   -3.7467    1.8366 H   0  0  0  0  0  0  0  0  0  0  0  0
    2.2448   -4.9817   -0.8128 H   0  0  0  0  0  0  0  0  0  0  0  0
    0.9847   -6.0955   -0.4161 H   0  0  0  0  0  0  0  0  0  0  0  0
    3.1175   -0.4601    1.0097 N   0  0  0  0  0  0  0  0  0  0  0  0
    4.1248    0.5689    1.1075 C   0  0  2  0  0  0  0  0  0  0  0  0
    5.3548   -0.0384    1.7691 C   0  0  0  0  0  0  0  0  0  0  0  0
    5.3083   -1.0400    2.4803 O   0  0  0  0  0  0  0  0  0  0  0  0
    3.6182    1.7660    1.8968 C   0  0  0  0  0  0  0  0  0  0  0  0
    2.7582   -0.6946    0.0890 H   0  0  0  0  0  0  0  0  0  0  0  0
    4.3711    0.8688    0.0830 H   0  0  0  0  0  0  0  0  0  0  0  0
    3.3664    1.4850    2.9259 H   0  0  0  0  0  0  0  0  0  0  0  0
    4.3734    2.5574    1.9457 H   0  0  0  0  0  0  0  0  0  0  0  0
    2.7163    2.1832    1.4361 H   0  0  0  0  0  0  0  0  0  0  0  0
    6.5039    0.6946    1.5071 N   0  0  0  0  0  0  0  0  0  0  0  0
    7.7985    0.3293    2.0330 C   0  0  0  0  0  0  0  0  0  0  0  0
    6.4527    1.5008    0.8914 H   0  0  0  0  0  0  0  0  0  0  0  0
    7.9685    0.8520    2.9859 H   0  0  0  0  0  0  0  0  0  0  0  0
    7.8330   -0.7574    2.1999 H   0  0  0  0  0  0  0  0  0  0  0  0
    8.5801    0.6148    1.3137 H   0  0  0  0  0  0  0  0  0  0  0  0
  1  3  1  0  0  0  0
  1  7  1  0  0  0  0
  1  2  2  0  0  0  0
 21 22  1  0  0  0  0
 22 24  1  0  0  0  0
 22 23  2  0  0  0  0
 32 33  1  0  0  0  0
 33 41  1  0  0  0  0
 33 34  2  0  0  0  0
  8  9  1  0  0  0  0
  9 17  1  0  0  0  0
  9 10  2  0  0  0  0
 18 19  1  0  0  0  0
 19 31  1  0  0  0  0
 19 20  2  0  0  0  0
 32 35  1  0  0  0  0
  8 11  1  0  0  0  0
 41 42  1  0  0  0  0
 18 21  1  0  0  0  0
 31 32  1  0  0  0  0
  7  8  1  0  0  0  0
 17 18  1  0  0  0  0
  3  4  1  0  0  0  0
  3  5  1  0  0  0  0
  3  6  1  0  0  0  0
 35 38  1  0  0  0  0
 35 39  1  0  0  0  0
 35 40  1  0  0  0  0
 11 14  1  0  0  0  0
 11 15  1  0  0  0  0
 11 16  1  0  0  0  0
 42 44  1  0  0  0  0
 42 45  1  0  0  0  0
 42 46  1  0  0  0  0
 21 27  1  0  0  0  0
 21 28  1  0  0  0  0
 32 37  1  0  0  0  0
  8 13  1  0  0  0  0
 18 26  1  0  0  0  0
 24 29  1  0  0  0  0
 24 30  1  0  0  0  0
 41 43  1  0  0  0  0
  7 12  1  0  0  0  0
 31 36  1  0  0  0  0
 17 25  1  0  0  0  0
M  END
$$$$

  -OEChem-02062319033D

 46 45  0     1  0  0  0  0  0999 V2000
   -0.0543    1.9736    3.8406 C   0  0  0  0  0  0  0  0  0  0  0  0
    0.6744    1.6099    4.7562 O   0  0  0  0  0  0  0  0  0  0  0  0
   -0.5599    3.3779    3.8160 C   0  0  0  0  0  0  0  0  0  0  0  0
   -1.5202    3.4885    4.3450 H   0  0  0  0  0  0  0  0  0  0  0  0
    0.1282    4.0814    4.3116 H   0  0  0  0  0  0  0  0  0  0  0  0
   -0.7317    3.7994    2.8126 H   0  0  0  0  0  0  0  0  0  0  0  0
   -0.4812    1.1968    2.7762 N   0  0  0  0  0  0  0  0  0  0  0  0
   -0.1106   -0.1834    2.6051 C   0  0  2  0  0  0  0  0  0  0  0  0
   -0.0696   -0.4775    1.1113 C   0  0  0  0  0  0  0  0  0  0  0  0
   -0.6805    0.1900    0.2792 O   0  0  0  0  0  0  0  0  0  0  0  0
   -1.0852   -1.1101    3.3150 C   0  0  0  0  0  0  0  0  0  0  0  0
   -1.0883    1.6241    2.0791 H   0  0  0  0  0  0  0  0  0  0  0  0
    0.8937   -0.2959    3.0277 H   0  0  0  0  0  0  0  0  0  0  0  0
   -2.0970   -1.0114    2.9051 H   0  0  0  0  0  0  0  0  0  0  0  0
   -0.7860   -2.1580    3.2078 H   0  0  0  0  0  0  0  0  0  0  0  0
   -1.1357   -0.8775    4.3842 H   0  0  0  0  0  0  0  0  0  0  0  0
    0.6950   -1.6003    0.8178 N   0  0  0  0  0  0  0  0  0  0  0  0
    1.3612   -2.3775    1.8317 C   0  0  2  0  0  0  0  0  0  0  0  0
    2.3359   -1.4542    2.5520 C   0  0  0  0  0  0  0  0  0  0  0  0
    2.4798   -1.4503    3.7730 O   0  0  0  0  0  0  0  0  0  0  0  0
    2.0967   -3.5786    1.2370 C   0  0  0  0  0  0  0  0  0  0  0  0
    1.1602   -4.6538    0.7146 C   0  0  0  0  0  0  0  0  0  0  0  0
    0.1452   -5.0241    1.2969 O   0  0  0  0  0  0  0  0  0  0  0  0
    1.5767   -5.1664   -0.4957 N   0  0  0  0  0  0  0  0  0  0  0  0
    0.7619   -1.9164   -0.1469 H   0  0  0  0  0  0  0  0  0  0  0  0
    0.5870   -2.6987    2.5382 H   0  0  0  0  0  0  0  0  0  0  0  0
    2.7239   -3.2607    0.3944 H   0  0  0  0  0  0  0  0  0  0  0  0
    2.7631   -4.0299    1.9832 H   0  0  0  0  0  0  0  0  0  0  0  0
    2.4218   -4.8271   -0.9429 H   0  0  0  0  0  0  0  0  0  0  0  0
    1.0631   -5.8940   -0.9828 H   0  0  0  0  0  0  0  0  0  0  0  0
    3.0641   -0.6689    1.6694 N   0  0  0  0  0  0  0  0  0  0  0  0
    4.0673    0.2642    2.1231 C   0  0  2  0  0  0  0  0  0  0  0  0
    5.1031   -0.5121    2.9255 C   0  0  0  0  0  0  0  0  0  0  0  0
    4.8666   -1.5957    3.4556 O   0  0  0  0  0  0  0  0  0  0  0  0
    3.4519    1.3747    2.9603 C   0  0  0  0  0  0  0  0  0  0  0  0
    2.9003   -0.7498    0.6702 H   0  0  0  0  0  0  0  0  0  0  0  0
    4.5378    0.6833    1.2270 H   0  0  0  0  0  0  0  0  0  0  0  0
    2.9757    0.9740    3.8626 H   0  0  0  0  0  0  0  0  0  0  0  0
    4.2100    2.0973    3.2798 H   0  0  0  0  0  0  0  0  0  0  0  0
    2.6861    1.9129    2.3914 H   0  0  0  0  0  0  0  0  0  0  0  0
    6.3097    0.1678    3.0164 N   0  0  0  0  0  0  0  0  0  0  0  0
    7.4470   -0.3554    3.7366 C   0  0  0  0  0  0  0  0  0  0  0  0
    6.4228    1.0521    2.5297 H   0  0  0  0  0  0  0  0  0  0  0  0
    7.4307    0.0191    4.7708 H   0  0  0  0  0  0  0  0  0  0  0  0
    7.4022   -1.4545    3.7440 H   0  0  0  0  0  0  0  0  0  0  0  0
    8.3747   -0.0296    3.2434 H   0  0  0  0  0  0  0  0  0  0  0  0
  1  3  1  0  0  0  0
  1  7  1  0  0  0  0
  1  2  2  0  0  0  0
 21 22  1  0  0  0  0
 22 24  1  0  0  0  0
 22 23  2  0  0  0  0
 32 33  1  0  0  0  0
 33 41  1  0  0  0  0
 33 34  2  0  0  0  0
  8  9  1  0  0  0  0
  9 17  1  0  0  0  0
  9 10  2  0  0  0  0
 18 19  1  0  0  0  0
 19 31  1  0  0  0  0
 19 20  2  0  0  0  0
 32 35  1  0  0  0  0
  8 11  1  0  0  0  0
 41 42  1  0  0  0  0
 18 21  1  0  0  0  0
 31 32  1  0  0  0  0
  7  8  1  0  0  0  0
 17 18  1  0  0  0  0
  3  4  1  0  0  0  0
  3  5  1  0  0  0  0
  3  6  1  0  0  0  0
 35 38  1  0  0  0  0
 35 39  1  0  0  0  0
 35 40  1  0  0  0  0
 11 14  1  0  0  0  0
 11 15  1  0  0  0  0
 11 16  1  0  0  0  0
 42 44  1  0  0  0  0
 42 45  1  0  0  0  0
 42 46  1  0  0  0  0
 21 27  1  0  0  0  0
 21 28  1  0  0  0  0
 32 37  1  0  0  0  0
  8 13  1  0  0  0  0
 18 26  1  0  0  0  0
 24 29  1  0  0  0  0
 24 30  1  0  0  0  0
 41 43  1  0  0  0  0
  7 12  1  0  0  0  0
 31 36  1  0  0  0  0
 17 25  1  0  0  0  0
M  END
$$$$

  -OEChem-02062319033D

 46 45  0     1  0  0  0  0  0999 V2000
   -0.0543    1.9736    3.8406 C   0  0  0  0  0  0  0  0  0  0  0  0
    0.6744    1.6099    4.7562 O   0  0  0  0  0  0  0  0  0  0  0  0
   -0.5599    3.3779    3.8160 C   0  0  0  0  0  0  0  0  0  0  0  0
   -1.5202    3.4885    4.3450 H   0  0  0  0  0  0  0  0  0  0  0  0
    0.1282    4.0814    4.3116 H   0  0  0  0  0  0  0  0  0  0  0  0
   -0.7317    3.7994    2.8126 H   0  0  0  0  0  0  0  0  0  0  0  0
   -0.4812    1.1968    2.7762 N   0  0  0  0  0  0  0  0  0  0  0  0
   -0.1106   -0.1834    2.6051 C   0  0  2  0  0  0  0  0  0  0  0  0
   -0.0696   -0.4775    1.1113 C   0  0  0  0  0  0  0  0  0  0  0  0
   -0.6805    0.1900    0.2792 O   0  0  0  0  0  0  0  0  0  0  0  0
   -1.0852   -1.1101    3.3150 C   0  0  0  0  0  0  0  0  0  0  0  0
   -1.0883    1.6241    2.0791 H   0  0  0  0  0  0  0  0  0  0  0  0
    0.8937   -0.2959    3.0277 H   0  0  0  0  0  0  0  0  0  0  0  0
   -2.0970   -1.0114    2.9051 H   0  0  0  0  0  0  0  0  0  0  0  0
   -0.7860   -2.1580    3.2078 H   0  0  0  0  0  0  0  0  0  0  0  0
   -1.1357   -0.8775    4.3842 H   0  0  0  0  0  0  0  0  0  0  0  0
    0.6950   -1.6003    0.8178 N   0  0  0  0  0  0  0  0  0  0  0  0
    1.0987   -2.5533    1.8202 C   0  0  2  0  0  0  0  0  0  0  0  0
    1.9332   -1.8074    2.8538 C   0  0  0  0  0  0  0  0  0  0  0  0
    1.8137   -1.9803    4.0651 O   0  0  0  0  0  0  0  0  0  0  0  0
    1.8960   -3.7103    1.2176 C   0  0  0  0  0  0  0  0  0  0  0  0
    1.0505   -4.6360    0.3608 C   0  0  0  0  0  0  0  0  0  0  0  0
   -0.0791   -5.0106    0.6611 O   0  0  0  0  0  0  0  0  0  0  0  0
    1.6946   -5.0063   -0.8007 N   0  0  0  0  0  0  0  0  0  0  0  0
    0.9534   -1.7855   -0.1486 H   0  0  0  0  0  0  0  0  0  0  0  0
    0.1796   -2.9131    2.2972 H   0  0  0  0  0  0  0  0  0  0  0  0
    2.7002   -3.3248    0.5783 H   0  0  0  0  0  0  0  0  0  0  0  0
    2.3696   -4.3048    2.0094 H   0  0  0  0  0  0  0  0  0  0  0  0
    2.6284   -4.6690   -1.0097 H   0  0  0  0  0  0  0  0  0  0  0  0
    1.2682   -5.6229   -1.4851 H   0  0  0  0  0  0  0  0  0  0  0  0
    2.8632   -0.9616    2.2657 N   0  0  0  0  0  0  0  0  0  0  0  0
    3.7828   -0.1715    3.0488 C   0  0  2  0  0  0  0  0  0  0  0  0
    4.5924   -1.1206    3.9225 C   0  0  0  0  0  0  0  0  0  0  0  0
    4.2057   -2.2473    4.2261 O   0  0  0  0  0  0  0  0  0  0  0  0
    3.0475    0.8544    3.8970 C   0  0  0  0  0  0  0  0  0  0  0  0
    2.9129   -0.8937    1.2534 H   0  0  0  0  0  0  0  0  0  0  0  0
    4.4496    0.3321    2.3404 H   0  0  0  0  0  0  0  0  0  0  0  0
    2.3745    0.3684    4.6129 H   0  0  0  0  0  0  0  0  0  0  0  0
    3.7481    1.4719    4.4688 H   0  0  0  0  0  0  0  0  0  0  0  0
    2.4423    1.5174    3.2693 H   0  0  0  0  0  0  0  0  0  0  0  0
    5.7777   -0.5454    4.3587 N   0  0  0  0  0  0  0  0  0  0  0  0
    6.7139   -1.2402    5.2112 C   0  0  0  0  0  0  0  0  0  0  0  0
    6.0268    0.3870    4.0421 H   0  0  0  0  0  0  0  0  0  0  0  0
    6.4925   -1.0103    6.2638 H   0  0  0  0  0  0  0  0  0  0  0  0
    6.6252   -2.3241    5.0462 H   0  0  0  0  0  0  0  0  0  0  0  0
    7.7375   -0.9156    4.9726 H   0  0  0  0  0  0  0  0  0  0  0  0
  1  3  1  0  0  0  0
  1  7  1  0  0  0  0
  1  2  2  0  0  0  0
 21 22  1  0  0  0  0
 22 24  1  0  0  0  0
 22 23  2  0  0  0  0
 32 33  1  0  0  0  0
 33 41  1  0  0  0  0
 33 34  2  0  0  0  0
  8  9  1  0  0  0  0
  9 17  1  0  0  0  0
  9 10  2  0  0  0  0
 18 19  1  0  0  0  0
 19 31  1  0  0  0  0
 19 20  2  0  0  0  0
 32 35  1  0  0  0  0
  8 11  1  0  0  0  0
 41 42  1  0  0  0  0
 18 21  1  0  0  0  0
 31 32  1  0  0  0  0
  7  8  1  0  0  0  0
 17 18  1  0  0  0  0
  3  4  1  0  0  0  0
  3  5  1  0  0  0  0
  3  6  1  0  0  0  0
 35 38  1  0  0  0  0
 35 39  1  0  0  0  0
 35 40  1  0  0  0  0
 11 14  1  0  0  0  0
 11 15  1  0  0  0  0
 11 16  1  0  0  0  0
 42 44  1  0  0  0  0
 42 45  1  0  0  0  0
 42 46  1  0  0  0  0
 21 27  1  0  0  0  0
 21 28  1  0  0  0  0
 32 37  1  0  0  0  0
  8 13  1  0  0  0  0
 18 26  1  0  0  0  0
 24 29  1  0  0  0  0
 24 30  1  0  0  0  0
 41 43  1  0  0  0  0
  7 12  1  0  0  0  0
 31 36  1  0  0  0  0
 17 25  1  0  0  0  0
M  END
$$$$

  -OEChem-02062319033D

 46 45  0     1  0  0  0  0  0999 V2000
   -0.0543    1.9736    3.8406 C   0  0  0  0  0  0  0  0  0  0  0  0
    0.6744    1.6099    4.7562 O   0  0  0  0  0  0  0  0  0  0  0  0
   -0.5599    3.3779    3.8160 C   0  0  0  0  0  0  0  0  0  0  0  0
   -1.5202    3.4885    4.3450 H   0  0  0  0  0  0  0  0  0  0  0  0
    0.1282    4.0814    4.3116 H   0  0  0  0  0  0  0  0  0  0  0  0
   -0.7317    3.7994    2.8126 H   0  0  0  0  0  0  0  0  0  0  0  0
   -0.4812    1.1968    2.7762 N   0  0  0  0  0  0  0  0  0  0  0  0
   -0.1106   -0.1834    2.6051 C   0  0  2  0  0  0  0  0  0  0  0  0
   -0.0696   -0.4775    1.1113 C   0  0  0  0  0  0  0  0  0  0  0  0
   -0.6805    0.1900    0.2792 O   0  0  0  0  0  0  0  0  0  0  0  0
   -1.0852   -1.1101    3.3150 C   0  0  0  0  0  0  0  0  0  0  0  0
   -1.0883    1.6241    2.0791 H   0  0  0  0  0  0  0  0  0  0  0  0
    0.8937   -0.2959    3.0277 H   0  0  0  0  0  0  0  0  0  0  0  0
   -2.0970   -1.0114    2.9051 H   0  0  0  0  0  0  0  0  0  0  0  0
   -0.7860   -2.1580    3.2078 H   0  0  0  0  0  0  0  0  0  0  0  0
   -1.1357   -0.8775    4.3842 H   0  0  0  0  0  0  0  0  0  0  0  0
    0.6950   -1.6003    0.8178 N   0  0  0  0  0  0  0  0  0  0  0  0
    0.8379   -2.7071    1.7291 C   0  0  2  0  0  0  0  0  0  0  0  0
    1.4619   -2.1695    3.0108 C   0  0  0  0  0  0  0  0  0  0  0  0
    1.0803   -2.4975    4.1325 O   0  0  0  0  0  0  0  0  0  0  0  0
    1.6989   -3.8237    1.1382 C   0  0  0  0  0  0  0  0  0  0  0  0
    1.0194   -4.5625   -0.0014 C   0  0  0  0  0  0  0  0  0  0  0  0
   -0.1621   -4.8948    0.0019 O   0  0  0  0  0  0  0  0  0  0  0  0
    1.8811   -4.8147   -1.0478 N   0  0  0  0  0  0  0  0  0  0  0  0
    1.1458   -1.6694   -0.0916 H   0  0  0  0  0  0  0  0  0  0  0  0
   -0.1753   -3.0637    1.9487 H   0  0  0  0  0  0  0  0  0  0  0  0
    2.6355   -3.4117    0.7418 H   0  0  0  0  0  0  0  0  0  0  0  0
    1.9691   -4.5524    1.9133 H   0  0  0  0  0  0  0  0  0  0  0  0
    2.8505   -4.5180   -1.0084 H   0  0  0  0  0  0  0  0  0  0  0  0
    1.5863   -5.3007   -1.8887 H   0  0  0  0  0  0  0  0  0  0  0  0
    2.5284   -1.3183    2.7580 N   0  0  0  0  0  0  0  0  0  0  0  0
    3.2906   -0.7087    3.8213 C   0  0  2  0  0  0  0  0  0  0  0  0
    3.8573   -1.8224    4.6920 C   0  0  0  0  0  0  0  0  0  0  0  0
    3.3706   -2.9503    4.7394 O   0  0  0  0  0  0  0  0  0  0  0  0
    2.4326    0.2405    4.6432 C   0  0  0  0  0  0  0  0  0  0  0  0
    2.7953   -1.1164    1.7989 H   0  0  0  0  0  0  0  0  0  0  0  0
    4.1123   -0.1608    3.3475 H   0  0  0  0  0  0  0  0  0  0  0  0
    1.6039   -0.2905    5.1256 H   0  0  0  0  0  0  0  0  0  0  0  0
    3.0191    0.7237    5.4315 H   0  0  0  0  0  0  0  0  0  0  0  0
    2.0017    1.0236    4.0100 H   0  0  0  0  0  0  0  0  0  0  0  0
    4.9442   -1.3964    5.4424 N   0  0  0  0  0  0  0  0  0  0  0  0
    5.6491   -2.2647    6.3562 C   0  0  0  0  0  0  0  0  0  0  0  0
    5.2917   -0.4491    5.3254 H   0  0  0  0  0  0  0  0  0  0  0  0
    5.2178   -2.1658    7.3632 H   0  0  0  0  0  0  0  0  0  0  0  0
    5.5548   -3.3071    6.0178 H   0  0  0  0  0  0  0  0  0  0  0  0
    6.7121   -1.9828    6.3835 H   0  0  0  0  0  0  0  0  0  0  0  0
  1  3  1  0  0  0  0
  1  7  1  0  0  0  0
  1  2  2  0  0  0  0
 21 22  1  0  0  0  0
 22 24  1  0  0  0  0
 22 23  2  0  0  0  0
 32 33  1  0  0  0  0
 33 41  1  0  0  0  0
 33 34  2  0  0  0  0
  8  9  1  0  0  0  0
  9 17  1  0  0  0  0
  9 10  2  0  0  0  0
 18 19  1  0  0  0  0
 19 31  1  0  0  0  0
 19 20  2  0  0  0  0
 32 35  1  0  0  0  0
  8 11  1  0  0  0  0
 41 42  1  0  0  0  0
 18 21  1  0  0  0  0
 31 32  1  0  0  0  0
  7  8  1  0  0  0  0
 17 18  1  0  0  0  0
  3  4  1  0  0  0  0
  3  5  1  0  0  0  0
  3  6  1  0  0  0  0
 35 38  1  0  0  0  0
 35 39  1  0  0  0  0
 35 40  1  0  0  0  0
 11 14  1  0  0  0  0
 11 15  1  0  0  0  0
 11 16  1  0  0  0  0
 42 44  1  0  0  0  0
 42 45  1  0  0  0  0
 42 46  1  0  0  0  0
 21 27  1  0  0  0  0
 21 28  1  0  0  0  0
 32 37  1  0  0  0  0
  8 13  1  0  0  0  0
 18 26  1  0  0  0  0
 24 29  1  0  0  0  0
 24 30  1  0  0  0  0
 41 43  1  0  0  0  0
  7 12  1  0  0  0  0
 31 36  1  0  0  0  0
 17 25  1  0  0  0  0
M  END
$$$$

  -OEChem-02062319033D

 46 45  0     1  0  0  0  0  0999 V2000
   -0.0543    1.9736    3.8406 C   0  0  0  0  0  0  0  0  0  0  0  0
    0.6744    1.6099    4.7562 O   0  0  0  0  0  0  0  0  0  0  0  0
   -0.5599    3.3779    3.8160 C   0  0  0  0  0  0  0  0  0  0  0  0
   -1.5202    3.4885    4.3450 H   0  0  0  0  0  0  0  0  0  0  0  0
    0.1282    4.0814    4.3116 H   0  0  0  0  0  0  0  0  0  0  0  0
   -0.7317    3.7994    2.8126 H   0  0  0  0  0  0  0  0  0  0  0  0
   -0.4812    1.1968    2.7762 N   0  0  0  0  0  0  0  0  0  0  0  0
   -0.1106   -0.1834    2.6051 C   0  0  2  0  0  0  0  0  0  0  0  0
   -0.0696   -0.4775    1.1113 C   0  0  0  0  0  0  0  0  0  0  0  0
   -0.6805    0.1900    0.2792 O   0  0  0  0  0  0  0  0  0  0  0  0
   -1.0852   -1.1101    3.3150 C   0  0  0  0  0  0  0  0  0  0  0  0
   -1.0883    1.6241    2.0791 H   0  0  0  0  0  0  0  0  0  0  0  0
    0.8937   -0.2959    3.0277 H   0  0  0  0  0  0  0  0  0  0  0  0
   -2.0970   -1.0114    2.9051 H   0  0  0  0  0  0  0  0  0  0  0  0
   -0.7860   -2.1580    3.2078 H   0  0  0  0  0  0  0  0  0  0  0  0
   -1.1357   -0.8775    4.3842 H   0  0  0  0  0  0  0  0  0  0  0  0
    0.6950   -1.6003    0.8178 N   0  0  0  0  0  0  0  0  0  0  0  0
    0.5966   -2.8284    1.5647 C   0  0  2  0  0  0  0  0  0  0  0  0
    0.9539   -2.5158    3.0124 C   0  0  0  0  0  0  0  0  0  0  0  0
    0.3294   -2.9665    3.9707 O   0  0  0  0  0  0  0  0  0  0  0  0
    1.5189   -3.9113    1.0041 C   0  0  0  0  0  0  0  0  0  0  0  0
    1.0692   -4.4382   -0.3472 C   0  0  0  0  0  0  0  0  0  0  0  0
   -0.0981   -4.6845   -0.6357 O   0  0  0  0  0  0  0  0  0  0  0  0
    2.1234   -4.6047   -1.2202 N   0  0  0  0  0  0  0  0  0  0  0  0
    1.3261   -1.5758    0.0202 H   0  0  0  0  0  0  0  0  0  0  0  0
   -0.4534   -3.1401    1.5165 H   0  0  0  0  0  0  0  0  0  0  0  0
    2.5340   -3.5153    0.8738 H   0  0  0  0  0  0  0  0  0  0  0  0
    1.5888   -4.7560    1.7014 H   0  0  0  0  0  0  0  0  0  0  0  0
    3.0731   -4.3845   -0.9393 H   0  0  0  0  0  0  0  0  0  0  0  0
    1.9955   -4.9495   -2.1663 H   0  0  0  0  0  0  0  0  0  0  0  0
    2.0827   -1.7147    3.1127 N   0  0  0  0  0  0  0  0  0  0  0  0
    2.6242   -1.3107    4.3881 C   0  0  2  0  0  0  0  0  0  0  0  0
    2.9479   -2.5697    5.1816 C   0  0  0  0  0  0  0  0  0  0  0  0
    2.4182   -3.6567    4.9605 O   0  0  0  0  0  0  0  0  0  0  0  0
    1.6490   -0.4251    5.1479 C   0  0  0  0  0  0  0  0  0  0  0  0
    2.5555   -1.4028    2.2696 H   0  0  0  0  0  0  0  0  0  0  0  0
    3.5491   -0.7620    4.1795 H   0  0  0  0  0  0  0  0  0  0  0  0
    0.7162   -0.9579    5.3660 H   0  0  0  0  0  0  0  0  0  0  0  0
    2.0727   -0.0962    6.1026 H   0  0  0  0  0  0  0  0  0  0  0  0
    1.3943    0.4653    4.5631 H   0  0  0  0  0  0  0  0  0  0  0  0
    3.8661   -2.3271    6.1937 N   0  0  0  0  0  0  0  0  0  0  0  0
    4.3252   -3.3592    7.0937 C   0  0  0  0  0  0  0  0  0  0  0  0
    4.2676   -1.3993    6.2922 H   0  0  0  0  0  0  0  0  0  0  0  0
    3.6934   -3.3689    7.9941 H   0  0  0  0  0  0  0  0  0  0  0  0
    4.2640   -4.3364    6.5924 H   0  0  0  0  0  0  0  0  0  0  0  0
    5.3682   -3.1586    7.3799 H   0  0  0  0  0  0  0  0  0  0  0  0
  1  3  1  0  0  0  0
  1  7  1  0  0  0  0
  1  2  2  0  0  0  0
 21 22  1  0  0  0  0
 22 24  1  0  0  0  0
 22 23  2  0  0  0  0
 32 33  1  0  0  0  0
 33 41  1  0  0  0  0
 33 34  2  0  0  0  0
  8  9  1  0  0  0  0
  9 17  1  0  0  0  0
  9 10  2  0  0  0  0
 18 19  1  0  0  0  0
 19 31  1  0  0  0  0
 19 20  2  0  0  0  0
 32 35  1  0  0  0  0
  8 11  1  0  0  0  0
 41 42  1  0  0  0  0
 18 21  1  0  0  0  0
 31 32  1  0  0  0  0
  7  8  1  0  0  0  0
 17 18  1  0  0  0  0
  3  4  1  0  0  0  0
  3  5  1  0  0  0  0
  3  6  1  0  0  0  0
 35 38  1  0  0  0  0
 35 39  1  0  0  0  0
 35 40  1  0  0  0  0
 11 14  1  0  0  0  0
 11 15  1  0  0  0  0
 11 16  1  0  0  0  0
 42 44  1  0  0  0  0
 42 45  1  0  0  0  0
 42 46  1  0  0  0  0
 21 27  1  0  0  0  0
 21 28  1  0  0  0  0
 32 37  1  0  0  0  0
  8 13  1  0  0  0  0
 18 26  1  0  0  0  0
 24 29  1  0  0  0  0
 24 30  1  0  0  0  0
 41 43  1  0  0  0  0
  7 12  1  0  0  0  0
 31 36  1  0  0  0  0
 17 25  1  0  0  0  0
M  END
$$$$

  -OEChem-02062319033D

 46 45  0     1  0  0  0  0  0999 V2000
   -0.0543    1.9736    3.8406 C   0  0  0  0  0  0  0  0  0  0  0  0
    0.6744    1.6099    4.7562 O   0  0  0  0  0  0  0  0  0  0  0  0
   -0.5599    3.3779    3.8160 C   0  0  0  0  0  0  0  0  0  0  0  0
   -1.5202    3.4885    4.3450 H   0  0  0  0  0  0  0  0  0  0  0  0
    0.1282    4.0814    4.3116 H   0  0  0  0  0  0  0  0  0  0  0  0
   -0.7317    3.7994    2.8126 H   0  0  0  0  0  0  0  0  0  0  0  0
   -0.4812    1.1968    2.7762 N   0  0  0  0  0  0  0  0  0  0  0  0
   -0.1106   -0.1834    2.6051 C   0  0  2  0  0  0  0  0  0  0  0  0
   -0.0696   -0.4775    1.1113 C   0  0  0  0  0  0  0  0  0  0  0  0
   -0.6805    0.1900    0.2792 O   0  0  0  0  0  0  0  0  0  0  0  0
   -1.0852   -1.1101    3.3150 C   0  0  0  0  0  0  0  0  0  0  0  0
   -1.0883    1.6241    2.0791 H   0  0  0  0  0  0  0  0  0  0  0  0
    0.8937   -0.2959    3.0277 H   0  0  0  0  0  0  0  0  0  0  0  0
   -2.0970   -1.0114    2.9051 H   0  0  0  0  0  0  0  0  0  0  0  0
   -0.7860   -2.1580    3.2078 H   0  0  0  0  0  0  0  0  0  0  0  0
   -1.1357   -0.8775    4.3842 H   0  0  0  0  0  0  0  0  0  0  0  0
    0.6950   -1.6003    0.8178 N   0  0  0  0  0  0  0  0  0  0  0  0
    0.3913   -2.9090    1.3381 C   0  0  2  0  0  0  0  0  0  0  0  0
    0.4440   -2.8228    2.8583 C   0  0  0  0  0  0  0  0  0  0  0  0
   -0.3876   -3.3555    3.5905 O   0  0  0  0  0  0  0  0  0  0  0  0
    1.3683   -3.9669    0.8245 C   0  0  0  0  0  0  0  0  0  0  0  0
    1.1964   -4.2716   -0.6531 C   0  0  0  0  0  0  0  0  0  0  0  0
    0.1085   -4.3941   -1.2082 O   0  0  0  0  0  0  0  0  0  0  0  0
    2.4049   -4.3904   -1.3062 N   0  0  0  0  0  0  0  0  0  0  0  0
    1.4820   -1.5112    0.1793 H   0  0  0  0  0  0  0  0  0  0  0  0
   -0.6358   -3.1371    1.0300 H   0  0  0  0  0  0  0  0  0  0  0  0
    2.4027   -3.6287    0.9654 H   0  0  0  0  0  0  0  0  0  0  0  0
    1.2546   -4.9018    1.3882 H   0  0  0  0  0  0  0  0  0  0  0  0
    3.2809   -4.2776   -0.8070 H   0  0  0  0  0  0  0  0  0  0  0  0
    2.4680   -4.5930   -2.2988 H   0  0  0  0  0  0  0  0  0  0  0  0
    1.5562   -2.1236    3.3057 N   0  0  0  0  0  0  0  0  0  0  0  0
    1.8292   -1.9365    4.7105 C   0  0  2  0  0  0  0  0  0  0  0  0
    1.9264   -3.3116    5.3580 C   0  0  0  0  0  0  0  0  0  0  0  0
    1.4134   -4.3185    4.8743 O   0  0  0  0  0  0  0  0  0  0  0  0
    0.7503   -1.0971    5.3768 C   0  0  0  0  0  0  0  0  0  0  0  0
    2.2098   -1.7333    2.6332 H   0  0  0  0  0  0  0  0  0  0  0  0
    2.7982   -1.4303    4.7798 H   0  0  0  0  0  0  0  0  0  0  0  0
   -0.2279   -1.5882    5.3175 H   0  0  0  0  0  0  0  0  0  0  0  0
    0.9735   -0.9321    6.4361 H   0  0  0  0  0  0  0  0  0  0  0  0
    0.6613   -0.1195    4.8907 H   0  0  0  0  0  0  0  0  0  0  0  0
    2.6166   -3.2742    6.5614 N   0  0  0  0  0  0  0  0  0  0  0  0
    2.8324   -4.4490    7.3733 C   0  0  0  0  0  0  0  0  0  0  0  0
    3.0243   -2.3989    6.8766 H   0  0  0  0  0  0  0  0  0  0  0  0
    2.0234   -4.5375    8.1134 H   0  0  0  0  0  0  0  0  0  0  0  0
    2.8408   -5.3420    6.7310 H   0  0  0  0  0  0  0  0  0  0  0  0
    3.7975   -4.3627    7.8939 H   0  0  0  0  0  0  0  0  0  0  0  0
  1  3  1  0  0  0  0
  1  7  1  0  0  0  0
  1  2  2  0  0  0  0
 21 22  1  0  0  0  0
 22 24  1  0  0  0  0
 22 23  2  0  0  0  0
 32 33  1  0  0  0  0
 33 41  1  0  0  0  0
 33 34  2  0  0  0  0
  8  9  1  0  0  0  0
  9 17  1  0  0  0  0
  9 10  2  0  0  0  0
 18 19  1  0  0  0  0
 19 31  1  0  0  0  0
 19 20  2  0  0  0  0
 32 35  1  0  0  0  0
  8 11  1  0  0  0  0
 41 42  1  0  0  0  0
 18 21  1  0  0  0  0
 31 32  1  0  0  0  0
  7  8  1  0  0  0  0
 17 18  1  0  0  0  0
  3  4  1  0  0  0  0
  3  5  1  0  0  0  0
  3  6  1  0  0  0  0
 35 38  1  0  0  0  0
 35 39  1  0  0  0  0
 35 40  1  0  0  0  0
 11 14  1  0  0  0  0
 11 15  1  0  0  0  0
 11 16  1  0  0  0  0
 42 44  1  0  0  0  0
 42 45  1  0  0  0  0
 42 46  1  0  0  0  0
 21 27  1  0  0  0  0
 21 28  1  0  0  0  0
 32 37  1  0  0  0  0
  8 13  1  0  0  0  0
 18 26  1  0  0  0  0
 24 29  1  0  0  0  0
 24 30  1  0  0  0  0
 41 43  1  0  0  0  0
  7 12  1  0  0  0  0
 31 36  1  0  0  0  0
 17 25  1  0  0  0  0
M  END
$$$$

  -OEChem-02062319033D

 46 45  0     1  0  0  0  0  0999 V2000
   -0.0543    1.9736    3.8406 C   0  0  0  0  0  0  0  0  0  0  0  0
    0.6744    1.6099    4.7562 O   0  0  0  0  0  0  0  0  0  0  0  0
   -0.5599    3.3779    3.8160 C   0  0  0  0  0  0  0  0  0  0  0  0
   -1.5202    3.4885    4.3450 H   0  0  0  0  0  0  0  0  0  0  0  0
    0.1282    4.0814    4.3116 H   0  0  0  0  0  0  0  0  0  0  0  0
   -0.7317    3.7994    2.8126 H   0  0  0  0  0  0  0  0  0  0  0  0
   -0.4812    1.1968    2.7762 N   0  0  0  0  0  0  0  0  0  0  0  0
   -0.1106   -0.1834    2.6051 C   0  0  2  0  0  0  0  0  0  0  0  0
   -0.0696   -0.4775    1.1113 C   0  0  0  0  0  0  0  0  0  0  0  0
   -0.6805    0.1900    0.2792 O   0  0  0  0  0  0  0  0  0  0  0  0
   -1.0852   -1.1101    3.3150 C   0  0  0  0  0  0  0  0  0  0  0  0
   -1.0883    1.6241    2.0791 H   0  0  0  0  0  0  0  0  0  0  0  0
    0.8937   -0.2959    3.0277 H   0  0  0  0  0  0  0  0  0  0  0  0
   -2.0970   -1.0114    2.9051 H   0  0  0  0  0  0  0  0  0  0  0  0
   -0.7860   -2.1580    3.2078 H   0  0  0  0  0  0  0  0  0  0  0  0
   -1.1357   -0.8775    4.3842 H   0  0  0  0  0  0  0  0  0  0  0  0
    0.6950   -1.6003    0.8178 N   0  0  0  0  0  0  0  0  0  0  0  0
    0.2359   -2.9434    1.0649 C   0  0  2  0  0  0  0  0  0  0  0  0
   -0.0331   -3.0696    2.5592 C   0  0  0  0  0  0  0  0  0  0  0  0
   -1.0220   -3.6379    3.0180 O   0  0  0  0  0  0  0  0  0  0  0  0
    1.2573   -3.9868    0.6117 C   0  0  0  0  0  0  0  0  0  0  0  0
    1.3923   -4.0740   -0.8984 C   0  0  0  0  0  0  0  0  0  0  0  0
    0.4437   -4.0434   -1.6767 O   0  0  0  0  0  0  0  0  0  0  0  0
    2.7065   -4.1867   -1.2998 N   0  0  0  0  0  0  0  0  0  0  0  0
    1.6029   -1.4800    0.3747 H   0  0  0  0  0  0  0  0  0  0  0  0
   -0.7101   -3.0550    0.5223 H   0  0  0  0  0  0  0  0  0  0  0  0
    2.2505   -3.7441    1.0102 H   0  0  0  0  0  0  0  0  0  0  0  0
    0.9893   -4.9797    0.9951 H   0  0  0  0  0  0  0  0  0  0  0  0
    3.4598   -4.2045   -0.6204 H   0  0  0  0  0  0  0  0  0  0  0  0
    2.9717   -4.2557   -2.2772 H   0  0  0  0  0  0  0  0  0  0  0  0
    0.9850   -2.5174    3.3238 N   0  0  0  0  0  0  0  0  0  0  0  0
    0.9596   -2.5434    4.7666 C   0  0  2  0  0  0  0  0  0  0  0  0
    0.8622   -3.9975    5.2091 C   0  0  0  0  0  0  0  0  0  0  0  0
    0.4246   -4.8906    4.4867 O   0  0  0  0  0  0  0  0  0  0  0  0
   -0.2025   -1.7296    5.3143 C   0  0  0  0  0  0  0  0  0  0  0  0
    1.7818   -2.0854    2.8652 H   0  0  0  0  0  0  0  0  0  0  0  0
    1.9108   -2.1203    5.1074 H   0  0  0  0  0  0  0  0  0  0  0  0
   -1.1642   -2.1385    4.9835 H   0  0  0  0  0  0  0  0  0  0  0  0
   -0.2037   -1.7268    6.4093 H   0  0  0  0  0  0  0  0  0  0  0  0
   -0.1471   -0.6910    4.9707 H   0  0  0  0  0  0  0  0  0  0  0  0
    1.2811   -4.1731    6.5205 N   0  0  0  0  0  0  0  0  0  0  0  0
    1.2723   -5.4600    7.1761 C   0  0  0  0  0  0  0  0  0  0  0  0
    1.6466   -3.3796    7.0388 H   0  0  0  0  0  0  0  0  0  0  0  0
    0.3214   -5.5920    7.7130 H   0  0  0  0  0  0  0  0  0  0  0  0
    1.3822   -6.2552    6.4241 H   0  0  0  0  0  0  0  0  0  0  0  0
    2.1071   -5.5131    7.8905 H   0  0  0  0  0  0  0  0  0  0  0  0
  1  3  1  0  0  0  0
  1  7  1  0  0  0  0
  1  2  2  0  0  0  0
 21 22  1  0  0  0  0
 22 24  1  0  0  0  0
 22 23  2  0  0  0  0
 32 33  1  0  0  0  0
 33 41  1  0  0  0  0
 33 34  2  0  0  0  0
  8  9  1  0  0  0  0
  9 17  1  0  0  0  0
  9 10  2  0  0  0  0
 18 19  1  0  0  0  0
 19 31  1  0  0  0  0
 19 20  2  0  0  0  0
 32 35  1  0  0  0  0
  8 11  1  0  0  0  0
 41 42  1  0  0  0  0
 18 21  1  0  0  0  0
 31 32  1  0  0  0  0
  7  8  1  0  0  0  0
 17 18  1  0  0  0  0
  3  4  1  0  0  0  0
  3  5  1  0  0  0  0
  3  6  1  0  0  0  0
 35 38  1  0  0  0  0
 35 39  1  0  0  0  0
 35 40  1  0  0  0  0
 11 14  1  0  0  0  0
 11 15  1  0  0  0  0
 11 16  1  0  0  0  0
 42 44  1  0  0  0  0
 42 45  1  0  0  0  0
 42 46  1  0  0  0  0
 21 27  1  0  0  0  0
 21 28  1  0  0  0  0
 32 37  1  0  0  0  0
  8 13  1  0  0  0  0
 18 26  1  0  0  0  0
 24 29  1  0  0  0  0
 24 30  1  0  0  0  0
 41 43  1  0  0  0  0
  7 12  1  0  0  0  0
 31 36  1  0  0  0  0
 17 25  1  0  0  0  0
M  END
$$$$

  -OEChem-02062319033D

 46 45  0     1  0  0  0  0  0999 V2000
   -0.0543    1.9736    3.8406 C   0  0  0  0  0  0  0  0  0  0  0  0
    0.6744    1.6099    4.7562 O   0  0  0  0  0  0  0  0  0  0  0  0
   -0.5599    3.3779    3.8160 C   0  0  0  0  0  0  0  0  0  0  0  0
   -1.5202    3.4885    4.3450 H   0  0  0  0  0  0  0  0  0  0  0  0
    0.1282    4.0814    4.3116 H   0  0  0  0  0  0  0  0  0  0  0  0
   -0.7317    3.7994    2.8126 H   0  0  0  0  0  0  0  0  0  0  0  0
   -0.4812    1.1968    2.7762 N   0  0  0  0  0  0  0  0  0  0  0  0
   -0.1106   -0.1834    2.6051 C   0  0  2  0  0  0  0  0  0  0  0  0
   -0.0696   -0.4775    1.1113 C   0  0  0  0  0  0  0  0  0  0  0  0
   -0.6805    0.1900    0.2792 O   0  0  0  0  0  0  0  0  0  0  0  0
   -1.0852   -1.1101    3.3150 C   0  0  0  0  0  0  0  0  0  0  0  0
   -1.0883    1.6241    2.0791 H   0  0  0  0  0  0  0  0  0  0  0  0
    0.8937   -0.2959    3.0277 H   0  0  0  0  0  0  0  0  0  0  0  0
   -2.0970   -1.0114    2.9051 H   0  0  0  0  0  0  0  0  0  0  0  0
   -0.7860   -2.1580    3.2078 H   0  0  0  0  0  0  0  0  0  0  0  0
   -1.1357   -0.8775    4.3842 H   0  0  0  0  0  0  0  0  0  0  0  0
    0.6950   -1.6003    0.8178 N   0  0  0  0  0  0  0  0  0  0  0  0
    0.1411   -2.9292    0.7636 C   0  0  2  0  0  0  0  0  0  0  0  0
   -0.4448   -3.2392    2.1354 C   0  0  0  0  0  0  0  0  0  0  0  0
   -1.5305   -3.7944    2.2922 O   0  0  0  0  0  0  0  0  0  0  0  0
    1.1936   -3.9697    0.3800 C   0  0  0  0  0  0  0  0  0  0  0  0
    1.6436   -3.8590   -1.0661 C   0  0  0  0  0  0  0  0  0  0  0  0
    0.8846   -3.6562   -2.0092 O   0  0  0  0  0  0  0  0  0  0  0  0
    3.0077   -4.0072   -1.2016 N   0  0  0  0  0  0  0  0  0  0  0  0
    1.6805   -1.4842    0.5932 H   0  0  0  0  0  0  0  0  0  0  0  0
   -0.6712   -2.8993    0.0280 H   0  0  0  0  0  0  0  0  0  0  0  0
    2.0878   -3.8536    1.0053 H   0  0  0  0  0  0  0  0  0  0  0  0
    0.8110   -4.9845    0.5488 H   0  0  0  0  0  0  0  0  0  0  0  0
    3.5977   -4.1702   -0.3924 H   0  0  0  0  0  0  0  0  0  0  0  0
    3.4720   -3.9604   -2.1030 H   0  0  0  0  0  0  0  0  0  0  0  0
    0.4080   -2.8691    3.1658 N   0  0  0  0  0  0  0  0  0  0  0  0
    0.0747   -3.0901    4.5526 C   0  0  2  0  0  0  0  0  0  0  0  0
   -0.1721   -4.5806    4.7451 C   0  0  0  0  0  0  0  0  0  0  0  0
   -0.4806   -5.3339    3.8241 O   0  0  0  0  0  0  0  0  0  0  0  0
   -1.1443   -2.2796    4.9647 C   0  0  0  0  0  0  0  0  0  0  0  0
    1.3006   -2.4352    2.9495 H   0  0  0  0  0  0  0  0  0  0  0  0
    0.9475   -2.7849    5.1401 H   0  0  0  0  0  0  0  0  0  0  0  0
   -2.0288   -2.5714    4.3867 H   0  0  0  0  0  0  0  0  0  0  0  0
   -1.3786   -2.4264    6.0242 H   0  0  0  0  0  0  0  0  0  0  0  0
   -0.9760   -1.2102    4.7975 H   0  0  0  0  0  0  0  0  0  0  0  0
   -0.0494   -4.9625    6.0738 N   0  0  0  0  0  0  0  0  0  0  0  0
   -0.2486   -6.3231    6.5155 C   0  0  0  0  0  0  0  0  0  0  0  0
    0.2283   -4.2747    6.7678 H   0  0  0  0  0  0  0  0  0  0  0  0
   -1.2965   -6.4605    6.8203 H   0  0  0  0  0  0  0  0  0  0  0  0
   -0.0125   -7.0138    5.6926 H   0  0  0  0  0  0  0  0  0  0  0  0
    0.4120   -6.5314    7.3700 H   0  0  0  0  0  0  0  0  0  0  0  0
  1  3  1  0  0  0  0
  1  7  1  0  0  0  0
  1  2  2  0  0  0  0
 21 22  1  0  0  0  0
 22 24  1  0  0  0  0
 22 23  2  0  0  0  0
 32 33  1  0  0  0  0
 33 41  1  0  0  0  0
 33 34  2  0  0  0  0
  8  9  1  0  0  0  0
  9 17  1  0  0  0  0
  9 10  2  0  0  0  0
 18 19  1  0  0  0  0
 19 31  1  0  0  0  0
 19 20  2  0  0  0  0
 32 35  1  0  0  0  0
  8 11  1  0  0  0  0
 41 42  1  0  0  0  0
 18 21  1  0  0  0  0
 31 32  1  0  0  0  0
  7  8  1  0  0  0  0
 17 18  1  0  0  0  0
  3  4  1  0  0  0  0
  3  5  1  0  0  0  0
  3  6  1  0  0  0  0
 35 38  1  0  0  0  0
 35 39  1  0  0  0  0
 35 40  1  0  0  0  0
 11 14  1  0  0  0  0
 11 15  1  0  0  0  0
 11 16  1  0  0  0  0
 42 44  1  0  0  0  0
 42 45  1  0  0  0  0
 42 46  1  0  0  0  0
 21 27  1  0  0  0  0
 21 28  1  0  0  0  0
 32 37  1  0  0  0  0
  8 13  1  0  0  0  0
 18 26  1  0  0  0  0
 24 29  1  0  0  0  0
 24 30  1  0  0  0  0
 41 43  1  0  0  0  0
  7 12  1  0  0  0  0
 31 36  1  0  0  0  0
 17 25  1  0  0  0  0
M  END
$$$$

  -OEChem-02062319033D

 46 45  0     1  0  0  0  0  0999 V2000
   -0.0543    1.9736    3.8406 C   0  0  0  0  0  0  0  0  0  0  0  0
    0.6744    1.6099    4.7562 O   0  0  0  0  0  0  0  0  0  0  0  0
   -0.5599    3.3779    3.8160 C   0  0  0  0  0  0  0  0  0  0  0  0
   -1.5202    3.4885    4.3450 H   0  0  0  0  0  0  0  0  0  0  0  0
    0.1282    4.0814    4.3116 H   0  0  0  0  0  0  0  0  0  0  0  0
   -0.7317    3.7994    2.8126 H   0  0  0  0  0  0  0  0  0  0  0  0
   -0.4812    1.1968    2.7762 N   0  0  0  0  0  0  0  0  0  0  0  0
   -0.1106   -0.1834    2.6051 C   0  0  2  0  0  0  0  0  0  0  0  0
   -0.0696   -0.4775    1.1113 C   0  0  0  0  0  0  0  0  0  0  0  0
   -0.6805    0.1900    0.2792 O   0  0  0  0  0  0  0  0  0  0  0  0
   -1.0852   -1.1101    3.3150 C   0  0  0  0  0  0  0  0  0  0  0  0
   -1.0883    1.6241    2.0791 H   0  0  0  0  0  0  0  0  0  0  0  0
    0.8937   -0.2959    3.0277 H   0  0  0  0  0  0  0  0  0  0  0  0
   -2.0970   -1.0114    2.9051 H   0  0  0  0  0  0  0  0  0  0  0  0
   -0.7860   -2.1580    3.2078 H   0  0  0  0  0  0  0  0  0  0  0  0
   -1.1357   -0.8775    4.3842 H   0  0  0  0  0  0  0  0  0  0  0  0
    0.6950   -1.6003    0.8178 N   0  0  0  0  0  0  0  0  0  0  0  0
    0.1133   -2.8674    0.4547 C   0  0  2  0  0  0  0  0  0  0  0  0
   -0.7632   -3.3202    1.6157 C   0  0  0  0  0  0  0  0  0  0  0  0
   -1.8784   -3.8145    1.4624 O   0  0  0  0  0  0  0  0  0  0  0  0
    1.1814   -3.9166    0.1453 C   0  0  0  0  0  0  0  0  0  0  0  0
    1.9332   -3.6412   -1.1450 C   0  0  0  0  0  0  0  0  0  0  0  0
    1.4011   -3.2590   -2.1830 O   0  0  0  0  0  0  0  0  0  0  0  0
    3.2879   -3.8644   -1.0182 N   0  0  0  0  0  0  0  0  0  0  0  0
    1.7095   -1.5237    0.8198 H   0  0  0  0  0  0  0  0  0  0  0  0
   -0.5219   -2.6807   -0.4191 H   0  0  0  0  0  0  0  0  0  0  0  0
    1.9258   -3.9497    0.9509 H   0  0  0  0  0  0  0  0  0  0  0  0
    0.7318   -4.9158    0.0797 H   0  0  0  0  0  0  0  0  0  0  0  0
    3.6850   -4.1771   -0.1385 H   0  0  0  0  0  0  0  0  0  0  0  0
    3.9351   -3.7274   -1.7881 H   0  0  0  0  0  0  0  0  0  0  0  0
   -0.1356   -3.1548    2.8424 N   0  0  0  0  0  0  0  0  0  0  0  0
   -0.7651   -3.5393    4.0829 C   0  0  2  0  0  0  0  0  0  0  0  0
   -1.1060   -5.0212    3.9977 C   0  0  0  0  0  0  0  0  0  0  0  0
   -1.2408   -5.6183    2.9317 O   0  0  0  0  0  0  0  0  0  0  0  0
   -2.0109   -2.7096    4.3517 C   0  0  0  0  0  0  0  0  0  0  0  0
    0.7990   -2.7588    2.8806 H   0  0  0  0  0  0  0  0  0  0  0  0
   -0.0262   -3.3789    4.8756 H   0  0  0  0  0  0  0  0  0  0  0  0
   -2.7628   -2.8572    3.5678 H   0  0  0  0  0  0  0  0  0  0  0  0
   -2.4713   -2.9830    5.3069 H   0  0  0  0  0  0  0  0  0  0  0  0
   -1.7687   -1.6418    4.3830 H   0  0  0  0  0  0  0  0  0  0  0  0
   -1.2844   -5.5886    5.2516 N   0  0  0  0  0  0  0  0  0  0  0  0
   -1.6267   -6.9796    5.4364 C   0  0  0  0  0  0  0  0  0  0  0  0
   -1.1340   -5.0232    6.0819 H   0  0  0  0  0  0  0  0  0  0  0  0
   -2.7201   -7.0839    5.4959 H   0  0  0  0  0  0  0  0  0  0  0  0
   -1.2482   -7.5662    4.5863 H   0  0  0  0  0  0  0  0  0  0  0  0
   -1.1721   -7.3483    6.3677 H   0  0  0  0  0  0  0  0  0  0  0  0
  1  3  1  0  0  0  0
  1  7  1  0  0  0  0
  1  2  2  0  0  0  0
 21 22  1  0  0  0  0
 22 24  1  0  0  0  0
 22 23  2  0  0  0  0
 32 33  1  0  0  0  0
 33 41  1  0  0  0  0
 33 34  2  0  0  0  0
  8  9  1  0  0  0  0
  9 17  1  0  0  0  0
  9 10  2  0  0  0  0
 18 19  1  0  0  0  0
 19 31  1  0  0  0  0
 19 20  2  0  0  0  0
 32 35  1  0  0  0  0
  8 11  1  0  0  0  0
 41 42  1  0  0  0  0
 18 21  1  0  0  0  0
 31 32  1  0  0  0  0
  7  8  1  0  0  0  0
 17 18  1  0  0  0  0
  3  4  1  0  0  0  0
  3  5  1  0  0  0  0
  3  6  1  0  0  0  0
 35 38  1  0  0  0  0
 35 39  1  0  0  0  0
 35 40  1  0  0  0  0
 11 14  1  0  0  0  0
 11 15  1  0  0  0  0
 11 16  1  0  0  0  0
 42 44  1  0  0  0  0
 42 45  1  0  0  0  0
 42 46  1  0  0  0  0
 21 27  1  0  0  0  0
 21 28  1  0  0  0  0
 32 37  1  0  0  0  0
  8 13  1  0  0  0  0
 18 26  1  0  0  0  0
 24 29  1  0  0  0  0
 24 30  1  0  0  0  0
 41 43  1  0  0  0  0
  7 12  1  0  0  0  0
 31 36  1  0  0  0  0
 17 25  1  0  0  0  0
M  END
$$$$

  -OEChem-02062319033D

 46 45  0     1  0  0  0  0  0999 V2000
   -0.0543    1.9736    3.8406 C   0  0  0  0  0  0  0  0  0  0  0  0
    0.6744    1.6099    4.7562 O   0  0  0  0  0  0  0  0  0  0  0  0
   -0.5599    3.3779    3.8160 C   0  0  0  0  0  0  0  0  0  0  0  0
   -1.5202    3.4885    4.3450 H   0  0  0  0  0  0  0  0  0  0  0  0
    0.1282    4.0814    4.3116 H   0  0  0  0  0  0  0  0  0  0  0  0
   -0.7317    3.7994    2.8126 H   0  0  0  0  0  0  0  0  0  0  0  0
   -0.4812    1.1968    2.7762 N   0  0  0  0  0  0  0  0  0  0  0  0
   -0.1106   -0.1834    2.6051 C   0  0  2  0  0  0  0  0  0  0  0  0
   -0.0696   -0.4775    1.1113 C   0  0  0  0  0  0  0  0  0  0  0  0
   -0.6805    0.1900    0.2792 O   0  0  0  0  0  0  0  0  0  0  0  0
   -1.0852   -1.1101    3.3150 C   0  0  0  0  0  0  0  0  0  0  0  0
   -1.0883    1.6241    2.0791 H   0  0  0  0  0  0  0  0  0  0  0  0
    0.8937   -0.2959    3.0277 H   0  0  0  0  0  0  0  0  0  0  0  0
   -2.0970   -1.0114    2.9051 H   0  0  0  0  0  0  0  0  0  0  0  0
   -0.7860   -2.1580    3.2078 H   0  0  0  0  0  0  0  0  0  0  0  0
   -1.1357   -0.8775    4.3842 H   0  0  0  0  0  0  0  0  0  0  0  0
    0.6950   -1.6003    0.8178 N   0  0  0  0  0  0  0  0  0  0  0  0
    0.1544   -2.7622    0.1594 C   0  0  2  0  0  0  0  0  0  0  0  0
   -0.9666   -3.3070    1.0357 C   0  0  0  0  0  0  0  0  0  0  0  0
   -2.0421   -3.6967    0.5854 O   0  0  0  0  0  0  0  0  0  0  0  0
    1.2216   -3.8313   -0.0764 C   0  0  0  0  0  0  0  0  0  0  0  0
    2.2413   -3.4354   -1.1296 C   0  0  0  0  0  0  0  0  0  0  0  0
    1.9581   -2.8787   -2.1863 O   0  0  0  0  0  0  0  0  0  0  0  0
    3.5280   -3.7678   -0.7621 N   0  0  0  0  0  0  0  0  0  0  0  0
    1.6880   -1.5957    1.0392 H   0  0  0  0  0  0  0  0  0  0  0  0
   -0.2721   -2.4140   -0.7886 H   0  0  0  0  0  0  0  0  0  0  0  0
    1.7753   -4.0260    0.8508 H   0  0  0  0  0  0  0  0  0  0  0  0
    0.7572   -4.7783   -0.3801 H   0  0  0  0  0  0  0  0  0  0  0  0
    3.7159   -4.2247    0.1240 H   0  0  0  0  0  0  0  0  0  0  0  0
    4.3292   -3.5725   -1.3539 H   0  0  0  0  0  0  0  0  0  0  0  0
   -0.6086   -3.3549    2.3757 N   0  0  0  0  0  0  0  0  0  0  0  0
   -1.5027   -3.8604    3.3897 C   0  0  2  0  0  0  0  0  0  0  0  0
   -1.8759   -5.2894    3.0177 C   0  0  0  0  0  0  0  0  0  0  0  0
   -1.8039   -5.7244    1.8702 O   0  0  0  0  0  0  0  0  0  0  0  0
   -2.7434   -2.9903    3.5171 C   0  0  0  0  0  0  0  0  0  0  0  0
    0.3113   -3.0341    2.6631 H   0  0  0  0  0  0  0  0  0  0  0  0
   -0.9439   -3.8618    4.3319 H   0  0  0  0  0  0  0  0  0  0  0  0
   -3.3162   -2.9766    2.5827 H   0  0  0  0  0  0  0  0  0  0  0  0
   -3.4071   -3.3587    4.3063 H   0  0  0  0  0  0  0  0  0  0  0  0
   -2.4714   -1.9563    3.7554 H   0  0  0  0  0  0  0  0  0  0  0  0
   -2.3396   -6.0089    4.1101 N   0  0  0  0  0  0  0  0  0  0  0  0
   -2.7681   -7.3847    4.0125 C   0  0  0  0  0  0  0  0  0  0  0  0
   -2.3474   -5.5741    5.0280 H   0  0  0  0  0  0  0  0  0  0  0  0
   -3.8524   -7.4196    3.8303 H   0  0  0  0  0  0  0  0  0  0  0  0
   -2.2407   -7.8747    3.1808 H   0  0  0  0  0  0  0  0  0  0  0  0
   -2.5373   -7.9080    4.9521 H   0  0  0  0  0  0  0  0  0  0  0  0
  1  3  1  0  0  0  0
  1  7  1  0  0  0  0
  1  2  2  0  0  0  0
 21 22  1  0  0  0  0
 22 24  1  0  0  0  0
 22 23  2  0  0  0  0
 32 33  1  0  0  0  0
 33 41  1  0  0  0  0
 33 34  2  0  0  0  0
  8  9  1  0  0  0  0
  9 17  1  0  0  0  0
  9 10  2  0  0  0  0
 18 19  1  0  0  0  0
 19 31  1  0  0  0  0
 19 20  2  0  0  0  0
 32 35  1  0  0  0  0
  8 11  1  0  0  0  0
 41 42  1  0  0  0  0
 18 21  1  0  0  0  0
 31 32  1  0  0  0  0
  7  8  1  0  0  0  0
 17 18  1  0  0  0  0
  3  4  1  0  0  0  0
  3  5  1  0  0  0  0
  3  6  1  0  0  0  0
 35 38  1  0  0  0  0
 35 39  1  0  0  0  0
 35 40  1  0  0  0  0
 11 14  1  0  0  0  0
 11 15  1  0  0  0  0
 11 16  1  0  0  0  0
 42 44  1  0  0  0  0
 42 45  1  0  0  0  0
 42 46  1  0  0  0  0
 21 27  1  0  0  0  0
 21 28  1  0  0  0  0
 32 37  1  0  0  0  0
  8 13  1  0  0  0  0
 18 26  1  0  0  0  0
 24 29  1  0  0  0  0
 24 30  1  0  0  0  0
 41 43  1  0  0  0  0
  7 12  1  0  0  0  0
 31 36  1  0  0  0  0
 17 25  1  0  0  0  0
M  END
$$$$

  -OEChem-02062319033D

 46 45  0     1  0  0  0  0  0999 V2000
   -0.0543    1.9736    3.8406 C   0  0  0  0  0  0  0  0  0  0  0  0
    0.6744    1.6099    4.7562 O   0  0  0  0  0  0  0  0  0  0  0  0
   -0.5599    3.3779    3.8160 C   0  0  0  0  0  0  0  0  0  0  0  0
   -1.5202    3.4885    4.3450 H   0  0  0  0  0  0  0  0  0  0  0  0
    0.1282    4.0814    4.3116 H   0  0  0  0  0  0  0  0  0  0  0  0
   -0.7317    3.7994    2.8126 H   0  0  0  0  0  0  0  0  0  0  0  0
   -0.4812    1.1968    2.7762 N   0  0  0  0  0  0  0  0  0  0  0  0
   -0.1106   -0.1834    2.6051 C   0  0  2  0  0  0  0  0  0  0  0  0
   -0.0696   -0.4775    1.1113 C   0  0  0  0  0  0  0  0  0  0  0  0
   -0.6805    0.1900    0.2792 O   0  0  0  0  0  0  0  0  0  0  0  0
   -1.0852   -1.1101    3.3150 C   0  0  0  0  0  0  0  0  0  0  0  0
   -1.0883    1.6241    2.0791 H   0  0  0  0  0  0  0  0  0  0  0  0
    0.8937   -0.2959    3.0277 H   0  0  0  0  0  0  0  0  0  0  0  0
   -2.0970   -1.0114    2.9051 H   0  0  0  0  0  0  0  0  0  0  0  0
   -0.7860   -2.1580    3.2078 H   0  0  0  0  0  0  0  0  0  0  0  0
   -1.1357   -0.8775    4.3842 H   0  0  0  0  0  0  0  0  0  0  0  0
    0.6950   -1.6003    0.8178 N   0  0  0  0  0  0  0  0  0  0  0  0
    0.2616   -2.6208   -0.1023 C   0  0  2  0  0  0  0  0  0  0  0  0
   -1.0409   -3.2006    0.4348 C   0  0  0  0  0  0  0  0  0  0  0  0
   -2.0104   -3.4491   -0.2793 O   0  0  0  0  0  0  0  0  0  0  0  0
    1.3114   -3.7195   -0.2699 C   0  0  0  0  0  0  0  0  0  0  0  0
    2.5469   -3.2556   -1.0210 C   0  0  0  0  0  0  0  0  0  0  0  0
    2.5176   -2.5415   -2.0189 O   0  0  0  0  0  0  0  0  0  0  0  0
    3.7116   -3.7241   -0.4508 N   0  0  0  0  0  0  0  0  0  0  0  0
    1.6174   -1.6953    1.2364 H   0  0  0  0  0  0  0  0  0  0  0  0
    0.0609   -2.1175   -1.0553 H   0  0  0  0  0  0  0  0  0  0  0  0
    1.6467   -4.0772    0.7118 H   0  0  0  0  0  0  0  0  0  0  0  0
    0.8853   -4.5814   -0.7994 H   0  0  0  0  0  0  0  0  0  0  0  0
    3.6882   -4.3098    0.3773 H   0  0  0  0  0  0  0  0  0  0  0  0
    4.6276   -3.5062   -0.8300 H   0  0  0  0  0  0  0  0  0  0  0  0
   -0.9789   -3.4559    1.7975 N   0  0  0  0  0  0  0  0  0  0  0  0
   -2.0877   -4.0316    2.5201 C   0  0  2  0  0  0  0  0  0  0  0  0
   -2.4292   -5.3667    1.8719 C   0  0  0  0  0  0  0  0  0  0  0  0
   -2.1317   -5.6448    0.7121 O   0  0  0  0  0  0  0  0  0  0  0  0
   -3.2917   -3.1025    2.5179 C   0  0  0  0  0  0  0  0  0  0  0  0
   -0.1294   -3.2424    2.3118 H   0  0  0  0  0  0  0  0  0  0  0  0
   -1.7430   -4.2006    3.5461 H   0  0  0  0  0  0  0  0  0  0  0  0
   -3.6513   -2.9214    1.4984 H   0  0  0  0  0  0  0  0  0  0  0  0
   -4.1223   -3.5281    3.0906 H   0  0  0  0  0  0  0  0  0  0  0  0
   -3.0361   -2.1323    2.9575 H   0  0  0  0  0  0  0  0  0  0  0  0
   -3.1432   -6.1946    2.7269 N   0  0  0  0  0  0  0  0  0  0  0  0
   -3.5950   -7.5109    2.3407 C   0  0  0  0  0  0  0  0  0  0  0  0
   -3.3291   -5.8897    3.6779 H   0  0  0  0  0  0  0  0  0  0  0  0
   -4.6161   -7.4447    1.9369 H   0  0  0  0  0  0  0  0  0  0  0  0
   -2.9224   -7.9183    1.5716 H   0  0  0  0  0  0  0  0  0  0  0  0
   -3.5906   -8.1724    3.2195 H   0  0  0  0  0  0  0  0  0  0  0  0
  1  3  1  0  0  0  0
  1  7  1  0  0  0  0
  1  2  2  0  0  0  0
 21 22  1  0  0  0  0
 22 24  1  0  0  0  0
 22 23  2  0  0  0  0
 32 33  1  0  0  0  0
 33 41  1  0  0  0  0
 33 34  2  0  0  0  0
  8  9  1  0  0  0  0
  9 17  1  0  0  0  0
  9 10  2  0  0  0  0
 18 19  1  0  0  0  0
 19 31  1  0  0  0  0
 19 20  2  0  0  0  0
 32 35  1  0  0  0  0
  8 11  1  0  0  0  0
 41 42  1  0  0  0  0
 18 21  1  0  0  0  0
 31 32  1  0  0  0  0
  7  8  1  0  0  0  0
 17 18  1  0  0  0  0
  3  4  1  0  0  0  0
  3  5  1  0  0  0  0
  3  6  1  0  0  0  0
 35 38  1  0  0  0  0
 35 39  1  0  0  0  0
 35 40  1  0  0  0  0
 11 14  1  0  0  0  0
 11 15  1  0  0  0  0
 11 16  1  0  0  0  0
 42 44  1  0  0  0  0
 42 45  1  0  0  0  0
 42 46  1  0  0  0  0
 21 27  1  0  0  0  0
 21 28  1  0  0  0  0
 32 37  1  0  0  0  0
  8 13  1  0  0  0  0
 18 26  1  0  0  0  0
 24 29  1  0  0  0  0
 24 30  1  0  0  0  0
 41 43  1  0  0  0  0
  7 12  1  0  0  0  0
 31 36  1  0  0  0  0
 17 25  1  0  0  0  0
M  END
$$$$

  -OEChem-02062319033D

 46 45  0     1  0  0  0  0  0999 V2000
   -0.0543    1.9736    3.8406 C   0  0  0  0  0  0  0  0  0  0  0  0
    0.6744    1.6099    4.7562 O   0  0  0  0  0  0  0  0  0  0  0  0
   -0.5599    3.3779    3.8160 C   0  0  0  0  0  0  0  0  0  0  0  0
   -1.5202    3.4885    4.3450 H   0  0  0  0  0  0  0  0  0  0  0  0
    0.1282    4.0814    4.3116 H   0  0  0  0  0  0  0  0  0  0  0  0
   -0.7317    3.7994    2.8126 H   0  0  0  0  0  0  0  0  0  0  0  0
   -0.4812    1.1968    2.7762 N   0  0  0  0  0  0  0  0  0  0  0  0
   -0.1106   -0.1834    2.6051 C   0  0  2  0  0  0  0  0  0  0  0  0
   -0.0696   -0.4775    1.1113 C   0  0  0  0  0  0  0  0  0  0  0  0
   -0.6805    0.1900    0.2792 O   0  0  0  0  0  0  0  0  0  0  0  0
   -1.0852   -1.1101    3.3150 C   0  0  0  0  0  0  0  0  0  0  0  0
   -1.0883    1.6241    2.0791 H   0  0  0  0  0  0  0  0  0  0  0  0
    0.8937   -0.2959    3.0277 H   0  0  0  0  0  0  0  0  0  0  0  0
   -2.0970   -1.0114    2.9051 H   0  0  0  0  0  0  0  0  0  0  0  0
   -0.7860   -2.1580    3.2078 H   0  0  0  0  0  0  0  0  0  0  0  0
   -1.1357   -0.8775    4.3842 H   0  0  0  0  0  0  0  0  0  0  0  0
    0.6950   -1.6003    0.8178 N   0  0  0  0  0  0  0  0  0  0  0  0
    0.4276   -2.4528   -0.3125 C   0  0  2  0  0  0  0  0  0  0  0  0
   -0.9813   -3.0082   -0.1461 C   0  0  0  0  0  0  0  0  0  0  0  0
   -1.7855   -3.0885   -1.0726 O   0  0  0  0  0  0  0  0  0  0  0  0
    1.4447   -3.5889   -0.4222 C   0  0  0  0  0  0  0  0  0  0  0  0
    2.8293   -3.1141   -0.8266 C   0  0  0  0  0  0  0  0  0  0  0  0
    3.0415   -2.2701   -1.6922 O   0  0  0  0  0  0  0  0  0  0  0  0
    3.8263   -3.7363   -0.1055 N   0  0  0  0  0  0  0  0  0  0  0  0
    1.5025   -1.8158    1.3979 H   0  0  0  0  0  0  0  0  0  0  0  0
    0.4546   -1.8112   -1.2010 H   0  0  0  0  0  0  0  0  0  0  0  0
    1.5488   -4.0999    0.5433 H   0  0  0  0  0  0  0  0  0  0  0  0
    1.1075   -4.3385   -1.1496 H   0  0  0  0  0  0  0  0  0  0  0  0
    3.6039   -4.4265    0.6040 H   0  0  0  0  0  0  0  0  0  0  0  0
    4.8100   -3.5331   -0.2522 H   0  0  0  0  0  0  0  0  0  0  0  0
   -1.2212   -3.4509    1.1472 N   0  0  0  0  0  0  0  0  0  0  0  0
   -2.4804   -4.0411    1.5335 C   0  0  2  0  0  0  0  0  0  0  0  0
   -2.7284   -5.2480    0.6384 C   0  0  0  0  0  0  0  0  0  0  0  0
   -2.2019   -5.3852   -0.4638 O   0  0  0  0  0  0  0  0  0  0  0  0
   -3.6186   -3.0386    1.4221 C   0  0  0  0  0  0  0  0  0  0  0  0
   -0.4930   -3.3695    1.8506 H   0  0  0  0  0  0  0  0  0  0  0  0
   -2.3691   -4.3723    2.5717 H   0  0  0  0  0  0  0  0  0  0  0  0
   -3.7453   -2.6953    0.3889 H   0  0  0  0  0  0  0  0  0  0  0  0
   -4.5683   -3.4794    1.7427 H   0  0  0  0  0  0  0  0  0  0  0  0
   -3.4244   -2.1578    2.0436 H   0  0  0  0  0  0  0  0  0  0  0  0
   -3.6403   -6.1330    1.1965 N   0  0  0  0  0  0  0  0  0  0  0  0
   -4.0511   -7.3494    0.5350 C   0  0  0  0  0  0  0  0  0  0  0  0
   -4.0123   -5.9487    2.1235 H   0  0  0  0  0  0  0  0  0  0  0  0
   -4.9593   -7.1577   -0.0553 H   0  0  0  0  0  0  0  0  0  0  0  0
   -3.2467   -7.6939   -0.1314 H   0  0  0  0  0  0  0  0  0  0  0  0
   -4.2602   -8.1235    1.2881 H   0  0  0  0  0  0  0  0  0  0  0  0
  1  3  1  0  0  0  0
  1  7  1  0  0  0  0
  1  2  2  0  0  0  0
 21 22  1  0  0  0  0
 22 24  1  0  0  0  0
 22 23  2  0  0  0  0
 32 33  1  0  0  0  0
 33 41  1  0  0  0  0
 33 34  2  0  0  0  0
  8  9  1  0  0  0  0
  9 17  1  0  0  0  0
  9 10  2  0  0  0  0
 18 19  1  0  0  0  0
 19 31  1  0  0  0  0
 19 20  2  0  0  0  0
 32 35  1  0  0  0  0
  8 11  1  0  0  0  0
 41 42  1  0  0  0  0
 18 21  1  0  0  0  0
 31 32  1  0  0  0  0
  7  8  1  0  0  0  0
 17 18  1  0  0  0  0
  3  4  1  0  0  0  0
  3  5  1  0  0  0  0
  3  6  1  0  0  0  0
 35 38  1  0  0  0  0
 35 39  1  0  0  0  0
 35 40  1  0  0  0  0
 11 14  1  0  0  0  0
 11 15  1  0  0  0  0
 11 16  1  0  0  0  0
 42 44  1  0  0  0  0
 42 45  1  0  0  0  0
 42 46  1  0  0  0  0
 21 27  1  0  0  0  0
 21 28  1  0  0  0  0
 32 37  1  0  0  0  0
  8 13  1  0  0  0  0
 18 26  1  0  0  0  0
 24 29  1  0  0  0  0
 24 30  1  0  0  0  0
 41 43  1  0  0  0  0
  7 12  1  0  0  0  0
 31 36  1  0  0  0  0
 17 25  1  0  0  0  0
M  END
$$$$

  -OEChem-02062319033D

 46 45  0     1  0  0  0  0  0999 V2000
   -0.0543    1.9736    3.8406 C   0  0  0  0  0  0  0  0  0  0  0  0
    0.6744    1.6099    4.7562 O   0  0  0  0  0  0  0  0  0  0  0  0
   -0.5599    3.3779    3.8160 C   0  0  0  0  0  0  0  0  0  0  0  0
   -1.5202    3.4885    4.3450 H   0  0  0  0  0  0  0  0  0  0  0  0
    0.1282    4.0814    4.3116 H   0  0  0  0  0  0  0  0  0  0  0  0
   -0.7317    3.7994    2.8126 H   0  0  0  0  0  0  0  0  0  0  0  0
   -0.4812    1.1968    2.7762 N   0  0  0  0  0  0  0  0  0  0  0  0
   -0.1106   -0.1834    2.6051 C   0  0  2  0  0  0  0  0  0  0  0  0
   -0.0696   -0.4775    1.1113 C   0  0  0  0  0  0  0  0  0  0  0  0
   -0.6805    0.1900    0.2792 O   0  0  0  0  0  0  0  0  0  0  0  0
   -1.0852   -1.1101    3.3150 C   0  0  0  0  0  0  0  0  0  0  0  0
   -1.0883    1.6241    2.0791 H   0  0  0  0  0  0  0  0  0  0  0  0
    0.8937   -0.2959    3.0277 H   0  0  0  0  0  0  0  0  0  0  0  0
   -2.0970   -1.0114    2.9051 H   0  0  0  0  0  0  0  0  0  0  0  0
   -0.7860   -2.1580    3.2078 H   0  0  0  0  0  0  0  0  0  0  0  0
   -1.1357   -0.8775    4.3842 H   0  0  0  0  0  0  0  0  0  0  0  0
    0.6950   -1.6003    0.8178 N   0  0  0  0  0  0  0  0  0  0  0  0
    0.6411   -2.2696   -0.4570 C   0  0  2  0  0  0  0  0  0  0  0  0
   -0.7918   -2.7428   -0.6672 C   0  0  0  0  0  0  0  0  0  0  0  0
   -1.3826   -2.6395   -1.7404 O   0  0  0  0  0  0  0  0  0  0  0  0
    1.6125   -3.4483   -0.5228 C   0  0  0  0  0  0  0  0  0  0  0  0
    3.0691   -3.0206   -0.5597 C   0  0  0  0  0  0  0  0  0  0  0  0
    3.4940   -2.0831   -1.2284 O   0  0  0  0  0  0  0  0  0  0  0  0
    3.8642   -3.8034    0.2503 N   0  0  0  0  0  0  0  0  0  0  0  0
    1.3513   -1.9488    1.5127 H   0  0  0  0  0  0  0  0  0  0  0  0
    0.8821   -1.5162   -1.2159 H   0  0  0  0  0  0  0  0  0  0  0  0
    1.4882   -4.0924    0.3569 H   0  0  0  0  0  0  0  0  0  0  0  0
    1.4087   -4.0661   -1.4068 H   0  0  0  0  0  0  0  0  0  0  0  0
    3.4686   -4.5669    0.7888 H   0  0  0  0  0  0  0  0  0  0  0  0
    4.8638   -3.6513    0.3403 H   0  0  0  0  0  0  0  0  0  0  0  0
   -1.3190   -3.3403    0.4691 N   0  0  0  0  0  0  0  0  0  0  0  0
   -2.6539   -3.8883    0.4971 C   0  0  2  0  0  0  0  0  0  0  0  0
   -2.7530   -4.9414   -0.5987 C   0  0  0  0  0  0  0  0  0  0  0  0
   -2.0096   -4.9631   -1.5774 O   0  0  0  0  0  0  0  0  0  0  0  0
   -3.7017   -2.8030    0.3043 C   0  0  0  0  0  0  0  0  0  0  0  0
   -0.7547   -3.4067    1.3111 H   0  0  0  0  0  0  0  0  0  0  0  0
   -2.7795   -4.3652    1.4752 H   0  0  0  0  0  0  0  0  0  0  0  0
   -3.5917   -2.3138   -0.6703 H   0  0  0  0  0  0  0  0  0  0  0  0
   -4.7145   -3.2161    0.3544 H   0  0  0  0  0  0  0  0  0  0  0  0
   -3.6097   -2.0311    1.0760 H   0  0  0  0  0  0  0  0  0  0  0  0
   -3.7971   -5.8285   -0.3770 N   0  0  0  0  0  0  0  0  0  0  0  0
   -4.1053   -6.9114   -1.2815 C   0  0  0  0  0  0  0  0  0  0  0  0
   -4.3505   -5.7470    0.4708 H   0  0  0  0  0  0  0  0  0  0  0  0
   -4.8585   -6.5779   -2.0105 H   0  0  0  0  0  0  0  0  0  0  0  0
   -3.1916   -7.2170   -1.8123 H   0  0  0  0  0  0  0  0  0  0  0  0
   -4.5004   -7.7647   -0.7106 H   0  0  0  0  0  0  0  0  0  0  0  0
  1  3  1  0  0  0  0
  1  7  1  0  0  0  0
  1  2  2  0  0  0  0
 21 22  1  0  0  0  0
 22 24  1  0  0  0  0
 22 23  2  0  0  0  0
 32 33  1  0  0  0  0
 33 41  1  0  0  0  0
 33 34  2  0  0  0  0
  8  9  1  0  0  0  0
  9 17  1  0  0  0  0
  9 10  2  0  0  0  0
 18 19  1  0  0  0  0
 19 31  1  0  0  0  0
 19 20  2  0  0  0  0
 32 35  1  0  0  0  0
  8 11  1  0  0  0  0
 41 42  1  0  0  0  0
 18 21  1  0  0  0  0
 31 32  1  0  0  0  0
  7  8  1  0  0  0  0
 17 18  1  0  0  0  0
  3  4  1  0  0  0  0
  3  5  1  0  0  0  0
  3  6  1  0  0  0  0
 35 38  1  0  0  0  0
 35 39  1  0  0  0  0
 35 40  1  0  0  0  0
 11 14  1  0  0  0  0
 11 15  1  0  0  0  0
 11 16  1  0  0  0  0
 42 44  1  0  0  0  0
 42 45  1  0  0  0  0
 42 46  1  0  0  0  0
 21 27  1  0  0  0  0
 21 28  1  0  0  0  0
 32 37  1  0  0  0  0
  8 13  1  0  0  0  0
 18 26  1  0  0  0  0
 24 29  1  0  0  0  0
 24 30  1  0  0  0  0
 41 43  1  0  0  0  0
  7 12  1  0  0  0  0
 31 36  1  0  0  0  0
 17 25  1  0  0  0  0
M  END
$$$$
