
  -OEChem-02062319053D

 46 45  0     1  0  0  0  0  0999 V2000
    0.7354    4.3375    3.2557 C   0  0  0  0  0  0  0  0  0  0  0  0
    1.5946    4.0562    4.0755 O   0  0  0  0  0  0  0  0  0  0  0  0
    0.1884    5.7506    3.1783 C   0  0  0  0  0  0  0  0  0  0  0  0
   -0.8840    5.7473    3.3881 H   0  0  0  0  0  0  0  0  0  0  0  0
    0.6891    6.3896    3.9113 H   0  0  0  0  0  0  0  0  0  0  0  0
    0.3562    6.1625    2.1802 H   0  0  0  0  0  0  0  0  0  0  0  0
    0.2647    3.3712    2.3919 N   0  0  0  0  0  0  0  0  0  0  0  0
    0.8245    2.0175    2.2781 C   0  0  2  0  0  0  0  0  0  0  0  0
    0.6910    1.4677    0.8421 C   0  0  0  0  0  0  0  0  0  0  0  0
   -0.0100    2.0470    0.0213 O   0  0  0  0  0  0  0  0  0  0  0  0
    0.1016    1.1093    3.2784 C   0  0  0  0  0  0  0  0  0  0  0  0
   -0.3580    3.6767    1.6446 H   0  0  0  0  0  0  0  0  0  0  0  0
    1.8932    2.0383    2.5194 H   0  0  0  0  0  0  0  0  0  0  0  0
   -0.9663    1.0554    3.0447 H   0  0  0  0  0  0  0  0  0  0  0  0
    0.5181    0.0979    3.2527 H   0  0  0  0  0  0  0  0  0  0  0  0
    0.2165    1.5000    4.2946 H   0  0  0  0  0  0  0  0  0  0  0  0
    1.2771    0.2653    0.4905 N   0  0  0  0  0  0  0  0  0  0  0  0
    1.2046   -0.3352   -0.8532 C   0  0  2  0  0  0  0  0  0  0  0  0
   -0.2266   -0.6396   -1.3390 C   0  0  0  0  0  0  0  0  0  0  0  0
   -0.4580   -0.6021   -2.5406 O   0  0  0  0  0  0  0  0  0  0  0  0
    2.0318   -1.6338   -0.8704 C   0  0  0  0  0  0  0  0  0  0  0  0
    3.4771   -1.3907   -0.4650 C   0  0  0  0  0  0  0  0  0  0  0  0
    3.7655   -1.1457    0.6931 O   0  0  0  0  0  0  0  0  0  0  0  0
    4.4961   -1.3603   -1.3729 N   0  0  0  0  0  0  0  0  0  0  0  0
    1.9953   -0.0937    1.1256 H   0  0  0  0  0  0  0  0  0  0  0  0
    1.6338    0.3729   -1.5717 H   0  0  0  0  0  0  0  0  0  0  0  0
    1.5953   -2.3667   -0.1854 H   0  0  0  0  0  0  0  0  0  0  0  0
    2.0094   -2.0664   -1.8751 H   0  0  0  0  0  0  0  0  0  0  0  0
    4.3375   -1.6968   -2.3175 H   0  0  0  0  0  0  0  0  0  0  0  0
    5.4394   -1.3015   -0.9986 H   0  0  0  0  0  0  0  0  0  0  0  0
   -1.1247   -1.2441   -0.4741 N   0  0  0  0  0  0  0  0  0  0  0  0
   -2.4976   -1.6941   -0.7817 C   0  0  2  0  0  0  0  0  0  0  0  0
   -2.5790   -2.9391   -1.6942 C   0  0  0  0  0  0  0  0  0  0  0  0
   -3.2147   -3.9168   -1.3225 O   0  0  0  0  0  0  0  0  0  0  0  0
   -3.3431   -0.5426   -1.3443 C   0  0  0  0  0  0  0  0  0  0  0  0
   -0.8352   -1.2622    0.4993 H   0  0  0  0  0  0  0  0  0  0  0  0
   -2.9555   -1.9881    0.1684 H   0  0  0  0  0  0  0  0  0  0  0  0
   -3.0092   -0.2562   -2.3460 H   0  0  0  0  0  0  0  0  0  0  0  0
   -4.3926   -0.8462   -1.4096 H   0  0  0  0  0  0  0  0  0  0  0  0
   -3.2754    0.3334   -0.6918 H   0  0  0  0  0  0  0  0  0  0  0  0
   -1.9384   -2.9761   -2.9162 N   0  0  0  0  0  0  0  0  0  0  0  0
   -1.9632   -4.1165   -3.8206 C   0  0  0  0  0  0  0  0  0  0  0  0
   -1.3994   -2.1422   -3.1663 H   0  0  0  0  0  0  0  0  0  0  0  0
   -1.4072   -3.8848   -4.7340 H   0  0  0  0  0  0  0  0  0  0  0  0
   -1.5046   -4.9905   -3.3469 H   0  0  0  0  0  0  0  0  0  0  0  0
   -2.9935   -4.3642   -4.0967 H   0  0  0  0  0  0  0  0  0  0  0  0
  1  2  2  0  0  0  0
  1  3  1  0  0  0  0
  1  7  1  0  0  0  0
  3  4  1  0  0  0  0
  3  5  1  0  0  0  0
  3  6  1  0  0  0  0
  7  8  1  0  0  0  0
  7 12  1  0  0  0  0
  8  9  1  0  0  0  0
  8 11  1  0  0  0  0
  8 13  1  0  0  0  0
  9 10  2  0  0  0  0
  9 17  1  0  0  0  0
 11 14  1  0  0  0  0
 11 15  1  0  0  0  0
 11 16  1  0  0  0  0
 17 18  1  0  0  0  0
 17 25  1  0  0  0  0
 18 19  1  0  0  0  0
 18 21  1  0  0  0  0
 18 26  1  0  0  0  0
 19 20  2  0  0  0  0
 19 31  1  0  0  0  0
 21 22  1  0  0  0  0
 21 27  1  0  0  0  0
 21 28  1  0  0  0  0
 22 23  2  0  0  0  0
 22 24  1  0  0  0  0
 24 29  1  0  0  0  0
 24 30  1  0  0  0  0
 31 32  1  0  0  0  0
 31 36  1  0  0  0  0
 32 33  1  0  0  0  0
 32 35  1  0  0  0  0
 32 37  1  0  0  0  0
 33 34  2  0  0  0  0
 33 41  1  0  0  0  0
 35 38  1  0  0  0  0
 35 39  1  0  0  0  0
 35 40  1  0  0  0  0
 41 42  1  0  0  0  0
 41 43  1  0  0  0  0
 42 44  1  0  0  0  0
 42 45  1  0  0  0  0
 42 46  1  0  0  0  0
M  END
$$$$

  -OEChem-02062319053D

 46 45  0     1  0  0  0  0  0999 V2000
    0.7136    4.2723    3.3266 C   0  0  0  0  0  0  0  0  0  0  0  0
    1.5455    3.9472    4.1582 O   0  0  0  0  0  0  0  0  0  0  0  0
    0.2139    5.7035    3.2676 C   0  0  0  0  0  0  0  0  0  0  0  0
   -0.8593    5.7323    3.4708 H   0  0  0  0  0  0  0  0  0  0  0  0
    0.7304    6.3145    4.0132 H   0  0  0  0  0  0  0  0  0  0  0  0
    0.4020    6.1245    2.2769 H   0  0  0  0  0  0  0  0  0  0  0  0
    0.2332    3.3404    2.4310 N   0  0  0  0  0  0  0  0  0  0  0  0
    0.7569    1.9741    2.2959 C   0  0  2  0  0  0  0  0  0  0  0  0
    0.6207    1.4533    0.8491 C   0  0  0  0  0  0  0  0  0  0  0  0
   -0.0053    2.0985    0.0169 O   0  0  0  0  0  0  0  0  0  0  0  0
    0.0013    1.0647    3.2704 C   0  0  0  0  0  0  0  0  0  0  0  0
   -0.3568    3.6837    1.6737 H   0  0  0  0  0  0  0  0  0  0  0  0
    1.8236    1.9616    2.5470 H   0  0  0  0  0  0  0  0  0  0  0  0
   -1.0663    1.0479    3.0295 H   0  0  0  0  0  0  0  0  0  0  0  0
    0.3883    0.0422    3.2217 H   0  0  0  0  0  0  0  0  0  0  0  0
    0.1210    1.4267    4.2967 H   0  0  0  0  0  0  0  0  0  0  0  0
    1.2273    0.2698    0.4674 N   0  0  0  0  0  0  0  0  0  0  0  0
    1.4230   -0.1432   -0.9344 C   0  0  2  0  0  0  0  0  0  0  0  0
    0.1230   -0.2909   -1.7499 C   0  0  0  0  0  0  0  0  0  0  0  0
    0.1623   -0.0875   -2.9566 O   0  0  0  0  0  0  0  0  0  0  0  0
    2.1905   -1.4782   -0.9628 C   0  0  0  0  0  0  0  0  0  0  0  0
    3.5494   -1.3684   -0.2885 C   0  0  0  0  0  0  0  0  0  0  0  0
    3.6396   -1.1906    0.9137 O   0  0  0  0  0  0  0  0  0  0  0  0
    4.7166   -1.3878   -0.9963 N   0  0  0  0  0  0  0  0  0  0  0  0
    1.8727   -0.1337    1.1523 H   0  0  0  0  0  0  0  0  0  0  0  0
    2.0207    0.6244   -1.4406 H   0  0  0  0  0  0  0  0  0  0  0  0
    1.6105   -2.2568   -0.4592 H   0  0  0  0  0  0  0  0  0  0  0  0
    2.3324   -1.7930   -2.0007 H   0  0  0  0  0  0  0  0  0  0  0  0
    4.7087   -1.6705   -1.9713 H   0  0  0  0  0  0  0  0  0  0  0  0
    5.5776   -1.4222   -0.4571 H   0  0  0  0  0  0  0  0  0  0  0  0
   -0.9591   -0.9467   -1.1863 N   0  0  0  0  0  0  0  0  0  0  0  0
   -2.2536   -1.2495   -1.8295 C   0  0  2  0  0  0  0  0  0  0  0  0
   -2.1960   -2.3524   -2.9110 C   0  0  0  0  0  0  0  0  0  0  0  0
   -2.9553   -3.3096   -2.8352 O   0  0  0  0  0  0  0  0  0  0  0  0
   -2.9089    0.0256   -2.3781 C   0  0  0  0  0  0  0  0  0  0  0  0
   -0.8955   -1.0826   -0.1816 H   0  0  0  0  0  0  0  0  0  0  0  0
   -2.9144   -1.6332   -1.0454 H   0  0  0  0  0  0  0  0  0  0  0  0
   -2.3595    0.4156   -3.2399 H   0  0  0  0  0  0  0  0  0  0  0  0
   -3.9340   -0.1875   -2.6963 H   0  0  0  0  0  0  0  0  0  0  0  0
   -2.9392    0.8003   -1.6059 H   0  0  0  0  0  0  0  0  0  0  0  0
   -1.2999   -2.2852   -3.9588 N   0  0  0  0  0  0  0  0  0  0  0  0
   -1.1955   -3.2835   -5.0134 C   0  0  0  0  0  0  0  0  0  0  0  0
   -0.6798   -1.4705   -3.9685 H   0  0  0  0  0  0  0  0  0  0  0  0
   -0.4351   -2.9844   -5.7413 H   0  0  0  0  0  0  0  0  0  0  0  0
   -0.9122   -4.2543   -4.5939 H   0  0  0  0  0  0  0  0  0  0  0  0
   -2.1519   -3.3900   -5.5362 H   0  0  0  0  0  0  0  0  0  0  0  0
  1  2  2  0  0  0  0
  1  3  1  0  0  0  0
  1  7  1  0  0  0  0
  3  4  1  0  0  0  0
  3  5  1  0  0  0  0
  3  6  1  0  0  0  0
  7  8  1  0  0  0  0
  7 12  1  0  0  0  0
  8  9  1  0  0  0  0
  8 11  1  0  0  0  0
  8 13  1  0  0  0  0
  9 10  2  0  0  0  0
  9 17  1  0  0  0  0
 11 14  1  0  0  0  0
 11 15  1  0  0  0  0
 11 16  1  0  0  0  0
 17 18  1  0  0  0  0
 17 25  1  0  0  0  0
 18 19  1  0  0  0  0
 18 21  1  0  0  0  0
 18 26  1  0  0  0  0
 19 20  2  0  0  0  0
 19 31  1  0  0  0  0
 21 22  1  0  0  0  0
 21 27  1  0  0  0  0
 21 28  1  0  0  0  0
 22 23  2  0  0  0  0
 22 24  1  0  0  0  0
 24 29  1  0  0  0  0
 24 30  1  0  0  0  0
 31 32  1  0  0  0  0
 31 36  1  0  0  0  0
 32 33  1  0  0  0  0
 32 35  1  0  0  0  0
 32 37  1  0  0  0  0
 33 34  2  0  0  0  0
 33 41  1  0  0  0  0
 35 38  1  0  0  0  0
 35 39  1  0  0  0  0
 35 40  1  0  0  0  0
 41 42  1  0  0  0  0
 41 43  1  0  0  0  0
 42 44  1  0  0  0  0
 42 45  1  0  0  0  0
 42 46  1  0  0  0  0
M  END
$$$$

  -OEChem-02062319053D

 46 45  0     1  0  0  0  0  0999 V2000
    0.6983    4.2019    3.3722 C   0  0  0  0  0  0  0  0  0  0  0  0
    1.5050    3.8313    4.2097 O   0  0  0  0  0  0  0  0  0  0  0  0
    0.2474    5.6499    3.3374 C   0  0  0  0  0  0  0  0  0  0  0  0
   -0.8207    5.7125    3.5593 H   0  0  0  0  0  0  0  0  0  0  0  0
    0.7972    6.2332    4.0813 H   0  0  0  0  0  0  0  0  0  0  0  0
    0.4330    6.0766    2.3488 H   0  0  0  0  0  0  0  0  0  0  0  0
    0.1992    3.3049    2.4517 N   0  0  0  0  0  0  0  0  0  0  0  0
    0.6785    1.9242    2.2985 C   0  0  2  0  0  0  0  0  0  0  0  0
    0.5427    1.4312    0.8423 C   0  0  0  0  0  0  0  0  0  0  0  0
   -0.0133    2.1323    0.0054 O   0  0  0  0  0  0  0  0  0  0  0  0
   -0.1185    1.0230    3.2474 C   0  0  0  0  0  0  0  0  0  0  0  0
   -0.3634    3.6837    1.6904 H   0  0  0  0  0  0  0  0  0  0  0  0
    1.7410    1.8711    2.5618 H   0  0  0  0  0  0  0  0  0  0  0  0
   -1.1832    1.0460    2.9943 H   0  0  0  0  0  0  0  0  0  0  0  0
    0.2343   -0.0110    3.1842 H   0  0  0  0  0  0  0  0  0  0  0  0
    0.0002    1.3617    4.2817 H   0  0  0  0  0  0  0  0  0  0  0  0
    1.1762    0.2691    0.4384 N   0  0  0  0  0  0  0  0  0  0  0  0
    1.6516    0.0364   -0.9381 C   0  0  2  0  0  0  0  0  0  0  0  0
    0.5544    0.0795   -2.0203 C   0  0  0  0  0  0  0  0  0  0  0  0
    0.8638    0.4338   -3.1509 O   0  0  0  0  0  0  0  0  0  0  0  0
    2.3682   -1.3258   -0.9970 C   0  0  0  0  0  0  0  0  0  0  0  0
    3.6043   -1.3658   -0.1098 C   0  0  0  0  0  0  0  0  0  0  0  0
    3.5263   -1.1772    1.0917 O   0  0  0  0  0  0  0  0  0  0  0  0
    4.8574   -1.5533   -0.6187 N   0  0  0  0  0  0  0  0  0  0  0  0
    1.7327   -0.1838    1.1695 H   0  0  0  0  0  0  0  0  0  0  0  0
    2.3648    0.8283   -1.1959 H   0  0  0  0  0  0  0  0  0  0  0  0
    1.6863   -2.1227   -0.6868 H   0  0  0  0  0  0  0  0  0  0  0  0
    2.6680   -1.5323   -2.0288 H   0  0  0  0  0  0  0  0  0  0  0  0
    5.0030   -1.5567   -1.6234 H   0  0  0  0  0  0  0  0  0  0  0  0
    5.6393   -1.4254    0.0180 H   0  0  0  0  0  0  0  0  0  0  0  0
   -0.6436   -0.5777   -1.7947 N   0  0  0  0  0  0  0  0  0  0  0  0
   -1.7857   -0.6924   -2.7237 C   0  0  2  0  0  0  0  0  0  0  0  0
   -1.5520   -1.6452   -3.9179 C   0  0  0  0  0  0  0  0  0  0  0  0
   -2.3689   -2.5257   -4.1545 O   0  0  0  0  0  0  0  0  0  0  0  0
   -2.2473    0.6918   -3.2008 C   0  0  0  0  0  0  0  0  0  0  0  0
   -0.8115   -0.8197   -0.8223 H   0  0  0  0  0  0  0  0  0  0  0  0
   -2.6148   -1.1238   -2.1537 H   0  0  0  0  0  0  0  0  0  0  0  0
   -1.5143    1.1444   -3.8749 H   0  0  0  0  0  0  0  0  0  0  0  0
   -3.1965    0.6058   -3.7383 H   0  0  0  0  0  0  0  0  0  0  0  0
   -2.3922    1.3596   -2.3459 H   0  0  0  0  0  0  0  0  0  0  0  0
   -0.4331   -1.5325   -4.7182 N   0  0  0  0  0  0  0  0  0  0  0  0
   -0.1585   -2.3854   -5.8657 C   0  0  0  0  0  0  0  0  0  0  0  0
    0.2143   -0.7755   -4.4815 H   0  0  0  0  0  0  0  0  0  0  0  0
    0.7944   -2.1053   -6.3246 H   0  0  0  0  0  0  0  0  0  0  0  0
   -0.1000   -3.4344   -5.5571 H   0  0  0  0  0  0  0  0  0  0  0  0
   -0.9486   -2.2818   -6.6164 H   0  0  0  0  0  0  0  0  0  0  0  0
  1  2  2  0  0  0  0
  1  3  1  0  0  0  0
  1  7  1  0  0  0  0
  3  4  1  0  0  0  0
  3  5  1  0  0  0  0
  3  6  1  0  0  0  0
  7  8  1  0  0  0  0
  7 12  1  0  0  0  0
  8  9  1  0  0  0  0
  8 11  1  0  0  0  0
  8 13  1  0  0  0  0
  9 10  2  0  0  0  0
  9 17  1  0  0  0  0
 11 14  1  0  0  0  0
 11 15  1  0  0  0  0
 11 16  1  0  0  0  0
 17 18  1  0  0  0  0
 17 25  1  0  0  0  0
 18 19  1  0  0  0  0
 18 21  1  0  0  0  0
 18 26  1  0  0  0  0
 19 20  2  0  0  0  0
 19 31  1  0  0  0  0
 21 22  1  0  0  0  0
 21 27  1  0  0  0  0
 21 28  1  0  0  0  0
 22 23  2  0  0  0  0
 22 24  1  0  0  0  0
 24 29  1  0  0  0  0
 24 30  1  0  0  0  0
 31 32  1  0  0  0  0
 31 36  1  0  0  0  0
 32 33  1  0  0  0  0
 32 35  1  0  0  0  0
 32 37  1  0  0  0  0
 33 34  2  0  0  0  0
 33 41  1  0  0  0  0
 35 38  1  0  0  0  0
 35 39  1  0  0  0  0
 35 40  1  0  0  0  0
 41 42  1  0  0  0  0
 41 43  1  0  0  0  0
 42 44  1  0  0  0  0
 42 45  1  0  0  0  0
 42 46  1  0  0  0  0
M  END
$$$$

  -OEChem-02062319053D

 46 45  0     1  0  0  0  0  0999 V2000
    0.6467    4.1675    3.3756 C   0  0  0  0  0  0  0  0  0  0  0  0
    1.4472    3.7937    4.2177 O   0  0  0  0  0  0  0  0  0  0  0  0
    0.1957    5.6154    3.3416 C   0  0  0  0  0  0  0  0  0  0  0  0
   -0.8861    5.6726    3.4843 H   0  0  0  0  0  0  0  0  0  0  0  0
    0.6863    6.1816    4.1382 H   0  0  0  0  0  0  0  0  0  0  0  0
    0.4541    6.0646    2.3795 H   0  0  0  0  0  0  0  0  0  0  0  0
    0.1584    3.2768    2.4434 N   0  0  0  0  0  0  0  0  0  0  0  0
    0.6468    1.9006    2.2790 C   0  0  2  0  0  0  0  0  0  0  0  0
    0.5044    1.4148    0.8204 C   0  0  0  0  0  0  0  0  0  0  0  0
    0.0048    2.1508   -0.0221 O   0  0  0  0  0  0  0  0  0  0  0  0
   -0.1332    0.9864    3.2293 C   0  0  0  0  0  0  0  0  0  0  0  0
   -0.3877    3.6643    1.6747 H   0  0  0  0  0  0  0  0  0  0  0  0
    1.7119    1.8556    2.5335 H   0  0  0  0  0  0  0  0  0  0  0  0
   -1.2005    1.0020    2.9871 H   0  0  0  0  0  0  0  0  0  0  0  0
    0.2281   -0.0439    3.1558 H   0  0  0  0  0  0  0  0  0  0  0  0
   -0.0066    1.3198    4.2643 H   0  0  0  0  0  0  0  0  0  0  0  0
    1.1490    0.2614    0.4098 N   0  0  0  0  0  0  0  0  0  0  0  0
    1.8910    0.1714   -0.8620 C   0  0  2  0  0  0  0  0  0  0  0  0
    1.0567    0.4304   -2.1329 C   0  0  0  0  0  0  0  0  0  0  0  0
    1.6161    0.9189   -3.1066 O   0  0  0  0  0  0  0  0  0  0  0  0
    2.5447   -1.2212   -0.9596 C   0  0  0  0  0  0  0  0  0  0  0  0
    3.5842   -1.4591    0.1286 C   0  0  0  0  0  0  0  0  0  0  0  0
    3.3300   -1.2761    1.3067 O   0  0  0  0  0  0  0  0  0  0  0  0
    4.8612   -1.8449   -0.1624 N   0  0  0  0  0  0  0  0  0  0  0  0
    1.5910   -0.2496    1.1796 H   0  0  0  0  0  0  0  0  0  0  0  0
    2.6783    0.9346   -0.8572 H   0  0  0  0  0  0  0  0  0  0  0  0
    1.7801   -2.0002   -0.8919 H   0  0  0  0  0  0  0  0  0  0  0  0
    3.0306   -1.3206   -1.9348 H   0  0  0  0  0  0  0  0  0  0  0  0
    5.1784   -1.8598   -1.1267 H   0  0  0  0  0  0  0  0  0  0  0  0
    5.5305   -1.8381    0.6026 H   0  0  0  0  0  0  0  0  0  0  0  0
   -0.1900   -0.1595   -2.2578 N   0  0  0  0  0  0  0  0  0  0  0  0
   -1.1133   -0.0511   -3.4051 C   0  0  2  0  0  0  0  0  0  0  0  0
   -0.6666   -0.8165   -4.6716 C   0  0  0  0  0  0  0  0  0  0  0  0
   -1.4236   -1.6318   -5.1823 O   0  0  0  0  0  0  0  0  0  0  0  0
   -1.4171    1.4193   -3.7257 C   0  0  0  0  0  0  0  0  0  0  0  0
   -0.5820   -0.4887   -1.3796 H   0  0  0  0  0  0  0  0  0  0  0  0
   -2.0576   -0.5104   -3.0955 H   0  0  0  0  0  0  0  0  0  0  0  0
   -0.5399    1.9254   -4.1393 H   0  0  0  0  0  0  0  0  0  0  0  0
   -2.2256    1.4839   -4.4605 H   0  0  0  0  0  0  0  0  0  0  0  0
   -1.7285    1.9492   -2.8200 H   0  0  0  0  0  0  0  0  0  0  0  0
    0.5742   -0.6041   -5.2374 N   0  0  0  0  0  0  0  0  0  0  0  0
    1.0689   -1.3014   -6.4154 C   0  0  0  0  0  0  0  0  0  0  0  0
    1.1819    0.0593   -4.7488 H   0  0  0  0  0  0  0  0  0  0  0  0
    2.0605   -0.9261   -6.6857 H   0  0  0  0  0  0  0  0  0  0  0  0
    1.1452   -2.3760   -6.2200 H   0  0  0  0  0  0  0  0  0  0  0  0
    0.3964   -1.1431   -7.2650 H   0  0  0  0  0  0  0  0  0  0  0  0
  1  2  2  0  0  0  0
  1  3  1  0  0  0  0
  1  7  1  0  0  0  0
  3  4  1  0  0  0  0
  3  5  1  0  0  0  0
  3  6  1  0  0  0  0
  7  8  1  0  0  0  0
  7 12  1  0  0  0  0
  8  9  1  0  0  0  0
  8 11  1  0  0  0  0
  8 13  1  0  0  0  0
  9 10  2  0  0  0  0
  9 17  1  0  0  0  0
 11 14  1  0  0  0  0
 11 15  1  0  0  0  0
 11 16  1  0  0  0  0
 17 18  1  0  0  0  0
 17 25  1  0  0  0  0
 18 19  1  0  0  0  0
 18 21  1  0  0  0  0
 18 26  1  0  0  0  0
 19 20  2  0  0  0  0
 19 31  1  0  0  0  0
 21 22  1  0  0  0  0
 21 27  1  0  0  0  0
 21 28  1  0  0  0  0
 22 23  2  0  0  0  0
 22 24  1  0  0  0  0
 24 29  1  0  0  0  0
 24 30  1  0  0  0  0
 31 32  1  0  0  0  0
 31 36  1  0  0  0  0
 32 33  1  0  0  0  0
 32 35  1  0  0  0  0
 32 37  1  0  0  0  0
 33 34  2  0  0  0  0
 33 41  1  0  0  0  0
 35 38  1  0  0  0  0
 35 39  1  0  0  0  0
 35 40  1  0  0  0  0
 41 42  1  0  0  0  0
 41 43  1  0  0  0  0
 42 44  1  0  0  0  0
 42 45  1  0  0  0  0
 42 46  1  0  0  0  0
M  END
$$$$

  -OEChem-02062319053D

 46 45  0     1  0  0  0  0  0999 V2000
    0.6210    4.1309    3.3679 C   0  0  0  0  0  0  0  0  0  0  0  0
    1.4111    3.7393    4.2119 O   0  0  0  0  0  0  0  0  0  0  0  0
    0.1916    5.5857    3.3418 C   0  0  0  0  0  0  0  0  0  0  0  0
   -0.8909    5.6569    3.4724 H   0  0  0  0  0  0  0  0  0  0  0  0
    0.6809    6.1382    4.1487 H   0  0  0  0  0  0  0  0  0  0  0  0
    0.4672    6.0395    2.3867 H   0  0  0  0  0  0  0  0  0  0  0  0
    0.1258    3.2543    2.4256 N   0  0  0  0  0  0  0  0  0  0  0  0
    0.5961    1.8723    2.2546 C   0  0  2  0  0  0  0  0  0  0  0  0
    0.4546    1.3945    0.7932 C   0  0  0  0  0  0  0  0  0  0  0  0
   -0.0196    2.1460   -0.0503 O   0  0  0  0  0  0  0  0  0  0  0  0
   -0.1998    0.9609    3.1942 C   0  0  0  0  0  0  0  0  0  0  0  0
   -0.4090    3.6553    1.6557 H   0  0  0  0  0  0  0  0  0  0  0  0
    1.6590    1.8118    2.5147 H   0  0  0  0  0  0  0  0  0  0  0  0
   -1.2657    0.9917    2.9473 H   0  0  0  0  0  0  0  0  0  0  0  0
    0.1493   -0.0731    3.1136 H   0  0  0  0  0  0  0  0  0  0  0  0
   -0.0740    1.2834    4.2328 H   0  0  0  0  0  0  0  0  0  0  0  0
    1.1261    0.2610    0.3718 N   0  0  0  0  0  0  0  0  0  0  0  0
    2.1115    0.3060   -0.7253 C   0  0  2  0  0  0  0  0  0  0  0  0
    1.5705    0.7846   -2.0886 C   0  0  0  0  0  0  0  0  0  0  0  0
    2.3352    1.3731   -2.8427 O   0  0  0  0  0  0  0  0  0  0  0  0
    2.7342   -1.0953   -0.8875 C   0  0  0  0  0  0  0  0  0  0  0  0
    3.5511   -1.5245    0.3261 C   0  0  0  0  0  0  0  0  0  0  0  0
    3.1630   -1.3340    1.4661 O   0  0  0  0  0  0  0  0  0  0  0  0
    4.7745   -2.1163    0.1967 N   0  0  0  0  0  0  0  0  0  0  0  0
    1.4502   -0.3095    1.1585 H   0  0  0  0  0  0  0  0  0  0  0  0
    2.9023    1.0145   -0.4510 H   0  0  0  0  0  0  0  0  0  0  0  0
    1.9491   -1.8360   -1.0642 H   0  0  0  0  0  0  0  0  0  0  0  0
    3.3899   -1.0941   -1.7633 H   0  0  0  0  0  0  0  0  0  0  0  0
    5.2241   -2.1500   -0.7129 H   0  0  0  0  0  0  0  0  0  0  0  0
    5.3209   -2.2298    1.0463 H   0  0  0  0  0  0  0  0  0  0  0  0
    0.3626    0.2912   -2.5516 N   0  0  0  0  0  0  0  0  0  0  0  0
   -0.2961    0.6166   -3.8323 C   0  0  2  0  0  0  0  0  0  0  0  0
    0.3854    0.0134   -5.0818 C   0  0  0  0  0  0  0  0  0  0  0  0
   -0.2613   -0.6999   -5.8382 O   0  0  0  0  0  0  0  0  0  0  0  0
   -0.4850    2.1330   -3.9806 C   0  0  0  0  0  0  0  0  0  0  0  0
   -0.2249   -0.1024   -1.8210 H   0  0  0  0  0  0  0  0  0  0  0  0
   -1.2970    0.1745   -3.7946 H   0  0  0  0  0  0  0  0  0  0  0  0
    0.4724    2.6405   -4.1305 H   0  0  0  0  0  0  0  0  0  0  0  0
   -1.1239    2.3491   -4.8425 H   0  0  0  0  0  0  0  0  0  0  0  0
   -0.9598    2.5448   -3.0845 H   0  0  0  0  0  0  0  0  0  0  0  0
    1.7159    0.2551   -5.3580 N   0  0  0  0  0  0  0  0  0  0  0  0
    2.4349   -0.3138   -6.4887 C   0  0  0  0  0  0  0  0  0  0  0  0
    2.2243    0.8045   -4.6597 H   0  0  0  0  0  0  0  0  0  0  0  0
    3.4509    0.0903   -6.5301 H   0  0  0  0  0  0  0  0  0  0  0  0
    2.4962   -1.4025   -6.3935 H   0  0  0  0  0  0  0  0  0  0  0  0
    1.9280   -0.0691   -7.4278 H   0  0  0  0  0  0  0  0  0  0  0  0
  1  2  2  0  0  0  0
  1  3  1  0  0  0  0
  1  7  1  0  0  0  0
  3  4  1  0  0  0  0
  3  5  1  0  0  0  0
  3  6  1  0  0  0  0
  7  8  1  0  0  0  0
  7 12  1  0  0  0  0
  8  9  1  0  0  0  0
  8 11  1  0  0  0  0
  8 13  1  0  0  0  0
  9 10  2  0  0  0  0
  9 17  1  0  0  0  0
 11 14  1  0  0  0  0
 11 15  1  0  0  0  0
 11 16  1  0  0  0  0
 17 18  1  0  0  0  0
 17 25  1  0  0  0  0
 18 19  1  0  0  0  0
 18 21  1  0  0  0  0
 18 26  1  0  0  0  0
 19 20  2  0  0  0  0
 19 31  1  0  0  0  0
 21 22  1  0  0  0  0
 21 27  1  0  0  0  0
 21 28  1  0  0  0  0
 22 23  2  0  0  0  0
 22 24  1  0  0  0  0
 24 29  1  0  0  0  0
 24 30  1  0  0  0  0
 31 32  1  0  0  0  0
 31 36  1  0  0  0  0
 32 33  1  0  0  0  0
 32 35  1  0  0  0  0
 32 37  1  0  0  0  0
 33 34  2  0  0  0  0
 33 41  1  0  0  0  0
 35 38  1  0  0  0  0
 35 39  1  0  0  0  0
 35 40  1  0  0  0  0
 41 42  1  0  0  0  0
 41 43  1  0  0  0  0
 42 44  1  0  0  0  0
 42 45  1  0  0  0  0
 42 46  1  0  0  0  0
M  END
$$$$

  -OEChem-02062319053D

 46 45  0     1  0  0  0  0  0999 V2000
    0.6046    4.1067    3.3176 C   0  0  0  0  0  0  0  0  0  0  0  0
    1.3920    3.7132    4.1631 O   0  0  0  0  0  0  0  0  0  0  0  0
    0.1985    5.5680    3.2772 C   0  0  0  0  0  0  0  0  0  0  0  0
   -0.8811    5.6592    3.4194 H   0  0  0  0  0  0  0  0  0  0  0  0
    0.7066    6.1226    4.0711 H   0  0  0  0  0  0  0  0  0  0  0  0
    0.4706    6.0047    2.3132 H   0  0  0  0  0  0  0  0  0  0  0  0
    0.0934    3.2267    2.3871 N   0  0  0  0  0  0  0  0  0  0  0  0
    0.5521    1.8400    2.2250 C   0  0  2  0  0  0  0  0  0  0  0  0
    0.4242    1.3608    0.7631 C   0  0  0  0  0  0  0  0  0  0  0  0
   -0.0456    2.1072   -0.0874 O   0  0  0  0  0  0  0  0  0  0  0  0
   -0.2621    0.9382    3.1578 C   0  0  0  0  0  0  0  0  0  0  0  0
   -0.4378    3.6273    1.6147 H   0  0  0  0  0  0  0  0  0  0  0  0
    1.6112    1.7688    2.4981 H   0  0  0  0  0  0  0  0  0  0  0  0
   -1.3246    0.9746    2.8973 H   0  0  0  0  0  0  0  0  0  0  0  0
    0.0815   -0.0984    3.0864 H   0  0  0  0  0  0  0  0  0  0  0  0
   -0.1472    1.2649    4.1963 H   0  0  0  0  0  0  0  0  0  0  0  0
    1.1363    0.2559    0.3373 N   0  0  0  0  0  0  0  0  0  0  0  0
    2.3259    0.4218   -0.5189 C   0  0  2  0  0  0  0  0  0  0  0  0
    2.0791    1.1147   -1.8749 C   0  0  0  0  0  0  0  0  0  0  0  0
    2.9889    1.7722   -2.3640 O   0  0  0  0  0  0  0  0  0  0  0  0
    2.9626   -0.9622   -0.7575 C   0  0  0  0  0  0  0  0  0  0  0  0
    3.5065   -1.6022    0.5160 C   0  0  0  0  0  0  0  0  0  0  0  0
    3.0377   -1.3670    1.6169 O   0  0  0  0  0  0  0  0  0  0  0  0
    4.5525   -2.4786    0.4848 N   0  0  0  0  0  0  0  0  0  0  0  0
    1.3362   -0.3765    1.1172 H   0  0  0  0  0  0  0  0  0  0  0  0
    3.0496    1.0521    0.0124 H   0  0  0  0  0  0  0  0  0  0  0  0
    2.2286   -1.6376   -1.2061 H   0  0  0  0  0  0  0  0  0  0  0  0
    3.7896   -0.8533   -1.4654 H   0  0  0  0  0  0  0  0  0  0  0  0
    5.0883   -2.5894   -0.3703 H   0  0  0  0  0  0  0  0  0  0  0  0
    4.9529   -2.7435    1.3808 H   0  0  0  0  0  0  0  0  0  0  0  0
    0.9878    0.7420   -2.6401 N   0  0  0  0  0  0  0  0  0  0  0  0
    0.6097    1.2803   -3.9622 C   0  0  2  0  0  0  0  0  0  0  0  0
    1.5174    0.8304   -5.1298 C   0  0  0  0  0  0  0  0  0  0  0  0
    1.0166    0.3101   -6.1185 O   0  0  0  0  0  0  0  0  0  0  0  0
    0.4844    2.8098   -3.9164 C   0  0  0  0  0  0  0  0  0  0  0  0
    0.2466    0.3035   -2.0978 H   0  0  0  0  0  0  0  0  0  0  0  0
   -0.3866    0.8869   -4.1887 H   0  0  0  0  0  0  0  0  0  0  0  0
    1.4630    3.2857   -3.8039 H   0  0  0  0  0  0  0  0  0  0  0  0
    0.0318    3.1771   -4.8426 H   0  0  0  0  0  0  0  0  0  0  0  0
   -0.1484    3.1135   -3.0766 H   0  0  0  0  0  0  0  0  0  0  0  0
    2.8868    0.9970   -5.0805 N   0  0  0  0  0  0  0  0  0  0  0  0
    3.8007    0.5775   -6.1334 C   0  0  0  0  0  0  0  0  0  0  0  0
    3.2584    1.4095   -4.2203 H   0  0  0  0  0  0  0  0  0  0  0  0
    4.8257    0.8638   -5.8789 H   0  0  0  0  0  0  0  0  0  0  0  0
    3.7644   -0.5093   -6.2601 H   0  0  0  0  0  0  0  0  0  0  0  0
    3.5351    1.0528   -7.0835 H   0  0  0  0  0  0  0  0  0  0  0  0
  1  2  2  0  0  0  0
  1  3  1  0  0  0  0
  1  7  1  0  0  0  0
  3  4  1  0  0  0  0
  3  5  1  0  0  0  0
  3  6  1  0  0  0  0
  7  8  1  0  0  0  0
  7 12  1  0  0  0  0
  8  9  1  0  0  0  0
  8 11  1  0  0  0  0
  8 13  1  0  0  0  0
  9 10  2  0  0  0  0
  9 17  1  0  0  0  0
 11 14  1  0  0  0  0
 11 15  1  0  0  0  0
 11 16  1  0  0  0  0
 17 18  1  0  0  0  0
 17 25  1  0  0  0  0
 18 19  1  0  0  0  0
 18 21  1  0  0  0  0
 18 26  1  0  0  0  0
 19 20  2  0  0  0  0
 19 31  1  0  0  0  0
 21 22  1  0  0  0  0
 21 27  1  0  0  0  0
 21 28  1  0  0  0  0
 22 23  2  0  0  0  0
 22 24  1  0  0  0  0
 24 29  1  0  0  0  0
 24 30  1  0  0  0  0
 31 32  1  0  0  0  0
 31 36  1  0  0  0  0
 32 33  1  0  0  0  0
 32 35  1  0  0  0  0
 32 37  1  0  0  0  0
 33 34  2  0  0  0  0
 33 41  1  0  0  0  0
 35 38  1  0  0  0  0
 35 39  1  0  0  0  0
 35 40  1  0  0  0  0
 41 42  1  0  0  0  0
 41 43  1  0  0  0  0
 42 44  1  0  0  0  0
 42 45  1  0  0  0  0
 42 46  1  0  0  0  0
M  END
$$$$

  -OEChem-02062319053D

 46 45  0     1  0  0  0  0  0999 V2000
    0.6049    4.1088    3.2728 C   0  0  0  0  0  0  0  0  0  0  0  0
    1.3860    3.7155    4.1242 O   0  0  0  0  0  0  0  0  0  0  0  0
    0.2080    5.5720    3.2212 C   0  0  0  0  0  0  0  0  0  0  0  0
   -0.8744    5.6701    3.3346 H   0  0  0  0  0  0  0  0  0  0  0  0
    0.6981    6.1240    4.0282 H   0  0  0  0  0  0  0  0  0  0  0  0
    0.5086    6.0062    2.2647 H   0  0  0  0  0  0  0  0  0  0  0  0
    0.0926    3.2255    2.3460 N   0  0  0  0  0  0  0  0  0  0  0  0
    0.5503    1.8374    2.1944 C   0  0  2  0  0  0  0  0  0  0  0  0
    0.4344    1.3497    0.7346 C   0  0  0  0  0  0  0  0  0  0  0  0
   -0.0203    2.0904   -0.1289 O   0  0  0  0  0  0  0  0  0  0  0  0
   -0.2716    0.9389    3.1230 C   0  0  0  0  0  0  0  0  0  0  0  0
   -0.4298    3.6248    1.5669 H   0  0  0  0  0  0  0  0  0  0  0  0
    1.6064    1.7665    2.4778 H   0  0  0  0  0  0  0  0  0  0  0  0
   -1.3325    0.9773    2.8561 H   0  0  0  0  0  0  0  0  0  0  0  0
    0.0701   -0.0987    3.0545 H   0  0  0  0  0  0  0  0  0  0  0  0
   -0.1617    1.2667    4.1617 H   0  0  0  0  0  0  0  0  0  0  0  0
    1.1689    0.2614    0.3083 N   0  0  0  0  0  0  0  0  0  0  0  0
    2.5126    0.4834   -0.2560 C   0  0  2  0  0  0  0  0  0  0  0  0
    2.5503    1.3765   -1.5130 C   0  0  0  0  0  0  0  0  0  0  0  0
    3.5450    2.0622   -1.7092 O   0  0  0  0  0  0  0  0  0  0  0  0
    3.1500   -0.8836   -0.5757 C   0  0  0  0  0  0  0  0  0  0  0  0
    3.3897   -1.7431    0.6621 C   0  0  0  0  0  0  0  0  0  0  0  0
    2.7364   -1.6165    1.6842 O   0  0  0  0  0  0  0  0  0  0  0  0
    4.3450   -2.7179    0.6796 N   0  0  0  0  0  0  0  0  0  0  0  0
    1.2132   -0.4536    1.0399 H   0  0  0  0  0  0  0  0  0  0  0  0
    3.1322    0.9898    0.4946 H   0  0  0  0  0  0  0  0  0  0  0  0
    2.5120   -1.4359   -1.2714 H   0  0  0  0  0  0  0  0  0  0  0  0
    4.1135   -0.7173   -1.0670 H   0  0  0  0  0  0  0  0  0  0  0  0
    4.8209   -2.9768   -0.1790 H   0  0  0  0  0  0  0  0  0  0  0  0
    4.3604   -3.3348    1.4874 H   0  0  0  0  0  0  0  0  0  0  0  0
    1.6229    1.1678   -2.5187 N   0  0  0  0  0  0  0  0  0  0  0  0
    1.5371    1.8794   -3.8096 C   0  0  2  0  0  0  0  0  0  0  0  0
    2.6621    1.5370   -4.8130 C   0  0  0  0  0  0  0  0  0  0  0  0
    2.3720    1.1544   -5.9392 O   0  0  0  0  0  0  0  0  0  0  0  0
    1.4282    3.3953   -3.5955 C   0  0  0  0  0  0  0  0  0  0  0  0
    0.7719    0.7142   -2.1904 H   0  0  0  0  0  0  0  0  0  0  0  0
    0.6047    1.5584   -4.2850 H   0  0  0  0  0  0  0  0  0  0  0  0
    2.3645    3.8115   -3.2127 H   0  0  0  0  0  0  0  0  0  0  0  0
    1.1968    3.8918   -4.5430 H   0  0  0  0  0  0  0  0  0  0  0  0
    0.6298    3.6208   -2.8816 H   0  0  0  0  0  0  0  0  0  0  0  0
    3.9930    1.6455   -4.4629 N   0  0  0  0  0  0  0  0  0  0  0  0
    5.1028    1.3176   -5.3461 C   0  0  0  0  0  0  0  0  0  0  0  0
    4.1812    1.9402   -3.5007 H   0  0  0  0  0  0  0  0  0  0  0  0
    6.0541    1.5114   -4.8417 H   0  0  0  0  0  0  0  0  0  0  0  0
    5.0683    0.2602   -5.6277 H   0  0  0  0  0  0  0  0  0  0  0  0
    5.0617    1.9272   -6.2546 H   0  0  0  0  0  0  0  0  0  0  0  0
  1  2  2  0  0  0  0
  1  3  1  0  0  0  0
  1  7  1  0  0  0  0
  3  4  1  0  0  0  0
  3  5  1  0  0  0  0
  3  6  1  0  0  0  0
  7  8  1  0  0  0  0
  7 12  1  0  0  0  0
  8  9  1  0  0  0  0
  8 11  1  0  0  0  0
  8 13  1  0  0  0  0
  9 10  2  0  0  0  0
  9 17  1  0  0  0  0
 11 14  1  0  0  0  0
 11 15  1  0  0  0  0
 11 16  1  0  0  0  0
 17 18  1  0  0  0  0
 17 25  1  0  0  0  0
 18 19  1  0  0  0  0
 18 21  1  0  0  0  0
 18 26  1  0  0  0  0
 19 20  2  0  0  0  0
 19 31  1  0  0  0  0
 21 22  1  0  0  0  0
 21 27  1  0  0  0  0
 21 28  1  0  0  0  0
 22 23  2  0  0  0  0
 22 24  1  0  0  0  0
 24 29  1  0  0  0  0
 24 30  1  0  0  0  0
 31 32  1  0  0  0  0
 31 36  1  0  0  0  0
 32 33  1  0  0  0  0
 32 35  1  0  0  0  0
 32 37  1  0  0  0  0
 33 34  2  0  0  0  0
 33 41  1  0  0  0  0
 35 38  1  0  0  0  0
 35 39  1  0  0  0  0
 35 40  1  0  0  0  0
 41 42  1  0  0  0  0
 41 43  1  0  0  0  0
 42 44  1  0  0  0  0
 42 45  1  0  0  0  0
 42 46  1  0  0  0  0
M  END
$$$$

  -OEChem-02062319053D

 46 45  0     1  0  0  0  0  0999 V2000
    0.7789    4.2321    2.2673 C   0  0  0  0  0  0  0  0  0  0  0  0
    1.8897    4.1684    1.7646 O   0  0  0  0  0  0  0  0  0  0  0  0
    0.0542    5.5620    2.3550 C   0  0  0  0  0  0  0  0  0  0  0  0
   -0.1807    5.7920    3.3970 H   0  0  0  0  0  0  0  0  0  0  0  0
    0.6835    6.3604    1.9518 H   0  0  0  0  0  0  0  0  0  0  0  0
   -0.8738    5.5200    1.7793 H   0  0  0  0  0  0  0  0  0  0  0  0
    0.1645    3.0806    2.7146 N   0  0  0  0  0  0  0  0  0  0  0  0
    0.7178    1.7496    2.4315 C   0  0  2  0  0  0  0  0  0  0  0  0
    0.5692    1.3601    0.9442 C   0  0  0  0  0  0  0  0  0  0  0  0
   -0.4223    1.6692    0.2982 O   0  0  0  0  0  0  0  0  0  0  0  0
    0.0050    0.7355    3.3288 C   0  0  0  0  0  0  0  0  0  0  0  0
   -0.8285    3.1504    2.9158 H   0  0  0  0  0  0  0  0  0  0  0  0
    1.7844    1.7389    2.6805 H   0  0  0  0  0  0  0  0  0  0  0  0
   -1.0649    0.7026    3.0997 H   0  0  0  0  0  0  0  0  0  0  0  0
    0.4242   -0.2648    3.1771 H   0  0  0  0  0  0  0  0  0  0  0  0
    0.1309    1.0047    4.3821 H   0  0  0  0  0  0  0  0  0  0  0  0
    1.2176    0.2779    0.4053 N   0  0  0  0  0  0  0  0  0  0  0  0
    2.6612    0.3680    0.1402 C   0  0  2  0  0  0  0  0  0  0  0  0
    3.0319    1.4912   -0.8494 C   0  0  0  0  0  0  0  0  0  0  0  0
    4.1264    2.0231   -0.7368 O   0  0  0  0  0  0  0  0  0  0  0  0
    3.1685   -0.9930   -0.3704 C   0  0  0  0  0  0  0  0  0  0  0  0
    3.1390   -2.0818    0.6982 C   0  0  0  0  0  0  0  0  0  0  0  0
    2.9729   -1.8535    1.8824 O   0  0  0  0  0  0  0  0  0  0  0  0
    3.3199   -3.3947    0.3702 N   0  0  0  0  0  0  0  0  0  0  0  0
    0.6629   -0.1232   -0.3453 H   0  0  0  0  0  0  0  0  0  0  0  0
    3.1856    0.6034    1.0749 H   0  0  0  0  0  0  0  0  0  0  0  0
    2.5686   -1.3145   -1.2257 H   0  0  0  0  0  0  0  0  0  0  0  0
    4.2033   -0.8854   -0.7090 H   0  0  0  0  0  0  0  0  0  0  0  0
    3.6698   -3.6306   -0.5524 H   0  0  0  0  0  0  0  0  0  0  0  0
    3.4607   -4.0325    1.1487 H   0  0  0  0  0  0  0  0  0  0  0  0
    2.2886    1.6650   -2.0064 N   0  0  0  0  0  0  0  0  0  0  0  0
    2.5256    2.6745   -3.0594 C   0  0  2  0  0  0  0  0  0  0  0  0
    3.7661    2.4141   -3.9449 C   0  0  0  0  0  0  0  0  0  0  0  0
    3.6340    2.3386   -5.1598 O   0  0  0  0  0  0  0  0  0  0  0  0
    2.5561    4.0905   -2.4658 C   0  0  0  0  0  0  0  0  0  0  0  0
    1.3611    1.2504   -1.9819 H   0  0  0  0  0  0  0  0  0  0  0  0
    1.6646    2.6343   -3.7345 H   0  0  0  0  0  0  0  0  0  0  0  0
    3.4484    4.2472   -1.8525 H   0  0  0  0  0  0  0  0  0  0  0  0
    2.5616    4.8335   -3.2691 H   0  0  0  0  0  0  0  0  0  0  0  0
    1.6731    4.2605   -1.8421 H   0  0  0  0  0  0  0  0  0  0  0  0
    5.0211    2.2540   -3.3940 N   0  0  0  0  0  0  0  0  0  0  0  0
    6.2292    1.9986   -4.1644 C   0  0  0  0  0  0  0  0  0  0  0  0
    5.0695    2.2846   -2.3716 H   0  0  0  0  0  0  0  0  0  0  0  0
    6.4071    2.8097   -4.8780 H   0  0  0  0  0  0  0  0  0  0  0  0
    7.0934    1.9300   -3.4968 H   0  0  0  0  0  0  0  0  0  0  0  0
    6.1404    1.0567   -4.7154 H   0  0  0  0  0  0  0  0  0  0  0  0
  1  2  2  0  0  0  0
  1  3  1  0  0  0  0
  1  7  1  0  0  0  0
  3  4  1  0  0  0  0
  3  5  1  0  0  0  0
  3  6  1  0  0  0  0
  7  8  1  0  0  0  0
  7 12  1  0  0  0  0
  8  9  1  0  0  0  0
  8 11  1  0  0  0  0
  8 13  1  0  0  0  0
  9 10  2  0  0  0  0
  9 17  1  0  0  0  0
 11 14  1  0  0  0  0
 11 15  1  0  0  0  0
 11 16  1  0  0  0  0
 17 18  1  0  0  0  0
 17 25  1  0  0  0  0
 18 19  1  0  0  0  0
 18 21  1  0  0  0  0
 18 26  1  0  0  0  0
 19 20  2  0  0  0  0
 19 31  1  0  0  0  0
 21 22  1  0  0  0  0
 21 27  1  0  0  0  0
 21 28  1  0  0  0  0
 22 23  2  0  0  0  0
 22 24  1  0  0  0  0
 24 29  1  0  0  0  0
 24 30  1  0  0  0  0
 31 32  1  0  0  0  0
 31 36  1  0  0  0  0
 32 33  1  0  0  0  0
 32 35  1  0  0  0  0
 32 37  1  0  0  0  0
 33 34  2  0  0  0  0
 33 41  1  0  0  0  0
 35 38  1  0  0  0  0
 35 39  1  0  0  0  0
 35 40  1  0  0  0  0
 41 42  1  0  0  0  0
 41 43  1  0  0  0  0
 42 44  1  0  0  0  0
 42 45  1  0  0  0  0
 42 46  1  0  0  0  0
M  END
$$$$

  -OEChem-02062319053D

 46 45  0     1  0  0  0  0  0999 V2000
    0.4009    4.3734    3.0916 C   0  0  0  0  0  0  0  0  0  0  0  0
    1.5298    4.4313    3.5507 O   0  0  0  0  0  0  0  0  0  0  0  0
   -0.4864    5.6039    3.1027 C   0  0  0  0  0  0  0  0  0  0  0  0
   -1.3940    5.4035    3.6769 H   0  0  0  0  0  0  0  0  0  0  0  0
    0.0415    6.4450    3.5609 H   0  0  0  0  0  0  0  0  0  0  0  0
   -0.7619    5.8755    2.0807 H   0  0  0  0  0  0  0  0  0  0  0  0
   -0.0714    3.1972    2.5476 N   0  0  0  0  0  0  0  0  0  0  0  0
    0.7543    2.0049    2.3038 C   0  0  2  0  0  0  0  0  0  0  0  0
    0.6172    1.5139    0.8458 C   0  0  0  0  0  0  0  0  0  0  0  0
   -0.3085    1.8760    0.1334 O   0  0  0  0  0  0  0  0  0  0  0  0
    0.3187    0.9201    3.2924 C   0  0  0  0  0  0  0  0  0  0  0  0
   -0.9546    3.2526    2.0439 H   0  0  0  0  0  0  0  0  0  0  0  0
    1.8124    2.2307    2.4733 H   0  0  0  0  0  0  0  0  0  0  0  0
   -0.7293    0.6497    3.1298 H   0  0  0  0  0  0  0  0  0  0  0  0
    0.9327    0.0217    3.1728 H   0  0  0  0  0  0  0  0  0  0  0  0
    0.4322    1.2785    4.3204 H   0  0  0  0  0  0  0  0  0  0  0  0
    1.2788    0.4155    0.3503 N   0  0  0  0  0  0  0  0  0  0  0  0
    2.7487    0.3677    0.3595 C   0  0  2  0  0  0  0  0  0  0  0  0
    3.3849    1.5119   -0.4544 C   0  0  0  0  0  0  0  0  0  0  0  0
    4.4259    2.0098   -0.0544 O   0  0  0  0  0  0  0  0  0  0  0  0
    3.2221   -0.9928   -0.1859 C   0  0  0  0  0  0  0  0  0  0  0  0
    2.9156   -2.1576    0.7499 C   0  0  0  0  0  0  0  0  0  0  0  0
    2.5512   -2.0100    1.9011 O   0  0  0  0  0  0  0  0  0  0  0  0
    3.0650   -3.4502    0.3369 N   0  0  0  0  0  0  0  0  0  0  0  0
    0.8175    0.0542   -0.4800 H   0  0  0  0  0  0  0  0  0  0  0  0
    3.1120    0.4732    1.3897 H   0  0  0  0  0  0  0  0  0  0  0  0
    2.7593   -1.1839   -1.1575 H   0  0  0  0  0  0  0  0  0  0  0  0
    4.3060   -0.9625   -0.3322 H   0  0  0  0  0  0  0  0  0  0  0  0
    3.5664   -3.6402   -0.5245 H   0  0  0  0  0  0  0  0  0  0  0  0
    3.0131   -4.1583    1.0643 H   0  0  0  0  0  0  0  0  0  0  0  0
    2.8862    1.8354   -1.7060 N   0  0  0  0  0  0  0  0  0  0  0  0
    3.4046    2.8672   -2.6267 C   0  0  2  0  0  0  0  0  0  0  0  0
    4.7823    2.5369   -3.2453 C   0  0  0  0  0  0  0  0  0  0  0  0
    4.8821    2.4155   -4.4591 O   0  0  0  0  0  0  0  0  0  0  0  0
    3.4096    4.2520   -1.9627 C   0  0  0  0  0  0  0  0  0  0  0  0
    1.9921    1.4155   -1.9449 H   0  0  0  0  0  0  0  0  0  0  0  0
    2.7042    2.9239   -3.4665 H   0  0  0  0  0  0  0  0  0  0  0  0
    4.1643    4.3142   -1.1731 H   0  0  0  0  0  0  0  0  0  0  0  0
    3.6327    5.0233   -2.7066 H   0  0  0  0  0  0  0  0  0  0  0  0
    2.4302    4.4675   -1.5247 H   0  0  0  0  0  0  0  0  0  0  0  0
    5.8970    2.3467   -2.4534 N   0  0  0  0  0  0  0  0  0  0  0  0
    7.2079    1.9738   -2.9663 C   0  0  0  0  0  0  0  0  0  0  0  0
    5.7361    2.3562   -1.4423 H   0  0  0  0  0  0  0  0  0  0  0  0
    7.9398    1.9572   -2.1530 H   0  0  0  0  0  0  0  0  0  0  0  0
    7.1713    0.9794   -3.4227 H   0  0  0  0  0  0  0  0  0  0  0  0
    7.5452    2.6953   -3.7179 H   0  0  0  0  0  0  0  0  0  0  0  0
  1  2  2  0  0  0  0
  1  3  1  0  0  0  0
  1  7  1  0  0  0  0
  3  4  1  0  0  0  0
  3  5  1  0  0  0  0
  3  6  1  0  0  0  0
  7  8  1  0  0  0  0
  7 12  1  0  0  0  0
  8  9  1  0  0  0  0
  8 11  1  0  0  0  0
  8 13  1  0  0  0  0
  9 10  2  0  0  0  0
  9 17  1  0  0  0  0
 11 14  1  0  0  0  0
 11 15  1  0  0  0  0
 11 16  1  0  0  0  0
 17 18  1  0  0  0  0
 17 25  1  0  0  0  0
 18 19  1  0  0  0  0
 18 21  1  0  0  0  0
 18 26  1  0  0  0  0
 19 20  2  0  0  0  0
 19 31  1  0  0  0  0
 21 22  1  0  0  0  0
 21 27  1  0  0  0  0
 21 28  1  0  0  0  0
 22 23  2  0  0  0  0
 22 24  1  0  0  0  0
 24 29  1  0  0  0  0
 24 30  1  0  0  0  0
 31 32  1  0  0  0  0
 31 36  1  0  0  0  0
 32 33  1  0  0  0  0
 32 35  1  0  0  0  0
 32 37  1  0  0  0  0
 33 34  2  0  0  0  0
 33 41  1  0  0  0  0
 35 38  1  0  0  0  0
 35 39  1  0  0  0  0
 35 40  1  0  0  0  0
 41 42  1  0  0  0  0
 41 43  1  0  0  0  0
 42 44  1  0  0  0  0
 42 45  1  0  0  0  0
 42 46  1  0  0  0  0
M  END
$$$$

  -OEChem-02062319053D

 46 45  0     1  0  0  0  0  0999 V2000
    0.5647    4.3388    2.4437 C   0  0  0  0  0  0  0  0  0  0  0  0
    1.7102    4.3898    2.0237 O   0  0  0  0  0  0  0  0  0  0  0  0
   -0.2780    5.5980    2.5157 C   0  0  0  0  0  0  0  0  0  0  0  0
   -0.5954    5.7774    3.5458 H   0  0  0  0  0  0  0  0  0  0  0  0
    0.3013    6.4591    2.1707 H   0  0  0  0  0  0  0  0  0  0  0  0
   -1.1618    5.4916    1.8818 H   0  0  0  0  0  0  0  0  0  0  0  0
    0.0231    3.1255    2.8149 N   0  0  0  0  0  0  0  0  0  0  0  0
    0.7014    1.8542    2.5281 C   0  0  2  0  0  0  0  0  0  0  0  0
    0.5729    1.4417    1.0430 C   0  0  0  0  0  0  0  0  0  0  0  0
   -0.3798    1.7864    0.3592 O   0  0  0  0  0  0  0  0  0  0  0  0
    0.0970    0.7790    3.4340 C   0  0  0  0  0  0  0  0  0  0  0  0
   -0.9859    3.1062    2.9312 H   0  0  0  0  0  0  0  0  0  0  0  0
    1.7653    1.9508    2.7696 H   0  0  0  0  0  0  0  0  0  0  0  0
   -0.9665    0.6429    3.2132 H   0  0  0  0  0  0  0  0  0  0  0  0
    0.6072   -0.1780    3.2824 H   0  0  0  0  0  0  0  0  0  0  0  0
    0.2036    1.0633    4.4853 H   0  0  0  0  0  0  0  0  0  0  0  0
    1.3011    0.4224    0.4759 N   0  0  0  0  0  0  0  0  0  0  0  0
    2.7434    0.2563    0.7106 C   0  0  2  0  0  0  0  0  0  0  0  0
    3.5772    1.4701    0.2554 C   0  0  0  0  0  0  0  0  0  0  0  0
    4.5836    1.7517    0.8891 O   0  0  0  0  0  0  0  0  0  0  0  0
    3.2279   -1.0231    0.0037 C   0  0  0  0  0  0  0  0  0  0  0  0
    2.6936   -2.2976    0.6501 C   0  0  0  0  0  0  0  0  0  0  0  0
    2.2118   -2.3259    1.7674 O   0  0  0  0  0  0  0  0  0  0  0  0
    2.7520   -3.4975    0.0017 N   0  0  0  0  0  0  0  0  0  0  0  0
    0.9321    0.1464   -0.4299 H   0  0  0  0  0  0  0  0  0  0  0  0
    2.9266    0.1433    1.7863 H   0  0  0  0  0  0  0  0  0  0  0  0
    2.9322   -1.0002   -1.0486 H   0  0  0  0  0  0  0  0  0  0  0  0
    4.3205   -1.0638    0.0422 H   0  0  0  0  0  0  0  0  0  0  0  0
    3.3282   -3.5851   -0.8288 H   0  0  0  0  0  0  0  0  0  0  0  0
    2.5329   -4.3172    0.5616 H   0  0  0  0  0  0  0  0  0  0  0  0
    3.3243    2.0601   -0.9727 N   0  0  0  0  0  0  0  0  0  0  0  0
    4.0491    3.1981   -1.5747 C   0  0  2  0  0  0  0  0  0  0  0  0
    5.4942    2.8794   -2.0218 C   0  0  0  0  0  0  0  0  0  0  0  0
    5.8063    3.0252   -3.1968 O   0  0  0  0  0  0  0  0  0  0  0  0
    4.0099    4.4275   -0.6561 C   0  0  0  0  0  0  0  0  0  0  0  0
    2.4436    1.7990   -1.4066 H   0  0  0  0  0  0  0  0  0  0  0  0
    3.5089    3.4718   -2.4870 H   0  0  0  0  0  0  0  0  0  0  0  0
    4.5680    4.2551    0.2686 H   0  0  0  0  0  0  0  0  0  0  0  0
    4.4509    5.2902   -1.1647 H   0  0  0  0  0  0  0  0  0  0  0  0
    2.9760    4.6728   -0.3954 H   0  0  0  0  0  0  0  0  0  0  0  0
    6.4374    2.4126   -1.1287 N   0  0  0  0  0  0  0  0  0  0  0  0
    7.8027    2.0611   -1.4908 C   0  0  0  0  0  0  0  0  0  0  0  0
    6.1052    2.2367   -0.1760 H   0  0  0  0  0  0  0  0  0  0  0  0
    8.3473    1.7088   -0.6097 H   0  0  0  0  0  0  0  0  0  0  0  0
    7.8069    1.2653   -2.2426 H   0  0  0  0  0  0  0  0  0  0  0  0
    8.3270    2.9327   -1.8958 H   0  0  0  0  0  0  0  0  0  0  0  0
  1  2  2  0  0  0  0
  1  3  1  0  0  0  0
  1  7  1  0  0  0  0
  3  4  1  0  0  0  0
  3  5  1  0  0  0  0
  3  6  1  0  0  0  0
  7  8  1  0  0  0  0
  7 12  1  0  0  0  0
  8  9  1  0  0  0  0
  8 11  1  0  0  0  0
  8 13  1  0  0  0  0
  9 10  2  0  0  0  0
  9 17  1  0  0  0  0
 11 14  1  0  0  0  0
 11 15  1  0  0  0  0
 11 16  1  0  0  0  0
 17 18  1  0  0  0  0
 17 25  1  0  0  0  0
 18 19  1  0  0  0  0
 18 21  1  0  0  0  0
 18 26  1  0  0  0  0
 19 20  2  0  0  0  0
 19 31  1  0  0  0  0
 21 22  1  0  0  0  0
 21 27  1  0  0  0  0
 21 28  1  0  0  0  0
 22 23  2  0  0  0  0
 22 24  1  0  0  0  0
 24 29  1  0  0  0  0
 24 30  1  0  0  0  0
 31 32  1  0  0  0  0
 31 36  1  0  0  0  0
 32 33  1  0  0  0  0
 32 35  1  0  0  0  0
 32 37  1  0  0  0  0
 33 34  2  0  0  0  0
 33 41  1  0  0  0  0
 35 38  1  0  0  0  0
 35 39  1  0  0  0  0
 35 40  1  0  0  0  0
 41 42  1  0  0  0  0
 41 43  1  0  0  0  0
 42 44  1  0  0  0  0
 42 45  1  0  0  0  0
 42 46  1  0  0  0  0
M  END
$$$$

  -OEChem-02062319053D

 46 45  0     1  0  0  0  0  0999 V2000
    0.3809    4.3498    2.5790 C   0  0  0  0  0  0  0  0  0  0  0  0
    1.5646    4.4543    2.3003 O   0  0  0  0  0  0  0  0  0  0  0  0
   -0.5105    5.5773    2.5854 C   0  0  0  0  0  0  0  0  0  0  0  0
   -1.2957    5.4716    1.8326 H   0  0  0  0  0  0  0  0  0  0  0  0
   -0.9706    5.6999    3.5689 H   0  0  0  0  0  0  0  0  0  0  0  0
    0.0773    6.4712    2.3580 H   0  0  0  0  0  0  0  0  0  0  0  0
   -0.1568    3.1079    2.8459 N   0  0  0  0  0  0  0  0  0  0  0  0
    0.5843    1.8655    2.5859 C   0  0  2  0  0  0  0  0  0  0  0  0
    0.5204    1.4483    1.0970 C   0  0  0  0  0  0  0  0  0  0  0  0
   -0.3923    1.8077    0.3676 O   0  0  0  0  0  0  0  0  0  0  0  0
   -0.0151    0.7705    3.4724 C   0  0  0  0  0  0  0  0  0  0  0  0
   -1.1716    3.0566    2.8361 H   0  0  0  0  0  0  0  0  0  0  0  0
    1.6343    1.9997    2.8671 H   0  0  0  0  0  0  0  0  0  0  0  0
   -1.0639    0.5959    3.2122 H   0  0  0  0  0  0  0  0  0  0  0  0
    0.5325   -0.1690    3.3453 H   0  0  0  0  0  0  0  0  0  0  0  0
    0.0411    1.0614    4.5259 H   0  0  0  0  0  0  0  0  0  0  0  0
    1.3272    0.4866    0.5319 N   0  0  0  0  0  0  0  0  0  0  0  0
    2.6923    0.1754    0.9832 C   0  0  2  0  0  0  0  0  0  0  0  0
    3.6568    1.3743    0.8914 C   0  0  0  0  0  0  0  0  0  0  0  0
    4.5348    1.4798    1.7353 O   0  0  0  0  0  0  0  0  0  0  0  0
    3.2435   -1.0064    0.1635 C   0  0  0  0  0  0  0  0  0  0  0  0
    2.5352   -2.3227    0.4647 C   0  0  0  0  0  0  0  0  0  0  0  0
    1.8836   -2.5083    1.4753 O   0  0  0  0  0  0  0  0  0  0  0  0
    2.6134   -3.3804   -0.3948 N   0  0  0  0  0  0  0  0  0  0  0  0
    1.0512    0.2337   -0.4133 H   0  0  0  0  0  0  0  0  0  0  0  0
    2.6660   -0.1204    2.0390 H   0  0  0  0  0  0  0  0  0  0  0  0
    3.1601   -0.7874   -0.9042 H   0  0  0  0  0  0  0  0  0  0  0  0
    4.3045   -1.1410    0.3946 H   0  0  0  0  0  0  0  0  0  0  0  0
    3.3024   -3.3649   -1.1397 H   0  0  0  0  0  0  0  0  0  0  0  0
    2.2594   -4.2666   -0.0445 H   0  0  0  0  0  0  0  0  0  0  0  0
    3.6656    2.1646   -0.2467 N   0  0  0  0  0  0  0  0  0  0  0  0
    4.6160    3.2478   -0.5702 C   0  0  2  0  0  0  0  0  0  0  0  0
    6.0672    2.7693   -0.8045 C   0  0  0  0  0  0  0  0  0  0  0  0
    6.5620    2.8707   -1.9199 O   0  0  0  0  0  0  0  0  0  0  0  0
    4.5589    4.3701    0.4747 C   0  0  0  0  0  0  0  0  0  0  0  0
    2.8749    2.0412   -0.8730 H   0  0  0  0  0  0  0  0  0  0  0  0
    4.2908    3.6872   -1.5189 H   0  0  0  0  0  0  0  0  0  0  0  0
    4.8841    4.0212    1.4589 H   0  0  0  0  0  0  0  0  0  0  0  0
    5.2082    5.1981    0.1737 H   0  0  0  0  0  0  0  0  0  0  0  0
    3.5377    4.7505    0.5624 H   0  0  0  0  0  0  0  0  0  0  0  0
    6.8028    2.1903    0.2101 N   0  0  0  0  0  0  0  0  0  0  0  0
    8.1322    1.6244    0.0289 C   0  0  0  0  0  0  0  0  0  0  0  0
    6.2856    1.9882    1.0704 H   0  0  0  0  0  0  0  0  0  0  0  0
    8.8112    2.3702   -0.3972 H   0  0  0  0  0  0  0  0  0  0  0  0
    8.5384    1.3021    0.9923 H   0  0  0  0  0  0  0  0  0  0  0  0
    8.0921    0.7590   -0.6405 H   0  0  0  0  0  0  0  0  0  0  0  0
  1  2  2  0  0  0  0
  1  3  1  0  0  0  0
  1  7  1  0  0  0  0
  3  4  1  0  0  0  0
  3  5  1  0  0  0  0
  3  6  1  0  0  0  0
  7  8  1  0  0  0  0
  7 12  1  0  0  0  0
  8  9  1  0  0  0  0
  8 11  1  0  0  0  0
  8 13  1  0  0  0  0
  9 10  2  0  0  0  0
  9 17  1  0  0  0  0
 11 14  1  0  0  0  0
 11 15  1  0  0  0  0
 11 16  1  0  0  0  0
 17 18  1  0  0  0  0
 17 25  1  0  0  0  0
 18 19  1  0  0  0  0
 18 21  1  0  0  0  0
 18 26  1  0  0  0  0
 19 20  2  0  0  0  0
 19 31  1  0  0  0  0
 21 22  1  0  0  0  0
 21 27  1  0  0  0  0
 21 28  1  0  0  0  0
 22 23  2  0  0  0  0
 22 24  1  0  0  0  0
 24 29  1  0  0  0  0
 24 30  1  0  0  0  0
 31 32  1  0  0  0  0
 31 36  1  0  0  0  0
 32 33  1  0  0  0  0
 32 35  1  0  0  0  0
 32 37  1  0  0  0  0
 33 34  2  0  0  0  0
 33 41  1  0  0  0  0
 35 38  1  0  0  0  0
 35 39  1  0  0  0  0
 35 40  1  0  0  0  0
 41 42  1  0  0  0  0
 41 43  1  0  0  0  0
 42 44  1  0  0  0  0
 42 45  1  0  0  0  0
 42 46  1  0  0  0  0
M  END
$$$$

  -OEChem-02062319053D

 46 45  0     1  0  0  0  0  0999 V2000
    0.3348    4.4342    2.8056 C   0  0  0  0  0  0  0  0  0  0  0  0
    1.5301    4.5136    3.0357 O   0  0  0  0  0  0  0  0  0  0  0  0
   -0.4969    5.6970    2.6853 C   0  0  0  0  0  0  0  0  0  0  0  0
   -1.2692    5.7105    3.4580 H   0  0  0  0  0  0  0  0  0  0  0  0
    0.1375    6.5794    2.8063 H   0  0  0  0  0  0  0  0  0  0  0  0
   -0.9727    5.7384    1.7027 H   0  0  0  0  0  0  0  0  0  0  0  0
   -0.2633    3.2038    2.6313 N   0  0  0  0  0  0  0  0  0  0  0  0
    0.4815    1.9426    2.4921 C   0  0  2  0  0  0  0  0  0  0  0  0
    0.4898    1.4413    1.0275 C   0  0  0  0  0  0  0  0  0  0  0  0
   -0.3529    1.8191    0.2267 O   0  0  0  0  0  0  0  0  0  0  0  0
   -0.1987    0.9165    3.4027 C   0  0  0  0  0  0  0  0  0  0  0  0
   -1.2040    3.2221    2.2441 H   0  0  0  0  0  0  0  0  0  0  0  0
    1.5156    2.0700    2.8259 H   0  0  0  0  0  0  0  0  0  0  0  0
   -1.2349    0.7525    3.0898 H   0  0  0  0  0  0  0  0  0  0  0  0
    0.3272   -0.0421    3.3678 H   0  0  0  0  0  0  0  0  0  0  0  0
   -0.1985    1.2709    4.4384 H   0  0  0  0  0  0  0  0  0  0  0  0
    1.3277    0.4679    0.5267 N   0  0  0  0  0  0  0  0  0  0  0  0
    2.5464   -0.0494    1.1686 C   0  0  2  0  0  0  0  0  0  0  0  0
    3.6065    1.0414    1.4086 C   0  0  0  0  0  0  0  0  0  0  0  0
    4.2620    1.0095    2.4391 O   0  0  0  0  0  0  0  0  0  0  0  0
    3.1467   -1.1727    0.3011 C   0  0  0  0  0  0  0  0  0  0  0  0
    2.3055   -2.4448    0.2960 C   0  0  0  0  0  0  0  0  0  0  0  0
    1.3457   -2.6089    1.0247 O   0  0  0  0  0  0  0  0  0  0  0  0
    2.5982   -3.4819   -0.5418 N   0  0  0  0  0  0  0  0  0  0  0  0
    1.0609    0.1224   -0.3921 H   0  0  0  0  0  0  0  0  0  0  0  0
    2.2941   -0.4662    2.1512 H   0  0  0  0  0  0  0  0  0  0  0  0
    3.2719   -0.8215   -0.7267 H   0  0  0  0  0  0  0  0  0  0  0  0
    4.1367   -1.4327    0.6877 H   0  0  0  0  0  0  0  0  0  0  0  0
    3.4897   -3.4950   -1.0262 H   0  0  0  0  0  0  0  0  0  0  0  0
    2.0938   -4.3486   -0.3749 H   0  0  0  0  0  0  0  0  0  0  0  0
    3.8946    1.9485    0.4024 N   0  0  0  0  0  0  0  0  0  0  0  0
    4.9141    3.0162    0.4315 C   0  0  2  0  0  0  0  0  0  0  0  0
    6.3725    2.5088    0.5085 C   0  0  0  0  0  0  0  0  0  0  0  0
    7.1260    2.6987   -0.4375 O   0  0  0  0  0  0  0  0  0  0  0  0
    4.6159    4.0293    1.5441 C   0  0  0  0  0  0  0  0  0  0  0  0
    3.2798    1.9155   -0.4066 H   0  0  0  0  0  0  0  0  0  0  0  0
    4.8380    3.5590   -0.5166 H   0  0  0  0  0  0  0  0  0  0  0  0
    4.6782    3.5696    2.5347 H   0  0  0  0  0  0  0  0  0  0  0  0
    5.3335    4.8546    1.5043 H   0  0  0  0  0  0  0  0  0  0  0  0
    3.6116    4.4421    1.4160 H   0  0  0  0  0  0  0  0  0  0  0  0
    6.8346    1.8177    1.6104 N   0  0  0  0  0  0  0  0  0  0  0  0
    8.1677    1.2407    1.7081 C   0  0  0  0  0  0  0  0  0  0  0  0
    6.1225    1.5513    2.2961 H   0  0  0  0  0  0  0  0  0  0  0  0
    8.3102    0.7880    2.6941 H   0  0  0  0  0  0  0  0  0  0  0  0
    8.3075    0.4678    0.9457 H   0  0  0  0  0  0  0  0  0  0  0  0
    8.9301    2.0145    1.5709 H   0  0  0  0  0  0  0  0  0  0  0  0
  1  2  2  0  0  0  0
  1  3  1  0  0  0  0
  1  7  1  0  0  0  0
  3  4  1  0  0  0  0
  3  5  1  0  0  0  0
  3  6  1  0  0  0  0
  7  8  1  0  0  0  0
  7 12  1  0  0  0  0
  8  9  1  0  0  0  0
  8 11  1  0  0  0  0
  8 13  1  0  0  0  0
  9 10  2  0  0  0  0
  9 17  1  0  0  0  0
 11 14  1  0  0  0  0
 11 15  1  0  0  0  0
 11 16  1  0  0  0  0
 17 18  1  0  0  0  0
 17 25  1  0  0  0  0
 18 19  1  0  0  0  0
 18 21  1  0  0  0  0
 18 26  1  0  0  0  0
 19 20  2  0  0  0  0
 19 31  1  0  0  0  0
 21 22  1  0  0  0  0
 21 27  1  0  0  0  0
 21 28  1  0  0  0  0
 22 23  2  0  0  0  0
 22 24  1  0  0  0  0
 24 29  1  0  0  0  0
 24 30  1  0  0  0  0
 31 32  1  0  0  0  0
 31 36  1  0  0  0  0
 32 33  1  0  0  0  0
 32 35  1  0  0  0  0
 32 37  1  0  0  0  0
 33 34  2  0  0  0  0
 33 41  1  0  0  0  0
 35 38  1  0  0  0  0
 35 39  1  0  0  0  0
 35 40  1  0  0  0  0
 41 42  1  0  0  0  0
 41 43  1  0  0  0  0
 42 44  1  0  0  0  0
 42 45  1  0  0  0  0
 42 46  1  0  0  0  0
M  END
$$$$

  -OEChem-02062319053D

 46 45  0     1  0  0  0  0  0999 V2000
    0.1337    4.5007    2.9060 C   0  0  0  0  0  0  0  0  0  0  0  0
    1.2227    4.5621    3.4526 O   0  0  0  0  0  0  0  0  0  0  0  0
   -0.6690    5.7667    2.6736 C   0  0  0  0  0  0  0  0  0  0  0  0
   -1.5956    5.7318    3.2522 H   0  0  0  0  0  0  0  0  0  0  0  0
   -0.0912    6.6419    2.9847 H   0  0  0  0  0  0  0  0  0  0  0  0
   -0.9129    5.8652    1.6129 H   0  0  0  0  0  0  0  0  0  0  0  0
   -0.3689    3.2892    2.4805 N   0  0  0  0  0  0  0  0  0  0  0  0
    0.3994    2.0353    2.4441 C   0  0  2  0  0  0  0  0  0  0  0  0
    0.4588    1.4647    1.0044 C   0  0  0  0  0  0  0  0  0  0  0  0
   -0.3324    1.8492    0.1551 O   0  0  0  0  0  0  0  0  0  0  0  0
   -0.2981    1.0607    3.3970 C   0  0  0  0  0  0  0  0  0  0  0  0
   -1.1858    3.3340    1.8739 H   0  0  0  0  0  0  0  0  0  0  0  0
    1.4211    2.2048    2.7949 H   0  0  0  0  0  0  0  0  0  0  0  0
   -1.3156    0.8502    3.0524 H   0  0  0  0  0  0  0  0  0  0  0  0
    0.2486    0.1168    3.4609 H   0  0  0  0  0  0  0  0  0  0  0  0
   -0.3520    1.4911    4.4021 H   0  0  0  0  0  0  0  0  0  0  0  0
    1.3154    0.4846    0.5447 N   0  0  0  0  0  0  0  0  0  0  0  0
    2.3474   -0.2220    1.3207 C   0  0  2  0  0  0  0  0  0  0  0  0
    3.4165    0.7158    1.9083 C   0  0  0  0  0  0  0  0  0  0  0  0
    3.8289    0.5043    3.0389 O   0  0  0  0  0  0  0  0  0  0  0  0
    3.0453   -1.2562    0.4136 C   0  0  0  0  0  0  0  0  0  0  0  0
    2.1559   -2.4325    0.0272 C   0  0  0  0  0  0  0  0  0  0  0  0
    0.9736   -2.4880    0.3061 O   0  0  0  0  0  0  0  0  0  0  0  0
    2.6511   -3.4919   -0.6765 N   0  0  0  0  0  0  0  0  0  0  0  0
    0.9946    0.0582   -0.3235 H   0  0  0  0  0  0  0  0  0  0  0  0
    1.8800   -0.7522    2.1582 H   0  0  0  0  0  0  0  0  0  0  0  0
    3.4018   -0.7696   -0.4984 H   0  0  0  0  0  0  0  0  0  0  0  0
    3.9167   -1.6583    0.9393 H   0  0  0  0  0  0  0  0  0  0  0  0
    3.6547   -3.5950   -0.7864 H   0  0  0  0  0  0  0  0  0  0  0  0
    2.0386   -4.2979   -0.7694 H   0  0  0  0  0  0  0  0  0  0  0  0
    3.9651    1.7117    1.1181 N   0  0  0  0  0  0  0  0  0  0  0  0
    5.0221    2.6695    1.5002 C   0  0  2  0  0  0  0  0  0  0  0  0
    6.3990    2.0252    1.7819 C   0  0  0  0  0  0  0  0  0  0  0  0
    7.3445    2.2786    1.0469 O   0  0  0  0  0  0  0  0  0  0  0  0
    4.5669    3.5492    2.6722 C   0  0  0  0  0  0  0  0  0  0  0  0
    3.5457    1.8219    0.1980 H   0  0  0  0  0  0  0  0  0  0  0  0
    5.1743    3.3375    0.6459 H   0  0  0  0  0  0  0  0  0  0  0  0
    4.4251    2.9627    3.5845 H   0  0  0  0  0  0  0  0  0  0  0  0
    5.3151    4.3211    2.8762 H   0  0  0  0  0  0  0  0  0  0  0  0
    3.6227    4.0432    2.4272 H   0  0  0  0  0  0  0  0  0  0  0  0
    6.5745    1.1410    2.8274 N   0  0  0  0  0  0  0  0  0  0  0  0
    7.8223    0.4436    3.1039 C   0  0  0  0  0  0  0  0  0  0  0  0
    5.7212    0.8536    3.3145 H   0  0  0  0  0  0  0  0  0  0  0  0
    7.7209   -0.1655    4.0072 H   0  0  0  0  0  0  0  0  0  0  0  0
    8.0878   -0.2131    2.2689 H   0  0  0  0  0  0  0  0  0  0  0  0
    8.6351    1.1604    3.2618 H   0  0  0  0  0  0  0  0  0  0  0  0
  1  2  2  0  0  0  0
  1  3  1  0  0  0  0
  1  7  1  0  0  0  0
  3  4  1  0  0  0  0
  3  5  1  0  0  0  0
  3  6  1  0  0  0  0
  7  8  1  0  0  0  0
  7 12  1  0  0  0  0
  8  9  1  0  0  0  0
  8 11  1  0  0  0  0
  8 13  1  0  0  0  0
  9 10  2  0  0  0  0
  9 17  1  0  0  0  0
 11 14  1  0  0  0  0
 11 15  1  0  0  0  0
 11 16  1  0  0  0  0
 17 18  1  0  0  0  0
 17 25  1  0  0  0  0
 18 19  1  0  0  0  0
 18 21  1  0  0  0  0
 18 26  1  0  0  0  0
 19 20  2  0  0  0  0
 19 31  1  0  0  0  0
 21 22  1  0  0  0  0
 21 27  1  0  0  0  0
 21 28  1  0  0  0  0
 22 23  2  0  0  0  0
 22 24  1  0  0  0  0
 24 29  1  0  0  0  0
 24 30  1  0  0  0  0
 31 32  1  0  0  0  0
 31 36  1  0  0  0  0
 32 33  1  0  0  0  0
 32 35  1  0  0  0  0
 32 37  1  0  0  0  0
 33 34  2  0  0  0  0
 33 41  1  0  0  0  0
 35 38  1  0  0  0  0
 35 39  1  0  0  0  0
 35 40  1  0  0  0  0
 41 42  1  0  0  0  0
 41 43  1  0  0  0  0
 42 44  1  0  0  0  0
 42 45  1  0  0  0  0
 42 46  1  0  0  0  0
M  END
$$$$

  -OEChem-02062319053D

 46 45  0     1  0  0  0  0  0999 V2000
   -0.0269    4.5564    2.8768 C   0  0  0  0  0  0  0  0  0  0  0  0
    0.9742    4.6007    3.5735 O   0  0  0  0  0  0  0  0  0  0  0  0
   -0.8093    5.8245    2.5915 C   0  0  0  0  0  0  0  0  0  0  0  0
   -1.8202    5.7371    2.9969 H   0  0  0  0  0  0  0  0  0  0  0  0
   -0.3174    6.6842    3.0548 H   0  0  0  0  0  0  0  0  0  0  0  0
   -0.8692    5.9924    1.5134 H   0  0  0  0  0  0  0  0  0  0  0  0
   -0.4480    3.3604    2.3345 N   0  0  0  0  0  0  0  0  0  0  0  0
    0.3244    2.1091    2.3731 C   0  0  2  0  0  0  0  0  0  0  0  0
    0.4334    1.4839    0.9581 C   0  0  0  0  0  0  0  0  0  0  0  0
   -0.2688    1.9045    0.0499 O   0  0  0  0  0  0  0  0  0  0  0  0
   -0.3904    1.1731    3.3522 C   0  0  0  0  0  0  0  0  0  0  0  0
   -1.1730    3.4209    1.6209 H   0  0  0  0  0  0  0  0  0  0  0  0
    1.3345    2.3067    2.7395 H   0  0  0  0  0  0  0  0  0  0  0  0
   -1.3855    0.9129    2.9773 H   0  0  0  0  0  0  0  0  0  0  0  0
    0.1781    0.2520    3.5013 H   0  0  0  0  0  0  0  0  0  0  0  0
   -0.5017    1.6619    4.3255 H   0  0  0  0  0  0  0  0  0  0  0  0
    1.3114    0.4987    0.5477 N   0  0  0  0  0  0  0  0  0  0  0  0
    2.1131   -0.3787    1.4178 C   0  0  2  0  0  0  0  0  0  0  0  0
    3.0876    0.3766    2.3381 C   0  0  0  0  0  0  0  0  0  0  0  0
    3.2278   -0.0054    3.4902 O   0  0  0  0  0  0  0  0  0  0  0  0
    2.9350   -1.3489    0.5421 C   0  0  0  0  0  0  0  0  0  0  0  0
    2.0874   -2.3693   -0.2094 C   0  0  0  0  0  0  0  0  0  0  0  0
    0.8800   -2.2719   -0.3179 O   0  0  0  0  0  0  0  0  0  0  0  0
    2.6535   -3.4503   -0.8214 N   0  0  0  0  0  0  0  0  0  0  0  0
    1.0396    0.1141   -0.3585 H   0  0  0  0  0  0  0  0  0  0  0  0
    1.4433   -0.9678    2.0550 H   0  0  0  0  0  0  0  0  0  0  0  0
    3.5275   -0.7844   -0.1834 H   0  0  0  0  0  0  0  0  0  0  0  0
    3.6297   -1.9013    1.1821 H   0  0  0  0  0  0  0  0  0  0  0  0
    3.6241   -3.6830   -0.6371 H   0  0  0  0  0  0  0  0  0  0  0  0
    2.0143   -4.1536   -1.1824 H   0  0  0  0  0  0  0  0  0  0  0  0
    3.8555    1.4083    1.8253 N   0  0  0  0  0  0  0  0  0  0  0  0
    4.8883    2.1880    2.5366 C   0  0  2  0  0  0  0  0  0  0  0  0
    6.1217    1.3626    2.9694 C   0  0  0  0  0  0  0  0  0  0  0  0
    7.2119    1.5975    2.4651 O   0  0  0  0  0  0  0  0  0  0  0  0
    4.2868    2.9521    3.7238 C   0  0  0  0  0  0  0  0  0  0  0  0
    3.6706    1.6534    0.8553 H   0  0  0  0  0  0  0  0  0  0  0  0
    5.2621    2.9414    1.8354 H   0  0  0  0  0  0  0  0  0  0  0  0
    3.9262    2.2709    4.4997 H   0  0  0  0  0  0  0  0  0  0  0  0
    5.0422    3.6069    4.1694 H   0  0  0  0  0  0  0  0  0  0  0  0
    3.4505    3.5723    3.3899 H   0  0  0  0  0  0  0  0  0  0  0  0
    6.0093    0.3373    3.8872 N   0  0  0  0  0  0  0  0  0  0  0  0
    7.1122   -0.5296    4.2775 C   0  0  0  0  0  0  0  0  0  0  0  0
    5.0551    0.0877    4.1609 H   0  0  0  0  0  0  0  0  0  0  0  0
    6.7944   -1.2054    5.0773 H   0  0  0  0  0  0  0  0  0  0  0  0
    7.4474   -1.1299    3.4255 H   0  0  0  0  0  0  0  0  0  0  0  0
    7.9557    0.0646    4.6446 H   0  0  0  0  0  0  0  0  0  0  0  0
  1  2  2  0  0  0  0
  1  3  1  0  0  0  0
  1  7  1  0  0  0  0
  3  4  1  0  0  0  0
  3  5  1  0  0  0  0
  3  6  1  0  0  0  0
  7  8  1  0  0  0  0
  7 12  1  0  0  0  0
  8  9  1  0  0  0  0
  8 11  1  0  0  0  0
  8 13  1  0  0  0  0
  9 10  2  0  0  0  0
  9 17  1  0  0  0  0
 11 14  1  0  0  0  0
 11 15  1  0  0  0  0
 11 16  1  0  0  0  0
 17 18  1  0  0  0  0
 17 25  1  0  0  0  0
 18 19  1  0  0  0  0
 18 21  1  0  0  0  0
 18 26  1  0  0  0  0
 19 20  2  0  0  0  0
 19 31  1  0  0  0  0
 21 22  1  0  0  0  0
 21 27  1  0  0  0  0
 21 28  1  0  0  0  0
 22 23  2  0  0  0  0
 22 24  1  0  0  0  0
 24 29  1  0  0  0  0
 24 30  1  0  0  0  0
 31 32  1  0  0  0  0
 31 36  1  0  0  0  0
 32 33  1  0  0  0  0
 32 35  1  0  0  0  0
 32 37  1  0  0  0  0
 33 34  2  0  0  0  0
 33 41  1  0  0  0  0
 35 38  1  0  0  0  0
 35 39  1  0  0  0  0
 35 40  1  0  0  0  0
 41 42  1  0  0  0  0
 41 43  1  0  0  0  0
 42 44  1  0  0  0  0
 42 45  1  0  0  0  0
 42 46  1  0  0  0  0
M  END
$$$$

  -OEChem-02062319053D

 46 45  0     1  0  0  0  0  0999 V2000
    0.7407    4.0957    2.2249 C   0  0  0  0  0  0  0  0  0  0  0  0
    1.8564    3.6223    2.0555 O   0  0  0  0  0  0  0  0  0  0  0  0
    0.4863    5.5665    1.9564 C   0  0  0  0  0  0  0  0  0  0  0  0
    0.0788    6.0451    2.8501 H   0  0  0  0  0  0  0  0  0  0  0  0
    1.4193    6.0676    1.6839 H   0  0  0  0  0  0  0  0  0  0  0  0
   -0.2258    5.6767    1.1346 H   0  0  0  0  0  0  0  0  0  0  0  0
   -0.2982    3.2812    2.6298 N   0  0  0  0  0  0  0  0  0  0  0  0
   -0.1662    1.8183    2.6491 C   0  0  2  0  0  0  0  0  0  0  0  0
   -0.0016    1.2483    1.2166 C   0  0  0  0  0  0  0  0  0  0  0  0
   -0.7313    1.6506    0.3226 O   0  0  0  0  0  0  0  0  0  0  0  0
   -1.4085    1.2272    3.3165 C   0  0  0  0  0  0  0  0  0  0  0  0
   -1.2317    3.6681    2.5227 H   0  0  0  0  0  0  0  0  0  0  0  0
    0.6943    1.5605    3.2635 H   0  0  0  0  0  0  0  0  0  0  0  0
   -2.3085    1.4727    2.7433 H   0  0  0  0  0  0  0  0  0  0  0  0
   -1.3229    0.1378    3.3784 H   0  0  0  0  0  0  0  0  0  0  0  0
   -1.5197    1.6230    4.3307 H   0  0  0  0  0  0  0  0  0  0  0  0
    1.0096    0.4253    0.7626 N   0  0  0  0  0  0  0  0  0  0  0  0
    1.7674   -0.5621    1.5517 C   0  0  2  0  0  0  0  0  0  0  0  0
    2.5606   -0.0142    2.7542 C   0  0  0  0  0  0  0  0  0  0  0  0
    2.6126   -0.7009    3.7648 O   0  0  0  0  0  0  0  0  0  0  0  0
    2.7680   -1.2723    0.6150 C   0  0  0  0  0  0  0  0  0  0  0  0
    2.1124   -2.1641   -0.4324 C   0  0  0  0  0  0  0  0  0  0  0  0
    0.9092   -2.2098   -0.6041 O   0  0  0  0  0  0  0  0  0  0  0  0
    2.8609   -2.9672   -1.2435 N   0  0  0  0  0  0  0  0  0  0  0  0
    0.8415    0.1686   -0.2109 H   0  0  0  0  0  0  0  0  0  0  0  0
    1.0646   -1.3052    1.9485 H   0  0  0  0  0  0  0  0  0  0  0  0
    3.3862   -0.5279    0.1053 H   0  0  0  0  0  0  0  0  0  0  0  0
    3.4320   -1.9024    1.2142 H   0  0  0  0  0  0  0  0  0  0  0  0
    3.8484   -3.0974   -1.0496 H   0  0  0  0  0  0  0  0  0  0  0  0
    2.3534   -3.6376   -1.8145 H   0  0  0  0  0  0  0  0  0  0  0  0
    3.3264    1.1339    2.6419 N   0  0  0  0  0  0  0  0  0  0  0  0
    4.1676    1.7461    3.6927 C   0  0  2  0  0  0  0  0  0  0  0  0
    5.4220    0.9317    4.0876 C   0  0  0  0  0  0  0  0  0  0  0  0
    6.5135    1.4839    4.1353 O   0  0  0  0  0  0  0  0  0  0  0  0
    3.3383    2.1056    4.9340 C   0  0  0  0  0  0  0  0  0  0  0  0
    3.0518    1.7567    1.8781 H   0  0  0  0  0  0  0  0  0  0  0  0
    4.5423    2.6887    3.2793 H   0  0  0  0  0  0  0  0  0  0  0  0
    2.9881    1.2090    5.4530 H   0  0  0  0  0  0  0  0  0  0  0  0
    3.9464    2.6880    5.6333 H   0  0  0  0  0  0  0  0  0  0  0  0
    2.4703    2.7076    4.6502 H   0  0  0  0  0  0  0  0  0  0  0  0
    5.3365   -0.4067    4.4161 N   0  0  0  0  0  0  0  0  0  0  0  0
    6.4611   -1.2148    4.8660 C   0  0  0  0  0  0  0  0  0  0  0  0
    4.3975   -0.8127    4.4006 H   0  0  0  0  0  0  0  0  0  0  0  0
    6.1271   -2.2323    5.0905 H   0  0  0  0  0  0  0  0  0  0  0  0
    7.2312   -1.2660    4.0894 H   0  0  0  0  0  0  0  0  0  0  0  0
    6.9016   -0.7876    5.7727 H   0  0  0  0  0  0  0  0  0  0  0  0
  1  2  2  0  0  0  0
  1  3  1  0  0  0  0
  1  7  1  0  0  0  0
  3  4  1  0  0  0  0
  3  5  1  0  0  0  0
  3  6  1  0  0  0  0
  7  8  1  0  0  0  0
  7 12  1  0  0  0  0
  8  9  1  0  0  0  0
  8 11  1  0  0  0  0
  8 13  1  0  0  0  0
  9 10  2  0  0  0  0
  9 17  1  0  0  0  0
 11 14  1  0  0  0  0
 11 15  1  0  0  0  0
 11 16  1  0  0  0  0
 17 18  1  0  0  0  0
 17 25  1  0  0  0  0
 18 19  1  0  0  0  0
 18 21  1  0  0  0  0
 18 26  1  0  0  0  0
 19 20  2  0  0  0  0
 19 31  1  0  0  0  0
 21 22  1  0  0  0  0
 21 27  1  0  0  0  0
 21 28  1  0  0  0  0
 22 23  2  0  0  0  0
 22 24  1  0  0  0  0
 24 29  1  0  0  0  0
 24 30  1  0  0  0  0
 31 32  1  0  0  0  0
 31 36  1  0  0  0  0
 32 33  1  0  0  0  0
 32 35  1  0  0  0  0
 32 37  1  0  0  0  0
 33 34  2  0  0  0  0
 33 41  1  0  0  0  0
 35 38  1  0  0  0  0
 35 39  1  0  0  0  0
 35 40  1  0  0  0  0
 41 42  1  0  0  0  0
 41 43  1  0  0  0  0
 42 44  1  0  0  0  0
 42 45  1  0  0  0  0
 42 46  1  0  0  0  0
M  END
$$$$

  -OEChem-02062319053D

 46 45  0     1  0  0  0  0  0999 V2000
    0.9357    3.9203    2.2915 C   0  0  0  0  0  0  0  0  0  0  0  0
    1.9751    3.2753    2.2902 O   0  0  0  0  0  0  0  0  0  0  0  0
    0.9657    5.4134    2.0274 C   0  0  0  0  0  0  0  0  0  0  0  0
    0.5246    5.9518    2.8699 H   0  0  0  0  0  0  0  0  0  0  0  0
    1.9971    5.7525    1.8944 H   0  0  0  0  0  0  0  0  0  0  0  0
    0.4008    5.6428    1.1206 H   0  0  0  0  0  0  0  0  0  0  0  0
   -0.2697    3.2822    2.5045 N   0  0  0  0  0  0  0  0  0  0  0  0
   -0.3856    1.8173    2.5255 C   0  0  2  0  0  0  0  0  0  0  0  0
   -0.1548    1.2105    1.1182 C   0  0  0  0  0  0  0  0  0  0  0  0
   -0.7848    1.6599    0.1726 O   0  0  0  0  0  0  0  0  0  0  0  0
   -1.7802    1.4564    3.0418 C   0  0  0  0  0  0  0  0  0  0  0  0
   -1.1021    3.8148    2.2665 H   0  0  0  0  0  0  0  0  0  0  0  0
    0.3365    1.4163    3.2328 H   0  0  0  0  0  0  0  0  0  0  0  0
   -2.5539    1.8469    2.3727 H   0  0  0  0  0  0  0  0  0  0  0  0
   -1.8915    0.3690    3.1035 H   0  0  0  0  0  0  0  0  0  0  0  0
   -1.9364    1.8766    4.0402 H   0  0  0  0  0  0  0  0  0  0  0  0
    0.9014    0.4124    0.7248 N   0  0  0  0  0  0  0  0  0  0  0  0
    1.4575   -0.7258    1.4797 C   0  0  2  0  0  0  0  0  0  0  0  0
    2.0213   -0.4263    2.8828 C   0  0  0  0  0  0  0  0  0  0  0  0
    1.8437   -1.2527    3.7665 O   0  0  0  0  0  0  0  0  0  0  0  0
    2.5967   -1.3493    0.6448 C   0  0  0  0  0  0  0  0  0  0  0  0
    2.1333   -2.0026   -0.6521 C   0  0  0  0  0  0  0  0  0  0  0  0
    0.9887   -1.9303   -1.0572 O   0  0  0  0  0  0  0  0  0  0  0  0
    2.9999   -2.7026   -1.4413 N   0  0  0  0  0  0  0  0  0  0  0  0
    0.8436    0.2550   -0.2830 H   0  0  0  0  0  0  0  0  0  0  0  0
    0.6651   -1.4729    1.6128 H   0  0  0  0  0  0  0  0  0  0  0  0
    3.3362   -0.5804    0.4042 H   0  0  0  0  0  0  0  0  0  0  0  0
    3.0966   -2.1180    1.2416 H   0  0  0  0  0  0  0  0  0  0  0  0
    3.9236   -2.9368   -1.0919 H   0  0  0  0  0  0  0  0  0  0  0  0
    2.5938   -3.2187   -2.2171 H   0  0  0  0  0  0  0  0  0  0  0  0
    2.8373    0.6707    3.1007 N   0  0  0  0  0  0  0  0  0  0  0  0
    3.4671    1.0790    4.3742 C   0  0  2  0  0  0  0  0  0  0  0  0
    4.5824    0.1431    4.8947 C   0  0  0  0  0  0  0  0  0  0  0  0
    5.6290    0.6234    5.3101 O   0  0  0  0  0  0  0  0  0  0  0  0
    2.4149    1.3252    5.4637 C   0  0  0  0  0  0  0  0  0  0  0  0
    2.7720    1.4041    2.3870 H   0  0  0  0  0  0  0  0  0  0  0  0
    3.9549    2.0406    4.1816 H   0  0  0  0  0  0  0  0  0  0  0  0
    1.9160    0.3954    5.7513 H   0  0  0  0  0  0  0  0  0  0  0  0
    2.8922    1.7457    6.3543 H   0  0  0  0  0  0  0  0  0  0  0  0
    1.6614    2.0353    5.1113 H   0  0  0  0  0  0  0  0  0  0  0  0
    4.4107   -1.2259    4.9429 N   0  0  0  0  0  0  0  0  0  0  0  0
    5.3740   -2.1472    5.5291 C   0  0  0  0  0  0  0  0  0  0  0  0
    3.4872   -1.5697    4.6671 H   0  0  0  0  0  0  0  0  0  0  0  0
    5.0253   -3.1782    5.4173 H   0  0  0  0  0  0  0  0  0  0  0  0
    6.3447   -2.0545    5.0311 H   0  0  0  0  0  0  0  0  0  0  0  0
    5.5036   -1.9379    6.5959 H   0  0  0  0  0  0  0  0  0  0  0  0
  1  2  2  0  0  0  0
  1  3  1  0  0  0  0
  1  7  1  0  0  0  0
  3  4  1  0  0  0  0
  3  5  1  0  0  0  0
  3  6  1  0  0  0  0
  7  8  1  0  0  0  0
  7 12  1  0  0  0  0
  8  9  1  0  0  0  0
  8 11  1  0  0  0  0
  8 13  1  0  0  0  0
  9 10  2  0  0  0  0
  9 17  1  0  0  0  0
 11 14  1  0  0  0  0
 11 15  1  0  0  0  0
 11 16  1  0  0  0  0
 17 18  1  0  0  0  0
 17 25  1  0  0  0  0
 18 19  1  0  0  0  0
 18 21  1  0  0  0  0
 18 26  1  0  0  0  0
 19 20  2  0  0  0  0
 19 31  1  0  0  0  0
 21 22  1  0  0  0  0
 21 27  1  0  0  0  0
 21 28  1  0  0  0  0
 22 23  2  0  0  0  0
 22 24  1  0  0  0  0
 24 29  1  0  0  0  0
 24 30  1  0  0  0  0
 31 32  1  0  0  0  0
 31 36  1  0  0  0  0
 32 33  1  0  0  0  0
 32 35  1  0  0  0  0
 32 37  1  0  0  0  0
 33 34  2  0  0  0  0
 33 41  1  0  0  0  0
 35 38  1  0  0  0  0
 35 39  1  0  0  0  0
 35 40  1  0  0  0  0
 41 42  1  0  0  0  0
 41 43  1  0  0  0  0
 42 44  1  0  0  0  0
 42 45  1  0  0  0  0
 42 46  1  0  0  0  0
M  END
$$$$

  -OEChem-02062319053D

 46 45  0     1  0  0  0  0  0999 V2000
    0.5381    4.4868    2.6676 C   0  0  0  0  0  0  0  0  0  0  0  0
    1.4308    4.1832    3.4446 O   0  0  0  0  0  0  0  0  0  0  0  0
    0.3262    5.9394    2.2854 C   0  0  0  0  0  0  0  0  0  0  0  0
   -0.7047    6.2347    2.4956 H   0  0  0  0  0  0  0  0  0  0  0  0
    0.9999    6.5827    2.8583 H   0  0  0  0  0  0  0  0  0  0  0  0
    0.5269    6.0775    1.2202 H   0  0  0  0  0  0  0  0  0  0  0  0
   -0.2719    3.5127    2.1210 N   0  0  0  0  0  0  0  0  0  0  0  0
   -0.0133    2.0705    2.2423 C   0  0  2  0  0  0  0  0  0  0  0  0
    0.2025    1.4036    0.8638 C   0  0  0  0  0  0  0  0  0  0  0  0
   -0.2564    1.9485   -0.1290 O   0  0  0  0  0  0  0  0  0  0  0  0
   -1.2110    1.4467    2.9624 C   0  0  0  0  0  0  0  0  0  0  0  0
   -0.8543    3.8029    1.3372 H   0  0  0  0  0  0  0  0  0  0  0  0
    0.8815    1.9106    2.8391 H   0  0  0  0  0  0  0  0  0  0  0  0
   -1.0634    0.3727    3.1039 H   0  0  0  0  0  0  0  0  0  0  0  0
   -2.1273    1.5972    2.3825 H   0  0  0  0  0  0  0  0  0  0  0  0
   -1.3414    1.9075    3.9465 H   0  0  0  0  0  0  0  0  0  0  0  0
    1.1749    0.4718    0.5540 N   0  0  0  0  0  0  0  0  0  0  0  0
    1.2895   -0.8330    1.2336 C   0  0  2  0  0  0  0  0  0  0  0  0
    1.5308   -0.7903    2.7549 C   0  0  0  0  0  0  0  0  0  0  0  0
    0.9296   -1.5759    3.4725 O   0  0  0  0  0  0  0  0  0  0  0  0
    2.4494   -1.6246    0.5911 C   0  0  0  0  0  0  0  0  0  0  0  0
    2.2006   -2.0197   -0.8602 C   0  0  0  0  0  0  0  0  0  0  0  0
    1.2812   -1.5698   -1.5168 O   0  0  0  0  0  0  0  0  0  0  0  0
    3.0226   -2.8950   -1.5093 N   0  0  0  0  0  0  0  0  0  0  0  0
    1.2337    0.3939   -0.4648 H   0  0  0  0  0  0  0  0  0  0  0  0
    0.3549   -1.3872    1.0795 H   0  0  0  0  0  0  0  0  0  0  0  0
    3.3693   -1.0351    0.6377 H   0  0  0  0  0  0  0  0  0  0  0  0
    2.6121   -2.5432    1.1627 H   0  0  0  0  0  0  0  0  0  0  0  0
    3.7115   -3.4248   -0.9855 H   0  0  0  0  0  0  0  0  0  0  0  0
    2.7201   -3.2074   -2.4282 H   0  0  0  0  0  0  0  0  0  0  0  0
    2.4704    0.0796    3.2836 N   0  0  0  0  0  0  0  0  0  0  0  0
    2.8444    0.2429    4.7038 C   0  0  2  0  0  0  0  0  0  0  0  0
    3.5538   -0.9835    5.3226 C   0  0  0  0  0  0  0  0  0  0  0  0
    4.6790   -0.8598    5.7875 O   0  0  0  0  0  0  0  0  0  0  0  0
    1.6414    0.6697    5.5567 C   0  0  0  0  0  0  0  0  0  0  0  0
    2.9255    0.6952    2.6125 H   0  0  0  0  0  0  0  0  0  0  0  0
    3.5684    1.0637    4.7496 H   0  0  0  0  0  0  0  0  0  0  0  0
    0.8771   -0.1111    5.5908 H   0  0  0  0  0  0  0  0  0  0  0  0
    1.9654    0.8736    6.5821 H   0  0  0  0  0  0  0  0  0  0  0  0
    1.1920    1.5820    5.1539 H   0  0  0  0  0  0  0  0  0  0  0  0
    2.9504   -2.2251    5.3451 N   0  0  0  0  0  0  0  0  0  0  0  0
    3.5684   -3.4216    5.8986 C   0  0  0  0  0  0  0  0  0  0  0  0
    2.0412   -2.2939    4.8801 H   0  0  0  0  0  0  0  0  0  0  0  0
    2.8793   -4.2686    5.8289 H   0  0  0  0  0  0  0  0  0  0  0  0
    4.4820   -3.6699    5.3488 H   0  0  0  0  0  0  0  0  0  0  0  0
    3.8215   -3.2679    6.9528 H   0  0  0  0  0  0  0  0  0  0  0  0
  1  2  2  0  0  0  0
  1  3  1  0  0  0  0
  1  7  1  0  0  0  0
  3  4  1  0  0  0  0
  3  5  1  0  0  0  0
  3  6  1  0  0  0  0
  7  8  1  0  0  0  0
  7 12  1  0  0  0  0
  8  9  1  0  0  0  0
  8 11  1  0  0  0  0
  8 13  1  0  0  0  0
  9 10  2  0  0  0  0
  9 17  1  0  0  0  0
 11 14  1  0  0  0  0
 11 15  1  0  0  0  0
 11 16  1  0  0  0  0
 17 18  1  0  0  0  0
 17 25  1  0  0  0  0
 18 19  1  0  0  0  0
 18 21  1  0  0  0  0
 18 26  1  0  0  0  0
 19 20  2  0  0  0  0
 19 31  1  0  0  0  0
 21 22  1  0  0  0  0
 21 27  1  0  0  0  0
 21 28  1  0  0  0  0
 22 23  2  0  0  0  0
 22 24  1  0  0  0  0
 24 29  1  0  0  0  0
 24 30  1  0  0  0  0
 31 32  1  0  0  0  0
 31 36  1  0  0  0  0
 32 33  1  0  0  0  0
 32 35  1  0  0  0  0
 32 37  1  0  0  0  0
 33 34  2  0  0  0  0
 33 41  1  0  0  0  0
 35 38  1  0  0  0  0
 35 39  1  0  0  0  0
 35 40  1  0  0  0  0
 41 42  1  0  0  0  0
 41 43  1  0  0  0  0
 42 44  1  0  0  0  0
 42 45  1  0  0  0  0
 42 46  1  0  0  0  0
M  END
$$$$

  -OEChem-02062319053D

 46 45  0     1  0  0  0  0  0999 V2000
    1.2063    3.4621    2.5165 C   0  0  0  0  0  0  0  0  0  0  0  0
    1.9233    2.5195    2.8207 O   0  0  0  0  0  0  0  0  0  0  0  0
    1.8011    4.8462    2.3431 C   0  0  0  0  0  0  0  0  0  0  0  0
    1.2932    5.5560    3.0004 H   0  0  0  0  0  0  0  0  0  0  0  0
    2.8654    4.8340    2.5944 H   0  0  0  0  0  0  0  0  0  0  0  0
    1.6876    5.1742    1.3069 H   0  0  0  0  0  0  0  0  0  0  0  0
   -0.1410    3.2614    2.2974 N   0  0  0  0  0  0  0  0  0  0  0  0
   -0.7498    1.9262    2.2231 C   0  0  2  0  0  0  0  0  0  0  0  0
   -0.4543    1.2516    0.8617 C   0  0  0  0  0  0  0  0  0  0  0  0
   -0.9302    1.7482   -0.1473 O   0  0  0  0  0  0  0  0  0  0  0  0
   -2.2560    2.0857    2.4514 C   0  0  0  0  0  0  0  0  0  0  0  0
   -0.6418    4.0280    1.8553 H   0  0  0  0  0  0  0  0  0  0  0  0
   -0.3707    1.3022    3.0293 H   0  0  0  0  0  0  0  0  0  0  0  0
   -2.6996    2.7297    1.6849 H   0  0  0  0  0  0  0  0  0  0  0  0
   -2.7503    1.1102    2.4124 H   0  0  0  0  0  0  0  0  0  0  0  0
   -2.4456    2.5307    3.4330 H   0  0  0  0  0  0  0  0  0  0  0  0
    0.6661    0.4926    0.5947 N   0  0  0  0  0  0  0  0  0  0  0  0
    0.8349   -0.8796    1.1061 C   0  0  2  0  0  0  0  0  0  0  0  0
    0.8312   -1.0695    2.6365 C   0  0  0  0  0  0  0  0  0  0  0  0
    0.2741   -2.0549    3.0992 O   0  0  0  0  0  0  0  0  0  0  0  0
    2.1821   -1.4207    0.5796 C   0  0  0  0  0  0  0  0  0  0  0  0
    2.2472   -1.5753   -0.9357 C   0  0  0  0  0  0  0  0  0  0  0  0
    1.3949   -1.1367   -1.6850 O   0  0  0  0  0  0  0  0  0  0  0  0
    3.3016   -2.1995   -1.5374 N   0  0  0  0  0  0  0  0  0  0  0  0
    0.8496    0.5465   -0.4104 H   0  0  0  0  0  0  0  0  0  0  0  0
    0.0212   -1.4996    0.7092 H   0  0  0  0  0  0  0  0  0  0  0  0
    2.9907   -0.7563    0.8972 H   0  0  0  0  0  0  0  0  0  0  0  0
    2.3665   -2.4053    1.0202 H   0  0  0  0  0  0  0  0  0  0  0  0
    4.1293   -2.4199   -0.9934 H   0  0  0  0  0  0  0  0  0  0  0  0
    3.3546   -2.1249   -2.5496 H   0  0  0  0  0  0  0  0  0  0  0  0
    1.5527   -0.2246    3.4623 N   0  0  0  0  0  0  0  0  0  0  0  0
    1.7021   -0.3071    4.9297 C   0  0  2  0  0  0  0  0  0  0  0  0
    2.5172   -1.5196    5.4347 C   0  0  0  0  0  0  0  0  0  0  0  0
    3.3984   -1.3514    6.2676 O   0  0  0  0  0  0  0  0  0  0  0  0
    0.3433   -0.2355    5.6405 C   0  0  0  0  0  0  0  0  0  0  0  0
    1.9151    0.6266    3.0168 H   0  0  0  0  0  0  0  0  0  0  0  0
    2.2675    0.5805    5.2337 H   0  0  0  0  0  0  0  0  0  0  0  0
   -0.2563   -1.1287    5.4437 H   0  0  0  0  0  0  0  0  0  0  0  0
    0.4927   -0.1582    6.7222 H   0  0  0  0  0  0  0  0  0  0  0  0
   -0.2159    0.6431    5.3076 H   0  0  0  0  0  0  0  0  0  0  0  0
    2.2495   -2.7994    4.9913 N   0  0  0  0  0  0  0  0  0  0  0  0
    2.9100   -3.9928    5.5006 C   0  0  0  0  0  0  0  0  0  0  0  0
    1.4591   -2.8950    4.3483 H   0  0  0  0  0  0  0  0  0  0  0  0
    2.5242   -4.8823    4.9936 H   0  0  0  0  0  0  0  0  0  0  0  0
    3.9895   -3.9357    5.3269 H   0  0  0  0  0  0  0  0  0  0  0  0
    2.7304   -4.1001    6.5755 H   0  0  0  0  0  0  0  0  0  0  0  0
  1  2  2  0  0  0  0
  1  3  1  0  0  0  0
  1  7  1  0  0  0  0
  3  4  1  0  0  0  0
  3  5  1  0  0  0  0
  3  6  1  0  0  0  0
  7  8  1  0  0  0  0
  7 12  1  0  0  0  0
  8  9  1  0  0  0  0
  8 11  1  0  0  0  0
  8 13  1  0  0  0  0
  9 10  2  0  0  0  0
  9 17  1  0  0  0  0
 11 14  1  0  0  0  0
 11 15  1  0  0  0  0
 11 16  1  0  0  0  0
 17 18  1  0  0  0  0
 17 25  1  0  0  0  0
 18 19  1  0  0  0  0
 18 21  1  0  0  0  0
 18 26  1  0  0  0  0
 19 20  2  0  0  0  0
 19 31  1  0  0  0  0
 21 22  1  0  0  0  0
 21 27  1  0  0  0  0
 21 28  1  0  0  0  0
 22 23  2  0  0  0  0
 22 24  1  0  0  0  0
 24 29  1  0  0  0  0
 24 30  1  0  0  0  0
 31 32  1  0  0  0  0
 31 36  1  0  0  0  0
 32 33  1  0  0  0  0
 32 35  1  0  0  0  0
 32 37  1  0  0  0  0
 33 34  2  0  0  0  0
 33 41  1  0  0  0  0
 35 38  1  0  0  0  0
 35 39  1  0  0  0  0
 35 40  1  0  0  0  0
 41 42  1  0  0  0  0
 41 43  1  0  0  0  0
 42 44  1  0  0  0  0
 42 45  1  0  0  0  0
 42 46  1  0  0  0  0
M  END
$$$$

  -OEChem-02062319053D

 46 45  0     1  0  0  0  0  0999 V2000
    1.1460    3.2259    2.7867 C   0  0  0  0  0  0  0  0  0  0  0  0
    1.6422    2.1891    3.2031 O   0  0  0  0  0  0  0  0  0  0  0  0
    1.9300    4.5230    2.8445 C   0  0  0  0  0  0  0  0  0  0  0  0
    1.4212    5.2375    3.4961 H   0  0  0  0  0  0  0  0  0  0  0  0
    2.9342    4.3404    3.2378 H   0  0  0  0  0  0  0  0  0  0  0  0
    2.0181    4.9519    1.8431 H   0  0  0  0  0  0  0  0  0  0  0  0
   -0.1204    3.2126    2.2390 N   0  0  0  0  0  0  0  0  0  0  0  0
   -0.8776    1.9811    1.9720 C   0  0  2  0  0  0  0  0  0  0  0  0
   -0.4309    1.3206    0.6449 C   0  0  0  0  0  0  0  0  0  0  0  0
   -0.8533    1.7550   -0.4146 O   0  0  0  0  0  0  0  0  0  0  0  0
   -2.3663    2.3450    1.9602 C   0  0  0  0  0  0  0  0  0  0  0  0
   -0.4176    4.0610    1.7639 H   0  0  0  0  0  0  0  0  0  0  0  0
   -0.7301    1.2690    2.7839 H   0  0  0  0  0  0  0  0  0  0  0  0
   -2.6636    2.7601    2.9281 H   0  0  0  0  0  0  0  0  0  0  0  0
   -2.9718    1.4544    1.7648 H   0  0  0  0  0  0  0  0  0  0  0  0
   -2.5801    3.0859    1.1830 H   0  0  0  0  0  0  0  0  0  0  0  0
    0.7635    0.6457    0.5157 N   0  0  0  0  0  0  0  0  0  0  0  0
    0.8353   -0.7977    0.7927 C   0  0  2  0  0  0  0  0  0  0  0  0
    0.4532   -1.2419    2.2183 C   0  0  0  0  0  0  0  0  0  0  0  0
   -0.1832   -2.2780    2.3506 O   0  0  0  0  0  0  0  0  0  0  0  0
    2.2763   -1.2692    0.5130 C   0  0  0  0  0  0  0  0  0  0  0  0
    2.6340   -1.2276   -0.9671 C   0  0  0  0  0  0  0  0  0  0  0  0
    2.4243   -0.2468   -1.6563 O   0  0  0  0  0  0  0  0  0  0  0  0
    3.1632   -2.3093   -1.6108 N   0  0  0  0  0  0  0  0  0  0  0  0
    1.1685    0.8667   -0.3988 H   0  0  0  0  0  0  0  0  0  0  0  0
    0.1507   -1.3166    0.1102 H   0  0  0  0  0  0  0  0  0  0  0  0
    2.9869   -0.6473    1.0654 H   0  0  0  0  0  0  0  0  0  0  0  0
    2.3948   -2.2976    0.8665 H   0  0  0  0  0  0  0  0  0  0  0  0
    3.1918   -3.2092   -1.1430 H   0  0  0  0  0  0  0  0  0  0  0  0
    3.2201   -2.2521   -2.6239 H   0  0  0  0  0  0  0  0  0  0  0  0
    0.9262   -0.5640    3.3280 N   0  0  0  0  0  0  0  0  0  0  0  0
    0.6950   -0.8851    4.7514 C   0  0  2  0  0  0  0  0  0  0  0  0
    1.3598   -2.1906    5.2462 C   0  0  0  0  0  0  0  0  0  0  0  0
    1.9690   -2.1945    6.3080 O   0  0  0  0  0  0  0  0  0  0  0  0
   -0.8024   -0.8805    5.0887 C   0  0  0  0  0  0  0  0  0  0  0  0
    1.4128    0.3194    3.1338 H   0  0  0  0  0  0  0  0  0  0  0  0
    1.1559   -0.0773    5.3303 H   0  0  0  0  0  0  0  0  0  0  0  0
   -1.3236   -1.7046    4.5932 H   0  0  0  0  0  0  0  0  0  0  0  0
   -1.2614    0.0618    4.7774 H   0  0  0  0  0  0  0  0  0  0  0  0
   -0.9418   -0.9903    6.1688 H   0  0  0  0  0  0  0  0  0  0  0  0
    1.2449   -3.3694    4.5363 N   0  0  0  0  0  0  0  0  0  0  0  0
    1.7529   -4.6527    5.0003 C   0  0  0  0  0  0  0  0  0  0  0  0
    0.6540   -3.3331    3.7018 H   0  0  0  0  0  0  0  0  0  0  0  0
    1.5561   -5.4282    4.2539 H   0  0  0  0  0  0  0  0  0  0  0  0
    2.8340   -4.5991    5.1664 H   0  0  0  0  0  0  0  0  0  0  0  0
    1.2652   -4.9410    5.9374 H   0  0  0  0  0  0  0  0  0  0  0  0
  1  2  2  0  0  0  0
  1  3  1  0  0  0  0
  1  7  1  0  0  0  0
  3  4  1  0  0  0  0
  3  5  1  0  0  0  0
  3  6  1  0  0  0  0
  7  8  1  0  0  0  0
  7 12  1  0  0  0  0
  8  9  1  0  0  0  0
  8 11  1  0  0  0  0
  8 13  1  0  0  0  0
  9 10  2  0  0  0  0
  9 17  1  0  0  0  0
 11 14  1  0  0  0  0
 11 15  1  0  0  0  0
 11 16  1  0  0  0  0
 17 18  1  0  0  0  0
 17 25  1  0  0  0  0
 18 19  1  0  0  0  0
 18 21  1  0  0  0  0
 18 26  1  0  0  0  0
 19 20  2  0  0  0  0
 19 31  1  0  0  0  0
 21 22  1  0  0  0  0
 21 27  1  0  0  0  0
 21 28  1  0  0  0  0
 22 23  2  0  0  0  0
 22 24  1  0  0  0  0
 24 29  1  0  0  0  0
 24 30  1  0  0  0  0
 31 32  1  0  0  0  0
 31 36  1  0  0  0  0
 32 33  1  0  0  0  0
 32 35  1  0  0  0  0
 32 37  1  0  0  0  0
 33 34  2  0  0  0  0
 33 41  1  0  0  0  0
 35 38  1  0  0  0  0
 35 39  1  0  0  0  0
 35 40  1  0  0  0  0
 41 42  1  0  0  0  0
 41 43  1  0  0  0  0
 42 44  1  0  0  0  0
 42 45  1  0  0  0  0
 42 46  1  0  0  0  0
M  END
$$$$

  -OEChem-02062319053D

 46 45  0     1  0  0  0  0  0999 V2000
    1.5037    2.6711    2.6470 C   0  0  0  0  0  0  0  0  0  0  0  0
    1.7854    1.4805    2.6698 O   0  0  0  0  0  0  0  0  0  0  0  0
    2.5199    3.7090    3.0825 C   0  0  0  0  0  0  0  0  0  0  0  0
    2.0793    4.3782    3.8256 H   0  0  0  0  0  0  0  0  0  0  0  0
    3.3917    3.2208    3.5269 H   0  0  0  0  0  0  0  0  0  0  0  0
    2.8458    4.2973    2.2212 H   0  0  0  0  0  0  0  0  0  0  0  0
    0.2734    3.0621    2.1598 N   0  0  0  0  0  0  0  0  0  0  0  0
   -0.8346    2.1438    1.8400 C   0  0  2  0  0  0  0  0  0  0  0  0
   -0.6443    1.3969    0.4927 C   0  0  0  0  0  0  0  0  0  0  0  0
   -1.6159    1.1620   -0.2091 O   0  0  0  0  0  0  0  0  0  0  0  0
   -2.1237    2.9758    1.8745 C   0  0  0  0  0  0  0  0  0  0  0  0
    0.0840    4.0614    2.1409 H   0  0  0  0  0  0  0  0  0  0  0  0
   -0.9164    1.3882    2.6259 H   0  0  0  0  0  0  0  0  0  0  0  0
   -2.1250    3.7188    1.0704 H   0  0  0  0  0  0  0  0  0  0  0  0
   -2.9976    2.3281    1.7469 H   0  0  0  0  0  0  0  0  0  0  0  0
   -2.2213    3.4937    2.8336 H   0  0  0  0  0  0  0  0  0  0  0  0
    0.4637    0.5875    0.3147 N   0  0  0  0  0  0  0  0  0  0  0  0
    0.3046   -0.8781    0.3517 C   0  0  2  0  0  0  0  0  0  0  0  0
   -0.2522   -1.4255    1.6825 C   0  0  0  0  0  0  0  0  0  0  0  0
   -1.0171   -2.3787    1.6716 O   0  0  0  0  0  0  0  0  0  0  0  0
    1.6727   -1.5259    0.0843 C   0  0  0  0  0  0  0  0  0  0  0  0
    2.1900   -1.2023   -1.3079 C   0  0  0  0  0  0  0  0  0  0  0  0
    1.6726   -1.6610   -2.3070 O   0  0  0  0  0  0  0  0  0  0  0  0
    3.2826   -0.4057   -1.5048 N   0  0  0  0  0  0  0  0  0  0  0  0
    1.2403    0.9145    0.8899 H   0  0  0  0  0  0  0  0  0  0  0  0
   -0.3934   -1.1826   -0.4398 H   0  0  0  0  0  0  0  0  0  0  0  0
    2.3983   -1.1953    0.8320 H   0  0  0  0  0  0  0  0  0  0  0  0
    1.5842   -2.6135    0.1661 H   0  0  0  0  0  0  0  0  0  0  0  0
    3.8817   -0.1836   -0.7176 H   0  0  0  0  0  0  0  0  0  0  0  0
    3.6496   -0.3843   -2.4520 H   0  0  0  0  0  0  0  0  0  0  0  0
    0.2504   -0.9586    2.8876 N   0  0  0  0  0  0  0  0  0  0  0  0
   -0.0861   -1.4306    4.2457 C   0  0  2  0  0  0  0  0  0  0  0  0
    0.4141   -2.8544    4.5810 C   0  0  0  0  0  0  0  0  0  0  0  0
    0.9943   -3.0507    5.6409 O   0  0  0  0  0  0  0  0  0  0  0  0
   -1.5895   -1.2994    4.5258 C   0  0  0  0  0  0  0  0  0  0  0  0
    0.9397   -0.2051    2.8203 H   0  0  0  0  0  0  0  0  0  0  0  0
    0.4267   -0.7618    4.9447 H   0  0  0  0  0  0  0  0  0  0  0  0
   -1.9367   -0.2906    4.2846 H   0  0  0  0  0  0  0  0  0  0  0  0
   -1.7901   -1.4908    5.5847 H   0  0  0  0  0  0  0  0  0  0  0  0
   -2.1670   -2.0175    3.9362 H   0  0  0  0  0  0  0  0  0  0  0  0
    0.2144   -3.9108    3.7150 N   0  0  0  0  0  0  0  0  0  0  0  0
    0.5892   -5.2871    4.0067 C   0  0  0  0  0  0  0  0  0  0  0  0
   -0.3363   -3.7060    2.8763 H   0  0  0  0  0  0  0  0  0  0  0  0
    0.4083   -5.9203    3.1326 H   0  0  0  0  0  0  0  0  0  0  0  0
    1.6517   -5.3496    4.2637 H   0  0  0  0  0  0  0  0  0  0  0  0
    0.0006   -5.6731    4.8451 H   0  0  0  0  0  0  0  0  0  0  0  0
  1  2  2  0  0  0  0
  1  3  1  0  0  0  0
  1  7  1  0  0  0  0
  3  4  1  0  0  0  0
  3  5  1  0  0  0  0
  3  6  1  0  0  0  0
  7  8  1  0  0  0  0
  7 12  1  0  0  0  0
  8  9  1  0  0  0  0
  8 11  1  0  0  0  0
  8 13  1  0  0  0  0
  9 10  2  0  0  0  0
  9 17  1  0  0  0  0
 11 14  1  0  0  0  0
 11 15  1  0  0  0  0
 11 16  1  0  0  0  0
 17 18  1  0  0  0  0
 17 25  1  0  0  0  0
 18 19  1  0  0  0  0
 18 21  1  0  0  0  0
 18 26  1  0  0  0  0
 19 20  2  0  0  0  0
 19 31  1  0  0  0  0
 21 22  1  0  0  0  0
 21 27  1  0  0  0  0
 21 28  1  0  0  0  0
 22 23  2  0  0  0  0
 22 24  1  0  0  0  0
 24 29  1  0  0  0  0
 24 30  1  0  0  0  0
 31 32  1  0  0  0  0
 31 36  1  0  0  0  0
 32 33  1  0  0  0  0
 32 35  1  0  0  0  0
 32 37  1  0  0  0  0
 33 34  2  0  0  0  0
 33 41  1  0  0  0  0
 35 38  1  0  0  0  0
 35 39  1  0  0  0  0
 35 40  1  0  0  0  0
 41 42  1  0  0  0  0
 41 43  1  0  0  0  0
 42 44  1  0  0  0  0
 42 45  1  0  0  0  0
 42 46  1  0  0  0  0
M  END
$$$$

  -OEChem-02062319053D

 46 45  0     1  0  0  0  0  0999 V2000
    0.7177    4.7527    2.6667 C   0  0  0  0  0  0  0  0  0  0  0  0
    1.6555    4.7339    3.4478 O   0  0  0  0  0  0  0  0  0  0  0  0
    0.0240    6.0607    2.3365 C   0  0  0  0  0  0  0  0  0  0  0  0
   -1.0339    5.9985    2.6029 H   0  0  0  0  0  0  0  0  0  0  0  0
    0.4811    6.8816    2.8963 H   0  0  0  0  0  0  0  0  0  0  0  0
    0.1119    6.2718    1.2678 H   0  0  0  0  0  0  0  0  0  0  0  0
    0.2926    3.5817    2.0759 N   0  0  0  0  0  0  0  0  0  0  0  0
    0.9863    2.2917    2.1946 C   0  0  2  0  0  0  0  0  0  0  0  0
    0.9576    1.5255    0.8476 C   0  0  0  0  0  0  0  0  0  0  0  0
    0.0493    1.7824    0.0661 O   0  0  0  0  0  0  0  0  0  0  0  0
    0.3444    1.5347    3.3565 C   0  0  0  0  0  0  0  0  0  0  0  0
   -0.4138    3.6573    1.3443 H   0  0  0  0  0  0  0  0  0  0  0  0
    2.0417    2.4642    2.4328 H   0  0  0  0  0  0  0  0  0  0  0  0
   -0.6767    1.2368    3.1009 H   0  0  0  0  0  0  0  0  0  0  0  0
    0.9333    0.6493    3.6048 H   0  0  0  0  0  0  0  0  0  0  0  0
    0.3066    2.1697    4.2477 H   0  0  0  0  0  0  0  0  0  0  0  0
    1.5644    0.2921    0.6714 N   0  0  0  0  0  0  0  0  0  0  0  0
    0.8205   -0.9189    0.2619 C   0  0  2  0  0  0  0  0  0  0  0  0
   -0.3204   -1.4142    1.1738 C   0  0  0  0  0  0  0  0  0  0  0  0
   -1.2956   -1.9361    0.6523 O   0  0  0  0  0  0  0  0  0  0  0  0
    1.8279   -2.0683    0.0777 C   0  0  0  0  0  0  0  0  0  0  0  0
    2.9704   -1.6842   -0.8487 C   0  0  0  0  0  0  0  0  0  0  0  0
    4.0068   -1.2338   -0.3974 O   0  0  0  0  0  0  0  0  0  0  0  0
    2.8776   -1.7875   -2.2070 N   0  0  0  0  0  0  0  0  0  0  0  0
    2.4013    0.1391    1.2318 H   0  0  0  0  0  0  0  0  0  0  0  0
    0.3564   -0.7053   -0.7093 H   0  0  0  0  0  0  0  0  0  0  0  0
    2.2481   -2.3594    1.0451 H   0  0  0  0  0  0  0  0  0  0  0  0
    1.3182   -2.9442   -0.3346 H   0  0  0  0  0  0  0  0  0  0  0  0
    1.9721   -1.9589   -2.6314 H   0  0  0  0  0  0  0  0  0  0  0  0
    3.6156   -1.3381   -2.7418 H   0  0  0  0  0  0  0  0  0  0  0  0
   -0.1535   -1.4858    2.5467 N   0  0  0  0  0  0  0  0  0  0  0  0
   -1.0742   -2.1002    3.5270 C   0  0  2  0  0  0  0  0  0  0  0  0
   -1.1643   -3.6402    3.4327 C   0  0  0  0  0  0  0  0  0  0  0  0
   -0.8848   -4.3189    4.4114 O   0  0  0  0  0  0  0  0  0  0  0  0
   -2.4733   -1.4690    3.4727 C   0  0  0  0  0  0  0  0  0  0  0  0
    0.7459   -1.1702    2.8955 H   0  0  0  0  0  0  0  0  0  0  0  0
   -0.6708   -1.8811    4.5211 H   0  0  0  0  0  0  0  0  0  0  0  0
   -2.9902   -1.7198    2.5420 H   0  0  0  0  0  0  0  0  0  0  0  0
   -3.0800   -1.8374    4.3059 H   0  0  0  0  0  0  0  0  0  0  0  0
   -2.4055   -0.3807    3.5500 H   0  0  0  0  0  0  0  0  0  0  0  0
   -1.5264   -4.2646    2.2560 N   0  0  0  0  0  0  0  0  0  0  0  0
   -1.6110   -5.7087    2.0889 C   0  0  0  0  0  0  0  0  0  0  0  0
   -1.7092   -3.6512    1.4570 H   0  0  0  0  0  0  0  0  0  0  0  0
   -1.9210   -5.9518    1.0681 H   0  0  0  0  0  0  0  0  0  0  0  0
   -0.6380   -6.1747    2.2759 H   0  0  0  0  0  0  0  0  0  0  0  0
   -2.3444   -6.1312    2.7835 H   0  0  0  0  0  0  0  0  0  0  0  0
  1  2  2  0  0  0  0
  1  3  1  0  0  0  0
  1  7  1  0  0  0  0
  3  4  1  0  0  0  0
  3  5  1  0  0  0  0
  3  6  1  0  0  0  0
  7  8  1  0  0  0  0
  7 12  1  0  0  0  0
  8  9  1  0  0  0  0
  8 11  1  0  0  0  0
  8 13  1  0  0  0  0
  9 10  2  0  0  0  0
  9 17  1  0  0  0  0
 11 14  1  0  0  0  0
 11 15  1  0  0  0  0
 11 16  1  0  0  0  0
 17 18  1  0  0  0  0
 17 25  1  0  0  0  0
 18 19  1  0  0  0  0
 18 21  1  0  0  0  0
 18 26  1  0  0  0  0
 19 20  2  0  0  0  0
 19 31  1  0  0  0  0
 21 22  1  0  0  0  0
 21 27  1  0  0  0  0
 21 28  1  0  0  0  0
 22 23  2  0  0  0  0
 22 24  1  0  0  0  0
 24 29  1  0  0  0  0
 24 30  1  0  0  0  0
 31 32  1  0  0  0  0
 31 36  1  0  0  0  0
 32 33  1  0  0  0  0
 32 35  1  0  0  0  0
 32 37  1  0  0  0  0
 33 34  2  0  0  0  0
 33 41  1  0  0  0  0
 35 38  1  0  0  0  0
 35 39  1  0  0  0  0
 35 40  1  0  0  0  0
 41 42  1  0  0  0  0
 41 43  1  0  0  0  0
 42 44  1  0  0  0  0
 42 45  1  0  0  0  0
 42 46  1  0  0  0  0
M  END
$$$$

  -OEChem-02062319053D

 46 45  0     1  0  0  0  0  0999 V2000
    0.7145    4.5758    2.9031 C   0  0  0  0  0  0  0  0  0  0  0  0
    1.6396    4.4449    3.6884 O   0  0  0  0  0  0  0  0  0  0  0  0
    0.0564    5.9305    2.7185 C   0  0  0  0  0  0  0  0  0  0  0  0
   -1.0073    5.8659    2.9608 H   0  0  0  0  0  0  0  0  0  0  0  0
    0.5232    6.6694    3.3763 H   0  0  0  0  0  0  0  0  0  0  0  0
    0.1681    6.2618    1.6832 H   0  0  0  0  0  0  0  0  0  0  0  0
    0.2736    3.4898    2.1761 N   0  0  0  0  0  0  0  0  0  0  0  0
    0.9245    2.1722    2.1752 C   0  0  2  0  0  0  0  0  0  0  0  0
    0.8355    1.4976    0.7868 C   0  0  0  0  0  0  0  0  0  0  0  0
   -0.0570    1.8393    0.0200 O   0  0  0  0  0  0  0  0  0  0  0  0
    0.2698    1.3235    3.2696 C   0  0  0  0  0  0  0  0  0  0  0  0
   -0.4287    3.6597    1.4568 H   0  0  0  0  0  0  0  0  0  0  0  0
    1.9897    2.2882    2.4048 H   0  0  0  0  0  0  0  0  0  0  0  0
   -0.7821    1.1364    3.0319 H   0  0  0  0  0  0  0  0  0  0  0  0
    0.7872    0.3664    3.3746 H   0  0  0  0  0  0  0  0  0  0  0  0
    0.3207    1.8427    4.2322 H   0  0  0  0  0  0  0  0  0  0  0  0
    1.4425    0.2761    0.5507 N   0  0  0  0  0  0  0  0  0  0  0  0
    0.7833   -0.8275   -0.1729 C   0  0  2  0  0  0  0  0  0  0  0  0
   -0.5204   -1.3398    0.4706 C   0  0  0  0  0  0  0  0  0  0  0  0
   -1.4074   -1.7616   -0.2583 O   0  0  0  0  0  0  0  0  0  0  0  0
    1.7627   -2.0085   -0.3063 C   0  0  0  0  0  0  0  0  0  0  0  0
    3.1042   -1.5850   -0.8810 C   0  0  0  0  0  0  0  0  0  0  0  0
    3.9773   -1.1498   -0.1528 O   0  0  0  0  0  0  0  0  0  0  0  0
    3.3774   -1.6373   -2.2180 N   0  0  0  0  0  0  0  0  0  0  0  0
    2.2477    0.0452    1.1328 H   0  0  0  0  0  0  0  0  0  0  0  0
    0.5214   -0.4695   -1.1761 H   0  0  0  0  0  0  0  0  0  0  0  0
    1.9372   -2.4642    0.6728 H   0  0  0  0  0  0  0  0  0  0  0  0
    1.3248   -2.7765   -0.9505 H   0  0  0  0  0  0  0  0  0  0  0  0
    2.6265   -1.8139   -2.8777 H   0  0  0  0  0  0  0  0  0  0  0  0
    4.2387   -1.1930   -2.5248 H   0  0  0  0  0  0  0  0  0  0  0  0
   -0.5802   -1.5628    1.8372 N   0  0  0  0  0  0  0  0  0  0  0  0
   -1.6895   -2.1777    2.5952 C   0  0  2  0  0  0  0  0  0  0  0  0
   -1.8677   -3.6914    2.3386 C   0  0  0  0  0  0  0  0  0  0  0  0
   -1.7865   -4.4734    3.2763 O   0  0  0  0  0  0  0  0  0  0  0  0
   -3.0071   -1.4189    2.3774 C   0  0  0  0  0  0  0  0  0  0  0  0
    0.2483   -1.2985    2.3605 H   0  0  0  0  0  0  0  0  0  0  0  0
   -1.4433   -2.0782    3.6577 H   0  0  0  0  0  0  0  0  0  0  0  0
   -3.3810   -1.5513    1.3580 H   0  0  0  0  0  0  0  0  0  0  0  0
   -3.7705   -1.7892    3.0689 H   0  0  0  0  0  0  0  0  0  0  0  0
   -2.8658   -0.3496    2.5596 H   0  0  0  0  0  0  0  0  0  0  0  0
   -2.0713   -4.1810    1.0642 N   0  0  0  0  0  0  0  0  0  0  0  0
   -2.1668   -5.5969    0.7380 C   0  0  0  0  0  0  0  0  0  0  0  0
   -2.0588   -3.4889    0.3100 H   0  0  0  0  0  0  0  0  0  0  0  0
   -2.3700   -5.7241   -0.3296 H   0  0  0  0  0  0  0  0  0  0  0  0
   -1.2289   -6.1091    0.9764 H   0  0  0  0  0  0  0  0  0  0  0  0
   -2.9791   -6.0670    1.3020 H   0  0  0  0  0  0  0  0  0  0  0  0
  1  2  2  0  0  0  0
  1  3  1  0  0  0  0
  1  7  1  0  0  0  0
  3  4  1  0  0  0  0
  3  5  1  0  0  0  0
  3  6  1  0  0  0  0
  7  8  1  0  0  0  0
  7 12  1  0  0  0  0
  8  9  1  0  0  0  0
  8 11  1  0  0  0  0
  8 13  1  0  0  0  0
  9 10  2  0  0  0  0
  9 17  1  0  0  0  0
 11 14  1  0  0  0  0
 11 15  1  0  0  0  0
 11 16  1  0  0  0  0
 17 18  1  0  0  0  0
 17 25  1  0  0  0  0
 18 19  1  0  0  0  0
 18 21  1  0  0  0  0
 18 26  1  0  0  0  0
 19 20  2  0  0  0  0
 19 31  1  0  0  0  0
 21 22  1  0  0  0  0
 21 27  1  0  0  0  0
 21 28  1  0  0  0  0
 22 23  2  0  0  0  0
 22 24  1  0  0  0  0
 24 29  1  0  0  0  0
 24 30  1  0  0  0  0
 31 32  1  0  0  0  0
 31 36  1  0  0  0  0
 32 33  1  0  0  0  0
 32 35  1  0  0  0  0
 32 37  1  0  0  0  0
 33 34  2  0  0  0  0
 33 41  1  0  0  0  0
 35 38  1  0  0  0  0
 35 39  1  0  0  0  0
 35 40  1  0  0  0  0
 41 42  1  0  0  0  0
 41 43  1  0  0  0  0
 42 44  1  0  0  0  0
 42 45  1  0  0  0  0
 42 46  1  0  0  0  0
M  END
$$$$

  -OEChem-02062319053D

 46 45  0     1  0  0  0  0  0999 V2000
    0.7301    4.4513    3.0810 C   0  0  0  0  0  0  0  0  0  0  0  0
    1.6096    4.2297    3.8977 O   0  0  0  0  0  0  0  0  0  0  0  0
    0.1456    5.8452    2.9496 C   0  0  0  0  0  0  0  0  0  0  0  0
   -0.9257    5.8224    3.1639 H   0  0  0  0  0  0  0  0  0  0  0  0
    0.6321    6.5254    3.6545 H   0  0  0  0  0  0  0  0  0  0  0  0
    0.3000    6.2214    1.9354 H   0  0  0  0  0  0  0  0  0  0  0  0
    0.2751    3.4331    2.2699 N   0  0  0  0  0  0  0  0  0  0  0  0
    0.8602    2.0864    2.2231 C   0  0  2  0  0  0  0  0  0  0  0  0
    0.7717    1.4781    0.8076 C   0  0  0  0  0  0  0  0  0  0  0  0
   -0.0729    1.8935    0.0236 O   0  0  0  0  0  0  0  0  0  0  0  0
    0.1216    1.2090    3.2405 C   0  0  0  0  0  0  0  0  0  0  0  0
   -0.3866    3.6776    1.5338 H   0  0  0  0  0  0  0  0  0  0  0  0
    1.9217    2.1341    2.4903 H   0  0  0  0  0  0  0  0  0  0  0  0
   -0.9342    1.1109    2.9673 H   0  0  0  0  0  0  0  0  0  0  0  0
    0.5676    0.2112    3.2846 H   0  0  0  0  0  0  0  0  0  0  0  0
    0.1828    1.6543    4.2388 H   0  0  0  0  0  0  0  0  0  0  0  0
    1.3856    0.2707    0.5278 N   0  0  0  0  0  0  0  0  0  0  0  0
    0.9019   -0.6869   -0.4818 C   0  0  2  0  0  0  0  0  0  0  0  0
   -0.5254   -1.2003   -0.2109 C   0  0  0  0  0  0  0  0  0  0  0  0
   -1.2406   -1.4891   -1.1606 O   0  0  0  0  0  0  0  0  0  0  0  0
    1.8638   -1.8855   -0.5533 C   0  0  0  0  0  0  0  0  0  0  0  0
    3.2943   -1.4454   -0.8123 C   0  0  0  0  0  0  0  0  0  0  0  0
    3.9945   -1.0543    0.1037 O   0  0  0  0  0  0  0  0  0  0  0  0
    3.8321   -1.4128   -2.0668 N   0  0  0  0  0  0  0  0  0  0  0  0
    2.1789   -0.0002    1.1114 H   0  0  0  0  0  0  0  0  0  0  0  0
    0.8818   -0.1848   -1.4569 H   0  0  0  0  0  0  0  0  0  0  0  0
    1.8377   -2.4474    0.3848 H   0  0  0  0  0  0  0  0  0  0  0  0
    1.5457   -2.5630   -1.3507 H   0  0  0  0  0  0  0  0  0  0  0  0
    3.3376   -1.8457   -2.8402 H   0  0  0  0  0  0  0  0  0  0  0  0
    4.8252   -1.2092   -2.1368 H   0  0  0  0  0  0  0  0  0  0  0  0
   -0.8793   -1.5881    1.0717 N   0  0  0  0  0  0  0  0  0  0  0  0
   -2.1687   -2.1605    1.5086 C   0  0  2  0  0  0  0  0  0  0  0  0
   -2.4207   -3.6093    1.0338 C   0  0  0  0  0  0  0  0  0  0  0  0
   -2.6740   -4.4760    1.8599 O   0  0  0  0  0  0  0  0  0  0  0  0
   -3.3394   -1.2435    1.1278 C   0  0  0  0  0  0  0  0  0  0  0  0
   -0.1938   -1.3826    1.7917 H   0  0  0  0  0  0  0  0  0  0  0  0
   -2.1436   -2.2022    2.6025 H   0  0  0  0  0  0  0  0  0  0  0  0
   -3.5020   -1.2329    0.0459 H   0  0  0  0  0  0  0  0  0  0  0  0
   -4.2594   -1.5943    1.6058 H   0  0  0  0  0  0  0  0  0  0  0  0
   -3.1439   -0.2194    1.4597 H   0  0  0  0  0  0  0  0  0  0  0  0
   -2.3440   -3.9502   -0.3013 N   0  0  0  0  0  0  0  0  0  0  0  0
   -2.5444   -5.2984   -0.8120 C   0  0  0  0  0  0  0  0  0  0  0  0
   -2.1005   -3.1938   -0.9470 H   0  0  0  0  0  0  0  0  0  0  0  0
   -2.4196   -5.3121   -1.8988 H   0  0  0  0  0  0  0  0  0  0  0  0
   -1.8165   -5.9866   -0.3703 H   0  0  0  0  0  0  0  0  0  0  0  0
   -3.5533   -5.6512   -0.5745 H   0  0  0  0  0  0  0  0  0  0  0  0
  1  2  2  0  0  0  0
  1  3  1  0  0  0  0
  1  7  1  0  0  0  0
  3  4  1  0  0  0  0
  3  5  1  0  0  0  0
  3  6  1  0  0  0  0
  7  8  1  0  0  0  0
  7 12  1  0  0  0  0
  8  9  1  0  0  0  0
  8 11  1  0  0  0  0
  8 13  1  0  0  0  0
  9 10  2  0  0  0  0
  9 17  1  0  0  0  0
 11 14  1  0  0  0  0
 11 15  1  0  0  0  0
 11 16  1  0  0  0  0
 17 18  1  0  0  0  0
 17 25  1  0  0  0  0
 18 19  1  0  0  0  0
 18 21  1  0  0  0  0
 18 26  1  0  0  0  0
 19 20  2  0  0  0  0
 19 31  1  0  0  0  0
 21 22  1  0  0  0  0
 21 27  1  0  0  0  0
 21 28  1  0  0  0  0
 22 23  2  0  0  0  0
 22 24  1  0  0  0  0
 24 29  1  0  0  0  0
 24 30  1  0  0  0  0
 31 32  1  0  0  0  0
 31 36  1  0  0  0  0
 32 33  1  0  0  0  0
 32 35  1  0  0  0  0
 32 37  1  0  0  0  0
 33 34  2  0  0  0  0
 33 41  1  0  0  0  0
 35 38  1  0  0  0  0
 35 39  1  0  0  0  0
 35 40  1  0  0  0  0
 41 42  1  0  0  0  0
 41 43  1  0  0  0  0
 42 44  1  0  0  0  0
 42 45  1  0  0  0  0
 42 46  1  0  0  0  0
M  END
$$$$

  -OEChem-02062319053D

 46 45  0     1  0  0  0  0  0999 V2000
    0.7475    4.3999    3.1718 C   0  0  0  0  0  0  0  0  0  0  0  0
    1.6287    4.1522    3.9791 O   0  0  0  0  0  0  0  0  0  0  0  0
    0.1658    5.7981    3.0810 C   0  0  0  0  0  0  0  0  0  0  0  0
   -0.8994    5.7745    3.3233 H   0  0  0  0  0  0  0  0  0  0  0  0
    0.6730    6.4644    3.7846 H   0  0  0  0  0  0  0  0  0  0  0  0
    0.2937    6.1918    2.0698 H   0  0  0  0  0  0  0  0  0  0  0  0
    0.2810    3.4062    2.3376 N   0  0  0  0  0  0  0  0  0  0  0  0
    0.8610    2.0593    2.2486 C   0  0  2  0  0  0  0  0  0  0  0  0
    0.7379    1.4812    0.8235 C   0  0  0  0  0  0  0  0  0  0  0  0
   -0.0406    1.9851    0.0233 O   0  0  0  0  0  0  0  0  0  0  0  0
    0.1467    1.1600    3.2632 C   0  0  0  0  0  0  0  0  0  0  0  0
   -0.3695    3.6795    1.6014 H   0  0  0  0  0  0  0  0  0  0  0  0
    1.9287    2.0996    2.4913 H   0  0  0  0  0  0  0  0  0  0  0  0
   -0.9193    1.0844    3.0250 H   0  0  0  0  0  0  0  0  0  0  0  0
    0.5797    0.1553    3.2594 H   0  0  0  0  0  0  0  0  0  0  0  0
    0.2500    1.5724    4.2722 H   0  0  0  0  0  0  0  0  0  0  0  0
    1.3222    0.2694    0.5038 N   0  0  0  0  0  0  0  0  0  0  0  0
    1.0126   -0.5121   -0.7059 C   0  0  2  0  0  0  0  0  0  0  0  0
   -0.4646   -0.9371   -0.8155 C   0  0  0  0  0  0  0  0  0  0  0  0
   -0.9594   -1.0634   -1.9278 O   0  0  0  0  0  0  0  0  0  0  0  0
    1.9021   -1.7683   -0.7407 C   0  0  0  0  0  0  0  0  0  0  0  0
    3.3783   -1.4201   -0.6437 C   0  0  0  0  0  0  0  0  0  0  0  0
    3.8738   -1.1181    0.4273 O   0  0  0  0  0  0  0  0  0  0  0  0
    4.1899   -1.3647   -1.7403 N   0  0  0  0  0  0  0  0  0  0  0  0
    2.0891   -0.0511    1.1001 H   0  0  0  0  0  0  0  0  0  0  0  0
    1.2301    0.1072   -1.5844 H   0  0  0  0  0  0  0  0  0  0  0  0
    1.6471   -2.4338    0.0893 H   0  0  0  0  0  0  0  0  0  0  0  0
    1.7230   -2.3178   -1.6692 H   0  0  0  0  0  0  0  0  0  0  0  0
    3.8633   -1.7372   -2.6265 H   0  0  0  0  0  0  0  0  0  0  0  0
    5.1844   -1.2442   -1.5671 H   0  0  0  0  0  0  0  0  0  0  0  0
   -1.1076   -1.4518    0.2990 N   0  0  0  0  0  0  0  0  0  0  0  0
   -2.4722   -2.0125    0.3651 C   0  0  2  0  0  0  0  0  0  0  0  0
   -2.6366   -3.3752   -0.3453 C   0  0  0  0  0  0  0  0  0  0  0  0
   -3.0393   -4.3411    0.2895 O   0  0  0  0  0  0  0  0  0  0  0  0
   -3.5119   -0.9981   -0.1330 C   0  0  0  0  0  0  0  0  0  0  0  0
   -0.5982   -1.3578    1.1725 H   0  0  0  0  0  0  0  0  0  0  0  0
   -2.6908   -2.1961    1.4221 H   0  0  0  0  0  0  0  0  0  0  0  0
   -3.4261   -0.8359   -1.2113 H   0  0  0  0  0  0  0  0  0  0  0  0
   -4.5220   -1.3638    0.0762 H   0  0  0  0  0  0  0  0  0  0  0  0
   -3.3792   -0.0375    0.3737 H   0  0  0  0  0  0  0  0  0  0  0  0
   -2.3088   -3.5314   -1.6767 N   0  0  0  0  0  0  0  0  0  0  0  0
   -2.3795   -4.7959   -2.3945 C   0  0  0  0  0  0  0  0  0  0  0  0
   -1.9135   -2.7084   -2.1403 H   0  0  0  0  0  0  0  0  0  0  0  0
   -2.1380   -4.6430   -3.4509 H   0  0  0  0  0  0  0  0  0  0  0  0
   -1.6678   -5.5142   -1.9747 H   0  0  0  0  0  0  0  0  0  0  0  0
   -3.3879   -5.2176   -2.3291 H   0  0  0  0  0  0  0  0  0  0  0  0
  1  2  2  0  0  0  0
  1  3  1  0  0  0  0
  1  7  1  0  0  0  0
  3  4  1  0  0  0  0
  3  5  1  0  0  0  0
  3  6  1  0  0  0  0
  7  8  1  0  0  0  0
  7 12  1  0  0  0  0
  8  9  1  0  0  0  0
  8 11  1  0  0  0  0
  8 13  1  0  0  0  0
  9 10  2  0  0  0  0
  9 17  1  0  0  0  0
 11 14  1  0  0  0  0
 11 15  1  0  0  0  0
 11 16  1  0  0  0  0
 17 18  1  0  0  0  0
 17 25  1  0  0  0  0
 18 19  1  0  0  0  0
 18 21  1  0  0  0  0
 18 26  1  0  0  0  0
 19 20  2  0  0  0  0
 19 31  1  0  0  0  0
 21 22  1  0  0  0  0
 21 27  1  0  0  0  0
 21 28  1  0  0  0  0
 22 23  2  0  0  0  0
 22 24  1  0  0  0  0
 24 29  1  0  0  0  0
 24 30  1  0  0  0  0
 31 32  1  0  0  0  0
 31 36  1  0  0  0  0
 32 33  1  0  0  0  0
 32 35  1  0  0  0  0
 32 37  1  0  0  0  0
 33 34  2  0  0  0  0
 33 41  1  0  0  0  0
 35 38  1  0  0  0  0
 35 39  1  0  0  0  0
 35 40  1  0  0  0  0
 41 42  1  0  0  0  0
 41 43  1  0  0  0  0
 42 44  1  0  0  0  0
 42 45  1  0  0  0  0
 42 46  1  0  0  0  0
M  END
$$$$
