@<TRIPOS>MOLECULE
default_name
   24    23     1     0     0
SMALL
No Charge or Current Charge


@<TRIPOS>ATOM
      1 H1          25.9290    25.1730    24.5000 H          1 ACE       0.112300
      2 CH3         25.9910    26.1800    24.0920 C.3        1 ACE      -0.366200
      3 H2          25.3370    26.8470    24.6490 H          1 ACE       0.112300
      4 H3          25.7100    26.1710    23.0410 H          1 ACE       0.112300
      5 C           27.4140    26.6690    24.2150 C.2        1 ACE       0.597200
      6 O           28.2640    25.9470    24.7160 O.2        1 ACE      -0.567900
      7 N           27.6440    27.8970    23.7640 N.am       2 ASP      -0.516300
      8 H           26.8660    28.4410    23.4250 H          2 ASP       0.293600
      9 CA          28.9330    28.6030    23.7820 C.3        2 ASP       0.038100
     10 HA          29.5120    28.2670    24.6440 H          2 ASP       0.088000
     11 CB          29.7230    28.2540    22.5020 C.3        2 ASP      -0.030300
     12 HB2         29.7230    27.1700    22.3750 H          2 ASP      -0.012200
     13 HB3         29.2100    28.6900    21.6420 H          2 ASP      -0.012200
     14 CG          31.1870    28.7210    22.5090 C.2        2 ASP       0.799400
     15 OD1         31.6980    29.0740    23.5980 O.co2      2 ASP      -0.801400
     16 OD2         31.7820    28.7390    21.4100 O.co2      2 ASP      -0.801400
     17 C           28.6930    30.1240    23.9240 C.2        2 ASP       0.536600
     18 O           27.5610    30.5970    23.7680 O.2        2 ASP      -0.581900
     19 N           29.7400    30.8950    24.2340 N.am       3 NME      -0.415700
     20 H           30.6470    30.4250    24.2560 H          3 NME       0.271900
     21 CH3         29.7000    32.3450    24.3910 C.3        3 NME      -0.149000
     22 HH31        28.8290    32.6270    24.9840 H          3 NME       0.097600
     23 HH32        30.6080    32.6840    24.8890 H          3 NME       0.097600
     24 HH33        29.6290    32.8110    23.4080 H          3 NME       0.097600
@<TRIPOS>BOND
     1     5     6 2   
     2     5     7 am  
     3     2     3 1   
     4     2     4 1   
     5     2     5 1   
     6     1     2 1   
     7    17    18 2   
     8    17    19 am  
     9    14    15 1   
    10    14    16 1   
    11    11    12 1   
    12    11    13 1   
    13    11    14 1   
    14     9    10 1   
    15     9    11 1   
    16     9    17 1   
    17     7     8 1   
    18     7     9 1   
    19    21    22 1   
    20    21    23 1   
    21    21    24 1   
    22    19    20 1   
    23    19    21 1   
@<TRIPOS>SUBSTRUCTURE
     1 ACE         1 TEMP              0 ****  ****    0 ROOT
