default_name
  -OEChem-02102213163D

 30 30  0     1  0  0  0  0  0999 V2000
   -3.5507   -3.2183    1.8116 H   0  0  0  0  0  0  0  0  0  0  0  0
   -3.4597   -2.3913    1.1076 C   0  0  0  0  0  0  0  0  0  0  0  0
   -4.1577   -1.6043    1.3866 H   0  0  0  0  0  0  0  0  0  0  0  0
   -3.6807   -2.7523    0.1036 H   0  0  0  0  0  0  0  0  0  0  0  0
   -2.0477   -1.8543    1.1546 C   0  0  0  0  0  0  0  0  0  0  0  0
   -1.2227   -2.3443    1.9146 O   0  0  0  0  0  0  0  0  0  0  0  0
   -1.7517   -0.8483    0.3266 N   0  0  0  0  0  0  0  0  0  0  0  0
   -2.4847   -0.5123   -0.2804 H   0  0  0  0  0  0  0  0  0  0  0  0
   -0.4117   -0.2463    0.2186 C   0  0  1  0  0  0  0  0  0  0  0  0
    0.2987   -1.0391   -0.0285 H   0  0  0  0  0  0  0  0  0  0  0  0
   -0.4131    0.7505   -0.9636 C   0  0  0  0  0  0  0  0  0  0  0  0
   -0.6962    0.2128   -1.8721 H   0  0  0  0  0  0  0  0  0  0  0  0
   -1.1793    1.5085   -0.7878 H   0  0  0  0  0  0  0  0  0  0  0  0
    0.9021    1.4592   -1.2094 C   0  0  0  0  0  0  0  0  0  0  0  0
    1.1346    2.3879   -2.2053 N   0  3  0  0  0  0  0  0  0  0  0  0
    0.4066    2.7327   -2.8376 H   0  0  0  0  0  0  0  0  0  0  0  0
    2.4154    2.7978   -2.1144 C   0  0  0  0  0  0  0  0  0  0  0  0
    2.8867    3.5376   -2.7584 H   0  0  0  0  0  0  0  0  0  0  0  0
    3.0011    2.1484   -1.0830 N   0  0  0  0  0  0  0  0  0  0  0  0
    3.9642    2.2598   -0.7772 H   0  0  0  0  0  0  0  0  0  0  0  0
    2.0645    1.3035   -0.5037 C   0  0  0  0  0  0  0  0  0  0  0  0
    2.2146    0.6432    0.3459 H   0  0  0  0  0  0  0  0  0  0  0  0
    0.0470    0.3465    1.5629 C   0  0  0  0  0  0  0  0  0  0  0  0
    1.1854    0.1365    1.9846 O   0  0  0  0  0  0  0  0  0  0  0  0
   -0.8551    1.0750    2.2320 N   0  0  0  0  0  0  0  0  0  0  0  0
   -1.7594    1.2031    1.8040 H   0  0  0  0  0  0  0  0  0  0  0  0
   -0.6356    1.6998    3.5400 C   0  0  0  0  0  0  0  0  0  0  0  0
   -0.4284    2.7647    3.4168 H   0  0  0  0  0  0  0  0  0  0  0  0
   -1.5268    1.5885    4.1601 H   0  0  0  0  0  0  0  0  0  0  0  0
    0.2072    1.2358    4.0566 H   0  0  0  0  0  0  0  0  0  0  0  0
  5  6  2  0  0  0  0
  5  7  1  0  0  0  0
  2  3  1  0  0  0  0
  2  4  1  0  0  0  0
  2  5  1  0  0  0  0
  1  2  1  0  0  0  0
 23 24  2  0  0  0  0
 23 25  1  0  0  0  0
 21 22  1  0  0  0  0
 19 20  1  0  0  0  0
 19 21  1  0  0  0  0
 17 18  1  0  0  0  0
 17 19  1  0  0  0  0
 15 16  1  0  0  0  0
 15 17  2  0  0  0  0
 14 15  1  0  0  0  0
 14 21  2  0  0  0  0
 11 12  1  0  0  0  0
 11 13  1  0  0  0  0
 11 14  1  0  0  0  0
  9 10  1  0  0  0  0
  9 11  1  0  0  0  0
  9 23  1  0  0  0  0
  7  8  1  0  0  0  0
  7  9  1  0  0  0  0
 27 28  1  0  0  0  0
 27 29  1  0  0  0  0
 27 30  1  0  0  0  0
 25 26  1  0  0  0  0
 25 27  1  0  0  0  0
M  CHG  1  15   1
M  END
$$$$
default_name
  -OEChem-02102213163D

 30 30  0     1  0  0  0  0  0999 V2000
   -3.5507   -3.2183    1.8116 H   0  0  0  0  0  0  0  0  0  0  0  0
   -3.4597   -2.3913    1.1076 C   0  0  0  0  0  0  0  0  0  0  0  0
   -4.1577   -1.6043    1.3866 H   0  0  0  0  0  0  0  0  0  0  0  0
   -3.6807   -2.7523    0.1036 H   0  0  0  0  0  0  0  0  0  0  0  0
   -2.0477   -1.8543    1.1546 C   0  0  0  0  0  0  0  0  0  0  0  0
   -1.2227   -2.3443    1.9146 O   0  0  0  0  0  0  0  0  0  0  0  0
   -1.7517   -0.8483    0.3266 N   0  0  0  0  0  0  0  0  0  0  0  0
   -2.4847   -0.5123   -0.2804 H   0  0  0  0  0  0  0  0  0  0  0  0
   -0.4117   -0.2463    0.2186 C   0  0  1  0  0  0  0  0  0  0  0  0
    0.2987   -1.0391   -0.0285 H   0  0  0  0  0  0  0  0  0  0  0  0
   -0.4131    0.7505   -0.9636 C   0  0  0  0  0  0  0  0  0  0  0  0
   -0.6962    0.2128   -1.8721 H   0  0  0  0  0  0  0  0  0  0  0  0
   -1.1793    1.5085   -0.7878 H   0  0  0  0  0  0  0  0  0  0  0  0
    0.9021    1.4592   -1.2094 C   0  0  0  0  0  0  0  0  0  0  0  0
    1.0687    2.5831   -1.9952 N   0  3  0  0  0  0  0  0  0  0  0  0
    0.2924    3.0830   -2.4381 H   0  0  0  0  0  0  0  0  0  0  0  0
    2.3722    2.9254   -1.9775 C   0  0  0  0  0  0  0  0  0  0  0  0
    2.8060    3.7786   -2.4951 H   0  0  0  0  0  0  0  0  0  0  0  0
    3.0367    2.0423   -1.1984 N   0  0  0  0  0  0  0  0  0  0  0  0
    4.0336    2.0540   -0.9994 H   0  0  0  0  0  0  0  0  0  0  0  0
    2.1282    1.1145   -0.7081 C   0  0  0  0  0  0  0  0  0  0  0  0
    2.3390    0.2742   -0.0524 H   0  0  0  0  0  0  0  0  0  0  0  0
    0.0470    0.3465    1.5629 C   0  0  0  0  0  0  0  0  0  0  0  0
    1.1854    0.1365    1.9846 O   0  0  0  0  0  0  0  0  0  0  0  0
   -0.8551    1.0750    2.2320 N   0  0  0  0  0  0  0  0  0  0  0  0
   -1.7594    1.2031    1.8040 H   0  0  0  0  0  0  0  0  0  0  0  0
   -0.6356    1.6998    3.5400 C   0  0  0  0  0  0  0  0  0  0  0  0
   -0.4284    2.7647    3.4168 H   0  0  0  0  0  0  0  0  0  0  0  0
   -1.5268    1.5885    4.1601 H   0  0  0  0  0  0  0  0  0  0  0  0
    0.2072    1.2358    4.0566 H   0  0  0  0  0  0  0  0  0  0  0  0
  5  6  2  0  0  0  0
  5  7  1  0  0  0  0
  2  3  1  0  0  0  0
  2  4  1  0  0  0  0
  2  5  1  0  0  0  0
  1  2  1  0  0  0  0
 23 24  2  0  0  0  0
 23 25  1  0  0  0  0
 21 22  1  0  0  0  0
 19 20  1  0  0  0  0
 19 21  1  0  0  0  0
 17 18  1  0  0  0  0
 17 19  1  0  0  0  0
 15 16  1  0  0  0  0
 15 17  2  0  0  0  0
 14 15  1  0  0  0  0
 14 21  2  0  0  0  0
 11 12  1  0  0  0  0
 11 13  1  0  0  0  0
 11 14  1  0  0  0  0
  9 10  1  0  0  0  0
  9 11  1  0  0  0  0
  9 23  1  0  0  0  0
  7  8  1  0  0  0  0
  7  9  1  0  0  0  0
 27 28  1  0  0  0  0
 27 29  1  0  0  0  0
 27 30  1  0  0  0  0
 25 26  1  0  0  0  0
 25 27  1  0  0  0  0
M  CHG  1  15   1
M  END
$$$$
default_name
  -OEChem-02102213163D

 30 30  0     1  0  0  0  0  0999 V2000
   -3.5507   -3.2183    1.8116 H   0  0  0  0  0  0  0  0  0  0  0  0
   -3.4597   -2.3913    1.1076 C   0  0  0  0  0  0  0  0  0  0  0  0
   -4.1577   -1.6043    1.3866 H   0  0  0  0  0  0  0  0  0  0  0  0
   -3.6807   -2.7523    0.1036 H   0  0  0  0  0  0  0  0  0  0  0  0
   -2.0477   -1.8543    1.1546 C   0  0  0  0  0  0  0  0  0  0  0  0
   -1.2227   -2.3443    1.9146 O   0  0  0  0  0  0  0  0  0  0  0  0
   -1.7517   -0.8483    0.3266 N   0  0  0  0  0  0  0  0  0  0  0  0
   -2.4847   -0.5123   -0.2804 H   0  0  0  0  0  0  0  0  0  0  0  0
   -0.4117   -0.2463    0.2186 C   0  0  1  0  0  0  0  0  0  0  0  0
    0.2987   -1.0391   -0.0285 H   0  0  0  0  0  0  0  0  0  0  0  0
   -0.4131    0.7505   -0.9636 C   0  0  0  0  0  0  0  0  0  0  0  0
   -0.6962    0.2128   -1.8721 H   0  0  0  0  0  0  0  0  0  0  0  0
   -1.1793    1.5085   -0.7878 H   0  0  0  0  0  0  0  0  0  0  0  0
    0.9021    1.4592   -1.2094 C   0  0  0  0  0  0  0  0  0  0  0  0
    1.0387    2.7272   -1.7403 N   0  3  0  0  0  0  0  0  0  0  0  0
    0.2453    3.3364   -1.9597 H   0  0  0  0  0  0  0  0  0  0  0  0
    2.3525    3.0197   -1.8114 C   0  0  0  0  0  0  0  0  0  0  0  0
    2.7701    3.9557   -2.1768 H   0  0  0  0  0  0  0  0  0  0  0  0
    3.0527    1.9641   -1.3381 N   0  0  0  0  0  0  0  0  0  0  0  0
    4.0650    1.9022   -1.2686 H   0  0  0  0  0  0  0  0  0  0  0  0
    2.1570    0.9751   -0.9558 C   0  0  0  0  0  0  0  0  0  0  0  0
    2.3954    0.0022   -0.5351 H   0  0  0  0  0  0  0  0  0  0  0  0
    0.0470    0.3465    1.5629 C   0  0  0  0  0  0  0  0  0  0  0  0
    1.1854    0.1365    1.9846 O   0  0  0  0  0  0  0  0  0  0  0  0
   -0.8551    1.0750    2.2320 N   0  0  0  0  0  0  0  0  0  0  0  0
   -1.7594    1.2031    1.8040 H   0  0  0  0  0  0  0  0  0  0  0  0
   -0.6356    1.6998    3.5400 C   0  0  0  0  0  0  0  0  0  0  0  0
   -0.4284    2.7647    3.4168 H   0  0  0  0  0  0  0  0  0  0  0  0
   -1.5268    1.5885    4.1601 H   0  0  0  0  0  0  0  0  0  0  0  0
    0.2072    1.2358    4.0566 H   0  0  0  0  0  0  0  0  0  0  0  0
  5  6  2  0  0  0  0
  5  7  1  0  0  0  0
  2  3  1  0  0  0  0
  2  4  1  0  0  0  0
  2  5  1  0  0  0  0
  1  2  1  0  0  0  0
 23 24  2  0  0  0  0
 23 25  1  0  0  0  0
 21 22  1  0  0  0  0
 19 20  1  0  0  0  0
 19 21  1  0  0  0  0
 17 18  1  0  0  0  0
 17 19  1  0  0  0  0
 15 16  1  0  0  0  0
 15 17  2  0  0  0  0
 14 15  1  0  0  0  0
 14 21  2  0  0  0  0
 11 12  1  0  0  0  0
 11 13  1  0  0  0  0
 11 14  1  0  0  0  0
  9 10  1  0  0  0  0
  9 11  1  0  0  0  0
  9 23  1  0  0  0  0
  7  8  1  0  0  0  0
  7  9  1  0  0  0  0
 27 28  1  0  0  0  0
 27 29  1  0  0  0  0
 27 30  1  0  0  0  0
 25 26  1  0  0  0  0
 25 27  1  0  0  0  0
M  CHG  1  15   1
M  END
$$$$
default_name
  -OEChem-02102213163D

 30 30  0     1  0  0  0  0  0999 V2000
   -3.5507   -3.2183    1.8116 H   0  0  0  0  0  0  0  0  0  0  0  0
   -3.4597   -2.3913    1.1076 C   0  0  0  0  0  0  0  0  0  0  0  0
   -4.1577   -1.6043    1.3866 H   0  0  0  0  0  0  0  0  0  0  0  0
   -3.6807   -2.7523    0.1036 H   0  0  0  0  0  0  0  0  0  0  0  0
   -2.0477   -1.8543    1.1546 C   0  0  0  0  0  0  0  0  0  0  0  0
   -1.2227   -2.3443    1.9146 O   0  0  0  0  0  0  0  0  0  0  0  0
   -1.7517   -0.8483    0.3266 N   0  0  0  0  0  0  0  0  0  0  0  0
   -2.4847   -0.5123   -0.2804 H   0  0  0  0  0  0  0  0  0  0  0  0
   -0.4117   -0.2463    0.2186 C   0  0  1  0  0  0  0  0  0  0  0  0
    0.2987   -1.0391   -0.0285 H   0  0  0  0  0  0  0  0  0  0  0  0
   -0.4131    0.7505   -0.9636 C   0  0  0  0  0  0  0  0  0  0  0  0
   -0.6962    0.2128   -1.8721 H   0  0  0  0  0  0  0  0  0  0  0  0
   -1.1793    1.5085   -0.7878 H   0  0  0  0  0  0  0  0  0  0  0  0
    0.9021    1.4592   -1.2094 C   0  0  0  0  0  0  0  0  0  0  0  0
    1.0466    2.8104   -1.4581 N   0  3  0  0  0  0  0  0  0  0  0  0
    0.2684    3.4756   -1.4349 H   0  0  0  0  0  0  0  0  0  0  0  0
    2.3575    3.0742   -1.6273 C   0  0  0  0  0  0  0  0  0  0  0  0
    2.7814    4.0567   -1.8252 H   0  0  0  0  0  0  0  0  0  0  0  0
    3.0479    1.9194   -1.4925 N   0  0  0  0  0  0  0  0  0  0  0  0
    4.0564    1.8148   -1.5666 H   0  0  0  0  0  0  0  0  0  0  0  0
    2.1490    0.8950   -1.2299 C   0  0  0  0  0  0  0  0  0  0  0  0
    2.3800   -0.1544   -1.0693 H   0  0  0  0  0  0  0  0  0  0  0  0
    0.0470    0.3465    1.5629 C   0  0  0  0  0  0  0  0  0  0  0  0
    1.1854    0.1365    1.9846 O   0  0  0  0  0  0  0  0  0  0  0  0
   -0.8551    1.0750    2.2320 N   0  0  0  0  0  0  0  0  0  0  0  0
   -1.7594    1.2031    1.8040 H   0  0  0  0  0  0  0  0  0  0  0  0
   -0.6356    1.6998    3.5400 C   0  0  0  0  0  0  0  0  0  0  0  0
   -0.4284    2.7647    3.4168 H   0  0  0  0  0  0  0  0  0  0  0  0
   -1.5268    1.5885    4.1601 H   0  0  0  0  0  0  0  0  0  0  0  0
    0.2072    1.2358    4.0566 H   0  0  0  0  0  0  0  0  0  0  0  0
  5  6  2  0  0  0  0
  5  7  1  0  0  0  0
  2  3  1  0  0  0  0
  2  4  1  0  0  0  0
  2  5  1  0  0  0  0
  1  2  1  0  0  0  0
 23 24  2  0  0  0  0
 23 25  1  0  0  0  0
 21 22  1  0  0  0  0
 19 20  1  0  0  0  0
 19 21  1  0  0  0  0
 17 18  1  0  0  0  0
 17 19  1  0  0  0  0
 15 16  1  0  0  0  0
 15 17  2  0  0  0  0
 14 15  1  0  0  0  0
 14 21  2  0  0  0  0
 11 12  1  0  0  0  0
 11 13  1  0  0  0  0
 11 14  1  0  0  0  0
  9 10  1  0  0  0  0
  9 11  1  0  0  0  0
  9 23  1  0  0  0  0
  7  8  1  0  0  0  0
  7  9  1  0  0  0  0
 27 28  1  0  0  0  0
 27 29  1  0  0  0  0
 27 30  1  0  0  0  0
 25 26  1  0  0  0  0
 25 27  1  0  0  0  0
M  CHG  1  15   1
M  END
$$$$
default_name
  -OEChem-02102213163D

 30 30  0     1  0  0  0  0  0999 V2000
   -3.5507   -3.2183    1.8116 H   0  0  0  0  0  0  0  0  0  0  0  0
   -3.4597   -2.3913    1.1076 C   0  0  0  0  0  0  0  0  0  0  0  0
   -4.1577   -1.6043    1.3866 H   0  0  0  0  0  0  0  0  0  0  0  0
   -3.6807   -2.7523    0.1036 H   0  0  0  0  0  0  0  0  0  0  0  0
   -2.0477   -1.8543    1.1546 C   0  0  0  0  0  0  0  0  0  0  0  0
   -1.2227   -2.3443    1.9146 O   0  0  0  0  0  0  0  0  0  0  0  0
   -1.7517   -0.8483    0.3266 N   0  0  0  0  0  0  0  0  0  0  0  0
   -2.4847   -0.5123   -0.2804 H   0  0  0  0  0  0  0  0  0  0  0  0
   -0.4117   -0.2463    0.2186 C   0  0  1  0  0  0  0  0  0  0  0  0
    0.2987   -1.0391   -0.0285 H   0  0  0  0  0  0  0  0  0  0  0  0
   -0.4131    0.7505   -0.9636 C   0  0  0  0  0  0  0  0  0  0  0  0
   -0.6962    0.2128   -1.8721 H   0  0  0  0  0  0  0  0  0  0  0  0
   -1.1793    1.5085   -0.7878 H   0  0  0  0  0  0  0  0  0  0  0  0
    0.9021    1.4592   -1.2094 C   0  0  0  0  0  0  0  0  0  0  0  0
    1.0920    2.8269   -1.1678 N   0  3  0  0  0  0  0  0  0  0  0  0
    0.3601    3.4911   -0.8995 H   0  0  0  0  0  0  0  0  0  0  0  0
    2.3869    3.0853   -1.4379 C   0  0  0  0  0  0  0  0  0  0  0  0
    2.8391    4.0747   -1.4643 H   0  0  0  0  0  0  0  0  0  0  0  0
    3.0228    1.9111   -1.6511 N   0  0  0  0  0  0  0  0  0  0  0  0
    4.0084    1.7978   -1.8730 H   0  0  0  0  0  0  0  0  0  0  0  0
    2.1046    0.8796   -1.5116 C   0  0  0  0  0  0  0  0  0  0  0  0
    2.2938   -0.1850   -1.6187 H   0  0  0  0  0  0  0  0  0  0  0  0
    0.0470    0.3465    1.5629 C   0  0  0  0  0  0  0  0  0  0  0  0
    1.1854    0.1365    1.9846 O   0  0  0  0  0  0  0  0  0  0  0  0
   -0.8551    1.0750    2.2320 N   0  0  0  0  0  0  0  0  0  0  0  0
   -1.7594    1.2031    1.8040 H   0  0  0  0  0  0  0  0  0  0  0  0
   -0.6356    1.6998    3.5400 C   0  0  0  0  0  0  0  0  0  0  0  0
   -0.4284    2.7647    3.4168 H   0  0  0  0  0  0  0  0  0  0  0  0
   -1.5268    1.5885    4.1601 H   0  0  0  0  0  0  0  0  0  0  0  0
    0.2072    1.2358    4.0566 H   0  0  0  0  0  0  0  0  0  0  0  0
  5  6  2  0  0  0  0
  5  7  1  0  0  0  0
  2  3  1  0  0  0  0
  2  4  1  0  0  0  0
  2  5  1  0  0  0  0
  1  2  1  0  0  0  0
 23 24  2  0  0  0  0
 23 25  1  0  0  0  0
 21 22  1  0  0  0  0
 19 20  1  0  0  0  0
 19 21  1  0  0  0  0
 17 18  1  0  0  0  0
 17 19  1  0  0  0  0
 15 16  1  0  0  0  0
 15 17  2  0  0  0  0
 14 15  1  0  0  0  0
 14 21  2  0  0  0  0
 11 12  1  0  0  0  0
 11 13  1  0  0  0  0
 11 14  1  0  0  0  0
  9 10  1  0  0  0  0
  9 11  1  0  0  0  0
  9 23  1  0  0  0  0
  7  8  1  0  0  0  0
  7  9  1  0  0  0  0
 27 28  1  0  0  0  0
 27 29  1  0  0  0  0
 27 30  1  0  0  0  0
 25 26  1  0  0  0  0
 25 27  1  0  0  0  0
M  CHG  1  15   1
M  END
$$$$
default_name
  -OEChem-02102213163D

 30 30  0     1  0  0  0  0  0999 V2000
   -3.5507   -3.2183    1.8116 H   0  0  0  0  0  0  0  0  0  0  0  0
   -3.4597   -2.3913    1.1076 C   0  0  0  0  0  0  0  0  0  0  0  0
   -4.1577   -1.6043    1.3866 H   0  0  0  0  0  0  0  0  0  0  0  0
   -3.6807   -2.7523    0.1036 H   0  0  0  0  0  0  0  0  0  0  0  0
   -2.0477   -1.8543    1.1546 C   0  0  0  0  0  0  0  0  0  0  0  0
   -1.2227   -2.3443    1.9146 O   0  0  0  0  0  0  0  0  0  0  0  0
   -1.7517   -0.8483    0.3266 N   0  0  0  0  0  0  0  0  0  0  0  0
   -2.4847   -0.5123   -0.2804 H   0  0  0  0  0  0  0  0  0  0  0  0
   -0.4117   -0.2463    0.2186 C   0  0  1  0  0  0  0  0  0  0  0  0
    0.2987   -1.0391   -0.0285 H   0  0  0  0  0  0  0  0  0  0  0  0
   -0.4131    0.7505   -0.9636 C   0  0  0  0  0  0  0  0  0  0  0  0
   -0.6962    0.2128   -1.8721 H   0  0  0  0  0  0  0  0  0  0  0  0
   -1.1793    1.5085   -0.7878 H   0  0  0  0  0  0  0  0  0  0  0  0
    0.9021    1.4592   -1.2094 C   0  0  0  0  0  0  0  0  0  0  0  0
    1.1716    2.7757   -0.8891 N   0  3  0  0  0  0  0  0  0  0  0  0
    0.5142    3.3818   -0.3900 H   0  0  0  0  0  0  0  0  0  0  0  0
    2.4388    3.0522   -1.2560 C   0  0  0  0  0  0  0  0  0  0  0  0
    2.9394    4.0085   -1.1185 H   0  0  0  0  0  0  0  0  0  0  0  0
    2.9789    1.9399   -1.8031 N   0  0  0  0  0  0  0  0  0  0  0  0
    3.9241    1.8522   -2.1670 H   0  0  0  0  0  0  0  0  0  0  0  0
    2.0270    0.9299   -1.7819 C   0  0  0  0  0  0  0  0  0  0  0  0
    2.1426   -0.0873   -2.1458 H   0  0  0  0  0  0  0  0  0  0  0  0
    0.0470    0.3465    1.5629 C   0  0  0  0  0  0  0  0  0  0  0  0
    1.1854    0.1365    1.9846 O   0  0  0  0  0  0  0  0  0  0  0  0
   -0.8551    1.0750    2.2320 N   0  0  0  0  0  0  0  0  0  0  0  0
   -1.7594    1.2031    1.8040 H   0  0  0  0  0  0  0  0  0  0  0  0
   -0.6356    1.6998    3.5400 C   0  0  0  0  0  0  0  0  0  0  0  0
   -0.4284    2.7647    3.4168 H   0  0  0  0  0  0  0  0  0  0  0  0
   -1.5268    1.5885    4.1601 H   0  0  0  0  0  0  0  0  0  0  0  0
    0.2072    1.2358    4.0566 H   0  0  0  0  0  0  0  0  0  0  0  0
  5  6  2  0  0  0  0
  5  7  1  0  0  0  0
  2  3  1  0  0  0  0
  2  4  1  0  0  0  0
  2  5  1  0  0  0  0
  1  2  1  0  0  0  0
 23 24  2  0  0  0  0
 23 25  1  0  0  0  0
 21 22  1  0  0  0  0
 19 20  1  0  0  0  0
 19 21  1  0  0  0  0
 17 18  1  0  0  0  0
 17 19  1  0  0  0  0
 15 16  1  0  0  0  0
 15 17  2  0  0  0  0
 14 15  1  0  0  0  0
 14 21  2  0  0  0  0
 11 12  1  0  0  0  0
 11 13  1  0  0  0  0
 11 14  1  0  0  0  0
  9 10  1  0  0  0  0
  9 11  1  0  0  0  0
  9 23  1  0  0  0  0
  7  8  1  0  0  0  0
  7  9  1  0  0  0  0
 27 28  1  0  0  0  0
 27 29  1  0  0  0  0
 27 30  1  0  0  0  0
 25 26  1  0  0  0  0
 25 27  1  0  0  0  0
M  CHG  1  15   1
M  END
$$$$
default_name
  -OEChem-02102213163D

 30 30  0     1  0  0  0  0  0999 V2000
   -3.5507   -3.2183    1.8116 H   0  0  0  0  0  0  0  0  0  0  0  0
   -3.4597   -2.3913    1.1076 C   0  0  0  0  0  0  0  0  0  0  0  0
   -4.1577   -1.6043    1.3866 H   0  0  0  0  0  0  0  0  0  0  0  0
   -3.6807   -2.7523    0.1036 H   0  0  0  0  0  0  0  0  0  0  0  0
   -2.0477   -1.8543    1.1546 C   0  0  0  0  0  0  0  0  0  0  0  0
   -1.2227   -2.3443    1.9146 O   0  0  0  0  0  0  0  0  0  0  0  0
   -1.7517   -0.8483    0.3266 N   0  0  0  0  0  0  0  0  0  0  0  0
   -2.4847   -0.5123   -0.2804 H   0  0  0  0  0  0  0  0  0  0  0  0
   -0.4117   -0.2463    0.2186 C   0  0  1  0  0  0  0  0  0  0  0  0
    0.2987   -1.0391   -0.0285 H   0  0  0  0  0  0  0  0  0  0  0  0
   -0.4131    0.7505   -0.9636 C   0  0  0  0  0  0  0  0  0  0  0  0
   -0.6962    0.2128   -1.8721 H   0  0  0  0  0  0  0  0  0  0  0  0
   -1.1793    1.5085   -0.7878 H   0  0  0  0  0  0  0  0  0  0  0  0
    0.9021    1.4592   -1.2094 C   0  0  0  0  0  0  0  0  0  0  0  0
    1.2802    2.6603   -0.6411 N   0  3  0  0  0  0  0  0  0  0  0  0
    0.7202    3.1552    0.0590 H   0  0  0  0  0  0  0  0  0  0  0  0
    2.5095    2.9771   -1.0940 C   0  0  0  0  0  0  0  0  0  0  0  0
    3.0753    3.8626   -0.8116 H   0  0  0  0  0  0  0  0  0  0  0  0
    2.9193    2.0036   -1.9382 N   0  0  0  0  0  0  0  0  0  0  0  0
    3.8094    1.9744   -2.4286 H   0  0  0  0  0  0  0  0  0  0  0  0
    1.9215    1.0425   -2.0222 C   0  0  0  0  0  0  0  0  0  0  0  0
    1.9369    0.1318   -2.6147 H   0  0  0  0  0  0  0  0  0  0  0  0
    0.0470    0.3465    1.5629 C   0  0  0  0  0  0  0  0  0  0  0  0
    1.1854    0.1365    1.9846 O   0  0  0  0  0  0  0  0  0  0  0  0
   -0.8551    1.0750    2.2320 N   0  0  0  0  0  0  0  0  0  0  0  0
   -1.7594    1.2031    1.8040 H   0  0  0  0  0  0  0  0  0  0  0  0
   -0.6356    1.6998    3.5400 C   0  0  0  0  0  0  0  0  0  0  0  0
   -0.4284    2.7647    3.4168 H   0  0  0  0  0  0  0  0  0  0  0  0
   -1.5268    1.5885    4.1601 H   0  0  0  0  0  0  0  0  0  0  0  0
    0.2072    1.2358    4.0566 H   0  0  0  0  0  0  0  0  0  0  0  0
  5  6  2  0  0  0  0
  5  7  1  0  0  0  0
  2  3  1  0  0  0  0
  2  4  1  0  0  0  0
  2  5  1  0  0  0  0
  1  2  1  0  0  0  0
 23 24  2  0  0  0  0
 23 25  1  0  0  0  0
 21 22  1  0  0  0  0
 19 20  1  0  0  0  0
 19 21  1  0  0  0  0
 17 18  1  0  0  0  0
 17 19  1  0  0  0  0
 15 16  1  0  0  0  0
 15 17  2  0  0  0  0
 14 15  1  0  0  0  0
 14 21  2  0  0  0  0
 11 12  1  0  0  0  0
 11 13  1  0  0  0  0
 11 14  1  0  0  0  0
  9 10  1  0  0  0  0
  9 11  1  0  0  0  0
  9 23  1  0  0  0  0
  7  8  1  0  0  0  0
  7  9  1  0  0  0  0
 27 28  1  0  0  0  0
 27 29  1  0  0  0  0
 27 30  1  0  0  0  0
 25 26  1  0  0  0  0
 25 27  1  0  0  0  0
M  CHG  1  15   1
M  END
$$$$
default_name
  -OEChem-02102213163D

 30 30  0     1  0  0  0  0  0999 V2000
   -3.5507   -3.2183    1.8116 H   0  0  0  0  0  0  0  0  0  0  0  0
   -3.4597   -2.3913    1.1076 C   0  0  0  0  0  0  0  0  0  0  0  0
   -4.1577   -1.6043    1.3866 H   0  0  0  0  0  0  0  0  0  0  0  0
   -3.6807   -2.7523    0.1036 H   0  0  0  0  0  0  0  0  0  0  0  0
   -2.0477   -1.8543    1.1546 C   0  0  0  0  0  0  0  0  0  0  0  0
   -1.2227   -2.3443    1.9146 O   0  0  0  0  0  0  0  0  0  0  0  0
   -1.7517   -0.8483    0.3266 N   0  0  0  0  0  0  0  0  0  0  0  0
   -2.4847   -0.5123   -0.2804 H   0  0  0  0  0  0  0  0  0  0  0  0
   -0.4117   -0.2463    0.2186 C   0  0  1  0  0  0  0  0  0  0  0  0
    0.2987   -1.0391   -0.0285 H   0  0  0  0  0  0  0  0  0  0  0  0
   -0.4131    0.7505   -0.9636 C   0  0  0  0  0  0  0  0  0  0  0  0
   -0.6962    0.2128   -1.8721 H   0  0  0  0  0  0  0  0  0  0  0  0
   -1.1793    1.5085   -0.7878 H   0  0  0  0  0  0  0  0  0  0  0  0
    0.9021    1.4592   -1.2094 C   0  0  0  0  0  0  0  0  0  0  0  0
    1.4102    2.4884   -0.4407 N   0  3  0  0  0  0  0  0  0  0  0  0
    0.9640    2.8268    0.4167 H   0  0  0  0  0  0  0  0  0  0  0  0
    2.5943    2.8652   -0.9629 C   0  0  0  0  0  0  0  0  0  0  0  0
    3.2377    3.6471   -0.5644 H   0  0  0  0  0  0  0  0  0  0  0  0
    2.8480    2.0981   -2.0471 N   0  0  0  0  0  0  0  0  0  0  0  0
    3.6720    2.1561   -2.6398 H   0  0  0  0  0  0  0  0  0  0  0  0
    1.7951    1.2097   -2.2163 C   0  0  0  0  0  0  0  0  0  0  0  0
    1.6906    0.4576   -2.9934 H   0  0  0  0  0  0  0  0  0  0  0  0
    0.0470    0.3465    1.5629 C   0  0  0  0  0  0  0  0  0  0  0  0
    1.1854    0.1365    1.9846 O   0  0  0  0  0  0  0  0  0  0  0  0
   -0.8551    1.0750    2.2320 N   0  0  0  0  0  0  0  0  0  0  0  0
   -1.7594    1.2031    1.8040 H   0  0  0  0  0  0  0  0  0  0  0  0
   -0.6356    1.6998    3.5400 C   0  0  0  0  0  0  0  0  0  0  0  0
   -0.4284    2.7647    3.4168 H   0  0  0  0  0  0  0  0  0  0  0  0
   -1.5268    1.5885    4.1601 H   0  0  0  0  0  0  0  0  0  0  0  0
    0.2072    1.2358    4.0566 H   0  0  0  0  0  0  0  0  0  0  0  0
  5  6  2  0  0  0  0
  5  7  1  0  0  0  0
  2  3  1  0  0  0  0
  2  4  1  0  0  0  0
  2  5  1  0  0  0  0
  1  2  1  0  0  0  0
 23 24  2  0  0  0  0
 23 25  1  0  0  0  0
 21 22  1  0  0  0  0
 19 20  1  0  0  0  0
 19 21  1  0  0  0  0
 17 18  1  0  0  0  0
 17 19  1  0  0  0  0
 15 16  1  0  0  0  0
 15 17  2  0  0  0  0
 14 15  1  0  0  0  0
 14 21  2  0  0  0  0
 11 12  1  0  0  0  0
 11 13  1  0  0  0  0
 11 14  1  0  0  0  0
  9 10  1  0  0  0  0
  9 11  1  0  0  0  0
  9 23  1  0  0  0  0
  7  8  1  0  0  0  0
  7  9  1  0  0  0  0
 27 28  1  0  0  0  0
 27 29  1  0  0  0  0
 27 30  1  0  0  0  0
 25 26  1  0  0  0  0
 25 27  1  0  0  0  0
M  CHG  1  15   1
M  END
$$$$
default_name
  -OEChem-02102213163D

 30 30  0     1  0  0  0  0  0999 V2000
   -3.5507   -3.2183    1.8116 H   0  0  0  0  0  0  0  0  0  0  0  0
   -3.4597   -2.3913    1.1076 C   0  0  0  0  0  0  0  0  0  0  0  0
   -4.1577   -1.6043    1.3866 H   0  0  0  0  0  0  0  0  0  0  0  0
   -3.6807   -2.7523    0.1036 H   0  0  0  0  0  0  0  0  0  0  0  0
   -2.0477   -1.8543    1.1546 C   0  0  0  0  0  0  0  0  0  0  0  0
   -1.2227   -2.3443    1.9146 O   0  0  0  0  0  0  0  0  0  0  0  0
   -1.7517   -0.8483    0.3266 N   0  0  0  0  0  0  0  0  0  0  0  0
   -2.4847   -0.5123   -0.2804 H   0  0  0  0  0  0  0  0  0  0  0  0
   -0.4117   -0.2463    0.2186 C   0  0  1  0  0  0  0  0  0  0  0  0
    0.2987   -1.0391   -0.0285 H   0  0  0  0  0  0  0  0  0  0  0  0
   -0.4131    0.7505   -0.9636 C   0  0  0  0  0  0  0  0  0  0  0  0
   -0.6962    0.2128   -1.8721 H   0  0  0  0  0  0  0  0  0  0  0  0
   -1.1793    1.5085   -0.7878 H   0  0  0  0  0  0  0  0  0  0  0  0
    0.9021    1.4592   -1.2094 C   0  0  0  0  0  0  0  0  0  0  0  0
    1.5529    2.2719   -0.3015 N   0  3  0  0  0  0  0  0  0  0  0  0
    1.2291    2.4189    0.6589 H   0  0  0  0  0  0  0  0  0  0  0  0
    2.6874    2.7241   -0.8718 C   0  0  0  0  0  0  0  0  0  0  0  0
    3.4154    3.3764   -0.3938 H   0  0  0  0  0  0  0  0  0  0  0  0
    2.7700    2.2168   -2.1225 N   0  0  0  0  0  0  0  0  0  0  0  0
    3.5213    2.3849   -2.7864 H   0  0  0  0  0  0  0  0  0  0  0  0
    1.6565    1.4202   -2.3508 C   0  0  0  0  0  0  0  0  0  0  0  0
    1.4205    0.8677   -3.2561 H   0  0  0  0  0  0  0  0  0  0  0  0
    0.0470    0.3465    1.5629 C   0  0  0  0  0  0  0  0  0  0  0  0
    1.1854    0.1365    1.9846 O   0  0  0  0  0  0  0  0  0  0  0  0
   -0.8551    1.0750    2.2320 N   0  0  0  0  0  0  0  0  0  0  0  0
   -1.7594    1.2031    1.8040 H   0  0  0  0  0  0  0  0  0  0  0  0
   -0.6356    1.6998    3.5400 C   0  0  0  0  0  0  0  0  0  0  0  0
   -0.4284    2.7647    3.4168 H   0  0  0  0  0  0  0  0  0  0  0  0
   -1.5268    1.5885    4.1601 H   0  0  0  0  0  0  0  0  0  0  0  0
    0.2072    1.2358    4.0566 H   0  0  0  0  0  0  0  0  0  0  0  0
  5  6  2  0  0  0  0
  5  7  1  0  0  0  0
  2  3  1  0  0  0  0
  2  4  1  0  0  0  0
  2  5  1  0  0  0  0
  1  2  1  0  0  0  0
 23 24  2  0  0  0  0
 23 25  1  0  0  0  0
 21 22  1  0  0  0  0
 19 20  1  0  0  0  0
 19 21  1  0  0  0  0
 17 18  1  0  0  0  0
 17 19  1  0  0  0  0
 15 16  1  0  0  0  0
 15 17  2  0  0  0  0
 14 15  1  0  0  0  0
 14 21  2  0  0  0  0
 11 12  1  0  0  0  0
 11 13  1  0  0  0  0
 11 14  1  0  0  0  0
  9 10  1  0  0  0  0
  9 11  1  0  0  0  0
  9 23  1  0  0  0  0
  7  8  1  0  0  0  0
  7  9  1  0  0  0  0
 27 28  1  0  0  0  0
 27 29  1  0  0  0  0
 27 30  1  0  0  0  0
 25 26  1  0  0  0  0
 25 27  1  0  0  0  0
M  CHG  1  15   1
M  END
$$$$
default_name
  -OEChem-02102213163D

 30 30  0     1  0  0  0  0  0999 V2000
   -3.5507   -3.2183    1.8116 H   0  0  0  0  0  0  0  0  0  0  0  0
   -3.4597   -2.3913    1.1076 C   0  0  0  0  0  0  0  0  0  0  0  0
   -4.1577   -1.6043    1.3866 H   0  0  0  0  0  0  0  0  0  0  0  0
   -3.6807   -2.7523    0.1036 H   0  0  0  0  0  0  0  0  0  0  0  0
   -2.0477   -1.8543    1.1546 C   0  0  0  0  0  0  0  0  0  0  0  0
   -1.2227   -2.3443    1.9146 O   0  0  0  0  0  0  0  0  0  0  0  0
   -1.7517   -0.8483    0.3266 N   0  0  0  0  0  0  0  0  0  0  0  0
   -2.4847   -0.5123   -0.2804 H   0  0  0  0  0  0  0  0  0  0  0  0
   -0.4117   -0.2463    0.2186 C   0  0  1  0  0  0  0  0  0  0  0  0
    0.2987   -1.0391   -0.0285 H   0  0  0  0  0  0  0  0  0  0  0  0
   -0.4131    0.7505   -0.9636 C   0  0  0  0  0  0  0  0  0  0  0  0
   -0.6962    0.2128   -1.8721 H   0  0  0  0  0  0  0  0  0  0  0  0
   -1.1793    1.5085   -0.7878 H   0  0  0  0  0  0  0  0  0  0  0  0
    0.9021    1.4592   -1.2094 C   0  0  0  0  0  0  0  0  0  0  0  0
    1.6985    2.0255   -0.2330 N   0  3  0  0  0  0  0  0  0  0  0  0
    1.4974    1.9592    0.7690 H   0  0  0  0  0  0  0  0  0  0  0  0
    2.7824    2.5634   -0.8267 C   0  0  0  0  0  0  0  0  0  0  0  0
    3.5964    3.0692   -0.3114 H   0  0  0  0  0  0  0  0  0  0  0  0
    2.6904    2.3517   -2.1591 N   0  0  0  0  0  0  0  0  0  0  0  0
    3.3676    2.6451   -2.8582 H   0  0  0  0  0  0  0  0  0  0  0  0
    1.5152    1.6595   -2.4166 C   0  0  0  0  0  0  0  0  0  0  0  0
    1.1450    1.3343   -3.3849 H   0  0  0  0  0  0  0  0  0  0  0  0
    0.0470    0.3465    1.5629 C   0  0  0  0  0  0  0  0  0  0  0  0
    1.1854    0.1365    1.9846 O   0  0  0  0  0  0  0  0  0  0  0  0
   -0.8551    1.0750    2.2320 N   0  0  0  0  0  0  0  0  0  0  0  0
   -1.7594    1.2031    1.8040 H   0  0  0  0  0  0  0  0  0  0  0  0
   -0.6356    1.6998    3.5400 C   0  0  0  0  0  0  0  0  0  0  0  0
   -0.4284    2.7647    3.4168 H   0  0  0  0  0  0  0  0  0  0  0  0
   -1.5268    1.5885    4.1601 H   0  0  0  0  0  0  0  0  0  0  0  0
    0.2072    1.2358    4.0566 H   0  0  0  0  0  0  0  0  0  0  0  0
  5  6  2  0  0  0  0
  5  7  1  0  0  0  0
  2  3  1  0  0  0  0
  2  4  1  0  0  0  0
  2  5  1  0  0  0  0
  1  2  1  0  0  0  0
 23 24  2  0  0  0  0
 23 25  1  0  0  0  0
 21 22  1  0  0  0  0
 19 20  1  0  0  0  0
 19 21  1  0  0  0  0
 17 18  1  0  0  0  0
 17 19  1  0  0  0  0
 15 16  1  0  0  0  0
 15 17  2  0  0  0  0
 14 15  1  0  0  0  0
 14 21  2  0  0  0  0
 11 12  1  0  0  0  0
 11 13  1  0  0  0  0
 11 14  1  0  0  0  0
  9 10  1  0  0  0  0
  9 11  1  0  0  0  0
  9 23  1  0  0  0  0
  7  8  1  0  0  0  0
  7  9  1  0  0  0  0
 27 28  1  0  0  0  0
 27 29  1  0  0  0  0
 27 30  1  0  0  0  0
 25 26  1  0  0  0  0
 25 27  1  0  0  0  0
M  CHG  1  15   1
M  END
$$$$
default_name
  -OEChem-02102213163D

 30 30  0     1  0  0  0  0  0999 V2000
   -3.5507   -3.2183    1.8116 H   0  0  0  0  0  0  0  0  0  0  0  0
   -3.4597   -2.3913    1.1076 C   0  0  0  0  0  0  0  0  0  0  0  0
   -4.1577   -1.6043    1.3866 H   0  0  0  0  0  0  0  0  0  0  0  0
   -3.6807   -2.7523    0.1036 H   0  0  0  0  0  0  0  0  0  0  0  0
   -2.0477   -1.8543    1.1546 C   0  0  0  0  0  0  0  0  0  0  0  0
   -1.2227   -2.3443    1.9146 O   0  0  0  0  0  0  0  0  0  0  0  0
   -1.7517   -0.8483    0.3266 N   0  0  0  0  0  0  0  0  0  0  0  0
   -2.4847   -0.5123   -0.2804 H   0  0  0  0  0  0  0  0  0  0  0  0
   -0.4117   -0.2463    0.2186 C   0  0  1  0  0  0  0  0  0  0  0  0
    0.2987   -1.0391   -0.0285 H   0  0  0  0  0  0  0  0  0  0  0  0
   -0.4131    0.7505   -0.9636 C   0  0  0  0  0  0  0  0  0  0  0  0
   -0.6962    0.2128   -1.8721 H   0  0  0  0  0  0  0  0  0  0  0  0
   -1.1793    1.5085   -0.7878 H   0  0  0  0  0  0  0  0  0  0  0  0
    0.9021    1.4592   -1.2094 C   0  0  0  0  0  0  0  0  0  0  0  0
    1.8371    1.7660   -0.2398 N   0  3  0  0  0  0  0  0  0  0  0  0
    1.7505    1.4793    0.7395 H   0  0  0  0  0  0  0  0  0  0  0  0
    2.8729    2.3941   -0.8309 C   0  0  0  0  0  0  0  0  0  0  0  0
    3.7683    2.7462   -0.3228 H   0  0  0  0  0  0  0  0  0  0  0  0
    2.6148    2.4936   -2.1545 N   0  0  0  0  0  0  0  0  0  0  0  0
    3.2214    2.9191   -2.8506 H   0  0  0  0  0  0  0  0  0  0  0  0
    1.3808    1.9114   -2.4093 C   0  0  0  0  0  0  0  0  0  0  0  0
    0.8828    1.8255   -3.3711 H   0  0  0  0  0  0  0  0  0  0  0  0
    0.0470    0.3465    1.5629 C   0  0  0  0  0  0  0  0  0  0  0  0
    1.1854    0.1365    1.9846 O   0  0  0  0  0  0  0  0  0  0  0  0
   -0.8551    1.0750    2.2320 N   0  0  0  0  0  0  0  0  0  0  0  0
   -1.7594    1.2031    1.8040 H   0  0  0  0  0  0  0  0  0  0  0  0
   -0.6356    1.6998    3.5400 C   0  0  0  0  0  0  0  0  0  0  0  0
   -0.4284    2.7647    3.4168 H   0  0  0  0  0  0  0  0  0  0  0  0
   -1.5268    1.5885    4.1601 H   0  0  0  0  0  0  0  0  0  0  0  0
    0.2072    1.2358    4.0566 H   0  0  0  0  0  0  0  0  0  0  0  0
  5  6  2  0  0  0  0
  5  7  1  0  0  0  0
  2  3  1  0  0  0  0
  2  4  1  0  0  0  0
  2  5  1  0  0  0  0
  1  2  1  0  0  0  0
 23 24  2  0  0  0  0
 23 25  1  0  0  0  0
 21 22  1  0  0  0  0
 19 20  1  0  0  0  0
 19 21  1  0  0  0  0
 17 18  1  0  0  0  0
 17 19  1  0  0  0  0
 15 16  1  0  0  0  0
 15 17  2  0  0  0  0
 14 15  1  0  0  0  0
 14 21  2  0  0  0  0
 11 12  1  0  0  0  0
 11 13  1  0  0  0  0
 11 14  1  0  0  0  0
  9 10  1  0  0  0  0
  9 11  1  0  0  0  0
  9 23  1  0  0  0  0
  7  8  1  0  0  0  0
  7  9  1  0  0  0  0
 27 28  1  0  0  0  0
 27 29  1  0  0  0  0
 27 30  1  0  0  0  0
 25 26  1  0  0  0  0
 25 27  1  0  0  0  0
M  CHG  1  15   1
M  END
$$$$
default_name
  -OEChem-02102213163D

 30 30  0     1  0  0  0  0  0999 V2000
   -3.5507   -3.2183    1.8116 H   0  0  0  0  0  0  0  0  0  0  0  0
   -3.4597   -2.3913    1.1076 C   0  0  0  0  0  0  0  0  0  0  0  0
   -4.1577   -1.6043    1.3866 H   0  0  0  0  0  0  0  0  0  0  0  0
   -3.6807   -2.7523    0.1036 H   0  0  0  0  0  0  0  0  0  0  0  0
   -2.0477   -1.8543    1.1546 C   0  0  0  0  0  0  0  0  0  0  0  0
   -1.2227   -2.3443    1.9146 O   0  0  0  0  0  0  0  0  0  0  0  0
   -1.7517   -0.8483    0.3266 N   0  0  0  0  0  0  0  0  0  0  0  0
   -2.4847   -0.5123   -0.2804 H   0  0  0  0  0  0  0  0  0  0  0  0
   -0.4117   -0.2463    0.2186 C   0  0  1  0  0  0  0  0  0  0  0  0
    0.2987   -1.0391   -0.0285 H   0  0  0  0  0  0  0  0  0  0  0  0
   -0.4131    0.7505   -0.9636 C   0  0  0  0  0  0  0  0  0  0  0  0
   -0.6962    0.2128   -1.8721 H   0  0  0  0  0  0  0  0  0  0  0  0
   -1.1793    1.5085   -0.7878 H   0  0  0  0  0  0  0  0  0  0  0  0
    0.9021    1.4592   -1.2094 C   0  0  0  0  0  0  0  0  0  0  0  0
    1.9592    1.5110   -0.3216 N   0  3  0  0  0  0  0  0  0  0  0  0
    1.9713    1.0117    0.5724 H   0  0  0  0  0  0  0  0  0  0  0  0
    2.9526    2.2276   -0.8839 C   0  0  0  0  0  0  0  0  0  0  0  0
    3.9194    2.4297   -0.4272 H   0  0  0  0  0  0  0  0  0  0  0  0
    2.5483    2.6327   -2.1090 N   0  0  0  0  0  0  0  0  0  0  0  0
    3.0926    3.1881   -2.7638 H   0  0  0  0  0  0  0  0  0  0  0  0
    1.2625    2.1588   -2.3293 C   0  0  0  0  0  0  0  0  0  0  0  0
    0.6519    2.3079   -3.2155 H   0  0  0  0  0  0  0  0  0  0  0  0
    0.0470    0.3465    1.5629 C   0  0  0  0  0  0  0  0  0  0  0  0
    1.1854    0.1365    1.9846 O   0  0  0  0  0  0  0  0  0  0  0  0
   -0.8551    1.0750    2.2320 N   0  0  0  0  0  0  0  0  0  0  0  0
   -1.7594    1.2031    1.8040 H   0  0  0  0  0  0  0  0  0  0  0  0
   -0.6356    1.6998    3.5400 C   0  0  0  0  0  0  0  0  0  0  0  0
   -0.4284    2.7647    3.4168 H   0  0  0  0  0  0  0  0  0  0  0  0
   -1.5268    1.5885    4.1601 H   0  0  0  0  0  0  0  0  0  0  0  0
    0.2072    1.2358    4.0566 H   0  0  0  0  0  0  0  0  0  0  0  0
  5  6  2  0  0  0  0
  5  7  1  0  0  0  0
  2  3  1  0  0  0  0
  2  4  1  0  0  0  0
  2  5  1  0  0  0  0
  1  2  1  0  0  0  0
 23 24  2  0  0  0  0
 23 25  1  0  0  0  0
 21 22  1  0  0  0  0
 19 20  1  0  0  0  0
 19 21  1  0  0  0  0
 17 18  1  0  0  0  0
 17 19  1  0  0  0  0
 15 16  1  0  0  0  0
 15 17  2  0  0  0  0
 14 15  1  0  0  0  0
 14 21  2  0  0  0  0
 11 12  1  0  0  0  0
 11 13  1  0  0  0  0
 11 14  1  0  0  0  0
  9 10  1  0  0  0  0
  9 11  1  0  0  0  0
  9 23  1  0  0  0  0
  7  8  1  0  0  0  0
  7  9  1  0  0  0  0
 27 28  1  0  0  0  0
 27 29  1  0  0  0  0
 27 30  1  0  0  0  0
 25 26  1  0  0  0  0
 25 27  1  0  0  0  0
M  CHG  1  15   1
M  END
$$$$
default_name
  -OEChem-02102213163D

 30 30  0     1  0  0  0  0  0999 V2000
   -3.5507   -3.2183    1.8116 H   0  0  0  0  0  0  0  0  0  0  0  0
   -3.4597   -2.3913    1.1076 C   0  0  0  0  0  0  0  0  0  0  0  0
   -4.1577   -1.6043    1.3866 H   0  0  0  0  0  0  0  0  0  0  0  0
   -3.6807   -2.7523    0.1036 H   0  0  0  0  0  0  0  0  0  0  0  0
   -2.0477   -1.8543    1.1546 C   0  0  0  0  0  0  0  0  0  0  0  0
   -1.2227   -2.3443    1.9146 O   0  0  0  0  0  0  0  0  0  0  0  0
   -1.7517   -0.8483    0.3266 N   0  0  0  0  0  0  0  0  0  0  0  0
   -2.4847   -0.5123   -0.2804 H   0  0  0  0  0  0  0  0  0  0  0  0
   -0.4117   -0.2463    0.2186 C   0  0  1  0  0  0  0  0  0  0  0  0
    0.2987   -1.0391   -0.0285 H   0  0  0  0  0  0  0  0  0  0  0  0
   -0.4131    0.7505   -0.9636 C   0  0  0  0  0  0  0  0  0  0  0  0
   -0.6962    0.2128   -1.8721 H   0  0  0  0  0  0  0  0  0  0  0  0
   -1.1793    1.5085   -0.7878 H   0  0  0  0  0  0  0  0  0  0  0  0
    0.9021    1.4592   -1.2094 C   0  0  0  0  0  0  0  0  0  0  0  0
    2.0566    1.2779   -0.4727 N   0  3  0  0  0  0  0  0  0  0  0  0
    2.1446    0.5883    0.2792 H   0  0  0  0  0  0  0  0  0  0  0  0
    3.0163    2.0754   -0.9822 C   0  0  0  0  0  0  0  0  0  0  0  0
    4.0394    2.1410   -0.6175 H   0  0  0  0  0  0  0  0  0  0  0  0
    2.4955    2.7597   -2.0257 N   0  0  0  0  0  0  0  0  0  0  0  0
    2.9901    3.4340   -2.6039 H   0  0  0  0  0  0  0  0  0  0  0  0
    1.1683    2.3847   -2.1820 C   0  0  0  0  0  0  0  0  0  0  0  0
    0.4680    2.7486   -2.9289 H   0  0  0  0  0  0  0  0  0  0  0  0
    0.0470    0.3465    1.5629 C   0  0  0  0  0  0  0  0  0  0  0  0
    1.1854    0.1365    1.9846 O   0  0  0  0  0  0  0  0  0  0  0  0
   -0.8551    1.0750    2.2320 N   0  0  0  0  0  0  0  0  0  0  0  0
   -1.7594    1.2031    1.8040 H   0  0  0  0  0  0  0  0  0  0  0  0
   -0.6356    1.6998    3.5400 C   0  0  0  0  0  0  0  0  0  0  0  0
   -0.4284    2.7647    3.4168 H   0  0  0  0  0  0  0  0  0  0  0  0
   -1.5268    1.5885    4.1601 H   0  0  0  0  0  0  0  0  0  0  0  0
    0.2072    1.2358    4.0566 H   0  0  0  0  0  0  0  0  0  0  0  0
  5  6  2  0  0  0  0
  5  7  1  0  0  0  0
  2  3  1  0  0  0  0
  2  4  1  0  0  0  0
  2  5  1  0  0  0  0
  1  2  1  0  0  0  0
 23 24  2  0  0  0  0
 23 25  1  0  0  0  0
 21 22  1  0  0  0  0
 19 20  1  0  0  0  0
 19 21  1  0  0  0  0
 17 18  1  0  0  0  0
 17 19  1  0  0  0  0
 15 16  1  0  0  0  0
 15 17  2  0  0  0  0
 14 15  1  0  0  0  0
 14 21  2  0  0  0  0
 11 12  1  0  0  0  0
 11 13  1  0  0  0  0
 11 14  1  0  0  0  0
  9 10  1  0  0  0  0
  9 11  1  0  0  0  0
  9 23  1  0  0  0  0
  7  8  1  0  0  0  0
  7  9  1  0  0  0  0
 27 28  1  0  0  0  0
 27 29  1  0  0  0  0
 27 30  1  0  0  0  0
 25 26  1  0  0  0  0
 25 27  1  0  0  0  0
M  CHG  1  15   1
M  END
$$$$
default_name
  -OEChem-02102213163D

 30 30  0     1  0  0  0  0  0999 V2000
   -3.5507   -3.2183    1.8116 H   0  0  0  0  0  0  0  0  0  0  0  0
   -3.4597   -2.3913    1.1076 C   0  0  0  0  0  0  0  0  0  0  0  0
   -4.1577   -1.6043    1.3866 H   0  0  0  0  0  0  0  0  0  0  0  0
   -3.6807   -2.7523    0.1036 H   0  0  0  0  0  0  0  0  0  0  0  0
   -2.0477   -1.8543    1.1546 C   0  0  0  0  0  0  0  0  0  0  0  0
   -1.2227   -2.3443    1.9146 O   0  0  0  0  0  0  0  0  0  0  0  0
   -1.7517   -0.8483    0.3266 N   0  0  0  0  0  0  0  0  0  0  0  0
   -2.4847   -0.5123   -0.2804 H   0  0  0  0  0  0  0  0  0  0  0  0
   -0.4117   -0.2463    0.2186 C   0  0  1  0  0  0  0  0  0  0  0  0
    0.2987   -1.0391   -0.0285 H   0  0  0  0  0  0  0  0  0  0  0  0
   -0.4131    0.7505   -0.9636 C   0  0  0  0  0  0  0  0  0  0  0  0
   -0.6962    0.2128   -1.8721 H   0  0  0  0  0  0  0  0  0  0  0  0
   -1.1793    1.5085   -0.7878 H   0  0  0  0  0  0  0  0  0  0  0  0
    0.9021    1.4592   -1.2094 C   0  0  0  0  0  0  0  0  0  0  0  0
    2.1225    1.0827   -0.6828 N   0  3  0  0  0  0  0  0  0  0  0  0
    2.2588    0.2379   -0.1203 H   0  0  0  0  0  0  0  0  0  0  0  0
    3.0595    1.9478   -1.1191 C   0  0  0  0  0  0  0  0  0  0  0  0
    4.1201    1.8999   -0.8808 H   0  0  0  0  0  0  0  0  0  0  0  0
    2.4598    2.8659   -1.9103 N   0  0  0  0  0  0  0  0  0  0  0  0
    2.9207    3.6397   -2.3818 H   0  0  0  0  0  0  0  0  0  0  0  0
    1.1046    2.5738   -1.9776 C   0  0  0  0  0  0  0  0  0  0  0  0
    0.3436    3.1175   -2.5306 H   0  0  0  0  0  0  0  0  0  0  0  0
    0.0470    0.3465    1.5629 C   0  0  0  0  0  0  0  0  0  0  0  0
    1.1854    0.1365    1.9846 O   0  0  0  0  0  0  0  0  0  0  0  0
   -0.8551    1.0750    2.2320 N   0  0  0  0  0  0  0  0  0  0  0  0
   -1.7594    1.2031    1.8040 H   0  0  0  0  0  0  0  0  0  0  0  0
   -0.6356    1.6998    3.5400 C   0  0  0  0  0  0  0  0  0  0  0  0
   -0.4284    2.7647    3.4168 H   0  0  0  0  0  0  0  0  0  0  0  0
   -1.5268    1.5885    4.1601 H   0  0  0  0  0  0  0  0  0  0  0  0
    0.2072    1.2358    4.0566 H   0  0  0  0  0  0  0  0  0  0  0  0
  5  6  2  0  0  0  0
  5  7  1  0  0  0  0
  2  3  1  0  0  0  0
  2  4  1  0  0  0  0
  2  5  1  0  0  0  0
  1  2  1  0  0  0  0
 23 24  2  0  0  0  0
 23 25  1  0  0  0  0
 21 22  1  0  0  0  0
 19 20  1  0  0  0  0
 19 21  1  0  0  0  0
 17 18  1  0  0  0  0
 17 19  1  0  0  0  0
 15 16  1  0  0  0  0
 15 17  2  0  0  0  0
 14 15  1  0  0  0  0
 14 21  2  0  0  0  0
 11 12  1  0  0  0  0
 11 13  1  0  0  0  0
 11 14  1  0  0  0  0
  9 10  1  0  0  0  0
  9 11  1  0  0  0  0
  9 23  1  0  0  0  0
  7  8  1  0  0  0  0
  7  9  1  0  0  0  0
 27 28  1  0  0  0  0
 27 29  1  0  0  0  0
 27 30  1  0  0  0  0
 25 26  1  0  0  0  0
 25 27  1  0  0  0  0
M  CHG  1  15   1
M  END
$$$$
default_name
  -OEChem-02102213163D

 30 30  0     1  0  0  0  0  0999 V2000
   -3.5507   -3.2183    1.8116 H   0  0  0  0  0  0  0  0  0  0  0  0
   -3.4597   -2.3913    1.1076 C   0  0  0  0  0  0  0  0  0  0  0  0
   -4.1577   -1.6043    1.3866 H   0  0  0  0  0  0  0  0  0  0  0  0
   -3.6807   -2.7523    0.1036 H   0  0  0  0  0  0  0  0  0  0  0  0
   -2.0477   -1.8543    1.1546 C   0  0  0  0  0  0  0  0  0  0  0  0
   -1.2227   -2.3443    1.9146 O   0  0  0  0  0  0  0  0  0  0  0  0
   -1.7517   -0.8483    0.3266 N   0  0  0  0  0  0  0  0  0  0  0  0
   -2.4847   -0.5123   -0.2804 H   0  0  0  0  0  0  0  0  0  0  0  0
   -0.4117   -0.2463    0.2186 C   0  0  1  0  0  0  0  0  0  0  0  0
    0.2987   -1.0391   -0.0285 H   0  0  0  0  0  0  0  0  0  0  0  0
   -0.4131    0.7505   -0.9636 C   0  0  0  0  0  0  0  0  0  0  0  0
   -0.6962    0.2128   -1.8721 H   0  0  0  0  0  0  0  0  0  0  0  0
   -1.1793    1.5085   -0.7878 H   0  0  0  0  0  0  0  0  0  0  0  0
    0.9021    1.4592   -1.2094 C   0  0  0  0  0  0  0  0  0  0  0  0
    2.1525    0.9386   -0.9377 N   0  3  0  0  0  0  0  0  0  0  0  0
    2.3059   -0.0154   -0.5987 H   0  0  0  0  0  0  0  0  0  0  0  0
    3.0792    1.8536   -1.2853 C   0  0  0  0  0  0  0  0  0  0  0  0
    4.1560    1.7229   -1.1991 H   0  0  0  0  0  0  0  0  0  0  0  0
    2.4438    2.9440   -1.7707 N   0  0  0  0  0  0  0  0  0  0  0  0
    2.8892    3.7915   -2.1126 H   0  0  0  0  0  0  0  0  0  0  0  0
    1.0758    2.7131   -1.7299 C   0  0  0  0  0  0  0  0  0  0  0  0
    0.2872    3.3896   -2.0479 H   0  0  0  0  0  0  0  0  0  0  0  0
    0.0470    0.3465    1.5629 C   0  0  0  0  0  0  0  0  0  0  0  0
    1.1854    0.1365    1.9846 O   0  0  0  0  0  0  0  0  0  0  0  0
   -0.8551    1.0750    2.2320 N   0  0  0  0  0  0  0  0  0  0  0  0
   -1.7594    1.2031    1.8040 H   0  0  0  0  0  0  0  0  0  0  0  0
   -0.6356    1.6998    3.5400 C   0  0  0  0  0  0  0  0  0  0  0  0
   -0.4284    2.7647    3.4168 H   0  0  0  0  0  0  0  0  0  0  0  0
   -1.5268    1.5885    4.1601 H   0  0  0  0  0  0  0  0  0  0  0  0
    0.2072    1.2358    4.0566 H   0  0  0  0  0  0  0  0  0  0  0  0
  5  6  2  0  0  0  0
  5  7  1  0  0  0  0
  2  3  1  0  0  0  0
  2  4  1  0  0  0  0
  2  5  1  0  0  0  0
  1  2  1  0  0  0  0
 23 24  2  0  0  0  0
 23 25  1  0  0  0  0
 21 22  1  0  0  0  0
 19 20  1  0  0  0  0
 19 21  1  0  0  0  0
 17 18  1  0  0  0  0
 17 19  1  0  0  0  0
 15 16  1  0  0  0  0
 15 17  2  0  0  0  0
 14 15  1  0  0  0  0
 14 21  2  0  0  0  0
 11 12  1  0  0  0  0
 11 13  1  0  0  0  0
 11 14  1  0  0  0  0
  9 10  1  0  0  0  0
  9 11  1  0  0  0  0
  9 23  1  0  0  0  0
  7  8  1  0  0  0  0
  7  9  1  0  0  0  0
 27 28  1  0  0  0  0
 27 29  1  0  0  0  0
 27 30  1  0  0  0  0
 25 26  1  0  0  0  0
 25 27  1  0  0  0  0
M  CHG  1  15   1
M  END
$$$$
default_name
  -OEChem-02102213163D

 30 30  0     1  0  0  0  0  0999 V2000
   -3.5507   -3.2183    1.8116 H   0  0  0  0  0  0  0  0  0  0  0  0
   -3.4597   -2.3913    1.1076 C   0  0  0  0  0  0  0  0  0  0  0  0
   -4.1577   -1.6043    1.3866 H   0  0  0  0  0  0  0  0  0  0  0  0
   -3.6807   -2.7523    0.1036 H   0  0  0  0  0  0  0  0  0  0  0  0
   -2.0477   -1.8543    1.1546 C   0  0  0  0  0  0  0  0  0  0  0  0
   -1.2227   -2.3443    1.9146 O   0  0  0  0  0  0  0  0  0  0  0  0
   -1.7517   -0.8483    0.3266 N   0  0  0  0  0  0  0  0  0  0  0  0
   -2.4847   -0.5123   -0.2804 H   0  0  0  0  0  0  0  0  0  0  0  0
   -0.4117   -0.2463    0.2186 C   0  0  1  0  0  0  0  0  0  0  0  0
    0.2987   -1.0391   -0.0285 H   0  0  0  0  0  0  0  0  0  0  0  0
   -0.4131    0.7505   -0.9636 C   0  0  0  0  0  0  0  0  0  0  0  0
   -0.6962    0.2128   -1.8721 H   0  0  0  0  0  0  0  0  0  0  0  0
   -1.1793    1.5085   -0.7878 H   0  0  0  0  0  0  0  0  0  0  0  0
    0.9021    1.4592   -1.2094 C   0  0  0  0  0  0  0  0  0  0  0  0
    2.1446    0.8555   -1.2199 N   0  3  0  0  0  0  0  0  0  0  0  0
    2.2829   -0.1546   -1.1235 H   0  0  0  0  0  0  0  0  0  0  0  0
    3.0742    1.7990   -1.4693 C   0  0  0  0  0  0  0  0  0  0  0  0
    4.1447    1.6219   -1.5507 H   0  0  0  0  0  0  0  0  0  0  0  0
    2.4486    2.9887   -1.6163 N   0  0  0  0  0  0  0  0  0  0  0  0
    2.8978    3.8789   -1.8146 H   0  0  0  0  0  0  0  0  0  0  0  0
    1.0838    2.7932   -1.4559 C   0  0  0  0  0  0  0  0  0  0  0  0
    0.3027    3.5462   -1.5136 H   0  0  0  0  0  0  0  0  0  0  0  0
    0.0470    0.3465    1.5629 C   0  0  0  0  0  0  0  0  0  0  0  0
    1.1854    0.1365    1.9846 O   0  0  0  0  0  0  0  0  0  0  0  0
   -0.8551    1.0750    2.2320 N   0  0  0  0  0  0  0  0  0  0  0  0
   -1.7594    1.2031    1.8040 H   0  0  0  0  0  0  0  0  0  0  0  0
   -0.6356    1.6998    3.5400 C   0  0  0  0  0  0  0  0  0  0  0  0
   -0.4284    2.7647    3.4168 H   0  0  0  0  0  0  0  0  0  0  0  0
   -1.5268    1.5885    4.1601 H   0  0  0  0  0  0  0  0  0  0  0  0
    0.2072    1.2358    4.0566 H   0  0  0  0  0  0  0  0  0  0  0  0
  5  6  2  0  0  0  0
  5  7  1  0  0  0  0
  2  3  1  0  0  0  0
  2  4  1  0  0  0  0
  2  5  1  0  0  0  0
  1  2  1  0  0  0  0
 23 24  2  0  0  0  0
 23 25  1  0  0  0  0
 21 22  1  0  0  0  0
 19 20  1  0  0  0  0
 19 21  1  0  0  0  0
 17 18  1  0  0  0  0
 17 19  1  0  0  0  0
 15 16  1  0  0  0  0
 15 17  2  0  0  0  0
 14 15  1  0  0  0  0
 14 21  2  0  0  0  0
 11 12  1  0  0  0  0
 11 13  1  0  0  0  0
 11 14  1  0  0  0  0
  9 10  1  0  0  0  0
  9 11  1  0  0  0  0
  9 23  1  0  0  0  0
  7  8  1  0  0  0  0
  7  9  1  0  0  0  0
 27 28  1  0  0  0  0
 27 29  1  0  0  0  0
 27 30  1  0  0  0  0
 25 26  1  0  0  0  0
 25 27  1  0  0  0  0
M  CHG  1  15   1
M  END
$$$$
default_name
  -OEChem-02102213163D

 30 30  0     1  0  0  0  0  0999 V2000
   -3.5507   -3.2183    1.8116 H   0  0  0  0  0  0  0  0  0  0  0  0
   -3.4597   -2.3913    1.1076 C   0  0  0  0  0  0  0  0  0  0  0  0
   -4.1577   -1.6043    1.3866 H   0  0  0  0  0  0  0  0  0  0  0  0
   -3.6807   -2.7523    0.1036 H   0  0  0  0  0  0  0  0  0  0  0  0
   -2.0477   -1.8543    1.1546 C   0  0  0  0  0  0  0  0  0  0  0  0
   -1.2227   -2.3443    1.9146 O   0  0  0  0  0  0  0  0  0  0  0  0
   -1.7517   -0.8483    0.3266 N   0  0  0  0  0  0  0  0  0  0  0  0
   -2.4847   -0.5123   -0.2804 H   0  0  0  0  0  0  0  0  0  0  0  0
   -0.4117   -0.2463    0.2186 C   0  0  1  0  0  0  0  0  0  0  0  0
    0.2987   -1.0391   -0.0285 H   0  0  0  0  0  0  0  0  0  0  0  0
   -0.4131    0.7505   -0.9636 C   0  0  0  0  0  0  0  0  0  0  0  0
   -0.6962    0.2128   -1.8721 H   0  0  0  0  0  0  0  0  0  0  0  0
   -1.1793    1.5085   -0.7878 H   0  0  0  0  0  0  0  0  0  0  0  0
    0.9021    1.4592   -1.2094 C   0  0  0  0  0  0  0  0  0  0  0  0
    2.0993    0.8389   -1.5102 N   0  3  0  0  0  0  0  0  0  0  0  0
    2.1912   -0.1701   -1.6589 H   0  0  0  0  0  0  0  0  0  0  0  0
    3.0448    1.7879   -1.6588 C   0  0  0  0  0  0  0  0  0  0  0  0
    4.0870    1.6039   -1.9117 H   0  0  0  0  0  0  0  0  0  0  0  0
    2.4738    2.9970   -1.4577 N   0  0  0  0  0  0  0  0  0  0  0  0
    2.9459    3.8959   -1.5082 H   0  0  0  0  0  0  0  0  0  0  0  0
    1.1281    2.8087   -1.1741 C   0  0  0  0  0  0  0  0  0  0  0  0
    0.3889    3.5768   -0.9642 H   0  0  0  0  0  0  0  0  0  0  0  0
    0.0470    0.3465    1.5629 C   0  0  0  0  0  0  0  0  0  0  0  0
    1.1854    0.1365    1.9846 O   0  0  0  0  0  0  0  0  0  0  0  0
   -0.8551    1.0750    2.2320 N   0  0  0  0  0  0  0  0  0  0  0  0
   -1.7594    1.2031    1.8040 H   0  0  0  0  0  0  0  0  0  0  0  0
   -0.6356    1.6998    3.5400 C   0  0  0  0  0  0  0  0  0  0  0  0
   -0.4284    2.7647    3.4168 H   0  0  0  0  0  0  0  0  0  0  0  0
   -1.5268    1.5885    4.1601 H   0  0  0  0  0  0  0  0  0  0  0  0
    0.2072    1.2358    4.0566 H   0  0  0  0  0  0  0  0  0  0  0  0
  5  6  2  0  0  0  0
  5  7  1  0  0  0  0
  2  3  1  0  0  0  0
  2  4  1  0  0  0  0
  2  5  1  0  0  0  0
  1  2  1  0  0  0  0
 23 24  2  0  0  0  0
 23 25  1  0  0  0  0
 21 22  1  0  0  0  0
 19 20  1  0  0  0  0
 19 21  1  0  0  0  0
 17 18  1  0  0  0  0
 17 19  1  0  0  0  0
 15 16  1  0  0  0  0
 15 17  2  0  0  0  0
 14 15  1  0  0  0  0
 14 21  2  0  0  0  0
 11 12  1  0  0  0  0
 11 13  1  0  0  0  0
 11 14  1  0  0  0  0
  9 10  1  0  0  0  0
  9 11  1  0  0  0  0
  9 23  1  0  0  0  0
  7  8  1  0  0  0  0
  7  9  1  0  0  0  0
 27 28  1  0  0  0  0
 27 29  1  0  0  0  0
 27 30  1  0  0  0  0
 25 26  1  0  0  0  0
 25 27  1  0  0  0  0
M  CHG  1  15   1
M  END
$$$$
default_name
  -OEChem-02102213163D

 30 30  0     1  0  0  0  0  0999 V2000
   -3.5507   -3.2183    1.8116 H   0  0  0  0  0  0  0  0  0  0  0  0
   -3.4597   -2.3913    1.1076 C   0  0  0  0  0  0  0  0  0  0  0  0
   -4.1577   -1.6043    1.3866 H   0  0  0  0  0  0  0  0  0  0  0  0
   -3.6807   -2.7523    0.1036 H   0  0  0  0  0  0  0  0  0  0  0  0
   -2.0477   -1.8543    1.1546 C   0  0  0  0  0  0  0  0  0  0  0  0
   -1.2227   -2.3443    1.9146 O   0  0  0  0  0  0  0  0  0  0  0  0
   -1.7517   -0.8483    0.3266 N   0  0  0  0  0  0  0  0  0  0  0  0
   -2.4847   -0.5123   -0.2804 H   0  0  0  0  0  0  0  0  0  0  0  0
   -0.4117   -0.2463    0.2186 C   0  0  1  0  0  0  0  0  0  0  0  0
    0.2987   -1.0391   -0.0285 H   0  0  0  0  0  0  0  0  0  0  0  0
   -0.4131    0.7505   -0.9636 C   0  0  0  0  0  0  0  0  0  0  0  0
   -0.6962    0.2128   -1.8721 H   0  0  0  0  0  0  0  0  0  0  0  0
   -1.1793    1.5085   -0.7878 H   0  0  0  0  0  0  0  0  0  0  0  0
    0.9021    1.4592   -1.2094 C   0  0  0  0  0  0  0  0  0  0  0  0
    2.0196    0.8902   -1.7889 N   0  3  0  0  0  0  0  0  0  0  0  0
    2.0371   -0.0608   -2.1684 H   0  0  0  0  0  0  0  0  0  0  0  0
    2.9929    1.8210   -1.8407 C   0  0  0  0  0  0  0  0  0  0  0  0
    3.9867    1.6701   -2.2574 H   0  0  0  0  0  0  0  0  0  0  0  0
    2.5176    2.9683   -1.3056 N   0  0  0  0  0  0  0  0  0  0  0  0
    3.0301    3.8415   -1.2142 H   0  0  0  0  0  0  0  0  0  0  0  0
    1.2057    2.7584   -0.9039 C   0  0  0  0  0  0  0  0  0  0  0  0
    0.5400    3.4791   -0.4371 H   0  0  0  0  0  0  0  0  0  0  0  0
    0.0470    0.3465    1.5629 C   0  0  0  0  0  0  0  0  0  0  0  0
    1.1854    0.1365    1.9846 O   0  0  0  0  0  0  0  0  0  0  0  0
   -0.8551    1.0750    2.2320 N   0  0  0  0  0  0  0  0  0  0  0  0
   -1.7594    1.2031    1.8040 H   0  0  0  0  0  0  0  0  0  0  0  0
   -0.6356    1.6998    3.5400 C   0  0  0  0  0  0  0  0  0  0  0  0
   -0.4284    2.7647    3.4168 H   0  0  0  0  0  0  0  0  0  0  0  0
   -1.5268    1.5885    4.1601 H   0  0  0  0  0  0  0  0  0  0  0  0
    0.2072    1.2358    4.0566 H   0  0  0  0  0  0  0  0  0  0  0  0
  5  6  2  0  0  0  0
  5  7  1  0  0  0  0
  2  3  1  0  0  0  0
  2  4  1  0  0  0  0
  2  5  1  0  0  0  0
  1  2  1  0  0  0  0
 23 24  2  0  0  0  0
 23 25  1  0  0  0  0
 21 22  1  0  0  0  0
 19 20  1  0  0  0  0
 19 21  1  0  0  0  0
 17 18  1  0  0  0  0
 17 19  1  0  0  0  0
 15 16  1  0  0  0  0
 15 17  2  0  0  0  0
 14 15  1  0  0  0  0
 14 21  2  0  0  0  0
 11 12  1  0  0  0  0
 11 13  1  0  0  0  0
 11 14  1  0  0  0  0
  9 10  1  0  0  0  0
  9 11  1  0  0  0  0
  9 23  1  0  0  0  0
  7  8  1  0  0  0  0
  7  9  1  0  0  0  0
 27 28  1  0  0  0  0
 27 29  1  0  0  0  0
 27 30  1  0  0  0  0
 25 26  1  0  0  0  0
 25 27  1  0  0  0  0
M  CHG  1  15   1
M  END
$$$$
default_name
  -OEChem-02102213163D

 30 30  0     1  0  0  0  0  0999 V2000
   -3.5507   -3.2183    1.8116 H   0  0  0  0  0  0  0  0  0  0  0  0
   -3.4597   -2.3913    1.1076 C   0  0  0  0  0  0  0  0  0  0  0  0
   -4.1577   -1.6043    1.3866 H   0  0  0  0  0  0  0  0  0  0  0  0
   -3.6807   -2.7523    0.1036 H   0  0  0  0  0  0  0  0  0  0  0  0
   -2.0477   -1.8543    1.1546 C   0  0  0  0  0  0  0  0  0  0  0  0
   -1.2227   -2.3443    1.9146 O   0  0  0  0  0  0  0  0  0  0  0  0
   -1.7517   -0.8483    0.3266 N   0  0  0  0  0  0  0  0  0  0  0  0
   -2.4847   -0.5123   -0.2804 H   0  0  0  0  0  0  0  0  0  0  0  0
   -0.4117   -0.2463    0.2186 C   0  0  1  0  0  0  0  0  0  0  0  0
    0.2987   -1.0391   -0.0285 H   0  0  0  0  0  0  0  0  0  0  0  0
   -0.4131    0.7505   -0.9636 C   0  0  0  0  0  0  0  0  0  0  0  0
   -0.6962    0.2128   -1.8721 H   0  0  0  0  0  0  0  0  0  0  0  0
   -1.1793    1.5085   -0.7878 H   0  0  0  0  0  0  0  0  0  0  0  0
    0.9021    1.4592   -1.2094 C   0  0  0  0  0  0  0  0  0  0  0  0
    1.9110    1.0056   -2.0369 N   0  3  0  0  0  0  0  0  0  0  0  0
    1.8311    0.1658   -2.6173 H   0  0  0  0  0  0  0  0  0  0  0  0
    2.9222    1.8961   -2.0027 C   0  0  0  0  0  0  0  0  0  0  0  0
    3.8508    1.8159   -2.5643 H   0  0  0  0  0  0  0  0  0  0  0  0
    2.5772    2.9045   -1.1706 N   0  0  0  0  0  0  0  0  0  0  0  0
    3.1449    3.7193   -0.9526 H   0  0  0  0  0  0  0  0  0  0  0  0
    1.3113    2.6458   -0.6635 C   0  0  0  0  0  0  0  0  0  0  0  0
    0.7457    3.2599    0.0317 H   0  0  0  0  0  0  0  0  0  0  0  0
    0.0470    0.3465    1.5629 C   0  0  0  0  0  0  0  0  0  0  0  0
    1.1854    0.1365    1.9846 O   0  0  0  0  0  0  0  0  0  0  0  0
   -0.8551    1.0750    2.2320 N   0  0  0  0  0  0  0  0  0  0  0  0
   -1.7594    1.2031    1.8040 H   0  0  0  0  0  0  0  0  0  0  0  0
   -0.6356    1.6998    3.5400 C   0  0  0  0  0  0  0  0  0  0  0  0
   -0.4284    2.7647    3.4168 H   0  0  0  0  0  0  0  0  0  0  0  0
   -1.5268    1.5885    4.1601 H   0  0  0  0  0  0  0  0  0  0  0  0
    0.2072    1.2358    4.0566 H   0  0  0  0  0  0  0  0  0  0  0  0
  5  6  2  0  0  0  0
  5  7  1  0  0  0  0
  2  3  1  0  0  0  0
  2  4  1  0  0  0  0
  2  5  1  0  0  0  0
  1  2  1  0  0  0  0
 23 24  2  0  0  0  0
 23 25  1  0  0  0  0
 21 22  1  0  0  0  0
 19 20  1  0  0  0  0
 19 21  1  0  0  0  0
 17 18  1  0  0  0  0
 17 19  1  0  0  0  0
 15 16  1  0  0  0  0
 15 17  2  0  0  0  0
 14 15  1  0  0  0  0
 14 21  2  0  0  0  0
 11 12  1  0  0  0  0
 11 13  1  0  0  0  0
 11 14  1  0  0  0  0
  9 10  1  0  0  0  0
  9 11  1  0  0  0  0
  9 23  1  0  0  0  0
  7  8  1  0  0  0  0
  7  9  1  0  0  0  0
 27 28  1  0  0  0  0
 27 29  1  0  0  0  0
 27 30  1  0  0  0  0
 25 26  1  0  0  0  0
 25 27  1  0  0  0  0
M  CHG  1  15   1
M  END
$$$$
default_name
  -OEChem-02102213163D

 30 30  0     1  0  0  0  0  0999 V2000
   -3.5507   -3.2183    1.8116 H   0  0  0  0  0  0  0  0  0  0  0  0
   -3.4597   -2.3913    1.1076 C   0  0  0  0  0  0  0  0  0  0  0  0
   -4.1577   -1.6043    1.3866 H   0  0  0  0  0  0  0  0  0  0  0  0
   -3.6807   -2.7523    0.1036 H   0  0  0  0  0  0  0  0  0  0  0  0
   -2.0477   -1.8543    1.1546 C   0  0  0  0  0  0  0  0  0  0  0  0
   -1.2227   -2.3443    1.9146 O   0  0  0  0  0  0  0  0  0  0  0  0
   -1.7517   -0.8483    0.3266 N   0  0  0  0  0  0  0  0  0  0  0  0
   -2.4847   -0.5123   -0.2804 H   0  0  0  0  0  0  0  0  0  0  0  0
   -0.4117   -0.2463    0.2186 C   0  0  1  0  0  0  0  0  0  0  0  0
    0.2987   -1.0391   -0.0285 H   0  0  0  0  0  0  0  0  0  0  0  0
   -0.4131    0.7505   -0.9636 C   0  0  0  0  0  0  0  0  0  0  0  0
   -0.6962    0.2128   -1.8721 H   0  0  0  0  0  0  0  0  0  0  0  0
   -1.1793    1.5085   -0.7878 H   0  0  0  0  0  0  0  0  0  0  0  0
    0.9021    1.4592   -1.2094 C   0  0  0  0  0  0  0  0  0  0  0  0
    1.7810    1.1774   -2.2373 N   0  3  0  0  0  0  0  0  0  0  0  0
    1.5872    0.4942   -2.9751 H   0  0  0  0  0  0  0  0  0  0  0  0
    2.8374    2.0080   -2.1337 C   0  0  0  0  0  0  0  0  0  0  0  0
    3.6884    2.0315   -2.8115 H   0  0  0  0  0  0  0  0  0  0  0  0
    2.6485    2.8101   -1.0616 N   0  0  0  0  0  0  0  0  0  0  0  0
    3.2822    3.5376   -0.7414 H   0  0  0  0  0  0  0  0  0  0  0  0
    1.4377    2.4786   -0.4695 C   0  0  0  0  0  0  0  0  0  0  0  0
    0.9920    2.9342    0.4104 H   0  0  0  0  0  0  0  0  0  0  0  0
    0.0470    0.3465    1.5629 C   0  0  0  0  0  0  0  0  0  0  0  0
    1.1854    0.1365    1.9846 O   0  0  0  0  0  0  0  0  0  0  0  0
   -0.8551    1.0750    2.2320 N   0  0  0  0  0  0  0  0  0  0  0  0
   -1.7594    1.2031    1.8040 H   0  0  0  0  0  0  0  0  0  0  0  0
   -0.6356    1.6998    3.5400 C   0  0  0  0  0  0  0  0  0  0  0  0
   -0.4284    2.7647    3.4168 H   0  0  0  0  0  0  0  0  0  0  0  0
   -1.5268    1.5885    4.1601 H   0  0  0  0  0  0  0  0  0  0  0  0
    0.2072    1.2358    4.0566 H   0  0  0  0  0  0  0  0  0  0  0  0
  5  6  2  0  0  0  0
  5  7  1  0  0  0  0
  2  3  1  0  0  0  0
  2  4  1  0  0  0  0
  2  5  1  0  0  0  0
  1  2  1  0  0  0  0
 23 24  2  0  0  0  0
 23 25  1  0  0  0  0
 21 22  1  0  0  0  0
 19 20  1  0  0  0  0
 19 21  1  0  0  0  0
 17 18  1  0  0  0  0
 17 19  1  0  0  0  0
 15 16  1  0  0  0  0
 15 17  2  0  0  0  0
 14 15  1  0  0  0  0
 14 21  2  0  0  0  0
 11 12  1  0  0  0  0
 11 13  1  0  0  0  0
 11 14  1  0  0  0  0
  9 10  1  0  0  0  0
  9 11  1  0  0  0  0
  9 23  1  0  0  0  0
  7  8  1  0  0  0  0
  7  9  1  0  0  0  0
 27 28  1  0  0  0  0
 27 29  1  0  0  0  0
 27 30  1  0  0  0  0
 25 26  1  0  0  0  0
 25 27  1  0  0  0  0
M  CHG  1  15   1
M  END
$$$$
default_name
  -OEChem-02102213163D

 30 30  0     1  0  0  0  0  0999 V2000
   -3.5507   -3.2183    1.8116 H   0  0  0  0  0  0  0  0  0  0  0  0
   -3.4597   -2.3913    1.1076 C   0  0  0  0  0  0  0  0  0  0  0  0
   -4.1577   -1.6043    1.3866 H   0  0  0  0  0  0  0  0  0  0  0  0
   -3.6807   -2.7523    0.1036 H   0  0  0  0  0  0  0  0  0  0  0  0
   -2.0477   -1.8543    1.1546 C   0  0  0  0  0  0  0  0  0  0  0  0
   -1.2227   -2.3443    1.9146 O   0  0  0  0  0  0  0  0  0  0  0  0
   -1.7517   -0.8483    0.3266 N   0  0  0  0  0  0  0  0  0  0  0  0
   -2.4847   -0.5123   -0.2804 H   0  0  0  0  0  0  0  0  0  0  0  0
   -0.4117   -0.2463    0.2186 C   0  0  1  0  0  0  0  0  0  0  0  0
    0.2987   -1.0391   -0.0285 H   0  0  0  0  0  0  0  0  0  0  0  0
   -0.4131    0.7505   -0.9636 C   0  0  0  0  0  0  0  0  0  0  0  0
   -0.6962    0.2128   -1.8721 H   0  0  0  0  0  0  0  0  0  0  0  0
   -1.1793    1.5085   -0.7878 H   0  0  0  0  0  0  0  0  0  0  0  0
    0.9021    1.4592   -1.2094 C   0  0  0  0  0  0  0  0  0  0  0  0
    1.6383    1.3939   -2.3765 N   0  3  0  0  0  0  0  0  0  0  0  0
    1.3221    0.9021   -3.2173 H   0  0  0  0  0  0  0  0  0  0  0  0
    2.7444    2.1491   -2.2249 C   0  0  0  0  0  0  0  0  0  0  0  0
    3.5107    2.3022   -2.9821 H   0  0  0  0  0  0  0  0  0  0  0  0
    2.7265    2.6914   -0.9863 N   0  0  0  0  0  0  0  0  0  0  0  0
    3.4329    3.3089   -0.5948 H   0  0  0  0  0  0  0  0  0  0  0  0
    1.5763    2.2681   -0.3350 C   0  0  0  0  0  0  0  0  0  0  0  0
    1.2622    2.5240    0.6732 H   0  0  0  0  0  0  0  0  0  0  0  0
    0.0470    0.3465    1.5629 C   0  0  0  0  0  0  0  0  0  0  0  0
    1.1854    0.1365    1.9846 O   0  0  0  0  0  0  0  0  0  0  0  0
   -0.8551    1.0750    2.2320 N   0  0  0  0  0  0  0  0  0  0  0  0
   -1.7594    1.2031    1.8040 H   0  0  0  0  0  0  0  0  0  0  0  0
   -0.6356    1.6998    3.5400 C   0  0  0  0  0  0  0  0  0  0  0  0
   -0.4284    2.7647    3.4168 H   0  0  0  0  0  0  0  0  0  0  0  0
   -1.5268    1.5885    4.1601 H   0  0  0  0  0  0  0  0  0  0  0  0
    0.2072    1.2358    4.0566 H   0  0  0  0  0  0  0  0  0  0  0  0
  5  6  2  0  0  0  0
  5  7  1  0  0  0  0
  2  3  1  0  0  0  0
  2  4  1  0  0  0  0
  2  5  1  0  0  0  0
  1  2  1  0  0  0  0
 23 24  2  0  0  0  0
 23 25  1  0  0  0  0
 21 22  1  0  0  0  0
 19 20  1  0  0  0  0
 19 21  1  0  0  0  0
 17 18  1  0  0  0  0
 17 19  1  0  0  0  0
 15 16  1  0  0  0  0
 15 17  2  0  0  0  0
 14 15  1  0  0  0  0
 14 21  2  0  0  0  0
 11 12  1  0  0  0  0
 11 13  1  0  0  0  0
 11 14  1  0  0  0  0
  9 10  1  0  0  0  0
  9 11  1  0  0  0  0
  9 23  1  0  0  0  0
  7  8  1  0  0  0  0
  7  9  1  0  0  0  0
 27 28  1  0  0  0  0
 27 29  1  0  0  0  0
 27 30  1  0  0  0  0
 25 26  1  0  0  0  0
 25 27  1  0  0  0  0
M  CHG  1  15   1
M  END
$$$$
default_name
  -OEChem-02102213163D

 30 30  0     1  0  0  0  0  0999 V2000
   -3.5507   -3.2183    1.8116 H   0  0  0  0  0  0  0  0  0  0  0  0
   -3.4597   -2.3913    1.1076 C   0  0  0  0  0  0  0  0  0  0  0  0
   -4.1577   -1.6043    1.3866 H   0  0  0  0  0  0  0  0  0  0  0  0
   -3.6807   -2.7523    0.1036 H   0  0  0  0  0  0  0  0  0  0  0  0
   -2.0477   -1.8543    1.1546 C   0  0  0  0  0  0  0  0  0  0  0  0
   -1.2227   -2.3443    1.9146 O   0  0  0  0  0  0  0  0  0  0  0  0
   -1.7517   -0.8483    0.3266 N   0  0  0  0  0  0  0  0  0  0  0  0
   -2.4847   -0.5123   -0.2804 H   0  0  0  0  0  0  0  0  0  0  0  0
   -0.4117   -0.2463    0.2186 C   0  0  1  0  0  0  0  0  0  0  0  0
    0.2987   -1.0391   -0.0285 H   0  0  0  0  0  0  0  0  0  0  0  0
   -0.4131    0.7505   -0.9636 C   0  0  0  0  0  0  0  0  0  0  0  0
   -0.6962    0.2128   -1.8721 H   0  0  0  0  0  0  0  0  0  0  0  0
   -1.1793    1.5085   -0.7878 H   0  0  0  0  0  0  0  0  0  0  0  0
    0.9021    1.4592   -1.2094 C   0  0  0  0  0  0  0  0  0  0  0  0
    1.4927    1.6404   -2.4450 N   0  3  0  0  0  0  0  0  0  0  0  0
    1.0539    1.3617   -3.3274 H   0  0  0  0  0  0  0  0  0  0  0  0
    2.6493    2.3098   -2.2699 C   0  0  0  0  0  0  0  0  0  0  0  0
    3.3297    2.6094   -3.0645 H   0  0  0  0  0  0  0  0  0  0  0  0
    2.8061    2.5565   -0.9497 N   0  0  0  0  0  0  0  0  0  0  0  0
    3.5866    3.0486   -0.5229 H   0  0  0  0  0  0  0  0  0  0  0  0
    1.7176    2.0287   -0.2691 C   0  0  0  0  0  0  0  0  0  0  0  0
    1.5377    2.0574    0.8020 H   0  0  0  0  0  0  0  0  0  0  0  0
    0.0470    0.3465    1.5629 C   0  0  0  0  0  0  0  0  0  0  0  0
    1.1854    0.1365    1.9846 O   0  0  0  0  0  0  0  0  0  0  0  0
   -0.8551    1.0750    2.2320 N   0  0  0  0  0  0  0  0  0  0  0  0
   -1.7594    1.2031    1.8040 H   0  0  0  0  0  0  0  0  0  0  0  0
   -0.6356    1.6998    3.5400 C   0  0  0  0  0  0  0  0  0  0  0  0
   -0.4284    2.7647    3.4168 H   0  0  0  0  0  0  0  0  0  0  0  0
   -1.5268    1.5885    4.1601 H   0  0  0  0  0  0  0  0  0  0  0  0
    0.2072    1.2358    4.0566 H   0  0  0  0  0  0  0  0  0  0  0  0
  5  6  2  0  0  0  0
  5  7  1  0  0  0  0
  2  3  1  0  0  0  0
  2  4  1  0  0  0  0
  2  5  1  0  0  0  0
  1  2  1  0  0  0  0
 23 24  2  0  0  0  0
 23 25  1  0  0  0  0
 21 22  1  0  0  0  0
 19 20  1  0  0  0  0
 19 21  1  0  0  0  0
 17 18  1  0  0  0  0
 17 19  1  0  0  0  0
 15 16  1  0  0  0  0
 15 17  2  0  0  0  0
 14 15  1  0  0  0  0
 14 21  2  0  0  0  0
 11 12  1  0  0  0  0
 11 13  1  0  0  0  0
 11 14  1  0  0  0  0
  9 10  1  0  0  0  0
  9 11  1  0  0  0  0
  9 23  1  0  0  0  0
  7  8  1  0  0  0  0
  7  9  1  0  0  0  0
 27 28  1  0  0  0  0
 27 29  1  0  0  0  0
 27 30  1  0  0  0  0
 25 26  1  0  0  0  0
 25 27  1  0  0  0  0
M  CHG  1  15   1
M  END
$$$$
default_name
  -OEChem-02102213163D

 30 30  0     1  0  0  0  0  0999 V2000
   -3.5507   -3.2183    1.8116 H   0  0  0  0  0  0  0  0  0  0  0  0
   -3.4597   -2.3913    1.1076 C   0  0  0  0  0  0  0  0  0  0  0  0
   -4.1577   -1.6043    1.3866 H   0  0  0  0  0  0  0  0  0  0  0  0
   -3.6807   -2.7523    0.1036 H   0  0  0  0  0  0  0  0  0  0  0  0
   -2.0477   -1.8543    1.1546 C   0  0  0  0  0  0  0  0  0  0  0  0
   -1.2227   -2.3443    1.9146 O   0  0  0  0  0  0  0  0  0  0  0  0
   -1.7517   -0.8483    0.3266 N   0  0  0  0  0  0  0  0  0  0  0  0
   -2.4847   -0.5123   -0.2804 H   0  0  0  0  0  0  0  0  0  0  0  0
   -0.4117   -0.2463    0.2186 C   0  0  1  0  0  0  0  0  0  0  0  0
    0.2987   -1.0391   -0.0285 H   0  0  0  0  0  0  0  0  0  0  0  0
   -0.4131    0.7505   -0.9636 C   0  0  0  0  0  0  0  0  0  0  0  0
   -0.6962    0.2128   -1.8721 H   0  0  0  0  0  0  0  0  0  0  0  0
   -1.1793    1.5085   -0.7878 H   0  0  0  0  0  0  0  0  0  0  0  0
    0.9021    1.4592   -1.2094 C   0  0  0  0  0  0  0  0  0  0  0  0
    1.3541    1.8999   -2.4382 N   0  3  0  0  0  0  0  0  0  0  0  0
    0.8007    1.8417   -3.2979 H   0  0  0  0  0  0  0  0  0  0  0  0
    2.5589    2.4792   -2.2658 C   0  0  0  0  0  0  0  0  0  0  0  0
    3.1578    2.9323   -3.0531 H   0  0  0  0  0  0  0  0  0  0  0  0
    2.8817    2.4146   -0.9543 N   0  0  0  0  0  0  0  0  0  0  0  0
    3.7328    2.7746   -0.5306 H   0  0  0  0  0  0  0  0  0  0  0  0
    1.8519    1.7768   -0.2765 C   0  0  0  0  0  0  0  0  0  0  0  0
    1.7998    1.5662    0.7882 H   0  0  0  0  0  0  0  0  0  0  0  0
    0.0470    0.3465    1.5629 C   0  0  0  0  0  0  0  0  0  0  0  0
    1.1854    0.1365    1.9846 O   0  0  0  0  0  0  0  0  0  0  0  0
   -0.8551    1.0750    2.2320 N   0  0  0  0  0  0  0  0  0  0  0  0
   -1.7594    1.2031    1.8040 H   0  0  0  0  0  0  0  0  0  0  0  0
   -0.6356    1.6998    3.5400 C   0  0  0  0  0  0  0  0  0  0  0  0
   -0.4284    2.7647    3.4168 H   0  0  0  0  0  0  0  0  0  0  0  0
   -1.5268    1.5885    4.1601 H   0  0  0  0  0  0  0  0  0  0  0  0
    0.2072    1.2358    4.0566 H   0  0  0  0  0  0  0  0  0  0  0  0
  5  6  2  0  0  0  0
  5  7  1  0  0  0  0
  2  3  1  0  0  0  0
  2  4  1  0  0  0  0
  2  5  1  0  0  0  0
  1  2  1  0  0  0  0
 23 24  2  0  0  0  0
 23 25  1  0  0  0  0
 21 22  1  0  0  0  0
 19 20  1  0  0  0  0
 19 21  1  0  0  0  0
 17 18  1  0  0  0  0
 17 19  1  0  0  0  0
 15 16  1  0  0  0  0
 15 17  2  0  0  0  0
 14 15  1  0  0  0  0
 14 21  2  0  0  0  0
 11 12  1  0  0  0  0
 11 13  1  0  0  0  0
 11 14  1  0  0  0  0
  9 10  1  0  0  0  0
  9 11  1  0  0  0  0
  9 23  1  0  0  0  0
  7  8  1  0  0  0  0
  7  9  1  0  0  0  0
 27 28  1  0  0  0  0
 27 29  1  0  0  0  0
 27 30  1  0  0  0  0
 25 26  1  0  0  0  0
 25 27  1  0  0  0  0
M  CHG  1  15   1
M  END
$$$$
default_name
  -OEChem-02102213163D

 30 30  0     1  0  0  0  0  0999 V2000
   -3.5507   -3.2183    1.8116 H   0  0  0  0  0  0  0  0  0  0  0  0
   -3.4597   -2.3913    1.1076 C   0  0  0  0  0  0  0  0  0  0  0  0
   -4.1577   -1.6043    1.3866 H   0  0  0  0  0  0  0  0  0  0  0  0
   -3.6807   -2.7523    0.1036 H   0  0  0  0  0  0  0  0  0  0  0  0
   -2.0477   -1.8543    1.1546 C   0  0  0  0  0  0  0  0  0  0  0  0
   -1.2227   -2.3443    1.9146 O   0  0  0  0  0  0  0  0  0  0  0  0
   -1.7517   -0.8483    0.3266 N   0  0  0  0  0  0  0  0  0  0  0  0
   -2.4847   -0.5123   -0.2804 H   0  0  0  0  0  0  0  0  0  0  0  0
   -0.4117   -0.2463    0.2186 C   0  0  1  0  0  0  0  0  0  0  0  0
    0.2987   -1.0391   -0.0285 H   0  0  0  0  0  0  0  0  0  0  0  0
   -0.4131    0.7505   -0.9636 C   0  0  0  0  0  0  0  0  0  0  0  0
   -0.6962    0.2128   -1.8721 H   0  0  0  0  0  0  0  0  0  0  0  0
   -1.1793    1.5085   -0.7878 H   0  0  0  0  0  0  0  0  0  0  0  0
    0.9021    1.4592   -1.2094 C   0  0  0  0  0  0  0  0  0  0  0  0
    1.2320    2.1549   -2.3564 N   0  3  0  0  0  0  0  0  0  0  0  0
    0.5800    2.3093   -3.1308 H   0  0  0  0  0  0  0  0  0  0  0  0
    2.4791    2.6456   -2.2127 C   0  0  0  0  0  0  0  0  0  0  0  0
    3.0067    3.2489   -2.9487 H   0  0  0  0  0  0  0  0  0  0  0  0
    2.9482    2.2754   -0.9998 N   0  0  0  0  0  0  0  0  0  0  0  0
    3.8616    2.5056   -0.6174 H   0  0  0  0  0  0  0  0  0  0  0  0
    1.9703    1.5294   -0.3565 C   0  0  0  0  0  0  0  0  0  0  0  0
    2.0307    1.0838    0.6326 H   0  0  0  0  0  0  0  0  0  0  0  0
    0.0470    0.3465    1.5629 C   0  0  0  0  0  0  0  0  0  0  0  0
    1.1854    0.1365    1.9846 O   0  0  0  0  0  0  0  0  0  0  0  0
   -0.8551    1.0750    2.2320 N   0  0  0  0  0  0  0  0  0  0  0  0
   -1.7594    1.2031    1.8040 H   0  0  0  0  0  0  0  0  0  0  0  0
   -0.6356    1.6998    3.5400 C   0  0  0  0  0  0  0  0  0  0  0  0
   -0.4284    2.7647    3.4168 H   0  0  0  0  0  0  0  0  0  0  0  0
   -1.5268    1.5885    4.1601 H   0  0  0  0  0  0  0  0  0  0  0  0
    0.2072    1.2358    4.0566 H   0  0  0  0  0  0  0  0  0  0  0  0
  5  6  2  0  0  0  0
  5  7  1  0  0  0  0
  2  3  1  0  0  0  0
  2  4  1  0  0  0  0
  2  5  1  0  0  0  0
  1  2  1  0  0  0  0
 23 24  2  0  0  0  0
 23 25  1  0  0  0  0
 21 22  1  0  0  0  0
 19 20  1  0  0  0  0
 19 21  1  0  0  0  0
 17 18  1  0  0  0  0
 17 19  1  0  0  0  0
 15 16  1  0  0  0  0
 15 17  2  0  0  0  0
 14 15  1  0  0  0  0
 14 21  2  0  0  0  0
 11 12  1  0  0  0  0
 11 13  1  0  0  0  0
 11 14  1  0  0  0  0
  9 10  1  0  0  0  0
  9 11  1  0  0  0  0
  9 23  1  0  0  0  0
  7  8  1  0  0  0  0
  7  9  1  0  0  0  0
 27 28  1  0  0  0  0
 27 29  1  0  0  0  0
 27 30  1  0  0  0  0
 25 26  1  0  0  0  0
 25 27  1  0  0  0  0
M  CHG  1  15   1
M  END
$$$$
default_name
  -OEChem-02102213163D

 30 30  0     1  0  0  0  0  0999 V2000
   -3.5507   -3.2183    1.8116 H   0  0  0  0  0  0  0  0  0  0  0  0
   -3.4597   -2.3913    1.1076 C   0  0  0  0  0  0  0  0  0  0  0  0
   -4.1577   -1.6043    1.3866 H   0  0  0  0  0  0  0  0  0  0  0  0
   -3.6807   -2.7523    0.1036 H   0  0  0  0  0  0  0  0  0  0  0  0
   -2.0477   -1.8543    1.1546 C   0  0  0  0  0  0  0  0  0  0  0  0
   -1.2227   -2.3443    1.9146 O   0  0  0  0  0  0  0  0  0  0  0  0
   -1.7517   -0.8483    0.3266 N   0  0  0  0  0  0  0  0  0  0  0  0
   -2.4847   -0.5123   -0.2804 H   0  0  0  0  0  0  0  0  0  0  0  0
   -0.4117   -0.2463    0.2186 C   0  0  1  0  0  0  0  0  0  0  0  0
    0.2987   -1.0391   -0.0285 H   0  0  0  0  0  0  0  0  0  0  0  0
   -0.4131    0.7505   -0.9636 C   0  0  0  0  0  0  0  0  0  0  0  0
   -0.9445    0.2945   -1.8028 H   0  0  0  0  0  0  0  0  0  0  0  0
   -0.9739    1.6421   -0.6754 H   0  0  0  0  0  0  0  0  0  0  0  0
    0.9565    1.1889   -1.4374 C   0  0  0  0  0  0  0  0  0  0  0  0
    1.1987    2.0696   -2.4738 N   0  3  0  0  0  0  0  0  0  0  0  0
    0.4582    2.5620   -2.9815 H   0  0  0  0  0  0  0  0  0  0  0  0
    2.5321    2.2163   -2.6048 C   0  0  0  0  0  0  0  0  0  0  0  0
    3.0263    2.8587   -3.3308 H   0  0  0  0  0  0  0  0  0  0  0  0
    3.1414    1.4469   -1.6746 N   0  0  0  0  0  0  0  0  0  0  0  0
    4.1447    1.3604   -1.5357 H   0  0  0  0  0  0  0  0  0  0  0  0
    2.1663    0.7946   -0.9329 C   0  0  0  0  0  0  0  0  0  0  0  0
    2.3223    0.1036   -0.1091 H   0  0  0  0  0  0  0  0  0  0  0  0
    0.0470    0.3465    1.5629 C   0  0  0  0  0  0  0  0  0  0  0  0
    1.1854    0.1365    1.9846 O   0  0  0  0  0  0  0  0  0  0  0  0
   -0.8551    1.0750    2.2320 N   0  0  0  0  0  0  0  0  0  0  0  0
   -1.7594    1.2031    1.8040 H   0  0  0  0  0  0  0  0  0  0  0  0
   -0.6356    1.6998    3.5400 C   0  0  0  0  0  0  0  0  0  0  0  0
   -0.4284    2.7647    3.4168 H   0  0  0  0  0  0  0  0  0  0  0  0
   -1.5268    1.5885    4.1601 H   0  0  0  0  0  0  0  0  0  0  0  0
    0.2072    1.2358    4.0566 H   0  0  0  0  0  0  0  0  0  0  0  0
  5  6  2  0  0  0  0
  5  7  1  0  0  0  0
  2  3  1  0  0  0  0
  2  4  1  0  0  0  0
  2  5  1  0  0  0  0
  1  2  1  0  0  0  0
 23 24  2  0  0  0  0
 23 25  1  0  0  0  0
 21 22  1  0  0  0  0
 19 20  1  0  0  0  0
 19 21  1  0  0  0  0
 17 18  1  0  0  0  0
 17 19  1  0  0  0  0
 15 16  1  0  0  0  0
 15 17  2  0  0  0  0
 14 15  1  0  0  0  0
 14 21  2  0  0  0  0
 11 12  1  0  0  0  0
 11 13  1  0  0  0  0
 11 14  1  0  0  0  0
  9 10  1  0  0  0  0
  9 11  1  0  0  0  0
  9 23  1  0  0  0  0
  7  8  1  0  0  0  0
  7  9  1  0  0  0  0
 27 28  1  0  0  0  0
 27 29  1  0  0  0  0
 27 30  1  0  0  0  0
 25 26  1  0  0  0  0
 25 27  1  0  0  0  0
M  CHG  1  15   1
M  END
$$$$
default_name
  -OEChem-02102213163D

 30 30  0     1  0  0  0  0  0999 V2000
   -3.5507   -3.2183    1.8116 H   0  0  0  0  0  0  0  0  0  0  0  0
   -3.4597   -2.3913    1.1076 C   0  0  0  0  0  0  0  0  0  0  0  0
   -4.1577   -1.6043    1.3866 H   0  0  0  0  0  0  0  0  0  0  0  0
   -3.6807   -2.7523    0.1036 H   0  0  0  0  0  0  0  0  0  0  0  0
   -2.0477   -1.8543    1.1546 C   0  0  0  0  0  0  0  0  0  0  0  0
   -1.2227   -2.3443    1.9146 O   0  0  0  0  0  0  0  0  0  0  0  0
   -1.7517   -0.8483    0.3266 N   0  0  0  0  0  0  0  0  0  0  0  0
   -2.4847   -0.5123   -0.2804 H   0  0  0  0  0  0  0  0  0  0  0  0
   -0.4117   -0.2463    0.2186 C   0  0  1  0  0  0  0  0  0  0  0  0
    0.2987   -1.0391   -0.0285 H   0  0  0  0  0  0  0  0  0  0  0  0
   -0.4131    0.7505   -0.9636 C   0  0  0  0  0  0  0  0  0  0  0  0
   -0.9445    0.2945   -1.8028 H   0  0  0  0  0  0  0  0  0  0  0  0
   -0.9739    1.6421   -0.6754 H   0  0  0  0  0  0  0  0  0  0  0  0
    0.9565    1.1889   -1.4374 C   0  0  0  0  0  0  0  0  0  0  0  0
    1.2087    2.2705   -2.2589 N   0  3  0  0  0  0  0  0  0  0  0  0
    0.4839    2.9214   -2.5747 H   0  0  0  0  0  0  0  0  0  0  0  0
    2.5385    2.3477   -2.4648 C   0  0  0  0  0  0  0  0  0  0  0  0
    3.0400    3.1066   -3.0619 H   0  0  0  0  0  0  0  0  0  0  0  0
    3.1356    1.3377   -1.7925 N   0  0  0  0  0  0  0  0  0  0  0  0
    4.1340    1.1486   -1.7628 H   0  0  0  0  0  0  0  0  0  0  0  0
    2.1563    0.6001   -1.1418 C   0  0  0  0  0  0  0  0  0  0  0  0
    2.3030   -0.2760   -0.5162 H   0  0  0  0  0  0  0  0  0  0  0  0
    0.0470    0.3465    1.5629 C   0  0  0  0  0  0  0  0  0  0  0  0
    1.1854    0.1365    1.9846 O   0  0  0  0  0  0  0  0  0  0  0  0
   -0.8551    1.0750    2.2320 N   0  0  0  0  0  0  0  0  0  0  0  0
   -1.7594    1.2031    1.8040 H   0  0  0  0  0  0  0  0  0  0  0  0
   -0.6356    1.6998    3.5400 C   0  0  0  0  0  0  0  0  0  0  0  0
   -0.4284    2.7647    3.4168 H   0  0  0  0  0  0  0  0  0  0  0  0
   -1.5268    1.5885    4.1601 H   0  0  0  0  0  0  0  0  0  0  0  0
    0.2072    1.2358    4.0566 H   0  0  0  0  0  0  0  0  0  0  0  0
  5  6  2  0  0  0  0
  5  7  1  0  0  0  0
  2  3  1  0  0  0  0
  2  4  1  0  0  0  0
  2  5  1  0  0  0  0
  1  2  1  0  0  0  0
 23 24  2  0  0  0  0
 23 25  1  0  0  0  0
 21 22  1  0  0  0  0
 19 20  1  0  0  0  0
 19 21  1  0  0  0  0
 17 18  1  0  0  0  0
 17 19  1  0  0  0  0
 15 16  1  0  0  0  0
 15 17  2  0  0  0  0
 14 15  1  0  0  0  0
 14 21  2  0  0  0  0
 11 12  1  0  0  0  0
 11 13  1  0  0  0  0
 11 14  1  0  0  0  0
  9 10  1  0  0  0  0
  9 11  1  0  0  0  0
  9 23  1  0  0  0  0
  7  8  1  0  0  0  0
  7  9  1  0  0  0  0
 27 28  1  0  0  0  0
 27 29  1  0  0  0  0
 27 30  1  0  0  0  0
 25 26  1  0  0  0  0
 25 27  1  0  0  0  0
M  CHG  1  15   1
M  END
$$$$
default_name
  -OEChem-02102213163D

 30 30  0     1  0  0  0  0  0999 V2000
   -3.5507   -3.2183    1.8116 H   0  0  0  0  0  0  0  0  0  0  0  0
   -3.4597   -2.3913    1.1076 C   0  0  0  0  0  0  0  0  0  0  0  0
   -4.1577   -1.6043    1.3866 H   0  0  0  0  0  0  0  0  0  0  0  0
   -3.6807   -2.7523    0.1036 H   0  0  0  0  0  0  0  0  0  0  0  0
   -2.0477   -1.8543    1.1546 C   0  0  0  0  0  0  0  0  0  0  0  0
   -1.2227   -2.3443    1.9146 O   0  0  0  0  0  0  0  0  0  0  0  0
   -1.7517   -0.8483    0.3266 N   0  0  0  0  0  0  0  0  0  0  0  0
   -2.4847   -0.5123   -0.2804 H   0  0  0  0  0  0  0  0  0  0  0  0
   -0.4117   -0.2463    0.2186 C   0  0  1  0  0  0  0  0  0  0  0  0
    0.2987   -1.0391   -0.0285 H   0  0  0  0  0  0  0  0  0  0  0  0
   -0.4131    0.7505   -0.9636 C   0  0  0  0  0  0  0  0  0  0  0  0
   -0.9445    0.2945   -1.8028 H   0  0  0  0  0  0  0  0  0  0  0  0
   -0.9739    1.6421   -0.6754 H   0  0  0  0  0  0  0  0  0  0  0  0
    0.9565    1.1889   -1.4374 C   0  0  0  0  0  0  0  0  0  0  0  0
    1.2508    2.4134   -2.0051 N   0  3  0  0  0  0  0  0  0  0  0  0
    0.5683    3.1711   -2.0995 H   0  0  0  0  0  0  0  0  0  0  0  0
    2.5658    2.4412   -2.2993 C   0  0  0  0  0  0  0  0  0  0  0  0
    3.0934    3.2820   -2.7452 H   0  0  0  0  0  0  0  0  0  0  0  0
    3.1123    1.2603   -1.9316 N   0  0  0  0  0  0  0  0  0  0  0  0
    4.0895    0.9981   -2.0308 H   0  0  0  0  0  0  0  0  0  0  0  0
    2.1152    0.4619   -1.3884 C   0  0  0  0  0  0  0  0  0  0  0  0
    2.2232   -0.5458   -0.9969 H   0  0  0  0  0  0  0  0  0  0  0  0
    0.0470    0.3465    1.5629 C   0  0  0  0  0  0  0  0  0  0  0  0
    1.1854    0.1365    1.9846 O   0  0  0  0  0  0  0  0  0  0  0  0
   -0.8551    1.0750    2.2320 N   0  0  0  0  0  0  0  0  0  0  0  0
   -1.7594    1.2031    1.8040 H   0  0  0  0  0  0  0  0  0  0  0  0
   -0.6356    1.6998    3.5400 C   0  0  0  0  0  0  0  0  0  0  0  0
   -0.4284    2.7647    3.4168 H   0  0  0  0  0  0  0  0  0  0  0  0
   -1.5268    1.5885    4.1601 H   0  0  0  0  0  0  0  0  0  0  0  0
    0.2072    1.2358    4.0566 H   0  0  0  0  0  0  0  0  0  0  0  0
  5  6  2  0  0  0  0
  5  7  1  0  0  0  0
  2  3  1  0  0  0  0
  2  4  1  0  0  0  0
  2  5  1  0  0  0  0
  1  2  1  0  0  0  0
 23 24  2  0  0  0  0
 23 25  1  0  0  0  0
 21 22  1  0  0  0  0
 19 20  1  0  0  0  0
 19 21  1  0  0  0  0
 17 18  1  0  0  0  0
 17 19  1  0  0  0  0
 15 16  1  0  0  0  0
 15 17  2  0  0  0  0
 14 15  1  0  0  0  0
 14 21  2  0  0  0  0
 11 12  1  0  0  0  0
 11 13  1  0  0  0  0
 11 14  1  0  0  0  0
  9 10  1  0  0  0  0
  9 11  1  0  0  0  0
  9 23  1  0  0  0  0
  7  8  1  0  0  0  0
  7  9  1  0  0  0  0
 27 28  1  0  0  0  0
 27 29  1  0  0  0  0
 27 30  1  0  0  0  0
 25 26  1  0  0  0  0
 25 27  1  0  0  0  0
M  CHG  1  15   1
M  END
$$$$
default_name
  -OEChem-02102213163D

 30 30  0     1  0  0  0  0  0999 V2000
   -3.5507   -3.2183    1.8116 H   0  0  0  0  0  0  0  0  0  0  0  0
   -3.4597   -2.3913    1.1076 C   0  0  0  0  0  0  0  0  0  0  0  0
   -4.1577   -1.6043    1.3866 H   0  0  0  0  0  0  0  0  0  0  0  0
   -3.6807   -2.7523    0.1036 H   0  0  0  0  0  0  0  0  0  0  0  0
   -2.0477   -1.8543    1.1546 C   0  0  0  0  0  0  0  0  0  0  0  0
   -1.2227   -2.3443    1.9146 O   0  0  0  0  0  0  0  0  0  0  0  0
   -1.7517   -0.8483    0.3266 N   0  0  0  0  0  0  0  0  0  0  0  0
   -2.4847   -0.5123   -0.2804 H   0  0  0  0  0  0  0  0  0  0  0  0
   -0.4117   -0.2463    0.2186 C   0  0  1  0  0  0  0  0  0  0  0  0
    0.2987   -1.0391   -0.0285 H   0  0  0  0  0  0  0  0  0  0  0  0
   -0.4131    0.7505   -0.9636 C   0  0  0  0  0  0  0  0  0  0  0  0
   -0.9445    0.2945   -1.8028 H   0  0  0  0  0  0  0  0  0  0  0  0
   -0.9739    1.6421   -0.6754 H   0  0  0  0  0  0  0  0  0  0  0  0
    0.9565    1.1889   -1.4374 C   0  0  0  0  0  0  0  0  0  0  0  0
    1.3220    2.4887   -1.7296 N   0  3  0  0  0  0  0  0  0  0  0  0
    0.7057    3.2943   -1.5883 H   0  0  0  0  0  0  0  0  0  0  0  0
    2.6121    2.4906   -2.1196 C   0  0  0  0  0  0  0  0  0  0  0  0
    3.1829    3.3729   -2.4021 H   0  0  0  0  0  0  0  0  0  0  0  0
    3.0731    1.2200   -2.0822 N   0  0  0  0  0  0  0  0  0  0  0  0
    4.0141    0.9191   -2.3217 H   0  0  0  0  0  0  0  0  0  0  0  0
    2.0459    0.3895   -1.6559 C   0  0  0  0  0  0  0  0  0  0  0  0
    2.0881   -0.6874   -1.5183 H   0  0  0  0  0  0  0  0  0  0  0  0
    0.0470    0.3465    1.5629 C   0  0  0  0  0  0  0  0  0  0  0  0
    1.1854    0.1365    1.9846 O   0  0  0  0  0  0  0  0  0  0  0  0
   -0.8551    1.0750    2.2320 N   0  0  0  0  0  0  0  0  0  0  0  0
   -1.7594    1.2031    1.8040 H   0  0  0  0  0  0  0  0  0  0  0  0
   -0.6356    1.6998    3.5400 C   0  0  0  0  0  0  0  0  0  0  0  0
   -0.4284    2.7647    3.4168 H   0  0  0  0  0  0  0  0  0  0  0  0
   -1.5268    1.5885    4.1601 H   0  0  0  0  0  0  0  0  0  0  0  0
    0.2072    1.2358    4.0566 H   0  0  0  0  0  0  0  0  0  0  0  0
  5  6  2  0  0  0  0
  5  7  1  0  0  0  0
  2  3  1  0  0  0  0
  2  4  1  0  0  0  0
  2  5  1  0  0  0  0
  1  2  1  0  0  0  0
 23 24  2  0  0  0  0
 23 25  1  0  0  0  0
 21 22  1  0  0  0  0
 19 20  1  0  0  0  0
 19 21  1  0  0  0  0
 17 18  1  0  0  0  0
 17 19  1  0  0  0  0
 15 16  1  0  0  0  0
 15 17  2  0  0  0  0
 14 15  1  0  0  0  0
 14 21  2  0  0  0  0
 11 12  1  0  0  0  0
 11 13  1  0  0  0  0
 11 14  1  0  0  0  0
  9 10  1  0  0  0  0
  9 11  1  0  0  0  0
  9 23  1  0  0  0  0
  7  8  1  0  0  0  0
  7  9  1  0  0  0  0
 27 28  1  0  0  0  0
 27 29  1  0  0  0  0
 27 30  1  0  0  0  0
 25 26  1  0  0  0  0
 25 27  1  0  0  0  0
M  CHG  1  15   1
M  END
$$$$
default_name
  -OEChem-02102213163D

 30 30  0     1  0  0  0  0  0999 V2000
   -3.5507   -3.2183    1.8116 H   0  0  0  0  0  0  0  0  0  0  0  0
   -3.4597   -2.3913    1.1076 C   0  0  0  0  0  0  0  0  0  0  0  0
   -4.1577   -1.6043    1.3866 H   0  0  0  0  0  0  0  0  0  0  0  0
   -3.6807   -2.7523    0.1036 H   0  0  0  0  0  0  0  0  0  0  0  0
   -2.0477   -1.8543    1.1546 C   0  0  0  0  0  0  0  0  0  0  0  0
   -1.2227   -2.3443    1.9146 O   0  0  0  0  0  0  0  0  0  0  0  0
   -1.7517   -0.8483    0.3266 N   0  0  0  0  0  0  0  0  0  0  0  0
   -2.4847   -0.5123   -0.2804 H   0  0  0  0  0  0  0  0  0  0  0  0
   -0.4117   -0.2463    0.2186 C   0  0  1  0  0  0  0  0  0  0  0  0
    0.2987   -1.0391   -0.0285 H   0  0  0  0  0  0  0  0  0  0  0  0
   -0.4131    0.7505   -0.9636 C   0  0  0  0  0  0  0  0  0  0  0  0
   -0.9445    0.2945   -1.8028 H   0  0  0  0  0  0  0  0  0  0  0  0
   -0.9739    1.6421   -0.6754 H   0  0  0  0  0  0  0  0  0  0  0  0
    0.9565    1.1889   -1.4374 C   0  0  0  0  0  0  0  0  0  0  0  0
    1.4175    2.4911   -1.4513 N   0  3  0  0  0  0  0  0  0  0  0  0
    0.8867    3.2824   -1.0760 H   0  0  0  0  0  0  0  0  0  0  0  0
    2.6744    2.4925   -1.9380 C   0  0  0  0  0  0  0  0  0  0  0  0
    3.3025    3.3732   -2.0562 H   0  0  0  0  0  0  0  0  0  0  0  0
    3.0206    1.2195   -2.2343 N   0  0  0  0  0  0  0  0  0  0  0  0
    3.9132    0.9170   -2.6155 H   0  0  0  0  0  0  0  0  0  0  0  0
    1.9530    0.3878   -1.9260 C   0  0  0  0  0  0  0  0  0  0  0  0
    1.9071   -0.6912   -2.0450 H   0  0  0  0  0  0  0  0  0  0  0  0
    0.0470    0.3465    1.5629 C   0  0  0  0  0  0  0  0  0  0  0  0
    1.1854    0.1365    1.9846 O   0  0  0  0  0  0  0  0  0  0  0  0
   -0.8551    1.0750    2.2320 N   0  0  0  0  0  0  0  0  0  0  0  0
   -1.7594    1.2031    1.8040 H   0  0  0  0  0  0  0  0  0  0  0  0
   -0.6356    1.6998    3.5400 C   0  0  0  0  0  0  0  0  0  0  0  0
   -0.4284    2.7647    3.4168 H   0  0  0  0  0  0  0  0  0  0  0  0
   -1.5268    1.5885    4.1601 H   0  0  0  0  0  0  0  0  0  0  0  0
    0.2072    1.2358    4.0566 H   0  0  0  0  0  0  0  0  0  0  0  0
  5  6  2  0  0  0  0
  5  7  1  0  0  0  0
  2  3  1  0  0  0  0
  2  4  1  0  0  0  0
  2  5  1  0  0  0  0
  1  2  1  0  0  0  0
 23 24  2  0  0  0  0
 23 25  1  0  0  0  0
 21 22  1  0  0  0  0
 19 20  1  0  0  0  0
 19 21  1  0  0  0  0
 17 18  1  0  0  0  0
 17 19  1  0  0  0  0
 15 16  1  0  0  0  0
 15 17  2  0  0  0  0
 14 15  1  0  0  0  0
 14 21  2  0  0  0  0
 11 12  1  0  0  0  0
 11 13  1  0  0  0  0
 11 14  1  0  0  0  0
  9 10  1  0  0  0  0
  9 11  1  0  0  0  0
  9 23  1  0  0  0  0
  7  8  1  0  0  0  0
  7  9  1  0  0  0  0
 27 28  1  0  0  0  0
 27 29  1  0  0  0  0
 27 30  1  0  0  0  0
 25 26  1  0  0  0  0
 25 27  1  0  0  0  0
M  CHG  1  15   1
M  END
$$$$
default_name
  -OEChem-02102213163D

 30 30  0     1  0  0  0  0  0999 V2000
   -3.5507   -3.2183    1.8116 H   0  0  0  0  0  0  0  0  0  0  0  0
   -3.4597   -2.3913    1.1076 C   0  0  0  0  0  0  0  0  0  0  0  0
   -4.1577   -1.6043    1.3866 H   0  0  0  0  0  0  0  0  0  0  0  0
   -3.6807   -2.7523    0.1036 H   0  0  0  0  0  0  0  0  0  0  0  0
   -2.0477   -1.8543    1.1546 C   0  0  0  0  0  0  0  0  0  0  0  0
   -1.2227   -2.3443    1.9146 O   0  0  0  0  0  0  0  0  0  0  0  0
   -1.7517   -0.8483    0.3266 N   0  0  0  0  0  0  0  0  0  0  0  0
   -2.4847   -0.5123   -0.2804 H   0  0  0  0  0  0  0  0  0  0  0  0
   -0.4117   -0.2463    0.2186 C   0  0  1  0  0  0  0  0  0  0  0  0
    0.2987   -1.0391   -0.0285 H   0  0  0  0  0  0  0  0  0  0  0  0
   -0.4131    0.7505   -0.9636 C   0  0  0  0  0  0  0  0  0  0  0  0
   -0.9445    0.2945   -1.8028 H   0  0  0  0  0  0  0  0  0  0  0  0
   -0.9739    1.6421   -0.6754 H   0  0  0  0  0  0  0  0  0  0  0  0
    0.9565    1.1889   -1.4374 C   0  0  0  0  0  0  0  0  0  0  0  0
    1.5308    2.4205   -1.1890 N   0  3  0  0  0  0  0  0  0  0  0  0
    1.0989    3.1364   -0.5976 H   0  0  0  0  0  0  0  0  0  0  0  0
    2.7482    2.4468   -1.7667 C   0  0  0  0  0  0  0  0  0  0  0  0
    3.4439    3.2827   -1.7310 H   0  0  0  0  0  0  0  0  0  0  0  0
    2.9586    1.2588   -2.3773 N   0  0  0  0  0  0  0  0  0  0  0  0
    3.7935    0.9919   -2.8922 H   0  0  0  0  0  0  0  0  0  0  0  0
    1.8429    0.4569   -2.1804 C   0  0  0  0  0  0  0  0  0  0  0  0
    1.6925   -0.5568   -2.5411 H   0  0  0  0  0  0  0  0  0  0  0  0
    0.0470    0.3465    1.5629 C   0  0  0  0  0  0  0  0  0  0  0  0
    1.1854    0.1365    1.9846 O   0  0  0  0  0  0  0  0  0  0  0  0
   -0.8551    1.0750    2.2320 N   0  0  0  0  0  0  0  0  0  0  0  0
   -1.7594    1.2031    1.8040 H   0  0  0  0  0  0  0  0  0  0  0  0
   -0.6356    1.6998    3.5400 C   0  0  0  0  0  0  0  0  0  0  0  0
   -0.4284    2.7647    3.4168 H   0  0  0  0  0  0  0  0  0  0  0  0
   -1.5268    1.5885    4.1601 H   0  0  0  0  0  0  0  0  0  0  0  0
    0.2072    1.2358    4.0566 H   0  0  0  0  0  0  0  0  0  0  0  0
  5  6  2  0  0  0  0
  5  7  1  0  0  0  0
  2  3  1  0  0  0  0
  2  4  1  0  0  0  0
  2  5  1  0  0  0  0
  1  2  1  0  0  0  0
 23 24  2  0  0  0  0
 23 25  1  0  0  0  0
 21 22  1  0  0  0  0
 19 20  1  0  0  0  0
 19 21  1  0  0  0  0
 17 18  1  0  0  0  0
 17 19  1  0  0  0  0
 15 16  1  0  0  0  0
 15 17  2  0  0  0  0
 14 15  1  0  0  0  0
 14 21  2  0  0  0  0
 11 12  1  0  0  0  0
 11 13  1  0  0  0  0
 11 14  1  0  0  0  0
  9 10  1  0  0  0  0
  9 11  1  0  0  0  0
  9 23  1  0  0  0  0
  7  8  1  0  0  0  0
  7  9  1  0  0  0  0
 27 28  1  0  0  0  0
 27 29  1  0  0  0  0
 27 30  1  0  0  0  0
 25 26  1  0  0  0  0
 25 27  1  0  0  0  0
M  CHG  1  15   1
M  END
$$$$
default_name
  -OEChem-02102213163D

 30 30  0     1  0  0  0  0  0999 V2000
   -3.5507   -3.2183    1.8116 H   0  0  0  0  0  0  0  0  0  0  0  0
   -3.4597   -2.3913    1.1076 C   0  0  0  0  0  0  0  0  0  0  0  0
   -4.1577   -1.6043    1.3866 H   0  0  0  0  0  0  0  0  0  0  0  0
   -3.6807   -2.7523    0.1036 H   0  0  0  0  0  0  0  0  0  0  0  0
   -2.0477   -1.8543    1.1546 C   0  0  0  0  0  0  0  0  0  0  0  0
   -1.2227   -2.3443    1.9146 O   0  0  0  0  0  0  0  0  0  0  0  0
   -1.7517   -0.8483    0.3266 N   0  0  0  0  0  0  0  0  0  0  0  0
   -2.4847   -0.5123   -0.2804 H   0  0  0  0  0  0  0  0  0  0  0  0
   -0.4117   -0.2463    0.2186 C   0  0  1  0  0  0  0  0  0  0  0  0
    0.2987   -1.0391   -0.0285 H   0  0  0  0  0  0  0  0  0  0  0  0
   -0.4131    0.7505   -0.9636 C   0  0  0  0  0  0  0  0  0  0  0  0
   -0.9445    0.2945   -1.8028 H   0  0  0  0  0  0  0  0  0  0  0  0
   -0.9739    1.6421   -0.6754 H   0  0  0  0  0  0  0  0  0  0  0  0
    0.9565    1.1889   -1.4374 C   0  0  0  0  0  0  0  0  0  0  0  0
    1.6542    2.2818   -0.9606 N   0  3  0  0  0  0  0  0  0  0  0  0
    1.3280    2.8661   -0.1855 H   0  0  0  0  0  0  0  0  0  0  0  0
    2.8287    2.3566   -1.6175 C   0  0  0  0  0  0  0  0  0  0  0  0
    3.5976    3.1078   -1.4486 H   0  0  0  0  0  0  0  0  0  0  0  0
    2.8911    1.3353   -2.5016 N   0  0  0  0  0  0  0  0  0  0  0  0
    3.6632    1.1387   -3.1330 H   0  0  0  0  0  0  0  0  0  0  0  0
    1.7231    0.5922   -2.4016 C   0  0  0  0  0  0  0  0  0  0  0  0
    1.4590   -0.2935   -2.9728 H   0  0  0  0  0  0  0  0  0  0  0  0
    0.0470    0.3465    1.5629 C   0  0  0  0  0  0  0  0  0  0  0  0
    1.1854    0.1365    1.9846 O   0  0  0  0  0  0  0  0  0  0  0  0
   -0.8551    1.0750    2.2320 N   0  0  0  0  0  0  0  0  0  0  0  0
   -1.7594    1.2031    1.8040 H   0  0  0  0  0  0  0  0  0  0  0  0
   -0.6356    1.6998    3.5400 C   0  0  0  0  0  0  0  0  0  0  0  0
   -0.4284    2.7647    3.4168 H   0  0  0  0  0  0  0  0  0  0  0  0
   -1.5268    1.5885    4.1601 H   0  0  0  0  0  0  0  0  0  0  0  0
    0.2072    1.2358    4.0566 H   0  0  0  0  0  0  0  0  0  0  0  0
  5  6  2  0  0  0  0
  5  7  1  0  0  0  0
  2  3  1  0  0  0  0
  2  4  1  0  0  0  0
  2  5  1  0  0  0  0
  1  2  1  0  0  0  0
 23 24  2  0  0  0  0
 23 25  1  0  0  0  0
 21 22  1  0  0  0  0
 19 20  1  0  0  0  0
 19 21  1  0  0  0  0
 17 18  1  0  0  0  0
 17 19  1  0  0  0  0
 15 16  1  0  0  0  0
 15 17  2  0  0  0  0
 14 15  1  0  0  0  0
 14 21  2  0  0  0  0
 11 12  1  0  0  0  0
 11 13  1  0  0  0  0
 11 14  1  0  0  0  0
  9 10  1  0  0  0  0
  9 11  1  0  0  0  0
  9 23  1  0  0  0  0
  7  8  1  0  0  0  0
  7  9  1  0  0  0  0
 27 28  1  0  0  0  0
 27 29  1  0  0  0  0
 27 30  1  0  0  0  0
 25 26  1  0  0  0  0
 25 27  1  0  0  0  0
M  CHG  1  15   1
M  END
$$$$
default_name
  -OEChem-02102213163D

 30 30  0     1  0  0  0  0  0999 V2000
   -3.5507   -3.2183    1.8116 H   0  0  0  0  0  0  0  0  0  0  0  0
   -3.4597   -2.3913    1.1076 C   0  0  0  0  0  0  0  0  0  0  0  0
   -4.1577   -1.6043    1.3866 H   0  0  0  0  0  0  0  0  0  0  0  0
   -3.6807   -2.7523    0.1036 H   0  0  0  0  0  0  0  0  0  0  0  0
   -2.0477   -1.8543    1.1546 C   0  0  0  0  0  0  0  0  0  0  0  0
   -1.2227   -2.3443    1.9146 O   0  0  0  0  0  0  0  0  0  0  0  0
   -1.7517   -0.8483    0.3266 N   0  0  0  0  0  0  0  0  0  0  0  0
   -2.4847   -0.5123   -0.2804 H   0  0  0  0  0  0  0  0  0  0  0  0
   -0.4117   -0.2463    0.2186 C   0  0  1  0  0  0  0  0  0  0  0  0
    0.2987   -1.0391   -0.0285 H   0  0  0  0  0  0  0  0  0  0  0  0
   -0.4131    0.7505   -0.9636 C   0  0  0  0  0  0  0  0  0  0  0  0
   -0.9445    0.2945   -1.8028 H   0  0  0  0  0  0  0  0  0  0  0  0
   -0.9739    1.6421   -0.6754 H   0  0  0  0  0  0  0  0  0  0  0  0
    0.9565    1.1889   -1.4374 C   0  0  0  0  0  0  0  0  0  0  0  0
    1.7792    2.0843   -0.7818 N   0  3  0  0  0  0  0  0  0  0  0  0
    1.5582    2.4900    0.1321 H   0  0  0  0  0  0  0  0  0  0  0  0
    2.9103    2.2279   -1.5006 C   0  0  0  0  0  0  0  0  0  0  0  0
    3.7530    2.8603   -1.2284 H   0  0  0  0  0  0  0  0  0  0  0  0
    2.8228    1.4438   -2.5987 N   0  0  0  0  0  0  0  0  0  0  0  0
    3.5312    1.3474   -3.3214 H   0  0  0  0  0  0  0  0  0  0  0  0
    1.6017    0.7843   -2.5747 C   0  0  0  0  0  0  0  0  0  0  0  0
    1.2223    0.0807   -3.3106 H   0  0  0  0  0  0  0  0  0  0  0  0
    0.0470    0.3465    1.5629 C   0  0  0  0  0  0  0  0  0  0  0  0
    1.1854    0.1365    1.9846 O   0  0  0  0  0  0  0  0  0  0  0  0
   -0.8551    1.0750    2.2320 N   0  0  0  0  0  0  0  0  0  0  0  0
   -1.7594    1.2031    1.8040 H   0  0  0  0  0  0  0  0  0  0  0  0
   -0.6356    1.6998    3.5400 C   0  0  0  0  0  0  0  0  0  0  0  0
   -0.4284    2.7647    3.4168 H   0  0  0  0  0  0  0  0  0  0  0  0
   -1.5268    1.5885    4.1601 H   0  0  0  0  0  0  0  0  0  0  0  0
    0.2072    1.2358    4.0566 H   0  0  0  0  0  0  0  0  0  0  0  0
  5  6  2  0  0  0  0
  5  7  1  0  0  0  0
  2  3  1  0  0  0  0
  2  4  1  0  0  0  0
  2  5  1  0  0  0  0
  1  2  1  0  0  0  0
 23 24  2  0  0  0  0
 23 25  1  0  0  0  0
 21 22  1  0  0  0  0
 19 20  1  0  0  0  0
 19 21  1  0  0  0  0
 17 18  1  0  0  0  0
 17 19  1  0  0  0  0
 15 16  1  0  0  0  0
 15 17  2  0  0  0  0
 14 15  1  0  0  0  0
 14 21  2  0  0  0  0
 11 12  1  0  0  0  0
 11 13  1  0  0  0  0
 11 14  1  0  0  0  0
  9 10  1  0  0  0  0
  9 11  1  0  0  0  0
  9 23  1  0  0  0  0
  7  8  1  0  0  0  0
  7  9  1  0  0  0  0
 27 28  1  0  0  0  0
 27 29  1  0  0  0  0
 27 30  1  0  0  0  0
 25 26  1  0  0  0  0
 25 27  1  0  0  0  0
M  CHG  1  15   1
M  END
$$$$
default_name
  -OEChem-02102213163D

 30 30  0     1  0  0  0  0  0999 V2000
   -3.5507   -3.2183    1.8116 H   0  0  0  0  0  0  0  0  0  0  0  0
   -3.4597   -2.3913    1.1076 C   0  0  0  0  0  0  0  0  0  0  0  0
   -4.1577   -1.6043    1.3866 H   0  0  0  0  0  0  0  0  0  0  0  0
   -3.6807   -2.7523    0.1036 H   0  0  0  0  0  0  0  0  0  0  0  0
   -2.0477   -1.8543    1.1546 C   0  0  0  0  0  0  0  0  0  0  0  0
   -1.2227   -2.3443    1.9146 O   0  0  0  0  0  0  0  0  0  0  0  0
   -1.7517   -0.8483    0.3266 N   0  0  0  0  0  0  0  0  0  0  0  0
   -2.4847   -0.5123   -0.2804 H   0  0  0  0  0  0  0  0  0  0  0  0
   -0.4117   -0.2463    0.2186 C   0  0  1  0  0  0  0  0  0  0  0  0
    0.2987   -1.0391   -0.0285 H   0  0  0  0  0  0  0  0  0  0  0  0
   -0.4131    0.7505   -0.9636 C   0  0  0  0  0  0  0  0  0  0  0  0
   -0.9445    0.2945   -1.8028 H   0  0  0  0  0  0  0  0  0  0  0  0
   -0.9739    1.6421   -0.6754 H   0  0  0  0  0  0  0  0  0  0  0  0
    0.9565    1.1889   -1.4374 C   0  0  0  0  0  0  0  0  0  0  0  0
    1.8974    1.8416   -0.6647 N   0  3  0  0  0  0  0  0  0  0  0  0
    1.7740    2.0338    0.3336 H   0  0  0  0  0  0  0  0  0  0  0  0
    2.9875    2.0697   -1.4238 C   0  0  0  0  0  0  0  0  0  0  0  0
    3.8996    2.5570   -1.0852 H   0  0  0  0  0  0  0  0  0  0  0  0
    2.7583    1.5769   -2.6620 N   0  0  0  0  0  0  0  0  0  0  0  0
    3.4065    1.6039   -3.4446 H   0  0  0  0  0  0  0  0  0  0  0  0
    1.4871    1.0202   -2.6878 C   0  0  0  0  0  0  0  0  0  0  0  0
    0.9987    0.5405   -3.5315 H   0  0  0  0  0  0  0  0  0  0  0  0
    0.0470    0.3465    1.5629 C   0  0  0  0  0  0  0  0  0  0  0  0
    1.1854    0.1365    1.9846 O   0  0  0  0  0  0  0  0  0  0  0  0
   -0.8551    1.0750    2.2320 N   0  0  0  0  0  0  0  0  0  0  0  0
   -1.7594    1.2031    1.8040 H   0  0  0  0  0  0  0  0  0  0  0  0
   -0.6356    1.6998    3.5400 C   0  0  0  0  0  0  0  0  0  0  0  0
   -0.4284    2.7647    3.4168 H   0  0  0  0  0  0  0  0  0  0  0  0
   -1.5268    1.5885    4.1601 H   0  0  0  0  0  0  0  0  0  0  0  0
    0.2072    1.2358    4.0566 H   0  0  0  0  0  0  0  0  0  0  0  0
  5  6  2  0  0  0  0
  5  7  1  0  0  0  0
  2  3  1  0  0  0  0
  2  4  1  0  0  0  0
  2  5  1  0  0  0  0
  1  2  1  0  0  0  0
 23 24  2  0  0  0  0
 23 25  1  0  0  0  0
 21 22  1  0  0  0  0
 19 20  1  0  0  0  0
 19 21  1  0  0  0  0
 17 18  1  0  0  0  0
 17 19  1  0  0  0  0
 15 16  1  0  0  0  0
 15 17  2  0  0  0  0
 14 15  1  0  0  0  0
 14 21  2  0  0  0  0
 11 12  1  0  0  0  0
 11 13  1  0  0  0  0
 11 14  1  0  0  0  0
  9 10  1  0  0  0  0
  9 11  1  0  0  0  0
  9 23  1  0  0  0  0
  7  8  1  0  0  0  0
  7  9  1  0  0  0  0
 27 28  1  0  0  0  0
 27 29  1  0  0  0  0
 27 30  1  0  0  0  0
 25 26  1  0  0  0  0
 25 27  1  0  0  0  0
M  CHG  1  15   1
M  END
$$$$
default_name
  -OEChem-02102213163D

 30 30  0     1  0  0  0  0  0999 V2000
   -3.5507   -3.2183    1.8116 H   0  0  0  0  0  0  0  0  0  0  0  0
   -3.4597   -2.3913    1.1076 C   0  0  0  0  0  0  0  0  0  0  0  0
   -4.1577   -1.6043    1.3866 H   0  0  0  0  0  0  0  0  0  0  0  0
   -3.6807   -2.7523    0.1036 H   0  0  0  0  0  0  0  0  0  0  0  0
   -2.0477   -1.8543    1.1546 C   0  0  0  0  0  0  0  0  0  0  0  0
   -1.2227   -2.3443    1.9146 O   0  0  0  0  0  0  0  0  0  0  0  0
   -1.7517   -0.8483    0.3266 N   0  0  0  0  0  0  0  0  0  0  0  0
   -2.4847   -0.5123   -0.2804 H   0  0  0  0  0  0  0  0  0  0  0  0
   -0.4117   -0.2463    0.2186 C   0  0  1  0  0  0  0  0  0  0  0  0
    0.2987   -1.0391   -0.0285 H   0  0  0  0  0  0  0  0  0  0  0  0
   -0.4131    0.7505   -0.9636 C   0  0  0  0  0  0  0  0  0  0  0  0
   -0.9445    0.2945   -1.8028 H   0  0  0  0  0  0  0  0  0  0  0  0
   -0.9739    1.6421   -0.6754 H   0  0  0  0  0  0  0  0  0  0  0  0
    0.9565    1.1889   -1.4374 C   0  0  0  0  0  0  0  0  0  0  0  0
    2.0008    1.5701   -0.6172 N   0  3  0  0  0  0  0  0  0  0  0  0
    1.9605    1.5284    0.4052 H   0  0  0  0  0  0  0  0  0  0  0  0
    3.0550    1.8927   -1.3926 C   0  0  0  0  0  0  0  0  0  0  0  0
    4.0274    2.2187   -1.0289 H   0  0  0  0  0  0  0  0  0  0  0  0
    2.7020    1.7254   -2.6871 N   0  0  0  0  0  0  0  0  0  0  0  0
    3.2976    1.8905   -3.4943 H   0  0  0  0  0  0  0  0  0  0  0  0
    1.3870    1.2839   -2.7332 C   0  0  0  0  0  0  0  0  0  0  0  0
    0.8034    1.0545   -3.6205 H   0  0  0  0  0  0  0  0  0  0  0  0
    0.0470    0.3465    1.5629 C   0  0  0  0  0  0  0  0  0  0  0  0
    1.1854    0.1365    1.9846 O   0  0  0  0  0  0  0  0  0  0  0  0
   -0.8551    1.0750    2.2320 N   0  0  0  0  0  0  0  0  0  0  0  0
   -1.7594    1.2031    1.8040 H   0  0  0  0  0  0  0  0  0  0  0  0
   -0.6356    1.6998    3.5400 C   0  0  0  0  0  0  0  0  0  0  0  0
   -0.4284    2.7647    3.4168 H   0  0  0  0  0  0  0  0  0  0  0  0
   -1.5268    1.5885    4.1601 H   0  0  0  0  0  0  0  0  0  0  0  0
    0.2072    1.2358    4.0566 H   0  0  0  0  0  0  0  0  0  0  0  0
  5  6  2  0  0  0  0
  5  7  1  0  0  0  0
  2  3  1  0  0  0  0
  2  4  1  0  0  0  0
  2  5  1  0  0  0  0
  1  2  1  0  0  0  0
 23 24  2  0  0  0  0
 23 25  1  0  0  0  0
 21 22  1  0  0  0  0
 19 20  1  0  0  0  0
 19 21  1  0  0  0  0
 17 18  1  0  0  0  0
 17 19  1  0  0  0  0
 15 16  1  0  0  0  0
 15 17  2  0  0  0  0
 14 15  1  0  0  0  0
 14 21  2  0  0  0  0
 11 12  1  0  0  0  0
 11 13  1  0  0  0  0
 11 14  1  0  0  0  0
  9 10  1  0  0  0  0
  9 11  1  0  0  0  0
  9 23  1  0  0  0  0
  7  8  1  0  0  0  0
  7  9  1  0  0  0  0
 27 28  1  0  0  0  0
 27 29  1  0  0  0  0
 27 30  1  0  0  0  0
 25 26  1  0  0  0  0
 25 27  1  0  0  0  0
M  CHG  1  15   1
M  END
$$$$
default_name
  -OEChem-02102213163D

 30 30  0     1  0  0  0  0  0999 V2000
   -3.5507   -3.2183    1.8116 H   0  0  0  0  0  0  0  0  0  0  0  0
   -3.4597   -2.3913    1.1076 C   0  0  0  0  0  0  0  0  0  0  0  0
   -4.1577   -1.6043    1.3866 H   0  0  0  0  0  0  0  0  0  0  0  0
   -3.6807   -2.7523    0.1036 H   0  0  0  0  0  0  0  0  0  0  0  0
   -2.0477   -1.8543    1.1546 C   0  0  0  0  0  0  0  0  0  0  0  0
   -1.2227   -2.3443    1.9146 O   0  0  0  0  0  0  0  0  0  0  0  0
   -1.7517   -0.8483    0.3266 N   0  0  0  0  0  0  0  0  0  0  0  0
   -2.4847   -0.5123   -0.2804 H   0  0  0  0  0  0  0  0  0  0  0  0
   -0.4117   -0.2463    0.2186 C   0  0  1  0  0  0  0  0  0  0  0  0
    0.2987   -1.0391   -0.0285 H   0  0  0  0  0  0  0  0  0  0  0  0
   -0.4131    0.7505   -0.9636 C   0  0  0  0  0  0  0  0  0  0  0  0
   -0.9445    0.2945   -1.8028 H   0  0  0  0  0  0  0  0  0  0  0  0
   -0.9739    1.6421   -0.6754 H   0  0  0  0  0  0  0  0  0  0  0  0
    0.9565    1.1889   -1.4374 C   0  0  0  0  0  0  0  0  0  0  0  0
    2.0821    1.2884   -0.6427 N   0  3  0  0  0  0  0  0  0  0  0  0
    2.1051    1.0084    0.3421 H   0  0  0  0  0  0  0  0  0  0  0  0
    3.1082    1.7089   -1.4088 C   0  0  0  0  0  0  0  0  0  0  0  0
    4.1276    1.8684   -1.0633 H   0  0  0  0  0  0  0  0  0  0  0  0
    2.6579    1.8793   -2.6724 N   0  0  0  0  0  0  0  0  0  0  0  0
    3.2118    2.1879   -3.4670 H   0  0  0  0  0  0  0  0  0  0  0  0
    1.3082    1.5573   -2.7078 C   0  0  0  0  0  0  0  0  0  0  0  0
    0.6497    1.5876   -3.5715 H   0  0  0  0  0  0  0  0  0  0  0  0
    0.0470    0.3465    1.5629 C   0  0  0  0  0  0  0  0  0  0  0  0
    1.1854    0.1365    1.9846 O   0  0  0  0  0  0  0  0  0  0  0  0
   -0.8551    1.0750    2.2320 N   0  0  0  0  0  0  0  0  0  0  0  0
   -1.7594    1.2031    1.8040 H   0  0  0  0  0  0  0  0  0  0  0  0
   -0.6356    1.6998    3.5400 C   0  0  0  0  0  0  0  0  0  0  0  0
   -0.4284    2.7647    3.4168 H   0  0  0  0  0  0  0  0  0  0  0  0
   -1.5268    1.5885    4.1601 H   0  0  0  0  0  0  0  0  0  0  0  0
    0.2072    1.2358    4.0566 H   0  0  0  0  0  0  0  0  0  0  0  0
  5  6  2  0  0  0  0
  5  7  1  0  0  0  0
  2  3  1  0  0  0  0
  2  4  1  0  0  0  0
  2  5  1  0  0  0  0
  1  2  1  0  0  0  0
 23 24  2  0  0  0  0
 23 25  1  0  0  0  0
 21 22  1  0  0  0  0
 19 20  1  0  0  0  0
 19 21  1  0  0  0  0
 17 18  1  0  0  0  0
 17 19  1  0  0  0  0
 15 16  1  0  0  0  0
 15 17  2  0  0  0  0
 14 15  1  0  0  0  0
 14 21  2  0  0  0  0
 11 12  1  0  0  0  0
 11 13  1  0  0  0  0
 11 14  1  0  0  0  0
  9 10  1  0  0  0  0
  9 11  1  0  0  0  0
  9 23  1  0  0  0  0
  7  8  1  0  0  0  0
  7  9  1  0  0  0  0
 27 28  1  0  0  0  0
 27 29  1  0  0  0  0
 27 30  1  0  0  0  0
 25 26  1  0  0  0  0
 25 27  1  0  0  0  0
M  CHG  1  15   1
M  END
$$$$
default_name
  -OEChem-02102213163D

 30 30  0     1  0  0  0  0  0999 V2000
   -3.5507   -3.2183    1.8116 H   0  0  0  0  0  0  0  0  0  0  0  0
   -3.4597   -2.3913    1.1076 C   0  0  0  0  0  0  0  0  0  0  0  0
   -4.1577   -1.6043    1.3866 H   0  0  0  0  0  0  0  0  0  0  0  0
   -3.6807   -2.7523    0.1036 H   0  0  0  0  0  0  0  0  0  0  0  0
   -2.0477   -1.8543    1.1546 C   0  0  0  0  0  0  0  0  0  0  0  0
   -1.2227   -2.3443    1.9146 O   0  0  0  0  0  0  0  0  0  0  0  0
   -1.7517   -0.8483    0.3266 N   0  0  0  0  0  0  0  0  0  0  0  0
   -2.4847   -0.5123   -0.2804 H   0  0  0  0  0  0  0  0  0  0  0  0
   -0.4117   -0.2463    0.2186 C   0  0  1  0  0  0  0  0  0  0  0  0
    0.2987   -1.0391   -0.0285 H   0  0  0  0  0  0  0  0  0  0  0  0
   -0.4131    0.7505   -0.9636 C   0  0  0  0  0  0  0  0  0  0  0  0
   -0.9445    0.2945   -1.8028 H   0  0  0  0  0  0  0  0  0  0  0  0
   -0.9739    1.6421   -0.6754 H   0  0  0  0  0  0  0  0  0  0  0  0
    0.9565    1.1889   -1.4374 C   0  0  0  0  0  0  0  0  0  0  0  0
    2.1360    1.0157   -0.7393 N   0  3  0  0  0  0  0  0  0  0  0  0
    2.1980    0.5092    0.1485 H   0  0  0  0  0  0  0  0  0  0  0  0
    3.1435    1.5308   -1.4716 C   0  0  0  0  0  0  0  0  0  0  0  0
    4.1935    1.5300   -1.1860 H   0  0  0  0  0  0  0  0  0  0  0  0
    2.6288    2.0281   -2.6188 N   0  0  0  0  0  0  0  0  0  0  0  0
    3.1551    2.4756   -3.3646 H   0  0  0  0  0  0  0  0  0  0  0  0
    1.2562    1.8218   -2.6134 C   0  0  0  0  0  0  0  0  0  0  0  0
    0.5481    2.1034   -3.3878 H   0  0  0  0  0  0  0  0  0  0  0  0
    0.0470    0.3465    1.5629 C   0  0  0  0  0  0  0  0  0  0  0  0
    1.1854    0.1365    1.9846 O   0  0  0  0  0  0  0  0  0  0  0  0
   -0.8551    1.0750    2.2320 N   0  0  0  0  0  0  0  0  0  0  0  0
   -1.7594    1.2031    1.8040 H   0  0  0  0  0  0  0  0  0  0  0  0
   -0.6356    1.6998    3.5400 C   0  0  0  0  0  0  0  0  0  0  0  0
   -0.4284    2.7647    3.4168 H   0  0  0  0  0  0  0  0  0  0  0  0
   -1.5268    1.5885    4.1601 H   0  0  0  0  0  0  0  0  0  0  0  0
    0.2072    1.2358    4.0566 H   0  0  0  0  0  0  0  0  0  0  0  0
  5  6  2  0  0  0  0
  5  7  1  0  0  0  0
  2  3  1  0  0  0  0
  2  4  1  0  0  0  0
  2  5  1  0  0  0  0
  1  2  1  0  0  0  0
 23 24  2  0  0  0  0
 23 25  1  0  0  0  0
 21 22  1  0  0  0  0
 19 20  1  0  0  0  0
 19 21  1  0  0  0  0
 17 18  1  0  0  0  0
 17 19  1  0  0  0  0
 15 16  1  0  0  0  0
 15 17  2  0  0  0  0
 14 15  1  0  0  0  0
 14 21  2  0  0  0  0
 11 12  1  0  0  0  0
 11 13  1  0  0  0  0
 11 14  1  0  0  0  0
  9 10  1  0  0  0  0
  9 11  1  0  0  0  0
  9 23  1  0  0  0  0
  7  8  1  0  0  0  0
  7  9  1  0  0  0  0
 27 28  1  0  0  0  0
 27 29  1  0  0  0  0
 27 30  1  0  0  0  0
 25 26  1  0  0  0  0
 25 27  1  0  0  0  0
M  CHG  1  15   1
M  END
$$$$
default_name
  -OEChem-02102213163D

 30 30  0     1  0  0  0  0  0999 V2000
   -3.5507   -3.2183    1.8116 H   0  0  0  0  0  0  0  0  0  0  0  0
   -3.4597   -2.3913    1.1076 C   0  0  0  0  0  0  0  0  0  0  0  0
   -4.1577   -1.6043    1.3866 H   0  0  0  0  0  0  0  0  0  0  0  0
   -3.6807   -2.7523    0.1036 H   0  0  0  0  0  0  0  0  0  0  0  0
   -2.0477   -1.8543    1.1546 C   0  0  0  0  0  0  0  0  0  0  0  0
   -1.2227   -2.3443    1.9146 O   0  0  0  0  0  0  0  0  0  0  0  0
   -1.7517   -0.8483    0.3266 N   0  0  0  0  0  0  0  0  0  0  0  0
   -2.4847   -0.5123   -0.2804 H   0  0  0  0  0  0  0  0  0  0  0  0
   -0.4117   -0.2463    0.2186 C   0  0  1  0  0  0  0  0  0  0  0  0
    0.2987   -1.0391   -0.0285 H   0  0  0  0  0  0  0  0  0  0  0  0
   -0.4131    0.7505   -0.9636 C   0  0  0  0  0  0  0  0  0  0  0  0
   -0.9445    0.2945   -1.8028 H   0  0  0  0  0  0  0  0  0  0  0  0
   -0.9739    1.6421   -0.6754 H   0  0  0  0  0  0  0  0  0  0  0  0
    0.9565    1.1889   -1.4374 C   0  0  0  0  0  0  0  0  0  0  0  0
    2.1587    0.7706   -0.9006 N   0  3  0  0  0  0  0  0  0  0  0  0
    2.2328    0.0648   -0.1623 H   0  0  0  0  0  0  0  0  0  0  0  0
    3.1585    1.3707   -1.5765 C   0  0  0  0  0  0  0  0  0  0  0  0
    4.2206    1.2264   -1.3888 H   0  0  0  0  0  0  0  0  0  0  0  0
    2.6167    2.1617   -2.5301 N   0  0  0  0  0  0  0  0  0  0  0  0
    3.1314    2.7342   -3.1940 H   0  0  0  0  0  0  0  0  0  0  0  0
    1.2344    2.0594   -2.4564 C   0  0  0  0  0  0  0  0  0  0  0  0
    0.5055    2.5670   -3.0820 H   0  0  0  0  0  0  0  0  0  0  0  0
    0.0470    0.3465    1.5629 C   0  0  0  0  0  0  0  0  0  0  0  0
    1.1854    0.1365    1.9846 O   0  0  0  0  0  0  0  0  0  0  0  0
   -0.8551    1.0750    2.2320 N   0  0  0  0  0  0  0  0  0  0  0  0
   -1.7594    1.2031    1.8040 H   0  0  0  0  0  0  0  0  0  0  0  0
   -0.6356    1.6998    3.5400 C   0  0  0  0  0  0  0  0  0  0  0  0
   -0.4284    2.7647    3.4168 H   0  0  0  0  0  0  0  0  0  0  0  0
   -1.5268    1.5885    4.1601 H   0  0  0  0  0  0  0  0  0  0  0  0
    0.2072    1.2358    4.0566 H   0  0  0  0  0  0  0  0  0  0  0  0
  5  6  2  0  0  0  0
  5  7  1  0  0  0  0
  2  3  1  0  0  0  0
  2  4  1  0  0  0  0
  2  5  1  0  0  0  0
  1  2  1  0  0  0  0
 23 24  2  0  0  0  0
 23 25  1  0  0  0  0
 21 22  1  0  0  0  0
 19 20  1  0  0  0  0
 19 21  1  0  0  0  0
 17 18  1  0  0  0  0
 17 19  1  0  0  0  0
 15 16  1  0  0  0  0
 15 17  2  0  0  0  0
 14 15  1  0  0  0  0
 14 21  2  0  0  0  0
 11 12  1  0  0  0  0
 11 13  1  0  0  0  0
 11 14  1  0  0  0  0
  9 10  1  0  0  0  0
  9 11  1  0  0  0  0
  9 23  1  0  0  0  0
  7  8  1  0  0  0  0
  7  9  1  0  0  0  0
 27 28  1  0  0  0  0
 27 29  1  0  0  0  0
 27 30  1  0  0  0  0
 25 26  1  0  0  0  0
 25 27  1  0  0  0  0
M  CHG  1  15   1
M  END
$$$$
default_name
  -OEChem-02102213163D

 30 30  0     1  0  0  0  0  0999 V2000
   -3.5507   -3.2183    1.8116 H   0  0  0  0  0  0  0  0  0  0  0  0
   -3.4597   -2.3913    1.1076 C   0  0  0  0  0  0  0  0  0  0  0  0
   -4.1577   -1.6043    1.3866 H   0  0  0  0  0  0  0  0  0  0  0  0
   -3.6807   -2.7523    0.1036 H   0  0  0  0  0  0  0  0  0  0  0  0
   -2.0477   -1.8543    1.1546 C   0  0  0  0  0  0  0  0  0  0  0  0
   -1.2227   -2.3443    1.9146 O   0  0  0  0  0  0  0  0  0  0  0  0
   -1.7517   -0.8483    0.3266 N   0  0  0  0  0  0  0  0  0  0  0  0
   -2.4847   -0.5123   -0.2804 H   0  0  0  0  0  0  0  0  0  0  0  0
   -0.4117   -0.2463    0.2186 C   0  0  1  0  0  0  0  0  0  0  0  0
    0.2987   -1.0391   -0.0285 H   0  0  0  0  0  0  0  0  0  0  0  0
   -0.4131    0.7505   -0.9636 C   0  0  0  0  0  0  0  0  0  0  0  0
   -0.9445    0.2945   -1.8028 H   0  0  0  0  0  0  0  0  0  0  0  0
   -0.9739    1.6421   -0.6754 H   0  0  0  0  0  0  0  0  0  0  0  0
    0.9565    1.1889   -1.4374 C   0  0  0  0  0  0  0  0  0  0  0  0
    2.1487    0.5697   -1.1154 N   0  3  0  0  0  0  0  0  0  0  0  0
    2.2071   -0.2946   -0.5691 H   0  0  0  0  0  0  0  0  0  0  0  0
    3.1521    1.2394   -1.7165 C   0  0  0  0  0  0  0  0  0  0  0  0
    4.2069    0.9786   -1.6577 H   0  0  0  0  0  0  0  0  0  0  0  0
    2.6225    2.2709   -2.4121 N   0  0  0  0  0  0  0  0  0  0  0  0
    3.1421    2.9459   -2.9670 H   0  0  0  0  0  0  0  0  0  0  0  0
    1.2444    2.2539   -2.2474 C   0  0  0  0  0  0  0  0  0  0  0  0
    0.5248    2.9466   -2.6749 H   0  0  0  0  0  0  0  0  0  0  0  0
    0.0470    0.3465    1.5629 C   0  0  0  0  0  0  0  0  0  0  0  0
    1.1854    0.1365    1.9846 O   0  0  0  0  0  0  0  0  0  0  0  0
   -0.8551    1.0750    2.2320 N   0  0  0  0  0  0  0  0  0  0  0  0
   -1.7594    1.2031    1.8040 H   0  0  0  0  0  0  0  0  0  0  0  0
   -0.6356    1.6998    3.5400 C   0  0  0  0  0  0  0  0  0  0  0  0
   -0.4284    2.7647    3.4168 H   0  0  0  0  0  0  0  0  0  0  0  0
   -1.5268    1.5885    4.1601 H   0  0  0  0  0  0  0  0  0  0  0  0
    0.2072    1.2358    4.0566 H   0  0  0  0  0  0  0  0  0  0  0  0
  5  6  2  0  0  0  0
  5  7  1  0  0  0  0
  2  3  1  0  0  0  0
  2  4  1  0  0  0  0
  2  5  1  0  0  0  0
  1  2  1  0  0  0  0
 23 24  2  0  0  0  0
 23 25  1  0  0  0  0
 21 22  1  0  0  0  0
 19 20  1  0  0  0  0
 19 21  1  0  0  0  0
 17 18  1  0  0  0  0
 17 19  1  0  0  0  0
 15 16  1  0  0  0  0
 15 17  2  0  0  0  0
 14 15  1  0  0  0  0
 14 21  2  0  0  0  0
 11 12  1  0  0  0  0
 11 13  1  0  0  0  0
 11 14  1  0  0  0  0
  9 10  1  0  0  0  0
  9 11  1  0  0  0  0
  9 23  1  0  0  0  0
  7  8  1  0  0  0  0
  7  9  1  0  0  0  0
 27 28  1  0  0  0  0
 27 29  1  0  0  0  0
 27 30  1  0  0  0  0
 25 26  1  0  0  0  0
 25 27  1  0  0  0  0
M  CHG  1  15   1
M  END
$$$$
default_name
  -OEChem-02102213163D

 30 30  0     1  0  0  0  0  0999 V2000
   -3.5507   -3.2183    1.8116 H   0  0  0  0  0  0  0  0  0  0  0  0
   -3.4597   -2.3913    1.1076 C   0  0  0  0  0  0  0  0  0  0  0  0
   -4.1577   -1.6043    1.3866 H   0  0  0  0  0  0  0  0  0  0  0  0
   -3.6807   -2.7523    0.1036 H   0  0  0  0  0  0  0  0  0  0  0  0
   -2.0477   -1.8543    1.1546 C   0  0  0  0  0  0  0  0  0  0  0  0
   -1.2227   -2.3443    1.9146 O   0  0  0  0  0  0  0  0  0  0  0  0
   -1.7517   -0.8483    0.3266 N   0  0  0  0  0  0  0  0  0  0  0  0
   -2.4847   -0.5123   -0.2804 H   0  0  0  0  0  0  0  0  0  0  0  0
   -0.4117   -0.2463    0.2186 C   0  0  1  0  0  0  0  0  0  0  0  0
    0.2987   -1.0391   -0.0285 H   0  0  0  0  0  0  0  0  0  0  0  0
   -0.4131    0.7505   -0.9636 C   0  0  0  0  0  0  0  0  0  0  0  0
   -0.9445    0.2945   -1.8028 H   0  0  0  0  0  0  0  0  0  0  0  0
   -0.9739    1.6421   -0.6754 H   0  0  0  0  0  0  0  0  0  0  0  0
    0.9565    1.1889   -1.4374 C   0  0  0  0  0  0  0  0  0  0  0  0
    2.1067    0.4267   -1.3692 N   0  3  0  0  0  0  0  0  0  0  0  0
    2.1226   -0.5443   -1.0443 H   0  0  0  0  0  0  0  0  0  0  0  0
    3.1248    1.1458   -1.8820 C   0  0  0  0  0  0  0  0  0  0  0  0
    4.1535    0.8032   -1.9745 H   0  0  0  0  0  0  0  0  0  0  0  0
    2.6458    2.3483   -2.2731 N   0  0  0  0  0  0  0  0  0  0  0  0
    3.1867    3.0965   -2.6989 H   0  0  0  0  0  0  0  0  0  0  0  0
    1.2855    2.3921   -2.0008 C   0  0  0  0  0  0  0  0  0  0  0  0
    0.6046    3.2164   -2.1943 H   0  0  0  0  0  0  0  0  0  0  0  0
    0.0470    0.3465    1.5629 C   0  0  0  0  0  0  0  0  0  0  0  0
    1.1854    0.1365    1.9846 O   0  0  0  0  0  0  0  0  0  0  0  0
   -0.8551    1.0750    2.2320 N   0  0  0  0  0  0  0  0  0  0  0  0
   -1.7594    1.2031    1.8040 H   0  0  0  0  0  0  0  0  0  0  0  0
   -0.6356    1.6998    3.5400 C   0  0  0  0  0  0  0  0  0  0  0  0
   -0.4284    2.7647    3.4168 H   0  0  0  0  0  0  0  0  0  0  0  0
   -1.5268    1.5885    4.1601 H   0  0  0  0  0  0  0  0  0  0  0  0
    0.2072    1.2358    4.0566 H   0  0  0  0  0  0  0  0  0  0  0  0
  5  6  2  0  0  0  0
  5  7  1  0  0  0  0
  2  3  1  0  0  0  0
  2  4  1  0  0  0  0
  2  5  1  0  0  0  0
  1  2  1  0  0  0  0
 23 24  2  0  0  0  0
 23 25  1  0  0  0  0
 21 22  1  0  0  0  0
 19 20  1  0  0  0  0
 19 21  1  0  0  0  0
 17 18  1  0  0  0  0
 17 19  1  0  0  0  0
 15 16  1  0  0  0  0
 15 17  2  0  0  0  0
 14 15  1  0  0  0  0
 14 21  2  0  0  0  0
 11 12  1  0  0  0  0
 11 13  1  0  0  0  0
 11 14  1  0  0  0  0
  9 10  1  0  0  0  0
  9 11  1  0  0  0  0
  9 23  1  0  0  0  0
  7  8  1  0  0  0  0
  7  9  1  0  0  0  0
 27 28  1  0  0  0  0
 27 29  1  0  0  0  0
 27 30  1  0  0  0  0
 25 26  1  0  0  0  0
 25 27  1  0  0  0  0
M  CHG  1  15   1
M  END
$$$$
default_name
  -OEChem-02102213163D

 30 30  0     1  0  0  0  0  0999 V2000
   -3.5507   -3.2183    1.8116 H   0  0  0  0  0  0  0  0  0  0  0  0
   -3.4597   -2.3913    1.1076 C   0  0  0  0  0  0  0  0  0  0  0  0
   -4.1577   -1.6043    1.3866 H   0  0  0  0  0  0  0  0  0  0  0  0
   -3.6807   -2.7523    0.1036 H   0  0  0  0  0  0  0  0  0  0  0  0
   -2.0477   -1.8543    1.1546 C   0  0  0  0  0  0  0  0  0  0  0  0
   -1.2227   -2.3443    1.9146 O   0  0  0  0  0  0  0  0  0  0  0  0
   -1.7517   -0.8483    0.3266 N   0  0  0  0  0  0  0  0  0  0  0  0
   -2.4847   -0.5123   -0.2804 H   0  0  0  0  0  0  0  0  0  0  0  0
   -0.4117   -0.2463    0.2186 C   0  0  1  0  0  0  0  0  0  0  0  0
    0.2987   -1.0391   -0.0285 H   0  0  0  0  0  0  0  0  0  0  0  0
   -0.4131    0.7505   -0.9636 C   0  0  0  0  0  0  0  0  0  0  0  0
   -0.9445    0.2945   -1.8028 H   0  0  0  0  0  0  0  0  0  0  0  0
   -0.9739    1.6421   -0.6754 H   0  0  0  0  0  0  0  0  0  0  0  0
    0.9565    1.1889   -1.4374 C   0  0  0  0  0  0  0  0  0  0  0  0
    2.0355    0.3515   -1.6447 N   0  3  0  0  0  0  0  0  0  0  0  0
    1.9853   -0.6675   -1.5555 H   0  0  0  0  0  0  0  0  0  0  0  0
    3.0785    1.0964   -2.0617 C   0  0  0  0  0  0  0  0  0  0  0  0
    4.0639    0.7123   -2.3175 H   0  0  0  0  0  0  0  0  0  0  0  0
    2.6850    2.3886   -2.1225 N   0  0  0  0  0  0  0  0  0  0  0  0
    3.2620    3.1755   -2.4081 H   0  0  0  0  0  0  0  0  0  0  0  0
    1.3548    2.4645   -1.7334 C   0  0  0  0  0  0  0  0  0  0  0  0
    0.7397    3.3580   -1.6728 H   0  0  0  0  0  0  0  0  0  0  0  0
    0.0470    0.3465    1.5629 C   0  0  0  0  0  0  0  0  0  0  0  0
    1.1854    0.1365    1.9846 O   0  0  0  0  0  0  0  0  0  0  0  0
   -0.8551    1.0750    2.2320 N   0  0  0  0  0  0  0  0  0  0  0  0
   -1.7594    1.2031    1.8040 H   0  0  0  0  0  0  0  0  0  0  0  0
   -0.6356    1.6998    3.5400 C   0  0  0  0  0  0  0  0  0  0  0  0
   -0.4284    2.7647    3.4168 H   0  0  0  0  0  0  0  0  0  0  0  0
   -1.5268    1.5885    4.1601 H   0  0  0  0  0  0  0  0  0  0  0  0
    0.2072    1.2358    4.0566 H   0  0  0  0  0  0  0  0  0  0  0  0
  5  6  2  0  0  0  0
  5  7  1  0  0  0  0
  2  3  1  0  0  0  0
  2  4  1  0  0  0  0
  2  5  1  0  0  0  0
  1  2  1  0  0  0  0
 23 24  2  0  0  0  0
 23 25  1  0  0  0  0
 21 22  1  0  0  0  0
 19 20  1  0  0  0  0
 19 21  1  0  0  0  0
 17 18  1  0  0  0  0
 17 19  1  0  0  0  0
 15 16  1  0  0  0  0
 15 17  2  0  0  0  0
 14 15  1  0  0  0  0
 14 21  2  0  0  0  0
 11 12  1  0  0  0  0
 11 13  1  0  0  0  0
 11 14  1  0  0  0  0
  9 10  1  0  0  0  0
  9 11  1  0  0  0  0
  9 23  1  0  0  0  0
  7  8  1  0  0  0  0
  7  9  1  0  0  0  0
 27 28  1  0  0  0  0
 27 29  1  0  0  0  0
 27 30  1  0  0  0  0
 25 26  1  0  0  0  0
 25 27  1  0  0  0  0
M  CHG  1  15   1
M  END
$$$$
default_name
  -OEChem-02102213163D

 30 30  0     1  0  0  0  0  0999 V2000
   -3.5507   -3.2183    1.8116 H   0  0  0  0  0  0  0  0  0  0  0  0
   -3.4597   -2.3913    1.1076 C   0  0  0  0  0  0  0  0  0  0  0  0
   -4.1577   -1.6043    1.3866 H   0  0  0  0  0  0  0  0  0  0  0  0
   -3.6807   -2.7523    0.1036 H   0  0  0  0  0  0  0  0  0  0  0  0
   -2.0477   -1.8543    1.1546 C   0  0  0  0  0  0  0  0  0  0  0  0
   -1.2227   -2.3443    1.9146 O   0  0  0  0  0  0  0  0  0  0  0  0
   -1.7517   -0.8483    0.3266 N   0  0  0  0  0  0  0  0  0  0  0  0
   -2.4847   -0.5123   -0.2804 H   0  0  0  0  0  0  0  0  0  0  0  0
   -0.4117   -0.2463    0.2186 C   0  0  1  0  0  0  0  0  0  0  0  0
    0.2987   -1.0391   -0.0285 H   0  0  0  0  0  0  0  0  0  0  0  0
   -0.4131    0.7505   -0.9636 C   0  0  0  0  0  0  0  0  0  0  0  0
   -0.9445    0.2945   -1.8028 H   0  0  0  0  0  0  0  0  0  0  0  0
   -0.9739    1.6421   -0.6754 H   0  0  0  0  0  0  0  0  0  0  0  0
    0.9565    1.1889   -1.4374 C   0  0  0  0  0  0  0  0  0  0  0  0
    1.9400    0.3491   -1.9230 N   0  3  0  0  0  0  0  0  0  0  0  0
    1.8043   -0.6556   -2.0678 H   0  0  0  0  0  0  0  0  0  0  0  0
    3.0163    1.0945   -2.2434 C   0  0  0  0  0  0  0  0  0  0  0  0
    3.9443    0.7120   -2.6634 H   0  0  0  0  0  0  0  0  0  0  0  0
    2.7375    2.3892   -1.9704 N   0  0  0  0  0  0  0  0  0  0  0  0
    3.3629    3.1776   -2.1143 H   0  0  0  0  0  0  0  0  0  0  0  0
    1.4477    2.4662   -1.4633 C   0  0  0  0  0  0  0  0  0  0  0  0
    0.9207    3.3618   -1.1461 H   0  0  0  0  0  0  0  0  0  0  0  0
    0.0470    0.3465    1.5629 C   0  0  0  0  0  0  0  0  0  0  0  0
    1.1854    0.1365    1.9846 O   0  0  0  0  0  0  0  0  0  0  0  0
   -0.8551    1.0750    2.2320 N   0  0  0  0  0  0  0  0  0  0  0  0
   -1.7594    1.2031    1.8040 H   0  0  0  0  0  0  0  0  0  0  0  0
   -0.6356    1.6998    3.5400 C   0  0  0  0  0  0  0  0  0  0  0  0
   -0.4284    2.7647    3.4168 H   0  0  0  0  0  0  0  0  0  0  0  0
   -1.5268    1.5885    4.1601 H   0  0  0  0  0  0  0  0  0  0  0  0
    0.2072    1.2358    4.0566 H   0  0  0  0  0  0  0  0  0  0  0  0
  5  6  2  0  0  0  0
  5  7  1  0  0  0  0
  2  3  1  0  0  0  0
  2  4  1  0  0  0  0
  2  5  1  0  0  0  0
  1  2  1  0  0  0  0
 23 24  2  0  0  0  0
 23 25  1  0  0  0  0
 21 22  1  0  0  0  0
 19 20  1  0  0  0  0
 19 21  1  0  0  0  0
 17 18  1  0  0  0  0
 17 19  1  0  0  0  0
 15 16  1  0  0  0  0
 15 17  2  0  0  0  0
 14 15  1  0  0  0  0
 14 21  2  0  0  0  0
 11 12  1  0  0  0  0
 11 13  1  0  0  0  0
 11 14  1  0  0  0  0
  9 10  1  0  0  0  0
  9 11  1  0  0  0  0
  9 23  1  0  0  0  0
  7  8  1  0  0  0  0
  7  9  1  0  0  0  0
 27 28  1  0  0  0  0
 27 29  1  0  0  0  0
 27 30  1  0  0  0  0
 25 26  1  0  0  0  0
 25 27  1  0  0  0  0
M  CHG  1  15   1
M  END
$$$$
default_name
  -OEChem-02102213163D

 30 30  0     1  0  0  0  0  0999 V2000
   -3.5507   -3.2183    1.8116 H   0  0  0  0  0  0  0  0  0  0  0  0
   -3.4597   -2.3913    1.1076 C   0  0  0  0  0  0  0  0  0  0  0  0
   -4.1577   -1.6043    1.3866 H   0  0  0  0  0  0  0  0  0  0  0  0
   -3.6807   -2.7523    0.1036 H   0  0  0  0  0  0  0  0  0  0  0  0
   -2.0477   -1.8543    1.1546 C   0  0  0  0  0  0  0  0  0  0  0  0
   -1.2227   -2.3443    1.9146 O   0  0  0  0  0  0  0  0  0  0  0  0
   -1.7517   -0.8483    0.3266 N   0  0  0  0  0  0  0  0  0  0  0  0
   -2.4847   -0.5123   -0.2804 H   0  0  0  0  0  0  0  0  0  0  0  0
   -0.4117   -0.2463    0.2186 C   0  0  1  0  0  0  0  0  0  0  0  0
    0.2987   -1.0391   -0.0285 H   0  0  0  0  0  0  0  0  0  0  0  0
   -0.4131    0.7505   -0.9636 C   0  0  0  0  0  0  0  0  0  0  0  0
   -0.9445    0.2945   -1.8028 H   0  0  0  0  0  0  0  0  0  0  0  0
   -0.9739    1.6421   -0.6754 H   0  0  0  0  0  0  0  0  0  0  0  0
    0.9565    1.1889   -1.4374 C   0  0  0  0  0  0  0  0  0  0  0  0
    1.8267    0.4196   -2.1853 N   0  3  0  0  0  0  0  0  0  0  0  0
    1.5920   -0.5096   -2.5462 H   0  0  0  0  0  0  0  0  0  0  0  0
    2.9424    1.1402   -2.4146 C   0  0  0  0  0  0  0  0  0  0  0  0
    3.8029    0.8025   -2.9886 H   0  0  0  0  0  0  0  0  0  0  0  0
    2.7995    2.3498   -1.8274 N   0  0  0  0  0  0  0  0  0  0  0  0
    3.4826    3.1027   -1.8376 H   0  0  0  0  0  0  0  0  0  0  0  0
    1.5578    2.3970   -1.2089 C   0  0  0  0  0  0  0  0  0  0  0  0
    1.1353    3.2274   -0.6500 H   0  0  0  0  0  0  0  0  0  0  0  0
    0.0470    0.3465    1.5629 C   0  0  0  0  0  0  0  0  0  0  0  0
    1.1854    0.1365    1.9846 O   0  0  0  0  0  0  0  0  0  0  0  0
   -0.8551    1.0750    2.2320 N   0  0  0  0  0  0  0  0  0  0  0  0
   -1.7594    1.2031    1.8040 H   0  0  0  0  0  0  0  0  0  0  0  0
   -0.6356    1.6998    3.5400 C   0  0  0  0  0  0  0  0  0  0  0  0
   -0.4284    2.7647    3.4168 H   0  0  0  0  0  0  0  0  0  0  0  0
   -1.5268    1.5885    4.1601 H   0  0  0  0  0  0  0  0  0  0  0  0
    0.2072    1.2358    4.0566 H   0  0  0  0  0  0  0  0  0  0  0  0
  5  6  2  0  0  0  0
  5  7  1  0  0  0  0
  2  3  1  0  0  0  0
  2  4  1  0  0  0  0
  2  5  1  0  0  0  0
  1  2  1  0  0  0  0
 23 24  2  0  0  0  0
 23 25  1  0  0  0  0
 21 22  1  0  0  0  0
 19 20  1  0  0  0  0
 19 21  1  0  0  0  0
 17 18  1  0  0  0  0
 17 19  1  0  0  0  0
 15 16  1  0  0  0  0
 15 17  2  0  0  0  0
 14 15  1  0  0  0  0
 14 21  2  0  0  0  0
 11 12  1  0  0  0  0
 11 13  1  0  0  0  0
 11 14  1  0  0  0  0
  9 10  1  0  0  0  0
  9 11  1  0  0  0  0
  9 23  1  0  0  0  0
  7  8  1  0  0  0  0
  7  9  1  0  0  0  0
 27 28  1  0  0  0  0
 27 29  1  0  0  0  0
 27 30  1  0  0  0  0
 25 26  1  0  0  0  0
 25 27  1  0  0  0  0
M  CHG  1  15   1
M  END
$$$$
default_name
  -OEChem-02102213163D

 30 30  0     1  0  0  0  0  0999 V2000
   -3.5507   -3.2183    1.8116 H   0  0  0  0  0  0  0  0  0  0  0  0
   -3.4597   -2.3913    1.1076 C   0  0  0  0  0  0  0  0  0  0  0  0
   -4.1577   -1.6043    1.3866 H   0  0  0  0  0  0  0  0  0  0  0  0
   -3.6807   -2.7523    0.1036 H   0  0  0  0  0  0  0  0  0  0  0  0
   -2.0477   -1.8543    1.1546 C   0  0  0  0  0  0  0  0  0  0  0  0
   -1.2227   -2.3443    1.9146 O   0  0  0  0  0  0  0  0  0  0  0  0
   -1.7517   -0.8483    0.3266 N   0  0  0  0  0  0  0  0  0  0  0  0
   -2.4847   -0.5123   -0.2804 H   0  0  0  0  0  0  0  0  0  0  0  0
   -0.4117   -0.2463    0.2186 C   0  0  1  0  0  0  0  0  0  0  0  0
    0.2987   -1.0391   -0.0285 H   0  0  0  0  0  0  0  0  0  0  0  0
   -0.4131    0.7505   -0.9636 C   0  0  0  0  0  0  0  0  0  0  0  0
   -0.9445    0.2945   -1.8028 H   0  0  0  0  0  0  0  0  0  0  0  0
   -0.9739    1.6421   -0.6754 H   0  0  0  0  0  0  0  0  0  0  0  0
    0.9565    1.1889   -1.4374 C   0  0  0  0  0  0  0  0  0  0  0  0
    1.7033    0.5584   -2.4137 N   0  3  0  0  0  0  0  0  0  0  0  0
    1.3630   -0.2393   -2.9583 H   0  0  0  0  0  0  0  0  0  0  0  0
    2.8619    1.2305   -2.5638 C   0  0  0  0  0  0  0  0  0  0  0  0
    3.6492    0.9774   -3.2710 H   0  0  0  0  0  0  0  0  0  0  0  0
    2.8670    2.2733   -1.7031 N   0  0  0  0  0  0  0  0  0  0  0  0
    3.6129    2.9559   -1.5968 H   0  0  0  0  0  0  0  0  0  0  0  0
    1.6776    2.2618   -0.9877 C   0  0  0  0  0  0  0  0  0  0  0  0
    1.3688    2.9641   -0.2184 H   0  0  0  0  0  0  0  0  0  0  0  0
    0.0470    0.3465    1.5629 C   0  0  0  0  0  0  0  0  0  0  0  0
    1.1854    0.1365    1.9846 O   0  0  0  0  0  0  0  0  0  0  0  0
   -0.8551    1.0750    2.2320 N   0  0  0  0  0  0  0  0  0  0  0  0
   -1.7594    1.2031    1.8040 H   0  0  0  0  0  0  0  0  0  0  0  0
   -0.6356    1.6998    3.5400 C   0  0  0  0  0  0  0  0  0  0  0  0
   -0.4284    2.7647    3.4168 H   0  0  0  0  0  0  0  0  0  0  0  0
   -1.5268    1.5885    4.1601 H   0  0  0  0  0  0  0  0  0  0  0  0
    0.2072    1.2358    4.0566 H   0  0  0  0  0  0  0  0  0  0  0  0
  5  6  2  0  0  0  0
  5  7  1  0  0  0  0
  2  3  1  0  0  0  0
  2  4  1  0  0  0  0
  2  5  1  0  0  0  0
  1  2  1  0  0  0  0
 23 24  2  0  0  0  0
 23 25  1  0  0  0  0
 21 22  1  0  0  0  0
 19 20  1  0  0  0  0
 19 21  1  0  0  0  0
 17 18  1  0  0  0  0
 17 19  1  0  0  0  0
 15 16  1  0  0  0  0
 15 17  2  0  0  0  0
 14 15  1  0  0  0  0
 14 21  2  0  0  0  0
 11 12  1  0  0  0  0
 11 13  1  0  0  0  0
 11 14  1  0  0  0  0
  9 10  1  0  0  0  0
  9 11  1  0  0  0  0
  9 23  1  0  0  0  0
  7  8  1  0  0  0  0
  7  9  1  0  0  0  0
 27 28  1  0  0  0  0
 27 29  1  0  0  0  0
 27 30  1  0  0  0  0
 25 26  1  0  0  0  0
 25 27  1  0  0  0  0
M  CHG  1  15   1
M  END
$$$$
default_name
  -OEChem-02102213163D

 30 30  0     1  0  0  0  0  0999 V2000
   -3.5507   -3.2183    1.8116 H   0  0  0  0  0  0  0  0  0  0  0  0
   -3.4597   -2.3913    1.1076 C   0  0  0  0  0  0  0  0  0  0  0  0
   -4.1577   -1.6043    1.3866 H   0  0  0  0  0  0  0  0  0  0  0  0
   -3.6807   -2.7523    0.1036 H   0  0  0  0  0  0  0  0  0  0  0  0
   -2.0477   -1.8543    1.1546 C   0  0  0  0  0  0  0  0  0  0  0  0
   -1.2227   -2.3443    1.9146 O   0  0  0  0  0  0  0  0  0  0  0  0
   -1.7517   -0.8483    0.3266 N   0  0  0  0  0  0  0  0  0  0  0  0
   -2.4847   -0.5123   -0.2804 H   0  0  0  0  0  0  0  0  0  0  0  0
   -0.4117   -0.2463    0.2186 C   0  0  1  0  0  0  0  0  0  0  0  0
    0.2987   -1.0391   -0.0285 H   0  0  0  0  0  0  0  0  0  0  0  0
   -0.4131    0.7505   -0.9636 C   0  0  0  0  0  0  0  0  0  0  0  0
   -0.9445    0.2945   -1.8028 H   0  0  0  0  0  0  0  0  0  0  0  0
   -0.9739    1.6421   -0.6754 H   0  0  0  0  0  0  0  0  0  0  0  0
    0.9565    1.1889   -1.4374 C   0  0  0  0  0  0  0  0  0  0  0  0
    1.5782    0.7558   -2.5925 N   0  3  0  0  0  0  0  0  0  0  0  0
    1.1327    0.1368   -3.2759 H   0  0  0  0  0  0  0  0  0  0  0  0
    2.7803    1.3591   -2.6808 C   0  0  0  0  0  0  0  0  0  0  0  0
    3.4938    1.2249   -3.4913 H   0  0  0  0  0  0  0  0  0  0  0  0
    2.9353    2.1648   -1.6060 N   0  0  0  0  0  0  0  0  0  0  0  0
    3.7449    2.7471   -1.4084 H   0  0  0  0  0  0  0  0  0  0  0  0
    1.7990    2.0697   -0.8146 C   0  0  0  0  0  0  0  0  0  0  0  0
    1.6055    2.5899    0.1194 H   0  0  0  0  0  0  0  0  0  0  0  0
    0.0470    0.3465    1.5629 C   0  0  0  0  0  0  0  0  0  0  0  0
    1.1854    0.1365    1.9846 O   0  0  0  0  0  0  0  0  0  0  0  0
   -0.8551    1.0750    2.2320 N   0  0  0  0  0  0  0  0  0  0  0  0
   -1.7594    1.2031    1.8040 H   0  0  0  0  0  0  0  0  0  0  0  0
   -0.6356    1.6998    3.5400 C   0  0  0  0  0  0  0  0  0  0  0  0
   -0.4284    2.7647    3.4168 H   0  0  0  0  0  0  0  0  0  0  0  0
   -1.5268    1.5885    4.1601 H   0  0  0  0  0  0  0  0  0  0  0  0
    0.2072    1.2358    4.0566 H   0  0  0  0  0  0  0  0  0  0  0  0
  5  6  2  0  0  0  0
  5  7  1  0  0  0  0
  2  3  1  0  0  0  0
  2  4  1  0  0  0  0
  2  5  1  0  0  0  0
  1  2  1  0  0  0  0
 23 24  2  0  0  0  0
 23 25  1  0  0  0  0
 21 22  1  0  0  0  0
 19 20  1  0  0  0  0
 19 21  1  0  0  0  0
 17 18  1  0  0  0  0
 17 19  1  0  0  0  0
 15 16  1  0  0  0  0
 15 17  2  0  0  0  0
 14 15  1  0  0  0  0
 14 21  2  0  0  0  0
 11 12  1  0  0  0  0
 11 13  1  0  0  0  0
 11 14  1  0  0  0  0
  9 10  1  0  0  0  0
  9 11  1  0  0  0  0
  9 23  1  0  0  0  0
  7  8  1  0  0  0  0
  7  9  1  0  0  0  0
 27 28  1  0  0  0  0
 27 29  1  0  0  0  0
 27 30  1  0  0  0  0
 25 26  1  0  0  0  0
 25 27  1  0  0  0  0
M  CHG  1  15   1
M  END
$$$$
default_name
  -OEChem-02102213163D

 30 30  0     1  0  0  0  0  0999 V2000
   -3.5507   -3.2183    1.8116 H   0  0  0  0  0  0  0  0  0  0  0  0
   -3.4597   -2.3913    1.1076 C   0  0  0  0  0  0  0  0  0  0  0  0
   -4.1577   -1.6043    1.3866 H   0  0  0  0  0  0  0  0  0  0  0  0
   -3.6807   -2.7523    0.1036 H   0  0  0  0  0  0  0  0  0  0  0  0
   -2.0477   -1.8543    1.1546 C   0  0  0  0  0  0  0  0  0  0  0  0
   -1.2227   -2.3443    1.9146 O   0  0  0  0  0  0  0  0  0  0  0  0
   -1.7517   -0.8483    0.3266 N   0  0  0  0  0  0  0  0  0  0  0  0
   -2.4847   -0.5123   -0.2804 H   0  0  0  0  0  0  0  0  0  0  0  0
   -0.4117   -0.2463    0.2186 C   0  0  1  0  0  0  0  0  0  0  0  0
    0.2987   -1.0391   -0.0285 H   0  0  0  0  0  0  0  0  0  0  0  0
   -0.4131    0.7505   -0.9636 C   0  0  0  0  0  0  0  0  0  0  0  0
   -0.9445    0.2945   -1.8028 H   0  0  0  0  0  0  0  0  0  0  0  0
   -0.9739    1.6421   -0.6754 H   0  0  0  0  0  0  0  0  0  0  0  0
    0.9565    1.1889   -1.4374 C   0  0  0  0  0  0  0  0  0  0  0  0
    1.4600    0.9986   -2.7096 N   0  3  0  0  0  0  0  0  0  0  0  0
    0.9170    0.5930   -3.4774 H   0  0  0  0  0  0  0  0  0  0  0  0
    2.7031    1.5173   -2.7575 C   0  0  0  0  0  0  0  0  0  0  0  0
    3.3472    1.5282   -3.6344 H   0  0  0  0  0  0  0  0  0  0  0  0
    2.9998    2.0318   -1.5427 N   0  0  0  0  0  0  0  0  0  0  0  0
    3.8696    2.4907   -1.2851 H   0  0  0  0  0  0  0  0  0  0  0  0
    1.9136    1.8338   -0.7015 C   0  0  0  0  0  0  0  0  0  0  0  0
    1.8291    2.1301    0.3404 H   0  0  0  0  0  0  0  0  0  0  0  0
    0.0470    0.3465    1.5629 C   0  0  0  0  0  0  0  0  0  0  0  0
    1.1854    0.1365    1.9846 O   0  0  0  0  0  0  0  0  0  0  0  0
   -0.8551    1.0750    2.2320 N   0  0  0  0  0  0  0  0  0  0  0  0
   -1.7594    1.2031    1.8040 H   0  0  0  0  0  0  0  0  0  0  0  0
   -0.6356    1.6998    3.5400 C   0  0  0  0  0  0  0  0  0  0  0  0
   -0.4284    2.7647    3.4168 H   0  0  0  0  0  0  0  0  0  0  0  0
   -1.5268    1.5885    4.1601 H   0  0  0  0  0  0  0  0  0  0  0  0
    0.2072    1.2358    4.0566 H   0  0  0  0  0  0  0  0  0  0  0  0
  5  6  2  0  0  0  0
  5  7  1  0  0  0  0
  2  3  1  0  0  0  0
  2  4  1  0  0  0  0
  2  5  1  0  0  0  0
  1  2  1  0  0  0  0
 23 24  2  0  0  0  0
 23 25  1  0  0  0  0
 21 22  1  0  0  0  0
 19 20  1  0  0  0  0
 19 21  1  0  0  0  0
 17 18  1  0  0  0  0
 17 19  1  0  0  0  0
 15 16  1  0  0  0  0
 15 17  2  0  0  0  0
 14 15  1  0  0  0  0
 14 21  2  0  0  0  0
 11 12  1  0  0  0  0
 11 13  1  0  0  0  0
 11 14  1  0  0  0  0
  9 10  1  0  0  0  0
  9 11  1  0  0  0  0
  9 23  1  0  0  0  0
  7  8  1  0  0  0  0
  7  9  1  0  0  0  0
 27 28  1  0  0  0  0
 27 29  1  0  0  0  0
 27 30  1  0  0  0  0
 25 26  1  0  0  0  0
 25 27  1  0  0  0  0
M  CHG  1  15   1
M  END
$$$$
default_name
  -OEChem-02102213163D

 30 30  0     1  0  0  0  0  0999 V2000
   -3.5507   -3.2183    1.8116 H   0  0  0  0  0  0  0  0  0  0  0  0
   -3.4597   -2.3913    1.1076 C   0  0  0  0  0  0  0  0  0  0  0  0
   -4.1577   -1.6043    1.3866 H   0  0  0  0  0  0  0  0  0  0  0  0
   -3.6807   -2.7523    0.1036 H   0  0  0  0  0  0  0  0  0  0  0  0
   -2.0477   -1.8543    1.1546 C   0  0  0  0  0  0  0  0  0  0  0  0
   -1.2227   -2.3443    1.9146 O   0  0  0  0  0  0  0  0  0  0  0  0
   -1.7517   -0.8483    0.3266 N   0  0  0  0  0  0  0  0  0  0  0  0
   -2.4847   -0.5123   -0.2804 H   0  0  0  0  0  0  0  0  0  0  0  0
   -0.4117   -0.2463    0.2186 C   0  0  1  0  0  0  0  0  0  0  0  0
    0.2987   -1.0391   -0.0285 H   0  0  0  0  0  0  0  0  0  0  0  0
   -0.4131    0.7505   -0.9636 C   0  0  0  0  0  0  0  0  0  0  0  0
   -0.9445    0.2945   -1.8028 H   0  0  0  0  0  0  0  0  0  0  0  0
   -0.9739    1.6421   -0.6754 H   0  0  0  0  0  0  0  0  0  0  0  0
    0.9565    1.1889   -1.4374 C   0  0  0  0  0  0  0  0  0  0  0  0
    1.3567    1.2700   -2.7571 N   0  3  0  0  0  0  0  0  0  0  0  0
    0.7305    1.0984   -3.5490 H   0  0  0  0  0  0  0  0  0  0  0  0
    2.6356    1.6944   -2.7888 C   0  0  0  0  0  0  0  0  0  0  0  0
    3.2194    1.8665   -3.6907 H   0  0  0  0  0  0  0  0  0  0  0  0
    3.0561    1.8832   -1.5176 N   0  0  0  0  0  0  0  0  0  0  0  0
    3.9785    2.2040   -1.2354 H   0  0  0  0  0  0  0  0  0  0  0  0
    2.0137    1.5701   -0.6561 C   0  0  0  0  0  0  0  0  0  0  0  0
    2.0244    1.6161    0.4294 H   0  0  0  0  0  0  0  0  0  0  0  0
    0.0470    0.3465    1.5629 C   0  0  0  0  0  0  0  0  0  0  0  0
    1.1854    0.1365    1.9846 O   0  0  0  0  0  0  0  0  0  0  0  0
   -0.8551    1.0750    2.2320 N   0  0  0  0  0  0  0  0  0  0  0  0
   -1.7594    1.2031    1.8040 H   0  0  0  0  0  0  0  0  0  0  0  0
   -0.6356    1.6998    3.5400 C   0  0  0  0  0  0  0  0  0  0  0  0
   -0.4284    2.7647    3.4168 H   0  0  0  0  0  0  0  0  0  0  0  0
   -1.5268    1.5885    4.1601 H   0  0  0  0  0  0  0  0  0  0  0  0
    0.2072    1.2358    4.0566 H   0  0  0  0  0  0  0  0  0  0  0  0
  5  6  2  0  0  0  0
  5  7  1  0  0  0  0
  2  3  1  0  0  0  0
  2  4  1  0  0  0  0
  2  5  1  0  0  0  0
  1  2  1  0  0  0  0
 23 24  2  0  0  0  0
 23 25  1  0  0  0  0
 21 22  1  0  0  0  0
 19 20  1  0  0  0  0
 19 21  1  0  0  0  0
 17 18  1  0  0  0  0
 17 19  1  0  0  0  0
 15 16  1  0  0  0  0
 15 17  2  0  0  0  0
 14 15  1  0  0  0  0
 14 21  2  0  0  0  0
 11 12  1  0  0  0  0
 11 13  1  0  0  0  0
 11 14  1  0  0  0  0
  9 10  1  0  0  0  0
  9 11  1  0  0  0  0
  9 23  1  0  0  0  0
  7  8  1  0  0  0  0
  7  9  1  0  0  0  0
 27 28  1  0  0  0  0
 27 29  1  0  0  0  0
 27 30  1  0  0  0  0
 25 26  1  0  0  0  0
 25 27  1  0  0  0  0
M  CHG  1  15   1
M  END
$$$$
default_name
  -OEChem-02102213163D

 30 30  0     1  0  0  0  0  0999 V2000
   -3.5507   -3.2183    1.8116 H   0  0  0  0  0  0  0  0  0  0  0  0
   -3.4597   -2.3913    1.1076 C   0  0  0  0  0  0  0  0  0  0  0  0
   -4.1577   -1.6043    1.3866 H   0  0  0  0  0  0  0  0  0  0  0  0
   -3.6807   -2.7523    0.1036 H   0  0  0  0  0  0  0  0  0  0  0  0
   -2.0477   -1.8543    1.1546 C   0  0  0  0  0  0  0  0  0  0  0  0
   -1.2227   -2.3443    1.9146 O   0  0  0  0  0  0  0  0  0  0  0  0
   -1.7517   -0.8483    0.3266 N   0  0  0  0  0  0  0  0  0  0  0  0
   -2.4847   -0.5123   -0.2804 H   0  0  0  0  0  0  0  0  0  0  0  0
   -0.4117   -0.2463    0.2186 C   0  0  1  0  0  0  0  0  0  0  0  0
    0.2987   -1.0391   -0.0285 H   0  0  0  0  0  0  0  0  0  0  0  0
   -0.4131    0.7505   -0.9636 C   0  0  0  0  0  0  0  0  0  0  0  0
   -0.9445    0.2945   -1.8028 H   0  0  0  0  0  0  0  0  0  0  0  0
   -0.9739    1.6421   -0.6754 H   0  0  0  0  0  0  0  0  0  0  0  0
    0.9565    1.1889   -1.4374 C   0  0  0  0  0  0  0  0  0  0  0  0
    1.2753    1.5517   -2.7316 N   0  3  0  0  0  0  0  0  0  0  0  0
    0.5858    1.6184   -3.4859 H   0  0  0  0  0  0  0  0  0  0  0  0
    2.5824    1.8782   -2.7725 C   0  0  0  0  0  0  0  0  0  0  0  0
    3.1192    2.2168   -3.6563 H   0  0  0  0  0  0  0  0  0  0  0  0
    3.1002    1.7293   -1.5323 N   0  0  0  0  0  0  0  0  0  0  0  0
    4.0643    1.9067   -1.2627 H   0  0  0  0  0  0  0  0  0  0  0  0
    2.0925    1.2967   -0.6815 C   0  0  0  0  0  0  0  0  0  0  0  0
    2.1781    1.0830    0.3804 H   0  0  0  0  0  0  0  0  0  0  0  0
    0.0470    0.3465    1.5629 C   0  0  0  0  0  0  0  0  0  0  0  0
    1.1854    0.1365    1.9846 O   0  0  0  0  0  0  0  0  0  0  0  0
   -0.8551    1.0750    2.2320 N   0  0  0  0  0  0  0  0  0  0  0  0
   -1.7594    1.2031    1.8040 H   0  0  0  0  0  0  0  0  0  0  0  0
   -0.6356    1.6998    3.5400 C   0  0  0  0  0  0  0  0  0  0  0  0
   -0.4284    2.7647    3.4168 H   0  0  0  0  0  0  0  0  0  0  0  0
   -1.5268    1.5885    4.1601 H   0  0  0  0  0  0  0  0  0  0  0  0
    0.2072    1.2358    4.0566 H   0  0  0  0  0  0  0  0  0  0  0  0
  5  6  2  0  0  0  0
  5  7  1  0  0  0  0
  2  3  1  0  0  0  0
  2  4  1  0  0  0  0
  2  5  1  0  0  0  0
  1  2  1  0  0  0  0
 23 24  2  0  0  0  0
 23 25  1  0  0  0  0
 21 22  1  0  0  0  0
 19 20  1  0  0  0  0
 19 21  1  0  0  0  0
 17 18  1  0  0  0  0
 17 19  1  0  0  0  0
 15 16  1  0  0  0  0
 15 17  2  0  0  0  0
 14 15  1  0  0  0  0
 14 21  2  0  0  0  0
 11 12  1  0  0  0  0
 11 13  1  0  0  0  0
 11 14  1  0  0  0  0
  9 10  1  0  0  0  0
  9 11  1  0  0  0  0
  9 23  1  0  0  0  0
  7  8  1  0  0  0  0
  7  9  1  0  0  0  0
 27 28  1  0  0  0  0
 27 29  1  0  0  0  0
 27 30  1  0  0  0  0
 25 26  1  0  0  0  0
 25 27  1  0  0  0  0
M  CHG  1  15   1
M  END
$$$$
default_name
  -OEChem-02102213163D

 30 30  0     1  0  0  0  0  0999 V2000
   -3.5507   -3.2183    1.8116 H   0  0  0  0  0  0  0  0  0  0  0  0
   -3.4597   -2.3913    1.1076 C   0  0  0  0  0  0  0  0  0  0  0  0
   -4.1577   -1.6043    1.3866 H   0  0  0  0  0  0  0  0  0  0  0  0
   -3.6807   -2.7523    0.1036 H   0  0  0  0  0  0  0  0  0  0  0  0
   -2.0477   -1.8543    1.1546 C   0  0  0  0  0  0  0  0  0  0  0  0
   -1.2227   -2.3443    1.9146 O   0  0  0  0  0  0  0  0  0  0  0  0
   -1.7517   -0.8483    0.3266 N   0  0  0  0  0  0  0  0  0  0  0  0
   -2.4847   -0.5123   -0.2804 H   0  0  0  0  0  0  0  0  0  0  0  0
   -0.4117   -0.2463    0.2186 C   0  0  1  0  0  0  0  0  0  0  0  0
    0.2987   -1.0391   -0.0285 H   0  0  0  0  0  0  0  0  0  0  0  0
   -0.4131    0.7505   -0.9636 C   0  0  0  0  0  0  0  0  0  0  0  0
   -0.9445    0.2945   -1.8028 H   0  0  0  0  0  0  0  0  0  0  0  0
   -0.9739    1.6421   -0.6754 H   0  0  0  0  0  0  0  0  0  0  0  0
    0.9565    1.1889   -1.4374 C   0  0  0  0  0  0  0  0  0  0  0  0
    1.2214    1.8244   -2.6350 N   0  3  0  0  0  0  0  0  0  0  0  0
    0.4930    2.1176   -3.2923 H   0  0  0  0  0  0  0  0  0  0  0  0
    2.5471    2.0562   -2.7097 C   0  0  0  0  0  0  0  0  0  0  0  0
    3.0533    2.5552   -3.5336 H   0  0  0  0  0  0  0  0  0  0  0  0
    3.1293    1.5805   -1.5859 N   0  0  0  0  0  0  0  0  0  0  0  0
    4.1210    1.6189   -1.3652 H   0  0  0  0  0  0  0  0  0  0  0  0
    2.1445    1.0322   -0.7759 C   0  0  0  0  0  0  0  0  0  0  0  0
    2.2797    0.5672    0.1967 H   0  0  0  0  0  0  0  0  0  0  0  0
    0.0470    0.3465    1.5629 C   0  0  0  0  0  0  0  0  0  0  0  0
    1.1854    0.1365    1.9846 O   0  0  0  0  0  0  0  0  0  0  0  0
   -0.8551    1.0750    2.2320 N   0  0  0  0  0  0  0  0  0  0  0  0
   -1.7594    1.2031    1.8040 H   0  0  0  0  0  0  0  0  0  0  0  0
   -0.6356    1.6998    3.5400 C   0  0  0  0  0  0  0  0  0  0  0  0
   -0.4284    2.7647    3.4168 H   0  0  0  0  0  0  0  0  0  0  0  0
   -1.5268    1.5885    4.1601 H   0  0  0  0  0  0  0  0  0  0  0  0
    0.2072    1.2358    4.0566 H   0  0  0  0  0  0  0  0  0  0  0  0
  5  6  2  0  0  0  0
  5  7  1  0  0  0  0
  2  3  1  0  0  0  0
  2  4  1  0  0  0  0
  2  5  1  0  0  0  0
  1  2  1  0  0  0  0
 23 24  2  0  0  0  0
 23 25  1  0  0  0  0
 21 22  1  0  0  0  0
 19 20  1  0  0  0  0
 19 21  1  0  0  0  0
 17 18  1  0  0  0  0
 17 19  1  0  0  0  0
 15 16  1  0  0  0  0
 15 17  2  0  0  0  0
 14 15  1  0  0  0  0
 14 21  2  0  0  0  0
 11 12  1  0  0  0  0
 11 13  1  0  0  0  0
 11 14  1  0  0  0  0
  9 10  1  0  0  0  0
  9 11  1  0  0  0  0
  9 23  1  0  0  0  0
  7  8  1  0  0  0  0
  7  9  1  0  0  0  0
 27 28  1  0  0  0  0
 27 29  1  0  0  0  0
 27 30  1  0  0  0  0
 25 26  1  0  0  0  0
 25 27  1  0  0  0  0
M  CHG  1  15   1
M  END
$$$$
default_name
  -OEChem-02102213163D

 30 30  0     1  0  0  0  0  0999 V2000
   -3.5507   -3.2183    1.8116 H   0  0  0  0  0  0  0  0  0  0  0  0
   -3.4597   -2.3913    1.1076 C   0  0  0  0  0  0  0  0  0  0  0  0
   -4.1577   -1.6043    1.3866 H   0  0  0  0  0  0  0  0  0  0  0  0
   -3.6807   -2.7523    0.1036 H   0  0  0  0  0  0  0  0  0  0  0  0
   -2.0477   -1.8543    1.1546 C   0  0  0  0  0  0  0  0  0  0  0  0
   -1.2227   -2.3443    1.9146 O   0  0  0  0  0  0  0  0  0  0  0  0
   -1.7517   -0.8483    0.3266 N   0  0  0  0  0  0  0  0  0  0  0  0
   -2.4847   -0.5123   -0.2804 H   0  0  0  0  0  0  0  0  0  0  0  0
   -0.4117   -0.2463    0.2186 C   0  0  1  0  0  0  0  0  0  0  0  0
    0.2987   -1.0391   -0.0285 H   0  0  0  0  0  0  0  0  0  0  0  0
   -0.4131    0.7505   -0.9636 C   0  0  0  0  0  0  0  0  0  0  0  0
   -1.1566    0.4227   -1.6946 H   0  0  0  0  0  0  0  0  0  0  0  0
   -0.7303    1.7306   -0.6011 H   0  0  0  0  0  0  0  0  0  0  0  0
    0.9175    0.9170   -1.6666 C   0  0  0  0  0  0  0  0  0  0  0  0
    1.1528    1.7493   -2.7437 N   0  3  0  0  0  0  0  0  0  0  0  0
    0.4503    2.3870   -3.1291 H   0  0  0  0  0  0  0  0  0  0  0  0
    2.4480    1.6315   -3.0978 C   0  0  0  0  0  0  0  0  0  0  0  0
    2.9313    2.1753   -3.9069 H   0  0  0  0  0  0  0  0  0  0  0  0
    3.0395    0.7414   -2.2693 N   0  0  0  0  0  0  0  0  0  0  0  0
    4.0147    0.4557   -2.2982 H   0  0  0  0  0  0  0  0  0  0  0  0
    2.0922    0.2828   -1.3643 C   0  0  0  0  0  0  0  0  0  0  0  0
    2.2437   -0.4390   -0.5665 H   0  0  0  0  0  0  0  0  0  0  0  0
    0.0470    0.3465    1.5629 C   0  0  0  0  0  0  0  0  0  0  0  0
    1.1854    0.1365    1.9846 O   0  0  0  0  0  0  0  0  0  0  0  0
   -0.8551    1.0750    2.2320 N   0  0  0  0  0  0  0  0  0  0  0  0
   -1.7594    1.2031    1.8040 H   0  0  0  0  0  0  0  0  0  0  0  0
   -0.6356    1.6998    3.5400 C   0  0  0  0  0  0  0  0  0  0  0  0
   -0.4284    2.7647    3.4168 H   0  0  0  0  0  0  0  0  0  0  0  0
   -1.5268    1.5885    4.1601 H   0  0  0  0  0  0  0  0  0  0  0  0
    0.2072    1.2358    4.0566 H   0  0  0  0  0  0  0  0  0  0  0  0
  5  6  2  0  0  0  0
  5  7  1  0  0  0  0
  2  3  1  0  0  0  0
  2  4  1  0  0  0  0
  2  5  1  0  0  0  0
  1  2  1  0  0  0  0
 23 24  2  0  0  0  0
 23 25  1  0  0  0  0
 21 22  1  0  0  0  0
 19 20  1  0  0  0  0
 19 21  1  0  0  0  0
 17 18  1  0  0  0  0
 17 19  1  0  0  0  0
 15 16  1  0  0  0  0
 15 17  2  0  0  0  0
 14 15  1  0  0  0  0
 14 21  2  0  0  0  0
 11 12  1  0  0  0  0
 11 13  1  0  0  0  0
 11 14  1  0  0  0  0
  9 10  1  0  0  0  0
  9 11  1  0  0  0  0
  9 23  1  0  0  0  0
  7  8  1  0  0  0  0
  7  9  1  0  0  0  0
 27 28  1  0  0  0  0
 27 29  1  0  0  0  0
 27 30  1  0  0  0  0
 25 26  1  0  0  0  0
 25 27  1  0  0  0  0
M  CHG  1  15   1
M  END
$$$$
default_name
  -OEChem-02102213163D

 30 30  0     1  0  0  0  0  0999 V2000
   -3.5507   -3.2183    1.8116 H   0  0  0  0  0  0  0  0  0  0  0  0
   -3.4597   -2.3913    1.1076 C   0  0  0  0  0  0  0  0  0  0  0  0
   -4.1577   -1.6043    1.3866 H   0  0  0  0  0  0  0  0  0  0  0  0
   -3.6807   -2.7523    0.1036 H   0  0  0  0  0  0  0  0  0  0  0  0
   -2.0477   -1.8543    1.1546 C   0  0  0  0  0  0  0  0  0  0  0  0
   -1.2227   -2.3443    1.9146 O   0  0  0  0  0  0  0  0  0  0  0  0
   -1.7517   -0.8483    0.3266 N   0  0  0  0  0  0  0  0  0  0  0  0
   -2.4847   -0.5123   -0.2804 H   0  0  0  0  0  0  0  0  0  0  0  0
   -0.4117   -0.2463    0.2186 C   0  0  1  0  0  0  0  0  0  0  0  0
    0.2987   -1.0391   -0.0285 H   0  0  0  0  0  0  0  0  0  0  0  0
   -0.4131    0.7505   -0.9636 C   0  0  0  0  0  0  0  0  0  0  0  0
   -1.1566    0.4227   -1.6946 H   0  0  0  0  0  0  0  0  0  0  0  0
   -0.7303    1.7306   -0.6011 H   0  0  0  0  0  0  0  0  0  0  0  0
    0.9175    0.9170   -1.6666 C   0  0  0  0  0  0  0  0  0  0  0  0
    1.2381    1.9407   -2.5370 N   0  3  0  0  0  0  0  0  0  0  0  0
    0.6141    2.7273   -2.7384 H   0  0  0  0  0  0  0  0  0  0  0  0
    2.5035    1.7566   -2.9631 C   0  0  0  0  0  0  0  0  0  0  0  0
    3.0384    2.4111   -3.6483 H   0  0  0  0  0  0  0  0  0  0  0  0
    2.9925    0.6375   -2.3827 N   0  0  0  0  0  0  0  0  0  0  0  0
    3.9245    0.2541   -2.5167 H   0  0  0  0  0  0  0  0  0  0  0  0
    2.0092    0.0976   -1.5653 C   0  0  0  0  0  0  0  0  0  0  0  0
    2.0820   -0.8005   -0.9581 H   0  0  0  0  0  0  0  0  0  0  0  0
    0.0470    0.3465    1.5629 C   0  0  0  0  0  0  0  0  0  0  0  0
    1.1854    0.1365    1.9846 O   0  0  0  0  0  0  0  0  0  0  0  0
   -0.8551    1.0750    2.2320 N   0  0  0  0  0  0  0  0  0  0  0  0
   -1.7594    1.2031    1.8040 H   0  0  0  0  0  0  0  0  0  0  0  0
   -0.6356    1.6998    3.5400 C   0  0  0  0  0  0  0  0  0  0  0  0
   -0.4284    2.7647    3.4168 H   0  0  0  0  0  0  0  0  0  0  0  0
   -1.5268    1.5885    4.1601 H   0  0  0  0  0  0  0  0  0  0  0  0
    0.2072    1.2358    4.0566 H   0  0  0  0  0  0  0  0  0  0  0  0
  5  6  2  0  0  0  0
  5  7  1  0  0  0  0
  2  3  1  0  0  0  0
  2  4  1  0  0  0  0
  2  5  1  0  0  0  0
  1  2  1  0  0  0  0
 23 24  2  0  0  0  0
 23 25  1  0  0  0  0
 21 22  1  0  0  0  0
 19 20  1  0  0  0  0
 19 21  1  0  0  0  0
 17 18  1  0  0  0  0
 17 19  1  0  0  0  0
 15 16  1  0  0  0  0
 15 17  2  0  0  0  0
 14 15  1  0  0  0  0
 14 21  2  0  0  0  0
 11 12  1  0  0  0  0
 11 13  1  0  0  0  0
 11 14  1  0  0  0  0
  9 10  1  0  0  0  0
  9 11  1  0  0  0  0
  9 23  1  0  0  0  0
  7  8  1  0  0  0  0
  7  9  1  0  0  0  0
 27 28  1  0  0  0  0
 27 29  1  0  0  0  0
 27 30  1  0  0  0  0
 25 26  1  0  0  0  0
 25 27  1  0  0  0  0
M  CHG  1  15   1
M  END
$$$$
default_name
  -OEChem-02102213163D

 30 30  0     1  0  0  0  0  0999 V2000
   -3.5507   -3.2183    1.8116 H   0  0  0  0  0  0  0  0  0  0  0  0
   -3.4597   -2.3913    1.1076 C   0  0  0  0  0  0  0  0  0  0  0  0
   -4.1577   -1.6043    1.3866 H   0  0  0  0  0  0  0  0  0  0  0  0
   -3.6807   -2.7523    0.1036 H   0  0  0  0  0  0  0  0  0  0  0  0
   -2.0477   -1.8543    1.1546 C   0  0  0  0  0  0  0  0  0  0  0  0
   -1.2227   -2.3443    1.9146 O   0  0  0  0  0  0  0  0  0  0  0  0
   -1.7517   -0.8483    0.3266 N   0  0  0  0  0  0  0  0  0  0  0  0
   -2.4847   -0.5123   -0.2804 H   0  0  0  0  0  0  0  0  0  0  0  0
   -0.4117   -0.2463    0.2186 C   0  0  1  0  0  0  0  0  0  0  0  0
    0.2987   -1.0391   -0.0285 H   0  0  0  0  0  0  0  0  0  0  0  0
   -0.4131    0.7505   -0.9636 C   0  0  0  0  0  0  0  0  0  0  0  0
   -1.1566    0.4227   -1.6946 H   0  0  0  0  0  0  0  0  0  0  0  0
   -0.7303    1.7306   -0.6011 H   0  0  0  0  0  0  0  0  0  0  0  0
    0.9175    0.9170   -1.6666 C   0  0  0  0  0  0  0  0  0  0  0  0
    1.3493    2.0683   -2.2962 N   0  3  0  0  0  0  0  0  0  0  0  0
    0.8243    2.9475   -2.2883 H   0  0  0  0  0  0  0  0  0  0  0  0
    2.5760    1.8401   -2.8061 C   0  0  0  0  0  0  0  0  0  0  0  0
    3.1775    2.5672   -3.3479 H   0  0  0  0  0  0  0  0  0  0  0  0
    2.9315    0.5685   -2.5146 N   0  0  0  0  0  0  0  0  0  0  0  0
    3.8070    0.1198   -2.7710 H   0  0  0  0  0  0  0  0  0  0  0  0
    1.9011   -0.0256   -1.7992 C   0  0  0  0  0  0  0  0  0  0  0  0
    1.8713   -1.0411   -1.4140 H   0  0  0  0  0  0  0  0  0  0  0  0
    0.0470    0.3465    1.5629 C   0  0  0  0  0  0  0  0  0  0  0  0
    1.1854    0.1365    1.9846 O   0  0  0  0  0  0  0  0  0  0  0  0
   -0.8551    1.0750    2.2320 N   0  0  0  0  0  0  0  0  0  0  0  0
   -1.7594    1.2031    1.8040 H   0  0  0  0  0  0  0  0  0  0  0  0
   -0.6356    1.6998    3.5400 C   0  0  0  0  0  0  0  0  0  0  0  0
   -0.4284    2.7647    3.4168 H   0  0  0  0  0  0  0  0  0  0  0  0
   -1.5268    1.5885    4.1601 H   0  0  0  0  0  0  0  0  0  0  0  0
    0.2072    1.2358    4.0566 H   0  0  0  0  0  0  0  0  0  0  0  0
  5  6  2  0  0  0  0
  5  7  1  0  0  0  0
  2  3  1  0  0  0  0
  2  4  1  0  0  0  0
  2  5  1  0  0  0  0
  1  2  1  0  0  0  0
 23 24  2  0  0  0  0
 23 25  1  0  0  0  0
 21 22  1  0  0  0  0
 19 20  1  0  0  0  0
 19 21  1  0  0  0  0
 17 18  1  0  0  0  0
 17 19  1  0  0  0  0
 15 16  1  0  0  0  0
 15 17  2  0  0  0  0
 14 15  1  0  0  0  0
 14 21  2  0  0  0  0
 11 12  1  0  0  0  0
 11 13  1  0  0  0  0
 11 14  1  0  0  0  0
  9 10  1  0  0  0  0
  9 11  1  0  0  0  0
  9 23  1  0  0  0  0
  7  8  1  0  0  0  0
  7  9  1  0  0  0  0
 27 28  1  0  0  0  0
 27 29  1  0  0  0  0
 27 30  1  0  0  0  0
 25 26  1  0  0  0  0
 25 27  1  0  0  0  0
M  CHG  1  15   1
M  END
$$$$
default_name
  -OEChem-02102213163D

 30 30  0     1  0  0  0  0  0999 V2000
   -3.5507   -3.2183    1.8116 H   0  0  0  0  0  0  0  0  0  0  0  0
   -3.4597   -2.3913    1.1076 C   0  0  0  0  0  0  0  0  0  0  0  0
   -4.1577   -1.6043    1.3866 H   0  0  0  0  0  0  0  0  0  0  0  0
   -3.6807   -2.7523    0.1036 H   0  0  0  0  0  0  0  0  0  0  0  0
   -2.0477   -1.8543    1.1546 C   0  0  0  0  0  0  0  0  0  0  0  0
   -1.2227   -2.3443    1.9146 O   0  0  0  0  0  0  0  0  0  0  0  0
   -1.7517   -0.8483    0.3266 N   0  0  0  0  0  0  0  0  0  0  0  0
   -2.4847   -0.5123   -0.2804 H   0  0  0  0  0  0  0  0  0  0  0  0
   -0.4117   -0.2463    0.2186 C   0  0  1  0  0  0  0  0  0  0  0  0
    0.2987   -1.0391   -0.0285 H   0  0  0  0  0  0  0  0  0  0  0  0
   -0.4131    0.7505   -0.9636 C   0  0  0  0  0  0  0  0  0  0  0  0
   -1.1566    0.4227   -1.6946 H   0  0  0  0  0  0  0  0  0  0  0  0
   -0.7303    1.7306   -0.6011 H   0  0  0  0  0  0  0  0  0  0  0  0
    0.9175    0.9170   -1.6666 C   0  0  0  0  0  0  0  0  0  0  0  0
    1.4789    2.1234   -2.0378 N   0  3  0  0  0  0  0  0  0  0  0  0
    1.0667    3.0325   -1.8094 H   0  0  0  0  0  0  0  0  0  0  0  0
    2.6605    1.8764   -2.6375 C   0  0  0  0  0  0  0  0  0  0  0  0
    3.3393    2.6329   -3.0262 H   0  0  0  0  0  0  0  0  0  0  0  0
    2.8605    0.5393   -2.6559 N   0  0  0  0  0  0  0  0  0  0  0  0
    3.6701    0.0621   -3.0438 H   0  0  0  0  0  0  0  0  0  0  0  0
    1.7751   -0.0784   -2.0501 C   0  0  0  0  0  0  0  0  0  0  0  0
    1.6258   -1.1446   -1.9032 H   0  0  0  0  0  0  0  0  0  0  0  0
    0.0470    0.3465    1.5629 C   0  0  0  0  0  0  0  0  0  0  0  0
    1.1854    0.1365    1.9846 O   0  0  0  0  0  0  0  0  0  0  0  0
   -0.8551    1.0750    2.2320 N   0  0  0  0  0  0  0  0  0  0  0  0
   -1.7594    1.2031    1.8040 H   0  0  0  0  0  0  0  0  0  0  0  0
   -0.6356    1.6998    3.5400 C   0  0  0  0  0  0  0  0  0  0  0  0
   -0.4284    2.7647    3.4168 H   0  0  0  0  0  0  0  0  0  0  0  0
   -1.5268    1.5885    4.1601 H   0  0  0  0  0  0  0  0  0  0  0  0
    0.2072    1.2358    4.0566 H   0  0  0  0  0  0  0  0  0  0  0  0
  5  6  2  0  0  0  0
  5  7  1  0  0  0  0
  2  3  1  0  0  0  0
  2  4  1  0  0  0  0
  2  5  1  0  0  0  0
  1  2  1  0  0  0  0
 23 24  2  0  0  0  0
 23 25  1  0  0  0  0
 21 22  1  0  0  0  0
 19 20  1  0  0  0  0
 19 21  1  0  0  0  0
 17 18  1  0  0  0  0
 17 19  1  0  0  0  0
 15 16  1  0  0  0  0
 15 17  2  0  0  0  0
 14 15  1  0  0  0  0
 14 21  2  0  0  0  0
 11 12  1  0  0  0  0
 11 13  1  0  0  0  0
 11 14  1  0  0  0  0
  9 10  1  0  0  0  0
  9 11  1  0  0  0  0
  9 23  1  0  0  0  0
  7  8  1  0  0  0  0
  7  9  1  0  0  0  0
 27 28  1  0  0  0  0
 27 29  1  0  0  0  0
 27 30  1  0  0  0  0
 25 26  1  0  0  0  0
 25 27  1  0  0  0  0
M  CHG  1  15   1
M  END
$$$$
default_name
  -OEChem-02102213163D

 30 30  0     1  0  0  0  0  0999 V2000
   -3.5507   -3.2183    1.8116 H   0  0  0  0  0  0  0  0  0  0  0  0
   -3.4597   -2.3913    1.1076 C   0  0  0  0  0  0  0  0  0  0  0  0
   -4.1577   -1.6043    1.3866 H   0  0  0  0  0  0  0  0  0  0  0  0
   -3.6807   -2.7523    0.1036 H   0  0  0  0  0  0  0  0  0  0  0  0
   -2.0477   -1.8543    1.1546 C   0  0  0  0  0  0  0  0  0  0  0  0
   -1.2227   -2.3443    1.9146 O   0  0  0  0  0  0  0  0  0  0  0  0
   -1.7517   -0.8483    0.3266 N   0  0  0  0  0  0  0  0  0  0  0  0
   -2.4847   -0.5123   -0.2804 H   0  0  0  0  0  0  0  0  0  0  0  0
   -0.4117   -0.2463    0.2186 C   0  0  1  0  0  0  0  0  0  0  0  0
    0.2987   -1.0391   -0.0285 H   0  0  0  0  0  0  0  0  0  0  0  0
   -0.4131    0.7505   -0.9636 C   0  0  0  0  0  0  0  0  0  0  0  0
   -1.1566    0.4227   -1.6946 H   0  0  0  0  0  0  0  0  0  0  0  0
   -0.7303    1.7306   -0.6011 H   0  0  0  0  0  0  0  0  0  0  0  0
    0.9175    0.9170   -1.6666 C   0  0  0  0  0  0  0  0  0  0  0  0
    1.6181    2.1022   -1.7793 N   0  3  0  0  0  0  0  0  0  0  0  0
    1.3246    2.9766   -1.3343 H   0  0  0  0  0  0  0  0  0  0  0  0
    2.7513    1.8630   -2.4688 C   0  0  0  0  0  0  0  0  0  0  0  0
    3.5125    2.6037   -2.7052 H   0  0  0  0  0  0  0  0  0  0  0  0
    2.7844    0.5516   -2.7970 N   0  0  0  0  0  0  0  0  0  0  0  0
    3.5231    0.0848   -3.3166 H   0  0  0  0  0  0  0  0  0  0  0  0
    1.6400   -0.0573   -2.3009 C   0  0  0  0  0  0  0  0  0  0  0  0
    1.3624   -1.1037   -2.3922 H   0  0  0  0  0  0  0  0  0  0  0  0
    0.0470    0.3465    1.5629 C   0  0  0  0  0  0  0  0  0  0  0  0
    1.1854    0.1365    1.9846 O   0  0  0  0  0  0  0  0  0  0  0  0
   -0.8551    1.0750    2.2320 N   0  0  0  0  0  0  0  0  0  0  0  0
   -1.7594    1.2031    1.8040 H   0  0  0  0  0  0  0  0  0  0  0  0
   -0.6356    1.6998    3.5400 C   0  0  0  0  0  0  0  0  0  0  0  0
   -0.4284    2.7647    3.4168 H   0  0  0  0  0  0  0  0  0  0  0  0
   -1.5268    1.5885    4.1601 H   0  0  0  0  0  0  0  0  0  0  0  0
    0.2072    1.2358    4.0566 H   0  0  0  0  0  0  0  0  0  0  0  0
  5  6  2  0  0  0  0
  5  7  1  0  0  0  0
  2  3  1  0  0  0  0
  2  4  1  0  0  0  0
  2  5  1  0  0  0  0
  1  2  1  0  0  0  0
 23 24  2  0  0  0  0
 23 25  1  0  0  0  0
 21 22  1  0  0  0  0
 19 20  1  0  0  0  0
 19 21  1  0  0  0  0
 17 18  1  0  0  0  0
 17 19  1  0  0  0  0
 15 16  1  0  0  0  0
 15 17  2  0  0  0  0
 14 15  1  0  0  0  0
 14 21  2  0  0  0  0
 11 12  1  0  0  0  0
 11 13  1  0  0  0  0
 11 14  1  0  0  0  0
  9 10  1  0  0  0  0
  9 11  1  0  0  0  0
  9 23  1  0  0  0  0
  7  8  1  0  0  0  0
  7  9  1  0  0  0  0
 27 28  1  0  0  0  0
 27 29  1  0  0  0  0
 27 30  1  0  0  0  0
 25 26  1  0  0  0  0
 25 27  1  0  0  0  0
M  CHG  1  15   1
M  END
$$$$
default_name
  -OEChem-02102213163D

 30 30  0     1  0  0  0  0  0999 V2000
   -3.5507   -3.2183    1.8116 H   0  0  0  0  0  0  0  0  0  0  0  0
   -3.4597   -2.3913    1.1076 C   0  0  0  0  0  0  0  0  0  0  0  0
   -4.1577   -1.6043    1.3866 H   0  0  0  0  0  0  0  0  0  0  0  0
   -3.6807   -2.7523    0.1036 H   0  0  0  0  0  0  0  0  0  0  0  0
   -2.0477   -1.8543    1.1546 C   0  0  0  0  0  0  0  0  0  0  0  0
   -1.2227   -2.3443    1.9146 O   0  0  0  0  0  0  0  0  0  0  0  0
   -1.7517   -0.8483    0.3266 N   0  0  0  0  0  0  0  0  0  0  0  0
   -2.4847   -0.5123   -0.2804 H   0  0  0  0  0  0  0  0  0  0  0  0
   -0.4117   -0.2463    0.2186 C   0  0  1  0  0  0  0  0  0  0  0  0
    0.2987   -1.0391   -0.0285 H   0  0  0  0  0  0  0  0  0  0  0  0
   -0.4131    0.7505   -0.9636 C   0  0  0  0  0  0  0  0  0  0  0  0
   -1.1566    0.4227   -1.6946 H   0  0  0  0  0  0  0  0  0  0  0  0
   -0.7303    1.7306   -0.6011 H   0  0  0  0  0  0  0  0  0  0  0  0
    0.9175    0.9170   -1.6666 C   0  0  0  0  0  0  0  0  0  0  0  0
    1.7574    2.0063   -1.5385 N   0  3  0  0  0  0  0  0  0  0  0  0
    1.5806    2.7836   -0.8956 H   0  0  0  0  0  0  0  0  0  0  0  0
    2.8422    1.8007   -2.3115 C   0  0  0  0  0  0  0  0  0  0  0  0
    3.6855    2.4817   -2.4066 H   0  0  0  0  0  0  0  0  0  0  0  0
    2.7084    0.6049   -2.9283 N   0  0  0  0  0  0  0  0  0  0  0  0
    3.3762    0.1865   -3.5707 H   0  0  0  0  0  0  0  0  0  0  0  0
    1.5049    0.0365   -2.5344 C   0  0  0  0  0  0  0  0  0  0  0  0
    1.0989   -0.9214   -2.8477 H   0  0  0  0  0  0  0  0  0  0  0  0
    0.0470    0.3465    1.5629 C   0  0  0  0  0  0  0  0  0  0  0  0
    1.1854    0.1365    1.9846 O   0  0  0  0  0  0  0  0  0  0  0  0
   -0.8551    1.0750    2.2320 N   0  0  0  0  0  0  0  0  0  0  0  0
   -1.7594    1.2031    1.8040 H   0  0  0  0  0  0  0  0  0  0  0  0
   -0.6356    1.6998    3.5400 C   0  0  0  0  0  0  0  0  0  0  0  0
   -0.4284    2.7647    3.4168 H   0  0  0  0  0  0  0  0  0  0  0  0
   -1.5268    1.5885    4.1601 H   0  0  0  0  0  0  0  0  0  0  0  0
    0.2072    1.2358    4.0566 H   0  0  0  0  0  0  0  0  0  0  0  0
  5  6  2  0  0  0  0
  5  7  1  0  0  0  0
  2  3  1  0  0  0  0
  2  4  1  0  0  0  0
  2  5  1  0  0  0  0
  1  2  1  0  0  0  0
 23 24  2  0  0  0  0
 23 25  1  0  0  0  0
 21 22  1  0  0  0  0
 19 20  1  0  0  0  0
 19 21  1  0  0  0  0
 17 18  1  0  0  0  0
 17 19  1  0  0  0  0
 15 16  1  0  0  0  0
 15 17  2  0  0  0  0
 14 15  1  0  0  0  0
 14 21  2  0  0  0  0
 11 12  1  0  0  0  0
 11 13  1  0  0  0  0
 11 14  1  0  0  0  0
  9 10  1  0  0  0  0
  9 11  1  0  0  0  0
  9 23  1  0  0  0  0
  7  8  1  0  0  0  0
  7  9  1  0  0  0  0
 27 28  1  0  0  0  0
 27 29  1  0  0  0  0
 27 30  1  0  0  0  0
 25 26  1  0  0  0  0
 25 27  1  0  0  0  0
M  CHG  1  15   1
M  END
$$$$
default_name
  -OEChem-02102213163D

 30 30  0     1  0  0  0  0  0999 V2000
   -3.5507   -3.2183    1.8116 H   0  0  0  0  0  0  0  0  0  0  0  0
   -3.4597   -2.3913    1.1076 C   0  0  0  0  0  0  0  0  0  0  0  0
   -4.1577   -1.6043    1.3866 H   0  0  0  0  0  0  0  0  0  0  0  0
   -3.6807   -2.7523    0.1036 H   0  0  0  0  0  0  0  0  0  0  0  0
   -2.0477   -1.8543    1.1546 C   0  0  0  0  0  0  0  0  0  0  0  0
   -1.2227   -2.3443    1.9146 O   0  0  0  0  0  0  0  0  0  0  0  0
   -1.7517   -0.8483    0.3266 N   0  0  0  0  0  0  0  0  0  0  0  0
   -2.4847   -0.5123   -0.2804 H   0  0  0  0  0  0  0  0  0  0  0  0
   -0.4117   -0.2463    0.2186 C   0  0  1  0  0  0  0  0  0  0  0  0
    0.2987   -1.0391   -0.0285 H   0  0  0  0  0  0  0  0  0  0  0  0
   -0.4131    0.7505   -0.9636 C   0  0  0  0  0  0  0  0  0  0  0  0
   -1.1566    0.4227   -1.6946 H   0  0  0  0  0  0  0  0  0  0  0  0
   -0.7303    1.7306   -0.6011 H   0  0  0  0  0  0  0  0  0  0  0  0
    0.9175    0.9170   -1.6666 C   0  0  0  0  0  0  0  0  0  0  0  0
    1.8872    1.8421   -1.3316 N   0  3  0  0  0  0  0  0  0  0  0  0
    1.8171    2.4665   -0.5229 H   0  0  0  0  0  0  0  0  0  0  0  0
    2.9269    1.6939   -2.1763 C   0  0  0  0  0  0  0  0  0  0  0  0
    3.8464    2.2752   -2.1509 H   0  0  0  0  0  0  0  0  0  0  0  0
    2.6376    0.6953   -3.0409 N   0  0  0  0  0  0  0  0  0  0  0  0
    3.2392    0.3602   -3.7888 H   0  0  0  0  0  0  0  0  0  0  0  0
    1.3790    0.1964   -2.7349 C   0  0  0  0  0  0  0  0  0  0  0  0
    0.8534   -0.6099   -3.2388 H   0  0  0  0  0  0  0  0  0  0  0  0
    0.0470    0.3465    1.5629 C   0  0  0  0  0  0  0  0  0  0  0  0
    1.1854    0.1365    1.9846 O   0  0  0  0  0  0  0  0  0  0  0  0
   -0.8551    1.0750    2.2320 N   0  0  0  0  0  0  0  0  0  0  0  0
   -1.7594    1.2031    1.8040 H   0  0  0  0  0  0  0  0  0  0  0  0
   -0.6356    1.6998    3.5400 C   0  0  0  0  0  0  0  0  0  0  0  0
   -0.4284    2.7647    3.4168 H   0  0  0  0  0  0  0  0  0  0  0  0
   -1.5268    1.5885    4.1601 H   0  0  0  0  0  0  0  0  0  0  0  0
    0.2072    1.2358    4.0566 H   0  0  0  0  0  0  0  0  0  0  0  0
  5  6  2  0  0  0  0
  5  7  1  0  0  0  0
  2  3  1  0  0  0  0
  2  4  1  0  0  0  0
  2  5  1  0  0  0  0
  1  2  1  0  0  0  0
 23 24  2  0  0  0  0
 23 25  1  0  0  0  0
 21 22  1  0  0  0  0
 19 20  1  0  0  0  0
 19 21  1  0  0  0  0
 17 18  1  0  0  0  0
 17 19  1  0  0  0  0
 15 16  1  0  0  0  0
 15 17  2  0  0  0  0
 14 15  1  0  0  0  0
 14 21  2  0  0  0  0
 11 12  1  0  0  0  0
 11 13  1  0  0  0  0
 11 14  1  0  0  0  0
  9 10  1  0  0  0  0
  9 11  1  0  0  0  0
  9 23  1  0  0  0  0
  7  8  1  0  0  0  0
  7  9  1  0  0  0  0
 27 28  1  0  0  0  0
 27 29  1  0  0  0  0
 27 30  1  0  0  0  0
 25 26  1  0  0  0  0
 25 27  1  0  0  0  0
M  CHG  1  15   1
M  END
$$$$
default_name
  -OEChem-02102213163D

 30 30  0     1  0  0  0  0  0999 V2000
   -3.5507   -3.2183    1.8116 H   0  0  0  0  0  0  0  0  0  0  0  0
   -3.4597   -2.3913    1.1076 C   0  0  0  0  0  0  0  0  0  0  0  0
   -4.1577   -1.6043    1.3866 H   0  0  0  0  0  0  0  0  0  0  0  0
   -3.6807   -2.7523    0.1036 H   0  0  0  0  0  0  0  0  0  0  0  0
   -2.0477   -1.8543    1.1546 C   0  0  0  0  0  0  0  0  0  0  0  0
   -1.2227   -2.3443    1.9146 O   0  0  0  0  0  0  0  0  0  0  0  0
   -1.7517   -0.8483    0.3266 N   0  0  0  0  0  0  0  0  0  0  0  0
   -2.4847   -0.5123   -0.2804 H   0  0  0  0  0  0  0  0  0  0  0  0
   -0.4117   -0.2463    0.2186 C   0  0  1  0  0  0  0  0  0  0  0  0
    0.2987   -1.0391   -0.0285 H   0  0  0  0  0  0  0  0  0  0  0  0
   -0.4131    0.7505   -0.9636 C   0  0  0  0  0  0  0  0  0  0  0  0
   -1.1566    0.4227   -1.6946 H   0  0  0  0  0  0  0  0  0  0  0  0
   -0.7303    1.7306   -0.6011 H   0  0  0  0  0  0  0  0  0  0  0  0
    0.9175    0.9170   -1.6666 C   0  0  0  0  0  0  0  0  0  0  0  0
    1.9988    1.6209   -1.1728 N   0  3  0  0  0  0  0  0  0  0  0  0
    2.0181    2.0471   -0.2418 H   0  0  0  0  0  0  0  0  0  0  0  0
    2.9999    1.5497   -2.0725 C   0  0  0  0  0  0  0  0  0  0  0  0
    3.9844    1.9982   -1.9554 H   0  0  0  0  0  0  0  0  0  0  0  0
    2.5769    0.8167   -3.1271 N   0  0  0  0  0  0  0  0  0  0  0  0
    3.1216    0.5940   -3.9561 H   0  0  0  0  0  0  0  0  0  0  0  0
    1.2709    0.4116   -2.8885 C   0  0  0  0  0  0  0  0  0  0  0  0
    0.6425   -0.1907   -3.5387 H   0  0  0  0  0  0  0  0  0  0  0  0
    0.0470    0.3465    1.5629 C   0  0  0  0  0  0  0  0  0  0  0  0
    1.1854    0.1365    1.9846 O   0  0  0  0  0  0  0  0  0  0  0  0
   -0.8551    1.0750    2.2320 N   0  0  0  0  0  0  0  0  0  0  0  0
   -1.7594    1.2031    1.8040 H   0  0  0  0  0  0  0  0  0  0  0  0
   -0.6356    1.6998    3.5400 C   0  0  0  0  0  0  0  0  0  0  0  0
   -0.4284    2.7647    3.4168 H   0  0  0  0  0  0  0  0  0  0  0  0
   -1.5268    1.5885    4.1601 H   0  0  0  0  0  0  0  0  0  0  0  0
    0.2072    1.2358    4.0566 H   0  0  0  0  0  0  0  0  0  0  0  0
  5  6  2  0  0  0  0
  5  7  1  0  0  0  0
  2  3  1  0  0  0  0
  2  4  1  0  0  0  0
  2  5  1  0  0  0  0
  1  2  1  0  0  0  0
 23 24  2  0  0  0  0
 23 25  1  0  0  0  0
 21 22  1  0  0  0  0
 19 20  1  0  0  0  0
 19 21  1  0  0  0  0
 17 18  1  0  0  0  0
 17 19  1  0  0  0  0
 15 16  1  0  0  0  0
 15 17  2  0  0  0  0
 14 15  1  0  0  0  0
 14 21  2  0  0  0  0
 11 12  1  0  0  0  0
 11 13  1  0  0  0  0
 11 14  1  0  0  0  0
  9 10  1  0  0  0  0
  9 11  1  0  0  0  0
  9 23  1  0  0  0  0
  7  8  1  0  0  0  0
  7  9  1  0  0  0  0
 27 28  1  0  0  0  0
 27 29  1  0  0  0  0
 27 30  1  0  0  0  0
 25 26  1  0  0  0  0
 25 27  1  0  0  0  0
M  CHG  1  15   1
M  END
$$$$
default_name
  -OEChem-02102213163D

 30 30  0     1  0  0  0  0  0999 V2000
   -3.5507   -3.2183    1.8116 H   0  0  0  0  0  0  0  0  0  0  0  0
   -3.4597   -2.3913    1.1076 C   0  0  0  0  0  0  0  0  0  0  0  0
   -4.1577   -1.6043    1.3866 H   0  0  0  0  0  0  0  0  0  0  0  0
   -3.6807   -2.7523    0.1036 H   0  0  0  0  0  0  0  0  0  0  0  0
   -2.0477   -1.8543    1.1546 C   0  0  0  0  0  0  0  0  0  0  0  0
   -1.2227   -2.3443    1.9146 O   0  0  0  0  0  0  0  0  0  0  0  0
   -1.7517   -0.8483    0.3266 N   0  0  0  0  0  0  0  0  0  0  0  0
   -2.4847   -0.5123   -0.2804 H   0  0  0  0  0  0  0  0  0  0  0  0
   -0.4117   -0.2463    0.2186 C   0  0  1  0  0  0  0  0  0  0  0  0
    0.2987   -1.0391   -0.0285 H   0  0  0  0  0  0  0  0  0  0  0  0
   -0.4131    0.7505   -0.9636 C   0  0  0  0  0  0  0  0  0  0  0  0
   -1.1566    0.4227   -1.6946 H   0  0  0  0  0  0  0  0  0  0  0  0
   -0.7303    1.7306   -0.6011 H   0  0  0  0  0  0  0  0  0  0  0  0
    0.9175    0.9170   -1.6666 C   0  0  0  0  0  0  0  0  0  0  0  0
    2.0845    1.3577   -1.0729 N   0  3  0  0  0  0  0  0  0  0  0  0
    2.1698    1.5539   -0.0714 H   0  0  0  0  0  0  0  0  0  0  0  0
    3.0559    1.3781   -2.0070 C   0  0  0  0  0  0  0  0  0  0  0  0
    4.0898    1.6696   -1.8336 H   0  0  0  0  0  0  0  0  0  0  0  0
    2.5304    0.9609   -3.1810 N   0  0  0  0  0  0  0  0  0  0  0  0
    3.0313    0.8721   -4.0612 H   0  0  0  0  0  0  0  0  0  0  0  0
    1.1880    0.6674   -2.9849 C   0  0  0  0  0  0  0  0  0  0  0  0
    0.4806    0.3078   -3.7270 H   0  0  0  0  0  0  0  0  0  0  0  0
    0.0470    0.3465    1.5629 C   0  0  0  0  0  0  0  0  0  0  0  0
    1.1854    0.1365    1.9846 O   0  0  0  0  0  0  0  0  0  0  0  0
   -0.8551    1.0750    2.2320 N   0  0  0  0  0  0  0  0  0  0  0  0
   -1.7594    1.2031    1.8040 H   0  0  0  0  0  0  0  0  0  0  0  0
   -0.6356    1.6998    3.5400 C   0  0  0  0  0  0  0  0  0  0  0  0
   -0.4284    2.7647    3.4168 H   0  0  0  0  0  0  0  0  0  0  0  0
   -1.5268    1.5885    4.1601 H   0  0  0  0  0  0  0  0  0  0  0  0
    0.2072    1.2358    4.0566 H   0  0  0  0  0  0  0  0  0  0  0  0
  5  6  2  0  0  0  0
  5  7  1  0  0  0  0
  2  3  1  0  0  0  0
  2  4  1  0  0  0  0
  2  5  1  0  0  0  0
  1  2  1  0  0  0  0
 23 24  2  0  0  0  0
 23 25  1  0  0  0  0
 21 22  1  0  0  0  0
 19 20  1  0  0  0  0
 19 21  1  0  0  0  0
 17 18  1  0  0  0  0
 17 19  1  0  0  0  0
 15 16  1  0  0  0  0
 15 17  2  0  0  0  0
 14 15  1  0  0  0  0
 14 21  2  0  0  0  0
 11 12  1  0  0  0  0
 11 13  1  0  0  0  0
 11 14  1  0  0  0  0
  9 10  1  0  0  0  0
  9 11  1  0  0  0  0
  9 23  1  0  0  0  0
  7  8  1  0  0  0  0
  7  9  1  0  0  0  0
 27 28  1  0  0  0  0
 27 29  1  0  0  0  0
 27 30  1  0  0  0  0
 25 26  1  0  0  0  0
 25 27  1  0  0  0  0
M  CHG  1  15   1
M  END
$$$$
default_name
  -OEChem-02102213163D

 30 30  0     1  0  0  0  0  0999 V2000
   -3.5507   -3.2183    1.8116 H   0  0  0  0  0  0  0  0  0  0  0  0
   -3.4597   -2.3913    1.1076 C   0  0  0  0  0  0  0  0  0  0  0  0
   -4.1577   -1.6043    1.3866 H   0  0  0  0  0  0  0  0  0  0  0  0
   -3.6807   -2.7523    0.1036 H   0  0  0  0  0  0  0  0  0  0  0  0
   -2.0477   -1.8543    1.1546 C   0  0  0  0  0  0  0  0  0  0  0  0
   -1.2227   -2.3443    1.9146 O   0  0  0  0  0  0  0  0  0  0  0  0
   -1.7517   -0.8483    0.3266 N   0  0  0  0  0  0  0  0  0  0  0  0
   -2.4847   -0.5123   -0.2804 H   0  0  0  0  0  0  0  0  0  0  0  0
   -0.4117   -0.2463    0.2186 C   0  0  1  0  0  0  0  0  0  0  0  0
    0.2987   -1.0391   -0.0285 H   0  0  0  0  0  0  0  0  0  0  0  0
   -0.4131    0.7505   -0.9636 C   0  0  0  0  0  0  0  0  0  0  0  0
   -1.1566    0.4227   -1.6946 H   0  0  0  0  0  0  0  0  0  0  0  0
   -0.7303    1.7306   -0.6011 H   0  0  0  0  0  0  0  0  0  0  0  0
    0.9175    0.9170   -1.6666 C   0  0  0  0  0  0  0  0  0  0  0  0
    2.1385    1.0704   -1.0387 N   0  3  0  0  0  0  0  0  0  0  0  0
    2.2619    1.0205   -0.0233 H   0  0  0  0  0  0  0  0  0  0  0  0
    3.0913    1.1907   -1.9844 C   0  0  0  0  0  0  0  0  0  0  0  0
    4.1557    1.3118   -1.7936 H   0  0  0  0  0  0  0  0  0  0  0  0
    2.5012    1.1181   -3.1989 N   0  0  0  0  0  0  0  0  0  0  0  0
    2.9745    1.1754   -4.0968 H   0  0  0  0  0  0  0  0  0  0  0  0
    1.1359    0.9463   -3.0174 C   0  0  0  0  0  0  0  0  0  0  0  0
    0.3788    0.8517   -3.7909 H   0  0  0  0  0  0  0  0  0  0  0  0
    0.0470    0.3465    1.5629 C   0  0  0  0  0  0  0  0  0  0  0  0
    1.1854    0.1365    1.9846 O   0  0  0  0  0  0  0  0  0  0  0  0
   -0.8551    1.0750    2.2320 N   0  0  0  0  0  0  0  0  0  0  0  0
   -1.7594    1.2031    1.8040 H   0  0  0  0  0  0  0  0  0  0  0  0
   -0.6356    1.6998    3.5400 C   0  0  0  0  0  0  0  0  0  0  0  0
   -0.4284    2.7647    3.4168 H   0  0  0  0  0  0  0  0  0  0  0  0
   -1.5268    1.5885    4.1601 H   0  0  0  0  0  0  0  0  0  0  0  0
    0.2072    1.2358    4.0566 H   0  0  0  0  0  0  0  0  0  0  0  0
  5  6  2  0  0  0  0
  5  7  1  0  0  0  0
  2  3  1  0  0  0  0
  2  4  1  0  0  0  0
  2  5  1  0  0  0  0
  1  2  1  0  0  0  0
 23 24  2  0  0  0  0
 23 25  1  0  0  0  0
 21 22  1  0  0  0  0
 19 20  1  0  0  0  0
 19 21  1  0  0  0  0
 17 18  1  0  0  0  0
 17 19  1  0  0  0  0
 15 16  1  0  0  0  0
 15 17  2  0  0  0  0
 14 15  1  0  0  0  0
 14 21  2  0  0  0  0
 11 12  1  0  0  0  0
 11 13  1  0  0  0  0
 11 14  1  0  0  0  0
  9 10  1  0  0  0  0
  9 11  1  0  0  0  0
  9 23  1  0  0  0  0
  7  8  1  0  0  0  0
  7  9  1  0  0  0  0
 27 28  1  0  0  0  0
 27 29  1  0  0  0  0
 27 30  1  0  0  0  0
 25 26  1  0  0  0  0
 25 27  1  0  0  0  0
M  CHG  1  15   1
M  END
$$$$
default_name
  -OEChem-02102213163D

 30 30  0     1  0  0  0  0  0999 V2000
   -3.5507   -3.2183    1.8116 H   0  0  0  0  0  0  0  0  0  0  0  0
   -3.4597   -2.3913    1.1076 C   0  0  0  0  0  0  0  0  0  0  0  0
   -4.1577   -1.6043    1.3866 H   0  0  0  0  0  0  0  0  0  0  0  0
   -3.6807   -2.7523    0.1036 H   0  0  0  0  0  0  0  0  0  0  0  0
   -2.0477   -1.8543    1.1546 C   0  0  0  0  0  0  0  0  0  0  0  0
   -1.2227   -2.3443    1.9146 O   0  0  0  0  0  0  0  0  0  0  0  0
   -1.7517   -0.8483    0.3266 N   0  0  0  0  0  0  0  0  0  0  0  0
   -2.4847   -0.5123   -0.2804 H   0  0  0  0  0  0  0  0  0  0  0  0
   -0.4117   -0.2463    0.2186 C   0  0  1  0  0  0  0  0  0  0  0  0
    0.2987   -1.0391   -0.0285 H   0  0  0  0  0  0  0  0  0  0  0  0
   -0.4131    0.7505   -0.9636 C   0  0  0  0  0  0  0  0  0  0  0  0
   -1.1566    0.4227   -1.6946 H   0  0  0  0  0  0  0  0  0  0  0  0
   -0.7303    1.7306   -0.6011 H   0  0  0  0  0  0  0  0  0  0  0  0
    0.9175    0.9170   -1.6666 C   0  0  0  0  0  0  0  0  0  0  0  0
    2.1571    0.7786   -1.0726 N   0  3  0  0  0  0  0  0  0  0  0  0
    2.2882    0.4833   -0.1008 H   0  0  0  0  0  0  0  0  0  0  0  0
    3.1036    1.0003   -2.0062 C   0  0  0  0  0  0  0  0  0  0  0  0
    4.1775    0.9492   -1.8383 H   0  0  0  0  0  0  0  0  0  0  0  0
    2.4915    1.2774   -3.1796 N   0  0  0  0  0  0  0  0  0  0  0  0
    2.9550    1.4833   -4.0607 H   0  0  0  0  0  0  0  0  0  0  0  0
    1.1182    1.2294   -2.9840 C   0  0  0  0  0  0  0  0  0  0  0  0
    0.3440    1.4037   -3.7261 H   0  0  0  0  0  0  0  0  0  0  0  0
    0.0470    0.3465    1.5629 C   0  0  0  0  0  0  0  0  0  0  0  0
    1.1854    0.1365    1.9846 O   0  0  0  0  0  0  0  0  0  0  0  0
   -0.8551    1.0750    2.2320 N   0  0  0  0  0  0  0  0  0  0  0  0
   -1.7594    1.2031    1.8040 H   0  0  0  0  0  0  0  0  0  0  0  0
   -0.6356    1.6998    3.5400 C   0  0  0  0  0  0  0  0  0  0  0  0
   -0.4284    2.7647    3.4168 H   0  0  0  0  0  0  0  0  0  0  0  0
   -1.5268    1.5885    4.1601 H   0  0  0  0  0  0  0  0  0  0  0  0
    0.2072    1.2358    4.0566 H   0  0  0  0  0  0  0  0  0  0  0  0
  5  6  2  0  0  0  0
  5  7  1  0  0  0  0
  2  3  1  0  0  0  0
  2  4  1  0  0  0  0
  2  5  1  0  0  0  0
  1  2  1  0  0  0  0
 23 24  2  0  0  0  0
 23 25  1  0  0  0  0
 21 22  1  0  0  0  0
 19 20  1  0  0  0  0
 19 21  1  0  0  0  0
 17 18  1  0  0  0  0
 17 19  1  0  0  0  0
 15 16  1  0  0  0  0
 15 17  2  0  0  0  0
 14 15  1  0  0  0  0
 14 21  2  0  0  0  0
 11 12  1  0  0  0  0
 11 13  1  0  0  0  0
 11 14  1  0  0  0  0
  9 10  1  0  0  0  0
  9 11  1  0  0  0  0
  9 23  1  0  0  0  0
  7  8  1  0  0  0  0
  7  9  1  0  0  0  0
 27 28  1  0  0  0  0
 27 29  1  0  0  0  0
 27 30  1  0  0  0  0
 25 26  1  0  0  0  0
 25 27  1  0  0  0  0
M  CHG  1  15   1
M  END
$$$$
default_name
  -OEChem-02102213163D

 30 30  0     1  0  0  0  0  0999 V2000
   -3.5507   -3.2183    1.8116 H   0  0  0  0  0  0  0  0  0  0  0  0
   -3.4597   -2.3913    1.1076 C   0  0  0  0  0  0  0  0  0  0  0  0
   -4.1577   -1.6043    1.3866 H   0  0  0  0  0  0  0  0  0  0  0  0
   -3.6807   -2.7523    0.1036 H   0  0  0  0  0  0  0  0  0  0  0  0
   -2.0477   -1.8543    1.1546 C   0  0  0  0  0  0  0  0  0  0  0  0
   -1.2227   -2.3443    1.9146 O   0  0  0  0  0  0  0  0  0  0  0  0
   -1.7517   -0.8483    0.3266 N   0  0  0  0  0  0  0  0  0  0  0  0
   -2.4847   -0.5123   -0.2804 H   0  0  0  0  0  0  0  0  0  0  0  0
   -0.4117   -0.2463    0.2186 C   0  0  1  0  0  0  0  0  0  0  0  0
    0.2987   -1.0391   -0.0285 H   0  0  0  0  0  0  0  0  0  0  0  0
   -0.4131    0.7505   -0.9636 C   0  0  0  0  0  0  0  0  0  0  0  0
   -1.1566    0.4227   -1.6946 H   0  0  0  0  0  0  0  0  0  0  0  0
   -0.7303    1.7306   -0.6011 H   0  0  0  0  0  0  0  0  0  0  0  0
    0.9175    0.9170   -1.6666 C   0  0  0  0  0  0  0  0  0  0  0  0
    2.1390    0.5023   -1.1722 N   0  3  0  0  0  0  0  0  0  0  0  0
    2.2468   -0.0212   -0.2986 H   0  0  0  0  0  0  0  0  0  0  0  0
    3.0920    0.8198   -2.0709 C   0  0  0  0  0  0  0  0  0  0  0  0
    4.1537    0.6065   -1.9646 H   0  0  0  0  0  0  0  0  0  0  0  0
    2.5017    1.4281   -3.1245 N   0  0  0  0  0  0  0  0  0  0  0  0
    2.9743    1.7749   -3.9552 H   0  0  0  0  0  0  0  0  0  0  0  0
    1.1360    1.4974   -2.8867 C   0  0  0  0  0  0  0  0  0  0  0  0
    0.3786    1.9264   -3.5369 H   0  0  0  0  0  0  0  0  0  0  0  0
    0.0470    0.3465    1.5629 C   0  0  0  0  0  0  0  0  0  0  0  0
    1.1854    0.1365    1.9846 O   0  0  0  0  0  0  0  0  0  0  0  0
   -0.8551    1.0750    2.2320 N   0  0  0  0  0  0  0  0  0  0  0  0
   -1.7594    1.2031    1.8040 H   0  0  0  0  0  0  0  0  0  0  0  0
   -0.6356    1.6998    3.5400 C   0  0  0  0  0  0  0  0  0  0  0  0
   -0.4284    2.7647    3.4168 H   0  0  0  0  0  0  0  0  0  0  0  0
   -1.5268    1.5885    4.1601 H   0  0  0  0  0  0  0  0  0  0  0  0
    0.2072    1.2358    4.0566 H   0  0  0  0  0  0  0  0  0  0  0  0
  5  6  2  0  0  0  0
  5  7  1  0  0  0  0
  2  3  1  0  0  0  0
  2  4  1  0  0  0  0
  2  5  1  0  0  0  0
  1  2  1  0  0  0  0
 23 24  2  0  0  0  0
 23 25  1  0  0  0  0
 21 22  1  0  0  0  0
 19 20  1  0  0  0  0
 19 21  1  0  0  0  0
 17 18  1  0  0  0  0
 17 19  1  0  0  0  0
 15 16  1  0  0  0  0
 15 17  2  0  0  0  0
 14 15  1  0  0  0  0
 14 21  2  0  0  0  0
 11 12  1  0  0  0  0
 11 13  1  0  0  0  0
 11 14  1  0  0  0  0
  9 10  1  0  0  0  0
  9 11  1  0  0  0  0
  9 23  1  0  0  0  0
  7  8  1  0  0  0  0
  7  9  1  0  0  0  0
 27 28  1  0  0  0  0
 27 29  1  0  0  0  0
 27 30  1  0  0  0  0
 25 26  1  0  0  0  0
 25 27  1  0  0  0  0
M  CHG  1  15   1
M  END
$$$$
default_name
  -OEChem-02102213163D

 30 30  0     1  0  0  0  0  0999 V2000
   -3.5507   -3.2183    1.8116 H   0  0  0  0  0  0  0  0  0  0  0  0
   -3.4597   -2.3913    1.1076 C   0  0  0  0  0  0  0  0  0  0  0  0
   -4.1577   -1.6043    1.3866 H   0  0  0  0  0  0  0  0  0  0  0  0
   -3.6807   -2.7523    0.1036 H   0  0  0  0  0  0  0  0  0  0  0  0
   -2.0477   -1.8543    1.1546 C   0  0  0  0  0  0  0  0  0  0  0  0
   -1.2227   -2.3443    1.9146 O   0  0  0  0  0  0  0  0  0  0  0  0
   -1.7517   -0.8483    0.3266 N   0  0  0  0  0  0  0  0  0  0  0  0
   -2.4847   -0.5123   -0.2804 H   0  0  0  0  0  0  0  0  0  0  0  0
   -0.4117   -0.2463    0.2186 C   0  0  1  0  0  0  0  0  0  0  0  0
    0.2987   -1.0391   -0.0285 H   0  0  0  0  0  0  0  0  0  0  0  0
   -0.4131    0.7505   -0.9636 C   0  0  0  0  0  0  0  0  0  0  0  0
   -1.1566    0.4227   -1.6946 H   0  0  0  0  0  0  0  0  0  0  0  0
   -0.7303    1.7306   -0.6011 H   0  0  0  0  0  0  0  0  0  0  0  0
    0.9175    0.9170   -1.6666 C   0  0  0  0  0  0  0  0  0  0  0  0
    2.0856    0.2602   -1.3308 N   0  3  0  0  0  0  0  0  0  0  0  0
    2.1406   -0.4585   -0.6033 H   0  0  0  0  0  0  0  0  0  0  0  0
    3.0572    0.6617   -2.1742 C   0  0  0  0  0  0  0  0  0  0  0  0
    4.0859    0.3070   -2.1638 H   0  0  0  0  0  0  0  0  0  0  0  0
    2.5313    1.5600   -3.0373 N   0  0  0  0  0  0  0  0  0  0  0  0
    3.0309    2.0302   -3.7875 H   0  0  0  0  0  0  0  0  0  0  0  0
    1.1882    1.7320   -2.7323 C   0  0  0  0  0  0  0  0  0  0  0  0
    0.4801    2.3841   -3.2362 H   0  0  0  0  0  0  0  0  0  0  0  0
    0.0470    0.3465    1.5629 C   0  0  0  0  0  0  0  0  0  0  0  0
    1.1854    0.1365    1.9846 O   0  0  0  0  0  0  0  0  0  0  0  0
   -0.8551    1.0750    2.2320 N   0  0  0  0  0  0  0  0  0  0  0  0
   -1.7594    1.2031    1.8040 H   0  0  0  0  0  0  0  0  0  0  0  0
   -0.6356    1.6998    3.5400 C   0  0  0  0  0  0  0  0  0  0  0  0
   -0.4284    2.7647    3.4168 H   0  0  0  0  0  0  0  0  0  0  0  0
   -1.5268    1.5885    4.1601 H   0  0  0  0  0  0  0  0  0  0  0  0
    0.2072    1.2358    4.0566 H   0  0  0  0  0  0  0  0  0  0  0  0
  5  6  2  0  0  0  0
  5  7  1  0  0  0  0
  2  3  1  0  0  0  0
  2  4  1  0  0  0  0
  2  5  1  0  0  0  0
  1  2  1  0  0  0  0
 23 24  2  0  0  0  0
 23 25  1  0  0  0  0
 21 22  1  0  0  0  0
 19 20  1  0  0  0  0
 19 21  1  0  0  0  0
 17 18  1  0  0  0  0
 17 19  1  0  0  0  0
 15 16  1  0  0  0  0
 15 17  2  0  0  0  0
 14 15  1  0  0  0  0
 14 21  2  0  0  0  0
 11 12  1  0  0  0  0
 11 13  1  0  0  0  0
 11 14  1  0  0  0  0
  9 10  1  0  0  0  0
  9 11  1  0  0  0  0
  9 23  1  0  0  0  0
  7  8  1  0  0  0  0
  7  9  1  0  0  0  0
 27 28  1  0  0  0  0
 27 29  1  0  0  0  0
 27 30  1  0  0  0  0
 25 26  1  0  0  0  0
 25 27  1  0  0  0  0
M  CHG  1  15   1
M  END
$$$$
default_name
  -OEChem-02102213163D

 30 30  0     1  0  0  0  0  0999 V2000
   -3.5507   -3.2183    1.8116 H   0  0  0  0  0  0  0  0  0  0  0  0
   -3.4597   -2.3913    1.1076 C   0  0  0  0  0  0  0  0  0  0  0  0
   -4.1577   -1.6043    1.3866 H   0  0  0  0  0  0  0  0  0  0  0  0
   -3.6807   -2.7523    0.1036 H   0  0  0  0  0  0  0  0  0  0  0  0
   -2.0477   -1.8543    1.1546 C   0  0  0  0  0  0  0  0  0  0  0  0
   -1.2227   -2.3443    1.9146 O   0  0  0  0  0  0  0  0  0  0  0  0
   -1.7517   -0.8483    0.3266 N   0  0  0  0  0  0  0  0  0  0  0  0
   -2.4847   -0.5123   -0.2804 H   0  0  0  0  0  0  0  0  0  0  0  0
   -0.4117   -0.2463    0.2186 C   0  0  1  0  0  0  0  0  0  0  0  0
    0.2987   -1.0391   -0.0285 H   0  0  0  0  0  0  0  0  0  0  0  0
   -0.4131    0.7505   -0.9636 C   0  0  0  0  0  0  0  0  0  0  0  0
   -1.1566    0.4227   -1.6946 H   0  0  0  0  0  0  0  0  0  0  0  0
   -0.7303    1.7306   -0.6011 H   0  0  0  0  0  0  0  0  0  0  0  0
    0.9175    0.9170   -1.6666 C   0  0  0  0  0  0  0  0  0  0  0  0
    2.0003    0.0688   -1.5375 N   0  3  0  0  0  0  0  0  0  0  0  0
    1.9768   -0.7988   -0.9940 H   0  0  0  0  0  0  0  0  0  0  0  0
    3.0017    0.5366   -2.3089 C   0  0  0  0  0  0  0  0  0  0  0  0
    3.9788    0.0712   -2.4224 H   0  0  0  0  0  0  0  0  0  0  0  0
    2.5782    1.6639   -2.9239 N   0  0  0  0  0  0  0  0  0  0  0  0
    3.1211    2.2318   -3.5690 H   0  0  0  0  0  0  0  0  0  0  0  0
    1.2712    1.9172   -2.5313 C   0  0  0  0  0  0  0  0  0  0  0  0
    0.6418    2.7456   -2.8445 H   0  0  0  0  0  0  0  0  0  0  0  0
    0.0470    0.3465    1.5629 C   0  0  0  0  0  0  0  0  0  0  0  0
    1.1854    0.1365    1.9846 O   0  0  0  0  0  0  0  0  0  0  0  0
   -0.8551    1.0750    2.2320 N   0  0  0  0  0  0  0  0  0  0  0  0
   -1.7594    1.2031    1.8040 H   0  0  0  0  0  0  0  0  0  0  0  0
   -0.6356    1.6998    3.5400 C   0  0  0  0  0  0  0  0  0  0  0  0
   -0.4284    2.7647    3.4168 H   0  0  0  0  0  0  0  0  0  0  0  0
   -1.5268    1.5885    4.1601 H   0  0  0  0  0  0  0  0  0  0  0  0
    0.2072    1.2358    4.0566 H   0  0  0  0  0  0  0  0  0  0  0  0
  5  6  2  0  0  0  0
  5  7  1  0  0  0  0
  2  3  1  0  0  0  0
  2  4  1  0  0  0  0
  2  5  1  0  0  0  0
  1  2  1  0  0  0  0
 23 24  2  0  0  0  0
 23 25  1  0  0  0  0
 21 22  1  0  0  0  0
 19 20  1  0  0  0  0
 19 21  1  0  0  0  0
 17 18  1  0  0  0  0
 17 19  1  0  0  0  0
 15 16  1  0  0  0  0
 15 17  2  0  0  0  0
 14 15  1  0  0  0  0
 14 21  2  0  0  0  0
 11 12  1  0  0  0  0
 11 13  1  0  0  0  0
 11 14  1  0  0  0  0
  9 10  1  0  0  0  0
  9 11  1  0  0  0  0
  9 23  1  0  0  0  0
  7  8  1  0  0  0  0
  7  9  1  0  0  0  0
 27 28  1  0  0  0  0
 27 29  1  0  0  0  0
 27 30  1  0  0  0  0
 25 26  1  0  0  0  0
 25 27  1  0  0  0  0
M  CHG  1  15   1
M  END
$$$$
default_name
  -OEChem-02102213163D

 30 30  0     1  0  0  0  0  0999 V2000
   -3.5507   -3.2183    1.8116 H   0  0  0  0  0  0  0  0  0  0  0  0
   -3.4597   -2.3913    1.1076 C   0  0  0  0  0  0  0  0  0  0  0  0
   -4.1577   -1.6043    1.3866 H   0  0  0  0  0  0  0  0  0  0  0  0
   -3.6807   -2.7523    0.1036 H   0  0  0  0  0  0  0  0  0  0  0  0
   -2.0477   -1.8543    1.1546 C   0  0  0  0  0  0  0  0  0  0  0  0
   -1.2227   -2.3443    1.9146 O   0  0  0  0  0  0  0  0  0  0  0  0
   -1.7517   -0.8483    0.3266 N   0  0  0  0  0  0  0  0  0  0  0  0
   -2.4847   -0.5123   -0.2804 H   0  0  0  0  0  0  0  0  0  0  0  0
   -0.4117   -0.2463    0.2186 C   0  0  1  0  0  0  0  0  0  0  0  0
    0.2987   -1.0391   -0.0285 H   0  0  0  0  0  0  0  0  0  0  0  0
   -0.4131    0.7505   -0.9636 C   0  0  0  0  0  0  0  0  0  0  0  0
   -1.1566    0.4227   -1.6946 H   0  0  0  0  0  0  0  0  0  0  0  0
   -0.7303    1.7306   -0.6011 H   0  0  0  0  0  0  0  0  0  0  0  0
    0.9175    0.9170   -1.6666 C   0  0  0  0  0  0  0  0  0  0  0  0
    1.8891   -0.0588   -1.7783 N   0  3  0  0  0  0  0  0  0  0  0  0
    1.7666   -1.0190   -1.4441 H   0  0  0  0  0  0  0  0  0  0  0  0
    2.9293    0.4530   -2.4659 C   0  0  0  0  0  0  0  0  0  0  0  0
    3.8396   -0.0848   -2.7228 H   0  0  0  0  0  0  0  0  0  0  0  0
    2.6393    1.7328   -2.7920 N   0  0  0  0  0  0  0  0  0  0  0  0
    3.2386    2.3661   -3.3147 H   0  0  0  0  0  0  0  0  0  0  0  0
    1.3794    2.0404   -2.2974 C   0  0  0  0  0  0  0  0  0  0  0  0
    0.8525    2.9863   -2.3886 H   0  0  0  0  0  0  0  0  0  0  0  0
    0.0470    0.3465    1.5629 C   0  0  0  0  0  0  0  0  0  0  0  0
    1.1854    0.1365    1.9846 O   0  0  0  0  0  0  0  0  0  0  0  0
   -0.8551    1.0750    2.2320 N   0  0  0  0  0  0  0  0  0  0  0  0
   -1.7594    1.2031    1.8040 H   0  0  0  0  0  0  0  0  0  0  0  0
   -0.6356    1.6998    3.5400 C   0  0  0  0  0  0  0  0  0  0  0  0
   -0.4284    2.7647    3.4168 H   0  0  0  0  0  0  0  0  0  0  0  0
   -1.5268    1.5885    4.1601 H   0  0  0  0  0  0  0  0  0  0  0  0
    0.2072    1.2358    4.0566 H   0  0  0  0  0  0  0  0  0  0  0  0
  5  6  2  0  0  0  0
  5  7  1  0  0  0  0
  2  3  1  0  0  0  0
  2  4  1  0  0  0  0
  2  5  1  0  0  0  0
  1  2  1  0  0  0  0
 23 24  2  0  0  0  0
 23 25  1  0  0  0  0
 21 22  1  0  0  0  0
 19 20  1  0  0  0  0
 19 21  1  0  0  0  0
 17 18  1  0  0  0  0
 17 19  1  0  0  0  0
 15 16  1  0  0  0  0
 15 17  2  0  0  0  0
 14 15  1  0  0  0  0
 14 21  2  0  0  0  0
 11 12  1  0  0  0  0
 11 13  1  0  0  0  0
 11 14  1  0  0  0  0
  9 10  1  0  0  0  0
  9 11  1  0  0  0  0
  9 23  1  0  0  0  0
  7  8  1  0  0  0  0
  7  9  1  0  0  0  0
 27 28  1  0  0  0  0
 27 29  1  0  0  0  0
 27 30  1  0  0  0  0
 25 26  1  0  0  0  0
 25 27  1  0  0  0  0
M  CHG  1  15   1
M  END
$$$$
default_name
  -OEChem-02102213163D

 30 30  0     1  0  0  0  0  0999 V2000
   -3.5507   -3.2183    1.8116 H   0  0  0  0  0  0  0  0  0  0  0  0
   -3.4597   -2.3913    1.1076 C   0  0  0  0  0  0  0  0  0  0  0  0
   -4.1577   -1.6043    1.3866 H   0  0  0  0  0  0  0  0  0  0  0  0
   -3.6807   -2.7523    0.1036 H   0  0  0  0  0  0  0  0  0  0  0  0
   -2.0477   -1.8543    1.1546 C   0  0  0  0  0  0  0  0  0  0  0  0
   -1.2227   -2.3443    1.9146 O   0  0  0  0  0  0  0  0  0  0  0  0
   -1.7517   -0.8483    0.3266 N   0  0  0  0  0  0  0  0  0  0  0  0
   -2.4847   -0.5123   -0.2804 H   0  0  0  0  0  0  0  0  0  0  0  0
   -0.4117   -0.2463    0.2186 C   0  0  1  0  0  0  0  0  0  0  0  0
    0.2987   -1.0391   -0.0285 H   0  0  0  0  0  0  0  0  0  0  0  0
   -0.4131    0.7505   -0.9636 C   0  0  0  0  0  0  0  0  0  0  0  0
   -1.1566    0.4227   -1.6946 H   0  0  0  0  0  0  0  0  0  0  0  0
   -0.7303    1.7306   -0.6011 H   0  0  0  0  0  0  0  0  0  0  0  0
    0.9175    0.9170   -1.6666 C   0  0  0  0  0  0  0  0  0  0  0  0
    1.7595   -0.1139   -2.0367 N   0  3  0  0  0  0  0  0  0  0  0  0
    1.5242   -1.1040   -1.9230 H   0  0  0  0  0  0  0  0  0  0  0  0
    2.8447    0.4167   -2.6344 C   0  0  0  0  0  0  0  0  0  0  0  0
    3.6779   -0.1505   -3.0444 H   0  0  0  0  0  0  0  0  0  0  0  0
    2.7103    1.7621   -2.6507 N   0  0  0  0  0  0  0  0  0  0  0  0
    3.3756    2.4238   -3.0419 H   0  0  0  0  0  0  0  0  0  0  0  0
    1.5053    2.0932   -2.0465 C   0  0  0  0  0  0  0  0  0  0  0  0
    1.0980    3.0897   -1.8994 H   0  0  0  0  0  0  0  0  0  0  0  0
    0.0470    0.3465    1.5629 C   0  0  0  0  0  0  0  0  0  0  0  0
    1.1854    0.1365    1.9846 O   0  0  0  0  0  0  0  0  0  0  0  0
   -0.8551    1.0750    2.2320 N   0  0  0  0  0  0  0  0  0  0  0  0
   -1.7594    1.2031    1.8040 H   0  0  0  0  0  0  0  0  0  0  0  0
   -0.6356    1.6998    3.5400 C   0  0  0  0  0  0  0  0  0  0  0  0
   -0.4284    2.7647    3.4168 H   0  0  0  0  0  0  0  0  0  0  0  0
   -1.5268    1.5885    4.1601 H   0  0  0  0  0  0  0  0  0  0  0  0
    0.2072    1.2358    4.0566 H   0  0  0  0  0  0  0  0  0  0  0  0
  5  6  2  0  0  0  0
  5  7  1  0  0  0  0
  2  3  1  0  0  0  0
  2  4  1  0  0  0  0
  2  5  1  0  0  0  0
  1  2  1  0  0  0  0
 23 24  2  0  0  0  0
 23 25  1  0  0  0  0
 21 22  1  0  0  0  0
 19 20  1  0  0  0  0
 19 21  1  0  0  0  0
 17 18  1  0  0  0  0
 17 19  1  0  0  0  0
 15 16  1  0  0  0  0
 15 17  2  0  0  0  0
 14 15  1  0  0  0  0
 14 21  2  0  0  0  0
 11 12  1  0  0  0  0
 11 13  1  0  0  0  0
 11 14  1  0  0  0  0
  9 10  1  0  0  0  0
  9 11  1  0  0  0  0
  9 23  1  0  0  0  0
  7  8  1  0  0  0  0
  7  9  1  0  0  0  0
 27 28  1  0  0  0  0
 27 29  1  0  0  0  0
 27 30  1  0  0  0  0
 25 26  1  0  0  0  0
 25 27  1  0  0  0  0
M  CHG  1  15   1
M  END
$$$$
default_name
  -OEChem-02102213163D

 30 30  0     1  0  0  0  0  0999 V2000
   -3.5507   -3.2183    1.8116 H   0  0  0  0  0  0  0  0  0  0  0  0
   -3.4597   -2.3913    1.1076 C   0  0  0  0  0  0  0  0  0  0  0  0
   -4.1577   -1.6043    1.3866 H   0  0  0  0  0  0  0  0  0  0  0  0
   -3.6807   -2.7523    0.1036 H   0  0  0  0  0  0  0  0  0  0  0  0
   -2.0477   -1.8543    1.1546 C   0  0  0  0  0  0  0  0  0  0  0  0
   -1.2227   -2.3443    1.9146 O   0  0  0  0  0  0  0  0  0  0  0  0
   -1.7517   -0.8483    0.3266 N   0  0  0  0  0  0  0  0  0  0  0  0
   -2.4847   -0.5123   -0.2804 H   0  0  0  0  0  0  0  0  0  0  0  0
   -0.4117   -0.2463    0.2186 C   0  0  1  0  0  0  0  0  0  0  0  0
    0.2987   -1.0391   -0.0285 H   0  0  0  0  0  0  0  0  0  0  0  0
   -0.4131    0.7505   -0.9636 C   0  0  0  0  0  0  0  0  0  0  0  0
   -1.1566    0.4227   -1.6946 H   0  0  0  0  0  0  0  0  0  0  0  0
   -0.7303    1.7306   -0.6011 H   0  0  0  0  0  0  0  0  0  0  0  0
    0.9175    0.9170   -1.6666 C   0  0  0  0  0  0  0  0  0  0  0  0
    1.6203   -0.0927   -2.2951 N   0  3  0  0  0  0  0  0  0  0  0  0
    1.2663   -1.0481   -2.3980 H   0  0  0  0  0  0  0  0  0  0  0  0
    2.7539    0.4302   -2.8031 C   0  0  0  0  0  0  0  0  0  0  0  0
    3.5047   -0.1214   -3.3655 H   0  0  0  0  0  0  0  0  0  0  0  0
    2.7864    1.7497   -2.5096 N   0  0  0  0  0  0  0  0  0  0  0  0
    3.5225    2.4010   -2.7691 H   0  0  0  0  0  0  0  0  0  0  0  0
    1.6404    2.0720   -1.7958 C   0  0  0  0  0  0  0  0  0  0  0  0
    1.3615    3.0488   -1.4104 H   0  0  0  0  0  0  0  0  0  0  0  0
    0.0470    0.3465    1.5629 C   0  0  0  0  0  0  0  0  0  0  0  0
    1.1854    0.1365    1.9846 O   0  0  0  0  0  0  0  0  0  0  0  0
   -0.8551    1.0750    2.2320 N   0  0  0  0  0  0  0  0  0  0  0  0
   -1.7594    1.2031    1.8040 H   0  0  0  0  0  0  0  0  0  0  0  0
   -0.6356    1.6998    3.5400 C   0  0  0  0  0  0  0  0  0  0  0  0
   -0.4284    2.7647    3.4168 H   0  0  0  0  0  0  0  0  0  0  0  0
   -1.5268    1.5885    4.1601 H   0  0  0  0  0  0  0  0  0  0  0  0
    0.2072    1.2358    4.0566 H   0  0  0  0  0  0  0  0  0  0  0  0
  5  6  2  0  0  0  0
  5  7  1  0  0  0  0
  2  3  1  0  0  0  0
  2  4  1  0  0  0  0
  2  5  1  0  0  0  0
  1  2  1  0  0  0  0
 23 24  2  0  0  0  0
 23 25  1  0  0  0  0
 21 22  1  0  0  0  0
 19 20  1  0  0  0  0
 19 21  1  0  0  0  0
 17 18  1  0  0  0  0
 17 19  1  0  0  0  0
 15 16  1  0  0  0  0
 15 17  2  0  0  0  0
 14 15  1  0  0  0  0
 14 21  2  0  0  0  0
 11 12  1  0  0  0  0
 11 13  1  0  0  0  0
 11 14  1  0  0  0  0
  9 10  1  0  0  0  0
  9 11  1  0  0  0  0
  9 23  1  0  0  0  0
  7  8  1  0  0  0  0
  7  9  1  0  0  0  0
 27 28  1  0  0  0  0
 27 29  1  0  0  0  0
 27 30  1  0  0  0  0
 25 26  1  0  0  0  0
 25 27  1  0  0  0  0
M  CHG  1  15   1
M  END
$$$$
default_name
  -OEChem-02102213163D

 30 30  0     1  0  0  0  0  0999 V2000
   -3.5507   -3.2183    1.8116 H   0  0  0  0  0  0  0  0  0  0  0  0
   -3.4597   -2.3913    1.1076 C   0  0  0  0  0  0  0  0  0  0  0  0
   -4.1577   -1.6043    1.3866 H   0  0  0  0  0  0  0  0  0  0  0  0
   -3.6807   -2.7523    0.1036 H   0  0  0  0  0  0  0  0  0  0  0  0
   -2.0477   -1.8543    1.1546 C   0  0  0  0  0  0  0  0  0  0  0  0
   -1.2227   -2.3443    1.9146 O   0  0  0  0  0  0  0  0  0  0  0  0
   -1.7517   -0.8483    0.3266 N   0  0  0  0  0  0  0  0  0  0  0  0
   -2.4847   -0.5123   -0.2804 H   0  0  0  0  0  0  0  0  0  0  0  0
   -0.4117   -0.2463    0.2186 C   0  0  1  0  0  0  0  0  0  0  0  0
    0.2987   -1.0391   -0.0285 H   0  0  0  0  0  0  0  0  0  0  0  0
   -0.4131    0.7505   -0.9636 C   0  0  0  0  0  0  0  0  0  0  0  0
   -1.1566    0.4227   -1.6946 H   0  0  0  0  0  0  0  0  0  0  0  0
   -0.7303    1.7306   -0.6011 H   0  0  0  0  0  0  0  0  0  0  0  0
    0.9175    0.9170   -1.6666 C   0  0  0  0  0  0  0  0  0  0  0  0
    1.4810    0.0032   -2.5360 N   0  3  0  0  0  0  0  0  0  0  0  0
    1.0103   -0.8551   -2.8368 H   0  0  0  0  0  0  0  0  0  0  0  0
    2.6631    0.4924   -2.9604 C   0  0  0  0  0  0  0  0  0  0  0  0
    3.3317    0.0006   -3.6641 H   0  0  0  0  0  0  0  0  0  0  0  0
    2.8624    1.6965   -2.3783 N   0  0  0  0  0  0  0  0  0  0  0  0
    3.6695    2.2994   -2.5150 H   0  0  0  0  0  0  0  0  0  0  0  0
    1.7755    1.9783   -1.5622 C   0  0  0  0  0  0  0  0  0  0  0  0
    1.6249    2.8665   -0.9549 H   0  0  0  0  0  0  0  0  0  0  0  0
    0.0470    0.3465    1.5629 C   0  0  0  0  0  0  0  0  0  0  0  0
    1.1854    0.1365    1.9846 O   0  0  0  0  0  0  0  0  0  0  0  0
   -0.8551    1.0750    2.2320 N   0  0  0  0  0  0  0  0  0  0  0  0
   -1.7594    1.2031    1.8040 H   0  0  0  0  0  0  0  0  0  0  0  0
   -0.6356    1.6998    3.5400 C   0  0  0  0  0  0  0  0  0  0  0  0
   -0.4284    2.7647    3.4168 H   0  0  0  0  0  0  0  0  0  0  0  0
   -1.5268    1.5885    4.1601 H   0  0  0  0  0  0  0  0  0  0  0  0
    0.2072    1.2358    4.0566 H   0  0  0  0  0  0  0  0  0  0  0  0
  5  6  2  0  0  0  0
  5  7  1  0  0  0  0
  2  3  1  0  0  0  0
  2  4  1  0  0  0  0
  2  5  1  0  0  0  0
  1  2  1  0  0  0  0
 23 24  2  0  0  0  0
 23 25  1  0  0  0  0
 21 22  1  0  0  0  0
 19 20  1  0  0  0  0
 19 21  1  0  0  0  0
 17 18  1  0  0  0  0
 17 19  1  0  0  0  0
 15 16  1  0  0  0  0
 15 17  2  0  0  0  0
 14 15  1  0  0  0  0
 14 21  2  0  0  0  0
 11 12  1  0  0  0  0
 11 13  1  0  0  0  0
 11 14  1  0  0  0  0
  9 10  1  0  0  0  0
  9 11  1  0  0  0  0
  9 23  1  0  0  0  0
  7  8  1  0  0  0  0
  7  9  1  0  0  0  0
 27 28  1  0  0  0  0
 27 29  1  0  0  0  0
 27 30  1  0  0  0  0
 25 26  1  0  0  0  0
 25 27  1  0  0  0  0
M  CHG  1  15   1
M  END
$$$$
default_name
  -OEChem-02102213163D

 30 30  0     1  0  0  0  0  0999 V2000
   -3.5507   -3.2183    1.8116 H   0  0  0  0  0  0  0  0  0  0  0  0
   -3.4597   -2.3913    1.1076 C   0  0  0  0  0  0  0  0  0  0  0  0
   -4.1577   -1.6043    1.3866 H   0  0  0  0  0  0  0  0  0  0  0  0
   -3.6807   -2.7523    0.1036 H   0  0  0  0  0  0  0  0  0  0  0  0
   -2.0477   -1.8543    1.1546 C   0  0  0  0  0  0  0  0  0  0  0  0
   -1.2227   -2.3443    1.9146 O   0  0  0  0  0  0  0  0  0  0  0  0
   -1.7517   -0.8483    0.3266 N   0  0  0  0  0  0  0  0  0  0  0  0
   -2.4847   -0.5123   -0.2804 H   0  0  0  0  0  0  0  0  0  0  0  0
   -0.4117   -0.2463    0.2186 C   0  0  1  0  0  0  0  0  0  0  0  0
    0.2987   -1.0391   -0.0285 H   0  0  0  0  0  0  0  0  0  0  0  0
   -0.4131    0.7505   -0.9636 C   0  0  0  0  0  0  0  0  0  0  0  0
   -1.1566    0.4227   -1.6946 H   0  0  0  0  0  0  0  0  0  0  0  0
   -0.7303    1.7306   -0.6011 H   0  0  0  0  0  0  0  0  0  0  0  0
    0.9175    0.9170   -1.6666 C   0  0  0  0  0  0  0  0  0  0  0  0
    1.3512    0.1674   -2.7429 N   0  3  0  0  0  0  0  0  0  0  0  0
    0.7738   -0.5380   -3.2095 H   0  0  0  0  0  0  0  0  0  0  0  0
    2.5783    0.5993   -3.0956 C   0  0  0  0  0  0  0  0  0  0  0  0
    3.1707    0.2072   -3.9198 H   0  0  0  0  0  0  0  0  0  0  0  0
    2.9332    1.6061   -2.2657 N   0  0  0  0  0  0  0  0  0  0  0  0
    3.8064    2.1257   -2.2969 H   0  0  0  0  0  0  0  0  0  0  0  0
    1.9014    1.8184   -1.3618 C   0  0  0  0  0  0  0  0  0  0  0  0
    1.8705    2.5551   -0.5638 H   0  0  0  0  0  0  0  0  0  0  0  0
    0.0470    0.3465    1.5629 C   0  0  0  0  0  0  0  0  0  0  0  0
    1.1854    0.1365    1.9846 O   0  0  0  0  0  0  0  0  0  0  0  0
   -0.8551    1.0750    2.2320 N   0  0  0  0  0  0  0  0  0  0  0  0
   -1.7594    1.2031    1.8040 H   0  0  0  0  0  0  0  0  0  0  0  0
   -0.6356    1.6998    3.5400 C   0  0  0  0  0  0  0  0  0  0  0  0
   -0.4284    2.7647    3.4168 H   0  0  0  0  0  0  0  0  0  0  0  0
   -1.5268    1.5885    4.1601 H   0  0  0  0  0  0  0  0  0  0  0  0
    0.2072    1.2358    4.0566 H   0  0  0  0  0  0  0  0  0  0  0  0
  5  6  2  0  0  0  0
  5  7  1  0  0  0  0
  2  3  1  0  0  0  0
  2  4  1  0  0  0  0
  2  5  1  0  0  0  0
  1  2  1  0  0  0  0
 23 24  2  0  0  0  0
 23 25  1  0  0  0  0
 21 22  1  0  0  0  0
 19 20  1  0  0  0  0
 19 21  1  0  0  0  0
 17 18  1  0  0  0  0
 17 19  1  0  0  0  0
 15 16  1  0  0  0  0
 15 17  2  0  0  0  0
 14 15  1  0  0  0  0
 14 21  2  0  0  0  0
 11 12  1  0  0  0  0
 11 13  1  0  0  0  0
 11 14  1  0  0  0  0
  9 10  1  0  0  0  0
  9 11  1  0  0  0  0
  9 23  1  0  0  0  0
  7  8  1  0  0  0  0
  7  9  1  0  0  0  0
 27 28  1  0  0  0  0
 27 29  1  0  0  0  0
 27 30  1  0  0  0  0
 25 26  1  0  0  0  0
 25 27  1  0  0  0  0
M  CHG  1  15   1
M  END
$$$$
default_name
  -OEChem-02102213163D

 30 30  0     1  0  0  0  0  0999 V2000
   -3.5507   -3.2183    1.8116 H   0  0  0  0  0  0  0  0  0  0  0  0
   -3.4597   -2.3913    1.1076 C   0  0  0  0  0  0  0  0  0  0  0  0
   -4.1577   -1.6043    1.3866 H   0  0  0  0  0  0  0  0  0  0  0  0
   -3.6807   -2.7523    0.1036 H   0  0  0  0  0  0  0  0  0  0  0  0
   -2.0477   -1.8543    1.1546 C   0  0  0  0  0  0  0  0  0  0  0  0
   -1.2227   -2.3443    1.9146 O   0  0  0  0  0  0  0  0  0  0  0  0
   -1.7517   -0.8483    0.3266 N   0  0  0  0  0  0  0  0  0  0  0  0
   -2.4847   -0.5123   -0.2804 H   0  0  0  0  0  0  0  0  0  0  0  0
   -0.4117   -0.2463    0.2186 C   0  0  1  0  0  0  0  0  0  0  0  0
    0.2987   -1.0391   -0.0285 H   0  0  0  0  0  0  0  0  0  0  0  0
   -0.4131    0.7505   -0.9636 C   0  0  0  0  0  0  0  0  0  0  0  0
   -1.1566    0.4227   -1.6946 H   0  0  0  0  0  0  0  0  0  0  0  0
   -0.7303    1.7306   -0.6011 H   0  0  0  0  0  0  0  0  0  0  0  0
    0.9175    0.9170   -1.6666 C   0  0  0  0  0  0  0  0  0  0  0  0
    1.2396    0.3886   -2.9017 N   0  3  0  0  0  0  0  0  0  0  0  0
    0.5728   -0.1186   -3.4906 H   0  0  0  0  0  0  0  0  0  0  0  0
    2.5054    0.7434   -3.1995 C   0  0  0  0  0  0  0  0  0  0  0  0
    3.0328    0.4842   -4.1152 H   0  0  0  0  0  0  0  0  0  0  0  0
    2.9939    1.4846   -2.1795 N   0  0  0  0  0  0  0  0  0  0  0  0
    3.9241    1.8919   -2.1296 H   0  0  0  0  0  0  0  0  0  0  0  0
    2.0095    1.6032   -1.2082 C   0  0  0  0  0  0  0  0  0  0  0  0
    2.0814    2.1358   -0.2639 H   0  0  0  0  0  0  0  0  0  0  0  0
    0.0470    0.3465    1.5629 C   0  0  0  0  0  0  0  0  0  0  0  0
    1.1854    0.1365    1.9846 O   0  0  0  0  0  0  0  0  0  0  0  0
   -0.8551    1.0750    2.2320 N   0  0  0  0  0  0  0  0  0  0  0  0
   -1.7594    1.2031    1.8040 H   0  0  0  0  0  0  0  0  0  0  0  0
   -0.6356    1.6998    3.5400 C   0  0  0  0  0  0  0  0  0  0  0  0
   -0.4284    2.7647    3.4168 H   0  0  0  0  0  0  0  0  0  0  0  0
   -1.5268    1.5885    4.1601 H   0  0  0  0  0  0  0  0  0  0  0  0
    0.2072    1.2358    4.0566 H   0  0  0  0  0  0  0  0  0  0  0  0
  5  6  2  0  0  0  0
  5  7  1  0  0  0  0
  2  3  1  0  0  0  0
  2  4  1  0  0  0  0
  2  5  1  0  0  0  0
  1  2  1  0  0  0  0
 23 24  2  0  0  0  0
 23 25  1  0  0  0  0
 21 22  1  0  0  0  0
 19 20  1  0  0  0  0
 19 21  1  0  0  0  0
 17 18  1  0  0  0  0
 17 19  1  0  0  0  0
 15 16  1  0  0  0  0
 15 17  2  0  0  0  0
 14 15  1  0  0  0  0
 14 21  2  0  0  0  0
 11 12  1  0  0  0  0
 11 13  1  0  0  0  0
 11 14  1  0  0  0  0
  9 10  1  0  0  0  0
  9 11  1  0  0  0  0
  9 23  1  0  0  0  0
  7  8  1  0  0  0  0
  7  9  1  0  0  0  0
 27 28  1  0  0  0  0
 27 29  1  0  0  0  0
 27 30  1  0  0  0  0
 25 26  1  0  0  0  0
 25 27  1  0  0  0  0
M  CHG  1  15   1
M  END
$$$$
default_name
  -OEChem-02102213163D

 30 30  0     1  0  0  0  0  0999 V2000
   -3.5507   -3.2183    1.8116 H   0  0  0  0  0  0  0  0  0  0  0  0
   -3.4597   -2.3913    1.1076 C   0  0  0  0  0  0  0  0  0  0  0  0
   -4.1577   -1.6043    1.3866 H   0  0  0  0  0  0  0  0  0  0  0  0
   -3.6807   -2.7523    0.1036 H   0  0  0  0  0  0  0  0  0  0  0  0
   -2.0477   -1.8543    1.1546 C   0  0  0  0  0  0  0  0  0  0  0  0
   -1.2227   -2.3443    1.9146 O   0  0  0  0  0  0  0  0  0  0  0  0
   -1.7517   -0.8483    0.3266 N   0  0  0  0  0  0  0  0  0  0  0  0
   -2.4847   -0.5123   -0.2804 H   0  0  0  0  0  0  0  0  0  0  0  0
   -0.4117   -0.2463    0.2186 C   0  0  1  0  0  0  0  0  0  0  0  0
    0.2987   -1.0391   -0.0285 H   0  0  0  0  0  0  0  0  0  0  0  0
   -0.4131    0.7505   -0.9636 C   0  0  0  0  0  0  0  0  0  0  0  0
   -1.1566    0.4227   -1.6946 H   0  0  0  0  0  0  0  0  0  0  0  0
   -0.7303    1.7306   -0.6011 H   0  0  0  0  0  0  0  0  0  0  0  0
    0.9175    0.9170   -1.6666 C   0  0  0  0  0  0  0  0  0  0  0  0
    1.1539    0.6519   -3.0016 N   0  3  0  0  0  0  0  0  0  0  0  0
    0.4211    0.3746   -3.6610 H   0  0  0  0  0  0  0  0  0  0  0  0
    2.4493    0.9151   -3.2649 C   0  0  0  0  0  0  0  0  0  0  0  0
    2.9273    0.8128   -4.2371 H   0  0  0  0  0  0  0  0  0  0  0  0
    3.0404    1.3404   -2.1256 N   0  0  0  0  0  0  0  0  0  0  0  0
    4.0144    1.6138   -2.0245 H   0  0  0  0  0  0  0  0  0  0  0  0
    2.0924    1.3474   -1.1118 C   0  0  0  0  0  0  0  0  0  0  0  0
    2.2432    1.6373   -0.0756 H   0  0  0  0  0  0  0  0  0  0  0  0
    0.0470    0.3465    1.5629 C   0  0  0  0  0  0  0  0  0  0  0  0
    1.1854    0.1365    1.9846 O   0  0  0  0  0  0  0  0  0  0  0  0
   -0.8551    1.0750    2.2320 N   0  0  0  0  0  0  0  0  0  0  0  0
   -1.7594    1.2031    1.8040 H   0  0  0  0  0  0  0  0  0  0  0  0
   -0.6356    1.6998    3.5400 C   0  0  0  0  0  0  0  0  0  0  0  0
   -0.4284    2.7647    3.4168 H   0  0  0  0  0  0  0  0  0  0  0  0
   -1.5268    1.5885    4.1601 H   0  0  0  0  0  0  0  0  0  0  0  0
    0.2072    1.2358    4.0566 H   0  0  0  0  0  0  0  0  0  0  0  0
  5  6  2  0  0  0  0
  5  7  1  0  0  0  0
  2  3  1  0  0  0  0
  2  4  1  0  0  0  0
  2  5  1  0  0  0  0
  1  2  1  0  0  0  0
 23 24  2  0  0  0  0
 23 25  1  0  0  0  0
 21 22  1  0  0  0  0
 19 20  1  0  0  0  0
 19 21  1  0  0  0  0
 17 18  1  0  0  0  0
 17 19  1  0  0  0  0
 15 16  1  0  0  0  0
 15 17  2  0  0  0  0
 14 15  1  0  0  0  0
 14 21  2  0  0  0  0
 11 12  1  0  0  0  0
 11 13  1  0  0  0  0
 11 14  1  0  0  0  0
  9 10  1  0  0  0  0
  9 11  1  0  0  0  0
  9 23  1  0  0  0  0
  7  8  1  0  0  0  0
  7  9  1  0  0  0  0
 27 28  1  0  0  0  0
 27 29  1  0  0  0  0
 27 30  1  0  0  0  0
 25 26  1  0  0  0  0
 25 27  1  0  0  0  0
M  CHG  1  15   1
M  END
$$$$
default_name
  -OEChem-02102213163D

 30 30  0     1  0  0  0  0  0999 V2000
   -3.5507   -3.2183    1.8116 H   0  0  0  0  0  0  0  0  0  0  0  0
   -3.4597   -2.3913    1.1076 C   0  0  0  0  0  0  0  0  0  0  0  0
   -4.1577   -1.6043    1.3866 H   0  0  0  0  0  0  0  0  0  0  0  0
   -3.6807   -2.7523    0.1036 H   0  0  0  0  0  0  0  0  0  0  0  0
   -2.0477   -1.8543    1.1546 C   0  0  0  0  0  0  0  0  0  0  0  0
   -1.2227   -2.3443    1.9146 O   0  0  0  0  0  0  0  0  0  0  0  0
   -1.7517   -0.8483    0.3266 N   0  0  0  0  0  0  0  0  0  0  0  0
   -2.4847   -0.5123   -0.2804 H   0  0  0  0  0  0  0  0  0  0  0  0
   -0.4117   -0.2463    0.2186 C   0  0  1  0  0  0  0  0  0  0  0  0
    0.2987   -1.0391   -0.0285 H   0  0  0  0  0  0  0  0  0  0  0  0
   -0.4131    0.7505   -0.9636 C   0  0  0  0  0  0  0  0  0  0  0  0
   -1.1566    0.4227   -1.6946 H   0  0  0  0  0  0  0  0  0  0  0  0
   -0.7303    1.7306   -0.6011 H   0  0  0  0  0  0  0  0  0  0  0  0
    0.9175    0.9170   -1.6666 C   0  0  0  0  0  0  0  0  0  0  0  0
    1.0999    0.9391   -3.0357 N   0  3  0  0  0  0  0  0  0  0  0  0
    0.3290    0.9080   -3.7090 H   0  0  0  0  0  0  0  0  0  0  0  0
    2.4139    1.1025   -3.2875 C   0  0  0  0  0  0  0  0  0  0  0  0
    2.8615    1.1706   -4.2770 H   0  0  0  0  0  0  0  0  0  0  0  0
    3.0695    1.1833   -2.1077 N   0  0  0  0  0  0  0  0  0  0  0  0
    4.0711    1.3105   -1.9889 H   0  0  0  0  0  0  0  0  0  0  0  0
    2.1445    1.0685   -1.0792 C   0  0  0  0  0  0  0  0  0  0  0  0
    2.3450    1.0935   -0.0117 H   0  0  0  0  0  0  0  0  0  0  0  0
    0.0470    0.3465    1.5629 C   0  0  0  0  0  0  0  0  0  0  0  0
    1.1854    0.1365    1.9846 O   0  0  0  0  0  0  0  0  0  0  0  0
   -0.8551    1.0750    2.2320 N   0  0  0  0  0  0  0  0  0  0  0  0
   -1.7594    1.2031    1.8040 H   0  0  0  0  0  0  0  0  0  0  0  0
   -0.6356    1.6998    3.5400 C   0  0  0  0  0  0  0  0  0  0  0  0
   -0.4284    2.7647    3.4168 H   0  0  0  0  0  0  0  0  0  0  0  0
   -1.5268    1.5885    4.1601 H   0  0  0  0  0  0  0  0  0  0  0  0
    0.2072    1.2358    4.0566 H   0  0  0  0  0  0  0  0  0  0  0  0
  5  6  2  0  0  0  0
  5  7  1  0  0  0  0
  2  3  1  0  0  0  0
  2  4  1  0  0  0  0
  2  5  1  0  0  0  0
  1  2  1  0  0  0  0
 23 24  2  0  0  0  0
 23 25  1  0  0  0  0
 21 22  1  0  0  0  0
 19 20  1  0  0  0  0
 19 21  1  0  0  0  0
 17 18  1  0  0  0  0
 17 19  1  0  0  0  0
 15 16  1  0  0  0  0
 15 17  2  0  0  0  0
 14 15  1  0  0  0  0
 14 21  2  0  0  0  0
 11 12  1  0  0  0  0
 11 13  1  0  0  0  0
 11 14  1  0  0  0  0
  9 10  1  0  0  0  0
  9 11  1  0  0  0  0
  9 23  1  0  0  0  0
  7  8  1  0  0  0  0
  7  9  1  0  0  0  0
 27 28  1  0  0  0  0
 27 29  1  0  0  0  0
 27 30  1  0  0  0  0
 25 26  1  0  0  0  0
 25 27  1  0  0  0  0
M  CHG  1  15   1
M  END
$$$$
default_name
  -OEChem-02102213163D

 30 30  0     1  0  0  0  0  0999 V2000
   -3.5507   -3.2183    1.8116 H   0  0  0  0  0  0  0  0  0  0  0  0
   -3.4597   -2.3913    1.1076 C   0  0  0  0  0  0  0  0  0  0  0  0
   -4.1577   -1.6043    1.3866 H   0  0  0  0  0  0  0  0  0  0  0  0
   -3.6807   -2.7523    0.1036 H   0  0  0  0  0  0  0  0  0  0  0  0
   -2.0477   -1.8543    1.1546 C   0  0  0  0  0  0  0  0  0  0  0  0
   -1.2227   -2.3443    1.9146 O   0  0  0  0  0  0  0  0  0  0  0  0
   -1.7517   -0.8483    0.3266 N   0  0  0  0  0  0  0  0  0  0  0  0
   -2.4847   -0.5123   -0.2804 H   0  0  0  0  0  0  0  0  0  0  0  0
   -0.4117   -0.2463    0.2186 C   0  0  1  0  0  0  0  0  0  0  0  0
    0.2987   -1.0391   -0.0285 H   0  0  0  0  0  0  0  0  0  0  0  0
   -0.4131    0.7505   -0.9636 C   0  0  0  0  0  0  0  0  0  0  0  0
   -1.1566    0.4227   -1.6946 H   0  0  0  0  0  0  0  0  0  0  0  0
   -0.7303    1.7306   -0.6011 H   0  0  0  0  0  0  0  0  0  0  0  0
    0.9175    0.9170   -1.6666 C   0  0  0  0  0  0  0  0  0  0  0  0
    1.0813    1.2309   -3.0019 N   0  3  0  0  0  0  0  0  0  0  0  0
    0.3027    1.4452   -3.6315 H   0  0  0  0  0  0  0  0  0  0  0  0
    2.4016    1.2929   -3.2657 C   0  0  0  0  0  0  0  0  0  0  0  0
    2.8397    1.5332   -4.2324 H   0  0  0  0  0  0  0  0  0  0  0  0
    3.0793    1.0239   -2.1269 N   0  0  0  0  0  0  0  0  0  0  0  0
    4.0906    1.0026   -2.0250 H   0  0  0  0  0  0  0  0  0  0  0  0
    2.1623    0.7853   -1.1127 C   0  0  0  0  0  0  0  0  0  0  0  0
    2.3799    0.5414   -0.0765 H   0  0  0  0  0  0  0  0  0  0  0  0
    0.0470    0.3465    1.5629 C   0  0  0  0  0  0  0  0  0  0  0  0
    1.1854    0.1365    1.9846 O   0  0  0  0  0  0  0  0  0  0  0  0
   -0.8551    1.0750    2.2320 N   0  0  0  0  0  0  0  0  0  0  0  0
   -1.7594    1.2031    1.8040 H   0  0  0  0  0  0  0  0  0  0  0  0
   -0.6356    1.6998    3.5400 C   0  0  0  0  0  0  0  0  0  0  0  0
   -0.4284    2.7647    3.4168 H   0  0  0  0  0  0  0  0  0  0  0  0
   -1.5268    1.5885    4.1601 H   0  0  0  0  0  0  0  0  0  0  0  0
    0.2072    1.2358    4.0566 H   0  0  0  0  0  0  0  0  0  0  0  0
  5  6  2  0  0  0  0
  5  7  1  0  0  0  0
  2  3  1  0  0  0  0
  2  4  1  0  0  0  0
  2  5  1  0  0  0  0
  1  2  1  0  0  0  0
 23 24  2  0  0  0  0
 23 25  1  0  0  0  0
 21 22  1  0  0  0  0
 19 20  1  0  0  0  0
 19 21  1  0  0  0  0
 17 18  1  0  0  0  0
 17 19  1  0  0  0  0
 15 16  1  0  0  0  0
 15 17  2  0  0  0  0
 14 15  1  0  0  0  0
 14 21  2  0  0  0  0
 11 12  1  0  0  0  0
 11 13  1  0  0  0  0
 11 14  1  0  0  0  0
  9 10  1  0  0  0  0
  9 11  1  0  0  0  0
  9 23  1  0  0  0  0
  7  8  1  0  0  0  0
  7  9  1  0  0  0  0
 27 28  1  0  0  0  0
 27 29  1  0  0  0  0
 27 30  1  0  0  0  0
 25 26  1  0  0  0  0
 25 27  1  0  0  0  0
M  CHG  1  15   1
M  END
$$$$
default_name
  -OEChem-02102213163D

 30 30  0     1  0  0  0  0  0999 V2000
   -3.5507   -3.2183    1.8116 H   0  0  0  0  0  0  0  0  0  0  0  0
   -3.4597   -2.3913    1.1076 C   0  0  0  0  0  0  0  0  0  0  0  0
   -4.1577   -1.6043    1.3866 H   0  0  0  0  0  0  0  0  0  0  0  0
   -3.6807   -2.7523    0.1036 H   0  0  0  0  0  0  0  0  0  0  0  0
   -2.0477   -1.8543    1.1546 C   0  0  0  0  0  0  0  0  0  0  0  0
   -1.2227   -2.3443    1.9146 O   0  0  0  0  0  0  0  0  0  0  0  0
   -1.7517   -0.8483    0.3266 N   0  0  0  0  0  0  0  0  0  0  0  0
   -2.4847   -0.5123   -0.2804 H   0  0  0  0  0  0  0  0  0  0  0  0
   -0.4117   -0.2463    0.2186 C   0  0  1  0  0  0  0  0  0  0  0  0
    0.2987   -1.0391   -0.0285 H   0  0  0  0  0  0  0  0  0  0  0  0
   -0.4131    0.7505   -0.9636 C   0  0  0  0  0  0  0  0  0  0  0  0
   -1.1566    0.4227   -1.6946 H   0  0  0  0  0  0  0  0  0  0  0  0
   -0.7303    1.7306   -0.6011 H   0  0  0  0  0  0  0  0  0  0  0  0
    0.9175    0.9170   -1.6666 C   0  0  0  0  0  0  0  0  0  0  0  0
    1.0994    1.5072   -2.9022 N   0  3  0  0  0  0  0  0  0  0  0  0
    0.3441    1.9497   -3.4337 H   0  0  0  0  0  0  0  0  0  0  0  0
    2.4132    1.4733   -3.2010 C   0  0  0  0  0  0  0  0  0  0  0  0
    2.8635    1.8759   -4.1061 H   0  0  0  0  0  0  0  0  0  0  0  0
    3.0690    0.8732   -2.1821 N   0  0  0  0  0  0  0  0  0  0  0  0
    4.0713    0.7110   -2.1305 H   0  0  0  0  0  0  0  0  0  0  0  0
    2.1444    0.5174   -1.2100 C   0  0  0  0  0  0  0  0  0  0  0  0
    2.3453    0.0187   -0.2658 H   0  0  0  0  0  0  0  0  0  0  0  0
    0.0470    0.3465    1.5629 C   0  0  0  0  0  0  0  0  0  0  0  0
    1.1854    0.1365    1.9846 O   0  0  0  0  0  0  0  0  0  0  0  0
   -0.8551    1.0750    2.2320 N   0  0  0  0  0  0  0  0  0  0  0  0
   -1.7594    1.2031    1.8040 H   0  0  0  0  0  0  0  0  0  0  0  0
   -0.6356    1.6998    3.5400 C   0  0  0  0  0  0  0  0  0  0  0  0
   -0.4284    2.7647    3.4168 H   0  0  0  0  0  0  0  0  0  0  0  0
   -1.5268    1.5885    4.1601 H   0  0  0  0  0  0  0  0  0  0  0  0
    0.2072    1.2358    4.0566 H   0  0  0  0  0  0  0  0  0  0  0  0
  5  6  2  0  0  0  0
  5  7  1  0  0  0  0
  2  3  1  0  0  0  0
  2  4  1  0  0  0  0
  2  5  1  0  0  0  0
  1  2  1  0  0  0  0
 23 24  2  0  0  0  0
 23 25  1  0  0  0  0
 21 22  1  0  0  0  0
 19 20  1  0  0  0  0
 19 21  1  0  0  0  0
 17 18  1  0  0  0  0
 17 19  1  0  0  0  0
 15 16  1  0  0  0  0
 15 17  2  0  0  0  0
 14 15  1  0  0  0  0
 14 21  2  0  0  0  0
 11 12  1  0  0  0  0
 11 13  1  0  0  0  0
 11 14  1  0  0  0  0
  9 10  1  0  0  0  0
  9 11  1  0  0  0  0
  9 23  1  0  0  0  0
  7  8  1  0  0  0  0
  7  9  1  0  0  0  0
 27 28  1  0  0  0  0
 27 29  1  0  0  0  0
 27 30  1  0  0  0  0
 25 26  1  0  0  0  0
 25 27  1  0  0  0  0
M  CHG  1  15   1
M  END
$$$$
default_name
  -OEChem-02102213163D

 30 30  0     1  0  0  0  0  0999 V2000
   -3.5507   -3.2183    1.8116 H   0  0  0  0  0  0  0  0  0  0  0  0
   -3.4597   -2.3913    1.1076 C   0  0  0  0  0  0  0  0  0  0  0  0
   -4.1577   -1.6043    1.3866 H   0  0  0  0  0  0  0  0  0  0  0  0
   -3.6807   -2.7523    0.1036 H   0  0  0  0  0  0  0  0  0  0  0  0
   -2.0477   -1.8543    1.1546 C   0  0  0  0  0  0  0  0  0  0  0  0
   -1.2227   -2.3443    1.9146 O   0  0  0  0  0  0  0  0  0  0  0  0
   -1.7517   -0.8483    0.3266 N   0  0  0  0  0  0  0  0  0  0  0  0
   -2.4847   -0.5123   -0.2804 H   0  0  0  0  0  0  0  0  0  0  0  0
   -0.4117   -0.2463    0.2186 C   0  0  1  0  0  0  0  0  0  0  0  0
    0.2987   -1.0391   -0.0285 H   0  0  0  0  0  0  0  0  0  0  0  0
   -0.4131    0.7505   -0.9636 C   0  0  0  0  0  0  0  0  0  0  0  0
   -1.3181    0.5885   -1.5546 H   0  0  0  0  0  0  0  0  0  0  0  0
   -0.4651    1.7678   -0.5700 H   0  0  0  0  0  0  0  0  0  0  0  0
    0.7879    0.6620   -1.8814 C   0  0  0  0  0  0  0  0  0  0  0  0
    1.0001    1.4490   -2.9967 N   0  3  0  0  0  0  0  0  0  0  0  0
    0.3833    2.2194   -3.2703 H   0  0  0  0  0  0  0  0  0  0  0  0
    2.1687    1.0831   -3.5598 C   0  0  0  0  0  0  0  0  0  0  0  0
    2.6082    1.5338   -4.4473 H   0  0  0  0  0  0  0  0  0  0  0  0
    2.7022    0.0800   -2.8266 N   0  0  0  0  0  0  0  0  0  0  0  0
    3.5828   -0.3926   -3.0129 H   0  0  0  0  0  0  0  0  0  0  0  0
    1.8475   -0.1971   -1.7686 C   0  0  0  0  0  0  0  0  0  0  0  0
    1.9841   -0.9476   -0.9950 H   0  0  0  0  0  0  0  0  0  0  0  0
    0.0470    0.3465    1.5629 C   0  0  0  0  0  0  0  0  0  0  0  0
    1.1854    0.1365    1.9846 O   0  0  0  0  0  0  0  0  0  0  0  0
   -0.8551    1.0750    2.2320 N   0  0  0  0  0  0  0  0  0  0  0  0
   -1.7594    1.2031    1.8040 H   0  0  0  0  0  0  0  0  0  0  0  0
   -0.6356    1.6998    3.5400 C   0  0  0  0  0  0  0  0  0  0  0  0
   -0.4284    2.7647    3.4168 H   0  0  0  0  0  0  0  0  0  0  0  0
   -1.5268    1.5885    4.1601 H   0  0  0  0  0  0  0  0  0  0  0  0
    0.2072    1.2358    4.0566 H   0  0  0  0  0  0  0  0  0  0  0  0
  5  6  2  0  0  0  0
  5  7  1  0  0  0  0
  2  3  1  0  0  0  0
  2  4  1  0  0  0  0
  2  5  1  0  0  0  0
  1  2  1  0  0  0  0
 23 24  2  0  0  0  0
 23 25  1  0  0  0  0
 21 22  1  0  0  0  0
 19 20  1  0  0  0  0
 19 21  1  0  0  0  0
 17 18  1  0  0  0  0
 17 19  1  0  0  0  0
 15 16  1  0  0  0  0
 15 17  2  0  0  0  0
 14 15  1  0  0  0  0
 14 21  2  0  0  0  0
 11 12  1  0  0  0  0
 11 13  1  0  0  0  0
 11 14  1  0  0  0  0
  9 10  1  0  0  0  0
  9 11  1  0  0  0  0
  9 23  1  0  0  0  0
  7  8  1  0  0  0  0
  7  9  1  0  0  0  0
 27 28  1  0  0  0  0
 27 29  1  0  0  0  0
 27 30  1  0  0  0  0
 25 26  1  0  0  0  0
 25 27  1  0  0  0  0
M  CHG  1  15   1
M  END
$$$$
default_name
  -OEChem-02102213163D

 30 30  0     1  0  0  0  0  0999 V2000
   -3.5507   -3.2183    1.8116 H   0  0  0  0  0  0  0  0  0  0  0  0
   -3.4597   -2.3913    1.1076 C   0  0  0  0  0  0  0  0  0  0  0  0
   -4.1577   -1.6043    1.3866 H   0  0  0  0  0  0  0  0  0  0  0  0
   -3.6807   -2.7523    0.1036 H   0  0  0  0  0  0  0  0  0  0  0  0
   -2.0477   -1.8543    1.1546 C   0  0  0  0  0  0  0  0  0  0  0  0
   -1.2227   -2.3443    1.9146 O   0  0  0  0  0  0  0  0  0  0  0  0
   -1.7517   -0.8483    0.3266 N   0  0  0  0  0  0  0  0  0  0  0  0
   -2.4847   -0.5123   -0.2804 H   0  0  0  0  0  0  0  0  0  0  0  0
   -0.4117   -0.2463    0.2186 C   0  0  1  0  0  0  0  0  0  0  0  0
    0.2987   -1.0391   -0.0285 H   0  0  0  0  0  0  0  0  0  0  0  0
   -0.4131    0.7505   -0.9636 C   0  0  0  0  0  0  0  0  0  0  0  0
   -1.3181    0.5885   -1.5546 H   0  0  0  0  0  0  0  0  0  0  0  0
   -0.4651    1.7678   -0.5700 H   0  0  0  0  0  0  0  0  0  0  0  0
    0.7879    0.6620   -1.8814 C   0  0  0  0  0  0  0  0  0  0  0  0
    1.1548    1.6163   -2.8104 N   0  3  0  0  0  0  0  0  0  0  0  0
    0.6741    2.5140   -2.9183 H   0  0  0  0  0  0  0  0  0  0  0  0
    2.2696    1.1925   -3.4384 C   0  0  0  0  0  0  0  0  0  0  0  0
    2.8014    1.7394   -4.2143 H   0  0  0  0  0  0  0  0  0  0  0  0
    2.6174   -0.0107   -2.9288 N   0  0  0  0  0  0  0  0  0  0  0  0
    3.4194   -0.5687   -3.2098 H   0  0  0  0  0  0  0  0  0  0  0  0
    1.6971   -0.3588   -1.9497 C   0  0  0  0  0  0  0  0  0  0  0  0
    1.6911   -1.2635   -1.3480 H   0  0  0  0  0  0  0  0  0  0  0  0
    0.0470    0.3465    1.5629 C   0  0  0  0  0  0  0  0  0  0  0  0
    1.1854    0.1365    1.9846 O   0  0  0  0  0  0  0  0  0  0  0  0
   -0.8551    1.0750    2.2320 N   0  0  0  0  0  0  0  0  0  0  0  0
   -1.7594    1.2031    1.8040 H   0  0  0  0  0  0  0  0  0  0  0  0
   -0.6356    1.6998    3.5400 C   0  0  0  0  0  0  0  0  0  0  0  0
   -0.4284    2.7647    3.4168 H   0  0  0  0  0  0  0  0  0  0  0  0
   -1.5268    1.5885    4.1601 H   0  0  0  0  0  0  0  0  0  0  0  0
    0.2072    1.2358    4.0566 H   0  0  0  0  0  0  0  0  0  0  0  0
  5  6  2  0  0  0  0
  5  7  1  0  0  0  0
  2  3  1  0  0  0  0
  2  4  1  0  0  0  0
  2  5  1  0  0  0  0
  1  2  1  0  0  0  0
 23 24  2  0  0  0  0
 23 25  1  0  0  0  0
 21 22  1  0  0  0  0
 19 20  1  0  0  0  0
 19 21  1  0  0  0  0
 17 18  1  0  0  0  0
 17 19  1  0  0  0  0
 15 16  1  0  0  0  0
 15 17  2  0  0  0  0
 14 15  1  0  0  0  0
 14 21  2  0  0  0  0
 11 12  1  0  0  0  0
 11 13  1  0  0  0  0
 11 14  1  0  0  0  0
  9 10  1  0  0  0  0
  9 11  1  0  0  0  0
  9 23  1  0  0  0  0
  7  8  1  0  0  0  0
  7  9  1  0  0  0  0
 27 28  1  0  0  0  0
 27 29  1  0  0  0  0
 27 30  1  0  0  0  0
 25 26  1  0  0  0  0
 25 27  1  0  0  0  0
M  CHG  1  15   1
M  END
$$$$
default_name
  -OEChem-02102213163D

 30 30  0     1  0  0  0  0  0999 V2000
   -3.5507   -3.2183    1.8116 H   0  0  0  0  0  0  0  0  0  0  0  0
   -3.4597   -2.3913    1.1076 C   0  0  0  0  0  0  0  0  0  0  0  0
   -4.1577   -1.6043    1.3866 H   0  0  0  0  0  0  0  0  0  0  0  0
   -3.6807   -2.7523    0.1036 H   0  0  0  0  0  0  0  0  0  0  0  0
   -2.0477   -1.8543    1.1546 C   0  0  0  0  0  0  0  0  0  0  0  0
   -1.2227   -2.3443    1.9146 O   0  0  0  0  0  0  0  0  0  0  0  0
   -1.7517   -0.8483    0.3266 N   0  0  0  0  0  0  0  0  0  0  0  0
   -2.4847   -0.5123   -0.2804 H   0  0  0  0  0  0  0  0  0  0  0  0
   -0.4117   -0.2463    0.2186 C   0  0  1  0  0  0  0  0  0  0  0  0
    0.2987   -1.0391   -0.0285 H   0  0  0  0  0  0  0  0  0  0  0  0
   -0.4131    0.7505   -0.9636 C   0  0  0  0  0  0  0  0  0  0  0  0
   -1.3181    0.5885   -1.5546 H   0  0  0  0  0  0  0  0  0  0  0  0
   -0.4651    1.7678   -0.5700 H   0  0  0  0  0  0  0  0  0  0  0  0
    0.7879    0.6620   -1.8814 C   0  0  0  0  0  0  0  0  0  0  0  0
    1.3277    1.7153   -2.5937 N   0  3  0  0  0  0  0  0  0  0  0  0
    0.9958    2.6808   -2.5133 H   0  0  0  0  0  0  0  0  0  0  0  0
    2.3823    1.2574   -3.2971 C   0  0  0  0  0  0  0  0  0  0  0  0
    3.0168    1.8599   -3.9440 H   0  0  0  0  0  0  0  0  0  0  0  0
    2.5228   -0.0641   -3.0474 N   0  0  0  0  0  0  0  0  0  0  0  0
    3.2368   -0.6728   -3.4386 H   0  0  0  0  0  0  0  0  0  0  0  0
    1.5292   -0.4543   -2.1602 C   0  0  0  0  0  0  0  0  0  0  0  0
    1.3638   -1.4501   -1.7582 H   0  0  0  0  0  0  0  0  0  0  0  0
    0.0470    0.3465    1.5629 C   0  0  0  0  0  0  0  0  0  0  0  0
    1.1854    0.1365    1.9846 O   0  0  0  0  0  0  0  0  0  0  0  0
   -0.8551    1.0750    2.2320 N   0  0  0  0  0  0  0  0  0  0  0  0
   -1.7594    1.2031    1.8040 H   0  0  0  0  0  0  0  0  0  0  0  0
   -0.6356    1.6998    3.5400 C   0  0  0  0  0  0  0  0  0  0  0  0
   -0.4284    2.7647    3.4168 H   0  0  0  0  0  0  0  0  0  0  0  0
   -1.5268    1.5885    4.1601 H   0  0  0  0  0  0  0  0  0  0  0  0
    0.2072    1.2358    4.0566 H   0  0  0  0  0  0  0  0  0  0  0  0
  5  6  2  0  0  0  0
  5  7  1  0  0  0  0
  2  3  1  0  0  0  0
  2  4  1  0  0  0  0
  2  5  1  0  0  0  0
  1  2  1  0  0  0  0
 23 24  2  0  0  0  0
 23 25  1  0  0  0  0
 21 22  1  0  0  0  0
 19 20  1  0  0  0  0
 19 21  1  0  0  0  0
 17 18  1  0  0  0  0
 17 19  1  0  0  0  0
 15 16  1  0  0  0  0
 15 17  2  0  0  0  0
 14 15  1  0  0  0  0
 14 21  2  0  0  0  0
 11 12  1  0  0  0  0
 11 13  1  0  0  0  0
 11 14  1  0  0  0  0
  9 10  1  0  0  0  0
  9 11  1  0  0  0  0
  9 23  1  0  0  0  0
  7  8  1  0  0  0  0
  7  9  1  0  0  0  0
 27 28  1  0  0  0  0
 27 29  1  0  0  0  0
 27 30  1  0  0  0  0
 25 26  1  0  0  0  0
 25 27  1  0  0  0  0
M  CHG  1  15   1
M  END
$$$$
default_name
  -OEChem-02102213163D

 30 30  0     1  0  0  0  0  0999 V2000
   -3.5507   -3.2183    1.8116 H   0  0  0  0  0  0  0  0  0  0  0  0
   -3.4597   -2.3913    1.1076 C   0  0  0  0  0  0  0  0  0  0  0  0
   -4.1577   -1.6043    1.3866 H   0  0  0  0  0  0  0  0  0  0  0  0
   -3.6807   -2.7523    0.1036 H   0  0  0  0  0  0  0  0  0  0  0  0
   -2.0477   -1.8543    1.1546 C   0  0  0  0  0  0  0  0  0  0  0  0
   -1.2227   -2.3443    1.9146 O   0  0  0  0  0  0  0  0  0  0  0  0
   -1.7517   -0.8483    0.3266 N   0  0  0  0  0  0  0  0  0  0  0  0
   -2.4847   -0.5123   -0.2804 H   0  0  0  0  0  0  0  0  0  0  0  0
   -0.4117   -0.2463    0.2186 C   0  0  1  0  0  0  0  0  0  0  0  0
    0.2987   -1.0391   -0.0285 H   0  0  0  0  0  0  0  0  0  0  0  0
   -0.4131    0.7505   -0.9636 C   0  0  0  0  0  0  0  0  0  0  0  0
   -1.3181    0.5885   -1.5546 H   0  0  0  0  0  0  0  0  0  0  0  0
   -0.4651    1.7678   -0.5700 H   0  0  0  0  0  0  0  0  0  0  0  0
    0.7879    0.6620   -1.8814 C   0  0  0  0  0  0  0  0  0  0  0  0
    1.5069    1.7394   -2.3615 N   0  3  0  0  0  0  0  0  0  0  0  0
    1.3267    2.7083   -2.0831 H   0  0  0  0  0  0  0  0  0  0  0  0
    2.4992    1.2735   -3.1456 C   0  0  0  0  0  0  0  0  0  0  0  0
    3.2397    1.8869   -3.6550 H   0  0  0  0  0  0  0  0  0  0  0  0
    2.4249   -0.0764   -3.1744 N   0  0  0  0  0  0  0  0  0  0  0  0
    3.0477   -0.6978   -3.6837 H   0  0  0  0  0  0  0  0  0  0  0  0
    1.3553   -0.4770   -2.3856 C   0  0  0  0  0  0  0  0  0  0  0  0
    1.0247   -1.4948   -2.1977 H   0  0  0  0  0  0  0  0  0  0  0  0
    0.0470    0.3465    1.5629 C   0  0  0  0  0  0  0  0  0  0  0  0
    1.1854    0.1365    1.9846 O   0  0  0  0  0  0  0  0  0  0  0  0
   -0.8551    1.0750    2.2320 N   0  0  0  0  0  0  0  0  0  0  0  0
   -1.7594    1.2031    1.8040 H   0  0  0  0  0  0  0  0  0  0  0  0
   -0.6356    1.6998    3.5400 C   0  0  0  0  0  0  0  0  0  0  0  0
   -0.4284    2.7647    3.4168 H   0  0  0  0  0  0  0  0  0  0  0  0
   -1.5268    1.5885    4.1601 H   0  0  0  0  0  0  0  0  0  0  0  0
    0.2072    1.2358    4.0566 H   0  0  0  0  0  0  0  0  0  0  0  0
  5  6  2  0  0  0  0
  5  7  1  0  0  0  0
  2  3  1  0  0  0  0
  2  4  1  0  0  0  0
  2  5  1  0  0  0  0
  1  2  1  0  0  0  0
 23 24  2  0  0  0  0
 23 25  1  0  0  0  0
 21 22  1  0  0  0  0
 19 20  1  0  0  0  0
 19 21  1  0  0  0  0
 17 18  1  0  0  0  0
 17 19  1  0  0  0  0
 15 16  1  0  0  0  0
 15 17  2  0  0  0  0
 14 15  1  0  0  0  0
 14 21  2  0  0  0  0
 11 12  1  0  0  0  0
 11 13  1  0  0  0  0
 11 14  1  0  0  0  0
  9 10  1  0  0  0  0
  9 11  1  0  0  0  0
  9 23  1  0  0  0  0
  7  8  1  0  0  0  0
  7  9  1  0  0  0  0
 27 28  1  0  0  0  0
 27 29  1  0  0  0  0
 27 30  1  0  0  0  0
 25 26  1  0  0  0  0
 25 27  1  0  0  0  0
M  CHG  1  15   1
M  END
$$$$
default_name
  -OEChem-02102213163D

 30 30  0     1  0  0  0  0  0999 V2000
   -3.5507   -3.2183    1.8116 H   0  0  0  0  0  0  0  0  0  0  0  0
   -3.4597   -2.3913    1.1076 C   0  0  0  0  0  0  0  0  0  0  0  0
   -4.1577   -1.6043    1.3866 H   0  0  0  0  0  0  0  0  0  0  0  0
   -3.6807   -2.7523    0.1036 H   0  0  0  0  0  0  0  0  0  0  0  0
   -2.0477   -1.8543    1.1546 C   0  0  0  0  0  0  0  0  0  0  0  0
   -1.2227   -2.3443    1.9146 O   0  0  0  0  0  0  0  0  0  0  0  0
   -1.7517   -0.8483    0.3266 N   0  0  0  0  0  0  0  0  0  0  0  0
   -2.4847   -0.5123   -0.2804 H   0  0  0  0  0  0  0  0  0  0  0  0
   -0.4117   -0.2463    0.2186 C   0  0  1  0  0  0  0  0  0  0  0  0
    0.2987   -1.0391   -0.0285 H   0  0  0  0  0  0  0  0  0  0  0  0
   -0.4131    0.7505   -0.9636 C   0  0  0  0  0  0  0  0  0  0  0  0
   -1.3181    0.5885   -1.5546 H   0  0  0  0  0  0  0  0  0  0  0  0
   -0.4651    1.7678   -0.5700 H   0  0  0  0  0  0  0  0  0  0  0  0
    0.7879    0.6620   -1.8814 C   0  0  0  0  0  0  0  0  0  0  0  0
    1.6803    1.6869   -2.1296 N   0  3  0  0  0  0  0  0  0  0  0  0
    1.6440    2.5945   -1.6568 H   0  0  0  0  0  0  0  0  0  0  0  0
    2.6124    1.2395   -2.9943 C   0  0  0  0  0  0  0  0  0  0  0  0
    3.4549    1.8188   -3.3669 H   0  0  0  0  0  0  0  0  0  0  0  0
    2.3302   -0.0468   -3.3010 N   0  0  0  0  0  0  0  0  0  0  0  0
    2.8647   -0.6419   -3.9285 H   0  0  0  0  0  0  0  0  0  0  0  0
    1.1871   -0.4253   -2.6107 C   0  0  0  0  0  0  0  0  0  0  0  0
    0.6967   -1.3945   -2.6366 H   0  0  0  0  0  0  0  0  0  0  0  0
    0.0470    0.3465    1.5629 C   0  0  0  0  0  0  0  0  0  0  0  0
    1.1854    0.1365    1.9846 O   0  0  0  0  0  0  0  0  0  0  0  0
   -0.8551    1.0750    2.2320 N   0  0  0  0  0  0  0  0  0  0  0  0
   -1.7594    1.2031    1.8040 H   0  0  0  0  0  0  0  0  0  0  0  0
   -0.6356    1.6998    3.5400 C   0  0  0  0  0  0  0  0  0  0  0  0
   -0.4284    2.7647    3.4168 H   0  0  0  0  0  0  0  0  0  0  0  0
   -1.5268    1.5885    4.1601 H   0  0  0  0  0  0  0  0  0  0  0  0
    0.2072    1.2358    4.0566 H   0  0  0  0  0  0  0  0  0  0  0  0
  5  6  2  0  0  0  0
  5  7  1  0  0  0  0
  2  3  1  0  0  0  0
  2  4  1  0  0  0  0
  2  5  1  0  0  0  0
  1  2  1  0  0  0  0
 23 24  2  0  0  0  0
 23 25  1  0  0  0  0
 21 22  1  0  0  0  0
 19 20  1  0  0  0  0
 19 21  1  0  0  0  0
 17 18  1  0  0  0  0
 17 19  1  0  0  0  0
 15 16  1  0  0  0  0
 15 17  2  0  0  0  0
 14 15  1  0  0  0  0
 14 21  2  0  0  0  0
 11 12  1  0  0  0  0
 11 13  1  0  0  0  0
 11 14  1  0  0  0  0
  9 10  1  0  0  0  0
  9 11  1  0  0  0  0
  9 23  1  0  0  0  0
  7  8  1  0  0  0  0
  7  9  1  0  0  0  0
 27 28  1  0  0  0  0
 27 29  1  0  0  0  0
 27 30  1  0  0  0  0
 25 26  1  0  0  0  0
 25 27  1  0  0  0  0
M  CHG  1  15   1
M  END
$$$$
default_name
  -OEChem-02102213163D

 30 30  0     1  0  0  0  0  0999 V2000
   -3.5507   -3.2183    1.8116 H   0  0  0  0  0  0  0  0  0  0  0  0
   -3.4597   -2.3913    1.1076 C   0  0  0  0  0  0  0  0  0  0  0  0
   -4.1577   -1.6043    1.3866 H   0  0  0  0  0  0  0  0  0  0  0  0
   -3.6807   -2.7523    0.1036 H   0  0  0  0  0  0  0  0  0  0  0  0
   -2.0477   -1.8543    1.1546 C   0  0  0  0  0  0  0  0  0  0  0  0
   -1.2227   -2.3443    1.9146 O   0  0  0  0  0  0  0  0  0  0  0  0
   -1.7517   -0.8483    0.3266 N   0  0  0  0  0  0  0  0  0  0  0  0
   -2.4847   -0.5123   -0.2804 H   0  0  0  0  0  0  0  0  0  0  0  0
   -0.4117   -0.2463    0.2186 C   0  0  1  0  0  0  0  0  0  0  0  0
    0.2987   -1.0391   -0.0285 H   0  0  0  0  0  0  0  0  0  0  0  0
   -0.4131    0.7505   -0.9636 C   0  0  0  0  0  0  0  0  0  0  0  0
   -1.3181    0.5885   -1.5546 H   0  0  0  0  0  0  0  0  0  0  0  0
   -0.4651    1.7678   -0.5700 H   0  0  0  0  0  0  0  0  0  0  0  0
    0.7879    0.6620   -1.8814 C   0  0  0  0  0  0  0  0  0  0  0  0
    1.8360    1.5613   -1.9137 N   0  3  0  0  0  0  0  0  0  0  0  0
    1.9263    2.3474   -1.2637 H   0  0  0  0  0  0  0  0  0  0  0  0
    2.7142    1.1579   -2.8533 C   0  0  0  0  0  0  0  0  0  0  0  0
    3.6476    1.6600   -3.0993 H   0  0  0  0  0  0  0  0  0  0  0  0
    2.2454    0.0226   -3.4187 N   0  0  0  0  0  0  0  0  0  0  0  0
    2.7005   -0.5090   -4.1562 H   0  0  0  0  0  0  0  0  0  0  0  0
    1.0362   -0.3028   -2.8200 C   0  0  0  0  0  0  0  0  0  0  0  0
    0.4023   -1.1561   -3.0448 H   0  0  0  0  0  0  0  0  0  0  0  0
    0.0470    0.3465    1.5629 C   0  0  0  0  0  0  0  0  0  0  0  0
    1.1854    0.1365    1.9846 O   0  0  0  0  0  0  0  0  0  0  0  0
   -0.8551    1.0750    2.2320 N   0  0  0  0  0  0  0  0  0  0  0  0
   -1.7594    1.2031    1.8040 H   0  0  0  0  0  0  0  0  0  0  0  0
   -0.6356    1.6998    3.5400 C   0  0  0  0  0  0  0  0  0  0  0  0
   -0.4284    2.7647    3.4168 H   0  0  0  0  0  0  0  0  0  0  0  0
   -1.5268    1.5885    4.1601 H   0  0  0  0  0  0  0  0  0  0  0  0
    0.2072    1.2358    4.0566 H   0  0  0  0  0  0  0  0  0  0  0  0
  5  6  2  0  0  0  0
  5  7  1  0  0  0  0
  2  3  1  0  0  0  0
  2  4  1  0  0  0  0
  2  5  1  0  0  0  0
  1  2  1  0  0  0  0
 23 24  2  0  0  0  0
 23 25  1  0  0  0  0
 21 22  1  0  0  0  0
 19 20  1  0  0  0  0
 19 21  1  0  0  0  0
 17 18  1  0  0  0  0
 17 19  1  0  0  0  0
 15 16  1  0  0  0  0
 15 17  2  0  0  0  0
 14 15  1  0  0  0  0
 14 21  2  0  0  0  0
 11 12  1  0  0  0  0
 11 13  1  0  0  0  0
 11 14  1  0  0  0  0
  9 10  1  0  0  0  0
  9 11  1  0  0  0  0
  9 23  1  0  0  0  0
  7  8  1  0  0  0  0
  7  9  1  0  0  0  0
 27 28  1  0  0  0  0
 27 29  1  0  0  0  0
 27 30  1  0  0  0  0
 25 26  1  0  0  0  0
 25 27  1  0  0  0  0
M  CHG  1  15   1
M  END
$$$$
default_name
  -OEChem-02102213163D

 30 30  0     1  0  0  0  0  0999 V2000
   -3.5507   -3.2183    1.8116 H   0  0  0  0  0  0  0  0  0  0  0  0
   -3.4597   -2.3913    1.1076 C   0  0  0  0  0  0  0  0  0  0  0  0
   -4.1577   -1.6043    1.3866 H   0  0  0  0  0  0  0  0  0  0  0  0
   -3.6807   -2.7523    0.1036 H   0  0  0  0  0  0  0  0  0  0  0  0
   -2.0477   -1.8543    1.1546 C   0  0  0  0  0  0  0  0  0  0  0  0
   -1.2227   -2.3443    1.9146 O   0  0  0  0  0  0  0  0  0  0  0  0
   -1.7517   -0.8483    0.3266 N   0  0  0  0  0  0  0  0  0  0  0  0
   -2.4847   -0.5123   -0.2804 H   0  0  0  0  0  0  0  0  0  0  0  0
   -0.4117   -0.2463    0.2186 C   0  0  1  0  0  0  0  0  0  0  0  0
    0.2987   -1.0391   -0.0285 H   0  0  0  0  0  0  0  0  0  0  0  0
   -0.4131    0.7505   -0.9636 C   0  0  0  0  0  0  0  0  0  0  0  0
   -1.3181    0.5885   -1.5546 H   0  0  0  0  0  0  0  0  0  0  0  0
   -0.4651    1.7678   -0.5700 H   0  0  0  0  0  0  0  0  0  0  0  0
    0.7879    0.6620   -1.8814 C   0  0  0  0  0  0  0  0  0  0  0  0
    1.9634    1.3713   -1.7286 N   0  3  0  0  0  0  0  0  0  0  0  0
    2.1542    1.9837   -0.9304 H   0  0  0  0  0  0  0  0  0  0  0  0
    2.7975    1.0342   -2.7323 C   0  0  0  0  0  0  0  0  0  0  0  0
    3.8049    1.4215   -2.8705 H   0  0  0  0  0  0  0  0  0  0  0  0
    2.1761    0.1270   -3.5194 N   0  0  0  0  0  0  0  0  0  0  0  0
    2.5662   -0.3080   -4.3514 H   0  0  0  0  0  0  0  0  0  0  0  0
    0.9128   -0.1179   -2.9993 C   0  0  0  0  0  0  0  0  0  0  0  0
    0.1614   -0.7958   -3.3947 H   0  0  0  0  0  0  0  0  0  0  0  0
    0.0470    0.3465    1.5629 C   0  0  0  0  0  0  0  0  0  0  0  0
    1.1854    0.1365    1.9846 O   0  0  0  0  0  0  0  0  0  0  0  0
   -0.8551    1.0750    2.2320 N   0  0  0  0  0  0  0  0  0  0  0  0
   -1.7594    1.2031    1.8040 H   0  0  0  0  0  0  0  0  0  0  0  0
   -0.6356    1.6998    3.5400 C   0  0  0  0  0  0  0  0  0  0  0  0
   -0.4284    2.7647    3.4168 H   0  0  0  0  0  0  0  0  0  0  0  0
   -1.5268    1.5885    4.1601 H   0  0  0  0  0  0  0  0  0  0  0  0
    0.2072    1.2358    4.0566 H   0  0  0  0  0  0  0  0  0  0  0  0
  5  6  2  0  0  0  0
  5  7  1  0  0  0  0
  2  3  1  0  0  0  0
  2  4  1  0  0  0  0
  2  5  1  0  0  0  0
  1  2  1  0  0  0  0
 23 24  2  0  0  0  0
 23 25  1  0  0  0  0
 21 22  1  0  0  0  0
 19 20  1  0  0  0  0
 19 21  1  0  0  0  0
 17 18  1  0  0  0  0
 17 19  1  0  0  0  0
 15 16  1  0  0  0  0
 15 17  2  0  0  0  0
 14 15  1  0  0  0  0
 14 21  2  0  0  0  0
 11 12  1  0  0  0  0
 11 13  1  0  0  0  0
 11 14  1  0  0  0  0
  9 10  1  0  0  0  0
  9 11  1  0  0  0  0
  9 23  1  0  0  0  0
  7  8  1  0  0  0  0
  7  9  1  0  0  0  0
 27 28  1  0  0  0  0
 27 29  1  0  0  0  0
 27 30  1  0  0  0  0
 25 26  1  0  0  0  0
 25 27  1  0  0  0  0
M  CHG  1  15   1
M  END
$$$$
default_name
  -OEChem-02102213163D

 30 30  0     1  0  0  0  0  0999 V2000
   -3.5507   -3.2183    1.8116 H   0  0  0  0  0  0  0  0  0  0  0  0
   -3.4597   -2.3913    1.1076 C   0  0  0  0  0  0  0  0  0  0  0  0
   -4.1577   -1.6043    1.3866 H   0  0  0  0  0  0  0  0  0  0  0  0
   -3.6807   -2.7523    0.1036 H   0  0  0  0  0  0  0  0  0  0  0  0
   -2.0477   -1.8543    1.1546 C   0  0  0  0  0  0  0  0  0  0  0  0
   -1.2227   -2.3443    1.9146 O   0  0  0  0  0  0  0  0  0  0  0  0
   -1.7517   -0.8483    0.3266 N   0  0  0  0  0  0  0  0  0  0  0  0
   -2.4847   -0.5123   -0.2804 H   0  0  0  0  0  0  0  0  0  0  0  0
   -0.4117   -0.2463    0.2186 C   0  0  1  0  0  0  0  0  0  0  0  0
    0.2987   -1.0391   -0.0285 H   0  0  0  0  0  0  0  0  0  0  0  0
   -0.4131    0.7505   -0.9636 C   0  0  0  0  0  0  0  0  0  0  0  0
   -1.3181    0.5885   -1.5546 H   0  0  0  0  0  0  0  0  0  0  0  0
   -0.4651    1.7678   -0.5700 H   0  0  0  0  0  0  0  0  0  0  0  0
    0.7879    0.6620   -1.8814 C   0  0  0  0  0  0  0  0  0  0  0  0
    2.0539    1.1297   -1.5869 N   0  3  0  0  0  0  0  0  0  0  0  0
    2.3122    1.5282   -0.6796 H   0  0  0  0  0  0  0  0  0  0  0  0
    2.8567    0.8767   -2.6397 C   0  0  0  0  0  0  0  0  0  0  0  0
    3.9159    1.1195   -2.6961 H   0  0  0  0  0  0  0  0  0  0  0  0
    2.1271    0.2595   -3.5963 N   0  0  0  0  0  0  0  0  0  0  0  0
    2.4709   -0.0528   -4.5007 H   0  0  0  0  0  0  0  0  0  0  0  0
    0.8253    0.1170   -3.1364 C   0  0  0  0  0  0  0  0  0  0  0  0
   -0.0094   -0.3382   -3.6623 H   0  0  0  0  0  0  0  0  0  0  0  0
    0.0470    0.3465    1.5629 C   0  0  0  0  0  0  0  0  0  0  0  0
    1.1854    0.1365    1.9846 O   0  0  0  0  0  0  0  0  0  0  0  0
   -0.8551    1.0750    2.2320 N   0  0  0  0  0  0  0  0  0  0  0  0
   -1.7594    1.2031    1.8040 H   0  0  0  0  0  0  0  0  0  0  0  0
   -0.6356    1.6998    3.5400 C   0  0  0  0  0  0  0  0  0  0  0  0
   -0.4284    2.7647    3.4168 H   0  0  0  0  0  0  0  0  0  0  0  0
   -1.5268    1.5885    4.1601 H   0  0  0  0  0  0  0  0  0  0  0  0
    0.2072    1.2358    4.0566 H   0  0  0  0  0  0  0  0  0  0  0  0
  5  6  2  0  0  0  0
  5  7  1  0  0  0  0
  2  3  1  0  0  0  0
  2  4  1  0  0  0  0
  2  5  1  0  0  0  0
  1  2  1  0  0  0  0
 23 24  2  0  0  0  0
 23 25  1  0  0  0  0
 21 22  1  0  0  0  0
 19 20  1  0  0  0  0
 19 21  1  0  0  0  0
 17 18  1  0  0  0  0
 17 19  1  0  0  0  0
 15 16  1  0  0  0  0
 15 17  2  0  0  0  0
 14 15  1  0  0  0  0
 14 21  2  0  0  0  0
 11 12  1  0  0  0  0
 11 13  1  0  0  0  0
 11 14  1  0  0  0  0
  9 10  1  0  0  0  0
  9 11  1  0  0  0  0
  9 23  1  0  0  0  0
  7  8  1  0  0  0  0
  7  9  1  0  0  0  0
 27 28  1  0  0  0  0
 27 29  1  0  0  0  0
 27 30  1  0  0  0  0
 25 26  1  0  0  0  0
 25 27  1  0  0  0  0
M  CHG  1  15   1
M  END
$$$$
default_name
  -OEChem-02102213163D

 30 30  0     1  0  0  0  0  0999 V2000
   -3.5507   -3.2183    1.8116 H   0  0  0  0  0  0  0  0  0  0  0  0
   -3.4597   -2.3913    1.1076 C   0  0  0  0  0  0  0  0  0  0  0  0
   -4.1577   -1.6043    1.3866 H   0  0  0  0  0  0  0  0  0  0  0  0
   -3.6807   -2.7523    0.1036 H   0  0  0  0  0  0  0  0  0  0  0  0
   -2.0477   -1.8543    1.1546 C   0  0  0  0  0  0  0  0  0  0  0  0
   -1.2227   -2.3443    1.9146 O   0  0  0  0  0  0  0  0  0  0  0  0
   -1.7517   -0.8483    0.3266 N   0  0  0  0  0  0  0  0  0  0  0  0
   -2.4847   -0.5123   -0.2804 H   0  0  0  0  0  0  0  0  0  0  0  0
   -0.4117   -0.2463    0.2186 C   0  0  1  0  0  0  0  0  0  0  0  0
    0.2987   -1.0391   -0.0285 H   0  0  0  0  0  0  0  0  0  0  0  0
   -0.4131    0.7505   -0.9636 C   0  0  0  0  0  0  0  0  0  0  0  0
   -1.3181    0.5885   -1.5546 H   0  0  0  0  0  0  0  0  0  0  0  0
   -0.4651    1.7678   -0.5700 H   0  0  0  0  0  0  0  0  0  0  0  0
    0.7879    0.6620   -1.8814 C   0  0  0  0  0  0  0  0  0  0  0  0
    2.1013    0.8531   -1.4983 N   0  3  0  0  0  0  0  0  0  0  0  0
    2.3896    1.0120   -0.5286 H   0  0  0  0  0  0  0  0  0  0  0  0
    2.8878    0.6964   -2.5816 C   0  0  0  0  0  0  0  0  0  0  0  0
    3.9731    0.7746   -2.5880 H   0  0  0  0  0  0  0  0  0  0  0  0
    2.1018    0.4109   -3.6441 N   0  0  0  0  0  0  0  0  0  0  0  0
    2.4211    0.2393   -4.5939 H   0  0  0  0  0  0  0  0  0  0  0  0
    0.7798    0.3856   -3.2219 C   0  0  0  0  0  0  0  0  0  0  0  0
   -0.0985    0.1856   -3.8295 H   0  0  0  0  0  0  0  0  0  0  0  0
    0.0470    0.3465    1.5629 C   0  0  0  0  0  0  0  0  0  0  0  0
    1.1854    0.1365    1.9846 O   0  0  0  0  0  0  0  0  0  0  0  0
   -0.8551    1.0750    2.2320 N   0  0  0  0  0  0  0  0  0  0  0  0
   -1.7594    1.2031    1.8040 H   0  0  0  0  0  0  0  0  0  0  0  0
   -0.6356    1.6998    3.5400 C   0  0  0  0  0  0  0  0  0  0  0  0
   -0.4284    2.7647    3.4168 H   0  0  0  0  0  0  0  0  0  0  0  0
   -1.5268    1.5885    4.1601 H   0  0  0  0  0  0  0  0  0  0  0  0
    0.2072    1.2358    4.0566 H   0  0  0  0  0  0  0  0  0  0  0  0
  5  6  2  0  0  0  0
  5  7  1  0  0  0  0
  2  3  1  0  0  0  0
  2  4  1  0  0  0  0
  2  5  1  0  0  0  0
  1  2  1  0  0  0  0
 23 24  2  0  0  0  0
 23 25  1  0  0  0  0
 21 22  1  0  0  0  0
 19 20  1  0  0  0  0
 19 21  1  0  0  0  0
 17 18  1  0  0  0  0
 17 19  1  0  0  0  0
 15 16  1  0  0  0  0
 15 17  2  0  0  0  0
 14 15  1  0  0  0  0
 14 21  2  0  0  0  0
 11 12  1  0  0  0  0
 11 13  1  0  0  0  0
 11 14  1  0  0  0  0
  9 10  1  0  0  0  0
  9 11  1  0  0  0  0
  9 23  1  0  0  0  0
  7  8  1  0  0  0  0
  7  9  1  0  0  0  0
 27 28  1  0  0  0  0
 27 29  1  0  0  0  0
 27 30  1  0  0  0  0
 25 26  1  0  0  0  0
 25 27  1  0  0  0  0
M  CHG  1  15   1
M  END
$$$$
default_name
  -OEChem-02102213163D

 30 30  0     1  0  0  0  0  0999 V2000
   -3.5507   -3.2183    1.8116 H   0  0  0  0  0  0  0  0  0  0  0  0
   -3.4597   -2.3913    1.1076 C   0  0  0  0  0  0  0  0  0  0  0  0
   -4.1577   -1.6043    1.3866 H   0  0  0  0  0  0  0  0  0  0  0  0
   -3.6807   -2.7523    0.1036 H   0  0  0  0  0  0  0  0  0  0  0  0
   -2.0477   -1.8543    1.1546 C   0  0  0  0  0  0  0  0  0  0  0  0
   -1.2227   -2.3443    1.9146 O   0  0  0  0  0  0  0  0  0  0  0  0
   -1.7517   -0.8483    0.3266 N   0  0  0  0  0  0  0  0  0  0  0  0
   -2.4847   -0.5123   -0.2804 H   0  0  0  0  0  0  0  0  0  0  0  0
   -0.4117   -0.2463    0.2186 C   0  0  1  0  0  0  0  0  0  0  0  0
    0.2987   -1.0391   -0.0285 H   0  0  0  0  0  0  0  0  0  0  0  0
   -0.4131    0.7505   -0.9636 C   0  0  0  0  0  0  0  0  0  0  0  0
   -1.3181    0.5885   -1.5546 H   0  0  0  0  0  0  0  0  0  0  0  0
   -0.4651    1.7678   -0.5700 H   0  0  0  0  0  0  0  0  0  0  0  0
    0.7879    0.6620   -1.8814 C   0  0  0  0  0  0  0  0  0  0  0  0
    2.1023    0.5603   -1.4687 N   0  3  0  0  0  0  0  0  0  0  0  0
    2.3811    0.4702   -0.4874 H   0  0  0  0  0  0  0  0  0  0  0  0
    2.8887    0.5053   -2.5620 C   0  0  0  0  0  0  0  0  0  0  0  0
    3.9726    0.4102   -2.5535 H   0  0  0  0  0  0  0  0  0  0  0  0
    2.1017    0.5710   -3.6596 N   0  0  0  0  0  0  0  0  0  0  0  0
    2.4203    0.5484   -4.6248 H   0  0  0  0  0  0  0  0  0  0  0  0
    0.7792    0.6699   -3.2501 C   0  0  0  0  0  0  0  0  0  0  0  0
   -0.0999    0.7398   -3.8847 H   0  0  0  0  0  0  0  0  0  0  0  0
    0.0470    0.3465    1.5629 C   0  0  0  0  0  0  0  0  0  0  0  0
    1.1854    0.1365    1.9846 O   0  0  0  0  0  0  0  0  0  0  0  0
   -0.8551    1.0750    2.2320 N   0  0  0  0  0  0  0  0  0  0  0  0
   -1.7594    1.2031    1.8040 H   0  0  0  0  0  0  0  0  0  0  0  0
   -0.6356    1.6998    3.5400 C   0  0  0  0  0  0  0  0  0  0  0  0
   -0.4284    2.7647    3.4168 H   0  0  0  0  0  0  0  0  0  0  0  0
   -1.5268    1.5885    4.1601 H   0  0  0  0  0  0  0  0  0  0  0  0
    0.2072    1.2358    4.0566 H   0  0  0  0  0  0  0  0  0  0  0  0
  5  6  2  0  0  0  0
  5  7  1  0  0  0  0
  2  3  1  0  0  0  0
  2  4  1  0  0  0  0
  2  5  1  0  0  0  0
  1  2  1  0  0  0  0
 23 24  2  0  0  0  0
 23 25  1  0  0  0  0
 21 22  1  0  0  0  0
 19 20  1  0  0  0  0
 19 21  1  0  0  0  0
 17 18  1  0  0  0  0
 17 19  1  0  0  0  0
 15 16  1  0  0  0  0
 15 17  2  0  0  0  0
 14 15  1  0  0  0  0
 14 21  2  0  0  0  0
 11 12  1  0  0  0  0
 11 13  1  0  0  0  0
 11 14  1  0  0  0  0
  9 10  1  0  0  0  0
  9 11  1  0  0  0  0
  9 23  1  0  0  0  0
  7  8  1  0  0  0  0
  7  9  1  0  0  0  0
 27 28  1  0  0  0  0
 27 29  1  0  0  0  0
 27 30  1  0  0  0  0
 25 26  1  0  0  0  0
 25 27  1  0  0  0  0
M  CHG  1  15   1
M  END
$$$$
default_name
  -OEChem-02102213163D

 30 30  0     1  0  0  0  0  0999 V2000
   -3.5507   -3.2183    1.8116 H   0  0  0  0  0  0  0  0  0  0  0  0
   -3.4597   -2.3913    1.1076 C   0  0  0  0  0  0  0  0  0  0  0  0
   -4.1577   -1.6043    1.3866 H   0  0  0  0  0  0  0  0  0  0  0  0
   -3.6807   -2.7523    0.1036 H   0  0  0  0  0  0  0  0  0  0  0  0
   -2.0477   -1.8543    1.1546 C   0  0  0  0  0  0  0  0  0  0  0  0
   -1.2227   -2.3443    1.9146 O   0  0  0  0  0  0  0  0  0  0  0  0
   -1.7517   -0.8483    0.3266 N   0  0  0  0  0  0  0  0  0  0  0  0
   -2.4847   -0.5123   -0.2804 H   0  0  0  0  0  0  0  0  0  0  0  0
   -0.4117   -0.2463    0.2186 C   0  0  1  0  0  0  0  0  0  0  0  0
    0.2987   -1.0391   -0.0285 H   0  0  0  0  0  0  0  0  0  0  0  0
   -0.4131    0.7505   -0.9636 C   0  0  0  0  0  0  0  0  0  0  0  0
   -1.3181    0.5885   -1.5546 H   0  0  0  0  0  0  0  0  0  0  0  0
   -0.4651    1.7678   -0.5700 H   0  0  0  0  0  0  0  0  0  0  0  0
    0.7879    0.6620   -1.8814 C   0  0  0  0  0  0  0  0  0  0  0  0
    2.0569    0.2712   -1.5002 N   0  3  0  0  0  0  0  0  0  0  0  0
    2.2873   -0.0603   -0.5591 H   0  0  0  0  0  0  0  0  0  0  0  0
    2.8592    0.3166   -2.5823 C   0  0  0  0  0  0  0  0  0  0  0  0
    3.9144    0.0512   -2.5950 H   0  0  0  0  0  0  0  0  0  0  0  0
    2.1270    0.7288   -3.6417 N   0  0  0  0  0  0  0  0  0  0  0  0
    2.4685    0.8535   -4.5911 H   0  0  0  0  0  0  0  0  0  0  0  0
    0.8237    0.9503   -3.2189 C   0  0  0  0  0  0  0  0  0  0  0  0
   -0.0135    1.2867   -3.8244 H   0  0  0  0  0  0  0  0  0  0  0  0
    0.0470    0.3465    1.5629 C   0  0  0  0  0  0  0  0  0  0  0  0
    1.1854    0.1365    1.9846 O   0  0  0  0  0  0  0  0  0  0  0  0
   -0.8551    1.0750    2.2320 N   0  0  0  0  0  0  0  0  0  0  0  0
   -1.7594    1.2031    1.8040 H   0  0  0  0  0  0  0  0  0  0  0  0
   -0.6356    1.6998    3.5400 C   0  0  0  0  0  0  0  0  0  0  0  0
   -0.4284    2.7647    3.4168 H   0  0  0  0  0  0  0  0  0  0  0  0
   -1.5268    1.5885    4.1601 H   0  0  0  0  0  0  0  0  0  0  0  0
    0.2072    1.2358    4.0566 H   0  0  0  0  0  0  0  0  0  0  0  0
  5  6  2  0  0  0  0
  5  7  1  0  0  0  0
  2  3  1  0  0  0  0
  2  4  1  0  0  0  0
  2  5  1  0  0  0  0
  1  2  1  0  0  0  0
 23 24  2  0  0  0  0
 23 25  1  0  0  0  0
 21 22  1  0  0  0  0
 19 20  1  0  0  0  0
 19 21  1  0  0  0  0
 17 18  1  0  0  0  0
 17 19  1  0  0  0  0
 15 16  1  0  0  0  0
 15 17  2  0  0  0  0
 14 15  1  0  0  0  0
 14 21  2  0  0  0  0
 11 12  1  0  0  0  0
 11 13  1  0  0  0  0
 11 14  1  0  0  0  0
  9 10  1  0  0  0  0
  9 11  1  0  0  0  0
  9 23  1  0  0  0  0
  7  8  1  0  0  0  0
  7  9  1  0  0  0  0
 27 28  1  0  0  0  0
 27 29  1  0  0  0  0
 27 30  1  0  0  0  0
 25 26  1  0  0  0  0
 25 27  1  0  0  0  0
M  CHG  1  15   1
M  END
$$$$
default_name
  -OEChem-02102213163D

 30 30  0     1  0  0  0  0  0999 V2000
   -3.5507   -3.2183    1.8116 H   0  0  0  0  0  0  0  0  0  0  0  0
   -3.4597   -2.3913    1.1076 C   0  0  0  0  0  0  0  0  0  0  0  0
   -4.1577   -1.6043    1.3866 H   0  0  0  0  0  0  0  0  0  0  0  0
   -3.6807   -2.7523    0.1036 H   0  0  0  0  0  0  0  0  0  0  0  0
   -2.0477   -1.8543    1.1546 C   0  0  0  0  0  0  0  0  0  0  0  0
   -1.2227   -2.3443    1.9146 O   0  0  0  0  0  0  0  0  0  0  0  0
   -1.7517   -0.8483    0.3266 N   0  0  0  0  0  0  0  0  0  0  0  0
   -2.4847   -0.5123   -0.2804 H   0  0  0  0  0  0  0  0  0  0  0  0
   -0.4117   -0.2463    0.2186 C   0  0  1  0  0  0  0  0  0  0  0  0
    0.2987   -1.0391   -0.0285 H   0  0  0  0  0  0  0  0  0  0  0  0
   -0.4131    0.7505   -0.9636 C   0  0  0  0  0  0  0  0  0  0  0  0
   -1.3181    0.5885   -1.5546 H   0  0  0  0  0  0  0  0  0  0  0  0
   -0.4651    1.7678   -0.5700 H   0  0  0  0  0  0  0  0  0  0  0  0
    0.7879    0.6620   -1.8814 C   0  0  0  0  0  0  0  0  0  0  0  0
    1.9682    0.0056   -1.5907 N   0  3  0  0  0  0  0  0  0  0  0  0
    2.1145   -0.5432   -0.7386 H   0  0  0  0  0  0  0  0  0  0  0  0
    2.8015    0.1432   -2.6411 C   0  0  0  0  0  0  0  0  0  0  0  0
    3.8026   -0.2778   -2.7097 H   0  0  0  0  0  0  0  0  0  0  0  0
    2.1760    0.8736   -3.5917 N   0  0  0  0  0  0  0  0  0  0  0  0
    2.5624    1.1337   -4.4953 H   0  0  0  0  0  0  0  0  0  0  0  0
    0.9102    1.2078   -3.1306 C   0  0  0  0  0  0  0  0  0  0  0  0
    0.1549    1.7890   -3.6525 H   0  0  0  0  0  0  0  0  0  0  0  0
    0.0470    0.3465    1.5629 C   0  0  0  0  0  0  0  0  0  0  0  0
    1.1854    0.1365    1.9846 O   0  0  0  0  0  0  0  0  0  0  0  0
   -0.8551    1.0750    2.2320 N   0  0  0  0  0  0  0  0  0  0  0  0
   -1.7594    1.2031    1.8040 H   0  0  0  0  0  0  0  0  0  0  0  0
   -0.6356    1.6998    3.5400 C   0  0  0  0  0  0  0  0  0  0  0  0
   -0.4284    2.7647    3.4168 H   0  0  0  0  0  0  0  0  0  0  0  0
   -1.5268    1.5885    4.1601 H   0  0  0  0  0  0  0  0  0  0  0  0
    0.2072    1.2358    4.0566 H   0  0  0  0  0  0  0  0  0  0  0  0
  5  6  2  0  0  0  0
  5  7  1  0  0  0  0
  2  3  1  0  0  0  0
  2  4  1  0  0  0  0
  2  5  1  0  0  0  0
  1  2  1  0  0  0  0
 23 24  2  0  0  0  0
 23 25  1  0  0  0  0
 21 22  1  0  0  0  0
 19 20  1  0  0  0  0
 19 21  1  0  0  0  0
 17 18  1  0  0  0  0
 17 19  1  0  0  0  0
 15 16  1  0  0  0  0
 15 17  2  0  0  0  0
 14 15  1  0  0  0  0
 14 21  2  0  0  0  0
 11 12  1  0  0  0  0
 11 13  1  0  0  0  0
 11 14  1  0  0  0  0
  9 10  1  0  0  0  0
  9 11  1  0  0  0  0
  9 23  1  0  0  0  0
  7  8  1  0  0  0  0
  7  9  1  0  0  0  0
 27 28  1  0  0  0  0
 27 29  1  0  0  0  0
 27 30  1  0  0  0  0
 25 26  1  0  0  0  0
 25 27  1  0  0  0  0
M  CHG  1  15   1
M  END
$$$$
default_name
  -OEChem-02102213163D

 30 30  0     1  0  0  0  0  0999 V2000
   -3.5507   -3.2183    1.8116 H   0  0  0  0  0  0  0  0  0  0  0  0
   -3.4597   -2.3913    1.1076 C   0  0  0  0  0  0  0  0  0  0  0  0
   -4.1577   -1.6043    1.3866 H   0  0  0  0  0  0  0  0  0  0  0  0
   -3.6807   -2.7523    0.1036 H   0  0  0  0  0  0  0  0  0  0  0  0
   -2.0477   -1.8543    1.1546 C   0  0  0  0  0  0  0  0  0  0  0  0
   -1.2227   -2.3443    1.9146 O   0  0  0  0  0  0  0  0  0  0  0  0
   -1.7517   -0.8483    0.3266 N   0  0  0  0  0  0  0  0  0  0  0  0
   -2.4847   -0.5123   -0.2804 H   0  0  0  0  0  0  0  0  0  0  0  0
   -0.4117   -0.2463    0.2186 C   0  0  1  0  0  0  0  0  0  0  0  0
    0.2987   -1.0391   -0.0285 H   0  0  0  0  0  0  0  0  0  0  0  0
   -0.4131    0.7505   -0.9636 C   0  0  0  0  0  0  0  0  0  0  0  0
   -1.3181    0.5885   -1.5546 H   0  0  0  0  0  0  0  0  0  0  0  0
   -0.4651    1.7678   -0.5700 H   0  0  0  0  0  0  0  0  0  0  0  0
    0.7879    0.6620   -1.8814 C   0  0  0  0  0  0  0  0  0  0  0  0
    1.8422   -0.2185   -1.7340 N   0  3  0  0  0  0  0  0  0  0  0  0
    1.8745   -0.9457   -1.0138 H   0  0  0  0  0  0  0  0  0  0  0  0
    2.7194   -0.0033   -2.7344 C   0  0  0  0  0  0  0  0  0  0  0  0
    3.6446   -0.5546   -2.8897 H   0  0  0  0  0  0  0  0  0  0  0  0
    2.2452    0.9955   -3.5128 N   0  0  0  0  0  0  0  0  0  0  0  0
    2.6956    1.3699   -4.3437 H   0  0  0  0  0  0  0  0  0  0  0  0
    1.0328    1.4249   -2.9911 C   0  0  0  0  0  0  0  0  0  0  0  0
    0.3938    2.2125   -3.3808 H   0  0  0  0  0  0  0  0  0  0  0  0
    0.0470    0.3465    1.5629 C   0  0  0  0  0  0  0  0  0  0  0  0
    1.1854    0.1365    1.9846 O   0  0  0  0  0  0  0  0  0  0  0  0
   -0.8551    1.0750    2.2320 N   0  0  0  0  0  0  0  0  0  0  0  0
   -1.7594    1.2031    1.8040 H   0  0  0  0  0  0  0  0  0  0  0  0
   -0.6356    1.6998    3.5400 C   0  0  0  0  0  0  0  0  0  0  0  0
   -0.4284    2.7647    3.4168 H   0  0  0  0  0  0  0  0  0  0  0  0
   -1.5268    1.5885    4.1601 H   0  0  0  0  0  0  0  0  0  0  0  0
    0.2072    1.2358    4.0566 H   0  0  0  0  0  0  0  0  0  0  0  0
  5  6  2  0  0  0  0
  5  7  1  0  0  0  0
  2  3  1  0  0  0  0
  2  4  1  0  0  0  0
  2  5  1  0  0  0  0
  1  2  1  0  0  0  0
 23 24  2  0  0  0  0
 23 25  1  0  0  0  0
 21 22  1  0  0  0  0
 19 20  1  0  0  0  0
 19 21  1  0  0  0  0
 17 18  1  0  0  0  0
 17 19  1  0  0  0  0
 15 16  1  0  0  0  0
 15 17  2  0  0  0  0
 14 15  1  0  0  0  0
 14 21  2  0  0  0  0
 11 12  1  0  0  0  0
 11 13  1  0  0  0  0
 11 14  1  0  0  0  0
  9 10  1  0  0  0  0
  9 11  1  0  0  0  0
  9 23  1  0  0  0  0
  7  8  1  0  0  0  0
  7  9  1  0  0  0  0
 27 28  1  0  0  0  0
 27 29  1  0  0  0  0
 27 30  1  0  0  0  0
 25 26  1  0  0  0  0
 25 27  1  0  0  0  0
M  CHG  1  15   1
M  END
$$$$
default_name
  -OEChem-02102213163D

 30 30  0     1  0  0  0  0  0999 V2000
   -3.5507   -3.2183    1.8116 H   0  0  0  0  0  0  0  0  0  0  0  0
   -3.4597   -2.3913    1.1076 C   0  0  0  0  0  0  0  0  0  0  0  0
   -4.1577   -1.6043    1.3866 H   0  0  0  0  0  0  0  0  0  0  0  0
   -3.6807   -2.7523    0.1036 H   0  0  0  0  0  0  0  0  0  0  0  0
   -2.0477   -1.8543    1.1546 C   0  0  0  0  0  0  0  0  0  0  0  0
   -1.2227   -2.3443    1.9146 O   0  0  0  0  0  0  0  0  0  0  0  0
   -1.7517   -0.8483    0.3266 N   0  0  0  0  0  0  0  0  0  0  0  0
   -2.4847   -0.5123   -0.2804 H   0  0  0  0  0  0  0  0  0  0  0  0
   -0.4117   -0.2463    0.2186 C   0  0  1  0  0  0  0  0  0  0  0  0
    0.2987   -1.0391   -0.0285 H   0  0  0  0  0  0  0  0  0  0  0  0
   -0.4131    0.7505   -0.9636 C   0  0  0  0  0  0  0  0  0  0  0  0
   -1.3181    0.5885   -1.5546 H   0  0  0  0  0  0  0  0  0  0  0  0
   -0.4651    1.7678   -0.5700 H   0  0  0  0  0  0  0  0  0  0  0  0
    0.7879    0.6620   -1.8814 C   0  0  0  0  0  0  0  0  0  0  0  0
    1.6875   -0.3857   -1.9203 N   0  3  0  0  0  0  0  0  0  0  0  0
    1.5838   -1.2404   -1.3658 H   0  0  0  0  0  0  0  0  0  0  0  0
    2.6186   -0.1127   -2.8558 C   0  0  0  0  0  0  0  0  0  0  0  0
    3.4514   -0.7602   -3.1227 H   0  0  0  0  0  0  0  0  0  0  0  0
    2.3300    1.0862   -3.4106 N   0  0  0  0  0  0  0  0  0  0  0  0
    2.8591    1.5461   -4.1469 H   0  0  0  0  0  0  0  0  0  0  0  0
    1.1831    1.5866   -2.8099 C   0  0  0  0  0  0  0  0  0  0  0  0
    0.6868    2.5283   -3.0278 H   0  0  0  0  0  0  0  0  0  0  0  0
    0.0470    0.3465    1.5629 C   0  0  0  0  0  0  0  0  0  0  0  0
    1.1854    0.1365    1.9846 O   0  0  0  0  0  0  0  0  0  0  0  0
   -0.8551    1.0750    2.2320 N   0  0  0  0  0  0  0  0  0  0  0  0
   -1.7594    1.2031    1.8040 H   0  0  0  0  0  0  0  0  0  0  0  0
   -0.6356    1.6998    3.5400 C   0  0  0  0  0  0  0  0  0  0  0  0
   -0.4284    2.7647    3.4168 H   0  0  0  0  0  0  0  0  0  0  0  0
   -1.5268    1.5885    4.1601 H   0  0  0  0  0  0  0  0  0  0  0  0
    0.2072    1.2358    4.0566 H   0  0  0  0  0  0  0  0  0  0  0  0
  5  6  2  0  0  0  0
  5  7  1  0  0  0  0
  2  3  1  0  0  0  0
  2  4  1  0  0  0  0
  2  5  1  0  0  0  0
  1  2  1  0  0  0  0
 23 24  2  0  0  0  0
 23 25  1  0  0  0  0
 21 22  1  0  0  0  0
 19 20  1  0  0  0  0
 19 21  1  0  0  0  0
 17 18  1  0  0  0  0
 17 19  1  0  0  0  0
 15 16  1  0  0  0  0
 15 17  2  0  0  0  0
 14 15  1  0  0  0  0
 14 21  2  0  0  0  0
 11 12  1  0  0  0  0
 11 13  1  0  0  0  0
 11 14  1  0  0  0  0
  9 10  1  0  0  0  0
  9 11  1  0  0  0  0
  9 23  1  0  0  0  0
  7  8  1  0  0  0  0
  7  9  1  0  0  0  0
 27 28  1  0  0  0  0
 27 29  1  0  0  0  0
 27 30  1  0  0  0  0
 25 26  1  0  0  0  0
 25 27  1  0  0  0  0
M  CHG  1  15   1
M  END
$$$$
default_name
  -OEChem-02102213163D

 30 30  0     1  0  0  0  0  0999 V2000
   -3.5507   -3.2183    1.8116 H   0  0  0  0  0  0  0  0  0  0  0  0
   -3.4597   -2.3913    1.1076 C   0  0  0  0  0  0  0  0  0  0  0  0
   -4.1577   -1.6043    1.3866 H   0  0  0  0  0  0  0  0  0  0  0  0
   -3.6807   -2.7523    0.1036 H   0  0  0  0  0  0  0  0  0  0  0  0
   -2.0477   -1.8543    1.1546 C   0  0  0  0  0  0  0  0  0  0  0  0
   -1.2227   -2.3443    1.9146 O   0  0  0  0  0  0  0  0  0  0  0  0
   -1.7517   -0.8483    0.3266 N   0  0  0  0  0  0  0  0  0  0  0  0
   -2.4847   -0.5123   -0.2804 H   0  0  0  0  0  0  0  0  0  0  0  0
   -0.4117   -0.2463    0.2186 C   0  0  1  0  0  0  0  0  0  0  0  0
    0.2987   -1.0391   -0.0285 H   0  0  0  0  0  0  0  0  0  0  0  0
   -0.4131    0.7505   -0.9636 C   0  0  0  0  0  0  0  0  0  0  0  0
   -1.3181    0.5885   -1.5546 H   0  0  0  0  0  0  0  0  0  0  0  0
   -0.4651    1.7678   -0.5700 H   0  0  0  0  0  0  0  0  0  0  0  0
    0.7879    0.6620   -1.8814 C   0  0  0  0  0  0  0  0  0  0  0  0
    1.5146   -0.4847   -2.1369 N   0  3  0  0  0  0  0  0  0  0  0  0
    1.2620   -1.4071   -1.7708 H   0  0  0  0  0  0  0  0  0  0  0  0
    2.5059   -0.1776   -2.9970 C   0  0  0  0  0  0  0  0  0  0  0  0
    3.2359   -0.8807   -3.3930 H   0  0  0  0  0  0  0  0  0  0  0  0
    2.4246    1.1395   -3.2920 N   0  0  0  0  0  0  0  0  0  0  0  0
    3.0416    1.6502   -3.9181 H   0  0  0  0  0  0  0  0  0  0  0  0
    1.3510    1.6821   -2.5995 C   0  0  0  0  0  0  0  0  0  0  0  0
    1.0140    2.7149   -2.6176 H   0  0  0  0  0  0  0  0  0  0  0  0
    0.0470    0.3465    1.5629 C   0  0  0  0  0  0  0  0  0  0  0  0
    1.1854    0.1365    1.9846 O   0  0  0  0  0  0  0  0  0  0  0  0
   -0.8551    1.0750    2.2320 N   0  0  0  0  0  0  0  0  0  0  0  0
   -1.7594    1.2031    1.8040 H   0  0  0  0  0  0  0  0  0  0  0  0
   -0.6356    1.6998    3.5400 C   0  0  0  0  0  0  0  0  0  0  0  0
   -0.4284    2.7647    3.4168 H   0  0  0  0  0  0  0  0  0  0  0  0
   -1.5268    1.5885    4.1601 H   0  0  0  0  0  0  0  0  0  0  0  0
    0.2072    1.2358    4.0566 H   0  0  0  0  0  0  0  0  0  0  0  0
  5  6  2  0  0  0  0
  5  7  1  0  0  0  0
  2  3  1  0  0  0  0
  2  4  1  0  0  0  0
  2  5  1  0  0  0  0
  1  2  1  0  0  0  0
 23 24  2  0  0  0  0
 23 25  1  0  0  0  0
 21 22  1  0  0  0  0
 19 20  1  0  0  0  0
 19 21  1  0  0  0  0
 17 18  1  0  0  0  0
 17 19  1  0  0  0  0
 15 16  1  0  0  0  0
 15 17  2  0  0  0  0
 14 15  1  0  0  0  0
 14 21  2  0  0  0  0
 11 12  1  0  0  0  0
 11 13  1  0  0  0  0
 11 14  1  0  0  0  0
  9 10  1  0  0  0  0
  9 11  1  0  0  0  0
  9 23  1  0  0  0  0
  7  8  1  0  0  0  0
  7  9  1  0  0  0  0
 27 28  1  0  0  0  0
 27 29  1  0  0  0  0
 27 30  1  0  0  0  0
 25 26  1  0  0  0  0
 25 27  1  0  0  0  0
M  CHG  1  15   1
M  END
$$$$
default_name
  -OEChem-02102213163D

 30 30  0     1  0  0  0  0  0999 V2000
   -3.5507   -3.2183    1.8116 H   0  0  0  0  0  0  0  0  0  0  0  0
   -3.4597   -2.3913    1.1076 C   0  0  0  0  0  0  0  0  0  0  0  0
   -4.1577   -1.6043    1.3866 H   0  0  0  0  0  0  0  0  0  0  0  0
   -3.6807   -2.7523    0.1036 H   0  0  0  0  0  0  0  0  0  0  0  0
   -2.0477   -1.8543    1.1546 C   0  0  0  0  0  0  0  0  0  0  0  0
   -1.2227   -2.3443    1.9146 O   0  0  0  0  0  0  0  0  0  0  0  0
   -1.7517   -0.8483    0.3266 N   0  0  0  0  0  0  0  0  0  0  0  0
   -2.4847   -0.5123   -0.2804 H   0  0  0  0  0  0  0  0  0  0  0  0
   -0.4117   -0.2463    0.2186 C   0  0  1  0  0  0  0  0  0  0  0  0
    0.2987   -1.0391   -0.0285 H   0  0  0  0  0  0  0  0  0  0  0  0
   -0.4131    0.7505   -0.9636 C   0  0  0  0  0  0  0  0  0  0  0  0
   -1.3181    0.5885   -1.5546 H   0  0  0  0  0  0  0  0  0  0  0  0
   -0.4651    1.7678   -0.5700 H   0  0  0  0  0  0  0  0  0  0  0  0
    0.7879    0.6620   -1.8814 C   0  0  0  0  0  0  0  0  0  0  0  0
    1.3354   -0.5088   -2.3691 N   0  3  0  0  0  0  0  0  0  0  0  0
    0.9312   -1.4346   -2.2010 H   0  0  0  0  0  0  0  0  0  0  0  0
    2.3889   -0.1937   -3.1485 C   0  0  0  0  0  0  0  0  0  0  0  0
    3.0131   -0.9077   -3.6820 H   0  0  0  0  0  0  0  0  0  0  0  0
    2.5225    1.1518   -3.1650 N   0  0  0  0  0  0  0  0  0  0  0  0
    3.2308    1.6751   -3.6729 H   0  0  0  0  0  0  0  0  0  0  0  0
    1.5249    1.7048   -2.3741 C   0  0  0  0  0  0  0  0  0  0  0  0
    1.3532    2.7596   -2.1781 H   0  0  0  0  0  0  0  0  0  0  0  0
    0.0470    0.3465    1.5629 C   0  0  0  0  0  0  0  0  0  0  0  0
    1.1854    0.1365    1.9846 O   0  0  0  0  0  0  0  0  0  0  0  0
   -0.8551    1.0750    2.2320 N   0  0  0  0  0  0  0  0  0  0  0  0
   -1.7594    1.2031    1.8040 H   0  0  0  0  0  0  0  0  0  0  0  0
   -0.6356    1.6998    3.5400 C   0  0  0  0  0  0  0  0  0  0  0  0
   -0.4284    2.7647    3.4168 H   0  0  0  0  0  0  0  0  0  0  0  0
   -1.5268    1.5885    4.1601 H   0  0  0  0  0  0  0  0  0  0  0  0
    0.2072    1.2358    4.0566 H   0  0  0  0  0  0  0  0  0  0  0  0
  5  6  2  0  0  0  0
  5  7  1  0  0  0  0
  2  3  1  0  0  0  0
  2  4  1  0  0  0  0
  2  5  1  0  0  0  0
  1  2  1  0  0  0  0
 23 24  2  0  0  0  0
 23 25  1  0  0  0  0
 21 22  1  0  0  0  0
 19 20  1  0  0  0  0
 19 21  1  0  0  0  0
 17 18  1  0  0  0  0
 17 19  1  0  0  0  0
 15 16  1  0  0  0  0
 15 17  2  0  0  0  0
 14 15  1  0  0  0  0
 14 21  2  0  0  0  0
 11 12  1  0  0  0  0
 11 13  1  0  0  0  0
 11 14  1  0  0  0  0
  9 10  1  0  0  0  0
  9 11  1  0  0  0  0
  9 23  1  0  0  0  0
  7  8  1  0  0  0  0
  7  9  1  0  0  0  0
 27 28  1  0  0  0  0
 27 29  1  0  0  0  0
 27 30  1  0  0  0  0
 25 26  1  0  0  0  0
 25 27  1  0  0  0  0
M  CHG  1  15   1
M  END
$$$$
default_name
  -OEChem-02102213163D

 30 30  0     1  0  0  0  0  0999 V2000
   -3.5507   -3.2183    1.8116 H   0  0  0  0  0  0  0  0  0  0  0  0
   -3.4597   -2.3913    1.1076 C   0  0  0  0  0  0  0  0  0  0  0  0
   -4.1577   -1.6043    1.3866 H   0  0  0  0  0  0  0  0  0  0  0  0
   -3.6807   -2.7523    0.1036 H   0  0  0  0  0  0  0  0  0  0  0  0
   -2.0477   -1.8543    1.1546 C   0  0  0  0  0  0  0  0  0  0  0  0
   -1.2227   -2.3443    1.9146 O   0  0  0  0  0  0  0  0  0  0  0  0
   -1.7517   -0.8483    0.3266 N   0  0  0  0  0  0  0  0  0  0  0  0
   -2.4847   -0.5123   -0.2804 H   0  0  0  0  0  0  0  0  0  0  0  0
   -0.4117   -0.2463    0.2186 C   0  0  1  0  0  0  0  0  0  0  0  0
    0.2987   -1.0391   -0.0285 H   0  0  0  0  0  0  0  0  0  0  0  0
   -0.4131    0.7505   -0.9636 C   0  0  0  0  0  0  0  0  0  0  0  0
   -1.3181    0.5885   -1.5546 H   0  0  0  0  0  0  0  0  0  0  0  0
   -0.4651    1.7678   -0.5700 H   0  0  0  0  0  0  0  0  0  0  0  0
    0.7879    0.6620   -1.8814 C   0  0  0  0  0  0  0  0  0  0  0  0
    1.1620   -0.4563   -2.6011 N   0  3  0  0  0  0  0  0  0  0  0  0
    0.6139   -1.3209   -2.6272 H   0  0  0  0  0  0  0  0  0  0  0  0
    2.2757   -0.1597   -3.2999 C   0  0  0  0  0  0  0  0  0  0  0  0
    2.7979   -0.8395   -3.9702 H   0  0  0  0  0  0  0  0  0  0  0  0
    2.6171    1.1222   -3.0384 N   0  0  0  0  0  0  0  0  0  0  0  0
    3.4137    1.6192   -3.4281 H   0  0  0  0  0  0  0  0  0  0  0  0
    1.6931    1.6531   -2.1490 C   0  0  0  0  0  0  0  0  0  0  0  0
    1.6812    2.6593   -1.7392 H   0  0  0  0  0  0  0  0  0  0  0  0
    0.0470    0.3465    1.5629 C   0  0  0  0  0  0  0  0  0  0  0  0
    1.1854    0.1365    1.9846 O   0  0  0  0  0  0  0  0  0  0  0  0
   -0.8551    1.0750    2.2320 N   0  0  0  0  0  0  0  0  0  0  0  0
   -1.7594    1.2031    1.8040 H   0  0  0  0  0  0  0  0  0  0  0  0
   -0.6356    1.6998    3.5400 C   0  0  0  0  0  0  0  0  0  0  0  0
   -0.4284    2.7647    3.4168 H   0  0  0  0  0  0  0  0  0  0  0  0
   -1.5268    1.5885    4.1601 H   0  0  0  0  0  0  0  0  0  0  0  0
    0.2072    1.2358    4.0566 H   0  0  0  0  0  0  0  0  0  0  0  0
  5  6  2  0  0  0  0
  5  7  1  0  0  0  0
  2  3  1  0  0  0  0
  2  4  1  0  0  0  0
  2  5  1  0  0  0  0
  1  2  1  0  0  0  0
 23 24  2  0  0  0  0
 23 25  1  0  0  0  0
 21 22  1  0  0  0  0
 19 20  1  0  0  0  0
 19 21  1  0  0  0  0
 17 18  1  0  0  0  0
 17 19  1  0  0  0  0
 15 16  1  0  0  0  0
 15 17  2  0  0  0  0
 14 15  1  0  0  0  0
 14 21  2  0  0  0  0
 11 12  1  0  0  0  0
 11 13  1  0  0  0  0
 11 14  1  0  0  0  0
  9 10  1  0  0  0  0
  9 11  1  0  0  0  0
  9 23  1  0  0  0  0
  7  8  1  0  0  0  0
  7  9  1  0  0  0  0
 27 28  1  0  0  0  0
 27 29  1  0  0  0  0
 27 30  1  0  0  0  0
 25 26  1  0  0  0  0
 25 27  1  0  0  0  0
M  CHG  1  15   1
M  END
$$$$
default_name
  -OEChem-02102213163D

 30 30  0     1  0  0  0  0  0999 V2000
   -3.5507   -3.2183    1.8116 H   0  0  0  0  0  0  0  0  0  0  0  0
   -3.4597   -2.3913    1.1076 C   0  0  0  0  0  0  0  0  0  0  0  0
   -4.1577   -1.6043    1.3866 H   0  0  0  0  0  0  0  0  0  0  0  0
   -3.6807   -2.7523    0.1036 H   0  0  0  0  0  0  0  0  0  0  0  0
   -2.0477   -1.8543    1.1546 C   0  0  0  0  0  0  0  0  0  0  0  0
   -1.2227   -2.3443    1.9146 O   0  0  0  0  0  0  0  0  0  0  0  0
   -1.7517   -0.8483    0.3266 N   0  0  0  0  0  0  0  0  0  0  0  0
   -2.4847   -0.5123   -0.2804 H   0  0  0  0  0  0  0  0  0  0  0  0
   -0.4117   -0.2463    0.2186 C   0  0  1  0  0  0  0  0  0  0  0  0
    0.2987   -1.0391   -0.0285 H   0  0  0  0  0  0  0  0  0  0  0  0
   -0.4131    0.7505   -0.9636 C   0  0  0  0  0  0  0  0  0  0  0  0
   -1.3181    0.5885   -1.5546 H   0  0  0  0  0  0  0  0  0  0  0  0
   -0.4651    1.7678   -0.5700 H   0  0  0  0  0  0  0  0  0  0  0  0
    0.7879    0.6620   -1.8814 C   0  0  0  0  0  0  0  0  0  0  0  0
    1.0063   -0.3307   -2.8170 N   0  3  0  0  0  0  0  0  0  0  0  0
    0.3316   -1.0738   -3.0204 H   0  0  0  0  0  0  0  0  0  0  0  0
    2.1740   -0.0781   -3.4409 C   0  0  0  0  0  0  0  0  0  0  0  0
    2.6051   -0.6808   -4.2377 H   0  0  0  0  0  0  0  0  0  0  0  0
    2.7019    1.0529   -2.9207 N   0  0  0  0  0  0  0  0  0  0  0  0
    3.5780    1.4863   -3.2004 H   0  0  0  0  0  0  0  0  0  0  0  0
    1.8440    1.5306   -1.9397 C   0  0  0  0  0  0  0  0  0  0  0  0
    1.9756    2.4209   -1.3310 H   0  0  0  0  0  0  0  0  0  0  0  0
    0.0470    0.3465    1.5629 C   0  0  0  0  0  0  0  0  0  0  0  0
    1.1854    0.1365    1.9846 O   0  0  0  0  0  0  0  0  0  0  0  0
   -0.8551    1.0750    2.2320 N   0  0  0  0  0  0  0  0  0  0  0  0
   -1.7594    1.2031    1.8040 H   0  0  0  0  0  0  0  0  0  0  0  0
   -0.6356    1.6998    3.5400 C   0  0  0  0  0  0  0  0  0  0  0  0
   -0.4284    2.7647    3.4168 H   0  0  0  0  0  0  0  0  0  0  0  0
   -1.5268    1.5885    4.1601 H   0  0  0  0  0  0  0  0  0  0  0  0
    0.2072    1.2358    4.0566 H   0  0  0  0  0  0  0  0  0  0  0  0
  5  6  2  0  0  0  0
  5  7  1  0  0  0  0
  2  3  1  0  0  0  0
  2  4  1  0  0  0  0
  2  5  1  0  0  0  0
  1  2  1  0  0  0  0
 23 24  2  0  0  0  0
 23 25  1  0  0  0  0
 21 22  1  0  0  0  0
 19 20  1  0  0  0  0
 19 21  1  0  0  0  0
 17 18  1  0  0  0  0
 17 19  1  0  0  0  0
 15 16  1  0  0  0  0
 15 17  2  0  0  0  0
 14 15  1  0  0  0  0
 14 21  2  0  0  0  0
 11 12  1  0  0  0  0
 11 13  1  0  0  0  0
 11 14  1  0  0  0  0
  9 10  1  0  0  0  0
  9 11  1  0  0  0  0
  9 23  1  0  0  0  0
  7  8  1  0  0  0  0
  7  9  1  0  0  0  0
 27 28  1  0  0  0  0
 27 29  1  0  0  0  0
 27 30  1  0  0  0  0
 25 26  1  0  0  0  0
 25 27  1  0  0  0  0
M  CHG  1  15   1
M  END
$$$$
default_name
  -OEChem-02102213163D

 30 30  0     1  0  0  0  0  0999 V2000
   -3.5507   -3.2183    1.8116 H   0  0  0  0  0  0  0  0  0  0  0  0
   -3.4597   -2.3913    1.1076 C   0  0  0  0  0  0  0  0  0  0  0  0
   -4.1577   -1.6043    1.3866 H   0  0  0  0  0  0  0  0  0  0  0  0
   -3.6807   -2.7523    0.1036 H   0  0  0  0  0  0  0  0  0  0  0  0
   -2.0477   -1.8543    1.1546 C   0  0  0  0  0  0  0  0  0  0  0  0
   -1.2227   -2.3443    1.9146 O   0  0  0  0  0  0  0  0  0  0  0  0
   -1.7517   -0.8483    0.3266 N   0  0  0  0  0  0  0  0  0  0  0  0
   -2.4847   -0.5123   -0.2804 H   0  0  0  0  0  0  0  0  0  0  0  0
   -0.4117   -0.2463    0.2186 C   0  0  1  0  0  0  0  0  0  0  0  0
    0.2987   -1.0391   -0.0285 H   0  0  0  0  0  0  0  0  0  0  0  0
   -0.4131    0.7505   -0.9636 C   0  0  0  0  0  0  0  0  0  0  0  0
   -1.3181    0.5885   -1.5546 H   0  0  0  0  0  0  0  0  0  0  0  0
   -0.4651    1.7678   -0.5700 H   0  0  0  0  0  0  0  0  0  0  0  0
    0.7879    0.6620   -1.8814 C   0  0  0  0  0  0  0  0  0  0  0  0
    0.8789   -0.1407   -3.0021 N   0  3  0  0  0  0  0  0  0  0  0  0
    0.1037   -0.7101   -3.3537 H   0  0  0  0  0  0  0  0  0  0  0  0
    2.0907    0.0456   -3.5618 C   0  0  0  0  0  0  0  0  0  0  0  0
    2.4479   -0.4423   -4.4665 H   0  0  0  0  0  0  0  0  0  0  0  0
    2.7712    0.9484   -2.8200 N   0  0  0  0  0  0  0  0  0  0  0  0
    3.7123    1.2854   -3.0053 H   0  0  0  0  0  0  0  0  0  0  0  0
    1.9674    1.3457   -1.7604 C   0  0  0  0  0  0  0  0  0  0  0  0
    2.2164    2.0606   -0.9811 H   0  0  0  0  0  0  0  0  0  0  0  0
    0.0470    0.3465    1.5629 C   0  0  0  0  0  0  0  0  0  0  0  0
    1.1854    0.1365    1.9846 O   0  0  0  0  0  0  0  0  0  0  0  0
   -0.8551    1.0750    2.2320 N   0  0  0  0  0  0  0  0  0  0  0  0
   -1.7594    1.2031    1.8040 H   0  0  0  0  0  0  0  0  0  0  0  0
   -0.6356    1.6998    3.5400 C   0  0  0  0  0  0  0  0  0  0  0  0
   -0.4284    2.7647    3.4168 H   0  0  0  0  0  0  0  0  0  0  0  0
   -1.5268    1.5885    4.1601 H   0  0  0  0  0  0  0  0  0  0  0  0
    0.2072    1.2358    4.0566 H   0  0  0  0  0  0  0  0  0  0  0  0
  5  6  2  0  0  0  0
  5  7  1  0  0  0  0
  2  3  1  0  0  0  0
  2  4  1  0  0  0  0
  2  5  1  0  0  0  0
  1  2  1  0  0  0  0
 23 24  2  0  0  0  0
 23 25  1  0  0  0  0
 21 22  1  0  0  0  0
 19 20  1  0  0  0  0
 19 21  1  0  0  0  0
 17 18  1  0  0  0  0
 17 19  1  0  0  0  0
 15 16  1  0  0  0  0
 15 17  2  0  0  0  0
 14 15  1  0  0  0  0
 14 21  2  0  0  0  0
 11 12  1  0  0  0  0
 11 13  1  0  0  0  0
 11 14  1  0  0  0  0
  9 10  1  0  0  0  0
  9 11  1  0  0  0  0
  9 23  1  0  0  0  0
  7  8  1  0  0  0  0
  7  9  1  0  0  0  0
 27 28  1  0  0  0  0
 27 29  1  0  0  0  0
 27 30  1  0  0  0  0
 25 26  1  0  0  0  0
 25 27  1  0  0  0  0
M  CHG  1  15   1
M  END
$$$$
default_name
  -OEChem-02102213163D

 30 30  0     1  0  0  0  0  0999 V2000
   -3.5507   -3.2183    1.8116 H   0  0  0  0  0  0  0  0  0  0  0  0
   -3.4597   -2.3913    1.1076 C   0  0  0  0  0  0  0  0  0  0  0  0
   -4.1577   -1.6043    1.3866 H   0  0  0  0  0  0  0  0  0  0  0  0
   -3.6807   -2.7523    0.1036 H   0  0  0  0  0  0  0  0  0  0  0  0
   -2.0477   -1.8543    1.1546 C   0  0  0  0  0  0  0  0  0  0  0  0
   -1.2227   -2.3443    1.9146 O   0  0  0  0  0  0  0  0  0  0  0  0
   -1.7517   -0.8483    0.3266 N   0  0  0  0  0  0  0  0  0  0  0  0
   -2.4847   -0.5123   -0.2804 H   0  0  0  0  0  0  0  0  0  0  0  0
   -0.4117   -0.2463    0.2186 C   0  0  1  0  0  0  0  0  0  0  0  0
    0.2987   -1.0391   -0.0285 H   0  0  0  0  0  0  0  0  0  0  0  0
   -0.4131    0.7505   -0.9636 C   0  0  0  0  0  0  0  0  0  0  0  0
   -1.3181    0.5885   -1.5546 H   0  0  0  0  0  0  0  0  0  0  0  0
   -0.4651    1.7678   -0.5700 H   0  0  0  0  0  0  0  0  0  0  0  0
    0.7879    0.6620   -1.8814 C   0  0  0  0  0  0  0  0  0  0  0  0
    0.7884    0.1009   -3.1438 N   0  3  0  0  0  0  0  0  0  0  0  0
   -0.0543   -0.2546   -3.6044 H   0  0  0  0  0  0  0  0  0  0  0  0
    2.0315    0.2031   -3.6545 C   0  0  0  0  0  0  0  0  0  0  0  0
    2.3369   -0.1403   -4.6409 H   0  0  0  0  0  0  0  0  0  0  0  0
    2.8202    0.8159   -2.7431 N   0  0  0  0  0  0  0  0  0  0  0  0
    3.8076    1.0301   -2.8560 H   0  0  0  0  0  0  0  0  0  0  0  0
    2.0549    1.1108   -1.6233 C   0  0  0  0  0  0  0  0  0  0  0  0
    2.3872    1.6030   -0.7135 H   0  0  0  0  0  0  0  0  0  0  0  0
    0.0470    0.3465    1.5629 C   0  0  0  0  0  0  0  0  0  0  0  0
    1.1854    0.1365    1.9846 O   0  0  0  0  0  0  0  0  0  0  0  0
   -0.8551    1.0750    2.2320 N   0  0  0  0  0  0  0  0  0  0  0  0
   -1.7594    1.2031    1.8040 H   0  0  0  0  0  0  0  0  0  0  0  0
   -0.6356    1.6998    3.5400 C   0  0  0  0  0  0  0  0  0  0  0  0
   -0.4284    2.7647    3.4168 H   0  0  0  0  0  0  0  0  0  0  0  0
   -1.5268    1.5885    4.1601 H   0  0  0  0  0  0  0  0  0  0  0  0
    0.2072    1.2358    4.0566 H   0  0  0  0  0  0  0  0  0  0  0  0
  5  6  2  0  0  0  0
  5  7  1  0  0  0  0
  2  3  1  0  0  0  0
  2  4  1  0  0  0  0
  2  5  1  0  0  0  0
  1  2  1  0  0  0  0
 23 24  2  0  0  0  0
 23 25  1  0  0  0  0
 21 22  1  0  0  0  0
 19 20  1  0  0  0  0
 19 21  1  0  0  0  0
 17 18  1  0  0  0  0
 17 19  1  0  0  0  0
 15 16  1  0  0  0  0
 15 17  2  0  0  0  0
 14 15  1  0  0  0  0
 14 21  2  0  0  0  0
 11 12  1  0  0  0  0
 11 13  1  0  0  0  0
 11 14  1  0  0  0  0
  9 10  1  0  0  0  0
  9 11  1  0  0  0  0
  9 23  1  0  0  0  0
  7  8  1  0  0  0  0
  7  9  1  0  0  0  0
 27 28  1  0  0  0  0
 27 29  1  0  0  0  0
 27 30  1  0  0  0  0
 25 26  1  0  0  0  0
 25 27  1  0  0  0  0
M  CHG  1  15   1
M  END
$$$$
default_name
  -OEChem-02102213163D

 30 30  0     1  0  0  0  0  0999 V2000
   -3.5507   -3.2183    1.8116 H   0  0  0  0  0  0  0  0  0  0  0  0
   -3.4597   -2.3913    1.1076 C   0  0  0  0  0  0  0  0  0  0  0  0
   -4.1577   -1.6043    1.3866 H   0  0  0  0  0  0  0  0  0  0  0  0
   -3.6807   -2.7523    0.1036 H   0  0  0  0  0  0  0  0  0  0  0  0
   -2.0477   -1.8543    1.1546 C   0  0  0  0  0  0  0  0  0  0  0  0
   -1.2227   -2.3443    1.9146 O   0  0  0  0  0  0  0  0  0  0  0  0
   -1.7517   -0.8483    0.3266 N   0  0  0  0  0  0  0  0  0  0  0  0
   -2.4847   -0.5123   -0.2804 H   0  0  0  0  0  0  0  0  0  0  0  0
   -0.4117   -0.2463    0.2186 C   0  0  1  0  0  0  0  0  0  0  0  0
    0.2987   -1.0391   -0.0285 H   0  0  0  0  0  0  0  0  0  0  0  0
   -0.4131    0.7505   -0.9636 C   0  0  0  0  0  0  0  0  0  0  0  0
   -1.3181    0.5885   -1.5546 H   0  0  0  0  0  0  0  0  0  0  0  0
   -0.4651    1.7678   -0.5700 H   0  0  0  0  0  0  0  0  0  0  0  0
    0.7879    0.6620   -1.8814 C   0  0  0  0  0  0  0  0  0  0  0  0
    0.7410    0.3775   -3.2324 N   0  3  0  0  0  0  0  0  0  0  0  0
   -0.1317    0.2616   -3.7555 H   0  0  0  0  0  0  0  0  0  0  0  0
    2.0004    0.3834   -3.7126 C   0  0  0  0  0  0  0  0  0  0  0  0
    2.2797    0.2047   -4.7490 H   0  0  0  0  0  0  0  0  0  0  0  0
    2.8456    0.6645   -2.6953 N   0  0  0  0  0  0  0  0  0  0  0  0
    3.8573    0.7380   -2.7627 H   0  0  0  0  0  0  0  0  0  0  0  0
    2.1005    0.8421   -1.5378 C   0  0  0  0  0  0  0  0  0  0  0  0
    2.4764    1.0792   -0.5463 H   0  0  0  0  0  0  0  0  0  0  0  0
    0.0470    0.3465    1.5629 C   0  0  0  0  0  0  0  0  0  0  0  0
    1.1854    0.1365    1.9846 O   0  0  0  0  0  0  0  0  0  0  0  0
   -0.8551    1.0750    2.2320 N   0  0  0  0  0  0  0  0  0  0  0  0
   -1.7594    1.2031    1.8040 H   0  0  0  0  0  0  0  0  0  0  0  0
   -0.6356    1.6998    3.5400 C   0  0  0  0  0  0  0  0  0  0  0  0
   -0.4284    2.7647    3.4168 H   0  0  0  0  0  0  0  0  0  0  0  0
   -1.5268    1.5885    4.1601 H   0  0  0  0  0  0  0  0  0  0  0  0
    0.2072    1.2358    4.0566 H   0  0  0  0  0  0  0  0  0  0  0  0
  5  6  2  0  0  0  0
  5  7  1  0  0  0  0
  2  3  1  0  0  0  0
  2  4  1  0  0  0  0
  2  5  1  0  0  0  0
  1  2  1  0  0  0  0
 23 24  2  0  0  0  0
 23 25  1  0  0  0  0
 21 22  1  0  0  0  0
 19 20  1  0  0  0  0
 19 21  1  0  0  0  0
 17 18  1  0  0  0  0
 17 19  1  0  0  0  0
 15 16  1  0  0  0  0
 15 17  2  0  0  0  0
 14 15  1  0  0  0  0
 14 21  2  0  0  0  0
 11 12  1  0  0  0  0
 11 13  1  0  0  0  0
 11 14  1  0  0  0  0
  9 10  1  0  0  0  0
  9 11  1  0  0  0  0
  9 23  1  0  0  0  0
  7  8  1  0  0  0  0
  7  9  1  0  0  0  0
 27 28  1  0  0  0  0
 27 29  1  0  0  0  0
 27 30  1  0  0  0  0
 25 26  1  0  0  0  0
 25 27  1  0  0  0  0
M  CHG  1  15   1
M  END
$$$$
default_name
  -OEChem-02102213163D

 30 30  0     1  0  0  0  0  0999 V2000
   -3.5507   -3.2183    1.8116 H   0  0  0  0  0  0  0  0  0  0  0  0
   -3.4597   -2.3913    1.1076 C   0  0  0  0  0  0  0  0  0  0  0  0
   -4.1577   -1.6043    1.3866 H   0  0  0  0  0  0  0  0  0  0  0  0
   -3.6807   -2.7523    0.1036 H   0  0  0  0  0  0  0  0  0  0  0  0
   -2.0477   -1.8543    1.1546 C   0  0  0  0  0  0  0  0  0  0  0  0
   -1.2227   -2.3443    1.9146 O   0  0  0  0  0  0  0  0  0  0  0  0
   -1.7517   -0.8483    0.3266 N   0  0  0  0  0  0  0  0  0  0  0  0
   -2.4847   -0.5123   -0.2804 H   0  0  0  0  0  0  0  0  0  0  0  0
   -0.4117   -0.2463    0.2186 C   0  0  1  0  0  0  0  0  0  0  0  0
    0.2987   -1.0391   -0.0285 H   0  0  0  0  0  0  0  0  0  0  0  0
   -0.4131    0.7505   -0.9636 C   0  0  0  0  0  0  0  0  0  0  0  0
   -1.3181    0.5885   -1.5546 H   0  0  0  0  0  0  0  0  0  0  0  0
   -0.4651    1.7678   -0.5700 H   0  0  0  0  0  0  0  0  0  0  0  0
    0.7879    0.6620   -1.8814 C   0  0  0  0  0  0  0  0  0  0  0  0
    0.7400    0.6703   -3.2620 N   0  3  0  0  0  0  0  0  0  0  0  0
   -0.1232    0.8035   -3.7966 H   0  0  0  0  0  0  0  0  0  0  0  0
    1.9995    0.5745   -3.7322 C   0  0  0  0  0  0  0  0  0  0  0  0
    2.2802    0.5690   -4.7835 H   0  0  0  0  0  0  0  0  0  0  0  0
    2.8456    0.5044   -2.6798 N   0  0  0  0  0  0  0  0  0  0  0  0
    3.8581    0.4289   -2.7319 H   0  0  0  0  0  0  0  0  0  0  0  0
    2.1010    0.5579   -1.5096 C   0  0  0  0  0  0  0  0  0  0  0  0
    2.4778    0.5250   -0.4910 H   0  0  0  0  0  0  0  0  0  0  0  0
    0.0470    0.3465    1.5629 C   0  0  0  0  0  0  0  0  0  0  0  0
    1.1854    0.1365    1.9846 O   0  0  0  0  0  0  0  0  0  0  0  0
   -0.8551    1.0750    2.2320 N   0  0  0  0  0  0  0  0  0  0  0  0
   -1.7594    1.2031    1.8040 H   0  0  0  0  0  0  0  0  0  0  0  0
   -0.6356    1.6998    3.5400 C   0  0  0  0  0  0  0  0  0  0  0  0
   -0.4284    2.7647    3.4168 H   0  0  0  0  0  0  0  0  0  0  0  0
   -1.5268    1.5885    4.1601 H   0  0  0  0  0  0  0  0  0  0  0  0
    0.2072    1.2358    4.0566 H   0  0  0  0  0  0  0  0  0  0  0  0
  5  6  2  0  0  0  0
  5  7  1  0  0  0  0
  2  3  1  0  0  0  0
  2  4  1  0  0  0  0
  2  5  1  0  0  0  0
  1  2  1  0  0  0  0
 23 24  2  0  0  0  0
 23 25  1  0  0  0  0
 21 22  1  0  0  0  0
 19 20  1  0  0  0  0
 19 21  1  0  0  0  0
 17 18  1  0  0  0  0
 17 19  1  0  0  0  0
 15 16  1  0  0  0  0
 15 17  2  0  0  0  0
 14 15  1  0  0  0  0
 14 21  2  0  0  0  0
 11 12  1  0  0  0  0
 11 13  1  0  0  0  0
 11 14  1  0  0  0  0
  9 10  1  0  0  0  0
  9 11  1  0  0  0  0
  9 23  1  0  0  0  0
  7  8  1  0  0  0  0
  7  9  1  0  0  0  0
 27 28  1  0  0  0  0
 27 29  1  0  0  0  0
 27 30  1  0  0  0  0
 25 26  1  0  0  0  0
 25 27  1  0  0  0  0
M  CHG  1  15   1
M  END
$$$$
default_name
  -OEChem-02102213163D

 30 30  0     1  0  0  0  0  0999 V2000
   -3.5507   -3.2183    1.8116 H   0  0  0  0  0  0  0  0  0  0  0  0
   -3.4597   -2.3913    1.1076 C   0  0  0  0  0  0  0  0  0  0  0  0
   -4.1577   -1.6043    1.3866 H   0  0  0  0  0  0  0  0  0  0  0  0
   -3.6807   -2.7523    0.1036 H   0  0  0  0  0  0  0  0  0  0  0  0
   -2.0477   -1.8543    1.1546 C   0  0  0  0  0  0  0  0  0  0  0  0
   -1.2227   -2.3443    1.9146 O   0  0  0  0  0  0  0  0  0  0  0  0
   -1.7517   -0.8483    0.3266 N   0  0  0  0  0  0  0  0  0  0  0  0
   -2.4847   -0.5123   -0.2804 H   0  0  0  0  0  0  0  0  0  0  0  0
   -0.4117   -0.2463    0.2186 C   0  0  1  0  0  0  0  0  0  0  0  0
    0.2987   -1.0391   -0.0285 H   0  0  0  0  0  0  0  0  0  0  0  0
   -0.4131    0.7505   -0.9636 C   0  0  0  0  0  0  0  0  0  0  0  0
   -1.3181    0.5885   -1.5546 H   0  0  0  0  0  0  0  0  0  0  0  0
   -0.4651    1.7678   -0.5700 H   0  0  0  0  0  0  0  0  0  0  0  0
    0.7879    0.6620   -1.8814 C   0  0  0  0  0  0  0  0  0  0  0  0
    0.7854    0.9593   -3.2305 N   0  3  0  0  0  0  0  0  0  0  0  0
   -0.0294    1.3339   -3.7250 H   0  0  0  0  0  0  0  0  0  0  0  0
    2.0289    0.7632   -3.7119 C   0  0  0  0  0  0  0  0  0  0  0  0
    2.3383    0.9280   -4.7420 H   0  0  0  0  0  0  0  0  0  0  0  0
    2.8203    0.3466   -2.6977 N   0  0  0  0  0  0  0  0  0  0  0  0
    3.8099    0.1238   -2.7655 H   0  0  0  0  0  0  0  0  0  0  0  0
    2.0566    0.2775   -1.5408 C   0  0  0  0  0  0  0  0  0  0  0  0
    2.3913   -0.0219   -0.5514 H   0  0  0  0  0  0  0  0  0  0  0  0
    0.0470    0.3465    1.5629 C   0  0  0  0  0  0  0  0  0  0  0  0
    1.1854    0.1365    1.9846 O   0  0  0  0  0  0  0  0  0  0  0  0
   -0.8551    1.0750    2.2320 N   0  0  0  0  0  0  0  0  0  0  0  0
   -1.7594    1.2031    1.8040 H   0  0  0  0  0  0  0  0  0  0  0  0
   -0.6356    1.6998    3.5400 C   0  0  0  0  0  0  0  0  0  0  0  0
   -0.4284    2.7647    3.4168 H   0  0  0  0  0  0  0  0  0  0  0  0
   -1.5268    1.5885    4.1601 H   0  0  0  0  0  0  0  0  0  0  0  0
    0.2072    1.2358    4.0566 H   0  0  0  0  0  0  0  0  0  0  0  0
  5  6  2  0  0  0  0
  5  7  1  0  0  0  0
  2  3  1  0  0  0  0
  2  4  1  0  0  0  0
  2  5  1  0  0  0  0
  1  2  1  0  0  0  0
 23 24  2  0  0  0  0
 23 25  1  0  0  0  0
 21 22  1  0  0  0  0
 19 20  1  0  0  0  0
 19 21  1  0  0  0  0
 17 18  1  0  0  0  0
 17 19  1  0  0  0  0
 15 16  1  0  0  0  0
 15 17  2  0  0  0  0
 14 15  1  0  0  0  0
 14 21  2  0  0  0  0
 11 12  1  0  0  0  0
 11 13  1  0  0  0  0
 11 14  1  0  0  0  0
  9 10  1  0  0  0  0
  9 11  1  0  0  0  0
  9 23  1  0  0  0  0
  7  8  1  0  0  0  0
  7  9  1  0  0  0  0
 27 28  1  0  0  0  0
 27 29  1  0  0  0  0
 27 30  1  0  0  0  0
 25 26  1  0  0  0  0
 25 27  1  0  0  0  0
M  CHG  1  15   1
M  END
$$$$
default_name
  -OEChem-02102213163D

 30 30  0     1  0  0  0  0  0999 V2000
   -3.5507   -3.2183    1.8116 H   0  0  0  0  0  0  0  0  0  0  0  0
   -3.4597   -2.3913    1.1076 C   0  0  0  0  0  0  0  0  0  0  0  0
   -4.1577   -1.6043    1.3866 H   0  0  0  0  0  0  0  0  0  0  0  0
   -3.6807   -2.7523    0.1036 H   0  0  0  0  0  0  0  0  0  0  0  0
   -2.0477   -1.8543    1.1546 C   0  0  0  0  0  0  0  0  0  0  0  0
   -1.2227   -2.3443    1.9146 O   0  0  0  0  0  0  0  0  0  0  0  0
   -1.7517   -0.8483    0.3266 N   0  0  0  0  0  0  0  0  0  0  0  0
   -2.4847   -0.5123   -0.2804 H   0  0  0  0  0  0  0  0  0  0  0  0
   -0.4117   -0.2463    0.2186 C   0  0  1  0  0  0  0  0  0  0  0  0
    0.2987   -1.0391   -0.0285 H   0  0  0  0  0  0  0  0  0  0  0  0
   -0.4131    0.7505   -0.9636 C   0  0  0  0  0  0  0  0  0  0  0  0
   -1.3181    0.5885   -1.5546 H   0  0  0  0  0  0  0  0  0  0  0  0
   -0.4651    1.7678   -0.5700 H   0  0  0  0  0  0  0  0  0  0  0  0
    0.7879    0.6620   -1.8814 C   0  0  0  0  0  0  0  0  0  0  0  0
    0.8741    1.2250   -3.1400 N   0  3  0  0  0  0  0  0  0  0  0  0
    0.1434    1.8168   -3.5455 H   0  0  0  0  0  0  0  0  0  0  0  0
    2.0866    0.9366   -3.6531 C   0  0  0  0  0  0  0  0  0  0  0  0
    2.4502    1.2571   -4.6273 H   0  0  0  0  0  0  0  0  0  0  0  0
    2.7714    0.2018   -2.7477 N   0  0  0  0  0  0  0  0  0  0  0  0
    3.7160   -0.1563   -2.8614 H   0  0  0  0  0  0  0  0  0  0  0  0
    1.9701    0.0199   -1.6291 C   0  0  0  0  0  0  0  0  0  0  0  0
    2.2230   -0.5242   -0.7233 H   0  0  0  0  0  0  0  0  0  0  0  0
    0.0470    0.3465    1.5629 C   0  0  0  0  0  0  0  0  0  0  0  0
    1.1854    0.1365    1.9846 O   0  0  0  0  0  0  0  0  0  0  0  0
   -0.8551    1.0750    2.2320 N   0  0  0  0  0  0  0  0  0  0  0  0
   -1.7594    1.2031    1.8040 H   0  0  0  0  0  0  0  0  0  0  0  0
   -0.6356    1.6998    3.5400 C   0  0  0  0  0  0  0  0  0  0  0  0
   -0.4284    2.7647    3.4168 H   0  0  0  0  0  0  0  0  0  0  0  0
   -1.5268    1.5885    4.1601 H   0  0  0  0  0  0  0  0  0  0  0  0
    0.2072    1.2358    4.0566 H   0  0  0  0  0  0  0  0  0  0  0  0
  5  6  2  0  0  0  0
  5  7  1  0  0  0  0
  2  3  1  0  0  0  0
  2  4  1  0  0  0  0
  2  5  1  0  0  0  0
  1  2  1  0  0  0  0
 23 24  2  0  0  0  0
 23 25  1  0  0  0  0
 21 22  1  0  0  0  0
 19 20  1  0  0  0  0
 19 21  1  0  0  0  0
 17 18  1  0  0  0  0
 17 19  1  0  0  0  0
 15 16  1  0  0  0  0
 15 17  2  0  0  0  0
 14 15  1  0  0  0  0
 14 21  2  0  0  0  0
 11 12  1  0  0  0  0
 11 13  1  0  0  0  0
 11 14  1  0  0  0  0
  9 10  1  0  0  0  0
  9 11  1  0  0  0  0
  9 23  1  0  0  0  0
  7  8  1  0  0  0  0
  7  9  1  0  0  0  0
 27 28  1  0  0  0  0
 27 29  1  0  0  0  0
 27 30  1  0  0  0  0
 25 26  1  0  0  0  0
 25 27  1  0  0  0  0
M  CHG  1  15   1
M  END
$$$$
default_name
  -OEChem-02102213163D

 30 30  0     1  0  0  0  0  0999 V2000
   -3.5507   -3.2183    1.8116 H   0  0  0  0  0  0  0  0  0  0  0  0
   -3.4597   -2.3913    1.1076 C   0  0  0  0  0  0  0  0  0  0  0  0
   -4.1577   -1.6043    1.3866 H   0  0  0  0  0  0  0  0  0  0  0  0
   -3.6807   -2.7523    0.1036 H   0  0  0  0  0  0  0  0  0  0  0  0
   -2.0477   -1.8543    1.1546 C   0  0  0  0  0  0  0  0  0  0  0  0
   -1.2227   -2.3443    1.9146 O   0  0  0  0  0  0  0  0  0  0  0  0
   -1.7517   -0.8483    0.3266 N   0  0  0  0  0  0  0  0  0  0  0  0
   -2.4847   -0.5123   -0.2804 H   0  0  0  0  0  0  0  0  0  0  0  0
   -0.4117   -0.2463    0.2186 C   0  0  1  0  0  0  0  0  0  0  0  0
    0.2987   -1.0391   -0.0285 H   0  0  0  0  0  0  0  0  0  0  0  0
   -0.4131    0.7505   -0.9636 C   0  0  0  0  0  0  0  0  0  0  0  0
   -1.4179    0.7806   -1.3925 H   0  0  0  0  0  0  0  0  0  0  0  0
   -0.1963    1.7514   -0.5842 H   0  0  0  0  0  0  0  0  0  0  0  0
    0.5763    0.4413   -2.0672 C   0  0  0  0  0  0  0  0  0  0  0  0
    0.7510    1.1891   -3.2155 N   0  3  0  0  0  0  0  0  0  0  0  0
    0.2620    2.0707   -3.3955 H   0  0  0  0  0  0  0  0  0  0  0  0
    1.7134    0.6085   -3.9593 C   0  0  0  0  0  0  0  0  0  0  0  0
    2.0790    0.9780   -4.9153 H   0  0  0  0  0  0  0  0  0  0  0  0
    2.1525   -0.4923   -3.3084 N   0  0  0  0  0  0  0  0  0  0  0  0
    2.8786   -1.1266   -3.6309 H   0  0  0  0  0  0  0  0  0  0  0  0
    1.4487   -0.6122   -2.1181 C   0  0  0  0  0  0  0  0  0  0  0  0
    1.5612   -1.3877   -1.3655 H   0  0  0  0  0  0  0  0  0  0  0  0
    0.0470    0.3465    1.5629 C   0  0  0  0  0  0  0  0  0  0  0  0
    1.1854    0.1365    1.9846 O   0  0  0  0  0  0  0  0  0  0  0  0
   -0.8551    1.0750    2.2320 N   0  0  0  0  0  0  0  0  0  0  0  0
   -1.7594    1.2031    1.8040 H   0  0  0  0  0  0  0  0  0  0  0  0
   -0.6356    1.6998    3.5400 C   0  0  0  0  0  0  0  0  0  0  0  0
   -0.4284    2.7647    3.4168 H   0  0  0  0  0  0  0  0  0  0  0  0
   -1.5268    1.5885    4.1601 H   0  0  0  0  0  0  0  0  0  0  0  0
    0.2072    1.2358    4.0566 H   0  0  0  0  0  0  0  0  0  0  0  0
  5  6  2  0  0  0  0
  5  7  1  0  0  0  0
  2  3  1  0  0  0  0
  2  4  1  0  0  0  0
  2  5  1  0  0  0  0
  1  2  1  0  0  0  0
 23 24  2  0  0  0  0
 23 25  1  0  0  0  0
 21 22  1  0  0  0  0
 19 20  1  0  0  0  0
 19 21  1  0  0  0  0
 17 18  1  0  0  0  0
 17 19  1  0  0  0  0
 15 16  1  0  0  0  0
 15 17  2  0  0  0  0
 14 15  1  0  0  0  0
 14 21  2  0  0  0  0
 11 12  1  0  0  0  0
 11 13  1  0  0  0  0
 11 14  1  0  0  0  0
  9 10  1  0  0  0  0
  9 11  1  0  0  0  0
  9 23  1  0  0  0  0
  7  8  1  0  0  0  0
  7  9  1  0  0  0  0
 27 28  1  0  0  0  0
 27 29  1  0  0  0  0
 27 30  1  0  0  0  0
 25 26  1  0  0  0  0
 25 27  1  0  0  0  0
M  CHG  1  15   1
M  END
$$$$
default_name
  -OEChem-02102213163D

 30 30  0     1  0  0  0  0  0999 V2000
   -3.5507   -3.2183    1.8116 H   0  0  0  0  0  0  0  0  0  0  0  0
   -3.4597   -2.3913    1.1076 C   0  0  0  0  0  0  0  0  0  0  0  0
   -4.1577   -1.6043    1.3866 H   0  0  0  0  0  0  0  0  0  0  0  0
   -3.6807   -2.7523    0.1036 H   0  0  0  0  0  0  0  0  0  0  0  0
   -2.0477   -1.8543    1.1546 C   0  0  0  0  0  0  0  0  0  0  0  0
   -1.2227   -2.3443    1.9146 O   0  0  0  0  0  0  0  0  0  0  0  0
   -1.7517   -0.8483    0.3266 N   0  0  0  0  0  0  0  0  0  0  0  0
   -2.4847   -0.5123   -0.2804 H   0  0  0  0  0  0  0  0  0  0  0  0
   -0.4117   -0.2463    0.2186 C   0  0  1  0  0  0  0  0  0  0  0  0
    0.2987   -1.0391   -0.0285 H   0  0  0  0  0  0  0  0  0  0  0  0
   -0.4131    0.7505   -0.9636 C   0  0  0  0  0  0  0  0  0  0  0  0
   -1.4179    0.7806   -1.3925 H   0  0  0  0  0  0  0  0  0  0  0  0
   -0.1963    1.7514   -0.5842 H   0  0  0  0  0  0  0  0  0  0  0  0
    0.5763    0.4413   -2.0672 C   0  0  0  0  0  0  0  0  0  0  0  0
    0.9646    1.3193   -3.0605 N   0  3  0  0  0  0  0  0  0  0  0  0
    0.6599    2.2961   -3.1020 H   0  0  0  0  0  0  0  0  0  0  0  0
    1.8527    0.6938   -3.8583 C   0  0  0  0  0  0  0  0  0  0  0  0
    2.3452    1.1374   -4.7213 H   0  0  0  0  0  0  0  0  0  0  0  0
    2.0356   -0.5628   -3.3935 N   0  0  0  0  0  0  0  0  0  0  0  0
    2.6530   -1.2637   -3.7948 H   0  0  0  0  0  0  0  0  0  0  0  0
    1.2412   -0.7380   -2.2689 C   0  0  0  0  0  0  0  0  0  0  0  0
    1.1568   -1.6334   -1.6592 H   0  0  0  0  0  0  0  0  0  0  0  0
    0.0470    0.3465    1.5629 C   0  0  0  0  0  0  0  0  0  0  0  0
    1.1854    0.1365    1.9846 O   0  0  0  0  0  0  0  0  0  0  0  0
   -0.8551    1.0750    2.2320 N   0  0  0  0  0  0  0  0  0  0  0  0
   -1.7594    1.2031    1.8040 H   0  0  0  0  0  0  0  0  0  0  0  0
   -0.6356    1.6998    3.5400 C   0  0  0  0  0  0  0  0  0  0  0  0
   -0.4284    2.7647    3.4168 H   0  0  0  0  0  0  0  0  0  0  0  0
   -1.5268    1.5885    4.1601 H   0  0  0  0  0  0  0  0  0  0  0  0
    0.2072    1.2358    4.0566 H   0  0  0  0  0  0  0  0  0  0  0  0
  5  6  2  0  0  0  0
  5  7  1  0  0  0  0
  2  3  1  0  0  0  0
  2  4  1  0  0  0  0
  2  5  1  0  0  0  0
  1  2  1  0  0  0  0
 23 24  2  0  0  0  0
 23 25  1  0  0  0  0
 21 22  1  0  0  0  0
 19 20  1  0  0  0  0
 19 21  1  0  0  0  0
 17 18  1  0  0  0  0
 17 19  1  0  0  0  0
 15 16  1  0  0  0  0
 15 17  2  0  0  0  0
 14 15  1  0  0  0  0
 14 21  2  0  0  0  0
 11 12  1  0  0  0  0
 11 13  1  0  0  0  0
 11 14  1  0  0  0  0
  9 10  1  0  0  0  0
  9 11  1  0  0  0  0
  9 23  1  0  0  0  0
  7  8  1  0  0  0  0
  7  9  1  0  0  0  0
 27 28  1  0  0  0  0
 27 29  1  0  0  0  0
 27 30  1  0  0  0  0
 25 26  1  0  0  0  0
 25 27  1  0  0  0  0
M  CHG  1  15   1
M  END
$$$$
default_name
  -OEChem-02102213163D

 30 30  0     1  0  0  0  0  0999 V2000
   -3.5507   -3.2183    1.8116 H   0  0  0  0  0  0  0  0  0  0  0  0
   -3.4597   -2.3913    1.1076 C   0  0  0  0  0  0  0  0  0  0  0  0
   -4.1577   -1.6043    1.3866 H   0  0  0  0  0  0  0  0  0  0  0  0
   -3.6807   -2.7523    0.1036 H   0  0  0  0  0  0  0  0  0  0  0  0
   -2.0477   -1.8543    1.1546 C   0  0  0  0  0  0  0  0  0  0  0  0
   -1.2227   -2.3443    1.9146 O   0  0  0  0  0  0  0  0  0  0  0  0
   -1.7517   -0.8483    0.3266 N   0  0  0  0  0  0  0  0  0  0  0  0
   -2.4847   -0.5123   -0.2804 H   0  0  0  0  0  0  0  0  0  0  0  0
   -0.4117   -0.2463    0.2186 C   0  0  1  0  0  0  0  0  0  0  0  0
    0.2987   -1.0391   -0.0285 H   0  0  0  0  0  0  0  0  0  0  0  0
   -0.4131    0.7505   -0.9636 C   0  0  0  0  0  0  0  0  0  0  0  0
   -1.4179    0.7806   -1.3925 H   0  0  0  0  0  0  0  0  0  0  0  0
   -0.1963    1.7514   -0.5842 H   0  0  0  0  0  0  0  0  0  0  0  0
    0.5763    0.4413   -2.0672 C   0  0  0  0  0  0  0  0  0  0  0  0
    1.1873    1.3786   -2.8774 N   0  3  0  0  0  0  0  0  0  0  0  0
    1.0712    2.3892   -2.7593 H   0  0  0  0  0  0  0  0  0  0  0  0
    1.9980    0.7328   -3.7390 C   0  0  0  0  0  0  0  0  0  0  0  0
    2.6222    1.2084   -4.4928 H   0  0  0  0  0  0  0  0  0  0  0  0
    1.9139   -0.5943   -3.4937 N   0  0  0  0  0  0  0  0  0  0  0  0
    2.4179   -1.3258   -3.9881 H   0  0  0  0  0  0  0  0  0  0  0  0
    1.0250   -0.7949   -2.4467 C   0  0  0  0  0  0  0  0  0  0  0  0
    0.7353   -1.7447   -2.0059 H   0  0  0  0  0  0  0  0  0  0  0  0
    0.0470    0.3465    1.5629 C   0  0  0  0  0  0  0  0  0  0  0  0
    1.1854    0.1365    1.9846 O   0  0  0  0  0  0  0  0  0  0  0  0
   -0.8551    1.0750    2.2320 N   0  0  0  0  0  0  0  0  0  0  0  0
   -1.7594    1.2031    1.8040 H   0  0  0  0  0  0  0  0  0  0  0  0
   -0.6356    1.6998    3.5400 C   0  0  0  0  0  0  0  0  0  0  0  0
   -0.4284    2.7647    3.4168 H   0  0  0  0  0  0  0  0  0  0  0  0
   -1.5268    1.5885    4.1601 H   0  0  0  0  0  0  0  0  0  0  0  0
    0.2072    1.2358    4.0566 H   0  0  0  0  0  0  0  0  0  0  0  0
  5  6  2  0  0  0  0
  5  7  1  0  0  0  0
  2  3  1  0  0  0  0
  2  4  1  0  0  0  0
  2  5  1  0  0  0  0
  1  2  1  0  0  0  0
 23 24  2  0  0  0  0
 23 25  1  0  0  0  0
 21 22  1  0  0  0  0
 19 20  1  0  0  0  0
 19 21  1  0  0  0  0
 17 18  1  0  0  0  0
 17 19  1  0  0  0  0
 15 16  1  0  0  0  0
 15 17  2  0  0  0  0
 14 15  1  0  0  0  0
 14 21  2  0  0  0  0
 11 12  1  0  0  0  0
 11 13  1  0  0  0  0
 11 14  1  0  0  0  0
  9 10  1  0  0  0  0
  9 11  1  0  0  0  0
  9 23  1  0  0  0  0
  7  8  1  0  0  0  0
  7  9  1  0  0  0  0
 27 28  1  0  0  0  0
 27 29  1  0  0  0  0
 27 30  1  0  0  0  0
 25 26  1  0  0  0  0
 25 27  1  0  0  0  0
M  CHG  1  15   1
M  END
$$$$
default_name
  -OEChem-02102213163D

 30 30  0     1  0  0  0  0  0999 V2000
   -3.5507   -3.2183    1.8116 H   0  0  0  0  0  0  0  0  0  0  0  0
   -3.4597   -2.3913    1.1076 C   0  0  0  0  0  0  0  0  0  0  0  0
   -4.1577   -1.6043    1.3866 H   0  0  0  0  0  0  0  0  0  0  0  0
   -3.6807   -2.7523    0.1036 H   0  0  0  0  0  0  0  0  0  0  0  0
   -2.0477   -1.8543    1.1546 C   0  0  0  0  0  0  0  0  0  0  0  0
   -1.2227   -2.3443    1.9146 O   0  0  0  0  0  0  0  0  0  0  0  0
   -1.7517   -0.8483    0.3266 N   0  0  0  0  0  0  0  0  0  0  0  0
   -2.4847   -0.5123   -0.2804 H   0  0  0  0  0  0  0  0  0  0  0  0
   -0.4117   -0.2463    0.2186 C   0  0  1  0  0  0  0  0  0  0  0  0
    0.2987   -1.0391   -0.0285 H   0  0  0  0  0  0  0  0  0  0  0  0
   -0.4131    0.7505   -0.9636 C   0  0  0  0  0  0  0  0  0  0  0  0
   -1.4179    0.7806   -1.3925 H   0  0  0  0  0  0  0  0  0  0  0  0
   -0.1963    1.7514   -0.5842 H   0  0  0  0  0  0  0  0  0  0  0  0
    0.5763    0.4413   -2.0672 C   0  0  0  0  0  0  0  0  0  0  0  0
    1.4039    1.3629   -2.6788 N   0  3  0  0  0  0  0  0  0  0  0  0
    1.4680    2.3435   -2.3907 H   0  0  0  0  0  0  0  0  0  0  0  0
    2.1394    0.7229   -3.6094 C   0  0  0  0  0  0  0  0  0  0  0  0
    2.8911    1.1860   -4.2455 H   0  0  0  0  0  0  0  0  0  0  0  0
    1.7957   -0.5849   -3.6024 N   0  0  0  0  0  0  0  0  0  0  0  0
    2.1893   -1.3088   -4.1978 H   0  0  0  0  0  0  0  0  0  0  0  0
    0.8149   -0.7789   -2.6396 C   0  0  0  0  0  0  0  0  0  0  0  0
    0.3255   -1.7141   -2.3818 H   0  0  0  0  0  0  0  0  0  0  0  0
    0.0470    0.3465    1.5629 C   0  0  0  0  0  0  0  0  0  0  0  0
    1.1854    0.1365    1.9846 O   0  0  0  0  0  0  0  0  0  0  0  0
   -0.8551    1.0750    2.2320 N   0  0  0  0  0  0  0  0  0  0  0  0
   -1.7594    1.2031    1.8040 H   0  0  0  0  0  0  0  0  0  0  0  0
   -0.6356    1.6998    3.5400 C   0  0  0  0  0  0  0  0  0  0  0  0
   -0.4284    2.7647    3.4168 H   0  0  0  0  0  0  0  0  0  0  0  0
   -1.5268    1.5885    4.1601 H   0  0  0  0  0  0  0  0  0  0  0  0
    0.2072    1.2358    4.0566 H   0  0  0  0  0  0  0  0  0  0  0  0
  5  6  2  0  0  0  0
  5  7  1  0  0  0  0
  2  3  1  0  0  0  0
  2  4  1  0  0  0  0
  2  5  1  0  0  0  0
  1  2  1  0  0  0  0
 23 24  2  0  0  0  0
 23 25  1  0  0  0  0
 21 22  1  0  0  0  0
 19 20  1  0  0  0  0
 19 21  1  0  0  0  0
 17 18  1  0  0  0  0
 17 19  1  0  0  0  0
 15 16  1  0  0  0  0
 15 17  2  0  0  0  0
 14 15  1  0  0  0  0
 14 21  2  0  0  0  0
 11 12  1  0  0  0  0
 11 13  1  0  0  0  0
 11 14  1  0  0  0  0
  9 10  1  0  0  0  0
  9 11  1  0  0  0  0
  9 23  1  0  0  0  0
  7  8  1  0  0  0  0
  7  9  1  0  0  0  0
 27 28  1  0  0  0  0
 27 29  1  0  0  0  0
 27 30  1  0  0  0  0
 25 26  1  0  0  0  0
 25 27  1  0  0  0  0
M  CHG  1  15   1
M  END
$$$$
default_name
  -OEChem-02102213163D

 30 30  0     1  0  0  0  0  0999 V2000
   -3.5507   -3.2183    1.8116 H   0  0  0  0  0  0  0  0  0  0  0  0
   -3.4597   -2.3913    1.1076 C   0  0  0  0  0  0  0  0  0  0  0  0
   -4.1577   -1.6043    1.3866 H   0  0  0  0  0  0  0  0  0  0  0  0
   -3.6807   -2.7523    0.1036 H   0  0  0  0  0  0  0  0  0  0  0  0
   -2.0477   -1.8543    1.1546 C   0  0  0  0  0  0  0  0  0  0  0  0
   -1.2227   -2.3443    1.9146 O   0  0  0  0  0  0  0  0  0  0  0  0
   -1.7517   -0.8483    0.3266 N   0  0  0  0  0  0  0  0  0  0  0  0
   -2.4847   -0.5123   -0.2804 H   0  0  0  0  0  0  0  0  0  0  0  0
   -0.4117   -0.2463    0.2186 C   0  0  1  0  0  0  0  0  0  0  0  0
    0.2987   -1.0391   -0.0285 H   0  0  0  0  0  0  0  0  0  0  0  0
   -0.4131    0.7505   -0.9636 C   0  0  0  0  0  0  0  0  0  0  0  0
   -1.4179    0.7806   -1.3925 H   0  0  0  0  0  0  0  0  0  0  0  0
   -0.1963    1.7514   -0.5842 H   0  0  0  0  0  0  0  0  0  0  0  0
    0.5763    0.4413   -2.0672 C   0  0  0  0  0  0  0  0  0  0  0  0
    1.5997    1.2732   -2.4782 N   0  3  0  0  0  0  0  0  0  0  0  0
    1.8231    2.1622   -2.0215 H   0  0  0  0  0  0  0  0  0  0  0  0
    2.2673    0.6647   -3.4785 C   0  0  0  0  0  0  0  0  0  0  0  0
    3.1335    1.0718   -3.9962 H   0  0  0  0  0  0  0  0  0  0  0  0
    1.6890   -0.5351   -3.7119 N   0  0  0  0  0  0  0  0  0  0  0  0
    1.9829   -1.2137   -4.4095 H   0  0  0  0  0  0  0  0  0  0  0  0
    0.6252   -0.6913   -2.8342 C   0  0  0  0  0  0  0  0  0  0  0  0
   -0.0447   -1.5437   -2.7615 H   0  0  0  0  0  0  0  0  0  0  0  0
    0.0470    0.3465    1.5629 C   0  0  0  0  0  0  0  0  0  0  0  0
    1.1854    0.1365    1.9846 O   0  0  0  0  0  0  0  0  0  0  0  0
   -0.8551    1.0750    2.2320 N   0  0  0  0  0  0  0  0  0  0  0  0
   -1.7594    1.2031    1.8040 H   0  0  0  0  0  0  0  0  0  0  0  0
   -0.6356    1.6998    3.5400 C   0  0  0  0  0  0  0  0  0  0  0  0
   -0.4284    2.7647    3.4168 H   0  0  0  0  0  0  0  0  0  0  0  0
   -1.5268    1.5885    4.1601 H   0  0  0  0  0  0  0  0  0  0  0  0
    0.2072    1.2358    4.0566 H   0  0  0  0  0  0  0  0  0  0  0  0
  5  6  2  0  0  0  0
  5  7  1  0  0  0  0
  2  3  1  0  0  0  0
  2  4  1  0  0  0  0
  2  5  1  0  0  0  0
  1  2  1  0  0  0  0
 23 24  2  0  0  0  0
 23 25  1  0  0  0  0
 21 22  1  0  0  0  0
 19 20  1  0  0  0  0
 19 21  1  0  0  0  0
 17 18  1  0  0  0  0
 17 19  1  0  0  0  0
 15 16  1  0  0  0  0
 15 17  2  0  0  0  0
 14 15  1  0  0  0  0
 14 21  2  0  0  0  0
 11 12  1  0  0  0  0
 11 13  1  0  0  0  0
 11 14  1  0  0  0  0
  9 10  1  0  0  0  0
  9 11  1  0  0  0  0
  9 23  1  0  0  0  0
  7  8  1  0  0  0  0
  7  9  1  0  0  0  0
 27 28  1  0  0  0  0
 27 29  1  0  0  0  0
 27 30  1  0  0  0  0
 25 26  1  0  0  0  0
 25 27  1  0  0  0  0
M  CHG  1  15   1
M  END
$$$$
default_name
  -OEChem-02102213163D

 30 30  0     1  0  0  0  0  0999 V2000
   -3.5507   -3.2183    1.8116 H   0  0  0  0  0  0  0  0  0  0  0  0
   -3.4597   -2.3913    1.1076 C   0  0  0  0  0  0  0  0  0  0  0  0
   -4.1577   -1.6043    1.3866 H   0  0  0  0  0  0  0  0  0  0  0  0
   -3.6807   -2.7523    0.1036 H   0  0  0  0  0  0  0  0  0  0  0  0
   -2.0477   -1.8543    1.1546 C   0  0  0  0  0  0  0  0  0  0  0  0
   -1.2227   -2.3443    1.9146 O   0  0  0  0  0  0  0  0  0  0  0  0
   -1.7517   -0.8483    0.3266 N   0  0  0  0  0  0  0  0  0  0  0  0
   -2.4847   -0.5123   -0.2804 H   0  0  0  0  0  0  0  0  0  0  0  0
   -0.4117   -0.2463    0.2186 C   0  0  1  0  0  0  0  0  0  0  0  0
    0.2987   -1.0391   -0.0285 H   0  0  0  0  0  0  0  0  0  0  0  0
   -0.4131    0.7505   -0.9636 C   0  0  0  0  0  0  0  0  0  0  0  0
   -1.4179    0.7806   -1.3925 H   0  0  0  0  0  0  0  0  0  0  0  0
   -0.1963    1.7514   -0.5842 H   0  0  0  0  0  0  0  0  0  0  0  0
    0.5763    0.4413   -2.0672 C   0  0  0  0  0  0  0  0  0  0  0  0
    1.7613    1.1158   -2.2892 N   0  3  0  0  0  0  0  0  0  0  0  0
    2.1125    1.8576   -1.6768 H   0  0  0  0  0  0  0  0  0  0  0  0
    2.3729    0.5622   -3.3551 C   0  0  0  0  0  0  0  0  0  0  0  0
    3.3329    0.8737   -3.7619 H   0  0  0  0  0  0  0  0  0  0  0  0
    1.6012   -0.4484   -3.8150 N   0  0  0  0  0  0  0  0  0  0  0  0
    1.8125   -1.0472   -4.6089 H   0  0  0  0  0  0  0  0  0  0  0  0
    0.4687   -0.5379   -3.0175 C   0  0  0  0  0  0  0  0  0  0  0  0
   -0.3500   -1.2450   -3.1189 H   0  0  0  0  0  0  0  0  0  0  0  0
    0.0470    0.3465    1.5629 C   0  0  0  0  0  0  0  0  0  0  0  0
    1.1854    0.1365    1.9846 O   0  0  0  0  0  0  0  0  0  0  0  0
   -0.8551    1.0750    2.2320 N   0  0  0  0  0  0  0  0  0  0  0  0
   -1.7594    1.2031    1.8040 H   0  0  0  0  0  0  0  0  0  0  0  0
   -0.6356    1.6998    3.5400 C   0  0  0  0  0  0  0  0  0  0  0  0
   -0.4284    2.7647    3.4168 H   0  0  0  0  0  0  0  0  0  0  0  0
   -1.5268    1.5885    4.1601 H   0  0  0  0  0  0  0  0  0  0  0  0
    0.2072    1.2358    4.0566 H   0  0  0  0  0  0  0  0  0  0  0  0
  5  6  2  0  0  0  0
  5  7  1  0  0  0  0
  2  3  1  0  0  0  0
  2  4  1  0  0  0  0
  2  5  1  0  0  0  0
  1  2  1  0  0  0  0
 23 24  2  0  0  0  0
 23 25  1  0  0  0  0
 21 22  1  0  0  0  0
 19 20  1  0  0  0  0
 19 21  1  0  0  0  0
 17 18  1  0  0  0  0
 17 19  1  0  0  0  0
 15 16  1  0  0  0  0
 15 17  2  0  0  0  0
 14 15  1  0  0  0  0
 14 21  2  0  0  0  0
 11 12  1  0  0  0  0
 11 13  1  0  0  0  0
 11 14  1  0  0  0  0
  9 10  1  0  0  0  0
  9 11  1  0  0  0  0
  9 23  1  0  0  0  0
  7  8  1  0  0  0  0
  7  9  1  0  0  0  0
 27 28  1  0  0  0  0
 27 29  1  0  0  0  0
 27 30  1  0  0  0  0
 25 26  1  0  0  0  0
 25 27  1  0  0  0  0
M  CHG  1  15   1
M  END
$$$$
default_name
  -OEChem-02102213163D

 30 30  0     1  0  0  0  0  0999 V2000
   -3.5507   -3.2183    1.8116 H   0  0  0  0  0  0  0  0  0  0  0  0
   -3.4597   -2.3913    1.1076 C   0  0  0  0  0  0  0  0  0  0  0  0
   -4.1577   -1.6043    1.3866 H   0  0  0  0  0  0  0  0  0  0  0  0
   -3.6807   -2.7523    0.1036 H   0  0  0  0  0  0  0  0  0  0  0  0
   -2.0477   -1.8543    1.1546 C   0  0  0  0  0  0  0  0  0  0  0  0
   -1.2227   -2.3443    1.9146 O   0  0  0  0  0  0  0  0  0  0  0  0
   -1.7517   -0.8483    0.3266 N   0  0  0  0  0  0  0  0  0  0  0  0
   -2.4847   -0.5123   -0.2804 H   0  0  0  0  0  0  0  0  0  0  0  0
   -0.4117   -0.2463    0.2186 C   0  0  1  0  0  0  0  0  0  0  0  0
    0.2987   -1.0391   -0.0285 H   0  0  0  0  0  0  0  0  0  0  0  0
   -0.4131    0.7505   -0.9636 C   0  0  0  0  0  0  0  0  0  0  0  0
   -1.4179    0.7806   -1.3925 H   0  0  0  0  0  0  0  0  0  0  0  0
   -0.1963    1.7514   -0.5842 H   0  0  0  0  0  0  0  0  0  0  0  0
    0.5763    0.4413   -2.0672 C   0  0  0  0  0  0  0  0  0  0  0  0
    1.8777    0.9013   -2.1248 N   0  3  0  0  0  0  0  0  0  0  0  0
    2.3163    1.4506   -1.3801 H   0  0  0  0  0  0  0  0  0  0  0  0
    2.4491    0.4225   -3.2477 C   0  0  0  0  0  0  0  0  0  0  0  0
    3.4758    0.6050   -3.5585 H   0  0  0  0  0  0  0  0  0  0  0  0
    1.5381   -0.3306   -3.9045 N   0  0  0  0  0  0  0  0  0  0  0  0
    1.6900   -0.8204   -4.7823 H   0  0  0  0  0  0  0  0  0  0  0  0
    0.3562   -0.3293   -3.1768 C   0  0  0  0  0  0  0  0  0  0  0  0
   -0.5697   -0.8384   -3.4298 H   0  0  0  0  0  0  0  0  0  0  0  0
    0.0470    0.3465    1.5629 C   0  0  0  0  0  0  0  0  0  0  0  0
    1.1854    0.1365    1.9846 O   0  0  0  0  0  0  0  0  0  0  0  0
   -0.8551    1.0750    2.2320 N   0  0  0  0  0  0  0  0  0  0  0  0
   -1.7594    1.2031    1.8040 H   0  0  0  0  0  0  0  0  0  0  0  0
   -0.6356    1.6998    3.5400 C   0  0  0  0  0  0  0  0  0  0  0  0
   -0.4284    2.7647    3.4168 H   0  0  0  0  0  0  0  0  0  0  0  0
   -1.5268    1.5885    4.1601 H   0  0  0  0  0  0  0  0  0  0  0  0
    0.2072    1.2358    4.0566 H   0  0  0  0  0  0  0  0  0  0  0  0
  5  6  2  0  0  0  0
  5  7  1  0  0  0  0
  2  3  1  0  0  0  0
  2  4  1  0  0  0  0
  2  5  1  0  0  0  0
  1  2  1  0  0  0  0
 23 24  2  0  0  0  0
 23 25  1  0  0  0  0
 21 22  1  0  0  0  0
 19 20  1  0  0  0  0
 19 21  1  0  0  0  0
 17 18  1  0  0  0  0
 17 19  1  0  0  0  0
 15 16  1  0  0  0  0
 15 17  2  0  0  0  0
 14 15  1  0  0  0  0
 14 21  2  0  0  0  0
 11 12  1  0  0  0  0
 11 13  1  0  0  0  0
 11 14  1  0  0  0  0
  9 10  1  0  0  0  0
  9 11  1  0  0  0  0
  9 23  1  0  0  0  0
  7  8  1  0  0  0  0
  7  9  1  0  0  0  0
 27 28  1  0  0  0  0
 27 29  1  0  0  0  0
 27 30  1  0  0  0  0
 25 26  1  0  0  0  0
 25 27  1  0  0  0  0
M  CHG  1  15   1
M  END
$$$$
default_name
  -OEChem-02102213163D

 30 30  0     1  0  0  0  0  0999 V2000
   -3.5507   -3.2183    1.8116 H   0  0  0  0  0  0  0  0  0  0  0  0
   -3.4597   -2.3913    1.1076 C   0  0  0  0  0  0  0  0  0  0  0  0
   -4.1577   -1.6043    1.3866 H   0  0  0  0  0  0  0  0  0  0  0  0
   -3.6807   -2.7523    0.1036 H   0  0  0  0  0  0  0  0  0  0  0  0
   -2.0477   -1.8543    1.1546 C   0  0  0  0  0  0  0  0  0  0  0  0
   -1.2227   -2.3443    1.9146 O   0  0  0  0  0  0  0  0  0  0  0  0
   -1.7517   -0.8483    0.3266 N   0  0  0  0  0  0  0  0  0  0  0  0
   -2.4847   -0.5123   -0.2804 H   0  0  0  0  0  0  0  0  0  0  0  0
   -0.4117   -0.2463    0.2186 C   0  0  1  0  0  0  0  0  0  0  0  0
    0.2987   -1.0391   -0.0285 H   0  0  0  0  0  0  0  0  0  0  0  0
   -0.4131    0.7505   -0.9636 C   0  0  0  0  0  0  0  0  0  0  0  0
   -1.4179    0.7806   -1.3925 H   0  0  0  0  0  0  0  0  0  0  0  0
   -0.1963    1.7514   -0.5842 H   0  0  0  0  0  0  0  0  0  0  0  0
    0.5763    0.4413   -2.0672 C   0  0  0  0  0  0  0  0  0  0  0  0
    1.9409    0.6443   -1.9961 N   0  3  0  0  0  0  0  0  0  0  0  0
    2.4206    0.9687   -1.1515 H   0  0  0  0  0  0  0  0  0  0  0  0
    2.4906    0.2549   -3.1635 C   0  0  0  0  0  0  0  0  0  0  0  0
    3.5523    0.2841   -3.4000 H   0  0  0  0  0  0  0  0  0  0  0  0
    1.5042   -0.1898   -3.9744 N   0  0  0  0  0  0  0  0  0  0  0  0
    1.6235   -0.5490   -4.9180 H   0  0  0  0  0  0  0  0  0  0  0  0
    0.2953   -0.0795   -3.3014 C   0  0  0  0  0  0  0  0  0  0  0  0
   -0.6888   -0.3517   -3.6729 H   0  0  0  0  0  0  0  0  0  0  0  0
    0.0470    0.3465    1.5629 C   0  0  0  0  0  0  0  0  0  0  0  0
    1.1854    0.1365    1.9846 O   0  0  0  0  0  0  0  0  0  0  0  0
   -0.8551    1.0750    2.2320 N   0  0  0  0  0  0  0  0  0  0  0  0
   -1.7594    1.2031    1.8040 H   0  0  0  0  0  0  0  0  0  0  0  0
   -0.6356    1.6998    3.5400 C   0  0  0  0  0  0  0  0  0  0  0  0
   -0.4284    2.7647    3.4168 H   0  0  0  0  0  0  0  0  0  0  0  0
   -1.5268    1.5885    4.1601 H   0  0  0  0  0  0  0  0  0  0  0  0
    0.2072    1.2358    4.0566 H   0  0  0  0  0  0  0  0  0  0  0  0
  5  6  2  0  0  0  0
  5  7  1  0  0  0  0
  2  3  1  0  0  0  0
  2  4  1  0  0  0  0
  2  5  1  0  0  0  0
  1  2  1  0  0  0  0
 23 24  2  0  0  0  0
 23 25  1  0  0  0  0
 21 22  1  0  0  0  0
 19 20  1  0  0  0  0
 19 21  1  0  0  0  0
 17 18  1  0  0  0  0
 17 19  1  0  0  0  0
 15 16  1  0  0  0  0
 15 17  2  0  0  0  0
 14 15  1  0  0  0  0
 14 21  2  0  0  0  0
 11 12  1  0  0  0  0
 11 13  1  0  0  0  0
 11 14  1  0  0  0  0
  9 10  1  0  0  0  0
  9 11  1  0  0  0  0
  9 23  1  0  0  0  0
  7  8  1  0  0  0  0
  7  9  1  0  0  0  0
 27 28  1  0  0  0  0
 27 29  1  0  0  0  0
 27 30  1  0  0  0  0
 25 26  1  0  0  0  0
 25 27  1  0  0  0  0
M  CHG  1  15   1
M  END
$$$$
default_name
  -OEChem-02102213163D

 30 30  0     1  0  0  0  0  0999 V2000
   -3.5507   -3.2183    1.8116 H   0  0  0  0  0  0  0  0  0  0  0  0
   -3.4597   -2.3913    1.1076 C   0  0  0  0  0  0  0  0  0  0  0  0
   -4.1577   -1.6043    1.3866 H   0  0  0  0  0  0  0  0  0  0  0  0
   -3.6807   -2.7523    0.1036 H   0  0  0  0  0  0  0  0  0  0  0  0
   -2.0477   -1.8543    1.1546 C   0  0  0  0  0  0  0  0  0  0  0  0
   -1.2227   -2.3443    1.9146 O   0  0  0  0  0  0  0  0  0  0  0  0
   -1.7517   -0.8483    0.3266 N   0  0  0  0  0  0  0  0  0  0  0  0
   -2.4847   -0.5123   -0.2804 H   0  0  0  0  0  0  0  0  0  0  0  0
   -0.4117   -0.2463    0.2186 C   0  0  1  0  0  0  0  0  0  0  0  0
    0.2987   -1.0391   -0.0285 H   0  0  0  0  0  0  0  0  0  0  0  0
   -0.4131    0.7505   -0.9636 C   0  0  0  0  0  0  0  0  0  0  0  0
   -1.4179    0.7806   -1.3925 H   0  0  0  0  0  0  0  0  0  0  0  0
   -0.1963    1.7514   -0.5842 H   0  0  0  0  0  0  0  0  0  0  0  0
    0.5763    0.4413   -2.0672 C   0  0  0  0  0  0  0  0  0  0  0  0
    1.9467    0.3623   -1.9119 N   0  3  0  0  0  0  0  0  0  0  0  0
    2.4185    0.4449   -1.0067 H   0  0  0  0  0  0  0  0  0  0  0  0
    2.4947    0.0710   -3.1083 C   0  0  0  0  0  0  0  0  0  0  0  0
    3.5574   -0.0670   -3.2971 H   0  0  0  0  0  0  0  0  0  0  0  0
    1.5016   -0.0356   -4.0199 N   0  0  0  0  0  0  0  0  0  0  0  0
    1.6177   -0.2513   -5.0066 H   0  0  0  0  0  0  0  0  0  0  0  0
    0.2902    0.1943   -3.3827 C   0  0  0  0  0  0  0  0  0  0  0  0
   -0.6991    0.1820   -3.8317 H   0  0  0  0  0  0  0  0  0  0  0  0
    0.0470    0.3465    1.5629 C   0  0  0  0  0  0  0  0  0  0  0  0
    1.1854    0.1365    1.9846 O   0  0  0  0  0  0  0  0  0  0  0  0
   -0.8551    1.0750    2.2320 N   0  0  0  0  0  0  0  0  0  0  0  0
   -1.7594    1.2031    1.8040 H   0  0  0  0  0  0  0  0  0  0  0  0
   -0.6356    1.6998    3.5400 C   0  0  0  0  0  0  0  0  0  0  0  0
   -0.4284    2.7647    3.4168 H   0  0  0  0  0  0  0  0  0  0  0  0
   -1.5268    1.5885    4.1601 H   0  0  0  0  0  0  0  0  0  0  0  0
    0.2072    1.2358    4.0566 H   0  0  0  0  0  0  0  0  0  0  0  0
  5  6  2  0  0  0  0
  5  7  1  0  0  0  0
  2  3  1  0  0  0  0
  2  4  1  0  0  0  0
  2  5  1  0  0  0  0
  1  2  1  0  0  0  0
 23 24  2  0  0  0  0
 23 25  1  0  0  0  0
 21 22  1  0  0  0  0
 19 20  1  0  0  0  0
 19 21  1  0  0  0  0
 17 18  1  0  0  0  0
 17 19  1  0  0  0  0
 15 16  1  0  0  0  0
 15 17  2  0  0  0  0
 14 15  1  0  0  0  0
 14 21  2  0  0  0  0
 11 12  1  0  0  0  0
 11 13  1  0  0  0  0
 11 14  1  0  0  0  0
  9 10  1  0  0  0  0
  9 11  1  0  0  0  0
  9 23  1  0  0  0  0
  7  8  1  0  0  0  0
  7  9  1  0  0  0  0
 27 28  1  0  0  0  0
 27 29  1  0  0  0  0
 27 30  1  0  0  0  0
 25 26  1  0  0  0  0
 25 27  1  0  0  0  0
M  CHG  1  15   1
M  END
$$$$
default_name
  -OEChem-02102213163D

 30 30  0     1  0  0  0  0  0999 V2000
   -3.5507   -3.2183    1.8116 H   0  0  0  0  0  0  0  0  0  0  0  0
   -3.4597   -2.3913    1.1076 C   0  0  0  0  0  0  0  0  0  0  0  0
   -4.1577   -1.6043    1.3866 H   0  0  0  0  0  0  0  0  0  0  0  0
   -3.6807   -2.7523    0.1036 H   0  0  0  0  0  0  0  0  0  0  0  0
   -2.0477   -1.8543    1.1546 C   0  0  0  0  0  0  0  0  0  0  0  0
   -1.2227   -2.3443    1.9146 O   0  0  0  0  0  0  0  0  0  0  0  0
   -1.7517   -0.8483    0.3266 N   0  0  0  0  0  0  0  0  0  0  0  0
   -2.4847   -0.5123   -0.2804 H   0  0  0  0  0  0  0  0  0  0  0  0
   -0.4117   -0.2463    0.2186 C   0  0  1  0  0  0  0  0  0  0  0  0
    0.2987   -1.0391   -0.0285 H   0  0  0  0  0  0  0  0  0  0  0  0
   -0.4131    0.7505   -0.9636 C   0  0  0  0  0  0  0  0  0  0  0  0
   -1.4179    0.7806   -1.3925 H   0  0  0  0  0  0  0  0  0  0  0  0
   -0.1963    1.7514   -0.5842 H   0  0  0  0  0  0  0  0  0  0  0  0
    0.5763    0.4413   -2.0672 C   0  0  0  0  0  0  0  0  0  0  0  0
    1.8947    0.0747   -1.8779 N   0  3  0  0  0  0  0  0  0  0  0  0
    2.3099   -0.0851   -0.9555 H   0  0  0  0  0  0  0  0  0  0  0  0
    2.4610   -0.1167   -3.0859 C   0  0  0  0  0  0  0  0  0  0  0  0
    3.4906   -0.4246   -3.2568 H   0  0  0  0  0  0  0  0  0  0  0  0
    1.5307    0.1216   -4.0379 N   0  0  0  0  0  0  0  0  0  0  0  0
    1.6730    0.0524   -5.0421 H   0  0  0  0  0  0  0  0  0  0  0  0
    0.3411    0.4734   -3.4152 C   0  0  0  0  0  0  0  0  0  0  0  0
   -0.6001    0.7264   -3.8954 H   0  0  0  0  0  0  0  0  0  0  0  0
    0.0470    0.3465    1.5629 C   0  0  0  0  0  0  0  0  0  0  0  0
    1.1854    0.1365    1.9846 O   0  0  0  0  0  0  0  0  0  0  0  0
   -0.8551    1.0750    2.2320 N   0  0  0  0  0  0  0  0  0  0  0  0
   -1.7594    1.2031    1.8040 H   0  0  0  0  0  0  0  0  0  0  0  0
   -0.6356    1.6998    3.5400 C   0  0  0  0  0  0  0  0  0  0  0  0
   -0.4284    2.7647    3.4168 H   0  0  0  0  0  0  0  0  0  0  0  0
   -1.5268    1.5885    4.1601 H   0  0  0  0  0  0  0  0  0  0  0  0
    0.2072    1.2358    4.0566 H   0  0  0  0  0  0  0  0  0  0  0  0
  5  6  2  0  0  0  0
  5  7  1  0  0  0  0
  2  3  1  0  0  0  0
  2  4  1  0  0  0  0
  2  5  1  0  0  0  0
  1  2  1  0  0  0  0
 23 24  2  0  0  0  0
 23 25  1  0  0  0  0
 21 22  1  0  0  0  0
 19 20  1  0  0  0  0
 19 21  1  0  0  0  0
 17 18  1  0  0  0  0
 17 19  1  0  0  0  0
 15 16  1  0  0  0  0
 15 17  2  0  0  0  0
 14 15  1  0  0  0  0
 14 21  2  0  0  0  0
 11 12  1  0  0  0  0
 11 13  1  0  0  0  0
 11 14  1  0  0  0  0
  9 10  1  0  0  0  0
  9 11  1  0  0  0  0
  9 23  1  0  0  0  0
  7  8  1  0  0  0  0
  7  9  1  0  0  0  0
 27 28  1  0  0  0  0
 27 29  1  0  0  0  0
 27 30  1  0  0  0  0
 25 26  1  0  0  0  0
 25 27  1  0  0  0  0
M  CHG  1  15   1
M  END
$$$$
default_name
  -OEChem-02102213163D

 30 30  0     1  0  0  0  0  0999 V2000
   -3.5507   -3.2183    1.8116 H   0  0  0  0  0  0  0  0  0  0  0  0
   -3.4597   -2.3913    1.1076 C   0  0  0  0  0  0  0  0  0  0  0  0
   -4.1577   -1.6043    1.3866 H   0  0  0  0  0  0  0  0  0  0  0  0
   -3.6807   -2.7523    0.1036 H   0  0  0  0  0  0  0  0  0  0  0  0
   -2.0477   -1.8543    1.1546 C   0  0  0  0  0  0  0  0  0  0  0  0
   -1.2227   -2.3443    1.9146 O   0  0  0  0  0  0  0  0  0  0  0  0
   -1.7517   -0.8483    0.3266 N   0  0  0  0  0  0  0  0  0  0  0  0
   -2.4847   -0.5123   -0.2804 H   0  0  0  0  0  0  0  0  0  0  0  0
   -0.4117   -0.2463    0.2186 C   0  0  1  0  0  0  0  0  0  0  0  0
    0.2987   -1.0391   -0.0285 H   0  0  0  0  0  0  0  0  0  0  0  0
   -0.4131    0.7505   -0.9636 C   0  0  0  0  0  0  0  0  0  0  0  0
   -1.4179    0.7806   -1.3925 H   0  0  0  0  0  0  0  0  0  0  0  0
   -0.1963    1.7514   -0.5842 H   0  0  0  0  0  0  0  0  0  0  0  0
    0.5763    0.4413   -2.0672 C   0  0  0  0  0  0  0  0  0  0  0  0
    1.7884   -0.1991   -1.8965 N   0  3  0  0  0  0  0  0  0  0  0  0
    2.1024   -0.5852   -1.0014 H   0  0  0  0  0  0  0  0  0  0  0  0
    2.3918   -0.2955   -3.0978 C   0  0  0  0  0  0  0  0  0  0  0  0
    3.3564   -0.7642   -3.2819 H   0  0  0  0  0  0  0  0  0  0  0  0
    1.5894    0.2709   -4.0271 N   0  0  0  0  0  0  0  0  0  0  0  0
    1.7855    0.3412   -5.0222 H   0  0  0  0  0  0  0  0  0  0  0  0
    0.4448    0.7389   -3.3967 C   0  0  0  0  0  0  0  0  0  0  0  0
   -0.3983    1.2443   -3.8597 H   0  0  0  0  0  0  0  0  0  0  0  0
    0.0470    0.3465    1.5629 C   0  0  0  0  0  0  0  0  0  0  0  0
    1.1854    0.1365    1.9846 O   0  0  0  0  0  0  0  0  0  0  0  0
   -0.8551    1.0750    2.2320 N   0  0  0  0  0  0  0  0  0  0  0  0
   -1.7594    1.2031    1.8040 H   0  0  0  0  0  0  0  0  0  0  0  0
   -0.6356    1.6998    3.5400 C   0  0  0  0  0  0  0  0  0  0  0  0
   -0.4284    2.7647    3.4168 H   0  0  0  0  0  0  0  0  0  0  0  0
   -1.5268    1.5885    4.1601 H   0  0  0  0  0  0  0  0  0  0  0  0
    0.2072    1.2358    4.0566 H   0  0  0  0  0  0  0  0  0  0  0  0
  5  6  2  0  0  0  0
  5  7  1  0  0  0  0
  2  3  1  0  0  0  0
  2  4  1  0  0  0  0
  2  5  1  0  0  0  0
  1  2  1  0  0  0  0
 23 24  2  0  0  0  0
 23 25  1  0  0  0  0
 21 22  1  0  0  0  0
 19 20  1  0  0  0  0
 19 21  1  0  0  0  0
 17 18  1  0  0  0  0
 17 19  1  0  0  0  0
 15 16  1  0  0  0  0
 15 17  2  0  0  0  0
 14 15  1  0  0  0  0
 14 21  2  0  0  0  0
 11 12  1  0  0  0  0
 11 13  1  0  0  0  0
 11 14  1  0  0  0  0
  9 10  1  0  0  0  0
  9 11  1  0  0  0  0
  9 23  1  0  0  0  0
  7  8  1  0  0  0  0
  7  9  1  0  0  0  0
 27 28  1  0  0  0  0
 27 29  1  0  0  0  0
 27 30  1  0  0  0  0
 25 26  1  0  0  0  0
 25 27  1  0  0  0  0
M  CHG  1  15   1
M  END
$$$$
default_name
  -OEChem-02102213163D

 30 30  0     1  0  0  0  0  0999 V2000
   -3.5507   -3.2183    1.8116 H   0  0  0  0  0  0  0  0  0  0  0  0
   -3.4597   -2.3913    1.1076 C   0  0  0  0  0  0  0  0  0  0  0  0
   -4.1577   -1.6043    1.3866 H   0  0  0  0  0  0  0  0  0  0  0  0
   -3.6807   -2.7523    0.1036 H   0  0  0  0  0  0  0  0  0  0  0  0
   -2.0477   -1.8543    1.1546 C   0  0  0  0  0  0  0  0  0  0  0  0
   -1.2227   -2.3443    1.9146 O   0  0  0  0  0  0  0  0  0  0  0  0
   -1.7517   -0.8483    0.3266 N   0  0  0  0  0  0  0  0  0  0  0  0
   -2.4847   -0.5123   -0.2804 H   0  0  0  0  0  0  0  0  0  0  0  0
   -0.4117   -0.2463    0.2186 C   0  0  1  0  0  0  0  0  0  0  0  0
    0.2987   -1.0391   -0.0285 H   0  0  0  0  0  0  0  0  0  0  0  0
   -0.4131    0.7505   -0.9636 C   0  0  0  0  0  0  0  0  0  0  0  0
   -1.4179    0.7806   -1.3925 H   0  0  0  0  0  0  0  0  0  0  0  0
   -0.1963    1.7514   -0.5842 H   0  0  0  0  0  0  0  0  0  0  0  0
    0.5763    0.4413   -2.0672 C   0  0  0  0  0  0  0  0  0  0  0  0
    1.6350   -0.4404   -1.9664 N   0  3  0  0  0  0  0  0  0  0  0  0
    1.8100   -1.0214   -1.1414 H   0  0  0  0  0  0  0  0  0  0  0  0
    2.2919   -0.4531   -3.1432 C   0  0  0  0  0  0  0  0  0  0  0  0
    3.1641   -1.0627   -3.3706 H   0  0  0  0  0  0  0  0  0  0  0  0
    1.6736    0.4023   -3.9884 N   0  0  0  0  0  0  0  0  0  0  0  0
    1.9476    0.5957   -4.9481 H   0  0  0  0  0  0  0  0  0  0  0  0
    0.5940    0.9727   -3.3284 C   0  0  0  0  0  0  0  0  0  0  0  0
   -0.1076    1.7004   -3.7268 H   0  0  0  0  0  0  0  0  0  0  0  0
    0.0470    0.3465    1.5629 C   0  0  0  0  0  0  0  0  0  0  0  0
    1.1854    0.1365    1.9846 O   0  0  0  0  0  0  0  0  0  0  0  0
   -0.8551    1.0750    2.2320 N   0  0  0  0  0  0  0  0  0  0  0  0
   -1.7594    1.2031    1.8040 H   0  0  0  0  0  0  0  0  0  0  0  0
   -0.6356    1.6998    3.5400 C   0  0  0  0  0  0  0  0  0  0  0  0
   -0.4284    2.7647    3.4168 H   0  0  0  0  0  0  0  0  0  0  0  0
   -1.5268    1.5885    4.1601 H   0  0  0  0  0  0  0  0  0  0  0  0
    0.2072    1.2358    4.0566 H   0  0  0  0  0  0  0  0  0  0  0  0
  5  6  2  0  0  0  0
  5  7  1  0  0  0  0
  2  3  1  0  0  0  0
  2  4  1  0  0  0  0
  2  5  1  0  0  0  0
  1  2  1  0  0  0  0
 23 24  2  0  0  0  0
 23 25  1  0  0  0  0
 21 22  1  0  0  0  0
 19 20  1  0  0  0  0
 19 21  1  0  0  0  0
 17 18  1  0  0  0  0
 17 19  1  0  0  0  0
 15 16  1  0  0  0  0
 15 17  2  0  0  0  0
 14 15  1  0  0  0  0
 14 21  2  0  0  0  0
 11 12  1  0  0  0  0
 11 13  1  0  0  0  0
 11 14  1  0  0  0  0
  9 10  1  0  0  0  0
  9 11  1  0  0  0  0
  9 23  1  0  0  0  0
  7  8  1  0  0  0  0
  7  9  1  0  0  0  0
 27 28  1  0  0  0  0
 27 29  1  0  0  0  0
 27 30  1  0  0  0  0
 25 26  1  0  0  0  0
 25 27  1  0  0  0  0
M  CHG  1  15   1
M  END
$$$$
default_name
  -OEChem-02102213163D

 30 30  0     1  0  0  0  0  0999 V2000
   -3.5507   -3.2183    1.8116 H   0  0  0  0  0  0  0  0  0  0  0  0
   -3.4597   -2.3913    1.1076 C   0  0  0  0  0  0  0  0  0  0  0  0
   -4.1577   -1.6043    1.3866 H   0  0  0  0  0  0  0  0  0  0  0  0
   -3.6807   -2.7523    0.1036 H   0  0  0  0  0  0  0  0  0  0  0  0
   -2.0477   -1.8543    1.1546 C   0  0  0  0  0  0  0  0  0  0  0  0
   -1.2227   -2.3443    1.9146 O   0  0  0  0  0  0  0  0  0  0  0  0
   -1.7517   -0.8483    0.3266 N   0  0  0  0  0  0  0  0  0  0  0  0
   -2.4847   -0.5123   -0.2804 H   0  0  0  0  0  0  0  0  0  0  0  0
   -0.4117   -0.2463    0.2186 C   0  0  1  0  0  0  0  0  0  0  0  0
    0.2987   -1.0391   -0.0285 H   0  0  0  0  0  0  0  0  0  0  0  0
   -0.4131    0.7505   -0.9636 C   0  0  0  0  0  0  0  0  0  0  0  0
   -1.4179    0.7806   -1.3925 H   0  0  0  0  0  0  0  0  0  0  0  0
   -0.1963    1.7514   -0.5842 H   0  0  0  0  0  0  0  0  0  0  0  0
    0.5763    0.4413   -2.0672 C   0  0  0  0  0  0  0  0  0  0  0  0
    1.4451   -0.6327   -2.0828 N   0  3  0  0  0  0  0  0  0  0  0  0
    1.4526   -1.3638   -1.3658 H   0  0  0  0  0  0  0  0  0  0  0  0
    2.1681   -0.5789   -3.2190 C   0  0  0  0  0  0  0  0  0  0  0  0
    2.9268   -1.2997   -3.5170 H   0  0  0  0  0  0  0  0  0  0  0  0
    1.7778    0.5068   -3.9243 N   0  0  0  0  0  0  0  0  0  0  0  0
    2.1483    0.7983   -4.8250 H   0  0  0  0  0  0  0  0  0  0  0  0
    0.7786    1.1589   -3.2150 C   0  0  0  0  0  0  0  0  0  0  0  0
    0.2522    2.0637   -3.5060 H   0  0  0  0  0  0  0  0  0  0  0  0
    0.0470    0.3465    1.5629 C   0  0  0  0  0  0  0  0  0  0  0  0
    1.1854    0.1365    1.9846 O   0  0  0  0  0  0  0  0  0  0  0  0
   -0.8551    1.0750    2.2320 N   0  0  0  0  0  0  0  0  0  0  0  0
   -1.7594    1.2031    1.8040 H   0  0  0  0  0  0  0  0  0  0  0  0
   -0.6356    1.6998    3.5400 C   0  0  0  0  0  0  0  0  0  0  0  0
   -0.4284    2.7647    3.4168 H   0  0  0  0  0  0  0  0  0  0  0  0
   -1.5268    1.5885    4.1601 H   0  0  0  0  0  0  0  0  0  0  0  0
    0.2072    1.2358    4.0566 H   0  0  0  0  0  0  0  0  0  0  0  0
  5  6  2  0  0  0  0
  5  7  1  0  0  0  0
  2  3  1  0  0  0  0
  2  4  1  0  0  0  0
  2  5  1  0  0  0  0
  1  2  1  0  0  0  0
 23 24  2  0  0  0  0
 23 25  1  0  0  0  0
 21 22  1  0  0  0  0
 19 20  1  0  0  0  0
 19 21  1  0  0  0  0
 17 18  1  0  0  0  0
 17 19  1  0  0  0  0
 15 16  1  0  0  0  0
 15 17  2  0  0  0  0
 14 15  1  0  0  0  0
 14 21  2  0  0  0  0
 11 12  1  0  0  0  0
 11 13  1  0  0  0  0
 11 14  1  0  0  0  0
  9 10  1  0  0  0  0
  9 11  1  0  0  0  0
  9 23  1  0  0  0  0
  7  8  1  0  0  0  0
  7  9  1  0  0  0  0
 27 28  1  0  0  0  0
 27 29  1  0  0  0  0
 27 30  1  0  0  0  0
 25 26  1  0  0  0  0
 25 27  1  0  0  0  0
M  CHG  1  15   1
M  END
$$$$
default_name
  -OEChem-02102213163D

 30 30  0     1  0  0  0  0  0999 V2000
   -3.5507   -3.2183    1.8116 H   0  0  0  0  0  0  0  0  0  0  0  0
   -3.4597   -2.3913    1.1076 C   0  0  0  0  0  0  0  0  0  0  0  0
   -4.1577   -1.6043    1.3866 H   0  0  0  0  0  0  0  0  0  0  0  0
   -3.6807   -2.7523    0.1036 H   0  0  0  0  0  0  0  0  0  0  0  0
   -2.0477   -1.8543    1.1546 C   0  0  0  0  0  0  0  0  0  0  0  0
   -1.2227   -2.3443    1.9146 O   0  0  0  0  0  0  0  0  0  0  0  0
   -1.7517   -0.8483    0.3266 N   0  0  0  0  0  0  0  0  0  0  0  0
   -2.4847   -0.5123   -0.2804 H   0  0  0  0  0  0  0  0  0  0  0  0
   -0.4117   -0.2463    0.2186 C   0  0  1  0  0  0  0  0  0  0  0  0
    0.2987   -1.0391   -0.0285 H   0  0  0  0  0  0  0  0  0  0  0  0
   -0.4131    0.7505   -0.9636 C   0  0  0  0  0  0  0  0  0  0  0  0
   -1.4179    0.7806   -1.3925 H   0  0  0  0  0  0  0  0  0  0  0  0
   -0.1963    1.7514   -0.5842 H   0  0  0  0  0  0  0  0  0  0  0  0
    0.5763    0.4413   -2.0672 C   0  0  0  0  0  0  0  0  0  0  0  0
    1.2315   -0.7629   -2.2378 N   0  3  0  0  0  0  0  0  0  0  0  0
    1.0547   -1.5893   -1.6593 H   0  0  0  0  0  0  0  0  0  0  0  0
    2.0288   -0.6641   -3.3200 C   0  0  0  0  0  0  0  0  0  0  0  0
    2.6605   -1.4591   -3.7110 H   0  0  0  0  0  0  0  0  0  0  0  0
    1.8947    0.5772   -3.8392 N   0  0  0  0  0  0  0  0  0  0  0  0
    2.3739    0.9354   -4.6611 H   0  0  0  0  0  0  0  0  0  0  0  0
    0.9861    1.2847   -3.0643 C   0  0  0  0  0  0  0  0  0  0  0  0
    0.6567    2.3094   -3.2123 H   0  0  0  0  0  0  0  0  0  0  0  0
    0.0470    0.3465    1.5629 C   0  0  0  0  0  0  0  0  0  0  0  0
    1.1854    0.1365    1.9846 O   0  0  0  0  0  0  0  0  0  0  0  0
   -0.8551    1.0750    2.2320 N   0  0  0  0  0  0  0  0  0  0  0  0
   -1.7594    1.2031    1.8040 H   0  0  0  0  0  0  0  0  0  0  0  0
   -0.6356    1.6998    3.5400 C   0  0  0  0  0  0  0  0  0  0  0  0
   -0.4284    2.7647    3.4168 H   0  0  0  0  0  0  0  0  0  0  0  0
   -1.5268    1.5885    4.1601 H   0  0  0  0  0  0  0  0  0  0  0  0
    0.2072    1.2358    4.0566 H   0  0  0  0  0  0  0  0  0  0  0  0
  5  6  2  0  0  0  0
  5  7  1  0  0  0  0
  2  3  1  0  0  0  0
  2  4  1  0  0  0  0
  2  5  1  0  0  0  0
  1  2  1  0  0  0  0
 23 24  2  0  0  0  0
 23 25  1  0  0  0  0
 21 22  1  0  0  0  0
 19 20  1  0  0  0  0
 19 21  1  0  0  0  0
 17 18  1  0  0  0  0
 17 19  1  0  0  0  0
 15 16  1  0  0  0  0
 15 17  2  0  0  0  0
 14 15  1  0  0  0  0
 14 21  2  0  0  0  0
 11 12  1  0  0  0  0
 11 13  1  0  0  0  0
 11 14  1  0  0  0  0
  9 10  1  0  0  0  0
  9 11  1  0  0  0  0
  9 23  1  0  0  0  0
  7  8  1  0  0  0  0
  7  9  1  0  0  0  0
 27 28  1  0  0  0  0
 27 29  1  0  0  0  0
 27 30  1  0  0  0  0
 25 26  1  0  0  0  0
 25 27  1  0  0  0  0
M  CHG  1  15   1
M  END
$$$$
default_name
  -OEChem-02102213163D

 30 30  0     1  0  0  0  0  0999 V2000
   -3.5507   -3.2183    1.8116 H   0  0  0  0  0  0  0  0  0  0  0  0
   -3.4597   -2.3913    1.1076 C   0  0  0  0  0  0  0  0  0  0  0  0
   -4.1577   -1.6043    1.3866 H   0  0  0  0  0  0  0  0  0  0  0  0
   -3.6807   -2.7523    0.1036 H   0  0  0  0  0  0  0  0  0  0  0  0
   -2.0477   -1.8543    1.1546 C   0  0  0  0  0  0  0  0  0  0  0  0
   -1.2227   -2.3443    1.9146 O   0  0  0  0  0  0  0  0  0  0  0  0
   -1.7517   -0.8483    0.3266 N   0  0  0  0  0  0  0  0  0  0  0  0
   -2.4847   -0.5123   -0.2804 H   0  0  0  0  0  0  0  0  0  0  0  0
   -0.4117   -0.2463    0.2186 C   0  0  1  0  0  0  0  0  0  0  0  0
    0.2987   -1.0391   -0.0285 H   0  0  0  0  0  0  0  0  0  0  0  0
   -0.4131    0.7505   -0.9636 C   0  0  0  0  0  0  0  0  0  0  0  0
   -1.4179    0.7806   -1.3925 H   0  0  0  0  0  0  0  0  0  0  0  0
   -0.1963    1.7514   -0.5842 H   0  0  0  0  0  0  0  0  0  0  0  0
    0.5763    0.4413   -2.0672 C   0  0  0  0  0  0  0  0  0  0  0  0
    1.0088   -0.8222   -2.4208 N   0  3  0  0  0  0  0  0  0  0  0  0
    0.6434   -1.6823   -2.0020 H   0  0  0  0  0  0  0  0  0  0  0  0
    1.8835   -0.7031   -3.4393 C   0  0  0  0  0  0  0  0  0  0  0  0
    2.3835   -1.5301   -3.9395 H   0  0  0  0  0  0  0  0  0  0  0  0
    2.0164    0.6087   -3.7390 N   0  0  0  0  0  0  0  0  0  0  0  0
    2.6090    0.9975   -4.4678 H   0  0  0  0  0  0  0  0  0  0  0  0
    1.2023    1.3415   -2.8864 C   0  0  0  0  0  0  0  0  0  0  0  0
    1.0781    2.4207   -2.8656 H   0  0  0  0  0  0  0  0  0  0  0  0
    0.0470    0.3465    1.5629 C   0  0  0  0  0  0  0  0  0  0  0  0
    1.1854    0.1365    1.9846 O   0  0  0  0  0  0  0  0  0  0  0  0
   -0.8551    1.0750    2.2320 N   0  0  0  0  0  0  0  0  0  0  0  0
   -1.7594    1.2031    1.8040 H   0  0  0  0  0  0  0  0  0  0  0  0
   -0.6356    1.6998    3.5400 C   0  0  0  0  0  0  0  0  0  0  0  0
   -0.4284    2.7647    3.4168 H   0  0  0  0  0  0  0  0  0  0  0  0
   -1.5268    1.5885    4.1601 H   0  0  0  0  0  0  0  0  0  0  0  0
    0.2072    1.2358    4.0566 H   0  0  0  0  0  0  0  0  0  0  0  0
  5  6  2  0  0  0  0
  5  7  1  0  0  0  0
  2  3  1  0  0  0  0
  2  4  1  0  0  0  0
  2  5  1  0  0  0  0
  1  2  1  0  0  0  0
 23 24  2  0  0  0  0
 23 25  1  0  0  0  0
 21 22  1  0  0  0  0
 19 20  1  0  0  0  0
 19 21  1  0  0  0  0
 17 18  1  0  0  0  0
 17 19  1  0  0  0  0
 15 16  1  0  0  0  0
 15 17  2  0  0  0  0
 14 15  1  0  0  0  0
 14 21  2  0  0  0  0
 11 12  1  0  0  0  0
 11 13  1  0  0  0  0
 11 14  1  0  0  0  0
  9 10  1  0  0  0  0
  9 11  1  0  0  0  0
  9 23  1  0  0  0  0
  7  8  1  0  0  0  0
  7  9  1  0  0  0  0
 27 28  1  0  0  0  0
 27 29  1  0  0  0  0
 27 30  1  0  0  0  0
 25 26  1  0  0  0  0
 25 27  1  0  0  0  0
M  CHG  1  15   1
M  END
$$$$
default_name
  -OEChem-02102213163D

 30 30  0     1  0  0  0  0  0999 V2000
   -3.5507   -3.2183    1.8116 H   0  0  0  0  0  0  0  0  0  0  0  0
   -3.4597   -2.3913    1.1076 C   0  0  0  0  0  0  0  0  0  0  0  0
   -4.1577   -1.6043    1.3866 H   0  0  0  0  0  0  0  0  0  0  0  0
   -3.6807   -2.7523    0.1036 H   0  0  0  0  0  0  0  0  0  0  0  0
   -2.0477   -1.8543    1.1546 C   0  0  0  0  0  0  0  0  0  0  0  0
   -1.2227   -2.3443    1.9146 O   0  0  0  0  0  0  0  0  0  0  0  0
   -1.7517   -0.8483    0.3266 N   0  0  0  0  0  0  0  0  0  0  0  0
   -2.4847   -0.5123   -0.2804 H   0  0  0  0  0  0  0  0  0  0  0  0
   -0.4117   -0.2463    0.2186 C   0  0  1  0  0  0  0  0  0  0  0  0
    0.2987   -1.0391   -0.0285 H   0  0  0  0  0  0  0  0  0  0  0  0
   -0.4131    0.7505   -0.9636 C   0  0  0  0  0  0  0  0  0  0  0  0
   -1.4179    0.7806   -1.3925 H   0  0  0  0  0  0  0  0  0  0  0  0
   -0.1963    1.7514   -0.5842 H   0  0  0  0  0  0  0  0  0  0  0  0
    0.5763    0.4413   -2.0672 C   0  0  0  0  0  0  0  0  0  0  0  0
    0.7921   -0.8065   -2.6195 N   0  3  0  0  0  0  0  0  0  0  0  0
    0.2466   -1.6366   -2.3705 H   0  0  0  0  0  0  0  0  0  0  0  0
    1.7421   -0.6932   -3.5689 C   0  0  0  0  0  0  0  0  0  0  0  0
    2.1147   -1.5077   -4.1868 H   0  0  0  0  0  0  0  0  0  0  0  0
    2.1346    0.5993   -3.6304 N   0  0  0  0  0  0  0  0  0  0  0  0
    2.8375    0.9805   -4.2581 H   0  0  0  0  0  0  0  0  0  0  0  0
    1.4124    1.3256   -2.6936 C   0  0  0  0  0  0  0  0  0  0  0  0
    1.4879    2.3901   -2.4897 H   0  0  0  0  0  0  0  0  0  0  0  0
    0.0470    0.3465    1.5629 C   0  0  0  0  0  0  0  0  0  0  0  0
    1.1854    0.1365    1.9846 O   0  0  0  0  0  0  0  0  0  0  0  0
   -0.8551    1.0750    2.2320 N   0  0  0  0  0  0  0  0  0  0  0  0
   -1.7594    1.2031    1.8040 H   0  0  0  0  0  0  0  0  0  0  0  0
   -0.6356    1.6998    3.5400 C   0  0  0  0  0  0  0  0  0  0  0  0
   -0.4284    2.7647    3.4168 H   0  0  0  0  0  0  0  0  0  0  0  0
   -1.5268    1.5885    4.1601 H   0  0  0  0  0  0  0  0  0  0  0  0
    0.2072    1.2358    4.0566 H   0  0  0  0  0  0  0  0  0  0  0  0
  5  6  2  0  0  0  0
  5  7  1  0  0  0  0
  2  3  1  0  0  0  0
  2  4  1  0  0  0  0
  2  5  1  0  0  0  0
  1  2  1  0  0  0  0
 23 24  2  0  0  0  0
 23 25  1  0  0  0  0
 21 22  1  0  0  0  0
 19 20  1  0  0  0  0
 19 21  1  0  0  0  0
 17 18  1  0  0  0  0
 17 19  1  0  0  0  0
 15 16  1  0  0  0  0
 15 17  2  0  0  0  0
 14 15  1  0  0  0  0
 14 21  2  0  0  0  0
 11 12  1  0  0  0  0
 11 13  1  0  0  0  0
 11 14  1  0  0  0  0
  9 10  1  0  0  0  0
  9 11  1  0  0  0  0
  9 23  1  0  0  0  0
  7  8  1  0  0  0  0
  7  9  1  0  0  0  0
 27 28  1  0  0  0  0
 27 29  1  0  0  0  0
 27 30  1  0  0  0  0
 25 26  1  0  0  0  0
 25 27  1  0  0  0  0
M  CHG  1  15   1
M  END
$$$$
default_name
  -OEChem-02102213163D

 30 30  0     1  0  0  0  0  0999 V2000
   -3.5507   -3.2183    1.8116 H   0  0  0  0  0  0  0  0  0  0  0  0
   -3.4597   -2.3913    1.1076 C   0  0  0  0  0  0  0  0  0  0  0  0
   -4.1577   -1.6043    1.3866 H   0  0  0  0  0  0  0  0  0  0  0  0
   -3.6807   -2.7523    0.1036 H   0  0  0  0  0  0  0  0  0  0  0  0
   -2.0477   -1.8543    1.1546 C   0  0  0  0  0  0  0  0  0  0  0  0
   -1.2227   -2.3443    1.9146 O   0  0  0  0  0  0  0  0  0  0  0  0
   -1.7517   -0.8483    0.3266 N   0  0  0  0  0  0  0  0  0  0  0  0
   -2.4847   -0.5123   -0.2804 H   0  0  0  0  0  0  0  0  0  0  0  0
   -0.4117   -0.2463    0.2186 C   0  0  1  0  0  0  0  0  0  0  0  0
    0.2987   -1.0391   -0.0285 H   0  0  0  0  0  0  0  0  0  0  0  0
   -0.4131    0.7505   -0.9636 C   0  0  0  0  0  0  0  0  0  0  0  0
   -1.4179    0.7806   -1.3925 H   0  0  0  0  0  0  0  0  0  0  0  0
   -0.1963    1.7514   -0.5842 H   0  0  0  0  0  0  0  0  0  0  0  0
    0.5763    0.4413   -2.0672 C   0  0  0  0  0  0  0  0  0  0  0  0
    0.5964   -0.7168   -2.8201 N   0  3  0  0  0  0  0  0  0  0  0  0
   -0.1085   -1.4553   -2.7397 H   0  0  0  0  0  0  0  0  0  0  0  0
    1.6142   -0.6350   -3.6998 C   0  0  0  0  0  0  0  0  0  0  0  0
    1.8723   -1.3935   -4.4361 H   0  0  0  0  0  0  0  0  0  0  0  0
    2.2412    0.5495   -3.5208 N   0  0  0  0  0  0  0  0  0  0  0  0
    3.0440    0.8854   -4.0464 H   0  0  0  0  0  0  0  0  0  0  0  0
    1.6022    1.2379   -2.4989 C   0  0  0  0  0  0  0  0  0  0  0  0
    1.8581    2.2197   -2.1101 H   0  0  0  0  0  0  0  0  0  0  0  0
    0.0470    0.3465    1.5629 C   0  0  0  0  0  0  0  0  0  0  0  0
    1.1854    0.1365    1.9846 O   0  0  0  0  0  0  0  0  0  0  0  0
   -0.8551    1.0750    2.2320 N   0  0  0  0  0  0  0  0  0  0  0  0
   -1.7594    1.2031    1.8040 H   0  0  0  0  0  0  0  0  0  0  0  0
   -0.6356    1.6998    3.5400 C   0  0  0  0  0  0  0  0  0  0  0  0
   -0.4284    2.7647    3.4168 H   0  0  0  0  0  0  0  0  0  0  0  0
   -1.5268    1.5885    4.1601 H   0  0  0  0  0  0  0  0  0  0  0  0
    0.2072    1.2358    4.0566 H   0  0  0  0  0  0  0  0  0  0  0  0
  5  6  2  0  0  0  0
  5  7  1  0  0  0  0
  2  3  1  0  0  0  0
  2  4  1  0  0  0  0
  2  5  1  0  0  0  0
  1  2  1  0  0  0  0
 23 24  2  0  0  0  0
 23 25  1  0  0  0  0
 21 22  1  0  0  0  0
 19 20  1  0  0  0  0
 19 21  1  0  0  0  0
 17 18  1  0  0  0  0
 17 19  1  0  0  0  0
 15 16  1  0  0  0  0
 15 17  2  0  0  0  0
 14 15  1  0  0  0  0
 14 21  2  0  0  0  0
 11 12  1  0  0  0  0
 11 13  1  0  0  0  0
 11 14  1  0  0  0  0
  9 10  1  0  0  0  0
  9 11  1  0  0  0  0
  9 23  1  0  0  0  0
  7  8  1  0  0  0  0
  7  9  1  0  0  0  0
 27 28  1  0  0  0  0
 27 29  1  0  0  0  0
 27 30  1  0  0  0  0
 25 26  1  0  0  0  0
 25 27  1  0  0  0  0
M  CHG  1  15   1
M  END
$$$$
default_name
  -OEChem-02102213163D

 30 30  0     1  0  0  0  0  0999 V2000
   -3.5507   -3.2183    1.8116 H   0  0  0  0  0  0  0  0  0  0  0  0
   -3.4597   -2.3913    1.1076 C   0  0  0  0  0  0  0  0  0  0  0  0
   -4.1577   -1.6043    1.3866 H   0  0  0  0  0  0  0  0  0  0  0  0
   -3.6807   -2.7523    0.1036 H   0  0  0  0  0  0  0  0  0  0  0  0
   -2.0477   -1.8543    1.1546 C   0  0  0  0  0  0  0  0  0  0  0  0
   -1.2227   -2.3443    1.9146 O   0  0  0  0  0  0  0  0  0  0  0  0
   -1.7517   -0.8483    0.3266 N   0  0  0  0  0  0  0  0  0  0  0  0
   -2.4847   -0.5123   -0.2804 H   0  0  0  0  0  0  0  0  0  0  0  0
   -0.4117   -0.2463    0.2186 C   0  0  1  0  0  0  0  0  0  0  0  0
    0.2987   -1.0391   -0.0285 H   0  0  0  0  0  0  0  0  0  0  0  0
   -0.4131    0.7505   -0.9636 C   0  0  0  0  0  0  0  0  0  0  0  0
   -1.4179    0.7806   -1.3925 H   0  0  0  0  0  0  0  0  0  0  0  0
   -0.1963    1.7514   -0.5842 H   0  0  0  0  0  0  0  0  0  0  0  0
    0.5763    0.4413   -2.0672 C   0  0  0  0  0  0  0  0  0  0  0  0
    0.4348   -0.5594   -3.0091 N   0  3  0  0  0  0  0  0  0  0  0  0
   -0.3979   -1.1507   -3.0844 H   0  0  0  0  0  0  0  0  0  0  0  0
    1.5086   -0.5326   -3.8232 C   0  0  0  0  0  0  0  0  0  0  0  0
    1.6728   -1.1954   -4.6704 H   0  0  0  0  0  0  0  0  0  0  0  0
    2.3291    0.4628   -3.4177 N   0  0  0  0  0  0  0  0  0  0  0  0
    3.2143    0.7189   -3.8470 H   0  0  0  0  0  0  0  0  0  0  0  0
    1.7586    1.0846   -2.3157 C   0  0  0  0  0  0  0  0  0  0  0  0
    2.1634    1.9210   -1.7526 H   0  0  0  0  0  0  0  0  0  0  0  0
    0.0470    0.3465    1.5629 C   0  0  0  0  0  0  0  0  0  0  0  0
    1.1854    0.1365    1.9846 O   0  0  0  0  0  0  0  0  0  0  0  0
   -0.8551    1.0750    2.2320 N   0  0  0  0  0  0  0  0  0  0  0  0
   -1.7594    1.2031    1.8040 H   0  0  0  0  0  0  0  0  0  0  0  0
   -0.6356    1.6998    3.5400 C   0  0  0  0  0  0  0  0  0  0  0  0
   -0.4284    2.7647    3.4168 H   0  0  0  0  0  0  0  0  0  0  0  0
   -1.5268    1.5885    4.1601 H   0  0  0  0  0  0  0  0  0  0  0  0
    0.2072    1.2358    4.0566 H   0  0  0  0  0  0  0  0  0  0  0  0
  5  6  2  0  0  0  0
  5  7  1  0  0  0  0
  2  3  1  0  0  0  0
  2  4  1  0  0  0  0
  2  5  1  0  0  0  0
  1  2  1  0  0  0  0
 23 24  2  0  0  0  0
 23 25  1  0  0  0  0
 21 22  1  0  0  0  0
 19 20  1  0  0  0  0
 19 21  1  0  0  0  0
 17 18  1  0  0  0  0
 17 19  1  0  0  0  0
 15 16  1  0  0  0  0
 15 17  2  0  0  0  0
 14 15  1  0  0  0  0
 14 21  2  0  0  0  0
 11 12  1  0  0  0  0
 11 13  1  0  0  0  0
 11 14  1  0  0  0  0
  9 10  1  0  0  0  0
  9 11  1  0  0  0  0
  9 23  1  0  0  0  0
  7  8  1  0  0  0  0
  7  9  1  0  0  0  0
 27 28  1  0  0  0  0
 27 29  1  0  0  0  0
 27 30  1  0  0  0  0
 25 26  1  0  0  0  0
 25 27  1  0  0  0  0
M  CHG  1  15   1
M  END
$$$$
default_name
  -OEChem-02102213163D

 30 30  0     1  0  0  0  0  0999 V2000
   -3.5507   -3.2183    1.8116 H   0  0  0  0  0  0  0  0  0  0  0  0
   -3.4597   -2.3913    1.1076 C   0  0  0  0  0  0  0  0  0  0  0  0
   -4.1577   -1.6043    1.3866 H   0  0  0  0  0  0  0  0  0  0  0  0
   -3.6807   -2.7523    0.1036 H   0  0  0  0  0  0  0  0  0  0  0  0
   -2.0477   -1.8543    1.1546 C   0  0  0  0  0  0  0  0  0  0  0  0
   -1.2227   -2.3443    1.9146 O   0  0  0  0  0  0  0  0  0  0  0  0
   -1.7517   -0.8483    0.3266 N   0  0  0  0  0  0  0  0  0  0  0  0
   -2.4847   -0.5123   -0.2804 H   0  0  0  0  0  0  0  0  0  0  0  0
   -0.4117   -0.2463    0.2186 C   0  0  1  0  0  0  0  0  0  0  0  0
    0.2987   -1.0391   -0.0285 H   0  0  0  0  0  0  0  0  0  0  0  0
   -0.4131    0.7505   -0.9636 C   0  0  0  0  0  0  0  0  0  0  0  0
   -1.4179    0.7806   -1.3925 H   0  0  0  0  0  0  0  0  0  0  0  0
   -0.1963    1.7514   -0.5842 H   0  0  0  0  0  0  0  0  0  0  0  0
    0.5763    0.4413   -2.0672 C   0  0  0  0  0  0  0  0  0  0  0  0
    0.3184   -0.3448   -3.1735 N   0  3  0  0  0  0  0  0  0  0  0  0
   -0.6017   -0.7437   -3.3812 H   0  0  0  0  0  0  0  0  0  0  0  0
    1.4324   -0.3928   -3.9307 C   0  0  0  0  0  0  0  0  0  0  0  0
    1.5300   -0.9267   -4.8738 H   0  0  0  0  0  0  0  0  0  0  0  0
    2.3921    0.3450   -3.3282 N   0  0  0  0  0  0  0  0  0  0  0  0
    3.3369    0.4921   -3.6736 H   0  0  0  0  0  0  0  0  0  0  0  0
    1.8711    0.8759   -2.1563 C   0  0  0  0  0  0  0  0  0  0  0  0
    2.3832    1.5144   -1.4418 H   0  0  0  0  0  0  0  0  0  0  0  0
    0.0470    0.3465    1.5629 C   0  0  0  0  0  0  0  0  0  0  0  0
    1.1854    0.1365    1.9846 O   0  0  0  0  0  0  0  0  0  0  0  0
   -0.8551    1.0750    2.2320 N   0  0  0  0  0  0  0  0  0  0  0  0
   -1.7594    1.2031    1.8040 H   0  0  0  0  0  0  0  0  0  0  0  0
   -0.6356    1.6998    3.5400 C   0  0  0  0  0  0  0  0  0  0  0  0
   -0.4284    2.7647    3.4168 H   0  0  0  0  0  0  0  0  0  0  0  0
   -1.5268    1.5885    4.1601 H   0  0  0  0  0  0  0  0  0  0  0  0
    0.2072    1.2358    4.0566 H   0  0  0  0  0  0  0  0  0  0  0  0
  5  6  2  0  0  0  0
  5  7  1  0  0  0  0
  2  3  1  0  0  0  0
  2  4  1  0  0  0  0
  2  5  1  0  0  0  0
  1  2  1  0  0  0  0
 23 24  2  0  0  0  0
 23 25  1  0  0  0  0
 21 22  1  0  0  0  0
 19 20  1  0  0  0  0
 19 21  1  0  0  0  0
 17 18  1  0  0  0  0
 17 19  1  0  0  0  0
 15 16  1  0  0  0  0
 15 17  2  0  0  0  0
 14 15  1  0  0  0  0
 14 21  2  0  0  0  0
 11 12  1  0  0  0  0
 11 13  1  0  0  0  0
 11 14  1  0  0  0  0
  9 10  1  0  0  0  0
  9 11  1  0  0  0  0
  9 23  1  0  0  0  0
  7  8  1  0  0  0  0
  7  9  1  0  0  0  0
 27 28  1  0  0  0  0
 27 29  1  0  0  0  0
 27 30  1  0  0  0  0
 25 26  1  0  0  0  0
 25 27  1  0  0  0  0
M  CHG  1  15   1
M  END
$$$$
default_name
  -OEChem-02102213163D

 30 30  0     1  0  0  0  0  0999 V2000
   -3.5507   -3.2183    1.8116 H   0  0  0  0  0  0  0  0  0  0  0  0
   -3.4597   -2.3913    1.1076 C   0  0  0  0  0  0  0  0  0  0  0  0
   -4.1577   -1.6043    1.3866 H   0  0  0  0  0  0  0  0  0  0  0  0
   -3.6807   -2.7523    0.1036 H   0  0  0  0  0  0  0  0  0  0  0  0
   -2.0477   -1.8543    1.1546 C   0  0  0  0  0  0  0  0  0  0  0  0
   -1.2227   -2.3443    1.9146 O   0  0  0  0  0  0  0  0  0  0  0  0
   -1.7517   -0.8483    0.3266 N   0  0  0  0  0  0  0  0  0  0  0  0
   -2.4847   -0.5123   -0.2804 H   0  0  0  0  0  0  0  0  0  0  0  0
   -0.4117   -0.2463    0.2186 C   0  0  1  0  0  0  0  0  0  0  0  0
    0.2987   -1.0391   -0.0285 H   0  0  0  0  0  0  0  0  0  0  0  0
   -0.4131    0.7505   -0.9636 C   0  0  0  0  0  0  0  0  0  0  0  0
   -1.4179    0.7806   -1.3925 H   0  0  0  0  0  0  0  0  0  0  0  0
   -0.1963    1.7514   -0.5842 H   0  0  0  0  0  0  0  0  0  0  0  0
    0.5763    0.4413   -2.0672 C   0  0  0  0  0  0  0  0  0  0  0  0
    0.2551   -0.0879   -3.3022 N   0  3  0  0  0  0  0  0  0  0  0  0
   -0.7060   -0.2618   -3.6098 H   0  0  0  0  0  0  0  0  0  0  0  0
    1.3909   -0.2253   -4.0149 C   0  0  0  0  0  0  0  0  0  0  0  0
    1.4534   -0.6058   -5.0323 H   0  0  0  0  0  0  0  0  0  0  0  0
    2.4261    0.2042   -3.2583 N   0  0  0  0  0  0  0  0  0  0  0  0
    3.4034    0.2206   -3.5380 H   0  0  0  0  0  0  0  0  0  0  0  0
    1.9320    0.6262   -2.0318 C   0  0  0  0  0  0  0  0  0  0  0  0
    2.5022    1.0277   -1.1986 H   0  0  0  0  0  0  0  0  0  0  0  0
    0.0470    0.3465    1.5629 C   0  0  0  0  0  0  0  0  0  0  0  0
    1.1854    0.1365    1.9846 O   0  0  0  0  0  0  0  0  0  0  0  0
   -0.8551    1.0750    2.2320 N   0  0  0  0  0  0  0  0  0  0  0  0
   -1.7594    1.2031    1.8040 H   0  0  0  0  0  0  0  0  0  0  0  0
   -0.6356    1.6998    3.5400 C   0  0  0  0  0  0  0  0  0  0  0  0
   -0.4284    2.7647    3.4168 H   0  0  0  0  0  0  0  0  0  0  0  0
   -1.5268    1.5885    4.1601 H   0  0  0  0  0  0  0  0  0  0  0  0
    0.2072    1.2358    4.0566 H   0  0  0  0  0  0  0  0  0  0  0  0
  5  6  2  0  0  0  0
  5  7  1  0  0  0  0
  2  3  1  0  0  0  0
  2  4  1  0  0  0  0
  2  5  1  0  0  0  0
  1  2  1  0  0  0  0
 23 24  2  0  0  0  0
 23 25  1  0  0  0  0
 21 22  1  0  0  0  0
 19 20  1  0  0  0  0
 19 21  1  0  0  0  0
 17 18  1  0  0  0  0
 17 19  1  0  0  0  0
 15 16  1  0  0  0  0
 15 17  2  0  0  0  0
 14 15  1  0  0  0  0
 14 21  2  0  0  0  0
 11 12  1  0  0  0  0
 11 13  1  0  0  0  0
 11 14  1  0  0  0  0
  9 10  1  0  0  0  0
  9 11  1  0  0  0  0
  9 23  1  0  0  0  0
  7  8  1  0  0  0  0
  7  9  1  0  0  0  0
 27 28  1  0  0  0  0
 27 29  1  0  0  0  0
 27 30  1  0  0  0  0
 25 26  1  0  0  0  0
 25 27  1  0  0  0  0
M  CHG  1  15   1
M  END
$$$$
default_name
  -OEChem-02102213163D

 30 30  0     1  0  0  0  0  0999 V2000
   -3.5507   -3.2183    1.8116 H   0  0  0  0  0  0  0  0  0  0  0  0
   -3.4597   -2.3913    1.1076 C   0  0  0  0  0  0  0  0  0  0  0  0
   -4.1577   -1.6043    1.3866 H   0  0  0  0  0  0  0  0  0  0  0  0
   -3.6807   -2.7523    0.1036 H   0  0  0  0  0  0  0  0  0  0  0  0
   -2.0477   -1.8543    1.1546 C   0  0  0  0  0  0  0  0  0  0  0  0
   -1.2227   -2.3443    1.9146 O   0  0  0  0  0  0  0  0  0  0  0  0
   -1.7517   -0.8483    0.3266 N   0  0  0  0  0  0  0  0  0  0  0  0
   -2.4847   -0.5123   -0.2804 H   0  0  0  0  0  0  0  0  0  0  0  0
   -0.4117   -0.2463    0.2186 C   0  0  1  0  0  0  0  0  0  0  0  0
    0.2987   -1.0391   -0.0285 H   0  0  0  0  0  0  0  0  0  0  0  0
   -0.4131    0.7505   -0.9636 C   0  0  0  0  0  0  0  0  0  0  0  0
   -1.4179    0.7806   -1.3925 H   0  0  0  0  0  0  0  0  0  0  0  0
   -0.1963    1.7514   -0.5842 H   0  0  0  0  0  0  0  0  0  0  0  0
    0.5763    0.4413   -2.0672 C   0  0  0  0  0  0  0  0  0  0  0  0
    0.2493    0.1941   -3.3864 N   0  3  0  0  0  0  0  0  0  0  0  0
   -0.7039    0.2619   -3.7546 H   0  0  0  0  0  0  0  0  0  0  0  0
    1.3868   -0.0413   -4.0700 C   0  0  0  0  0  0  0  0  0  0  0  0
    1.4483   -0.2547   -5.1353 H   0  0  0  0  0  0  0  0  0  0  0  0
    2.4286    0.0500   -3.2128 N   0  0  0  0  0  0  0  0  0  0  0  0
    3.4091   -0.0771   -3.4493 H   0  0  0  0  0  0  0  0  0  0  0  0
    1.9372    0.3524   -1.9505 C   0  0  0  0  0  0  0  0  0  0  0  0
    2.5126    0.4940   -1.0398 H   0  0  0  0  0  0  0  0  0  0  0  0
    0.0470    0.3465    1.5629 C   0  0  0  0  0  0  0  0  0  0  0  0
    1.1854    0.1365    1.9846 O   0  0  0  0  0  0  0  0  0  0  0  0
   -0.8551    1.0750    2.2320 N   0  0  0  0  0  0  0  0  0  0  0  0
   -1.7594    1.2031    1.8040 H   0  0  0  0  0  0  0  0  0  0  0  0
   -0.6356    1.6998    3.5400 C   0  0  0  0  0  0  0  0  0  0  0  0
   -0.4284    2.7647    3.4168 H   0  0  0  0  0  0  0  0  0  0  0  0
   -1.5268    1.5885    4.1601 H   0  0  0  0  0  0  0  0  0  0  0  0
    0.2072    1.2358    4.0566 H   0  0  0  0  0  0  0  0  0  0  0  0
  5  6  2  0  0  0  0
  5  7  1  0  0  0  0
  2  3  1  0  0  0  0
  2  4  1  0  0  0  0
  2  5  1  0  0  0  0
  1  2  1  0  0  0  0
 23 24  2  0  0  0  0
 23 25  1  0  0  0  0
 21 22  1  0  0  0  0
 19 20  1  0  0  0  0
 19 21  1  0  0  0  0
 17 18  1  0  0  0  0
 17 19  1  0  0  0  0
 15 16  1  0  0  0  0
 15 17  2  0  0  0  0
 14 15  1  0  0  0  0
 14 21  2  0  0  0  0
 11 12  1  0  0  0  0
 11 13  1  0  0  0  0
 11 14  1  0  0  0  0
  9 10  1  0  0  0  0
  9 11  1  0  0  0  0
  9 23  1  0  0  0  0
  7  8  1  0  0  0  0
  7  9  1  0  0  0  0
 27 28  1  0  0  0  0
 27 29  1  0  0  0  0
 27 30  1  0  0  0  0
 25 26  1  0  0  0  0
 25 27  1  0  0  0  0
M  CHG  1  15   1
M  END
$$$$
default_name
  -OEChem-02102213163D

 30 30  0     1  0  0  0  0  0999 V2000
   -3.5507   -3.2183    1.8116 H   0  0  0  0  0  0  0  0  0  0  0  0
   -3.4597   -2.3913    1.1076 C   0  0  0  0  0  0  0  0  0  0  0  0
   -4.1577   -1.6043    1.3866 H   0  0  0  0  0  0  0  0  0  0  0  0
   -3.6807   -2.7523    0.1036 H   0  0  0  0  0  0  0  0  0  0  0  0
   -2.0477   -1.8543    1.1546 C   0  0  0  0  0  0  0  0  0  0  0  0
   -1.2227   -2.3443    1.9146 O   0  0  0  0  0  0  0  0  0  0  0  0
   -1.7517   -0.8483    0.3266 N   0  0  0  0  0  0  0  0  0  0  0  0
   -2.4847   -0.5123   -0.2804 H   0  0  0  0  0  0  0  0  0  0  0  0
   -0.4117   -0.2463    0.2186 C   0  0  1  0  0  0  0  0  0  0  0  0
    0.2987   -1.0391   -0.0285 H   0  0  0  0  0  0  0  0  0  0  0  0
   -0.4131    0.7505   -0.9636 C   0  0  0  0  0  0  0  0  0  0  0  0
   -1.4179    0.7806   -1.3925 H   0  0  0  0  0  0  0  0  0  0  0  0
   -0.1963    1.7514   -0.5842 H   0  0  0  0  0  0  0  0  0  0  0  0
    0.5763    0.4413   -2.0672 C   0  0  0  0  0  0  0  0  0  0  0  0
    0.3013    0.4818   -3.4204 N   0  3  0  0  0  0  0  0  0  0  0  0
   -0.5953    0.7920   -3.8058 H   0  0  0  0  0  0  0  0  0  0  0  0
    1.4205    0.1464   -4.0924 C   0  0  0  0  0  0  0  0  0  0  0  0
    1.5152    0.1029   -5.1756 H   0  0  0  0  0  0  0  0  0  0  0  0
    2.3996   -0.1072   -3.1948 N   0  0  0  0  0  0  0  0  0  0  0  0
    3.3539   -0.3807   -3.4138 H   0  0  0  0  0  0  0  0  0  0  0  0
    1.8862    0.0732   -1.9180 C   0  0  0  0  0  0  0  0  0  0  0  0
    2.4135   -0.0504   -0.9761 H   0  0  0  0  0  0  0  0  0  0  0  0
    0.0470    0.3465    1.5629 C   0  0  0  0  0  0  0  0  0  0  0  0
    1.1854    0.1365    1.9846 O   0  0  0  0  0  0  0  0  0  0  0  0
   -0.8551    1.0750    2.2320 N   0  0  0  0  0  0  0  0  0  0  0  0
   -1.7594    1.2031    1.8040 H   0  0  0  0  0  0  0  0  0  0  0  0
   -0.6356    1.6998    3.5400 C   0  0  0  0  0  0  0  0  0  0  0  0
   -0.4284    2.7647    3.4168 H   0  0  0  0  0  0  0  0  0  0  0  0
   -1.5268    1.5885    4.1601 H   0  0  0  0  0  0  0  0  0  0  0  0
    0.2072    1.2358    4.0566 H   0  0  0  0  0  0  0  0  0  0  0  0
  5  6  2  0  0  0  0
  5  7  1  0  0  0  0
  2  3  1  0  0  0  0
  2  4  1  0  0  0  0
  2  5  1  0  0  0  0
  1  2  1  0  0  0  0
 23 24  2  0  0  0  0
 23 25  1  0  0  0  0
 21 22  1  0  0  0  0
 19 20  1  0  0  0  0
 19 21  1  0  0  0  0
 17 18  1  0  0  0  0
 17 19  1  0  0  0  0
 15 16  1  0  0  0  0
 15 17  2  0  0  0  0
 14 15  1  0  0  0  0
 14 21  2  0  0  0  0
 11 12  1  0  0  0  0
 11 13  1  0  0  0  0
 11 14  1  0  0  0  0
  9 10  1  0  0  0  0
  9 11  1  0  0  0  0
  9 23  1  0  0  0  0
  7  8  1  0  0  0  0
  7  9  1  0  0  0  0
 27 28  1  0  0  0  0
 27 29  1  0  0  0  0
 27 30  1  0  0  0  0
 25 26  1  0  0  0  0
 25 27  1  0  0  0  0
M  CHG  1  15   1
M  END
$$$$
default_name
  -OEChem-02102213163D

 30 30  0     1  0  0  0  0  0999 V2000
   -3.5507   -3.2183    1.8116 H   0  0  0  0  0  0  0  0  0  0  0  0
   -3.4597   -2.3913    1.1076 C   0  0  0  0  0  0  0  0  0  0  0  0
   -4.1577   -1.6043    1.3866 H   0  0  0  0  0  0  0  0  0  0  0  0
   -3.6807   -2.7523    0.1036 H   0  0  0  0  0  0  0  0  0  0  0  0
   -2.0477   -1.8543    1.1546 C   0  0  0  0  0  0  0  0  0  0  0  0
   -1.2227   -2.3443    1.9146 O   0  0  0  0  0  0  0  0  0  0  0  0
   -1.7517   -0.8483    0.3266 N   0  0  0  0  0  0  0  0  0  0  0  0
   -2.4847   -0.5123   -0.2804 H   0  0  0  0  0  0  0  0  0  0  0  0
   -0.4117   -0.2463    0.2186 C   0  0  1  0  0  0  0  0  0  0  0  0
    0.2987   -1.0391   -0.0285 H   0  0  0  0  0  0  0  0  0  0  0  0
   -0.4131    0.7505   -0.9636 C   0  0  0  0  0  0  0  0  0  0  0  0
   -1.4179    0.7806   -1.3925 H   0  0  0  0  0  0  0  0  0  0  0  0
   -0.1963    1.7514   -0.5842 H   0  0  0  0  0  0  0  0  0  0  0  0
    0.5763    0.4413   -2.0672 C   0  0  0  0  0  0  0  0  0  0  0  0
    0.4077    0.7556   -3.4018 N   0  3  0  0  0  0  0  0  0  0  0  0
   -0.3878    1.2921   -3.7598 H   0  0  0  0  0  0  0  0  0  0  0  0
    1.4897    0.3252   -4.0805 C   0  0  0  0  0  0  0  0  0  0  0  0
    1.6493    0.4425   -5.1505 H   0  0  0  0  0  0  0  0  0  0  0  0
    2.3409   -0.2565   -3.2056 N   0  0  0  0  0  0  0  0  0  0  0  0
    3.2414   -0.6696   -3.4337 H   0  0  0  0  0  0  0  0  0  0  0  0
    1.7825   -0.1923   -1.9365 C   0  0  0  0  0  0  0  0  0  0  0  0
    2.2117   -0.5683   -1.0119 H   0  0  0  0  0  0  0  0  0  0  0  0
    0.0470    0.3465    1.5629 C   0  0  0  0  0  0  0  0  0  0  0  0
    1.1854    0.1365    1.9846 O   0  0  0  0  0  0  0  0  0  0  0  0
   -0.8551    1.0750    2.2320 N   0  0  0  0  0  0  0  0  0  0  0  0
   -1.7594    1.2031    1.8040 H   0  0  0  0  0  0  0  0  0  0  0  0
   -0.6356    1.6998    3.5400 C   0  0  0  0  0  0  0  0  0  0  0  0
   -0.4284    2.7647    3.4168 H   0  0  0  0  0  0  0  0  0  0  0  0
   -1.5268    1.5885    4.1601 H   0  0  0  0  0  0  0  0  0  0  0  0
    0.2072    1.2358    4.0566 H   0  0  0  0  0  0  0  0  0  0  0  0
  5  6  2  0  0  0  0
  5  7  1  0  0  0  0
  2  3  1  0  0  0  0
  2  4  1  0  0  0  0
  2  5  1  0  0  0  0
  1  2  1  0  0  0  0
 23 24  2  0  0  0  0
 23 25  1  0  0  0  0
 21 22  1  0  0  0  0
 19 20  1  0  0  0  0
 19 21  1  0  0  0  0
 17 18  1  0  0  0  0
 17 19  1  0  0  0  0
 15 16  1  0  0  0  0
 15 17  2  0  0  0  0
 14 15  1  0  0  0  0
 14 21  2  0  0  0  0
 11 12  1  0  0  0  0
 11 13  1  0  0  0  0
 11 14  1  0  0  0  0
  9 10  1  0  0  0  0
  9 11  1  0  0  0  0
  9 23  1  0  0  0  0
  7  8  1  0  0  0  0
  7  9  1  0  0  0  0
 27 28  1  0  0  0  0
 27 29  1  0  0  0  0
 27 30  1  0  0  0  0
 25 26  1  0  0  0  0
 25 27  1  0  0  0  0
M  CHG  1  15   1
M  END
$$$$
default_name
  -OEChem-02102213163D

 30 30  0     1  0  0  0  0  0999 V2000
   -3.5507   -3.2183    1.8116 H   0  0  0  0  0  0  0  0  0  0  0  0
   -3.4597   -2.3913    1.1076 C   0  0  0  0  0  0  0  0  0  0  0  0
   -4.1577   -1.6043    1.3866 H   0  0  0  0  0  0  0  0  0  0  0  0
   -3.6807   -2.7523    0.1036 H   0  0  0  0  0  0  0  0  0  0  0  0
   -2.0477   -1.8543    1.1546 C   0  0  0  0  0  0  0  0  0  0  0  0
   -1.2227   -2.3443    1.9146 O   0  0  0  0  0  0  0  0  0  0  0  0
   -1.7517   -0.8483    0.3266 N   0  0  0  0  0  0  0  0  0  0  0  0
   -2.4847   -0.5123   -0.2804 H   0  0  0  0  0  0  0  0  0  0  0  0
   -0.4117   -0.2463    0.2186 C   0  0  1  0  0  0  0  0  0  0  0  0
    0.2987   -1.0391   -0.0285 H   0  0  0  0  0  0  0  0  0  0  0  0
   -0.4131    0.7505   -0.9636 C   0  0  0  0  0  0  0  0  0  0  0  0
   -1.4179    0.7806   -1.3925 H   0  0  0  0  0  0  0  0  0  0  0  0
   -0.1963    1.7514   -0.5842 H   0  0  0  0  0  0  0  0  0  0  0  0
    0.5763    0.4413   -2.0672 C   0  0  0  0  0  0  0  0  0  0  0  0
    0.5610    0.9968   -3.3319 N   0  3  0  0  0  0  0  0  0  0  0  0
   -0.0954    1.7282   -3.6199 H   0  0  0  0  0  0  0  0  0  0  0  0
    1.5896    0.4828   -4.0351 C   0  0  0  0  0  0  0  0  0  0  0  0
    1.8416    0.7410   -5.0617 H   0  0  0  0  0  0  0  0  0  0  0  0
    2.2567   -0.3879   -3.2443 N   0  0  0  0  0  0  0  0  0  0  0  0
    3.0793   -0.9240   -3.5078 H   0  0  0  0  0  0  0  0  0  0  0  0
    1.6333   -0.4261   -2.0047 C   0  0  0  0  0  0  0  0  0  0  0  0
    1.9210   -1.0244   -1.1447 H   0  0  0  0  0  0  0  0  0  0  0  0
    0.0470    0.3465    1.5629 C   0  0  0  0  0  0  0  0  0  0  0  0
    1.1854    0.1365    1.9846 O   0  0  0  0  0  0  0  0  0  0  0  0
   -0.8551    1.0750    2.2320 N   0  0  0  0  0  0  0  0  0  0  0  0
   -1.7594    1.2031    1.8040 H   0  0  0  0  0  0  0  0  0  0  0  0
   -0.6356    1.6998    3.5400 C   0  0  0  0  0  0  0  0  0  0  0  0
   -0.4284    2.7647    3.4168 H   0  0  0  0  0  0  0  0  0  0  0  0
   -1.5268    1.5885    4.1601 H   0  0  0  0  0  0  0  0  0  0  0  0
    0.2072    1.2358    4.0566 H   0  0  0  0  0  0  0  0  0  0  0  0
  5  6  2  0  0  0  0
  5  7  1  0  0  0  0
  2  3  1  0  0  0  0
  2  4  1  0  0  0  0
  2  5  1  0  0  0  0
  1  2  1  0  0  0  0
 23 24  2  0  0  0  0
 23 25  1  0  0  0  0
 21 22  1  0  0  0  0
 19 20  1  0  0  0  0
 19 21  1  0  0  0  0
 17 18  1  0  0  0  0
 17 19  1  0  0  0  0
 15 16  1  0  0  0  0
 15 17  2  0  0  0  0
 14 15  1  0  0  0  0
 14 21  2  0  0  0  0
 11 12  1  0  0  0  0
 11 13  1  0  0  0  0
 11 14  1  0  0  0  0
  9 10  1  0  0  0  0
  9 11  1  0  0  0  0
  9 23  1  0  0  0  0
  7  8  1  0  0  0  0
  7  9  1  0  0  0  0
 27 28  1  0  0  0  0
 27 29  1  0  0  0  0
 27 30  1  0  0  0  0
 25 26  1  0  0  0  0
 25 27  1  0  0  0  0
M  CHG  1  15   1
M  END
$$$$
default_name
  -OEChem-02102213163D

 30 30  0     1  0  0  0  0  0999 V2000
   -3.5507   -3.2183    1.8116 H   0  0  0  0  0  0  0  0  0  0  0  0
   -3.4597   -2.3913    1.1076 C   0  0  0  0  0  0  0  0  0  0  0  0
   -4.1577   -1.6043    1.3866 H   0  0  0  0  0  0  0  0  0  0  0  0
   -3.6807   -2.7523    0.1036 H   0  0  0  0  0  0  0  0  0  0  0  0
   -2.0477   -1.8543    1.1546 C   0  0  0  0  0  0  0  0  0  0  0  0
   -1.2227   -2.3443    1.9146 O   0  0  0  0  0  0  0  0  0  0  0  0
   -1.7517   -0.8483    0.3266 N   0  0  0  0  0  0  0  0  0  0  0  0
   -2.4847   -0.5123   -0.2804 H   0  0  0  0  0  0  0  0  0  0  0  0
   -0.4117   -0.2463    0.2186 C   0  0  1  0  0  0  0  0  0  0  0  0
    0.2987   -1.0391   -0.0285 H   0  0  0  0  0  0  0  0  0  0  0  0
   -0.4131    0.7505   -0.9636 C   0  0  0  0  0  0  0  0  0  0  0  0
   -1.4493    0.9859   -1.2193 H   0  0  0  0  0  0  0  0  0  0  0  0
    0.0576    1.6822   -0.6428 H   0  0  0  0  0  0  0  0  0  0  0  0
    0.2973    0.2699   -2.2113 C   0  0  0  0  0  0  0  0  0  0  0  0
    0.4224    0.9873   -3.3853 N   0  3  0  0  0  0  0  0  0  0  0  0
    0.0944    1.9511   -3.4962 H   0  0  0  0  0  0  0  0  0  0  0  0
    1.1130    0.2401   -4.2692 C   0  0  0  0  0  0  0  0  0  0  0  0
    1.3797    0.5458   -5.2789 H   0  0  0  0  0  0  0  0  0  0  0  0
    1.4280   -0.9365   -3.6820 N   0  0  0  0  0  0  0  0  0  0  0  0
    1.9500   -1.6965   -4.1103 H   0  0  0  0  0  0  0  0  0  0  0  0
    0.9230   -0.9344   -2.3891 C   0  0  0  0  0  0  0  0  0  0  0  0
    1.0038   -1.7292   -1.6527 H   0  0  0  0  0  0  0  0  0  0  0  0
    0.0470    0.3465    1.5629 C   0  0  0  0  0  0  0  0  0  0  0  0
    1.1854    0.1365    1.9846 O   0  0  0  0  0  0  0  0  0  0  0  0
   -0.8551    1.0750    2.2320 N   0  0  0  0  0  0  0  0  0  0  0  0
   -1.7594    1.2031    1.8040 H   0  0  0  0  0  0  0  0  0  0  0  0
   -0.6356    1.6998    3.5400 C   0  0  0  0  0  0  0  0  0  0  0  0
   -0.4284    2.7647    3.4168 H   0  0  0  0  0  0  0  0  0  0  0  0
   -1.5268    1.5885    4.1601 H   0  0  0  0  0  0  0  0  0  0  0  0
    0.2072    1.2358    4.0566 H   0  0  0  0  0  0  0  0  0  0  0  0
  5  6  2  0  0  0  0
  5  7  1  0  0  0  0
  2  3  1  0  0  0  0
  2  4  1  0  0  0  0
  2  5  1  0  0  0  0
  1  2  1  0  0  0  0
 23 24  2  0  0  0  0
 23 25  1  0  0  0  0
 21 22  1  0  0  0  0
 19 20  1  0  0  0  0
 19 21  1  0  0  0  0
 17 18  1  0  0  0  0
 17 19  1  0  0  0  0
 15 16  1  0  0  0  0
 15 17  2  0  0  0  0
 14 15  1  0  0  0  0
 14 21  2  0  0  0  0
 11 12  1  0  0  0  0
 11 13  1  0  0  0  0
 11 14  1  0  0  0  0
  9 10  1  0  0  0  0
  9 11  1  0  0  0  0
  9 23  1  0  0  0  0
  7  8  1  0  0  0  0
  7  9  1  0  0  0  0
 27 28  1  0  0  0  0
 27 29  1  0  0  0  0
 27 30  1  0  0  0  0
 25 26  1  0  0  0  0
 25 27  1  0  0  0  0
M  CHG  1  15   1
M  END
$$$$
default_name
  -OEChem-02102213163D

 30 30  0     1  0  0  0  0  0999 V2000
   -3.5507   -3.2183    1.8116 H   0  0  0  0  0  0  0  0  0  0  0  0
   -3.4597   -2.3913    1.1076 C   0  0  0  0  0  0  0  0  0  0  0  0
   -4.1577   -1.6043    1.3866 H   0  0  0  0  0  0  0  0  0  0  0  0
   -3.6807   -2.7523    0.1036 H   0  0  0  0  0  0  0  0  0  0  0  0
   -2.0477   -1.8543    1.1546 C   0  0  0  0  0  0  0  0  0  0  0  0
   -1.2227   -2.3443    1.9146 O   0  0  0  0  0  0  0  0  0  0  0  0
   -1.7517   -0.8483    0.3266 N   0  0  0  0  0  0  0  0  0  0  0  0
   -2.4847   -0.5123   -0.2804 H   0  0  0  0  0  0  0  0  0  0  0  0
   -0.4117   -0.2463    0.2186 C   0  0  1  0  0  0  0  0  0  0  0  0
    0.2987   -1.0391   -0.0285 H   0  0  0  0  0  0  0  0  0  0  0  0
   -0.4131    0.7505   -0.9636 C   0  0  0  0  0  0  0  0  0  0  0  0
   -1.4493    0.9859   -1.2193 H   0  0  0  0  0  0  0  0  0  0  0  0
    0.0576    1.6822   -0.6428 H   0  0  0  0  0  0  0  0  0  0  0  0
    0.2973    0.2699   -2.2113 C   0  0  0  0  0  0  0  0  0  0  0  0
    0.6803    1.0701   -3.2703 N   0  3  0  0  0  0  0  0  0  0  0  0
    0.5723    2.0884   -3.2770 H   0  0  0  0  0  0  0  0  0  0  0  0
    1.2813    0.2945   -4.1943 C   0  0  0  0  0  0  0  0  0  0  0  0
    1.7008    0.6461   -5.1348 H   0  0  0  0  0  0  0  0  0  0  0  0
    1.2869   -0.9809   -3.7452 N   0  0  0  0  0  0  0  0  0  0  0  0
    1.6776   -1.7835   -4.2318 H   0  0  0  0  0  0  0  0  0  0  0  0
    0.6725   -1.0141   -2.5010 C   0  0  0  0  0  0  0  0  0  0  0  0
    0.5156   -1.8851   -1.8707 H   0  0  0  0  0  0  0  0  0  0  0  0
    0.0470    0.3465    1.5629 C   0  0  0  0  0  0  0  0  0  0  0  0
    1.1854    0.1365    1.9846 O   0  0  0  0  0  0  0  0  0  0  0  0
   -0.8551    1.0750    2.2320 N   0  0  0  0  0  0  0  0  0  0  0  0
   -1.7594    1.2031    1.8040 H   0  0  0  0  0  0  0  0  0  0  0  0
   -0.6356    1.6998    3.5400 C   0  0  0  0  0  0  0  0  0  0  0  0
   -0.4284    2.7647    3.4168 H   0  0  0  0  0  0  0  0  0  0  0  0
   -1.5268    1.5885    4.1601 H   0  0  0  0  0  0  0  0  0  0  0  0
    0.2072    1.2358    4.0566 H   0  0  0  0  0  0  0  0  0  0  0  0
  5  6  2  0  0  0  0
  5  7  1  0  0  0  0
  2  3  1  0  0  0  0
  2  4  1  0  0  0  0
  2  5  1  0  0  0  0
  1  2  1  0  0  0  0
 23 24  2  0  0  0  0
 23 25  1  0  0  0  0
 21 22  1  0  0  0  0
 19 20  1  0  0  0  0
 19 21  1  0  0  0  0
 17 18  1  0  0  0  0
 17 19  1  0  0  0  0
 15 16  1  0  0  0  0
 15 17  2  0  0  0  0
 14 15  1  0  0  0  0
 14 21  2  0  0  0  0
 11 12  1  0  0  0  0
 11 13  1  0  0  0  0
 11 14  1  0  0  0  0
  9 10  1  0  0  0  0
  9 11  1  0  0  0  0
  9 23  1  0  0  0  0
  7  8  1  0  0  0  0
  7  9  1  0  0  0  0
 27 28  1  0  0  0  0
 27 29  1  0  0  0  0
 27 30  1  0  0  0  0
 25 26  1  0  0  0  0
 25 27  1  0  0  0  0
M  CHG  1  15   1
M  END
$$$$
default_name
  -OEChem-02102213163D

 30 30  0     1  0  0  0  0  0999 V2000
   -3.5507   -3.2183    1.8116 H   0  0  0  0  0  0  0  0  0  0  0  0
   -3.4597   -2.3913    1.1076 C   0  0  0  0  0  0  0  0  0  0  0  0
   -4.1577   -1.6043    1.3866 H   0  0  0  0  0  0  0  0  0  0  0  0
   -3.6807   -2.7523    0.1036 H   0  0  0  0  0  0  0  0  0  0  0  0
   -2.0477   -1.8543    1.1546 C   0  0  0  0  0  0  0  0  0  0  0  0
   -1.2227   -2.3443    1.9146 O   0  0  0  0  0  0  0  0  0  0  0  0
   -1.7517   -0.8483    0.3266 N   0  0  0  0  0  0  0  0  0  0  0  0
   -2.4847   -0.5123   -0.2804 H   0  0  0  0  0  0  0  0  0  0  0  0
   -0.4117   -0.2463    0.2186 C   0  0  1  0  0  0  0  0  0  0  0  0
    0.2987   -1.0391   -0.0285 H   0  0  0  0  0  0  0  0  0  0  0  0
   -0.4131    0.7505   -0.9636 C   0  0  0  0  0  0  0  0  0  0  0  0
   -1.4493    0.9859   -1.2193 H   0  0  0  0  0  0  0  0  0  0  0  0
    0.0576    1.6822   -0.6428 H   0  0  0  0  0  0  0  0  0  0  0  0
    0.2973    0.2699   -2.2113 C   0  0  0  0  0  0  0  0  0  0  0  0
    0.9377    1.0811   -3.1280 N   0  3  0  0  0  0  0  0  0  0  0  0
    1.0453    2.0926   -3.0093 H   0  0  0  0  0  0  0  0  0  0  0  0
    1.4493    0.3019   -4.1016 C   0  0  0  0  0  0  0  0  0  0  0  0
    2.0205    0.6570   -4.9569 H   0  0  0  0  0  0  0  0  0  0  0  0
    1.1464   -0.9861   -3.8232 N   0  0  0  0  0  0  0  0  0  0  0  0
    1.4060   -1.7946   -4.3822 H   0  0  0  0  0  0  0  0  0  0  0  0
    0.4228   -1.0241   -2.6393 C   0  0  0  0  0  0  0  0  0  0  0  0
    0.0286   -1.9050   -2.1402 H   0  0  0  0  0  0  0  0  0  0  0  0
    0.0470    0.3465    1.5629 C   0  0  0  0  0  0  0  0  0  0  0  0
    1.1854    0.1365    1.9846 O   0  0  0  0  0  0  0  0  0  0  0  0
   -0.8551    1.0750    2.2320 N   0  0  0  0  0  0  0  0  0  0  0  0
   -1.7594    1.2031    1.8040 H   0  0  0  0  0  0  0  0  0  0  0  0
   -0.6356    1.6998    3.5400 C   0  0  0  0  0  0  0  0  0  0  0  0
   -0.4284    2.7647    3.4168 H   0  0  0  0  0  0  0  0  0  0  0  0
   -1.5268    1.5885    4.1601 H   0  0  0  0  0  0  0  0  0  0  0  0
    0.2072    1.2358    4.0566 H   0  0  0  0  0  0  0  0  0  0  0  0
  5  6  2  0  0  0  0
  5  7  1  0  0  0  0
  2  3  1  0  0  0  0
  2  4  1  0  0  0  0
  2  5  1  0  0  0  0
  1  2  1  0  0  0  0
 23 24  2  0  0  0  0
 23 25  1  0  0  0  0
 21 22  1  0  0  0  0
 19 20  1  0  0  0  0
 19 21  1  0  0  0  0
 17 18  1  0  0  0  0
 17 19  1  0  0  0  0
 15 16  1  0  0  0  0
 15 17  2  0  0  0  0
 14 15  1  0  0  0  0
 14 21  2  0  0  0  0
 11 12  1  0  0  0  0
 11 13  1  0  0  0  0
 11 14  1  0  0  0  0
  9 10  1  0  0  0  0
  9 11  1  0  0  0  0
  9 23  1  0  0  0  0
  7  8  1  0  0  0  0
  7  9  1  0  0  0  0
 27 28  1  0  0  0  0
 27 29  1  0  0  0  0
 27 30  1  0  0  0  0
 25 26  1  0  0  0  0
 25 27  1  0  0  0  0
M  CHG  1  15   1
M  END
$$$$
default_name
  -OEChem-02102213163D

 30 30  0     1  0  0  0  0  0999 V2000
   -3.5507   -3.2183    1.8116 H   0  0  0  0  0  0  0  0  0  0  0  0
   -3.4597   -2.3913    1.1076 C   0  0  0  0  0  0  0  0  0  0  0  0
   -4.1577   -1.6043    1.3866 H   0  0  0  0  0  0  0  0  0  0  0  0
   -3.6807   -2.7523    0.1036 H   0  0  0  0  0  0  0  0  0  0  0  0
   -2.0477   -1.8543    1.1546 C   0  0  0  0  0  0  0  0  0  0  0  0
   -1.2227   -2.3443    1.9146 O   0  0  0  0  0  0  0  0  0  0  0  0
   -1.7517   -0.8483    0.3266 N   0  0  0  0  0  0  0  0  0  0  0  0
   -2.4847   -0.5123   -0.2804 H   0  0  0  0  0  0  0  0  0  0  0  0
   -0.4117   -0.2463    0.2186 C   0  0  1  0  0  0  0  0  0  0  0  0
    0.2987   -1.0391   -0.0285 H   0  0  0  0  0  0  0  0  0  0  0  0
   -0.4131    0.7505   -0.9636 C   0  0  0  0  0  0  0  0  0  0  0  0
   -1.4493    0.9859   -1.2193 H   0  0  0  0  0  0  0  0  0  0  0  0
    0.0576    1.6822   -0.6428 H   0  0  0  0  0  0  0  0  0  0  0  0
    0.2973    0.2699   -2.2113 C   0  0  0  0  0  0  0  0  0  0  0  0
    1.1770    1.0195   -2.9681 N   0  3  0  0  0  0  0  0  0  0  0  0
    1.4810    1.9632   -2.7114 H   0  0  0  0  0  0  0  0  0  0  0  0
    1.6055    0.2621   -3.9973 C   0  0  0  0  0  0  0  0  0  0  0  0
    2.3171    0.5778   -4.7576 H   0  0  0  0  0  0  0  0  0  0  0  0
    1.0159   -0.9517   -3.9107 N   0  0  0  0  0  0  0  0  0  0  0  0
    1.1536   -1.7292   -4.5510 H   0  0  0  0  0  0  0  0  0  0  0  0
    0.1908   -0.9637   -2.7946 C   0  0  0  0  0  0  0  0  0  0  0  0
   -0.4239   -1.7877   -2.4430 H   0  0  0  0  0  0  0  0  0  0  0  0
    0.0470    0.3465    1.5629 C   0  0  0  0  0  0  0  0  0  0  0  0
    1.1854    0.1365    1.9846 O   0  0  0  0  0  0  0  0  0  0  0  0
   -0.8551    1.0750    2.2320 N   0  0  0  0  0  0  0  0  0  0  0  0
   -1.7594    1.2031    1.8040 H   0  0  0  0  0  0  0  0  0  0  0  0
   -0.6356    1.6998    3.5400 C   0  0  0  0  0  0  0  0  0  0  0  0
   -0.4284    2.7647    3.4168 H   0  0  0  0  0  0  0  0  0  0  0  0
   -1.5268    1.5885    4.1601 H   0  0  0  0  0  0  0  0  0  0  0  0
    0.2072    1.2358    4.0566 H   0  0  0  0  0  0  0  0  0  0  0  0
  5  6  2  0  0  0  0
  5  7  1  0  0  0  0
  2  3  1  0  0  0  0
  2  4  1  0  0  0  0
  2  5  1  0  0  0  0
  1  2  1  0  0  0  0
 23 24  2  0  0  0  0
 23 25  1  0  0  0  0
 21 22  1  0  0  0  0
 19 20  1  0  0  0  0
 19 21  1  0  0  0  0
 17 18  1  0  0  0  0
 17 19  1  0  0  0  0
 15 16  1  0  0  0  0
 15 17  2  0  0  0  0
 14 15  1  0  0  0  0
 14 21  2  0  0  0  0
 11 12  1  0  0  0  0
 11 13  1  0  0  0  0
 11 14  1  0  0  0  0
  9 10  1  0  0  0  0
  9 11  1  0  0  0  0
  9 23  1  0  0  0  0
  7  8  1  0  0  0  0
  7  9  1  0  0  0  0
 27 28  1  0  0  0  0
 27 29  1  0  0  0  0
 27 30  1  0  0  0  0
 25 26  1  0  0  0  0
 25 27  1  0  0  0  0
M  CHG  1  15   1
M  END
$$$$
default_name
  -OEChem-02102213163D

 30 30  0     1  0  0  0  0  0999 V2000
   -3.5507   -3.2183    1.8116 H   0  0  0  0  0  0  0  0  0  0  0  0
   -3.4597   -2.3913    1.1076 C   0  0  0  0  0  0  0  0  0  0  0  0
   -4.1577   -1.6043    1.3866 H   0  0  0  0  0  0  0  0  0  0  0  0
   -3.6807   -2.7523    0.1036 H   0  0  0  0  0  0  0  0  0  0  0  0
   -2.0477   -1.8543    1.1546 C   0  0  0  0  0  0  0  0  0  0  0  0
   -1.2227   -2.3443    1.9146 O   0  0  0  0  0  0  0  0  0  0  0  0
   -1.7517   -0.8483    0.3266 N   0  0  0  0  0  0  0  0  0  0  0  0
   -2.4847   -0.5123   -0.2804 H   0  0  0  0  0  0  0  0  0  0  0  0
   -0.4117   -0.2463    0.2186 C   0  0  1  0  0  0  0  0  0  0  0  0
    0.2987   -1.0391   -0.0285 H   0  0  0  0  0  0  0  0  0  0  0  0
   -0.4131    0.7505   -0.9636 C   0  0  0  0  0  0  0  0  0  0  0  0
   -1.4493    0.9859   -1.2193 H   0  0  0  0  0  0  0  0  0  0  0  0
    0.0576    1.6822   -0.6428 H   0  0  0  0  0  0  0  0  0  0  0  0
    0.2973    0.2699   -2.2113 C   0  0  0  0  0  0  0  0  0  0  0  0
    1.3818    0.8896   -2.8014 N   0  3  0  0  0  0  0  0  0  0  0  0
    1.8497    1.7091   -2.4036 H   0  0  0  0  0  0  0  0  0  0  0  0
    1.7394    0.1776   -3.8885 C   0  0  0  0  0  0  0  0  0  0  0  0
    2.5702    0.4138   -4.5503 H   0  0  0  0  0  0  0  0  0  0  0  0
    0.9045   -0.8800   -4.0018 N   0  0  0  0  0  0  0  0  0  0  0  0
    0.9376   -1.5917   -4.7270 H   0  0  0  0  0  0  0  0  0  0  0  0
   -0.0076   -0.8371   -2.9564 C   0  0  0  0  0  0  0  0  0  0  0  0
   -0.8111   -1.5411   -2.7584 H   0  0  0  0  0  0  0  0  0  0  0  0
    0.0470    0.3465    1.5629 C   0  0  0  0  0  0  0  0  0  0  0  0
    1.1854    0.1365    1.9846 O   0  0  0  0  0  0  0  0  0  0  0  0
   -0.8551    1.0750    2.2320 N   0  0  0  0  0  0  0  0  0  0  0  0
   -1.7594    1.2031    1.8040 H   0  0  0  0  0  0  0  0  0  0  0  0
   -0.6356    1.6998    3.5400 C   0  0  0  0  0  0  0  0  0  0  0  0
   -0.4284    2.7647    3.4168 H   0  0  0  0  0  0  0  0  0  0  0  0
   -1.5268    1.5885    4.1601 H   0  0  0  0  0  0  0  0  0  0  0  0
    0.2072    1.2358    4.0566 H   0  0  0  0  0  0  0  0  0  0  0  0
  5  6  2  0  0  0  0
  5  7  1  0  0  0  0
  2  3  1  0  0  0  0
  2  4  1  0  0  0  0
  2  5  1  0  0  0  0
  1  2  1  0  0  0  0
 23 24  2  0  0  0  0
 23 25  1  0  0  0  0
 21 22  1  0  0  0  0
 19 20  1  0  0  0  0
 19 21  1  0  0  0  0
 17 18  1  0  0  0  0
 17 19  1  0  0  0  0
 15 16  1  0  0  0  0
 15 17  2  0  0  0  0
 14 15  1  0  0  0  0
 14 21  2  0  0  0  0
 11 12  1  0  0  0  0
 11 13  1  0  0  0  0
 11 14  1  0  0  0  0
  9 10  1  0  0  0  0
  9 11  1  0  0  0  0
  9 23  1  0  0  0  0
  7  8  1  0  0  0  0
  7  9  1  0  0  0  0
 27 28  1  0  0  0  0
 27 29  1  0  0  0  0
 27 30  1  0  0  0  0
 25 26  1  0  0  0  0
 25 27  1  0  0  0  0
M  CHG  1  15   1
M  END
$$$$
default_name
  -OEChem-02102213163D

 30 30  0     1  0  0  0  0  0999 V2000
   -3.5507   -3.2183    1.8116 H   0  0  0  0  0  0  0  0  0  0  0  0
   -3.4597   -2.3913    1.1076 C   0  0  0  0  0  0  0  0  0  0  0  0
   -4.1577   -1.6043    1.3866 H   0  0  0  0  0  0  0  0  0  0  0  0
   -3.6807   -2.7523    0.1036 H   0  0  0  0  0  0  0  0  0  0  0  0
   -2.0477   -1.8543    1.1546 C   0  0  0  0  0  0  0  0  0  0  0  0
   -1.2227   -2.3443    1.9146 O   0  0  0  0  0  0  0  0  0  0  0  0
   -1.7517   -0.8483    0.3266 N   0  0  0  0  0  0  0  0  0  0  0  0
   -2.4847   -0.5123   -0.2804 H   0  0  0  0  0  0  0  0  0  0  0  0
   -0.4117   -0.2463    0.2186 C   0  0  1  0  0  0  0  0  0  0  0  0
    0.2987   -1.0391   -0.0285 H   0  0  0  0  0  0  0  0  0  0  0  0
   -0.4131    0.7505   -0.9636 C   0  0  0  0  0  0  0  0  0  0  0  0
   -1.4493    0.9859   -1.2193 H   0  0  0  0  0  0  0  0  0  0  0  0
    0.0576    1.6822   -0.6428 H   0  0  0  0  0  0  0  0  0  0  0  0
    0.2973    0.2699   -2.2113 C   0  0  0  0  0  0  0  0  0  0  0  0
    1.5383    0.7002   -2.6394 N   0  3  0  0  0  0  0  0  0  0  0  0
    2.1265    1.3476   -2.1068 H   0  0  0  0  0  0  0  0  0  0  0  0
    1.8417    0.0542   -3.7828 C   0  0  0  0  0  0  0  0  0  0  0  0
    2.7628    0.1762   -4.3492 H   0  0  0  0  0  0  0  0  0  0  0  0
    0.8196   -0.7759   -4.0902 N   0  0  0  0  0  0  0  0  0  0  0  0
    0.7728   -1.3914   -4.8979 H   0  0  0  0  0  0  0  0  0  0  0  0
   -0.1590   -0.6527   -3.1136 C   0  0  0  0  0  0  0  0  0  0  0  0
   -1.1066   -1.1820   -3.0649 H   0  0  0  0  0  0  0  0  0  0  0  0
    0.0470    0.3465    1.5629 C   0  0  0  0  0  0  0  0  0  0  0  0
    1.1854    0.1365    1.9846 O   0  0  0  0  0  0  0  0  0  0  0  0
   -0.8551    1.0750    2.2320 N   0  0  0  0  0  0  0  0  0  0  0  0
   -1.7594    1.2031    1.8040 H   0  0  0  0  0  0  0  0  0  0  0  0
   -0.6356    1.6998    3.5400 C   0  0  0  0  0  0  0  0  0  0  0  0
   -0.4284    2.7647    3.4168 H   0  0  0  0  0  0  0  0  0  0  0  0
   -1.5268    1.5885    4.1601 H   0  0  0  0  0  0  0  0  0  0  0  0
    0.2072    1.2358    4.0566 H   0  0  0  0  0  0  0  0  0  0  0  0
  5  6  2  0  0  0  0
  5  7  1  0  0  0  0
  2  3  1  0  0  0  0
  2  4  1  0  0  0  0
  2  5  1  0  0  0  0
  1  2  1  0  0  0  0
 23 24  2  0  0  0  0
 23 25  1  0  0  0  0
 21 22  1  0  0  0  0
 19 20  1  0  0  0  0
 19 21  1  0  0  0  0
 17 18  1  0  0  0  0
 17 19  1  0  0  0  0
 15 16  1  0  0  0  0
 15 17  2  0  0  0  0
 14 15  1  0  0  0  0
 14 21  2  0  0  0  0
 11 12  1  0  0  0  0
 11 13  1  0  0  0  0
 11 14  1  0  0  0  0
  9 10  1  0  0  0  0
  9 11  1  0  0  0  0
  9 23  1  0  0  0  0
  7  8  1  0  0  0  0
  7  9  1  0  0  0  0
 27 28  1  0  0  0  0
 27 29  1  0  0  0  0
 27 30  1  0  0  0  0
 25 26  1  0  0  0  0
 25 27  1  0  0  0  0
M  CHG  1  15   1
M  END
$$$$
default_name
  -OEChem-02102213163D

 30 30  0     1  0  0  0  0  0999 V2000
   -3.5507   -3.2183    1.8116 H   0  0  0  0  0  0  0  0  0  0  0  0
   -3.4597   -2.3913    1.1076 C   0  0  0  0  0  0  0  0  0  0  0  0
   -4.1577   -1.6043    1.3866 H   0  0  0  0  0  0  0  0  0  0  0  0
   -3.6807   -2.7523    0.1036 H   0  0  0  0  0  0  0  0  0  0  0  0
   -2.0477   -1.8543    1.1546 C   0  0  0  0  0  0  0  0  0  0  0  0
   -1.2227   -2.3443    1.9146 O   0  0  0  0  0  0  0  0  0  0  0  0
   -1.7517   -0.8483    0.3266 N   0  0  0  0  0  0  0  0  0  0  0  0
   -2.4847   -0.5123   -0.2804 H   0  0  0  0  0  0  0  0  0  0  0  0
   -0.4117   -0.2463    0.2186 C   0  0  1  0  0  0  0  0  0  0  0  0
    0.2987   -1.0391   -0.0285 H   0  0  0  0  0  0  0  0  0  0  0  0
   -0.4131    0.7505   -0.9636 C   0  0  0  0  0  0  0  0  0  0  0  0
   -1.4493    0.9859   -1.2193 H   0  0  0  0  0  0  0  0  0  0  0  0
    0.0576    1.6822   -0.6428 H   0  0  0  0  0  0  0  0  0  0  0  0
    0.2973    0.2699   -2.2113 C   0  0  0  0  0  0  0  0  0  0  0  0
    1.6357    0.4642   -2.4930 N   0  3  0  0  0  0  0  0  0  0  0  0
    2.2923    0.9034   -1.8413 H   0  0  0  0  0  0  0  0  0  0  0  0
    1.9056   -0.0996   -3.6872 C   0  0  0  0  0  0  0  0  0  0  0  0
    2.8815   -0.1187   -4.1680 H   0  0  0  0  0  0  0  0  0  0  0  0
    0.7671   -0.6465   -4.1699 N   0  0  0  0  0  0  0  0  0  0  0  0
    0.6703   -1.1421   -5.0523 H   0  0  0  0  0  0  0  0  0  0  0  0
   -0.2529   -0.4233   -3.2554 C   0  0  0  0  0  0  0  0  0  0  0  0
   -1.2902   -0.7349   -3.3417 H   0  0  0  0  0  0  0  0  0  0  0  0
    0.0470    0.3465    1.5629 C   0  0  0  0  0  0  0  0  0  0  0  0
    1.1854    0.1365    1.9846 O   0  0  0  0  0  0  0  0  0  0  0  0
   -0.8551    1.0750    2.2320 N   0  0  0  0  0  0  0  0  0  0  0  0
   -1.7594    1.2031    1.8040 H   0  0  0  0  0  0  0  0  0  0  0  0
   -0.6356    1.6998    3.5400 C   0  0  0  0  0  0  0  0  0  0  0  0
   -0.4284    2.7647    3.4168 H   0  0  0  0  0  0  0  0  0  0  0  0
   -1.5268    1.5885    4.1601 H   0  0  0  0  0  0  0  0  0  0  0  0
    0.2072    1.2358    4.0566 H   0  0  0  0  0  0  0  0  0  0  0  0
  5  6  2  0  0  0  0
  5  7  1  0  0  0  0
  2  3  1  0  0  0  0
  2  4  1  0  0  0  0
  2  5  1  0  0  0  0
  1  2  1  0  0  0  0
 23 24  2  0  0  0  0
 23 25  1  0  0  0  0
 21 22  1  0  0  0  0
 19 20  1  0  0  0  0
 19 21  1  0  0  0  0
 17 18  1  0  0  0  0
 17 19  1  0  0  0  0
 15 16  1  0  0  0  0
 15 17  2  0  0  0  0
 14 15  1  0  0  0  0
 14 21  2  0  0  0  0
 11 12  1  0  0  0  0
 11 13  1  0  0  0  0
 11 14  1  0  0  0  0
  9 10  1  0  0  0  0
  9 11  1  0  0  0  0
  9 23  1  0  0  0  0
  7  8  1  0  0  0  0
  7  9  1  0  0  0  0
 27 28  1  0  0  0  0
 27 29  1  0  0  0  0
 27 30  1  0  0  0  0
 25 26  1  0  0  0  0
 25 27  1  0  0  0  0
M  CHG  1  15   1
M  END
$$$$
default_name
  -OEChem-02102213163D

 30 30  0     1  0  0  0  0  0999 V2000
   -3.5507   -3.2183    1.8116 H   0  0  0  0  0  0  0  0  0  0  0  0
   -3.4597   -2.3913    1.1076 C   0  0  0  0  0  0  0  0  0  0  0  0
   -4.1577   -1.6043    1.3866 H   0  0  0  0  0  0  0  0  0  0  0  0
   -3.6807   -2.7523    0.1036 H   0  0  0  0  0  0  0  0  0  0  0  0
   -2.0477   -1.8543    1.1546 C   0  0  0  0  0  0  0  0  0  0  0  0
   -1.2227   -2.3443    1.9146 O   0  0  0  0  0  0  0  0  0  0  0  0
   -1.7517   -0.8483    0.3266 N   0  0  0  0  0  0  0  0  0  0  0  0
   -2.4847   -0.5123   -0.2804 H   0  0  0  0  0  0  0  0  0  0  0  0
   -0.4117   -0.2463    0.2186 C   0  0  1  0  0  0  0  0  0  0  0  0
    0.2987   -1.0391   -0.0285 H   0  0  0  0  0  0  0  0  0  0  0  0
   -0.4131    0.7505   -0.9636 C   0  0  0  0  0  0  0  0  0  0  0  0
   -1.4493    0.9859   -1.2193 H   0  0  0  0  0  0  0  0  0  0  0  0
    0.0576    1.6822   -0.6428 H   0  0  0  0  0  0  0  0  0  0  0  0
    0.2973    0.2699   -2.2113 C   0  0  0  0  0  0  0  0  0  0  0  0
    1.6674    0.1976   -2.3723 N   0  3  0  0  0  0  0  0  0  0  0  0
    2.3359    0.4067   -1.6252 H   0  0  0  0  0  0  0  0  0  0  0  0
    1.9266   -0.2734   -3.6082 C   0  0  0  0  0  0  0  0  0  0  0  0
    2.9184   -0.4510   -4.0190 H   0  0  0  0  0  0  0  0  0  0  0  0
    0.7505   -0.5006   -4.2356 N   0  0  0  0  0  0  0  0  0  0  0  0
    0.6373   -0.8606   -5.1796 H   0  0  0  0  0  0  0  0  0  0  0  0
   -0.2831   -0.1645   -3.3723 C   0  0  0  0  0  0  0  0  0  0  0  0
   -1.3495   -0.2303   -3.5698 H   0  0  0  0  0  0  0  0  0  0  0  0
    0.0470    0.3465    1.5629 C   0  0  0  0  0  0  0  0  0  0  0  0
    1.1854    0.1365    1.9846 O   0  0  0  0  0  0  0  0  0  0  0  0
   -0.8551    1.0750    2.2320 N   0  0  0  0  0  0  0  0  0  0  0  0
   -1.7594    1.2031    1.8040 H   0  0  0  0  0  0  0  0  0  0  0  0
   -0.6356    1.6998    3.5400 C   0  0  0  0  0  0  0  0  0  0  0  0
   -0.4284    2.7647    3.4168 H   0  0  0  0  0  0  0  0  0  0  0  0
   -1.5268    1.5885    4.1601 H   0  0  0  0  0  0  0  0  0  0  0  0
    0.2072    1.2358    4.0566 H   0  0  0  0  0  0  0  0  0  0  0  0
  5  6  2  0  0  0  0
  5  7  1  0  0  0  0
  2  3  1  0  0  0  0
  2  4  1  0  0  0  0
  2  5  1  0  0  0  0
  1  2  1  0  0  0  0
 23 24  2  0  0  0  0
 23 25  1  0  0  0  0
 21 22  1  0  0  0  0
 19 20  1  0  0  0  0
 19 21  1  0  0  0  0
 17 18  1  0  0  0  0
 17 19  1  0  0  0  0
 15 16  1  0  0  0  0
 15 17  2  0  0  0  0
 14 15  1  0  0  0  0
 14 21  2  0  0  0  0
 11 12  1  0  0  0  0
 11 13  1  0  0  0  0
 11 14  1  0  0  0  0
  9 10  1  0  0  0  0
  9 11  1  0  0  0  0
  9 23  1  0  0  0  0
  7  8  1  0  0  0  0
  7  9  1  0  0  0  0
 27 28  1  0  0  0  0
 27 29  1  0  0  0  0
 27 30  1  0  0  0  0
 25 26  1  0  0  0  0
 25 27  1  0  0  0  0
M  CHG  1  15   1
M  END
$$$$
default_name
  -OEChem-02102213163D

 30 30  0     1  0  0  0  0  0999 V2000
   -3.5507   -3.2183    1.8116 H   0  0  0  0  0  0  0  0  0  0  0  0
   -3.4597   -2.3913    1.1076 C   0  0  0  0  0  0  0  0  0  0  0  0
   -4.1577   -1.6043    1.3866 H   0  0  0  0  0  0  0  0  0  0  0  0
   -3.6807   -2.7523    0.1036 H   0  0  0  0  0  0  0  0  0  0  0  0
   -2.0477   -1.8543    1.1546 C   0  0  0  0  0  0  0  0  0  0  0  0
   -1.2227   -2.3443    1.9146 O   0  0  0  0  0  0  0  0  0  0  0  0
   -1.7517   -0.8483    0.3266 N   0  0  0  0  0  0  0  0  0  0  0  0
   -2.4847   -0.5123   -0.2804 H   0  0  0  0  0  0  0  0  0  0  0  0
   -0.4117   -0.2463    0.2186 C   0  0  1  0  0  0  0  0  0  0  0  0
    0.2987   -1.0391   -0.0285 H   0  0  0  0  0  0  0  0  0  0  0  0
   -0.4131    0.7505   -0.9636 C   0  0  0  0  0  0  0  0  0  0  0  0
   -1.4493    0.9859   -1.2193 H   0  0  0  0  0  0  0  0  0  0  0  0
    0.0576    1.6822   -0.6428 H   0  0  0  0  0  0  0  0  0  0  0  0
    0.2973    0.2699   -2.2113 C   0  0  0  0  0  0  0  0  0  0  0  0
    1.6313   -0.0812   -2.2854 N   0  3  0  0  0  0  0  0  0  0  0  0
    2.2544   -0.1086   -1.4732 H   0  0  0  0  0  0  0  0  0  0  0  0
    1.9033   -0.4554   -3.5514 C   0  0  0  0  0  0  0  0  0  0  0  0
    2.8710   -0.7979   -3.9124 H   0  0  0  0  0  0  0  0  0  0  0  0
    0.7709   -0.3482   -4.2826 N   0  0  0  0  0  0  0  0  0  0  0  0
    0.6758   -0.5662   -5.2710 H   0  0  0  0  0  0  0  0  0  0  0  0
   -0.2475    0.1062   -3.4563 C   0  0  0  0  0  0  0  0  0  0  0  0
   -1.2804    0.2975   -3.7337 H   0  0  0  0  0  0  0  0  0  0  0  0
    0.0470    0.3465    1.5629 C   0  0  0  0  0  0  0  0  0  0  0  0
    1.1854    0.1365    1.9846 O   0  0  0  0  0  0  0  0  0  0  0  0
   -0.8551    1.0750    2.2320 N   0  0  0  0  0  0  0  0  0  0  0  0
   -1.7594    1.2031    1.8040 H   0  0  0  0  0  0  0  0  0  0  0  0
   -0.6356    1.6998    3.5400 C   0  0  0  0  0  0  0  0  0  0  0  0
   -0.4284    2.7647    3.4168 H   0  0  0  0  0  0  0  0  0  0  0  0
   -1.5268    1.5885    4.1601 H   0  0  0  0  0  0  0  0  0  0  0  0
    0.2072    1.2358    4.0566 H   0  0  0  0  0  0  0  0  0  0  0  0
  5  6  2  0  0  0  0
  5  7  1  0  0  0  0
  2  3  1  0  0  0  0
  2  4  1  0  0  0  0
  2  5  1  0  0  0  0
  1  2  1  0  0  0  0
 23 24  2  0  0  0  0
 23 25  1  0  0  0  0
 21 22  1  0  0  0  0
 19 20  1  0  0  0  0
 19 21  1  0  0  0  0
 17 18  1  0  0  0  0
 17 19  1  0  0  0  0
 15 16  1  0  0  0  0
 15 17  2  0  0  0  0
 14 15  1  0  0  0  0
 14 21  2  0  0  0  0
 11 12  1  0  0  0  0
 11 13  1  0  0  0  0
 11 14  1  0  0  0  0
  9 10  1  0  0  0  0
  9 11  1  0  0  0  0
  9 23  1  0  0  0  0
  7  8  1  0  0  0  0
  7  9  1  0  0  0  0
 27 28  1  0  0  0  0
 27 29  1  0  0  0  0
 27 30  1  0  0  0  0
 25 26  1  0  0  0  0
 25 27  1  0  0  0  0
M  CHG  1  15   1
M  END
$$$$
default_name
  -OEChem-02102213163D

 30 30  0     1  0  0  0  0  0999 V2000
   -3.5507   -3.2183    1.8116 H   0  0  0  0  0  0  0  0  0  0  0  0
   -3.4597   -2.3913    1.1076 C   0  0  0  0  0  0  0  0  0  0  0  0
   -4.1577   -1.6043    1.3866 H   0  0  0  0  0  0  0  0  0  0  0  0
   -3.6807   -2.7523    0.1036 H   0  0  0  0  0  0  0  0  0  0  0  0
   -2.0477   -1.8543    1.1546 C   0  0  0  0  0  0  0  0  0  0  0  0
   -1.2227   -2.3443    1.9146 O   0  0  0  0  0  0  0  0  0  0  0  0
   -1.7517   -0.8483    0.3266 N   0  0  0  0  0  0  0  0  0  0  0  0
   -2.4847   -0.5123   -0.2804 H   0  0  0  0  0  0  0  0  0  0  0  0
   -0.4117   -0.2463    0.2186 C   0  0  1  0  0  0  0  0  0  0  0  0
    0.2987   -1.0391   -0.0285 H   0  0  0  0  0  0  0  0  0  0  0  0
   -0.4131    0.7505   -0.9636 C   0  0  0  0  0  0  0  0  0  0  0  0
   -1.4493    0.9859   -1.2193 H   0  0  0  0  0  0  0  0  0  0  0  0
    0.0576    1.6822   -0.6428 H   0  0  0  0  0  0  0  0  0  0  0  0
    0.2973    0.2699   -2.2113 C   0  0  0  0  0  0  0  0  0  0  0  0
    1.5298   -0.3534   -2.2384 N   0  3  0  0  0  0  0  0  0  0  0  0
    2.0532   -0.6074   -1.3956 H   0  0  0  0  0  0  0  0  0  0  0  0
    1.8374   -0.6331   -3.5205 C   0  0  0  0  0  0  0  0  0  0  0  0
    2.7424   -1.1358   -3.8554 H   0  0  0  0  0  0  0  0  0  0  0  0
    0.8271   -0.1997   -4.3079 N   0  0  0  0  0  0  0  0  0  0  0  0
    0.7833   -0.2790   -5.3204 H   0  0  0  0  0  0  0  0  0  0  0  0
   -0.1484    0.3703   -3.5016 C   0  0  0  0  0  0  0  0  0  0  0  0
   -1.0876    0.8124   -3.8223 H   0  0  0  0  0  0  0  0  0  0  0  0
    0.0470    0.3465    1.5629 C   0  0  0  0  0  0  0  0  0  0  0  0
    1.1854    0.1365    1.9846 O   0  0  0  0  0  0  0  0  0  0  0  0
   -0.8551    1.0750    2.2320 N   0  0  0  0  0  0  0  0  0  0  0  0
   -1.7594    1.2031    1.8040 H   0  0  0  0  0  0  0  0  0  0  0  0
   -0.6356    1.6998    3.5400 C   0  0  0  0  0  0  0  0  0  0  0  0
   -0.4284    2.7647    3.4168 H   0  0  0  0  0  0  0  0  0  0  0  0
   -1.5268    1.5885    4.1601 H   0  0  0  0  0  0  0  0  0  0  0  0
    0.2072    1.2358    4.0566 H   0  0  0  0  0  0  0  0  0  0  0  0
  5  6  2  0  0  0  0
  5  7  1  0  0  0  0
  2  3  1  0  0  0  0
  2  4  1  0  0  0  0
  2  5  1  0  0  0  0
  1  2  1  0  0  0  0
 23 24  2  0  0  0  0
 23 25  1  0  0  0  0
 21 22  1  0  0  0  0
 19 20  1  0  0  0  0
 19 21  1  0  0  0  0
 17 18  1  0  0  0  0
 17 19  1  0  0  0  0
 15 16  1  0  0  0  0
 15 17  2  0  0  0  0
 14 15  1  0  0  0  0
 14 21  2  0  0  0  0
 11 12  1  0  0  0  0
 11 13  1  0  0  0  0
 11 14  1  0  0  0  0
  9 10  1  0  0  0  0
  9 11  1  0  0  0  0
  9 23  1  0  0  0  0
  7  8  1  0  0  0  0
  7  9  1  0  0  0  0
 27 28  1  0  0  0  0
 27 29  1  0  0  0  0
 27 30  1  0  0  0  0
 25 26  1  0  0  0  0
 25 27  1  0  0  0  0
M  CHG  1  15   1
M  END
$$$$
default_name
  -OEChem-02102213163D

 30 30  0     1  0  0  0  0  0999 V2000
   -3.5507   -3.2183    1.8116 H   0  0  0  0  0  0  0  0  0  0  0  0
   -3.4597   -2.3913    1.1076 C   0  0  0  0  0  0  0  0  0  0  0  0
   -4.1577   -1.6043    1.3866 H   0  0  0  0  0  0  0  0  0  0  0  0
   -3.6807   -2.7523    0.1036 H   0  0  0  0  0  0  0  0  0  0  0  0
   -2.0477   -1.8543    1.1546 C   0  0  0  0  0  0  0  0  0  0  0  0
   -1.2227   -2.3443    1.9146 O   0  0  0  0  0  0  0  0  0  0  0  0
   -1.7517   -0.8483    0.3266 N   0  0  0  0  0  0  0  0  0  0  0  0
   -2.4847   -0.5123   -0.2804 H   0  0  0  0  0  0  0  0  0  0  0  0
   -0.4117   -0.2463    0.2186 C   0  0  1  0  0  0  0  0  0  0  0  0
    0.2987   -1.0391   -0.0285 H   0  0  0  0  0  0  0  0  0  0  0  0
   -0.4131    0.7505   -0.9636 C   0  0  0  0  0  0  0  0  0  0  0  0
   -1.4493    0.9859   -1.2193 H   0  0  0  0  0  0  0  0  0  0  0  0
    0.0576    1.6822   -0.6428 H   0  0  0  0  0  0  0  0  0  0  0  0
    0.2973    0.2699   -2.2113 C   0  0  0  0  0  0  0  0  0  0  0  0
    1.3698   -0.6004   -2.2343 N   0  3  0  0  0  0  0  0  0  0  0  0
    1.7461   -1.0558   -1.3977 H   0  0  0  0  0  0  0  0  0  0  0  0
    1.7332   -0.7944   -3.5177 C   0  0  0  0  0  0  0  0  0  0  0  0
    2.5415   -1.4416   -3.8520 H   0  0  0  0  0  0  0  0  0  0  0  0
    0.9151   -0.0651   -4.3096 N   0  0  0  0  0  0  0  0  0  0  0  0
    0.9524   -0.0185   -5.3245 H   0  0  0  0  0  0  0  0  0  0  0  0
    0.0073    0.6097   -3.5051 C   0  0  0  0  0  0  0  0  0  0  0  0
   -0.7843    1.2795   -3.8295 H   0  0  0  0  0  0  0  0  0  0  0  0
    0.0470    0.3465    1.5629 C   0  0  0  0  0  0  0  0  0  0  0  0
    1.1854    0.1365    1.9846 O   0  0  0  0  0  0  0  0  0  0  0  0
   -0.8551    1.0750    2.2320 N   0  0  0  0  0  0  0  0  0  0  0  0
   -1.7594    1.2031    1.8040 H   0  0  0  0  0  0  0  0  0  0  0  0
   -0.6356    1.6998    3.5400 C   0  0  0  0  0  0  0  0  0  0  0  0
   -0.4284    2.7647    3.4168 H   0  0  0  0  0  0  0  0  0  0  0  0
   -1.5268    1.5885    4.1601 H   0  0  0  0  0  0  0  0  0  0  0  0
    0.2072    1.2358    4.0566 H   0  0  0  0  0  0  0  0  0  0  0  0
  5  6  2  0  0  0  0
  5  7  1  0  0  0  0
  2  3  1  0  0  0  0
  2  4  1  0  0  0  0
  2  5  1  0  0  0  0
  1  2  1  0  0  0  0
 23 24  2  0  0  0  0
 23 25  1  0  0  0  0
 21 22  1  0  0  0  0
 19 20  1  0  0  0  0
 19 21  1  0  0  0  0
 17 18  1  0  0  0  0
 17 19  1  0  0  0  0
 15 16  1  0  0  0  0
 15 17  2  0  0  0  0
 14 15  1  0  0  0  0
 14 21  2  0  0  0  0
 11 12  1  0  0  0  0
 11 13  1  0  0  0  0
 11 14  1  0  0  0  0
  9 10  1  0  0  0  0
  9 11  1  0  0  0  0
  9 23  1  0  0  0  0
  7  8  1  0  0  0  0
  7  9  1  0  0  0  0
 27 28  1  0  0  0  0
 27 29  1  0  0  0  0
 27 30  1  0  0  0  0
 25 26  1  0  0  0  0
 25 27  1  0  0  0  0
M  CHG  1  15   1
M  END
$$$$
default_name
  -OEChem-02102213163D

 30 30  0     1  0  0  0  0  0999 V2000
   -3.5507   -3.2183    1.8116 H   0  0  0  0  0  0  0  0  0  0  0  0
   -3.4597   -2.3913    1.1076 C   0  0  0  0  0  0  0  0  0  0  0  0
   -4.1577   -1.6043    1.3866 H   0  0  0  0  0  0  0  0  0  0  0  0
   -3.6807   -2.7523    0.1036 H   0  0  0  0  0  0  0  0  0  0  0  0
   -2.0477   -1.8543    1.1546 C   0  0  0  0  0  0  0  0  0  0  0  0
   -1.2227   -2.3443    1.9146 O   0  0  0  0  0  0  0  0  0  0  0  0
   -1.7517   -0.8483    0.3266 N   0  0  0  0  0  0  0  0  0  0  0  0
   -2.4847   -0.5123   -0.2804 H   0  0  0  0  0  0  0  0  0  0  0  0
   -0.4117   -0.2463    0.2186 C   0  0  1  0  0  0  0  0  0  0  0  0
    0.2987   -1.0391   -0.0285 H   0  0  0  0  0  0  0  0  0  0  0  0
   -0.4131    0.7505   -0.9636 C   0  0  0  0  0  0  0  0  0  0  0  0
   -1.4493    0.9859   -1.2193 H   0  0  0  0  0  0  0  0  0  0  0  0
    0.0576    1.6822   -0.6428 H   0  0  0  0  0  0  0  0  0  0  0  0
    0.2973    0.2699   -2.2113 C   0  0  0  0  0  0  0  0  0  0  0  0
    1.1623   -0.8054   -2.2735 N   0  3  0  0  0  0  0  0  0  0  0  0
    1.3540   -1.4230   -1.4795 H   0  0  0  0  0  0  0  0  0  0  0  0
    1.5980   -0.9284   -3.5431 C   0  0  0  0  0  0  0  0  0  0  0  0
    2.2819   -1.6947   -3.9024 H   0  0  0  0  0  0  0  0  0  0  0  0
    1.0290    0.0464   -4.2877 N   0  0  0  0  0  0  0  0  0  0  0  0
    1.1717    0.1976   -5.2828 H   0  0  0  0  0  0  0  0  0  0  0  0
    0.2091    0.8082   -3.4667 C   0  0  0  0  0  0  0  0  0  0  0  0
   -0.3911    1.6668   -3.7548 H   0  0  0  0  0  0  0  0  0  0  0  0
    0.0470    0.3465    1.5629 C   0  0  0  0  0  0  0  0  0  0  0  0
    1.1854    0.1365    1.9846 O   0  0  0  0  0  0  0  0  0  0  0  0
   -0.8551    1.0750    2.2320 N   0  0  0  0  0  0  0  0  0  0  0  0
   -1.7594    1.2031    1.8040 H   0  0  0  0  0  0  0  0  0  0  0  0
   -0.6356    1.6998    3.5400 C   0  0  0  0  0  0  0  0  0  0  0  0
   -0.4284    2.7647    3.4168 H   0  0  0  0  0  0  0  0  0  0  0  0
   -1.5268    1.5885    4.1601 H   0  0  0  0  0  0  0  0  0  0  0  0
    0.2072    1.2358    4.0566 H   0  0  0  0  0  0  0  0  0  0  0  0
  5  6  2  0  0  0  0
  5  7  1  0  0  0  0
  2  3  1  0  0  0  0
  2  4  1  0  0  0  0
  2  5  1  0  0  0  0
  1  2  1  0  0  0  0
 23 24  2  0  0  0  0
 23 25  1  0  0  0  0
 21 22  1  0  0  0  0
 19 20  1  0  0  0  0
 19 21  1  0  0  0  0
 17 18  1  0  0  0  0
 17 19  1  0  0  0  0
 15 16  1  0  0  0  0
 15 17  2  0  0  0  0
 14 15  1  0  0  0  0
 14 21  2  0  0  0  0
 11 12  1  0  0  0  0
 11 13  1  0  0  0  0
 11 14  1  0  0  0  0
  9 10  1  0  0  0  0
  9 11  1  0  0  0  0
  9 23  1  0  0  0  0
  7  8  1  0  0  0  0
  7  9  1  0  0  0  0
 27 28  1  0  0  0  0
 27 29  1  0  0  0  0
 27 30  1  0  0  0  0
 25 26  1  0  0  0  0
 25 27  1  0  0  0  0
M  CHG  1  15   1
M  END
$$$$
default_name
  -OEChem-02102213163D

 30 30  0     1  0  0  0  0  0999 V2000
   -3.5507   -3.2183    1.8116 H   0  0  0  0  0  0  0  0  0  0  0  0
   -3.4597   -2.3913    1.1076 C   0  0  0  0  0  0  0  0  0  0  0  0
   -4.1577   -1.6043    1.3866 H   0  0  0  0  0  0  0  0  0  0  0  0
   -3.6807   -2.7523    0.1036 H   0  0  0  0  0  0  0  0  0  0  0  0
   -2.0477   -1.8543    1.1546 C   0  0  0  0  0  0  0  0  0  0  0  0
   -1.2227   -2.3443    1.9146 O   0  0  0  0  0  0  0  0  0  0  0  0
   -1.7517   -0.8483    0.3266 N   0  0  0  0  0  0  0  0  0  0  0  0
   -2.4847   -0.5123   -0.2804 H   0  0  0  0  0  0  0  0  0  0  0  0
   -0.4117   -0.2463    0.2186 C   0  0  1  0  0  0  0  0  0  0  0  0
    0.2987   -1.0391   -0.0285 H   0  0  0  0  0  0  0  0  0  0  0  0
   -0.4131    0.7505   -0.9636 C   0  0  0  0  0  0  0  0  0  0  0  0
   -1.4493    0.9859   -1.2193 H   0  0  0  0  0  0  0  0  0  0  0  0
    0.0576    1.6822   -0.6428 H   0  0  0  0  0  0  0  0  0  0  0  0
    0.2973    0.2699   -2.2113 C   0  0  0  0  0  0  0  0  0  0  0  0
    0.9214   -0.9543   -2.3533 N   0  3  0  0  0  0  0  0  0  0  0  0
    0.9036   -1.6843   -1.6353 H   0  0  0  0  0  0  0  0  0  0  0  0
    1.4409   -1.0258   -3.5950 C   0  0  0  0  0  0  0  0  0  0  0  0
    1.9813   -1.8776   -4.0031 H   0  0  0  0  0  0  0  0  0  0  0  0
    1.1609    0.1271   -4.2437 N   0  0  0  0  0  0  0  0  0  0  0  0
    1.4262    0.3544   -5.1984 H   0  0  0  0  0  0  0  0  0  0  0  0
    0.4432    0.9522   -3.3889 C   0  0  0  0  0  0  0  0  0  0  0  0
    0.0652    1.9480   -3.6034 H   0  0  0  0  0  0  0  0  0  0  0  0
    0.0470    0.3465    1.5629 C   0  0  0  0  0  0  0  0  0  0  0  0
    1.1854    0.1365    1.9846 O   0  0  0  0  0  0  0  0  0  0  0  0
   -0.8551    1.0750    2.2320 N   0  0  0  0  0  0  0  0  0  0  0  0
   -1.7594    1.2031    1.8040 H   0  0  0  0  0  0  0  0  0  0  0  0
   -0.6356    1.6998    3.5400 C   0  0  0  0  0  0  0  0  0  0  0  0
   -0.4284    2.7647    3.4168 H   0  0  0  0  0  0  0  0  0  0  0  0
   -1.5268    1.5885    4.1601 H   0  0  0  0  0  0  0  0  0  0  0  0
    0.2072    1.2358    4.0566 H   0  0  0  0  0  0  0  0  0  0  0  0
  5  6  2  0  0  0  0
  5  7  1  0  0  0  0
  2  3  1  0  0  0  0
  2  4  1  0  0  0  0
  2  5  1  0  0  0  0
  1  2  1  0  0  0  0
 23 24  2  0  0  0  0
 23 25  1  0  0  0  0
 21 22  1  0  0  0  0
 19 20  1  0  0  0  0
 19 21  1  0  0  0  0
 17 18  1  0  0  0  0
 17 19  1  0  0  0  0
 15 16  1  0  0  0  0
 15 17  2  0  0  0  0
 14 15  1  0  0  0  0
 14 21  2  0  0  0  0
 11 12  1  0  0  0  0
 11 13  1  0  0  0  0
 11 14  1  0  0  0  0
  9 10  1  0  0  0  0
  9 11  1  0  0  0  0
  9 23  1  0  0  0  0
  7  8  1  0  0  0  0
  7  9  1  0  0  0  0
 27 28  1  0  0  0  0
 27 29  1  0  0  0  0
 27 30  1  0  0  0  0
 25 26  1  0  0  0  0
 25 27  1  0  0  0  0
M  CHG  1  15   1
M  END
$$$$
default_name
  -OEChem-02102213163D

 30 30  0     1  0  0  0  0  0999 V2000
   -3.5507   -3.2183    1.8116 H   0  0  0  0  0  0  0  0  0  0  0  0
   -3.4597   -2.3913    1.1076 C   0  0  0  0  0  0  0  0  0  0  0  0
   -4.1577   -1.6043    1.3866 H   0  0  0  0  0  0  0  0  0  0  0  0
   -3.6807   -2.7523    0.1036 H   0  0  0  0  0  0  0  0  0  0  0  0
   -2.0477   -1.8543    1.1546 C   0  0  0  0  0  0  0  0  0  0  0  0
   -1.2227   -2.3443    1.9146 O   0  0  0  0  0  0  0  0  0  0  0  0
   -1.7517   -0.8483    0.3266 N   0  0  0  0  0  0  0  0  0  0  0  0
   -2.4847   -0.5123   -0.2804 H   0  0  0  0  0  0  0  0  0  0  0  0
   -0.4117   -0.2463    0.2186 C   0  0  1  0  0  0  0  0  0  0  0  0
    0.2987   -1.0391   -0.0285 H   0  0  0  0  0  0  0  0  0  0  0  0
   -0.4131    0.7505   -0.9636 C   0  0  0  0  0  0  0  0  0  0  0  0
   -1.4493    0.9859   -1.2193 H   0  0  0  0  0  0  0  0  0  0  0  0
    0.0576    1.6822   -0.6428 H   0  0  0  0  0  0  0  0  0  0  0  0
    0.2973    0.2699   -2.2113 C   0  0  0  0  0  0  0  0  0  0  0  0
    0.6634   -1.0371   -2.4683 N   0  3  0  0  0  0  0  0  0  0  0  0
    0.4257   -1.8216   -1.8545 H   0  0  0  0  0  0  0  0  0  0  0  0
    1.2726   -1.0802   -3.6699 C   0  0  0  0  0  0  0  0  0  0  0  0
    1.6602   -1.9779   -4.1472 H   0  0  0  0  0  0  0  0  0  0  0  0
    1.3019    0.1715   -4.1805 N   0  0  0  0  0  0  0  0  0  0  0  0
    1.6986    0.4414   -5.0768 H   0  0  0  0  0  0  0  0  0  0  0  0
    0.6936    1.0319   -3.2770 C   0  0  0  0  0  0  0  0  0  0  0  0
    0.5535    2.1039   -3.3854 H   0  0  0  0  0  0  0  0  0  0  0  0
    0.0470    0.3465    1.5629 C   0  0  0  0  0  0  0  0  0  0  0  0
    1.1854    0.1365    1.9846 O   0  0  0  0  0  0  0  0  0  0  0  0
   -0.8551    1.0750    2.2320 N   0  0  0  0  0  0  0  0  0  0  0  0
   -1.7594    1.2031    1.8040 H   0  0  0  0  0  0  0  0  0  0  0  0
   -0.6356    1.6998    3.5400 C   0  0  0  0  0  0  0  0  0  0  0  0
   -0.4284    2.7647    3.4168 H   0  0  0  0  0  0  0  0  0  0  0  0
   -1.5268    1.5885    4.1601 H   0  0  0  0  0  0  0  0  0  0  0  0
    0.2072    1.2358    4.0566 H   0  0  0  0  0  0  0  0  0  0  0  0
  5  6  2  0  0  0  0
  5  7  1  0  0  0  0
  2  3  1  0  0  0  0
  2  4  1  0  0  0  0
  2  5  1  0  0  0  0
  1  2  1  0  0  0  0
 23 24  2  0  0  0  0
 23 25  1  0  0  0  0
 21 22  1  0  0  0  0
 19 20  1  0  0  0  0
 19 21  1  0  0  0  0
 17 18  1  0  0  0  0
 17 19  1  0  0  0  0
 15 16  1  0  0  0  0
 15 17  2  0  0  0  0
 14 15  1  0  0  0  0
 14 21  2  0  0  0  0
 11 12  1  0  0  0  0
 11 13  1  0  0  0  0
 11 14  1  0  0  0  0
  9 10  1  0  0  0  0
  9 11  1  0  0  0  0
  9 23  1  0  0  0  0
  7  8  1  0  0  0  0
  7  9  1  0  0  0  0
 27 28  1  0  0  0  0
 27 29  1  0  0  0  0
 27 30  1  0  0  0  0
 25 26  1  0  0  0  0
 25 27  1  0  0  0  0
M  CHG  1  15   1
M  END
$$$$
default_name
  -OEChem-02102213163D

 30 30  0     1  0  0  0  0  0999 V2000
   -3.5507   -3.2183    1.8116 H   0  0  0  0  0  0  0  0  0  0  0  0
   -3.4597   -2.3913    1.1076 C   0  0  0  0  0  0  0  0  0  0  0  0
   -4.1577   -1.6043    1.3866 H   0  0  0  0  0  0  0  0  0  0  0  0
   -3.6807   -2.7523    0.1036 H   0  0  0  0  0  0  0  0  0  0  0  0
   -2.0477   -1.8543    1.1546 C   0  0  0  0  0  0  0  0  0  0  0  0
   -1.2227   -2.3443    1.9146 O   0  0  0  0  0  0  0  0  0  0  0  0
   -1.7517   -0.8483    0.3266 N   0  0  0  0  0  0  0  0  0  0  0  0
   -2.4847   -0.5123   -0.2804 H   0  0  0  0  0  0  0  0  0  0  0  0
   -0.4117   -0.2463    0.2186 C   0  0  1  0  0  0  0  0  0  0  0  0
    0.2987   -1.0391   -0.0285 H   0  0  0  0  0  0  0  0  0  0  0  0
   -0.4131    0.7505   -0.9636 C   0  0  0  0  0  0  0  0  0  0  0  0
   -1.4493    0.9859   -1.2193 H   0  0  0  0  0  0  0  0  0  0  0  0
    0.0576    1.6822   -0.6428 H   0  0  0  0  0  0  0  0  0  0  0  0
    0.2973    0.2699   -2.2113 C   0  0  0  0  0  0  0  0  0  0  0  0
    0.4060   -1.0481   -2.6106 N   0  3  0  0  0  0  0  0  0  0  0  0
   -0.0472   -1.8257   -2.1221 H   0  0  0  0  0  0  0  0  0  0  0  0
    1.1046   -1.0877   -3.7626 C   0  0  0  0  0  0  0  0  0  0  0  0
    1.3405   -1.9888   -4.3250 H   0  0  0  0  0  0  0  0  0  0  0  0
    1.4425    0.1767   -4.1025 N   0  0  0  0  0  0  0  0  0  0  0  0
    1.9702    0.4526   -4.9265 H   0  0  0  0  0  0  0  0  0  0  0  0
    0.9434    1.0419   -3.1387 C   0  0  0  0  0  0  0  0  0  0  0  0
    1.0404    2.1238   -3.1159 H   0  0  0  0  0  0  0  0  0  0  0  0
    0.0470    0.3465    1.5629 C   0  0  0  0  0  0  0  0  0  0  0  0
    1.1854    0.1365    1.9846 O   0  0  0  0  0  0  0  0  0  0  0  0
   -0.8551    1.0750    2.2320 N   0  0  0  0  0  0  0  0  0  0  0  0
   -1.7594    1.2031    1.8040 H   0  0  0  0  0  0  0  0  0  0  0  0
   -0.6356    1.6998    3.5400 C   0  0  0  0  0  0  0  0  0  0  0  0
   -0.4284    2.7647    3.4168 H   0  0  0  0  0  0  0  0  0  0  0  0
   -1.5268    1.5885    4.1601 H   0  0  0  0  0  0  0  0  0  0  0  0
    0.2072    1.2358    4.0566 H   0  0  0  0  0  0  0  0  0  0  0  0
  5  6  2  0  0  0  0
  5  7  1  0  0  0  0
  2  3  1  0  0  0  0
  2  4  1  0  0  0  0
  2  5  1  0  0  0  0
  1  2  1  0  0  0  0
 23 24  2  0  0  0  0
 23 25  1  0  0  0  0
 21 22  1  0  0  0  0
 19 20  1  0  0  0  0
 19 21  1  0  0  0  0
 17 18  1  0  0  0  0
 17 19  1  0  0  0  0
 15 16  1  0  0  0  0
 15 17  2  0  0  0  0
 14 15  1  0  0  0  0
 14 21  2  0  0  0  0
 11 12  1  0  0  0  0
 11 13  1  0  0  0  0
 11 14  1  0  0  0  0
  9 10  1  0  0  0  0
  9 11  1  0  0  0  0
  9 23  1  0  0  0  0
  7  8  1  0  0  0  0
  7  9  1  0  0  0  0
 27 28  1  0  0  0  0
 27 29  1  0  0  0  0
 27 30  1  0  0  0  0
 25 26  1  0  0  0  0
 25 27  1  0  0  0  0
M  CHG  1  15   1
M  END
$$$$
default_name
  -OEChem-02102213163D

 30 30  0     1  0  0  0  0  0999 V2000
   -3.5507   -3.2183    1.8116 H   0  0  0  0  0  0  0  0  0  0  0  0
   -3.4597   -2.3913    1.1076 C   0  0  0  0  0  0  0  0  0  0  0  0
   -4.1577   -1.6043    1.3866 H   0  0  0  0  0  0  0  0  0  0  0  0
   -3.6807   -2.7523    0.1036 H   0  0  0  0  0  0  0  0  0  0  0  0
   -2.0477   -1.8543    1.1546 C   0  0  0  0  0  0  0  0  0  0  0  0
   -1.2227   -2.3443    1.9146 O   0  0  0  0  0  0  0  0  0  0  0  0
   -1.7517   -0.8483    0.3266 N   0  0  0  0  0  0  0  0  0  0  0  0
   -2.4847   -0.5123   -0.2804 H   0  0  0  0  0  0  0  0  0  0  0  0
   -0.4117   -0.2463    0.2186 C   0  0  1  0  0  0  0  0  0  0  0  0
    0.2987   -1.0391   -0.0285 H   0  0  0  0  0  0  0  0  0  0  0  0
   -0.4131    0.7505   -0.9636 C   0  0  0  0  0  0  0  0  0  0  0  0
   -1.4493    0.9859   -1.2193 H   0  0  0  0  0  0  0  0  0  0  0  0
    0.0576    1.6822   -0.6428 H   0  0  0  0  0  0  0  0  0  0  0  0
    0.2973    0.2699   -2.2113 C   0  0  0  0  0  0  0  0  0  0  0  0
    0.1668   -0.9866   -2.7705 N   0  3  0  0  0  0  0  0  0  0  0  0
   -0.4829   -1.6963   -2.4200 H   0  0  0  0  0  0  0  0  0  0  0  0
    0.9483   -1.0478   -3.8669 C   0  0  0  0  0  0  0  0  0  0  0  0
    1.0440   -1.9096   -4.5244 H   0  0  0  0  0  0  0  0  0  0  0  0
    1.5729    0.1423   -4.0150 N   0  0  0  0  0  0  0  0  0  0  0  0
    2.2226    0.3872   -4.7576 H   0  0  0  0  0  0  0  0  0  0  0  0
    1.1753    0.9815   -2.9834 C   0  0  0  0  0  0  0  0  0  0  0  0
    1.4929    2.0065   -2.8131 H   0  0  0  0  0  0  0  0  0  0  0  0
    0.0470    0.3465    1.5629 C   0  0  0  0  0  0  0  0  0  0  0  0
    1.1854    0.1365    1.9846 O   0  0  0  0  0  0  0  0  0  0  0  0
   -0.8551    1.0750    2.2320 N   0  0  0  0  0  0  0  0  0  0  0  0
   -1.7594    1.2031    1.8040 H   0  0  0  0  0  0  0  0  0  0  0  0
   -0.6356    1.6998    3.5400 C   0  0  0  0  0  0  0  0  0  0  0  0
   -0.4284    2.7647    3.4168 H   0  0  0  0  0  0  0  0  0  0  0  0
   -1.5268    1.5885    4.1601 H   0  0  0  0  0  0  0  0  0  0  0  0
    0.2072    1.2358    4.0566 H   0  0  0  0  0  0  0  0  0  0  0  0
  5  6  2  0  0  0  0
  5  7  1  0  0  0  0
  2  3  1  0  0  0  0
  2  4  1  0  0  0  0
  2  5  1  0  0  0  0
  1  2  1  0  0  0  0
 23 24  2  0  0  0  0
 23 25  1  0  0  0  0
 21 22  1  0  0  0  0
 19 20  1  0  0  0  0
 19 21  1  0  0  0  0
 17 18  1  0  0  0  0
 17 19  1  0  0  0  0
 15 16  1  0  0  0  0
 15 17  2  0  0  0  0
 14 15  1  0  0  0  0
 14 21  2  0  0  0  0
 11 12  1  0  0  0  0
 11 13  1  0  0  0  0
 11 14  1  0  0  0  0
  9 10  1  0  0  0  0
  9 11  1  0  0  0  0
  9 23  1  0  0  0  0
  7  8  1  0  0  0  0
  7  9  1  0  0  0  0
 27 28  1  0  0  0  0
 27 29  1  0  0  0  0
 27 30  1  0  0  0  0
 25 26  1  0  0  0  0
 25 27  1  0  0  0  0
M  CHG  1  15   1
M  END
$$$$
default_name
  -OEChem-02102213163D

 30 30  0     1  0  0  0  0  0999 V2000
   -3.5507   -3.2183    1.8116 H   0  0  0  0  0  0  0  0  0  0  0  0
   -3.4597   -2.3913    1.1076 C   0  0  0  0  0  0  0  0  0  0  0  0
   -4.1577   -1.6043    1.3866 H   0  0  0  0  0  0  0  0  0  0  0  0
   -3.6807   -2.7523    0.1036 H   0  0  0  0  0  0  0  0  0  0  0  0
   -2.0477   -1.8543    1.1546 C   0  0  0  0  0  0  0  0  0  0  0  0
   -1.2227   -2.3443    1.9146 O   0  0  0  0  0  0  0  0  0  0  0  0
   -1.7517   -0.8483    0.3266 N   0  0  0  0  0  0  0  0  0  0  0  0
   -2.4847   -0.5123   -0.2804 H   0  0  0  0  0  0  0  0  0  0  0  0
   -0.4117   -0.2463    0.2186 C   0  0  1  0  0  0  0  0  0  0  0  0
    0.2987   -1.0391   -0.0285 H   0  0  0  0  0  0  0  0  0  0  0  0
   -0.4131    0.7505   -0.9636 C   0  0  0  0  0  0  0  0  0  0  0  0
   -1.4493    0.9859   -1.2193 H   0  0  0  0  0  0  0  0  0  0  0  0
    0.0576    1.6822   -0.6428 H   0  0  0  0  0  0  0  0  0  0  0  0
    0.2973    0.2699   -2.2113 C   0  0  0  0  0  0  0  0  0  0  0  0
   -0.0381   -0.8566   -2.9372 N   0  3  0  0  0  0  0  0  0  0  0  0
   -0.8517   -1.4422   -2.7278 H   0  0  0  0  0  0  0  0  0  0  0  0
    0.8145   -0.9633   -3.9757 C   0  0  0  0  0  0  0  0  0  0  0  0
    0.7908   -1.7456   -4.7317 H   0  0  0  0  0  0  0  0  0  0  0  0
    1.6844    0.0706   -3.9239 N   0  0  0  0  0  0  0  0  0  0  0  0
    2.4386    0.2496   -4.5817 H   0  0  0  0  0  0  0  0  0  0  0  0
    1.3738    0.8549   -2.8216 C   0  0  0  0  0  0  0  0  0  0  0  0
    1.8801    1.7599   -2.4977 H   0  0  0  0  0  0  0  0  0  0  0  0
    0.0470    0.3465    1.5629 C   0  0  0  0  0  0  0  0  0  0  0  0
    1.1854    0.1365    1.9846 O   0  0  0  0  0  0  0  0  0  0  0  0
   -0.8551    1.0750    2.2320 N   0  0  0  0  0  0  0  0  0  0  0  0
   -1.7594    1.2031    1.8040 H   0  0  0  0  0  0  0  0  0  0  0  0
   -0.6356    1.6998    3.5400 C   0  0  0  0  0  0  0  0  0  0  0  0
   -0.4284    2.7647    3.4168 H   0  0  0  0  0  0  0  0  0  0  0  0
   -1.5268    1.5885    4.1601 H   0  0  0  0  0  0  0  0  0  0  0  0
    0.2072    1.2358    4.0566 H   0  0  0  0  0  0  0  0  0  0  0  0
  5  6  2  0  0  0  0
  5  7  1  0  0  0  0
  2  3  1  0  0  0  0
  2  4  1  0  0  0  0
  2  5  1  0  0  0  0
  1  2  1  0  0  0  0
 23 24  2  0  0  0  0
 23 25  1  0  0  0  0
 21 22  1  0  0  0  0
 19 20  1  0  0  0  0
 19 21  1  0  0  0  0
 17 18  1  0  0  0  0
 17 19  1  0  0  0  0
 15 16  1  0  0  0  0
 15 17  2  0  0  0  0
 14 15  1  0  0  0  0
 14 21  2  0  0  0  0
 11 12  1  0  0  0  0
 11 13  1  0  0  0  0
 11 14  1  0  0  0  0
  9 10  1  0  0  0  0
  9 11  1  0  0  0  0
  9 23  1  0  0  0  0
  7  8  1  0  0  0  0
  7  9  1  0  0  0  0
 27 28  1  0  0  0  0
 27 29  1  0  0  0  0
 27 30  1  0  0  0  0
 25 26  1  0  0  0  0
 25 27  1  0  0  0  0
M  CHG  1  15   1
M  END
$$$$
default_name
  -OEChem-02102213163D

 30 30  0     1  0  0  0  0  0999 V2000
   -3.5507   -3.2183    1.8116 H   0  0  0  0  0  0  0  0  0  0  0  0
   -3.4597   -2.3913    1.1076 C   0  0  0  0  0  0  0  0  0  0  0  0
   -4.1577   -1.6043    1.3866 H   0  0  0  0  0  0  0  0  0  0  0  0
   -3.6807   -2.7523    0.1036 H   0  0  0  0  0  0  0  0  0  0  0  0
   -2.0477   -1.8543    1.1546 C   0  0  0  0  0  0  0  0  0  0  0  0
   -1.2227   -2.3443    1.9146 O   0  0  0  0  0  0  0  0  0  0  0  0
   -1.7517   -0.8483    0.3266 N   0  0  0  0  0  0  0  0  0  0  0  0
   -2.4847   -0.5123   -0.2804 H   0  0  0  0  0  0  0  0  0  0  0  0
   -0.4117   -0.2463    0.2186 C   0  0  1  0  0  0  0  0  0  0  0  0
    0.2987   -1.0391   -0.0285 H   0  0  0  0  0  0  0  0  0  0  0  0
   -0.4131    0.7505   -0.9636 C   0  0  0  0  0  0  0  0  0  0  0  0
   -1.4493    0.9859   -1.2193 H   0  0  0  0  0  0  0  0  0  0  0  0
    0.0576    1.6822   -0.6428 H   0  0  0  0  0  0  0  0  0  0  0  0
    0.2973    0.2699   -2.2113 C   0  0  0  0  0  0  0  0  0  0  0  0
   -0.1945   -0.6672   -3.0992 N   0  3  0  0  0  0  0  0  0  0  0  0
   -1.1284   -1.0808   -3.0246 H   0  0  0  0  0  0  0  0  0  0  0  0
    0.7121   -0.8399   -4.0814 C   0  0  0  0  0  0  0  0  0  0  0  0
    0.5983   -1.5080   -4.9328 H   0  0  0  0  0  0  0  0  0  0  0  0
    1.7693   -0.0335   -3.8355 N   0  0  0  0  0  0  0  0  0  0  0  0
    2.6034    0.0494   -4.4107 H   0  0  0  0  0  0  0  0  0  0  0  0
    1.5251    0.6705   -2.6645 C   0  0  0  0  0  0  0  0  0  0  0  0
    2.1756    1.4008   -2.1912 H   0  0  0  0  0  0  0  0  0  0  0  0
    0.0470    0.3465    1.5629 C   0  0  0  0  0  0  0  0  0  0  0  0
    1.1854    0.1365    1.9846 O   0  0  0  0  0  0  0  0  0  0  0  0
   -0.8551    1.0750    2.2320 N   0  0  0  0  0  0  0  0  0  0  0  0
   -1.7594    1.2031    1.8040 H   0  0  0  0  0  0  0  0  0  0  0  0
   -0.6356    1.6998    3.5400 C   0  0  0  0  0  0  0  0  0  0  0  0
   -0.4284    2.7647    3.4168 H   0  0  0  0  0  0  0  0  0  0  0  0
   -1.5268    1.5885    4.1601 H   0  0  0  0  0  0  0  0  0  0  0  0
    0.2072    1.2358    4.0566 H   0  0  0  0  0  0  0  0  0  0  0  0
  5  6  2  0  0  0  0
  5  7  1  0  0  0  0
  2  3  1  0  0  0  0
  2  4  1  0  0  0  0
  2  5  1  0  0  0  0
  1  2  1  0  0  0  0
 23 24  2  0  0  0  0
 23 25  1  0  0  0  0
 21 22  1  0  0  0  0
 19 20  1  0  0  0  0
 19 21  1  0  0  0  0
 17 18  1  0  0  0  0
 17 19  1  0  0  0  0
 15 16  1  0  0  0  0
 15 17  2  0  0  0  0
 14 15  1  0  0  0  0
 14 21  2  0  0  0  0
 11 12  1  0  0  0  0
 11 13  1  0  0  0  0
 11 14  1  0  0  0  0
  9 10  1  0  0  0  0
  9 11  1  0  0  0  0
  9 23  1  0  0  0  0
  7  8  1  0  0  0  0
  7  9  1  0  0  0  0
 27 28  1  0  0  0  0
 27 29  1  0  0  0  0
 27 30  1  0  0  0  0
 25 26  1  0  0  0  0
 25 27  1  0  0  0  0
M  CHG  1  15   1
M  END
$$$$
default_name
  -OEChem-02102213163D

 30 30  0     1  0  0  0  0  0999 V2000
   -3.5507   -3.2183    1.8116 H   0  0  0  0  0  0  0  0  0  0  0  0
   -3.4597   -2.3913    1.1076 C   0  0  0  0  0  0  0  0  0  0  0  0
   -4.1577   -1.6043    1.3866 H   0  0  0  0  0  0  0  0  0  0  0  0
   -3.6807   -2.7523    0.1036 H   0  0  0  0  0  0  0  0  0  0  0  0
   -2.0477   -1.8543    1.1546 C   0  0  0  0  0  0  0  0  0  0  0  0
   -1.2227   -2.3443    1.9146 O   0  0  0  0  0  0  0  0  0  0  0  0
   -1.7517   -0.8483    0.3266 N   0  0  0  0  0  0  0  0  0  0  0  0
   -2.4847   -0.5123   -0.2804 H   0  0  0  0  0  0  0  0  0  0  0  0
   -0.4117   -0.2463    0.2186 C   0  0  1  0  0  0  0  0  0  0  0  0
    0.2987   -1.0391   -0.0285 H   0  0  0  0  0  0  0  0  0  0  0  0
   -0.4131    0.7505   -0.9636 C   0  0  0  0  0  0  0  0  0  0  0  0
   -1.4493    0.9859   -1.2193 H   0  0  0  0  0  0  0  0  0  0  0  0
    0.0576    1.6822   -0.6428 H   0  0  0  0  0  0  0  0  0  0  0  0
    0.2973    0.2699   -2.2113 C   0  0  0  0  0  0  0  0  0  0  0  0
   -0.2920   -0.4312   -3.2456 N   0  3  0  0  0  0  0  0  0  0  0  0
   -1.2942   -0.6365   -3.2901 H   0  0  0  0  0  0  0  0  0  0  0  0
    0.6483   -0.6861   -4.1770 C   0  0  0  0  0  0  0  0  0  0  0  0
    0.4795   -1.2131   -5.1140 H   0  0  0  0  0  0  0  0  0  0  0  0
    1.8218   -0.1629   -3.7557 N   0  0  0  0  0  0  0  0  0  0  0  0
    2.7059   -0.2000   -4.2563 H   0  0  0  0  0  0  0  0  0  0  0  0
    1.6191    0.4411   -2.5226 C   0  0  0  0  0  0  0  0  0  0  0  0
    2.3593    0.9538   -1.9144 H   0  0  0  0  0  0  0  0  0  0  0  0
    0.0470    0.3465    1.5629 C   0  0  0  0  0  0  0  0  0  0  0  0
    1.1854    0.1365    1.9846 O   0  0  0  0  0  0  0  0  0  0  0  0
   -0.8551    1.0750    2.2320 N   0  0  0  0  0  0  0  0  0  0  0  0
   -1.7594    1.2031    1.8040 H   0  0  0  0  0  0  0  0  0  0  0  0
   -0.6356    1.6998    3.5400 C   0  0  0  0  0  0  0  0  0  0  0  0
   -0.4284    2.7647    3.4168 H   0  0  0  0  0  0  0  0  0  0  0  0
   -1.5268    1.5885    4.1601 H   0  0  0  0  0  0  0  0  0  0  0  0
    0.2072    1.2358    4.0566 H   0  0  0  0  0  0  0  0  0  0  0  0
  5  6  2  0  0  0  0
  5  7  1  0  0  0  0
  2  3  1  0  0  0  0
  2  4  1  0  0  0  0
  2  5  1  0  0  0  0
  1  2  1  0  0  0  0
 23 24  2  0  0  0  0
 23 25  1  0  0  0  0
 21 22  1  0  0  0  0
 19 20  1  0  0  0  0
 19 21  1  0  0  0  0
 17 18  1  0  0  0  0
 17 19  1  0  0  0  0
 15 16  1  0  0  0  0
 15 17  2  0  0  0  0
 14 15  1  0  0  0  0
 14 21  2  0  0  0  0
 11 12  1  0  0  0  0
 11 13  1  0  0  0  0
 11 14  1  0  0  0  0
  9 10  1  0  0  0  0
  9 11  1  0  0  0  0
  9 23  1  0  0  0  0
  7  8  1  0  0  0  0
  7  9  1  0  0  0  0
 27 28  1  0  0  0  0
 27 29  1  0  0  0  0
 27 30  1  0  0  0  0
 25 26  1  0  0  0  0
 25 27  1  0  0  0  0
M  CHG  1  15   1
M  END
$$$$
default_name
  -OEChem-02102213163D

 30 30  0     1  0  0  0  0  0999 V2000
   -3.5507   -3.2183    1.8116 H   0  0  0  0  0  0  0  0  0  0  0  0
   -3.4597   -2.3913    1.1076 C   0  0  0  0  0  0  0  0  0  0  0  0
   -4.1577   -1.6043    1.3866 H   0  0  0  0  0  0  0  0  0  0  0  0
   -3.6807   -2.7523    0.1036 H   0  0  0  0  0  0  0  0  0  0  0  0
   -2.0477   -1.8543    1.1546 C   0  0  0  0  0  0  0  0  0  0  0  0
   -1.2227   -2.3443    1.9146 O   0  0  0  0  0  0  0  0  0  0  0  0
   -1.7517   -0.8483    0.3266 N   0  0  0  0  0  0  0  0  0  0  0  0
   -2.4847   -0.5123   -0.2804 H   0  0  0  0  0  0  0  0  0  0  0  0
   -0.4117   -0.2463    0.2186 C   0  0  1  0  0  0  0  0  0  0  0  0
    0.2987   -1.0391   -0.0285 H   0  0  0  0  0  0  0  0  0  0  0  0
   -0.4131    0.7505   -0.9636 C   0  0  0  0  0  0  0  0  0  0  0  0
   -1.4493    0.9859   -1.2193 H   0  0  0  0  0  0  0  0  0  0  0  0
    0.0576    1.6822   -0.6428 H   0  0  0  0  0  0  0  0  0  0  0  0
    0.2973    0.2699   -2.2113 C   0  0  0  0  0  0  0  0  0  0  0  0
   -0.3237   -0.1647   -3.3663 N   0  3  0  0  0  0  0  0  0  0  0  0
   -1.3379   -0.1399   -3.5062 H   0  0  0  0  0  0  0  0  0  0  0  0
    0.6273   -0.5123   -4.2560 C   0  0  0  0  0  0  0  0  0  0  0  0
    0.4426   -0.8808   -5.2630 H   0  0  0  0  0  0  0  0  0  0  0  0
    1.8384   -0.3088   -3.6901 N   0  0  0  0  0  0  0  0  0  0  0  0
    2.7390   -0.4814   -4.1291 H   0  0  0  0  0  0  0  0  0  0  0  0
    1.6493    0.1822   -2.4057 C   0  0  0  0  0  0  0  0  0  0  0  0
    2.4185    0.4491   -1.6863 H   0  0  0  0  0  0  0  0  0  0  0  0
    0.0470    0.3465    1.5629 C   0  0  0  0  0  0  0  0  0  0  0  0
    1.1854    0.1365    1.9846 O   0  0  0  0  0  0  0  0  0  0  0  0
   -0.8551    1.0750    2.2320 N   0  0  0  0  0  0  0  0  0  0  0  0
   -1.7594    1.2031    1.8040 H   0  0  0  0  0  0  0  0  0  0  0  0
   -0.6356    1.6998    3.5400 C   0  0  0  0  0  0  0  0  0  0  0  0
   -0.4284    2.7647    3.4168 H   0  0  0  0  0  0  0  0  0  0  0  0
   -1.5268    1.5885    4.1601 H   0  0  0  0  0  0  0  0  0  0  0  0
    0.2072    1.2358    4.0566 H   0  0  0  0  0  0  0  0  0  0  0  0
  5  6  2  0  0  0  0
  5  7  1  0  0  0  0
  2  3  1  0  0  0  0
  2  4  1  0  0  0  0
  2  5  1  0  0  0  0
  1  2  1  0  0  0  0
 23 24  2  0  0  0  0
 23 25  1  0  0  0  0
 21 22  1  0  0  0  0
 19 20  1  0  0  0  0
 19 21  1  0  0  0  0
 17 18  1  0  0  0  0
 17 19  1  0  0  0  0
 15 16  1  0  0  0  0
 15 17  2  0  0  0  0
 14 15  1  0  0  0  0
 14 21  2  0  0  0  0
 11 12  1  0  0  0  0
 11 13  1  0  0  0  0
 11 14  1  0  0  0  0
  9 10  1  0  0  0  0
  9 11  1  0  0  0  0
  9 23  1  0  0  0  0
  7  8  1  0  0  0  0
  7  9  1  0  0  0  0
 27 28  1  0  0  0  0
 27 29  1  0  0  0  0
 27 30  1  0  0  0  0
 25 26  1  0  0  0  0
 25 27  1  0  0  0  0
M  CHG  1  15   1
M  END
$$$$
default_name
  -OEChem-02102213163D

 30 30  0     1  0  0  0  0  0999 V2000
   -3.5507   -3.2183    1.8116 H   0  0  0  0  0  0  0  0  0  0  0  0
   -3.4597   -2.3913    1.1076 C   0  0  0  0  0  0  0  0  0  0  0  0
   -4.1577   -1.6043    1.3866 H   0  0  0  0  0  0  0  0  0  0  0  0
   -3.6807   -2.7523    0.1036 H   0  0  0  0  0  0  0  0  0  0  0  0
   -2.0477   -1.8543    1.1546 C   0  0  0  0  0  0  0  0  0  0  0  0
   -1.2227   -2.3443    1.9146 O   0  0  0  0  0  0  0  0  0  0  0  0
   -1.7517   -0.8483    0.3266 N   0  0  0  0  0  0  0  0  0  0  0  0
   -2.4847   -0.5123   -0.2804 H   0  0  0  0  0  0  0  0  0  0  0  0
   -0.4117   -0.2463    0.2186 C   0  0  1  0  0  0  0  0  0  0  0  0
    0.2987   -1.0391   -0.0285 H   0  0  0  0  0  0  0  0  0  0  0  0
   -0.4131    0.7505   -0.9636 C   0  0  0  0  0  0  0  0  0  0  0  0
   -1.4493    0.9859   -1.2193 H   0  0  0  0  0  0  0  0  0  0  0  0
    0.0576    1.6822   -0.6428 H   0  0  0  0  0  0  0  0  0  0  0  0
    0.2973    0.2699   -2.2113 C   0  0  0  0  0  0  0  0  0  0  0  0
   -0.2876    0.1142   -3.4532 N   0  3  0  0  0  0  0  0  0  0  0  0
   -1.2563    0.3754   -3.6583 H   0  0  0  0  0  0  0  0  0  0  0  0
    0.6506   -0.3303   -4.3128 C   0  0  0  0  0  0  0  0  0  0  0  0
    0.4900   -0.5339   -5.3696 H   0  0  0  0  0  0  0  0  0  0  0  0
    1.8179   -0.4612   -3.6431 N   0  0  0  0  0  0  0  0  0  0  0  0
    2.7004   -0.7758   -4.0376 H   0  0  0  0  0  0  0  0  0  0  0  0
    1.6137   -0.0884   -2.3217 C   0  0  0  0  0  0  0  0  0  0  0  0
    2.3494   -0.0786   -1.5224 H   0  0  0  0  0  0  0  0  0  0  0  0
    0.0470    0.3465    1.5629 C   0  0  0  0  0  0  0  0  0  0  0  0
    1.1854    0.1365    1.9846 O   0  0  0  0  0  0  0  0  0  0  0  0
   -0.8551    1.0750    2.2320 N   0  0  0  0  0  0  0  0  0  0  0  0
   -1.7594    1.2031    1.8040 H   0  0  0  0  0  0  0  0  0  0  0  0
   -0.6356    1.6998    3.5400 C   0  0  0  0  0  0  0  0  0  0  0  0
   -0.4284    2.7647    3.4168 H   0  0  0  0  0  0  0  0  0  0  0  0
   -1.5268    1.5885    4.1601 H   0  0  0  0  0  0  0  0  0  0  0  0
    0.2072    1.2358    4.0566 H   0  0  0  0  0  0  0  0  0  0  0  0
  5  6  2  0  0  0  0
  5  7  1  0  0  0  0
  2  3  1  0  0  0  0
  2  4  1  0  0  0  0
  2  5  1  0  0  0  0
  1  2  1  0  0  0  0
 23 24  2  0  0  0  0
 23 25  1  0  0  0  0
 21 22  1  0  0  0  0
 19 20  1  0  0  0  0
 19 21  1  0  0  0  0
 17 18  1  0  0  0  0
 17 19  1  0  0  0  0
 15 16  1  0  0  0  0
 15 17  2  0  0  0  0
 14 15  1  0  0  0  0
 14 21  2  0  0  0  0
 11 12  1  0  0  0  0
 11 13  1  0  0  0  0
 11 14  1  0  0  0  0
  9 10  1  0  0  0  0
  9 11  1  0  0  0  0
  9 23  1  0  0  0  0
  7  8  1  0  0  0  0
  7  9  1  0  0  0  0
 27 28  1  0  0  0  0
 27 29  1  0  0  0  0
 27 30  1  0  0  0  0
 25 26  1  0  0  0  0
 25 27  1  0  0  0  0
M  CHG  1  15   1
M  END
$$$$
default_name
  -OEChem-02102213163D

 30 30  0     1  0  0  0  0  0999 V2000
   -3.5507   -3.2183    1.8116 H   0  0  0  0  0  0  0  0  0  0  0  0
   -3.4597   -2.3913    1.1076 C   0  0  0  0  0  0  0  0  0  0  0  0
   -4.1577   -1.6043    1.3866 H   0  0  0  0  0  0  0  0  0  0  0  0
   -3.6807   -2.7523    0.1036 H   0  0  0  0  0  0  0  0  0  0  0  0
   -2.0477   -1.8543    1.1546 C   0  0  0  0  0  0  0  0  0  0  0  0
   -1.2227   -2.3443    1.9146 O   0  0  0  0  0  0  0  0  0  0  0  0
   -1.7517   -0.8483    0.3266 N   0  0  0  0  0  0  0  0  0  0  0  0
   -2.4847   -0.5123   -0.2804 H   0  0  0  0  0  0  0  0  0  0  0  0
   -0.4117   -0.2463    0.2186 C   0  0  1  0  0  0  0  0  0  0  0  0
    0.2987   -1.0391   -0.0285 H   0  0  0  0  0  0  0  0  0  0  0  0
   -0.4131    0.7505   -0.9636 C   0  0  0  0  0  0  0  0  0  0  0  0
   -1.4493    0.9859   -1.2193 H   0  0  0  0  0  0  0  0  0  0  0  0
    0.0576    1.6822   -0.6428 H   0  0  0  0  0  0  0  0  0  0  0  0
    0.2973    0.2699   -2.2113 C   0  0  0  0  0  0  0  0  0  0  0  0
   -0.1861    0.3864   -3.5002 N   0  3  0  0  0  0  0  0  0  0  0  0
   -1.0551    0.8743   -3.7358 H   0  0  0  0  0  0  0  0  0  0  0  0
    0.7165   -0.1526   -4.3437 C   0  0  0  0  0  0  0  0  0  0  0  0
    0.6186   -0.1960   -5.4265 H   0  0  0  0  0  0  0  0  0  0  0  0
    1.7618   -0.6097   -3.6178 N   0  0  0  0  0  0  0  0  0  0  0  0
    2.5929   -1.0631   -3.9882 H   0  0  0  0  0  0  0  0  0  0  0  0
    1.5146   -0.3525   -2.2764 C   0  0  0  0  0  0  0  0  0  0  0  0
    2.1567   -0.5936   -1.4338 H   0  0  0  0  0  0  0  0  0  0  0  0
    0.0470    0.3465    1.5629 C   0  0  0  0  0  0  0  0  0  0  0  0
    1.1854    0.1365    1.9846 O   0  0  0  0  0  0  0  0  0  0  0  0
   -0.8551    1.0750    2.2320 N   0  0  0  0  0  0  0  0  0  0  0  0
   -1.7594    1.2031    1.8040 H   0  0  0  0  0  0  0  0  0  0  0  0
   -0.6356    1.6998    3.5400 C   0  0  0  0  0  0  0  0  0  0  0  0
   -0.4284    2.7647    3.4168 H   0  0  0  0  0  0  0  0  0  0  0  0
   -1.5268    1.5885    4.1601 H   0  0  0  0  0  0  0  0  0  0  0  0
    0.2072    1.2358    4.0566 H   0  0  0  0  0  0  0  0  0  0  0  0
  5  6  2  0  0  0  0
  5  7  1  0  0  0  0
  2  3  1  0  0  0  0
  2  4  1  0  0  0  0
  2  5  1  0  0  0  0
  1  2  1  0  0  0  0
 23 24  2  0  0  0  0
 23 25  1  0  0  0  0
 21 22  1  0  0  0  0
 19 20  1  0  0  0  0
 19 21  1  0  0  0  0
 17 18  1  0  0  0  0
 17 19  1  0  0  0  0
 15 16  1  0  0  0  0
 15 17  2  0  0  0  0
 14 15  1  0  0  0  0
 14 21  2  0  0  0  0
 11 12  1  0  0  0  0
 11 13  1  0  0  0  0
 11 14  1  0  0  0  0
  9 10  1  0  0  0  0
  9 11  1  0  0  0  0
  9 23  1  0  0  0  0
  7  8  1  0  0  0  0
  7  9  1  0  0  0  0
 27 28  1  0  0  0  0
 27 29  1  0  0  0  0
 27 30  1  0  0  0  0
 25 26  1  0  0  0  0
 25 27  1  0  0  0  0
M  CHG  1  15   1
M  END
$$$$
default_name
  -OEChem-02102213163D

 30 30  0     1  0  0  0  0  0999 V2000
   -3.5507   -3.2183    1.8116 H   0  0  0  0  0  0  0  0  0  0  0  0
   -3.4597   -2.3913    1.1076 C   0  0  0  0  0  0  0  0  0  0  0  0
   -4.1577   -1.6043    1.3866 H   0  0  0  0  0  0  0  0  0  0  0  0
   -3.6807   -2.7523    0.1036 H   0  0  0  0  0  0  0  0  0  0  0  0
   -2.0477   -1.8543    1.1546 C   0  0  0  0  0  0  0  0  0  0  0  0
   -1.2227   -2.3443    1.9146 O   0  0  0  0  0  0  0  0  0  0  0  0
   -1.7517   -0.8483    0.3266 N   0  0  0  0  0  0  0  0  0  0  0  0
   -2.4847   -0.5123   -0.2804 H   0  0  0  0  0  0  0  0  0  0  0  0
   -0.4117   -0.2463    0.2186 C   0  0  1  0  0  0  0  0  0  0  0  0
    0.2987   -1.0391   -0.0285 H   0  0  0  0  0  0  0  0  0  0  0  0
   -0.4131    0.7505   -0.9636 C   0  0  0  0  0  0  0  0  0  0  0  0
   -1.4493    0.9859   -1.2193 H   0  0  0  0  0  0  0  0  0  0  0  0
    0.0576    1.6822   -0.6428 H   0  0  0  0  0  0  0  0  0  0  0  0
    0.2973    0.2699   -2.2113 C   0  0  0  0  0  0  0  0  0  0  0  0
   -0.0261    0.6334   -3.5043 N   0  3  0  0  0  0  0  0  0  0  0  0
   -0.7480    1.3226   -3.7337 H   0  0  0  0  0  0  0  0  0  0  0  0
    0.8207    0.0087   -4.3465 C   0  0  0  0  0  0  0  0  0  0  0  0
    0.8195    0.1099   -5.4299 H   0  0  0  0  0  0  0  0  0  0  0  0
    1.6738   -0.7443   -3.6161 N   0  0  0  0  0  0  0  0  0  0  0  0
    2.4238   -1.3236   -3.9842 H   0  0  0  0  0  0  0  0  0  0  0  0
    1.3589   -0.5919   -2.2729 C   0  0  0  0  0  0  0  0  0  0  0  0
    1.8533   -1.0607   -1.4266 H   0  0  0  0  0  0  0  0  0  0  0  0
    0.0470    0.3465    1.5629 C   0  0  0  0  0  0  0  0  0  0  0  0
    1.1854    0.1365    1.9846 O   0  0  0  0  0  0  0  0  0  0  0  0
   -0.8551    1.0750    2.2320 N   0  0  0  0  0  0  0  0  0  0  0  0
   -1.7594    1.2031    1.8040 H   0  0  0  0  0  0  0  0  0  0  0  0
   -0.6356    1.6998    3.5400 C   0  0  0  0  0  0  0  0  0  0  0  0
   -0.4284    2.7647    3.4168 H   0  0  0  0  0  0  0  0  0  0  0  0
   -1.5268    1.5885    4.1601 H   0  0  0  0  0  0  0  0  0  0  0  0
    0.2072    1.2358    4.0566 H   0  0  0  0  0  0  0  0  0  0  0  0
  5  6  2  0  0  0  0
  5  7  1  0  0  0  0
  2  3  1  0  0  0  0
  2  4  1  0  0  0  0
  2  5  1  0  0  0  0
  1  2  1  0  0  0  0
 23 24  2  0  0  0  0
 23 25  1  0  0  0  0
 21 22  1  0  0  0  0
 19 20  1  0  0  0  0
 19 21  1  0  0  0  0
 17 18  1  0  0  0  0
 17 19  1  0  0  0  0
 15 16  1  0  0  0  0
 15 17  2  0  0  0  0
 14 15  1  0  0  0  0
 14 21  2  0  0  0  0
 11 12  1  0  0  0  0
 11 13  1  0  0  0  0
 11 14  1  0  0  0  0
  9 10  1  0  0  0  0
  9 11  1  0  0  0  0
  9 23  1  0  0  0  0
  7  8  1  0  0  0  0
  7  9  1  0  0  0  0
 27 28  1  0  0  0  0
 27 29  1  0  0  0  0
 27 30  1  0  0  0  0
 25 26  1  0  0  0  0
 25 27  1  0  0  0  0
M  CHG  1  15   1
M  END
$$$$
default_name
  -OEChem-02102213163D

 30 30  0     1  0  0  0  0  0999 V2000
   -3.5507   -3.2183    1.8116 H   0  0  0  0  0  0  0  0  0  0  0  0
   -3.4597   -2.3913    1.1076 C   0  0  0  0  0  0  0  0  0  0  0  0
   -4.1577   -1.6043    1.3866 H   0  0  0  0  0  0  0  0  0  0  0  0
   -3.6807   -2.7523    0.1036 H   0  0  0  0  0  0  0  0  0  0  0  0
   -2.0477   -1.8543    1.1546 C   0  0  0  0  0  0  0  0  0  0  0  0
   -1.2227   -2.3443    1.9146 O   0  0  0  0  0  0  0  0  0  0  0  0
   -1.7517   -0.8483    0.3266 N   0  0  0  0  0  0  0  0  0  0  0  0
   -2.4847   -0.5123   -0.2804 H   0  0  0  0  0  0  0  0  0  0  0  0
   -0.4117   -0.2463    0.2186 C   0  0  1  0  0  0  0  0  0  0  0  0
    0.2987   -1.0391   -0.0285 H   0  0  0  0  0  0  0  0  0  0  0  0
   -0.4131    0.7505   -0.9636 C   0  0  0  0  0  0  0  0  0  0  0  0
   -1.4493    0.9859   -1.2193 H   0  0  0  0  0  0  0  0  0  0  0  0
    0.0576    1.6822   -0.6428 H   0  0  0  0  0  0  0  0  0  0  0  0
    0.2973    0.2699   -2.2113 C   0  0  0  0  0  0  0  0  0  0  0  0
    0.1814    0.8384   -3.4651 N   0  3  0  0  0  0  0  0  0  0  0  0
   -0.3559    1.6899   -3.6519 H   0  0  0  0  0  0  0  0  0  0  0  0
    0.9559    0.1427   -4.3211 C   0  0  0  0  0  0  0  0  0  0  0  0
    1.0791    0.3629   -5.3796 H   0  0  0  0  0  0  0  0  0  0  0  0
    1.5599   -0.8558   -3.6380 N   0  0  0  0  0  0  0  0  0  0  0  0
    2.2045   -1.5396   -4.0258 H   0  0  0  0  0  0  0  0  0  0  0  0
    1.1571   -0.7904   -2.3113 C   0  0  0  0  0  0  0  0  0  0  0  0
    1.4601   -1.4480   -1.5012 H   0  0  0  0  0  0  0  0  0  0  0  0
    0.0470    0.3465    1.5629 C   0  0  0  0  0  0  0  0  0  0  0  0
    1.1854    0.1365    1.9846 O   0  0  0  0  0  0  0  0  0  0  0  0
   -0.8551    1.0750    2.2320 N   0  0  0  0  0  0  0  0  0  0  0  0
   -1.7594    1.2031    1.8040 H   0  0  0  0  0  0  0  0  0  0  0  0
   -0.6356    1.6998    3.5400 C   0  0  0  0  0  0  0  0  0  0  0  0
   -0.4284    2.7647    3.4168 H   0  0  0  0  0  0  0  0  0  0  0  0
   -1.5268    1.5885    4.1601 H   0  0  0  0  0  0  0  0  0  0  0  0
    0.2072    1.2358    4.0566 H   0  0  0  0  0  0  0  0  0  0  0  0
  5  6  2  0  0  0  0
  5  7  1  0  0  0  0
  2  3  1  0  0  0  0
  2  4  1  0  0  0  0
  2  5  1  0  0  0  0
  1  2  1  0  0  0  0
 23 24  2  0  0  0  0
 23 25  1  0  0  0  0
 21 22  1  0  0  0  0
 19 20  1  0  0  0  0
 19 21  1  0  0  0  0
 17 18  1  0  0  0  0
 17 19  1  0  0  0  0
 15 16  1  0  0  0  0
 15 17  2  0  0  0  0
 14 15  1  0  0  0  0
 14 21  2  0  0  0  0
 11 12  1  0  0  0  0
 11 13  1  0  0  0  0
 11 14  1  0  0  0  0
  9 10  1  0  0  0  0
  9 11  1  0  0  0  0
  9 23  1  0  0  0  0
  7  8  1  0  0  0  0
  7  9  1  0  0  0  0
 27 28  1  0  0  0  0
 27 29  1  0  0  0  0
 27 30  1  0  0  0  0
 25 26  1  0  0  0  0
 25 27  1  0  0  0  0
M  CHG  1  15   1
M  END
$$$$
default_name
  -OEChem-02102213163D

 30 30  0     1  0  0  0  0  0999 V2000
   -3.5507   -3.2183    1.8116 H   0  0  0  0  0  0  0  0  0  0  0  0
   -3.4597   -2.3913    1.1076 C   0  0  0  0  0  0  0  0  0  0  0  0
   -4.1577   -1.6043    1.3866 H   0  0  0  0  0  0  0  0  0  0  0  0
   -3.6807   -2.7523    0.1036 H   0  0  0  0  0  0  0  0  0  0  0  0
   -2.0477   -1.8543    1.1546 C   0  0  0  0  0  0  0  0  0  0  0  0
   -1.2227   -2.3443    1.9146 O   0  0  0  0  0  0  0  0  0  0  0  0
   -1.7517   -0.8483    0.3266 N   0  0  0  0  0  0  0  0  0  0  0  0
   -2.4847   -0.5123   -0.2804 H   0  0  0  0  0  0  0  0  0  0  0  0
   -0.4117   -0.2463    0.2186 C   0  0  1  0  0  0  0  0  0  0  0  0
    0.2987   -1.0391   -0.0285 H   0  0  0  0  0  0  0  0  0  0  0  0
   -0.4131    0.7505   -0.9636 C   0  0  0  0  0  0  0  0  0  0  0  0
   -1.4100    1.1905   -1.0469 H   0  0  0  0  0  0  0  0  0  0  0  0
    0.2795    1.5652   -0.7417 H   0  0  0  0  0  0  0  0  0  0  0  0
   -0.0302    0.1596   -2.3040 C   0  0  0  0  0  0  0  0  0  0  0  0
    0.0367    0.8574   -3.4944 N   0  3  0  0  0  0  0  0  0  0  0  0
   -0.1079    1.8687   -3.5654 H   0  0  0  0  0  0  0  0  0  0  0  0
    0.4085    0.0030   -4.4683 C   0  0  0  0  0  0  0  0  0  0  0  0
    0.5581    0.2665   -5.5134 H   0  0  0  0  0  0  0  0  0  0  0  0
    0.5779   -1.2222   -3.9219 N   0  0  0  0  0  0  0  0  0  0  0  0
    0.8603   -2.0633   -4.4182 H   0  0  0  0  0  0  0  0  0  0  0  0
    0.3062   -1.1416   -2.5631 C   0  0  0  0  0  0  0  0  0  0  0  0
    0.3500   -1.9488   -1.8371 H   0  0  0  0  0  0  0  0  0  0  0  0
    0.0470    0.3465    1.5629 C   0  0  0  0  0  0  0  0  0  0  0  0
    1.1854    0.1365    1.9846 O   0  0  0  0  0  0  0  0  0  0  0  0
   -0.8551    1.0750    2.2320 N   0  0  0  0  0  0  0  0  0  0  0  0
   -1.7594    1.2031    1.8040 H   0  0  0  0  0  0  0  0  0  0  0  0
   -0.6356    1.6998    3.5400 C   0  0  0  0  0  0  0  0  0  0  0  0
   -0.4284    2.7647    3.4168 H   0  0  0  0  0  0  0  0  0  0  0  0
   -1.5268    1.5885    4.1601 H   0  0  0  0  0  0  0  0  0  0  0  0
    0.2072    1.2358    4.0566 H   0  0  0  0  0  0  0  0  0  0  0  0
  5  6  2  0  0  0  0
  5  7  1  0  0  0  0
  2  3  1  0  0  0  0
  2  4  1  0  0  0  0
  2  5  1  0  0  0  0
  1  2  1  0  0  0  0
 23 24  2  0  0  0  0
 23 25  1  0  0  0  0
 21 22  1  0  0  0  0
 19 20  1  0  0  0  0
 19 21  1  0  0  0  0
 17 18  1  0  0  0  0
 17 19  1  0  0  0  0
 15 16  1  0  0  0  0
 15 17  2  0  0  0  0
 14 15  1  0  0  0  0
 14 21  2  0  0  0  0
 11 12  1  0  0  0  0
 11 13  1  0  0  0  0
 11 14  1  0  0  0  0
  9 10  1  0  0  0  0
  9 11  1  0  0  0  0
  9 23  1  0  0  0  0
  7  8  1  0  0  0  0
  7  9  1  0  0  0  0
 27 28  1  0  0  0  0
 27 29  1  0  0  0  0
 27 30  1  0  0  0  0
 25 26  1  0  0  0  0
 25 27  1  0  0  0  0
M  CHG  1  15   1
M  END
$$$$
default_name
  -OEChem-02102213163D

 30 30  0     1  0  0  0  0  0999 V2000
   -3.5507   -3.2183    1.8116 H   0  0  0  0  0  0  0  0  0  0  0  0
   -3.4597   -2.3913    1.1076 C   0  0  0  0  0  0  0  0  0  0  0  0
   -4.1577   -1.6043    1.3866 H   0  0  0  0  0  0  0  0  0  0  0  0
   -3.6807   -2.7523    0.1036 H   0  0  0  0  0  0  0  0  0  0  0  0
   -2.0477   -1.8543    1.1546 C   0  0  0  0  0  0  0  0  0  0  0  0
   -1.2227   -2.3443    1.9146 O   0  0  0  0  0  0  0  0  0  0  0  0
   -1.7517   -0.8483    0.3266 N   0  0  0  0  0  0  0  0  0  0  0  0
   -2.4847   -0.5123   -0.2804 H   0  0  0  0  0  0  0  0  0  0  0  0
   -0.4117   -0.2463    0.2186 C   0  0  1  0  0  0  0  0  0  0  0  0
    0.2987   -1.0391   -0.0285 H   0  0  0  0  0  0  0  0  0  0  0  0
   -0.4131    0.7505   -0.9636 C   0  0  0  0  0  0  0  0  0  0  0  0
   -1.4100    1.1905   -1.0469 H   0  0  0  0  0  0  0  0  0  0  0  0
    0.2795    1.5652   -0.7417 H   0  0  0  0  0  0  0  0  0  0  0  0
   -0.0302    0.1596   -2.3040 C   0  0  0  0  0  0  0  0  0  0  0  0
    0.3215    0.8856   -3.4255 N   0  3  0  0  0  0  0  0  0  0  0  0
    0.4175    1.9051   -3.4314 H   0  0  0  0  0  0  0  0  0  0  0  0
    0.5943    0.0217   -4.4235 C   0  0  0  0  0  0  0  0  0  0  0  0
    0.9122    0.2989   -5.4265 H   0  0  0  0  0  0  0  0  0  0  0  0
    0.4223   -1.2368   -3.9599 N   0  0  0  0  0  0  0  0  0  0  0  0
    0.5597   -2.0926   -4.4912 H   0  0  0  0  0  0  0  0  0  0  0  0
    0.0299   -1.1684   -2.6303 C   0  0  0  0  0  0  0  0  0  0  0  0
   -0.1889   -2.0013   -1.9678 H   0  0  0  0  0  0  0  0  0  0  0  0
    0.0470    0.3465    1.5629 C   0  0  0  0  0  0  0  0  0  0  0  0
    1.1854    0.1365    1.9846 O   0  0  0  0  0  0  0  0  0  0  0  0
   -0.8551    1.0750    2.2320 N   0  0  0  0  0  0  0  0  0  0  0  0
   -1.7594    1.2031    1.8040 H   0  0  0  0  0  0  0  0  0  0  0  0
   -0.6356    1.6998    3.5400 C   0  0  0  0  0  0  0  0  0  0  0  0
   -0.4284    2.7647    3.4168 H   0  0  0  0  0  0  0  0  0  0  0  0
   -1.5268    1.5885    4.1601 H   0  0  0  0  0  0  0  0  0  0  0  0
    0.2072    1.2358    4.0566 H   0  0  0  0  0  0  0  0  0  0  0  0
  5  6  2  0  0  0  0
  5  7  1  0  0  0  0
  2  3  1  0  0  0  0
  2  4  1  0  0  0  0
  2  5  1  0  0  0  0
  1  2  1  0  0  0  0
 23 24  2  0  0  0  0
 23 25  1  0  0  0  0
 21 22  1  0  0  0  0
 19 20  1  0  0  0  0
 19 21  1  0  0  0  0
 17 18  1  0  0  0  0
 17 19  1  0  0  0  0
 15 16  1  0  0  0  0
 15 17  2  0  0  0  0
 14 15  1  0  0  0  0
 14 21  2  0  0  0  0
 11 12  1  0  0  0  0
 11 13  1  0  0  0  0
 11 14  1  0  0  0  0
  9 10  1  0  0  0  0
  9 11  1  0  0  0  0
  9 23  1  0  0  0  0
  7  8  1  0  0  0  0
  7  9  1  0  0  0  0
 27 28  1  0  0  0  0
 27 29  1  0  0  0  0
 27 30  1  0  0  0  0
 25 26  1  0  0  0  0
 25 27  1  0  0  0  0
M  CHG  1  15   1
M  END
$$$$
default_name
  -OEChem-02102213163D

 30 30  0     1  0  0  0  0  0999 V2000
   -3.5507   -3.2183    1.8116 H   0  0  0  0  0  0  0  0  0  0  0  0
   -3.4597   -2.3913    1.1076 C   0  0  0  0  0  0  0  0  0  0  0  0
   -4.1577   -1.6043    1.3866 H   0  0  0  0  0  0  0  0  0  0  0  0
   -3.6807   -2.7523    0.1036 H   0  0  0  0  0  0  0  0  0  0  0  0
   -2.0477   -1.8543    1.1546 C   0  0  0  0  0  0  0  0  0  0  0  0
   -1.2227   -2.3443    1.9146 O   0  0  0  0  0  0  0  0  0  0  0  0
   -1.7517   -0.8483    0.3266 N   0  0  0  0  0  0  0  0  0  0  0  0
   -2.4847   -0.5123   -0.2804 H   0  0  0  0  0  0  0  0  0  0  0  0
   -0.4117   -0.2463    0.2186 C   0  0  1  0  0  0  0  0  0  0  0  0
    0.2987   -1.0391   -0.0285 H   0  0  0  0  0  0  0  0  0  0  0  0
   -0.4131    0.7505   -0.9636 C   0  0  0  0  0  0  0  0  0  0  0  0
   -1.4100    1.1905   -1.0469 H   0  0  0  0  0  0  0  0  0  0  0  0
    0.2795    1.5652   -0.7417 H   0  0  0  0  0  0  0  0  0  0  0  0
   -0.0302    0.1596   -2.3040 C   0  0  0  0  0  0  0  0  0  0  0  0
    0.5960    0.8430   -3.3283 N   0  3  0  0  0  0  0  0  0  0  0  0
    0.9198    1.8111   -3.2464 H   0  0  0  0  0  0  0  0  0  0  0  0
    0.7735   -0.0057   -4.3602 C   0  0  0  0  0  0  0  0  0  0  0  0
    1.2528    0.2434   -5.3048 H   0  0  0  0  0  0  0  0  0  0  0  0
    0.2725   -1.2128   -4.0133 N   0  0  0  0  0  0  0  0  0  0  0  0
    0.2701   -2.0473   -4.5939 H   0  0  0  0  0  0  0  0  0  0  0  0
   -0.2364   -1.1265   -2.7248 C   0  0  0  0  0  0  0  0  0  0  0  0
   -0.7082   -1.9200   -2.1520 H   0  0  0  0  0  0  0  0  0  0  0  0
    0.0470    0.3465    1.5629 C   0  0  0  0  0  0  0  0  0  0  0  0
    1.1854    0.1365    1.9846 O   0  0  0  0  0  0  0  0  0  0  0  0
   -0.8551    1.0750    2.2320 N   0  0  0  0  0  0  0  0  0  0  0  0
   -1.7594    1.2031    1.8040 H   0  0  0  0  0  0  0  0  0  0  0  0
   -0.6356    1.6998    3.5400 C   0  0  0  0  0  0  0  0  0  0  0  0
   -0.4284    2.7647    3.4168 H   0  0  0  0  0  0  0  0  0  0  0  0
   -1.5268    1.5885    4.1601 H   0  0  0  0  0  0  0  0  0  0  0  0
    0.2072    1.2358    4.0566 H   0  0  0  0  0  0  0  0  0  0  0  0
  5  6  2  0  0  0  0
  5  7  1  0  0  0  0
  2  3  1  0  0  0  0
  2  4  1  0  0  0  0
  2  5  1  0  0  0  0
  1  2  1  0  0  0  0
 23 24  2  0  0  0  0
 23 25  1  0  0  0  0
 21 22  1  0  0  0  0
 19 20  1  0  0  0  0
 19 21  1  0  0  0  0
 17 18  1  0  0  0  0
 17 19  1  0  0  0  0
 15 16  1  0  0  0  0
 15 17  2  0  0  0  0
 14 15  1  0  0  0  0
 14 21  2  0  0  0  0
 11 12  1  0  0  0  0
 11 13  1  0  0  0  0
 11 14  1  0  0  0  0
  9 10  1  0  0  0  0
  9 11  1  0  0  0  0
  9 23  1  0  0  0  0
  7  8  1  0  0  0  0
  7  9  1  0  0  0  0
 27 28  1  0  0  0  0
 27 29  1  0  0  0  0
 27 30  1  0  0  0  0
 25 26  1  0  0  0  0
 25 27  1  0  0  0  0
M  CHG  1  15   1
M  END
$$$$
default_name
  -OEChem-02102213163D

 30 30  0     1  0  0  0  0  0999 V2000
   -3.5507   -3.2183    1.8116 H   0  0  0  0  0  0  0  0  0  0  0  0
   -3.4597   -2.3913    1.1076 C   0  0  0  0  0  0  0  0  0  0  0  0
   -4.1577   -1.6043    1.3866 H   0  0  0  0  0  0  0  0  0  0  0  0
   -3.6807   -2.7523    0.1036 H   0  0  0  0  0  0  0  0  0  0  0  0
   -2.0477   -1.8543    1.1546 C   0  0  0  0  0  0  0  0  0  0  0  0
   -1.2227   -2.3443    1.9146 O   0  0  0  0  0  0  0  0  0  0  0  0
   -1.7517   -0.8483    0.3266 N   0  0  0  0  0  0  0  0  0  0  0  0
   -2.4847   -0.5123   -0.2804 H   0  0  0  0  0  0  0  0  0  0  0  0
   -0.4117   -0.2463    0.2186 C   0  0  1  0  0  0  0  0  0  0  0  0
    0.2987   -1.0391   -0.0285 H   0  0  0  0  0  0  0  0  0  0  0  0
   -0.4131    0.7505   -0.9636 C   0  0  0  0  0  0  0  0  0  0  0  0
   -1.4100    1.1905   -1.0469 H   0  0  0  0  0  0  0  0  0  0  0  0
    0.2795    1.5652   -0.7417 H   0  0  0  0  0  0  0  0  0  0  0  0
   -0.0302    0.1596   -2.3040 C   0  0  0  0  0  0  0  0  0  0  0  0
    0.8416    0.7327   -3.2095 N   0  3  0  0  0  0  0  0  0  0  0  0
    1.3648    1.5931   -3.0233 H   0  0  0  0  0  0  0  0  0  0  0  0
    0.9340   -0.0774   -4.2827 C   0  0  0  0  0  0  0  0  0  0  0  0
    1.5569    0.1038   -5.1563 H   0  0  0  0  0  0  0  0  0  0  0  0
    0.1387   -1.1518   -4.0784 N   0  0  0  0  0  0  0  0  0  0  0  0
    0.0110   -1.9305   -4.7194 H   0  0  0  0  0  0  0  0  0  0  0  0
   -0.4744   -1.0188   -2.8403 C   0  0  0  0  0  0  0  0  0  0  0  0
   -1.1726   -1.7105   -2.3770 H   0  0  0  0  0  0  0  0  0  0  0  0
    0.0470    0.3465    1.5629 C   0  0  0  0  0  0  0  0  0  0  0  0
    1.1854    0.1365    1.9846 O   0  0  0  0  0  0  0  0  0  0  0  0
   -0.8551    1.0750    2.2320 N   0  0  0  0  0  0  0  0  0  0  0  0
   -1.7594    1.2031    1.8040 H   0  0  0  0  0  0  0  0  0  0  0  0
   -0.6356    1.6998    3.5400 C   0  0  0  0  0  0  0  0  0  0  0  0
   -0.4284    2.7647    3.4168 H   0  0  0  0  0  0  0  0  0  0  0  0
   -1.5268    1.5885    4.1601 H   0  0  0  0  0  0  0  0  0  0  0  0
    0.2072    1.2358    4.0566 H   0  0  0  0  0  0  0  0  0  0  0  0
  5  6  2  0  0  0  0
  5  7  1  0  0  0  0
  2  3  1  0  0  0  0
  2  4  1  0  0  0  0
  2  5  1  0  0  0  0
  1  2  1  0  0  0  0
 23 24  2  0  0  0  0
 23 25  1  0  0  0  0
 21 22  1  0  0  0  0
 19 20  1  0  0  0  0
 19 21  1  0  0  0  0
 17 18  1  0  0  0  0
 17 19  1  0  0  0  0
 15 16  1  0  0  0  0
 15 17  2  0  0  0  0
 14 15  1  0  0  0  0
 14 21  2  0  0  0  0
 11 12  1  0  0  0  0
 11 13  1  0  0  0  0
 11 14  1  0  0  0  0
  9 10  1  0  0  0  0
  9 11  1  0  0  0  0
  9 23  1  0  0  0  0
  7  8  1  0  0  0  0
  7  9  1  0  0  0  0
 27 28  1  0  0  0  0
 27 29  1  0  0  0  0
 27 30  1  0  0  0  0
 25 26  1  0  0  0  0
 25 27  1  0  0  0  0
M  CHG  1  15   1
M  END
$$$$
default_name
  -OEChem-02102213163D

 30 30  0     1  0  0  0  0  0999 V2000
   -3.5507   -3.2183    1.8116 H   0  0  0  0  0  0  0  0  0  0  0  0
   -3.4597   -2.3913    1.1076 C   0  0  0  0  0  0  0  0  0  0  0  0
   -4.1577   -1.6043    1.3866 H   0  0  0  0  0  0  0  0  0  0  0  0
   -3.6807   -2.7523    0.1036 H   0  0  0  0  0  0  0  0  0  0  0  0
   -2.0477   -1.8543    1.1546 C   0  0  0  0  0  0  0  0  0  0  0  0
   -1.2227   -2.3443    1.9146 O   0  0  0  0  0  0  0  0  0  0  0  0
   -1.7517   -0.8483    0.3266 N   0  0  0  0  0  0  0  0  0  0  0  0
   -2.4847   -0.5123   -0.2804 H   0  0  0  0  0  0  0  0  0  0  0  0
   -0.4117   -0.2463    0.2186 C   0  0  1  0  0  0  0  0  0  0  0  0
    0.2987   -1.0391   -0.0285 H   0  0  0  0  0  0  0  0  0  0  0  0
   -0.4131    0.7505   -0.9636 C   0  0  0  0  0  0  0  0  0  0  0  0
   -1.4100    1.1905   -1.0469 H   0  0  0  0  0  0  0  0  0  0  0  0
    0.2795    1.5652   -0.7417 H   0  0  0  0  0  0  0  0  0  0  0  0
   -0.0302    0.1596   -2.3040 C   0  0  0  0  0  0  0  0  0  0  0  0
    1.0416    0.5621   -3.0771 N   0  3  0  0  0  0  0  0  0  0  0  0
    1.7221    1.2660   -2.7770 H   0  0  0  0  0  0  0  0  0  0  0  0
    1.0647   -0.1885   -4.1964 C   0  0  0  0  0  0  0  0  0  0  0  0
    1.8035   -0.1105   -4.9914 H   0  0  0  0  0  0  0  0  0  0  0  0
    0.0301   -1.0580   -4.1508 N   0  0  0  0  0  0  0  0  0  0  0  0
   -0.1997   -1.7500   -4.8591 H   0  0  0  0  0  0  0  0  0  0  0  0
   -0.6680   -0.8527   -2.9688 C   0  0  0  0  0  0  0  0  0  0  0  0
   -1.5504   -1.3870   -2.6276 H   0  0  0  0  0  0  0  0  0  0  0  0
    0.0470    0.3465    1.5629 C   0  0  0  0  0  0  0  0  0  0  0  0
    1.1854    0.1365    1.9846 O   0  0  0  0  0  0  0  0  0  0  0  0
   -0.8551    1.0750    2.2320 N   0  0  0  0  0  0  0  0  0  0  0  0
   -1.7594    1.2031    1.8040 H   0  0  0  0  0  0  0  0  0  0  0  0
   -0.6356    1.6998    3.5400 C   0  0  0  0  0  0  0  0  0  0  0  0
   -0.4284    2.7647    3.4168 H   0  0  0  0  0  0  0  0  0  0  0  0
   -1.5268    1.5885    4.1601 H   0  0  0  0  0  0  0  0  0  0  0  0
    0.2072    1.2358    4.0566 H   0  0  0  0  0  0  0  0  0  0  0  0
  5  6  2  0  0  0  0
  5  7  1  0  0  0  0
  2  3  1  0  0  0  0
  2  4  1  0  0  0  0
  2  5  1  0  0  0  0
  1  2  1  0  0  0  0
 23 24  2  0  0  0  0
 23 25  1  0  0  0  0
 21 22  1  0  0  0  0
 19 20  1  0  0  0  0
 19 21  1  0  0  0  0
 17 18  1  0  0  0  0
 17 19  1  0  0  0  0
 15 16  1  0  0  0  0
 15 17  2  0  0  0  0
 14 15  1  0  0  0  0
 14 21  2  0  0  0  0
 11 12  1  0  0  0  0
 11 13  1  0  0  0  0
 11 14  1  0  0  0  0
  9 10  1  0  0  0  0
  9 11  1  0  0  0  0
  9 23  1  0  0  0  0
  7  8  1  0  0  0  0
  7  9  1  0  0  0  0
 27 28  1  0  0  0  0
 27 29  1  0  0  0  0
 27 30  1  0  0  0  0
 25 26  1  0  0  0  0
 25 27  1  0  0  0  0
M  CHG  1  15   1
M  END
$$$$
default_name
  -OEChem-02102213163D

 30 30  0     1  0  0  0  0  0999 V2000
   -3.5507   -3.2183    1.8116 H   0  0  0  0  0  0  0  0  0  0  0  0
   -3.4597   -2.3913    1.1076 C   0  0  0  0  0  0  0  0  0  0  0  0
   -4.1577   -1.6043    1.3866 H   0  0  0  0  0  0  0  0  0  0  0  0
   -3.6807   -2.7523    0.1036 H   0  0  0  0  0  0  0  0  0  0  0  0
   -2.0477   -1.8543    1.1546 C   0  0  0  0  0  0  0  0  0  0  0  0
   -1.2227   -2.3443    1.9146 O   0  0  0  0  0  0  0  0  0  0  0  0
   -1.7517   -0.8483    0.3266 N   0  0  0  0  0  0  0  0  0  0  0  0
   -2.4847   -0.5123   -0.2804 H   0  0  0  0  0  0  0  0  0  0  0  0
   -0.4117   -0.2463    0.2186 C   0  0  1  0  0  0  0  0  0  0  0  0
    0.2987   -1.0391   -0.0285 H   0  0  0  0  0  0  0  0  0  0  0  0
   -0.4131    0.7505   -0.9636 C   0  0  0  0  0  0  0  0  0  0  0  0
   -1.4100    1.1905   -1.0469 H   0  0  0  0  0  0  0  0  0  0  0  0
    0.2795    1.5652   -0.7417 H   0  0  0  0  0  0  0  0  0  0  0  0
   -0.0302    0.1596   -2.3040 C   0  0  0  0  0  0  0  0  0  0  0  0
    1.1822    0.3428   -2.9403 N   0  3  0  0  0  0  0  0  0  0  0  0
    1.9674    0.8521   -2.5244 H   0  0  0  0  0  0  0  0  0  0  0  0
    1.1568   -0.3314   -4.1071 C   0  0  0  0  0  0  0  0  0  0  0  0
    1.9760   -0.3848   -4.8212 H   0  0  0  0  0  0  0  0  0  0  0  0
   -0.0461   -0.9377   -4.2256 N   0  0  0  0  0  0  0  0  0  0  0  0
   -0.3478   -1.5183   -5.0036 H   0  0  0  0  0  0  0  0  0  0  0  0
   -0.8040   -0.6395   -3.1016 C   0  0  0  0  0  0  0  0  0  0  0  0
   -1.8159   -0.9715   -2.8866 H   0  0  0  0  0  0  0  0  0  0  0  0
    0.0470    0.3465    1.5629 C   0  0  0  0  0  0  0  0  0  0  0  0
    1.1854    0.1365    1.9846 O   0  0  0  0  0  0  0  0  0  0  0  0
   -0.8551    1.0750    2.2320 N   0  0  0  0  0  0  0  0  0  0  0  0
   -1.7594    1.2031    1.8040 H   0  0  0  0  0  0  0  0  0  0  0  0
   -0.6356    1.6998    3.5400 C   0  0  0  0  0  0  0  0  0  0  0  0
   -0.4284    2.7647    3.4168 H   0  0  0  0  0  0  0  0  0  0  0  0
   -1.5268    1.5885    4.1601 H   0  0  0  0  0  0  0  0  0  0  0  0
    0.2072    1.2358    4.0566 H   0  0  0  0  0  0  0  0  0  0  0  0
  5  6  2  0  0  0  0
  5  7  1  0  0  0  0
  2  3  1  0  0  0  0
  2  4  1  0  0  0  0
  2  5  1  0  0  0  0
  1  2  1  0  0  0  0
 23 24  2  0  0  0  0
 23 25  1  0  0  0  0
 21 22  1  0  0  0  0
 19 20  1  0  0  0  0
 19 21  1  0  0  0  0
 17 18  1  0  0  0  0
 17 19  1  0  0  0  0
 15 16  1  0  0  0  0
 15 17  2  0  0  0  0
 14 15  1  0  0  0  0
 14 21  2  0  0  0  0
 11 12  1  0  0  0  0
 11 13  1  0  0  0  0
 11 14  1  0  0  0  0
  9 10  1  0  0  0  0
  9 11  1  0  0  0  0
  9 23  1  0  0  0  0
  7  8  1  0  0  0  0
  7  9  1  0  0  0  0
 27 28  1  0  0  0  0
 27 29  1  0  0  0  0
 27 30  1  0  0  0  0
 25 26  1  0  0  0  0
 25 27  1  0  0  0  0
M  CHG  1  15   1
M  END
$$$$
default_name
  -OEChem-02102213163D

 30 30  0     1  0  0  0  0  0999 V2000
   -3.5507   -3.2183    1.8116 H   0  0  0  0  0  0  0  0  0  0  0  0
   -3.4597   -2.3913    1.1076 C   0  0  0  0  0  0  0  0  0  0  0  0
   -4.1577   -1.6043    1.3866 H   0  0  0  0  0  0  0  0  0  0  0  0
   -3.6807   -2.7523    0.1036 H   0  0  0  0  0  0  0  0  0  0  0  0
   -2.0477   -1.8543    1.1546 C   0  0  0  0  0  0  0  0  0  0  0  0
   -1.2227   -2.3443    1.9146 O   0  0  0  0  0  0  0  0  0  0  0  0
   -1.7517   -0.8483    0.3266 N   0  0  0  0  0  0  0  0  0  0  0  0
   -2.4847   -0.5123   -0.2804 H   0  0  0  0  0  0  0  0  0  0  0  0
   -0.4117   -0.2463    0.2186 C   0  0  1  0  0  0  0  0  0  0  0  0
    0.2987   -1.0391   -0.0285 H   0  0  0  0  0  0  0  0  0  0  0  0
   -0.4131    0.7505   -0.9636 C   0  0  0  0  0  0  0  0  0  0  0  0
   -1.4100    1.1905   -1.0469 H   0  0  0  0  0  0  0  0  0  0  0  0
    0.2795    1.5652   -0.7417 H   0  0  0  0  0  0  0  0  0  0  0  0
   -0.0302    0.1596   -2.3040 C   0  0  0  0  0  0  0  0  0  0  0  0
    1.2541    0.0897   -2.8082 N   0  3  0  0  0  0  0  0  0  0  0  0
    2.0839    0.3795   -2.2828 H   0  0  0  0  0  0  0  0  0  0  0  0
    1.2040   -0.4964   -4.0209 C   0  0  0  0  0  0  0  0  0  0  0  0
    2.0626   -0.7003   -4.6574 H   0  0  0  0  0  0  0  0  0  0  0  0
   -0.0845   -0.7991   -4.2976 N   0  0  0  0  0  0  0  0  0  0  0  0
   -0.4232   -1.2511   -5.1429 H   0  0  0  0  0  0  0  0  0  0  0  0
   -0.8730   -0.3937   -3.2297 C   0  0  0  0  0  0  0  0  0  0  0  0
   -1.9510   -0.4924   -3.1364 H   0  0  0  0  0  0  0  0  0  0  0  0
    0.0470    0.3465    1.5629 C   0  0  0  0  0  0  0  0  0  0  0  0
    1.1854    0.1365    1.9846 O   0  0  0  0  0  0  0  0  0  0  0  0
   -0.8551    1.0750    2.2320 N   0  0  0  0  0  0  0  0  0  0  0  0
   -1.7594    1.2031    1.8040 H   0  0  0  0  0  0  0  0  0  0  0  0
   -0.6356    1.6998    3.5400 C   0  0  0  0  0  0  0  0  0  0  0  0
   -0.4284    2.7647    3.4168 H   0  0  0  0  0  0  0  0  0  0  0  0
   -1.5268    1.5885    4.1601 H   0  0  0  0  0  0  0  0  0  0  0  0
    0.2072    1.2358    4.0566 H   0  0  0  0  0  0  0  0  0  0  0  0
  5  6  2  0  0  0  0
  5  7  1  0  0  0  0
  2  3  1  0  0  0  0
  2  4  1  0  0  0  0
  2  5  1  0  0  0  0
  1  2  1  0  0  0  0
 23 24  2  0  0  0  0
 23 25  1  0  0  0  0
 21 22  1  0  0  0  0
 19 20  1  0  0  0  0
 19 21  1  0  0  0  0
 17 18  1  0  0  0  0
 17 19  1  0  0  0  0
 15 16  1  0  0  0  0
 15 17  2  0  0  0  0
 14 15  1  0  0  0  0
 14 21  2  0  0  0  0
 11 12  1  0  0  0  0
 11 13  1  0  0  0  0
 11 14  1  0  0  0  0
  9 10  1  0  0  0  0
  9 11  1  0  0  0  0
  9 23  1  0  0  0  0
  7  8  1  0  0  0  0
  7  9  1  0  0  0  0
 27 28  1  0  0  0  0
 27 29  1  0  0  0  0
 27 30  1  0  0  0  0
 25 26  1  0  0  0  0
 25 27  1  0  0  0  0
M  CHG  1  15   1
M  END
$$$$
default_name
  -OEChem-02102213163D

 30 30  0     1  0  0  0  0  0999 V2000
   -3.5507   -3.2183    1.8116 H   0  0  0  0  0  0  0  0  0  0  0  0
   -3.4597   -2.3913    1.1076 C   0  0  0  0  0  0  0  0  0  0  0  0
   -4.1577   -1.6043    1.3866 H   0  0  0  0  0  0  0  0  0  0  0  0
   -3.6807   -2.7523    0.1036 H   0  0  0  0  0  0  0  0  0  0  0  0
   -2.0477   -1.8543    1.1546 C   0  0  0  0  0  0  0  0  0  0  0  0
   -1.2227   -2.3443    1.9146 O   0  0  0  0  0  0  0  0  0  0  0  0
   -1.7517   -0.8483    0.3266 N   0  0  0  0  0  0  0  0  0  0  0  0
   -2.4847   -0.5123   -0.2804 H   0  0  0  0  0  0  0  0  0  0  0  0
   -0.4117   -0.2463    0.2186 C   0  0  1  0  0  0  0  0  0  0  0  0
    0.2987   -1.0391   -0.0285 H   0  0  0  0  0  0  0  0  0  0  0  0
   -0.4131    0.7505   -0.9636 C   0  0  0  0  0  0  0  0  0  0  0  0
   -1.4100    1.1905   -1.0469 H   0  0  0  0  0  0  0  0  0  0  0  0
    0.2795    1.5652   -0.7417 H   0  0  0  0  0  0  0  0  0  0  0  0
   -0.0302    0.1596   -2.3040 C   0  0  0  0  0  0  0  0  0  0  0  0
    1.2521   -0.1797   -2.6900 N   0  3  0  0  0  0  0  0  0  0  0  0
    2.0638   -0.1195   -2.0685 H   0  0  0  0  0  0  0  0  0  0  0  0
    1.2030   -0.6723   -3.9436 C   0  0  0  0  0  0  0  0  0  0  0  0
    2.0574   -1.0357   -4.5110 H   0  0  0  0  0  0  0  0  0  0  0  0
   -0.0826   -0.6518   -4.3620 N   0  0  0  0  0  0  0  0  0  0  0  0
   -0.4207   -0.9666   -5.2676 H   0  0  0  0  0  0  0  0  0  0  0  0
   -0.8705   -0.1321   -3.3443 C   0  0  0  0  0  0  0  0  0  0  0  0
   -1.9465    0.0177   -3.3600 H   0  0  0  0  0  0  0  0  0  0  0  0
    0.0470    0.3465    1.5629 C   0  0  0  0  0  0  0  0  0  0  0  0
    1.1854    0.1365    1.9846 O   0  0  0  0  0  0  0  0  0  0  0  0
   -0.8551    1.0750    2.2320 N   0  0  0  0  0  0  0  0  0  0  0  0
   -1.7594    1.2031    1.8040 H   0  0  0  0  0  0  0  0  0  0  0  0
   -0.6356    1.6998    3.5400 C   0  0  0  0  0  0  0  0  0  0  0  0
   -0.4284    2.7647    3.4168 H   0  0  0  0  0  0  0  0  0  0  0  0
   -1.5268    1.5885    4.1601 H   0  0  0  0  0  0  0  0  0  0  0  0
    0.2072    1.2358    4.0566 H   0  0  0  0  0  0  0  0  0  0  0  0
  5  6  2  0  0  0  0
  5  7  1  0  0  0  0
  2  3  1  0  0  0  0
  2  4  1  0  0  0  0
  2  5  1  0  0  0  0
  1  2  1  0  0  0  0
 23 24  2  0  0  0  0
 23 25  1  0  0  0  0
 21 22  1  0  0  0  0
 19 20  1  0  0  0  0
 19 21  1  0  0  0  0
 17 18  1  0  0  0  0
 17 19  1  0  0  0  0
 15 16  1  0  0  0  0
 15 17  2  0  0  0  0
 14 15  1  0  0  0  0
 14 21  2  0  0  0  0
 11 12  1  0  0  0  0
 11 13  1  0  0  0  0
 11 14  1  0  0  0  0
  9 10  1  0  0  0  0
  9 11  1  0  0  0  0
  9 23  1  0  0  0  0
  7  8  1  0  0  0  0
  7  9  1  0  0  0  0
 27 28  1  0  0  0  0
 27 29  1  0  0  0  0
 27 30  1  0  0  0  0
 25 26  1  0  0  0  0
 25 27  1  0  0  0  0
M  CHG  1  15   1
M  END
$$$$
default_name
  -OEChem-02102213163D

 30 30  0     1  0  0  0  0  0999 V2000
   -3.5507   -3.2183    1.8116 H   0  0  0  0  0  0  0  0  0  0  0  0
   -3.4597   -2.3913    1.1076 C   0  0  0  0  0  0  0  0  0  0  0  0
   -4.1577   -1.6043    1.3866 H   0  0  0  0  0  0  0  0  0  0  0  0
   -3.6807   -2.7523    0.1036 H   0  0  0  0  0  0  0  0  0  0  0  0
   -2.0477   -1.8543    1.1546 C   0  0  0  0  0  0  0  0  0  0  0  0
   -1.2227   -2.3443    1.9146 O   0  0  0  0  0  0  0  0  0  0  0  0
   -1.7517   -0.8483    0.3266 N   0  0  0  0  0  0  0  0  0  0  0  0
   -2.4847   -0.5123   -0.2804 H   0  0  0  0  0  0  0  0  0  0  0  0
   -0.4117   -0.2463    0.2186 C   0  0  1  0  0  0  0  0  0  0  0  0
    0.2987   -1.0391   -0.0285 H   0  0  0  0  0  0  0  0  0  0  0  0
   -0.4131    0.7505   -0.9636 C   0  0  0  0  0  0  0  0  0  0  0  0
   -1.4100    1.1905   -1.0469 H   0  0  0  0  0  0  0  0  0  0  0  0
    0.2795    1.5652   -0.7417 H   0  0  0  0  0  0  0  0  0  0  0  0
   -0.0302    0.1596   -2.3040 C   0  0  0  0  0  0  0  0  0  0  0  0
    1.1766   -0.4474   -2.5936 N   0  3  0  0  0  0  0  0  0  0  0  0
    1.9085   -0.6109   -1.8963 H   0  0  0  0  0  0  0  0  0  0  0  0
    1.1540   -0.8469   -3.8806 C   0  0  0  0  0  0  0  0  0  0  0  0
    1.9608   -1.3681   -4.3921 H   0  0  0  0  0  0  0  0  0  0  0  0
   -0.0406   -0.5057   -4.4144 N   0  0  0  0  0  0  0  0  0  0  0  0
   -0.3405   -0.6842   -5.3692 H   0  0  0  0  0  0  0  0  0  0  0  0
   -0.7965    0.1276   -3.4376 C   0  0  0  0  0  0  0  0  0  0  0  0
   -1.8027    0.5240   -3.5421 H   0  0  0  0  0  0  0  0  0  0  0  0
    0.0470    0.3465    1.5629 C   0  0  0  0  0  0  0  0  0  0  0  0
    1.1854    0.1365    1.9846 O   0  0  0  0  0  0  0  0  0  0  0  0
   -0.8551    1.0750    2.2320 N   0  0  0  0  0  0  0  0  0  0  0  0
   -1.7594    1.2031    1.8040 H   0  0  0  0  0  0  0  0  0  0  0  0
   -0.6356    1.6998    3.5400 C   0  0  0  0  0  0  0  0  0  0  0  0
   -0.4284    2.7647    3.4168 H   0  0  0  0  0  0  0  0  0  0  0  0
   -1.5268    1.5885    4.1601 H   0  0  0  0  0  0  0  0  0  0  0  0
    0.2072    1.2358    4.0566 H   0  0  0  0  0  0  0  0  0  0  0  0
  5  6  2  0  0  0  0
  5  7  1  0  0  0  0
  2  3  1  0  0  0  0
  2  4  1  0  0  0  0
  2  5  1  0  0  0  0
  1  2  1  0  0  0  0
 23 24  2  0  0  0  0
 23 25  1  0  0  0  0
 21 22  1  0  0  0  0
 19 20  1  0  0  0  0
 19 21  1  0  0  0  0
 17 18  1  0  0  0  0
 17 19  1  0  0  0  0
 15 16  1  0  0  0  0
 15 17  2  0  0  0  0
 14 15  1  0  0  0  0
 14 21  2  0  0  0  0
 11 12  1  0  0  0  0
 11 13  1  0  0  0  0
 11 14  1  0  0  0  0
  9 10  1  0  0  0  0
  9 11  1  0  0  0  0
  9 23  1  0  0  0  0
  7  8  1  0  0  0  0
  7  9  1  0  0  0  0
 27 28  1  0  0  0  0
 27 29  1  0  0  0  0
 27 30  1  0  0  0  0
 25 26  1  0  0  0  0
 25 27  1  0  0  0  0
M  CHG  1  15   1
M  END
$$$$
default_name
  -OEChem-02102213163D

 30 30  0     1  0  0  0  0  0999 V2000
   -3.5507   -3.2183    1.8116 H   0  0  0  0  0  0  0  0  0  0  0  0
   -3.4597   -2.3913    1.1076 C   0  0  0  0  0  0  0  0  0  0  0  0
   -4.1577   -1.6043    1.3866 H   0  0  0  0  0  0  0  0  0  0  0  0
   -3.6807   -2.7523    0.1036 H   0  0  0  0  0  0  0  0  0  0  0  0
   -2.0477   -1.8543    1.1546 C   0  0  0  0  0  0  0  0  0  0  0  0
   -1.2227   -2.3443    1.9146 O   0  0  0  0  0  0  0  0  0  0  0  0
   -1.7517   -0.8483    0.3266 N   0  0  0  0  0  0  0  0  0  0  0  0
   -2.4847   -0.5123   -0.2804 H   0  0  0  0  0  0  0  0  0  0  0  0
   -0.4117   -0.2463    0.2186 C   0  0  1  0  0  0  0  0  0  0  0  0
    0.2987   -1.0391   -0.0285 H   0  0  0  0  0  0  0  0  0  0  0  0
   -0.4131    0.7505   -0.9636 C   0  0  0  0  0  0  0  0  0  0  0  0
   -1.4100    1.1905   -1.0469 H   0  0  0  0  0  0  0  0  0  0  0  0
    0.2795    1.5652   -0.7417 H   0  0  0  0  0  0  0  0  0  0  0  0
   -0.0302    0.1596   -2.3040 C   0  0  0  0  0  0  0  0  0  0  0  0
    1.0325   -0.6948   -2.5256 N   0  3  0  0  0  0  0  0  0  0  0  0
    1.6284   -1.0613   -1.7777 H   0  0  0  0  0  0  0  0  0  0  0  0
    1.0603   -1.0085   -3.8361 C   0  0  0  0  0  0  0  0  0  0  0  0
    1.7792   -1.6748   -4.3087 H   0  0  0  0  0  0  0  0  0  0  0  0
    0.0389   -0.3708   -4.4512 N   0  0  0  0  0  0  0  0  0  0  0  0
   -0.1881   -0.4231   -5.4408 H   0  0  0  0  0  0  0  0  0  0  0  0
   -0.6561    0.3675   -3.5033 C   0  0  0  0  0  0  0  0  0  0  0  0
   -1.5293    0.9920   -3.6704 H   0  0  0  0  0  0  0  0  0  0  0  0
    0.0470    0.3465    1.5629 C   0  0  0  0  0  0  0  0  0  0  0  0
    1.1854    0.1365    1.9846 O   0  0  0  0  0  0  0  0  0  0  0  0
   -0.8551    1.0750    2.2320 N   0  0  0  0  0  0  0  0  0  0  0  0
   -1.7594    1.2031    1.8040 H   0  0  0  0  0  0  0  0  0  0  0  0
   -0.6356    1.6998    3.5400 C   0  0  0  0  0  0  0  0  0  0  0  0
   -0.4284    2.7647    3.4168 H   0  0  0  0  0  0  0  0  0  0  0  0
   -1.5268    1.5885    4.1601 H   0  0  0  0  0  0  0  0  0  0  0  0
    0.2072    1.2358    4.0566 H   0  0  0  0  0  0  0  0  0  0  0  0
  5  6  2  0  0  0  0
  5  7  1  0  0  0  0
  2  3  1  0  0  0  0
  2  4  1  0  0  0  0
  2  5  1  0  0  0  0
  1  2  1  0  0  0  0
 23 24  2  0  0  0  0
 23 25  1  0  0  0  0
 21 22  1  0  0  0  0
 19 20  1  0  0  0  0
 19 21  1  0  0  0  0
 17 18  1  0  0  0  0
 17 19  1  0  0  0  0
 15 16  1  0  0  0  0
 15 17  2  0  0  0  0
 14 15  1  0  0  0  0
 14 21  2  0  0  0  0
 11 12  1  0  0  0  0
 11 13  1  0  0  0  0
 11 14  1  0  0  0  0
  9 10  1  0  0  0  0
  9 11  1  0  0  0  0
  9 23  1  0  0  0  0
  7  8  1  0  0  0  0
  7  9  1  0  0  0  0
 27 28  1  0  0  0  0
 27 29  1  0  0  0  0
 27 30  1  0  0  0  0
 25 26  1  0  0  0  0
 25 27  1  0  0  0  0
M  CHG  1  15   1
M  END
$$$$
default_name
  -OEChem-02102213163D

 30 30  0     1  0  0  0  0  0999 V2000
   -3.5507   -3.2183    1.8116 H   0  0  0  0  0  0  0  0  0  0  0  0
   -3.4597   -2.3913    1.1076 C   0  0  0  0  0  0  0  0  0  0  0  0
   -4.1577   -1.6043    1.3866 H   0  0  0  0  0  0  0  0  0  0  0  0
   -3.6807   -2.7523    0.1036 H   0  0  0  0  0  0  0  0  0  0  0  0
   -2.0477   -1.8543    1.1546 C   0  0  0  0  0  0  0  0  0  0  0  0
   -1.2227   -2.3443    1.9146 O   0  0  0  0  0  0  0  0  0  0  0  0
   -1.7517   -0.8483    0.3266 N   0  0  0  0  0  0  0  0  0  0  0  0
   -2.4847   -0.5123   -0.2804 H   0  0  0  0  0  0  0  0  0  0  0  0
   -0.4117   -0.2463    0.2186 C   0  0  1  0  0  0  0  0  0  0  0  0
    0.2987   -1.0391   -0.0285 H   0  0  0  0  0  0  0  0  0  0  0  0
   -0.4131    0.7505   -0.9636 C   0  0  0  0  0  0  0  0  0  0  0  0
   -1.4100    1.1905   -1.0469 H   0  0  0  0  0  0  0  0  0  0  0  0
    0.2795    1.5652   -0.7417 H   0  0  0  0  0  0  0  0  0  0  0  0
   -0.0302    0.1596   -2.3040 C   0  0  0  0  0  0  0  0  0  0  0  0
    0.8298   -0.9053   -2.4907 N   0  3  0  0  0  0  0  0  0  0  0  0
    1.2427   -1.4399   -1.7210 H   0  0  0  0  0  0  0  0  0  0  0  0
    0.9283   -1.1461   -3.8132 C   0  0  0  0  0  0  0  0  0  0  0  0
    1.5252   -1.9349   -4.2666 H   0  0  0  0  0  0  0  0  0  0  0  0
    0.1502   -0.2563   -4.4699 N   0  0  0  0  0  0  0  0  0  0  0  0
    0.0262   -0.2012   -5.4774 H   0  0  0  0  0  0  0  0  0  0  0  0
   -0.4589    0.5714   -3.5369 C   0  0  0  0  0  0  0  0  0  0  0  0
   -1.1451    1.3899   -3.7360 H   0  0  0  0  0  0  0  0  0  0  0  0
    0.0470    0.3465    1.5629 C   0  0  0  0  0  0  0  0  0  0  0  0
    1.1854    0.1365    1.9846 O   0  0  0  0  0  0  0  0  0  0  0  0
   -0.8551    1.0750    2.2320 N   0  0  0  0  0  0  0  0  0  0  0  0
   -1.7594    1.2031    1.8040 H   0  0  0  0  0  0  0  0  0  0  0  0
   -0.6356    1.6998    3.5400 C   0  0  0  0  0  0  0  0  0  0  0  0
   -0.4284    2.7647    3.4168 H   0  0  0  0  0  0  0  0  0  0  0  0
   -1.5268    1.5885    4.1601 H   0  0  0  0  0  0  0  0  0  0  0  0
    0.2072    1.2358    4.0566 H   0  0  0  0  0  0  0  0  0  0  0  0
  5  6  2  0  0  0  0
  5  7  1  0  0  0  0
  2  3  1  0  0  0  0
  2  4  1  0  0  0  0
  2  5  1  0  0  0  0
  1  2  1  0  0  0  0
 23 24  2  0  0  0  0
 23 25  1  0  0  0  0
 21 22  1  0  0  0  0
 19 20  1  0  0  0  0
 19 21  1  0  0  0  0
 17 18  1  0  0  0  0
 17 19  1  0  0  0  0
 15 16  1  0  0  0  0
 15 17  2  0  0  0  0
 14 15  1  0  0  0  0
 14 21  2  0  0  0  0
 11 12  1  0  0  0  0
 11 13  1  0  0  0  0
 11 14  1  0  0  0  0
  9 10  1  0  0  0  0
  9 11  1  0  0  0  0
  9 23  1  0  0  0  0
  7  8  1  0  0  0  0
  7  9  1  0  0  0  0
 27 28  1  0  0  0  0
 27 29  1  0  0  0  0
 27 30  1  0  0  0  0
 25 26  1  0  0  0  0
 25 27  1  0  0  0  0
M  CHG  1  15   1
M  END
$$$$
default_name
  -OEChem-02102213163D

 30 30  0     1  0  0  0  0  0999 V2000
   -3.5507   -3.2183    1.8116 H   0  0  0  0  0  0  0  0  0  0  0  0
   -3.4597   -2.3913    1.1076 C   0  0  0  0  0  0  0  0  0  0  0  0
   -4.1577   -1.6043    1.3866 H   0  0  0  0  0  0  0  0  0  0  0  0
   -3.6807   -2.7523    0.1036 H   0  0  0  0  0  0  0  0  0  0  0  0
   -2.0477   -1.8543    1.1546 C   0  0  0  0  0  0  0  0  0  0  0  0
   -1.2227   -2.3443    1.9146 O   0  0  0  0  0  0  0  0  0  0  0  0
   -1.7517   -0.8483    0.3266 N   0  0  0  0  0  0  0  0  0  0  0  0
   -2.4847   -0.5123   -0.2804 H   0  0  0  0  0  0  0  0  0  0  0  0
   -0.4117   -0.2463    0.2186 C   0  0  1  0  0  0  0  0  0  0  0  0
    0.2987   -1.0391   -0.0285 H   0  0  0  0  0  0  0  0  0  0  0  0
   -0.4131    0.7505   -0.9636 C   0  0  0  0  0  0  0  0  0  0  0  0
   -1.4100    1.1905   -1.0469 H   0  0  0  0  0  0  0  0  0  0  0  0
    0.2795    1.5652   -0.7417 H   0  0  0  0  0  0  0  0  0  0  0  0
   -0.0302    0.1596   -2.3040 C   0  0  0  0  0  0  0  0  0  0  0  0
    0.5822   -1.0645   -2.4913 N   0  3  0  0  0  0  0  0  0  0  0  0
    0.7776   -1.7209   -1.7299 H   0  0  0  0  0  0  0  0  0  0  0  0
    0.7669   -1.2502   -3.8134 C   0  0  0  0  0  0  0  0  0  0  0  0
    1.2159   -2.1306   -4.2687 H   0  0  0  0  0  0  0  0  0  0  0  0
    0.2859   -0.1699   -4.4692 N   0  0  0  0  0  0  0  0  0  0  0  0
    0.2877   -0.0335   -5.4766 H   0  0  0  0  0  0  0  0  0  0  0  0
   -0.2183    0.7254   -3.5360 C   0  0  0  0  0  0  0  0  0  0  0  0
   -0.6762    1.6904   -3.7346 H   0  0  0  0  0  0  0  0  0  0  0  0
    0.0470    0.3465    1.5629 C   0  0  0  0  0  0  0  0  0  0  0  0
    1.1854    0.1365    1.9846 O   0  0  0  0  0  0  0  0  0  0  0  0
   -0.8551    1.0750    2.2320 N   0  0  0  0  0  0  0  0  0  0  0  0
   -1.7594    1.2031    1.8040 H   0  0  0  0  0  0  0  0  0  0  0  0
   -0.6356    1.6998    3.5400 C   0  0  0  0  0  0  0  0  0  0  0  0
   -0.4284    2.7647    3.4168 H   0  0  0  0  0  0  0  0  0  0  0  0
   -1.5268    1.5885    4.1601 H   0  0  0  0  0  0  0  0  0  0  0  0
    0.2072    1.2358    4.0566 H   0  0  0  0  0  0  0  0  0  0  0  0
  5  6  2  0  0  0  0
  5  7  1  0  0  0  0
  2  3  1  0  0  0  0
  2  4  1  0  0  0  0
  2  5  1  0  0  0  0
  1  2  1  0  0  0  0
 23 24  2  0  0  0  0
 23 25  1  0  0  0  0
 21 22  1  0  0  0  0
 19 20  1  0  0  0  0
 19 21  1  0  0  0  0
 17 18  1  0  0  0  0
 17 19  1  0  0  0  0
 15 16  1  0  0  0  0
 15 17  2  0  0  0  0
 14 15  1  0  0  0  0
 14 21  2  0  0  0  0
 11 12  1  0  0  0  0
 11 13  1  0  0  0  0
 11 14  1  0  0  0  0
  9 10  1  0  0  0  0
  9 11  1  0  0  0  0
  9 23  1  0  0  0  0
  7  8  1  0  0  0  0
  7  9  1  0  0  0  0
 27 28  1  0  0  0  0
 27 29  1  0  0  0  0
 27 30  1  0  0  0  0
 25 26  1  0  0  0  0
 25 27  1  0  0  0  0
M  CHG  1  15   1
M  END
$$$$
default_name
  -OEChem-02102213163D

 30 30  0     1  0  0  0  0  0999 V2000
   -3.5507   -3.2183    1.8116 H   0  0  0  0  0  0  0  0  0  0  0  0
   -3.4597   -2.3913    1.1076 C   0  0  0  0  0  0  0  0  0  0  0  0
   -4.1577   -1.6043    1.3866 H   0  0  0  0  0  0  0  0  0  0  0  0
   -3.6807   -2.7523    0.1036 H   0  0  0  0  0  0  0  0  0  0  0  0
   -2.0477   -1.8543    1.1546 C   0  0  0  0  0  0  0  0  0  0  0  0
   -1.2227   -2.3443    1.9146 O   0  0  0  0  0  0  0  0  0  0  0  0
   -1.7517   -0.8483    0.3266 N   0  0  0  0  0  0  0  0  0  0  0  0
   -2.4847   -0.5123   -0.2804 H   0  0  0  0  0  0  0  0  0  0  0  0
   -0.4117   -0.2463    0.2186 C   0  0  1  0  0  0  0  0  0  0  0  0
    0.2987   -1.0391   -0.0285 H   0  0  0  0  0  0  0  0  0  0  0  0
   -0.4131    0.7505   -0.9636 C   0  0  0  0  0  0  0  0  0  0  0  0
   -1.4100    1.1905   -1.0469 H   0  0  0  0  0  0  0  0  0  0  0  0
    0.2795    1.5652   -0.7417 H   0  0  0  0  0  0  0  0  0  0  0  0
   -0.0302    0.1596   -2.3040 C   0  0  0  0  0  0  0  0  0  0  0  0
    0.3067   -1.1615   -2.5272 N   0  3  0  0  0  0  0  0  0  0  0  0
    0.2650   -1.8852   -1.8039 H   0  0  0  0  0  0  0  0  0  0  0  0
    0.5872   -1.3138   -3.8367 C   0  0  0  0  0  0  0  0  0  0  0  0
    0.8726   -2.2487   -4.3147 H   0  0  0  0  0  0  0  0  0  0  0  0
    0.4366   -0.1177   -4.4492 N   0  0  0  0  0  0  0  0  0  0  0  0
    0.5786    0.0684   -5.4385 H   0  0  0  0  0  0  0  0  0  0  0  0
    0.0493    0.8189   -3.5008 C   0  0  0  0  0  0  0  0  0  0  0  0
   -0.1546    1.8732   -3.6662 H   0  0  0  0  0  0  0  0  0  0  0  0
    0.0470    0.3465    1.5629 C   0  0  0  0  0  0  0  0  0  0  0  0
    1.1854    0.1365    1.9846 O   0  0  0  0  0  0  0  0  0  0  0  0
   -0.8551    1.0750    2.2320 N   0  0  0  0  0  0  0  0  0  0  0  0
   -1.7594    1.2031    1.8040 H   0  0  0  0  0  0  0  0  0  0  0  0
   -0.6356    1.6998    3.5400 C   0  0  0  0  0  0  0  0  0  0  0  0
   -0.4284    2.7647    3.4168 H   0  0  0  0  0  0  0  0  0  0  0  0
   -1.5268    1.5885    4.1601 H   0  0  0  0  0  0  0  0  0  0  0  0
    0.2072    1.2358    4.0566 H   0  0  0  0  0  0  0  0  0  0  0  0
  5  6  2  0  0  0  0
  5  7  1  0  0  0  0
  2  3  1  0  0  0  0
  2  4  1  0  0  0  0
  2  5  1  0  0  0  0
  1  2  1  0  0  0  0
 23 24  2  0  0  0  0
 23 25  1  0  0  0  0
 21 22  1  0  0  0  0
 19 20  1  0  0  0  0
 19 21  1  0  0  0  0
 17 18  1  0  0  0  0
 17 19  1  0  0  0  0
 15 16  1  0  0  0  0
 15 17  2  0  0  0  0
 14 15  1  0  0  0  0
 14 21  2  0  0  0  0
 11 12  1  0  0  0  0
 11 13  1  0  0  0  0
 11 14  1  0  0  0  0
  9 10  1  0  0  0  0
  9 11  1  0  0  0  0
  9 23  1  0  0  0  0
  7  8  1  0  0  0  0
  7  9  1  0  0  0  0
 27 28  1  0  0  0  0
 27 29  1  0  0  0  0
 27 30  1  0  0  0  0
 25 26  1  0  0  0  0
 25 27  1  0  0  0  0
M  CHG  1  15   1
M  END
$$$$
default_name
  -OEChem-02102213163D

 30 30  0     1  0  0  0  0  0999 V2000
   -3.5507   -3.2183    1.8116 H   0  0  0  0  0  0  0  0  0  0  0  0
   -3.4597   -2.3913    1.1076 C   0  0  0  0  0  0  0  0  0  0  0  0
   -4.1577   -1.6043    1.3866 H   0  0  0  0  0  0  0  0  0  0  0  0
   -3.6807   -2.7523    0.1036 H   0  0  0  0  0  0  0  0  0  0  0  0
   -2.0477   -1.8543    1.1546 C   0  0  0  0  0  0  0  0  0  0  0  0
   -1.2227   -2.3443    1.9146 O   0  0  0  0  0  0  0  0  0  0  0  0
   -1.7517   -0.8483    0.3266 N   0  0  0  0  0  0  0  0  0  0  0  0
   -2.4847   -0.5123   -0.2804 H   0  0  0  0  0  0  0  0  0  0  0  0
   -0.4117   -0.2463    0.2186 C   0  0  1  0  0  0  0  0  0  0  0  0
    0.2987   -1.0391   -0.0285 H   0  0  0  0  0  0  0  0  0  0  0  0
   -0.4131    0.7505   -0.9636 C   0  0  0  0  0  0  0  0  0  0  0  0
   -1.4100    1.1905   -1.0469 H   0  0  0  0  0  0  0  0  0  0  0  0
    0.2795    1.5652   -0.7417 H   0  0  0  0  0  0  0  0  0  0  0  0
   -0.0302    0.1596   -2.3040 C   0  0  0  0  0  0  0  0  0  0  0  0
    0.0220   -1.1896   -2.5961 N   0  3  0  0  0  0  0  0  0  0  0  0
   -0.2604   -1.9216   -1.9380 H   0  0  0  0  0  0  0  0  0  0  0  0
    0.4014   -1.3325   -3.8816 C   0  0  0  0  0  0  0  0  0  0  0  0
    0.5185   -2.2811   -4.4015 H   0  0  0  0  0  0  0  0  0  0  0  0
    0.5922   -0.1031   -4.4112 N   0  0  0  0  0  0  0  0  0  0  0  0
    0.8792    0.0978   -5.3656 H   0  0  0  0  0  0  0  0  0  0  0  0
    0.3256    0.8456   -3.4337 C   0  0  0  0  0  0  0  0  0  0  0  0
    0.3842    1.9257   -3.5354 H   0  0  0  0  0  0  0  0  0  0  0  0
    0.0470    0.3465    1.5629 C   0  0  0  0  0  0  0  0  0  0  0  0
    1.1854    0.1365    1.9846 O   0  0  0  0  0  0  0  0  0  0  0  0
   -0.8551    1.0750    2.2320 N   0  0  0  0  0  0  0  0  0  0  0  0
   -1.7594    1.2031    1.8040 H   0  0  0  0  0  0  0  0  0  0  0  0
   -0.6356    1.6998    3.5400 C   0  0  0  0  0  0  0  0  0  0  0  0
   -0.4284    2.7647    3.4168 H   0  0  0  0  0  0  0  0  0  0  0  0
   -1.5268    1.5885    4.1601 H   0  0  0  0  0  0  0  0  0  0  0  0
    0.2072    1.2358    4.0566 H   0  0  0  0  0  0  0  0  0  0  0  0
  5  6  2  0  0  0  0
  5  7  1  0  0  0  0
  2  3  1  0  0  0  0
  2  4  1  0  0  0  0
  2  5  1  0  0  0  0
  1  2  1  0  0  0  0
 23 24  2  0  0  0  0
 23 25  1  0  0  0  0
 21 22  1  0  0  0  0
 19 20  1  0  0  0  0
 19 21  1  0  0  0  0
 17 18  1  0  0  0  0
 17 19  1  0  0  0  0
 15 16  1  0  0  0  0
 15 17  2  0  0  0  0
 14 15  1  0  0  0  0
 14 21  2  0  0  0  0
 11 12  1  0  0  0  0
 11 13  1  0  0  0  0
 11 14  1  0  0  0  0
  9 10  1  0  0  0  0
  9 11  1  0  0  0  0
  9 23  1  0  0  0  0
  7  8  1  0  0  0  0
  7  9  1  0  0  0  0
 27 28  1  0  0  0  0
 27 29  1  0  0  0  0
 27 30  1  0  0  0  0
 25 26  1  0  0  0  0
 25 27  1  0  0  0  0
M  CHG  1  15   1
M  END
$$$$
default_name
  -OEChem-02102213163D

 30 30  0     1  0  0  0  0  0999 V2000
   -3.5507   -3.2183    1.8116 H   0  0  0  0  0  0  0  0  0  0  0  0
   -3.4597   -2.3913    1.1076 C   0  0  0  0  0  0  0  0  0  0  0  0
   -4.1577   -1.6043    1.3866 H   0  0  0  0  0  0  0  0  0  0  0  0
   -3.6807   -2.7523    0.1036 H   0  0  0  0  0  0  0  0  0  0  0  0
   -2.0477   -1.8543    1.1546 C   0  0  0  0  0  0  0  0  0  0  0  0
   -1.2227   -2.3443    1.9146 O   0  0  0  0  0  0  0  0  0  0  0  0
   -1.7517   -0.8483    0.3266 N   0  0  0  0  0  0  0  0  0  0  0  0
   -2.4847   -0.5123   -0.2804 H   0  0  0  0  0  0  0  0  0  0  0  0
   -0.4117   -0.2463    0.2186 C   0  0  1  0  0  0  0  0  0  0  0  0
    0.2987   -1.0391   -0.0285 H   0  0  0  0  0  0  0  0  0  0  0  0
   -0.4131    0.7505   -0.9636 C   0  0  0  0  0  0  0  0  0  0  0  0
   -1.4100    1.1905   -1.0469 H   0  0  0  0  0  0  0  0  0  0  0  0
    0.2795    1.5652   -0.7417 H   0  0  0  0  0  0  0  0  0  0  0  0
   -0.0302    0.1596   -2.3040 C   0  0  0  0  0  0  0  0  0  0  0  0
   -0.2526   -1.1471   -2.6933 N   0  3  0  0  0  0  0  0  0  0  0  0
   -0.7627   -1.8276   -2.1229 H   0  0  0  0  0  0  0  0  0  0  0  0
    0.2222   -1.3050   -3.9448 C   0  0  0  0  0  0  0  0  0  0  0  0
    0.1779   -2.2256   -4.5233 H   0  0  0  0  0  0  0  0  0  0  0  0
    0.7420   -0.1271   -4.3578 N   0  0  0  0  0  0  0  0  0  0  0  0
    1.1689    0.0525   -5.2628 H   0  0  0  0  0  0  0  0  0  0  0  0
    0.5919    0.8037   -3.3391 C   0  0  0  0  0  0  0  0  0  0  0  0
    0.9036    1.8445   -3.3512 H   0  0  0  0  0  0  0  0  0  0  0  0
    0.0470    0.3465    1.5629 C   0  0  0  0  0  0  0  0  0  0  0  0
    1.1854    0.1365    1.9846 O   0  0  0  0  0  0  0  0  0  0  0  0
   -0.8551    1.0750    2.2320 N   0  0  0  0  0  0  0  0  0  0  0  0
   -1.7594    1.2031    1.8040 H   0  0  0  0  0  0  0  0  0  0  0  0
   -0.6356    1.6998    3.5400 C   0  0  0  0  0  0  0  0  0  0  0  0
   -0.4284    2.7647    3.4168 H   0  0  0  0  0  0  0  0  0  0  0  0
   -1.5268    1.5885    4.1601 H   0  0  0  0  0  0  0  0  0  0  0  0
    0.2072    1.2358    4.0566 H   0  0  0  0  0  0  0  0  0  0  0  0
  5  6  2  0  0  0  0
  5  7  1  0  0  0  0
  2  3  1  0  0  0  0
  2  4  1  0  0  0  0
  2  5  1  0  0  0  0
  1  2  1  0  0  0  0
 23 24  2  0  0  0  0
 23 25  1  0  0  0  0
 21 22  1  0  0  0  0
 19 20  1  0  0  0  0
 19 21  1  0  0  0  0
 17 18  1  0  0  0  0
 17 19  1  0  0  0  0
 15 16  1  0  0  0  0
 15 17  2  0  0  0  0
 14 15  1  0  0  0  0
 14 21  2  0  0  0  0
 11 12  1  0  0  0  0
 11 13  1  0  0  0  0
 11 14  1  0  0  0  0
  9 10  1  0  0  0  0
  9 11  1  0  0  0  0
  9 23  1  0  0  0  0
  7  8  1  0  0  0  0
  7  9  1  0  0  0  0
 27 28  1  0  0  0  0
 27 29  1  0  0  0  0
 27 30  1  0  0  0  0
 25 26  1  0  0  0  0
 25 27  1  0  0  0  0
M  CHG  1  15   1
M  END
$$$$
default_name
  -OEChem-02102213163D

 30 30  0     1  0  0  0  0  0999 V2000
   -3.5507   -3.2183    1.8116 H   0  0  0  0  0  0  0  0  0  0  0  0
   -3.4597   -2.3913    1.1076 C   0  0  0  0  0  0  0  0  0  0  0  0
   -4.1577   -1.6043    1.3866 H   0  0  0  0  0  0  0  0  0  0  0  0
   -3.6807   -2.7523    0.1036 H   0  0  0  0  0  0  0  0  0  0  0  0
   -2.0477   -1.8543    1.1546 C   0  0  0  0  0  0  0  0  0  0  0  0
   -1.2227   -2.3443    1.9146 O   0  0  0  0  0  0  0  0  0  0  0  0
   -1.7517   -0.8483    0.3266 N   0  0  0  0  0  0  0  0  0  0  0  0
   -2.4847   -0.5123   -0.2804 H   0  0  0  0  0  0  0  0  0  0  0  0
   -0.4117   -0.2463    0.2186 C   0  0  1  0  0  0  0  0  0  0  0  0
    0.2987   -1.0391   -0.0285 H   0  0  0  0  0  0  0  0  0  0  0  0
   -0.4131    0.7505   -0.9636 C   0  0  0  0  0  0  0  0  0  0  0  0
   -1.4100    1.1905   -1.0469 H   0  0  0  0  0  0  0  0  0  0  0  0
    0.2795    1.5652   -0.7417 H   0  0  0  0  0  0  0  0  0  0  0  0
   -0.0302    0.1596   -2.3040 C   0  0  0  0  0  0  0  0  0  0  0  0
   -0.4982   -1.0368   -2.8121 N   0  3  0  0  0  0  0  0  0  0  0  0
   -1.2076   -1.6096   -2.3461 H   0  0  0  0  0  0  0  0  0  0  0  0
    0.0617   -1.2333   -4.0223 C   0  0  0  0  0  0  0  0  0  0  0  0
   -0.1261   -2.0860   -4.6717 H   0  0  0  0  0  0  0  0  0  0  0  0
    0.8758   -0.1881   -4.2927 N   0  0  0  0  0  0  0  0  0  0  0  0
    1.4279   -0.0644   -5.1373 H   0  0  0  0  0  0  0  0  0  0  0  0
    0.8299    0.6960   -3.2237 C   0  0  0  0  0  0  0  0  0  0  0  0
    1.3679    1.6349   -3.1262 H   0  0  0  0  0  0  0  0  0  0  0  0
    0.0470    0.3465    1.5629 C   0  0  0  0  0  0  0  0  0  0  0  0
    1.1854    0.1365    1.9846 O   0  0  0  0  0  0  0  0  0  0  0  0
   -0.8551    1.0750    2.2320 N   0  0  0  0  0  0  0  0  0  0  0  0
   -1.7594    1.2031    1.8040 H   0  0  0  0  0  0  0  0  0  0  0  0
   -0.6356    1.6998    3.5400 C   0  0  0  0  0  0  0  0  0  0  0  0
   -0.4284    2.7647    3.4168 H   0  0  0  0  0  0  0  0  0  0  0  0
   -1.5268    1.5885    4.1601 H   0  0  0  0  0  0  0  0  0  0  0  0
    0.2072    1.2358    4.0566 H   0  0  0  0  0  0  0  0  0  0  0  0
  5  6  2  0  0  0  0
  5  7  1  0  0  0  0
  2  3  1  0  0  0  0
  2  4  1  0  0  0  0
  2  5  1  0  0  0  0
  1  2  1  0  0  0  0
 23 24  2  0  0  0  0
 23 25  1  0  0  0  0
 21 22  1  0  0  0  0
 19 20  1  0  0  0  0
 19 21  1  0  0  0  0
 17 18  1  0  0  0  0
 17 19  1  0  0  0  0
 15 16  1  0  0  0  0
 15 17  2  0  0  0  0
 14 15  1  0  0  0  0
 14 21  2  0  0  0  0
 11 12  1  0  0  0  0
 11 13  1  0  0  0  0
 11 14  1  0  0  0  0
  9 10  1  0  0  0  0
  9 11  1  0  0  0  0
  9 23  1  0  0  0  0
  7  8  1  0  0  0  0
  7  9  1  0  0  0  0
 27 28  1  0  0  0  0
 27 29  1  0  0  0  0
 27 30  1  0  0  0  0
 25 26  1  0  0  0  0
 25 27  1  0  0  0  0
M  CHG  1  15   1
M  END
$$$$
default_name
  -OEChem-02102213163D

 30 30  0     1  0  0  0  0  0999 V2000
   -3.5507   -3.2183    1.8116 H   0  0  0  0  0  0  0  0  0  0  0  0
   -3.4597   -2.3913    1.1076 C   0  0  0  0  0  0  0  0  0  0  0  0
   -4.1577   -1.6043    1.3866 H   0  0  0  0  0  0  0  0  0  0  0  0
   -3.6807   -2.7523    0.1036 H   0  0  0  0  0  0  0  0  0  0  0  0
   -2.0477   -1.8543    1.1546 C   0  0  0  0  0  0  0  0  0  0  0  0
   -1.2227   -2.3443    1.9146 O   0  0  0  0  0  0  0  0  0  0  0  0
   -1.7517   -0.8483    0.3266 N   0  0  0  0  0  0  0  0  0  0  0  0
   -2.4847   -0.5123   -0.2804 H   0  0  0  0  0  0  0  0  0  0  0  0
   -0.4117   -0.2463    0.2186 C   0  0  1  0  0  0  0  0  0  0  0  0
    0.2987   -1.0391   -0.0285 H   0  0  0  0  0  0  0  0  0  0  0  0
   -0.4131    0.7505   -0.9636 C   0  0  0  0  0  0  0  0  0  0  0  0
   -1.4100    1.1905   -1.0469 H   0  0  0  0  0  0  0  0  0  0  0  0
    0.2795    1.5652   -0.7417 H   0  0  0  0  0  0  0  0  0  0  0  0
   -0.0302    0.1596   -2.3040 C   0  0  0  0  0  0  0  0  0  0  0  0
   -0.6981   -0.8661   -2.9444 N   0  3  0  0  0  0  0  0  0  0  0  0
   -1.5649   -1.2825   -2.5924 H   0  0  0  0  0  0  0  0  0  0  0  0
   -0.0690   -1.1222   -4.1086 C   0  0  0  0  0  0  0  0  0  0  0  0
   -0.3728   -1.8717   -4.8366 H   0  0  0  0  0  0  0  0  0  0  0  0
    0.9845   -0.2819   -4.2203 N   0  0  0  0  0  0  0  0  0  0  0  0
    1.6386   -0.2448   -4.9976 H   0  0  0  0  0  0  0  0  0  0  0  0
    1.0235    0.5299   -3.0951 C   0  0  0  0  0  0  0  0  0  0  0  0
    1.7458    1.3114   -2.8757 H   0  0  0  0  0  0  0  0  0  0  0  0
    0.0470    0.3465    1.5629 C   0  0  0  0  0  0  0  0  0  0  0  0
    1.1854    0.1365    1.9846 O   0  0  0  0  0  0  0  0  0  0  0  0
   -0.8551    1.0750    2.2320 N   0  0  0  0  0  0  0  0  0  0  0  0
   -1.7594    1.2031    1.8040 H   0  0  0  0  0  0  0  0  0  0  0  0
   -0.6356    1.6998    3.5400 C   0  0  0  0  0  0  0  0  0  0  0  0
   -0.4284    2.7647    3.4168 H   0  0  0  0  0  0  0  0  0  0  0  0
   -1.5268    1.5885    4.1601 H   0  0  0  0  0  0  0  0  0  0  0  0
    0.2072    1.2358    4.0566 H   0  0  0  0  0  0  0  0  0  0  0  0
  5  6  2  0  0  0  0
  5  7  1  0  0  0  0
  2  3  1  0  0  0  0
  2  4  1  0  0  0  0
  2  5  1  0  0  0  0
  1  2  1  0  0  0  0
 23 24  2  0  0  0  0
 23 25  1  0  0  0  0
 21 22  1  0  0  0  0
 19 20  1  0  0  0  0
 19 21  1  0  0  0  0
 17 18  1  0  0  0  0
 17 19  1  0  0  0  0
 15 16  1  0  0  0  0
 15 17  2  0  0  0  0
 14 15  1  0  0  0  0
 14 21  2  0  0  0  0
 11 12  1  0  0  0  0
 11 13  1  0  0  0  0
 11 14  1  0  0  0  0
  9 10  1  0  0  0  0
  9 11  1  0  0  0  0
  9 23  1  0  0  0  0
  7  8  1  0  0  0  0
  7  9  1  0  0  0  0
 27 28  1  0  0  0  0
 27 29  1  0  0  0  0
 27 30  1  0  0  0  0
 25 26  1  0  0  0  0
 25 27  1  0  0  0  0
M  CHG  1  15   1
M  END
$$$$
default_name
  -OEChem-02102213163D

 30 30  0     1  0  0  0  0  0999 V2000
   -3.5507   -3.2183    1.8116 H   0  0  0  0  0  0  0  0  0  0  0  0
   -3.4597   -2.3913    1.1076 C   0  0  0  0  0  0  0  0  0  0  0  0
   -4.1577   -1.6043    1.3866 H   0  0  0  0  0  0  0  0  0  0  0  0
   -3.6807   -2.7523    0.1036 H   0  0  0  0  0  0  0  0  0  0  0  0
   -2.0477   -1.8543    1.1546 C   0  0  0  0  0  0  0  0  0  0  0  0
   -1.2227   -2.3443    1.9146 O   0  0  0  0  0  0  0  0  0  0  0  0
   -1.7517   -0.8483    0.3266 N   0  0  0  0  0  0  0  0  0  0  0  0
   -2.4847   -0.5123   -0.2804 H   0  0  0  0  0  0  0  0  0  0  0  0
   -0.4117   -0.2463    0.2186 C   0  0  1  0  0  0  0  0  0  0  0  0
    0.2987   -1.0391   -0.0285 H   0  0  0  0  0  0  0  0  0  0  0  0
   -0.4131    0.7505   -0.9636 C   0  0  0  0  0  0  0  0  0  0  0  0
   -1.4100    1.1905   -1.0469 H   0  0  0  0  0  0  0  0  0  0  0  0
    0.2795    1.5652   -0.7417 H   0  0  0  0  0  0  0  0  0  0  0  0
   -0.0302    0.1596   -2.3040 C   0  0  0  0  0  0  0  0  0  0  0  0
   -0.8388   -0.6468   -3.0813 N   0  3  0  0  0  0  0  0  0  0  0  0
   -1.8102   -0.8686   -2.8449 H   0  0  0  0  0  0  0  0  0  0  0  0
   -0.1611   -0.9793   -4.1979 C   0  0  0  0  0  0  0  0  0  0  0  0
   -0.5453   -1.5975   -5.0068 H   0  0  0  0  0  0  0  0  0  0  0  0
    1.0606   -0.4022   -4.1455 N   0  0  0  0  0  0  0  0  0  0  0  0
    1.7868   -0.4765   -4.8531 H   0  0  0  0  0  0  0  0  0  0  0  0
    1.1595    0.3167   -2.9623 C   0  0  0  0  0  0  0  0  0  0  0  0
    2.0113    0.8959   -2.6167 H   0  0  0  0  0  0  0  0  0  0  0  0
    0.0470    0.3465    1.5629 C   0  0  0  0  0  0  0  0  0  0  0  0
    1.1854    0.1365    1.9846 O   0  0  0  0  0  0  0  0  0  0  0  0
   -0.8551    1.0750    2.2320 N   0  0  0  0  0  0  0  0  0  0  0  0
   -1.7594    1.2031    1.8040 H   0  0  0  0  0  0  0  0  0  0  0  0
   -0.6356    1.6998    3.5400 C   0  0  0  0  0  0  0  0  0  0  0  0
   -0.4284    2.7647    3.4168 H   0  0  0  0  0  0  0  0  0  0  0  0
   -1.5268    1.5885    4.1601 H   0  0  0  0  0  0  0  0  0  0  0  0
    0.2072    1.2358    4.0566 H   0  0  0  0  0  0  0  0  0  0  0  0
  5  6  2  0  0  0  0
  5  7  1  0  0  0  0
  2  3  1  0  0  0  0
  2  4  1  0  0  0  0
  2  5  1  0  0  0  0
  1  2  1  0  0  0  0
 23 24  2  0  0  0  0
 23 25  1  0  0  0  0
 21 22  1  0  0  0  0
 19 20  1  0  0  0  0
 19 21  1  0  0  0  0
 17 18  1  0  0  0  0
 17 19  1  0  0  0  0
 15 16  1  0  0  0  0
 15 17  2  0  0  0  0
 14 15  1  0  0  0  0
 14 21  2  0  0  0  0
 11 12  1  0  0  0  0
 11 13  1  0  0  0  0
 11 14  1  0  0  0  0
  9 10  1  0  0  0  0
  9 11  1  0  0  0  0
  9 23  1  0  0  0  0
  7  8  1  0  0  0  0
  7  9  1  0  0  0  0
 27 28  1  0  0  0  0
 27 29  1  0  0  0  0
 27 30  1  0  0  0  0
 25 26  1  0  0  0  0
 25 27  1  0  0  0  0
M  CHG  1  15   1
M  END
$$$$
default_name
  -OEChem-02102213163D

 30 30  0     1  0  0  0  0  0999 V2000
   -3.5507   -3.2183    1.8116 H   0  0  0  0  0  0  0  0  0  0  0  0
   -3.4597   -2.3913    1.1076 C   0  0  0  0  0  0  0  0  0  0  0  0
   -4.1577   -1.6043    1.3866 H   0  0  0  0  0  0  0  0  0  0  0  0
   -3.6807   -2.7523    0.1036 H   0  0  0  0  0  0  0  0  0  0  0  0
   -2.0477   -1.8543    1.1546 C   0  0  0  0  0  0  0  0  0  0  0  0
   -1.2227   -2.3443    1.9146 O   0  0  0  0  0  0  0  0  0  0  0  0
   -1.7517   -0.8483    0.3266 N   0  0  0  0  0  0  0  0  0  0  0  0
   -2.4847   -0.5123   -0.2804 H   0  0  0  0  0  0  0  0  0  0  0  0
   -0.4117   -0.2463    0.2186 C   0  0  1  0  0  0  0  0  0  0  0  0
    0.2987   -1.0391   -0.0285 H   0  0  0  0  0  0  0  0  0  0  0  0
   -0.4131    0.7505   -0.9636 C   0  0  0  0  0  0  0  0  0  0  0  0
   -1.4100    1.1905   -1.0469 H   0  0  0  0  0  0  0  0  0  0  0  0
    0.2795    1.5652   -0.7417 H   0  0  0  0  0  0  0  0  0  0  0  0
   -0.0302    0.1596   -2.3040 C   0  0  0  0  0  0  0  0  0  0  0  0
   -0.9106   -0.3938   -3.2134 N   0  3  0  0  0  0  0  0  0  0  0  0
   -1.9268   -0.3960   -3.0866 H   0  0  0  0  0  0  0  0  0  0  0  0
   -0.2083   -0.8143   -4.2841 C   0  0  0  0  0  0  0  0  0  0  0  0
   -0.6319   -1.2819   -5.1707 H   0  0  0  0  0  0  0  0  0  0  0  0
    1.0991   -0.5407   -4.0734 N   0  0  0  0  0  0  0  0  0  0  0  0
    1.8621   -0.7438   -4.7138 H   0  0  0  0  0  0  0  0  0  0  0  0
    1.2286    0.0709   -2.8342 C   0  0  0  0  0  0  0  0  0  0  0  0
    2.1464    0.4168   -2.3668 H   0  0  0  0  0  0  0  0  0  0  0  0
    0.0470    0.3465    1.5629 C   0  0  0  0  0  0  0  0  0  0  0  0
    1.1854    0.1365    1.9846 O   0  0  0  0  0  0  0  0  0  0  0  0
   -0.8551    1.0750    2.2320 N   0  0  0  0  0  0  0  0  0  0  0  0
   -1.7594    1.2031    1.8040 H   0  0  0  0  0  0  0  0  0  0  0  0
   -0.6356    1.6998    3.5400 C   0  0  0  0  0  0  0  0  0  0  0  0
   -0.4284    2.7647    3.4168 H   0  0  0  0  0  0  0  0  0  0  0  0
   -1.5268    1.5885    4.1601 H   0  0  0  0  0  0  0  0  0  0  0  0
    0.2072    1.2358    4.0566 H   0  0  0  0  0  0  0  0  0  0  0  0
  5  6  2  0  0  0  0
  5  7  1  0  0  0  0
  2  3  1  0  0  0  0
  2  4  1  0  0  0  0
  2  5  1  0  0  0  0
  1  2  1  0  0  0  0
 23 24  2  0  0  0  0
 23 25  1  0  0  0  0
 21 22  1  0  0  0  0
 19 20  1  0  0  0  0
 19 21  1  0  0  0  0
 17 18  1  0  0  0  0
 17 19  1  0  0  0  0
 15 16  1  0  0  0  0
 15 17  2  0  0  0  0
 14 15  1  0  0  0  0
 14 21  2  0  0  0  0
 11 12  1  0  0  0  0
 11 13  1  0  0  0  0
 11 14  1  0  0  0  0
  9 10  1  0  0  0  0
  9 11  1  0  0  0  0
  9 23  1  0  0  0  0
  7  8  1  0  0  0  0
  7  9  1  0  0  0  0
 27 28  1  0  0  0  0
 27 29  1  0  0  0  0
 27 30  1  0  0  0  0
 25 26  1  0  0  0  0
 25 27  1  0  0  0  0
M  CHG  1  15   1
M  END
$$$$
default_name
  -OEChem-02102213163D

 30 30  0     1  0  0  0  0  0999 V2000
   -3.5507   -3.2183    1.8116 H   0  0  0  0  0  0  0  0  0  0  0  0
   -3.4597   -2.3913    1.1076 C   0  0  0  0  0  0  0  0  0  0  0  0
   -4.1577   -1.6043    1.3866 H   0  0  0  0  0  0  0  0  0  0  0  0
   -3.6807   -2.7523    0.1036 H   0  0  0  0  0  0  0  0  0  0  0  0
   -2.0477   -1.8543    1.1546 C   0  0  0  0  0  0  0  0  0  0  0  0
   -1.2227   -2.3443    1.9146 O   0  0  0  0  0  0  0  0  0  0  0  0
   -1.7517   -0.8483    0.3266 N   0  0  0  0  0  0  0  0  0  0  0  0
   -2.4847   -0.5123   -0.2804 H   0  0  0  0  0  0  0  0  0  0  0  0
   -0.4117   -0.2463    0.2186 C   0  0  1  0  0  0  0  0  0  0  0  0
    0.2987   -1.0391   -0.0285 H   0  0  0  0  0  0  0  0  0  0  0  0
   -0.4131    0.7505   -0.9636 C   0  0  0  0  0  0  0  0  0  0  0  0
   -1.4100    1.1905   -1.0469 H   0  0  0  0  0  0  0  0  0  0  0  0
    0.2795    1.5652   -0.7417 H   0  0  0  0  0  0  0  0  0  0  0  0
   -0.0302    0.1596   -2.3040 C   0  0  0  0  0  0  0  0  0  0  0  0
   -0.9087   -0.1243   -3.3316 N   0  3  0  0  0  0  0  0  0  0  0  0
   -1.9067    0.1030   -3.3008 H   0  0  0  0  0  0  0  0  0  0  0  0
   -0.2073   -0.6385   -4.3614 C   0  0  0  0  0  0  0  0  0  0  0  0
   -0.6267   -0.9465   -5.3171 H   0  0  0  0  0  0  0  0  0  0  0  0
    1.0972   -0.6881   -4.0090 N   0  0  0  0  0  0  0  0  0  0  0  0
    1.8597   -1.0283   -4.5891 H   0  0  0  0  0  0  0  0  0  0  0  0
    1.2260   -0.1907   -2.7196 C   0  0  0  0  0  0  0  0  0  0  0  0
    2.1419   -0.0933   -2.1433 H   0  0  0  0  0  0  0  0  0  0  0  0
    0.0470    0.3465    1.5629 C   0  0  0  0  0  0  0  0  0  0  0  0
    1.1854    0.1365    1.9846 O   0  0  0  0  0  0  0  0  0  0  0  0
   -0.8551    1.0750    2.2320 N   0  0  0  0  0  0  0  0  0  0  0  0
   -1.7594    1.2031    1.8040 H   0  0  0  0  0  0  0  0  0  0  0  0
   -0.6356    1.6998    3.5400 C   0  0  0  0  0  0  0  0  0  0  0  0
   -0.4284    2.7647    3.4168 H   0  0  0  0  0  0  0  0  0  0  0  0
   -1.5268    1.5885    4.1601 H   0  0  0  0  0  0  0  0  0  0  0  0
    0.2072    1.2358    4.0566 H   0  0  0  0  0  0  0  0  0  0  0  0
  5  6  2  0  0  0  0
  5  7  1  0  0  0  0
  2  3  1  0  0  0  0
  2  4  1  0  0  0  0
  2  5  1  0  0  0  0
  1  2  1  0  0  0  0
 23 24  2  0  0  0  0
 23 25  1  0  0  0  0
 21 22  1  0  0  0  0
 19 20  1  0  0  0  0
 19 21  1  0  0  0  0
 17 18  1  0  0  0  0
 17 19  1  0  0  0  0
 15 16  1  0  0  0  0
 15 17  2  0  0  0  0
 14 15  1  0  0  0  0
 14 21  2  0  0  0  0
 11 12  1  0  0  0  0
 11 13  1  0  0  0  0
 11 14  1  0  0  0  0
  9 10  1  0  0  0  0
  9 11  1  0  0  0  0
  9 23  1  0  0  0  0
  7  8  1  0  0  0  0
  7  9  1  0  0  0  0
 27 28  1  0  0  0  0
 27 29  1  0  0  0  0
 27 30  1  0  0  0  0
 25 26  1  0  0  0  0
 25 27  1  0  0  0  0
M  CHG  1  15   1
M  END
$$$$
default_name
  -OEChem-02102213163D

 30 30  0     1  0  0  0  0  0999 V2000
   -3.5507   -3.2183    1.8116 H   0  0  0  0  0  0  0  0  0  0  0  0
   -3.4597   -2.3913    1.1076 C   0  0  0  0  0  0  0  0  0  0  0  0
   -4.1577   -1.6043    1.3866 H   0  0  0  0  0  0  0  0  0  0  0  0
   -3.6807   -2.7523    0.1036 H   0  0  0  0  0  0  0  0  0  0  0  0
   -2.0477   -1.8543    1.1546 C   0  0  0  0  0  0  0  0  0  0  0  0
   -1.2227   -2.3443    1.9146 O   0  0  0  0  0  0  0  0  0  0  0  0
   -1.7517   -0.8483    0.3266 N   0  0  0  0  0  0  0  0  0  0  0  0
   -2.4847   -0.5123   -0.2804 H   0  0  0  0  0  0  0  0  0  0  0  0
   -0.4117   -0.2463    0.2186 C   0  0  1  0  0  0  0  0  0  0  0  0
    0.2987   -1.0391   -0.0285 H   0  0  0  0  0  0  0  0  0  0  0  0
   -0.4131    0.7505   -0.9636 C   0  0  0  0  0  0  0  0  0  0  0  0
   -1.4100    1.1905   -1.0469 H   0  0  0  0  0  0  0  0  0  0  0  0
    0.2795    1.5652   -0.7417 H   0  0  0  0  0  0  0  0  0  0  0  0
   -0.0302    0.1596   -2.3040 C   0  0  0  0  0  0  0  0  0  0  0  0
   -0.8331    0.1433   -3.4280 N   0  3  0  0  0  0  0  0  0  0  0  0
   -1.7514    0.5944   -3.4731 H   0  0  0  0  0  0  0  0  0  0  0  0
   -0.1583   -0.4638   -4.4244 C   0  0  0  0  0  0  0  0  0  0  0  0
   -0.5300   -0.6141   -5.4360 H   0  0  0  0  0  0  0  0  0  0  0  0
    1.0551   -0.8342   -3.9566 N   0  0  0  0  0  0  0  0  0  0  0  0
    1.7795   -1.3107   -4.4875 H   0  0  0  0  0  0  0  0  0  0  0  0
    1.1520   -0.4503   -2.6263 C   0  0  0  0  0  0  0  0  0  0  0  0
    1.9980   -0.5996   -1.9611 H   0  0  0  0  0  0  0  0  0  0  0  0
    0.0470    0.3465    1.5629 C   0  0  0  0  0  0  0  0  0  0  0  0
    1.1854    0.1365    1.9846 O   0  0  0  0  0  0  0  0  0  0  0  0
   -0.8551    1.0750    2.2320 N   0  0  0  0  0  0  0  0  0  0  0  0
   -1.7594    1.2031    1.8040 H   0  0  0  0  0  0  0  0  0  0  0  0
   -0.6356    1.6998    3.5400 C   0  0  0  0  0  0  0  0  0  0  0  0
   -0.4284    2.7647    3.4168 H   0  0  0  0  0  0  0  0  0  0  0  0
   -1.5268    1.5885    4.1601 H   0  0  0  0  0  0  0  0  0  0  0  0
    0.2072    1.2358    4.0566 H   0  0  0  0  0  0  0  0  0  0  0  0
  5  6  2  0  0  0  0
  5  7  1  0  0  0  0
  2  3  1  0  0  0  0
  2  4  1  0  0  0  0
  2  5  1  0  0  0  0
  1  2  1  0  0  0  0
 23 24  2  0  0  0  0
 23 25  1  0  0  0  0
 21 22  1  0  0  0  0
 19 20  1  0  0  0  0
 19 21  1  0  0  0  0
 17 18  1  0  0  0  0
 17 19  1  0  0  0  0
 15 16  1  0  0  0  0
 15 17  2  0  0  0  0
 14 15  1  0  0  0  0
 14 21  2  0  0  0  0
 11 12  1  0  0  0  0
 11 13  1  0  0  0  0
 11 14  1  0  0  0  0
  9 10  1  0  0  0  0
  9 11  1  0  0  0  0
  9 23  1  0  0  0  0
  7  8  1  0  0  0  0
  7  9  1  0  0  0  0
 27 28  1  0  0  0  0
 27 29  1  0  0  0  0
 27 30  1  0  0  0  0
 25 26  1  0  0  0  0
 25 27  1  0  0  0  0
M  CHG  1  15   1
M  END
$$$$
default_name
  -OEChem-02102213163D

 30 30  0     1  0  0  0  0  0999 V2000
   -3.5507   -3.2183    1.8116 H   0  0  0  0  0  0  0  0  0  0  0  0
   -3.4597   -2.3913    1.1076 C   0  0  0  0  0  0  0  0  0  0  0  0
   -4.1577   -1.6043    1.3866 H   0  0  0  0  0  0  0  0  0  0  0  0
   -3.6807   -2.7523    0.1036 H   0  0  0  0  0  0  0  0  0  0  0  0
   -2.0477   -1.8543    1.1546 C   0  0  0  0  0  0  0  0  0  0  0  0
   -1.2227   -2.3443    1.9146 O   0  0  0  0  0  0  0  0  0  0  0  0
   -1.7517   -0.8483    0.3266 N   0  0  0  0  0  0  0  0  0  0  0  0
   -2.4847   -0.5123   -0.2804 H   0  0  0  0  0  0  0  0  0  0  0  0
   -0.4117   -0.2463    0.2186 C   0  0  1  0  0  0  0  0  0  0  0  0
    0.2987   -1.0391   -0.0285 H   0  0  0  0  0  0  0  0  0  0  0  0
   -0.4131    0.7505   -0.9636 C   0  0  0  0  0  0  0  0  0  0  0  0
   -1.4100    1.1905   -1.0469 H   0  0  0  0  0  0  0  0  0  0  0  0
    0.2795    1.5652   -0.7417 H   0  0  0  0  0  0  0  0  0  0  0  0
   -0.0302    0.1596   -2.3040 C   0  0  0  0  0  0  0  0  0  0  0  0
   -0.6891    0.3908   -3.4960 N   0  3  0  0  0  0  0  0  0  0  0  0
   -1.4713    1.0448   -3.5916 H   0  0  0  0  0  0  0  0  0  0  0  0
   -0.0646   -0.3022   -4.4689 C   0  0  0  0  0  0  0  0  0  0  0  0
   -0.3485   -0.3074   -5.5193 H   0  0  0  0  0  0  0  0  0  0  0  0
    0.9757   -0.9691   -3.9198 N   0  0  0  0  0  0  0  0  0  0  0  0
    1.6270   -1.5717   -4.4159 H   0  0  0  0  0  0  0  0  0  0  0  0
    1.0116   -0.6903   -2.5606 C   0  0  0  0  0  0  0  0  0  0  0  0
    1.7247   -1.0676   -1.8329 H   0  0  0  0  0  0  0  0  0  0  0  0
    0.0470    0.3465    1.5629 C   0  0  0  0  0  0  0  0  0  0  0  0
    1.1854    0.1365    1.9846 O   0  0  0  0  0  0  0  0  0  0  0  0
   -0.8551    1.0750    2.2320 N   0  0  0  0  0  0  0  0  0  0  0  0
   -1.7594    1.2031    1.8040 H   0  0  0  0  0  0  0  0  0  0  0  0
   -0.6356    1.6998    3.5400 C   0  0  0  0  0  0  0  0  0  0  0  0
   -0.4284    2.7647    3.4168 H   0  0  0  0  0  0  0  0  0  0  0  0
   -1.5268    1.5885    4.1601 H   0  0  0  0  0  0  0  0  0  0  0  0
    0.2072    1.2358    4.0566 H   0  0  0  0  0  0  0  0  0  0  0  0
  5  6  2  0  0  0  0
  5  7  1  0  0  0  0
  2  3  1  0  0  0  0
  2  4  1  0  0  0  0
  2  5  1  0  0  0  0
  1  2  1  0  0  0  0
 23 24  2  0  0  0  0
 23 25  1  0  0  0  0
 21 22  1  0  0  0  0
 19 20  1  0  0  0  0
 19 21  1  0  0  0  0
 17 18  1  0  0  0  0
 17 19  1  0  0  0  0
 15 16  1  0  0  0  0
 15 17  2  0  0  0  0
 14 15  1  0  0  0  0
 14 21  2  0  0  0  0
 11 12  1  0  0  0  0
 11 13  1  0  0  0  0
 11 14  1  0  0  0  0
  9 10  1  0  0  0  0
  9 11  1  0  0  0  0
  9 23  1  0  0  0  0
  7  8  1  0  0  0  0
  7  9  1  0  0  0  0
 27 28  1  0  0  0  0
 27 29  1  0  0  0  0
 27 30  1  0  0  0  0
 25 26  1  0  0  0  0
 25 27  1  0  0  0  0
M  CHG  1  15   1
M  END
$$$$
default_name
  -OEChem-02102213163D

 30 30  0     1  0  0  0  0  0999 V2000
   -3.5507   -3.2183    1.8116 H   0  0  0  0  0  0  0  0  0  0  0  0
   -3.4597   -2.3913    1.1076 C   0  0  0  0  0  0  0  0  0  0  0  0
   -4.1577   -1.6043    1.3866 H   0  0  0  0  0  0  0  0  0  0  0  0
   -3.6807   -2.7523    0.1036 H   0  0  0  0  0  0  0  0  0  0  0  0
   -2.0477   -1.8543    1.1546 C   0  0  0  0  0  0  0  0  0  0  0  0
   -1.2227   -2.3443    1.9146 O   0  0  0  0  0  0  0  0  0  0  0  0
   -1.7517   -0.8483    0.3266 N   0  0  0  0  0  0  0  0  0  0  0  0
   -2.4847   -0.5123   -0.2804 H   0  0  0  0  0  0  0  0  0  0  0  0
   -0.4117   -0.2463    0.2186 C   0  0  1  0  0  0  0  0  0  0  0  0
    0.2987   -1.0391   -0.0285 H   0  0  0  0  0  0  0  0  0  0  0  0
   -0.4131    0.7505   -0.9636 C   0  0  0  0  0  0  0  0  0  0  0  0
   -1.4100    1.1905   -1.0469 H   0  0  0  0  0  0  0  0  0  0  0  0
    0.2795    1.5652   -0.7417 H   0  0  0  0  0  0  0  0  0  0  0  0
   -0.0302    0.1596   -2.3040 C   0  0  0  0  0  0  0  0  0  0  0  0
   -0.4864    0.6012   -3.5309 N   0  3  0  0  0  0  0  0  0  0  0  0
   -1.0856    1.4234   -3.6483 H   0  0  0  0  0  0  0  0  0  0  0  0
    0.0674   -0.1647   -4.4918 C   0  0  0  0  0  0  0  0  0  0  0  0
   -0.0944   -0.0474   -5.5614 H   0  0  0  0  0  0  0  0  0  0  0  0
    0.8643   -1.0836   -3.9012 N   0  0  0  0  0  0  0  0  0  0  0  0
    1.4128   -1.7936   -4.3793 H   0  0  0  0  0  0  0  0  0  0  0  0
    0.8144   -0.8942   -2.5271 C   0  0  0  0  0  0  0  0  0  0  0  0
    1.3405   -1.4654   -1.7672 H   0  0  0  0  0  0  0  0  0  0  0  0
    0.0470    0.3465    1.5629 C   0  0  0  0  0  0  0  0  0  0  0  0
    1.1854    0.1365    1.9846 O   0  0  0  0  0  0  0  0  0  0  0  0
   -0.8551    1.0750    2.2320 N   0  0  0  0  0  0  0  0  0  0  0  0
   -1.7594    1.2031    1.8040 H   0  0  0  0  0  0  0  0  0  0  0  0
   -0.6356    1.6998    3.5400 C   0  0  0  0  0  0  0  0  0  0  0  0
   -0.4284    2.7647    3.4168 H   0  0  0  0  0  0  0  0  0  0  0  0
   -1.5268    1.5885    4.1601 H   0  0  0  0  0  0  0  0  0  0  0  0
    0.2072    1.2358    4.0566 H   0  0  0  0  0  0  0  0  0  0  0  0
  5  6  2  0  0  0  0
  5  7  1  0  0  0  0
  2  3  1  0  0  0  0
  2  4  1  0  0  0  0
  2  5  1  0  0  0  0
  1  2  1  0  0  0  0
 23 24  2  0  0  0  0
 23 25  1  0  0  0  0
 21 22  1  0  0  0  0
 19 20  1  0  0  0  0
 19 21  1  0  0  0  0
 17 18  1  0  0  0  0
 17 19  1  0  0  0  0
 15 16  1  0  0  0  0
 15 17  2  0  0  0  0
 14 15  1  0  0  0  0
 14 21  2  0  0  0  0
 11 12  1  0  0  0  0
 11 13  1  0  0  0  0
 11 14  1  0  0  0  0
  9 10  1  0  0  0  0
  9 11  1  0  0  0  0
  9 23  1  0  0  0  0
  7  8  1  0  0  0  0
  7  9  1  0  0  0  0
 27 28  1  0  0  0  0
 27 29  1  0  0  0  0
 27 30  1  0  0  0  0
 25 26  1  0  0  0  0
 25 27  1  0  0  0  0
M  CHG  1  15   1
M  END
$$$$
default_name
  -OEChem-02102213163D

 30 30  0     1  0  0  0  0  0999 V2000
   -3.5507   -3.2183    1.8116 H   0  0  0  0  0  0  0  0  0  0  0  0
   -3.4597   -2.3913    1.1076 C   0  0  0  0  0  0  0  0  0  0  0  0
   -4.1577   -1.6043    1.3866 H   0  0  0  0  0  0  0  0  0  0  0  0
   -3.6807   -2.7523    0.1036 H   0  0  0  0  0  0  0  0  0  0  0  0
   -2.0477   -1.8543    1.1546 C   0  0  0  0  0  0  0  0  0  0  0  0
   -1.2227   -2.3443    1.9146 O   0  0  0  0  0  0  0  0  0  0  0  0
   -1.7517   -0.8483    0.3266 N   0  0  0  0  0  0  0  0  0  0  0  0
   -2.4847   -0.5123   -0.2804 H   0  0  0  0  0  0  0  0  0  0  0  0
   -0.4117   -0.2463    0.2186 C   0  0  1  0  0  0  0  0  0  0  0  0
    0.2987   -1.0391   -0.0285 H   0  0  0  0  0  0  0  0  0  0  0  0
   -0.4131    0.7505   -0.9636 C   0  0  0  0  0  0  0  0  0  0  0  0
   -1.4100    1.1905   -1.0469 H   0  0  0  0  0  0  0  0  0  0  0  0
    0.2795    1.5652   -0.7417 H   0  0  0  0  0  0  0  0  0  0  0  0
   -0.0302    0.1596   -2.3040 C   0  0  0  0  0  0  0  0  0  0  0  0
   -0.2388    0.7604   -3.5303 N   0  3  0  0  0  0  0  0  0  0  0  0
   -0.6205    1.7044   -3.6394 H   0  0  0  0  0  0  0  0  0  0  0  0
    0.2288   -0.0606   -4.4916 C   0  0  0  0  0  0  0  0  0  0  0  0
    0.2148    0.1484   -5.5594 H   0  0  0  0  0  0  0  0  0  0  0  0
    0.7287   -1.1699   -3.9019 N   0  0  0  0  0  0  0  0  0  0  0  0
    1.1512   -1.9613   -4.3801 H   0  0  0  0  0  0  0  0  0  0  0  0
    0.5738   -1.0481   -2.5279 C   0  0  0  0  0  0  0  0  0  0  0  0
    0.8716   -1.7660   -1.7687 H   0  0  0  0  0  0  0  0  0  0  0  0
    0.0470    0.3465    1.5629 C   0  0  0  0  0  0  0  0  0  0  0  0
    1.1854    0.1365    1.9846 O   0  0  0  0  0  0  0  0  0  0  0  0
   -0.8551    1.0750    2.2320 N   0  0  0  0  0  0  0  0  0  0  0  0
   -1.7594    1.2031    1.8040 H   0  0  0  0  0  0  0  0  0  0  0  0
   -0.6356    1.6998    3.5400 C   0  0  0  0  0  0  0  0  0  0  0  0
   -0.4284    2.7647    3.4168 H   0  0  0  0  0  0  0  0  0  0  0  0
   -1.5268    1.5885    4.1601 H   0  0  0  0  0  0  0  0  0  0  0  0
    0.2072    1.2358    4.0566 H   0  0  0  0  0  0  0  0  0  0  0  0
  5  6  2  0  0  0  0
  5  7  1  0  0  0  0
  2  3  1  0  0  0  0
  2  4  1  0  0  0  0
  2  5  1  0  0  0  0
  1  2  1  0  0  0  0
 23 24  2  0  0  0  0
 23 25  1  0  0  0  0
 21 22  1  0  0  0  0
 19 20  1  0  0  0  0
 19 21  1  0  0  0  0
 17 18  1  0  0  0  0
 17 19  1  0  0  0  0
 15 16  1  0  0  0  0
 15 17  2  0  0  0  0
 14 15  1  0  0  0  0
 14 21  2  0  0  0  0
 11 12  1  0  0  0  0
 11 13  1  0  0  0  0
 11 14  1  0  0  0  0
  9 10  1  0  0  0  0
  9 11  1  0  0  0  0
  9 23  1  0  0  0  0
  7  8  1  0  0  0  0
  7  9  1  0  0  0  0
 27 28  1  0  0  0  0
 27 29  1  0  0  0  0
 27 30  1  0  0  0  0
 25 26  1  0  0  0  0
 25 27  1  0  0  0  0
M  CHG  1  15   1
M  END
$$$$
default_name
  -OEChem-02102213163D

 30 30  0     1  0  0  0  0  0999 V2000
   -3.5507   -3.2183    1.8116 H   0  0  0  0  0  0  0  0  0  0  0  0
   -3.4597   -2.3913    1.1076 C   0  0  0  0  0  0  0  0  0  0  0  0
   -4.1577   -1.6043    1.3866 H   0  0  0  0  0  0  0  0  0  0  0  0
   -3.6807   -2.7523    0.1036 H   0  0  0  0  0  0  0  0  0  0  0  0
   -2.0477   -1.8543    1.1546 C   0  0  0  0  0  0  0  0  0  0  0  0
   -1.2227   -2.3443    1.9146 O   0  0  0  0  0  0  0  0  0  0  0  0
   -1.7517   -0.8483    0.3266 N   0  0  0  0  0  0  0  0  0  0  0  0
   -2.4847   -0.5123   -0.2804 H   0  0  0  0  0  0  0  0  0  0  0  0
   -0.4117   -0.2463    0.2186 C   0  0  1  0  0  0  0  0  0  0  0  0
    0.2987   -1.0391   -0.0285 H   0  0  0  0  0  0  0  0  0  0  0  0
   -0.4131    0.7505   -0.9636 C   0  0  0  0  0  0  0  0  0  0  0  0
   -1.3029    1.3805   -0.8869 H   0  0  0  0  0  0  0  0  0  0  0  0
    0.4541    1.4083   -0.8743 H   0  0  0  0  0  0  0  0  0  0  0  0
   -0.3838    0.1178   -2.3388 C   0  0  0  0  0  0  0  0  0  0  0  0
   -0.3797    0.8081   -3.5354 N   0  3  0  0  0  0  0  0  0  0  0  0
   -0.3311    1.8291   -3.5985 H   0  0  0  0  0  0  0  0  0  0  0  0
   -0.3521   -0.0866   -4.5430 C   0  0  0  0  0  0  0  0  0  0  0  0
   -0.3298    0.1593   -5.6027 H   0  0  0  0  0  0  0  0  0  0  0  0
   -0.3398   -1.3300   -4.0117 N   0  0  0  0  0  0  0  0  0  0  0  0
   -0.3162   -2.2020   -4.5338 H   0  0  0  0  0  0  0  0  0  0  0  0
   -0.3595   -1.2198   -2.6282 C   0  0  0  0  0  0  0  0  0  0  0  0
   -0.3558   -2.0315   -1.9060 H   0  0  0  0  0  0  0  0  0  0  0  0
    0.0470    0.3465    1.5629 C   0  0  0  0  0  0  0  0  0  0  0  0
    1.1854    0.1365    1.9846 O   0  0  0  0  0  0  0  0  0  0  0  0
   -0.8551    1.0750    2.2320 N   0  0  0  0  0  0  0  0  0  0  0  0
   -1.7594    1.2031    1.8040 H   0  0  0  0  0  0  0  0  0  0  0  0
   -0.6356    1.6998    3.5400 C   0  0  0  0  0  0  0  0  0  0  0  0
   -0.4284    2.7647    3.4168 H   0  0  0  0  0  0  0  0  0  0  0  0
   -1.5268    1.5885    4.1601 H   0  0  0  0  0  0  0  0  0  0  0  0
    0.2072    1.2358    4.0566 H   0  0  0  0  0  0  0  0  0  0  0  0
  5  6  2  0  0  0  0
  5  7  1  0  0  0  0
  2  3  1  0  0  0  0
  2  4  1  0  0  0  0
  2  5  1  0  0  0  0
  1  2  1  0  0  0  0
 23 24  2  0  0  0  0
 23 25  1  0  0  0  0
 21 22  1  0  0  0  0
 19 20  1  0  0  0  0
 19 21  1  0  0  0  0
 17 18  1  0  0  0  0
 17 19  1  0  0  0  0
 15 16  1  0  0  0  0
 15 17  2  0  0  0  0
 14 15  1  0  0  0  0
 14 21  2  0  0  0  0
 11 12  1  0  0  0  0
 11 13  1  0  0  0  0
 11 14  1  0  0  0  0
  9 10  1  0  0  0  0
  9 11  1  0  0  0  0
  9 23  1  0  0  0  0
  7  8  1  0  0  0  0
  7  9  1  0  0  0  0
 27 28  1  0  0  0  0
 27 29  1  0  0  0  0
 27 30  1  0  0  0  0
 25 26  1  0  0  0  0
 25 27  1  0  0  0  0
M  CHG  1  15   1
M  END
$$$$
default_name
  -OEChem-02102213163D

 30 30  0     1  0  0  0  0  0999 V2000
   -3.5507   -3.2183    1.8116 H   0  0  0  0  0  0  0  0  0  0  0  0
   -3.4597   -2.3913    1.1076 C   0  0  0  0  0  0  0  0  0  0  0  0
   -4.1577   -1.6043    1.3866 H   0  0  0  0  0  0  0  0  0  0  0  0
   -3.6807   -2.7523    0.1036 H   0  0  0  0  0  0  0  0  0  0  0  0
   -2.0477   -1.8543    1.1546 C   0  0  0  0  0  0  0  0  0  0  0  0
   -1.2227   -2.3443    1.9146 O   0  0  0  0  0  0  0  0  0  0  0  0
   -1.7517   -0.8483    0.3266 N   0  0  0  0  0  0  0  0  0  0  0  0
   -2.4847   -0.5123   -0.2804 H   0  0  0  0  0  0  0  0  0  0  0  0
   -0.4117   -0.2463    0.2186 C   0  0  1  0  0  0  0  0  0  0  0  0
    0.2987   -1.0391   -0.0285 H   0  0  0  0  0  0  0  0  0  0  0  0
   -0.4131    0.7505   -0.9636 C   0  0  0  0  0  0  0  0  0  0  0  0
   -1.3029    1.3805   -0.8869 H   0  0  0  0  0  0  0  0  0  0  0  0
    0.4541    1.4083   -0.8743 H   0  0  0  0  0  0  0  0  0  0  0  0
   -0.3838    0.1178   -2.3388 C   0  0  0  0  0  0  0  0  0  0  0  0
   -0.0876    0.7783   -3.5154 N   0  3  0  0  0  0  0  0  0  0  0  0
    0.2059    1.7586   -3.5546 H   0  0  0  0  0  0  0  0  0  0  0  0
   -0.1615   -0.1058   -4.5301 C   0  0  0  0  0  0  0  0  0  0  0  0
    0.0331    0.1196   -5.5767 H   0  0  0  0  0  0  0  0  0  0  0  0
   -0.4993   -1.3129   -4.0230 N   0  0  0  0  0  0  0  0  0  0  0  0
   -0.6245   -2.1701   -4.5551 H   0  0  0  0  0  0  0  0  0  0  0  0
   -0.6429   -1.1902   -2.6479 C   0  0  0  0  0  0  0  0  0  0  0  0
   -0.9085   -1.9742   -1.9442 H   0  0  0  0  0  0  0  0  0  0  0  0
    0.0470    0.3465    1.5629 C   0  0  0  0  0  0  0  0  0  0  0  0
    1.1854    0.1365    1.9846 O   0  0  0  0  0  0  0  0  0  0  0  0
   -0.8551    1.0750    2.2320 N   0  0  0  0  0  0  0  0  0  0  0  0
   -1.7594    1.2031    1.8040 H   0  0  0  0  0  0  0  0  0  0  0  0
   -0.6356    1.6998    3.5400 C   0  0  0  0  0  0  0  0  0  0  0  0
   -0.4284    2.7647    3.4168 H   0  0  0  0  0  0  0  0  0  0  0  0
   -1.5268    1.5885    4.1601 H   0  0  0  0  0  0  0  0  0  0  0  0
    0.2072    1.2358    4.0566 H   0  0  0  0  0  0  0  0  0  0  0  0
  5  6  2  0  0  0  0
  5  7  1  0  0  0  0
  2  3  1  0  0  0  0
  2  4  1  0  0  0  0
  2  5  1  0  0  0  0
  1  2  1  0  0  0  0
 23 24  2  0  0  0  0
 23 25  1  0  0  0  0
 21 22  1  0  0  0  0
 19 20  1  0  0  0  0
 19 21  1  0  0  0  0
 17 18  1  0  0  0  0
 17 19  1  0  0  0  0
 15 16  1  0  0  0  0
 15 17  2  0  0  0  0
 14 15  1  0  0  0  0
 14 21  2  0  0  0  0
 11 12  1  0  0  0  0
 11 13  1  0  0  0  0
 11 14  1  0  0  0  0
  9 10  1  0  0  0  0
  9 11  1  0  0  0  0
  9 23  1  0  0  0  0
  7  8  1  0  0  0  0
  7  9  1  0  0  0  0
 27 28  1  0  0  0  0
 27 29  1  0  0  0  0
 27 30  1  0  0  0  0
 25 26  1  0  0  0  0
 25 27  1  0  0  0  0
M  CHG  1  15   1
M  END
$$$$
default_name
  -OEChem-02102213163D

 30 30  0     1  0  0  0  0  0999 V2000
   -3.5507   -3.2183    1.8116 H   0  0  0  0  0  0  0  0  0  0  0  0
   -3.4597   -2.3913    1.1076 C   0  0  0  0  0  0  0  0  0  0  0  0
   -4.1577   -1.6043    1.3866 H   0  0  0  0  0  0  0  0  0  0  0  0
   -3.6807   -2.7523    0.1036 H   0  0  0  0  0  0  0  0  0  0  0  0
   -2.0477   -1.8543    1.1546 C   0  0  0  0  0  0  0  0  0  0  0  0
   -1.2227   -2.3443    1.9146 O   0  0  0  0  0  0  0  0  0  0  0  0
   -1.7517   -0.8483    0.3266 N   0  0  0  0  0  0  0  0  0  0  0  0
   -2.4847   -0.5123   -0.2804 H   0  0  0  0  0  0  0  0  0  0  0  0
   -0.4117   -0.2463    0.2186 C   0  0  1  0  0  0  0  0  0  0  0  0
    0.2987   -1.0391   -0.0285 H   0  0  0  0  0  0  0  0  0  0  0  0
   -0.4131    0.7505   -0.9636 C   0  0  0  0  0  0  0  0  0  0  0  0
   -1.3029    1.3805   -0.8869 H   0  0  0  0  0  0  0  0  0  0  0  0
    0.4541    1.4083   -0.8743 H   0  0  0  0  0  0  0  0  0  0  0  0
   -0.3838    0.1178   -2.3388 C   0  0  0  0  0  0  0  0  0  0  0  0
    0.1854    0.6807   -3.4647 N   0  3  0  0  0  0  0  0  0  0  0  0
    0.7034    1.5640   -3.4545 H   0  0  0  0  0  0  0  0  0  0  0  0
    0.0168   -0.1692   -4.4971 C   0  0  0  0  0  0  0  0  0  0  0  0
    0.3714   -0.0043   -5.5125 H   0  0  0  0  0  0  0  0  0  0  0  0
   -0.6481   -1.2589   -4.0510 N   0  0  0  0  0  0  0  0  0  0  0  0
   -0.9125   -2.0667   -4.6088 H   0  0  0  0  0  0  0  0  0  0  0  0
   -0.9076   -1.0949   -2.6974 C   0  0  0  0  0  0  0  0  0  0  0  0
   -1.4248   -1.7888   -2.0405 H   0  0  0  0  0  0  0  0  0  0  0  0
    0.0470    0.3465    1.5629 C   0  0  0  0  0  0  0  0  0  0  0  0
    1.1854    0.1365    1.9846 O   0  0  0  0  0  0  0  0  0  0  0  0
   -0.8551    1.0750    2.2320 N   0  0  0  0  0  0  0  0  0  0  0  0
   -1.7594    1.2031    1.8040 H   0  0  0  0  0  0  0  0  0  0  0  0
   -0.6356    1.6998    3.5400 C   0  0  0  0  0  0  0  0  0  0  0  0
   -0.4284    2.7647    3.4168 H   0  0  0  0  0  0  0  0  0  0  0  0
   -1.5268    1.5885    4.1601 H   0  0  0  0  0  0  0  0  0  0  0  0
    0.2072    1.2358    4.0566 H   0  0  0  0  0  0  0  0  0  0  0  0
  5  6  2  0  0  0  0
  5  7  1  0  0  0  0
  2  3  1  0  0  0  0
  2  4  1  0  0  0  0
  2  5  1  0  0  0  0
  1  2  1  0  0  0  0
 23 24  2  0  0  0  0
 23 25  1  0  0  0  0
 21 22  1  0  0  0  0
 19 20  1  0  0  0  0
 19 21  1  0  0  0  0
 17 18  1  0  0  0  0
 17 19  1  0  0  0  0
 15 16  1  0  0  0  0
 15 17  2  0  0  0  0
 14 15  1  0  0  0  0
 14 21  2  0  0  0  0
 11 12  1  0  0  0  0
 11 13  1  0  0  0  0
 11 14  1  0  0  0  0
  9 10  1  0  0  0  0
  9 11  1  0  0  0  0
  9 23  1  0  0  0  0
  7  8  1  0  0  0  0
  7  9  1  0  0  0  0
 27 28  1  0  0  0  0
 27 29  1  0  0  0  0
 27 30  1  0  0  0  0
 25 26  1  0  0  0  0
 25 27  1  0  0  0  0
M  CHG  1  15   1
M  END
$$$$
default_name
  -OEChem-02102213163D

 30 30  0     1  0  0  0  0  0999 V2000
   -3.5507   -3.2183    1.8116 H   0  0  0  0  0  0  0  0  0  0  0  0
   -3.4597   -2.3913    1.1076 C   0  0  0  0  0  0  0  0  0  0  0  0
   -4.1577   -1.6043    1.3866 H   0  0  0  0  0  0  0  0  0  0  0  0
   -3.6807   -2.7523    0.1036 H   0  0  0  0  0  0  0  0  0  0  0  0
   -2.0477   -1.8543    1.1546 C   0  0  0  0  0  0  0  0  0  0  0  0
   -1.2227   -2.3443    1.9146 O   0  0  0  0  0  0  0  0  0  0  0  0
   -1.7517   -0.8483    0.3266 N   0  0  0  0  0  0  0  0  0  0  0  0
   -2.4847   -0.5123   -0.2804 H   0  0  0  0  0  0  0  0  0  0  0  0
   -0.4117   -0.2463    0.2186 C   0  0  1  0  0  0  0  0  0  0  0  0
    0.2987   -1.0391   -0.0285 H   0  0  0  0  0  0  0  0  0  0  0  0
   -0.4131    0.7505   -0.9636 C   0  0  0  0  0  0  0  0  0  0  0  0
   -1.3029    1.3805   -0.8869 H   0  0  0  0  0  0  0  0  0  0  0  0
    0.4541    1.4083   -0.8743 H   0  0  0  0  0  0  0  0  0  0  0  0
   -0.3838    0.1178   -2.3388 C   0  0  0  0  0  0  0  0  0  0  0  0
    0.4206    0.5219   -3.3867 N   0  3  0  0  0  0  0  0  0  0  0  0
    1.1273    1.2586   -3.3050 H   0  0  0  0  0  0  0  0  0  0  0  0
    0.1705   -0.2725   -4.4463 C   0  0  0  0  0  0  0  0  0  0  0  0
    0.6622   -0.2038   -5.4146 H   0  0  0  0  0  0  0  0  0  0  0  0
   -0.7761   -1.1715   -4.0939 N   0  0  0  0  0  0  0  0  0  0  0  0
   -1.1605   -1.8988   -4.6913 H   0  0  0  0  0  0  0  0  0  0  0  0
   -1.1355   -0.9403   -2.7733 C   0  0  0  0  0  0  0  0  0  0  0  0
   -1.8694   -1.4878   -2.1884 H   0  0  0  0  0  0  0  0  0  0  0  0
    0.0470    0.3465    1.5629 C   0  0  0  0  0  0  0  0  0  0  0  0
    1.1854    0.1365    1.9846 O   0  0  0  0  0  0  0  0  0  0  0  0
   -0.8551    1.0750    2.2320 N   0  0  0  0  0  0  0  0  0  0  0  0
   -1.7594    1.2031    1.8040 H   0  0  0  0  0  0  0  0  0  0  0  0
   -0.6356    1.6998    3.5400 C   0  0  0  0  0  0  0  0  0  0  0  0
   -0.4284    2.7647    3.4168 H   0  0  0  0  0  0  0  0  0  0  0  0
   -1.5268    1.5885    4.1601 H   0  0  0  0  0  0  0  0  0  0  0  0
    0.2072    1.2358    4.0566 H   0  0  0  0  0  0  0  0  0  0  0  0
  5  6  2  0  0  0  0
  5  7  1  0  0  0  0
  2  3  1  0  0  0  0
  2  4  1  0  0  0  0
  2  5  1  0  0  0  0
  1  2  1  0  0  0  0
 23 24  2  0  0  0  0
 23 25  1  0  0  0  0
 21 22  1  0  0  0  0
 19 20  1  0  0  0  0
 19 21  1  0  0  0  0
 17 18  1  0  0  0  0
 17 19  1  0  0  0  0
 15 16  1  0  0  0  0
 15 17  2  0  0  0  0
 14 15  1  0  0  0  0
 14 21  2  0  0  0  0
 11 12  1  0  0  0  0
 11 13  1  0  0  0  0
 11 14  1  0  0  0  0
  9 10  1  0  0  0  0
  9 11  1  0  0  0  0
  9 23  1  0  0  0  0
  7  8  1  0  0  0  0
  7  9  1  0  0  0  0
 27 28  1  0  0  0  0
 27 29  1  0  0  0  0
 27 30  1  0  0  0  0
 25 26  1  0  0  0  0
 25 27  1  0  0  0  0
M  CHG  1  15   1
M  END
$$$$
default_name
  -OEChem-02102213163D

 30 30  0     1  0  0  0  0  0999 V2000
   -3.5507   -3.2183    1.8116 H   0  0  0  0  0  0  0  0  0  0  0  0
   -3.4597   -2.3913    1.1076 C   0  0  0  0  0  0  0  0  0  0  0  0
   -4.1577   -1.6043    1.3866 H   0  0  0  0  0  0  0  0  0  0  0  0
   -3.6807   -2.7523    0.1036 H   0  0  0  0  0  0  0  0  0  0  0  0
   -2.0477   -1.8543    1.1546 C   0  0  0  0  0  0  0  0  0  0  0  0
   -1.2227   -2.3443    1.9146 O   0  0  0  0  0  0  0  0  0  0  0  0
   -1.7517   -0.8483    0.3266 N   0  0  0  0  0  0  0  0  0  0  0  0
   -2.4847   -0.5123   -0.2804 H   0  0  0  0  0  0  0  0  0  0  0  0
   -0.4117   -0.2463    0.2186 C   0  0  1  0  0  0  0  0  0  0  0  0
    0.2987   -1.0391   -0.0285 H   0  0  0  0  0  0  0  0  0  0  0  0
   -0.4131    0.7505   -0.9636 C   0  0  0  0  0  0  0  0  0  0  0  0
   -1.3029    1.3805   -0.8869 H   0  0  0  0  0  0  0  0  0  0  0  0
    0.4541    1.4083   -0.8743 H   0  0  0  0  0  0  0  0  0  0  0  0
   -0.3838    0.1178   -2.3388 C   0  0  0  0  0  0  0  0  0  0  0  0
    0.6021    0.3129   -3.2867 N   0  3  0  0  0  0  0  0  0  0  0  0
    1.4488    0.8632   -3.1162 H   0  0  0  0  0  0  0  0  0  0  0  0
    0.2892   -0.4087   -4.3811 C   0  0  0  0  0  0  0  0  0  0  0  0
    0.8856   -0.4653   -5.2895 H   0  0  0  0  0  0  0  0  0  0  0  0
   -0.8746   -1.0569   -4.1488 N   0  0  0  0  0  0  0  0  0  0  0  0
   -1.3517   -1.6779   -4.7970 H   0  0  0  0  0  0  0  0  0  0  0  0
   -1.3111   -0.7371   -2.8706 C   0  0  0  0  0  0  0  0  0  0  0  0
   -2.2122   -1.0918   -2.3779 H   0  0  0  0  0  0  0  0  0  0  0  0
    0.0470    0.3465    1.5629 C   0  0  0  0  0  0  0  0  0  0  0  0
    1.1854    0.1365    1.9846 O   0  0  0  0  0  0  0  0  0  0  0  0
   -0.8551    1.0750    2.2320 N   0  0  0  0  0  0  0  0  0  0  0  0
   -1.7594    1.2031    1.8040 H   0  0  0  0  0  0  0  0  0  0  0  0
   -0.6356    1.6998    3.5400 C   0  0  0  0  0  0  0  0  0  0  0  0
   -0.4284    2.7647    3.4168 H   0  0  0  0  0  0  0  0  0  0  0  0
   -1.5268    1.5885    4.1601 H   0  0  0  0  0  0  0  0  0  0  0  0
    0.2072    1.2358    4.0566 H   0  0  0  0  0  0  0  0  0  0  0  0
  5  6  2  0  0  0  0
  5  7  1  0  0  0  0
  2  3  1  0  0  0  0
  2  4  1  0  0  0  0
  2  5  1  0  0  0  0
  1  2  1  0  0  0  0
 23 24  2  0  0  0  0
 23 25  1  0  0  0  0
 21 22  1  0  0  0  0
 19 20  1  0  0  0  0
 19 21  1  0  0  0  0
 17 18  1  0  0  0  0
 17 19  1  0  0  0  0
 15 16  1  0  0  0  0
 15 17  2  0  0  0  0
 14 15  1  0  0  0  0
 14 21  2  0  0  0  0
 11 12  1  0  0  0  0
 11 13  1  0  0  0  0
 11 14  1  0  0  0  0
  9 10  1  0  0  0  0
  9 11  1  0  0  0  0
  9 23  1  0  0  0  0
  7  8  1  0  0  0  0
  7  9  1  0  0  0  0
 27 28  1  0  0  0  0
 27 29  1  0  0  0  0
 27 30  1  0  0  0  0
 25 26  1  0  0  0  0
 25 27  1  0  0  0  0
M  CHG  1  15   1
M  END
$$$$
default_name
  -OEChem-02102213163D

 30 30  0     1  0  0  0  0  0999 V2000
   -3.5507   -3.2183    1.8116 H   0  0  0  0  0  0  0  0  0  0  0  0
   -3.4597   -2.3913    1.1076 C   0  0  0  0  0  0  0  0  0  0  0  0
   -4.1577   -1.6043    1.3866 H   0  0  0  0  0  0  0  0  0  0  0  0
   -3.6807   -2.7523    0.1036 H   0  0  0  0  0  0  0  0  0  0  0  0
   -2.0477   -1.8543    1.1546 C   0  0  0  0  0  0  0  0  0  0  0  0
   -1.2227   -2.3443    1.9146 O   0  0  0  0  0  0  0  0  0  0  0  0
   -1.7517   -0.8483    0.3266 N   0  0  0  0  0  0  0  0  0  0  0  0
   -2.4847   -0.5123   -0.2804 H   0  0  0  0  0  0  0  0  0  0  0  0
   -0.4117   -0.2463    0.2186 C   0  0  1  0  0  0  0  0  0  0  0  0
    0.2987   -1.0391   -0.0285 H   0  0  0  0  0  0  0  0  0  0  0  0
   -0.4131    0.7505   -0.9636 C   0  0  0  0  0  0  0  0  0  0  0  0
   -1.3029    1.3805   -0.8869 H   0  0  0  0  0  0  0  0  0  0  0  0
    0.4541    1.4083   -0.8743 H   0  0  0  0  0  0  0  0  0  0  0  0
   -0.3838    0.1178   -2.3388 C   0  0  0  0  0  0  0  0  0  0  0  0
    0.7174    0.0679   -3.1715 N   0  3  0  0  0  0  0  0  0  0  0  0
    1.6459    0.4048   -2.9011 H   0  0  0  0  0  0  0  0  0  0  0  0
    0.3647   -0.5685   -4.3060 C   0  0  0  0  0  0  0  0  0  0  0  0
    1.0264   -0.7711   -5.1458 H   0  0  0  0  0  0  0  0  0  0  0  0
   -0.9369   -0.9226   -4.2119 N   0  0  0  0  0  0  0  0  0  0  0  0
   -1.4730   -1.4191   -4.9186 H   0  0  0  0  0  0  0  0  0  0  0  0
   -1.4224   -0.4990   -2.9825 C   0  0  0  0  0  0  0  0  0  0  0  0
   -2.4297   -0.6277   -2.5961 H   0  0  0  0  0  0  0  0  0  0  0  0
    0.0470    0.3465    1.5629 C   0  0  0  0  0  0  0  0  0  0  0  0
    1.1854    0.1365    1.9846 O   0  0  0  0  0  0  0  0  0  0  0  0
   -0.8551    1.0750    2.2320 N   0  0  0  0  0  0  0  0  0  0  0  0
   -1.7594    1.2031    1.8040 H   0  0  0  0  0  0  0  0  0  0  0  0
   -0.6356    1.6998    3.5400 C   0  0  0  0  0  0  0  0  0  0  0  0
   -0.4284    2.7647    3.4168 H   0  0  0  0  0  0  0  0  0  0  0  0
   -1.5268    1.5885    4.1601 H   0  0  0  0  0  0  0  0  0  0  0  0
    0.2072    1.2358    4.0566 H   0  0  0  0  0  0  0  0  0  0  0  0
  5  6  2  0  0  0  0
  5  7  1  0  0  0  0
  2  3  1  0  0  0  0
  2  4  1  0  0  0  0
  2  5  1  0  0  0  0
  1  2  1  0  0  0  0
 23 24  2  0  0  0  0
 23 25  1  0  0  0  0
 21 22  1  0  0  0  0
 19 20  1  0  0  0  0
 19 21  1  0  0  0  0
 17 18  1  0  0  0  0
 17 19  1  0  0  0  0
 15 16  1  0  0  0  0
 15 17  2  0  0  0  0
 14 15  1  0  0  0  0
 14 21  2  0  0  0  0
 11 12  1  0  0  0  0
 11 13  1  0  0  0  0
 11 14  1  0  0  0  0
  9 10  1  0  0  0  0
  9 11  1  0  0  0  0
  9 23  1  0  0  0  0
  7  8  1  0  0  0  0
  7  9  1  0  0  0  0
 27 28  1  0  0  0  0
 27 29  1  0  0  0  0
 27 30  1  0  0  0  0
 25 26  1  0  0  0  0
 25 27  1  0  0  0  0
M  CHG  1  15   1
M  END
$$$$
default_name
  -OEChem-02102213163D

 30 30  0     1  0  0  0  0  0999 V2000
   -3.5507   -3.2183    1.8116 H   0  0  0  0  0  0  0  0  0  0  0  0
   -3.4597   -2.3913    1.1076 C   0  0  0  0  0  0  0  0  0  0  0  0
   -4.1577   -1.6043    1.3866 H   0  0  0  0  0  0  0  0  0  0  0  0
   -3.6807   -2.7523    0.1036 H   0  0  0  0  0  0  0  0  0  0  0  0
   -2.0477   -1.8543    1.1546 C   0  0  0  0  0  0  0  0  0  0  0  0
   -1.2227   -2.3443    1.9146 O   0  0  0  0  0  0  0  0  0  0  0  0
   -1.7517   -0.8483    0.3266 N   0  0  0  0  0  0  0  0  0  0  0  0
   -2.4847   -0.5123   -0.2804 H   0  0  0  0  0  0  0  0  0  0  0  0
   -0.4117   -0.2463    0.2186 C   0  0  1  0  0  0  0  0  0  0  0  0
    0.2987   -1.0391   -0.0285 H   0  0  0  0  0  0  0  0  0  0  0  0
   -0.4131    0.7505   -0.9636 C   0  0  0  0  0  0  0  0  0  0  0  0
   -1.3029    1.3805   -0.8869 H   0  0  0  0  0  0  0  0  0  0  0  0
    0.4541    1.4083   -0.8743 H   0  0  0  0  0  0  0  0  0  0  0  0
   -0.3838    0.1178   -2.3388 C   0  0  0  0  0  0  0  0  0  0  0  0
    0.7588   -0.1965   -3.0489 N   0  3  0  0  0  0  0  0  0  0  0  0
    1.7053   -0.0854   -2.6743 H   0  0  0  0  0  0  0  0  0  0  0  0
    0.3920   -0.7410   -4.2261 C   0  0  0  0  0  0  0  0  0  0  0  0
    1.0749   -1.1002   -4.9933 H   0  0  0  0  0  0  0  0  0  0  0  0
   -0.9586   -0.7781   -4.2788 N   0  0  0  0  0  0  0  0  0  0  0  0
   -1.5162   -1.1400   -5.0480 H   0  0  0  0  0  0  0  0  0  0  0  0
   -1.4618   -0.2423   -3.1014 C   0  0  0  0  0  0  0  0  0  0  0  0
   -2.5070   -0.1273   -2.8280 H   0  0  0  0  0  0  0  0  0  0  0  0
    0.0470    0.3465    1.5629 C   0  0  0  0  0  0  0  0  0  0  0  0
    1.1854    0.1365    1.9846 O   0  0  0  0  0  0  0  0  0  0  0  0
   -0.8551    1.0750    2.2320 N   0  0  0  0  0  0  0  0  0  0  0  0
   -1.7594    1.2031    1.8040 H   0  0  0  0  0  0  0  0  0  0  0  0
   -0.6356    1.6998    3.5400 C   0  0  0  0  0  0  0  0  0  0  0  0
   -0.4284    2.7647    3.4168 H   0  0  0  0  0  0  0  0  0  0  0  0
   -1.5268    1.5885    4.1601 H   0  0  0  0  0  0  0  0  0  0  0  0
    0.2072    1.2358    4.0566 H   0  0  0  0  0  0  0  0  0  0  0  0
  5  6  2  0  0  0  0
  5  7  1  0  0  0  0
  2  3  1  0  0  0  0
  2  4  1  0  0  0  0
  2  5  1  0  0  0  0
  1  2  1  0  0  0  0
 23 24  2  0  0  0  0
 23 25  1  0  0  0  0
 21 22  1  0  0  0  0
 19 20  1  0  0  0  0
 19 21  1  0  0  0  0
 17 18  1  0  0  0  0
 17 19  1  0  0  0  0
 15 16  1  0  0  0  0
 15 17  2  0  0  0  0
 14 15  1  0  0  0  0
 14 21  2  0  0  0  0
 11 12  1  0  0  0  0
 11 13  1  0  0  0  0
 11 14  1  0  0  0  0
  9 10  1  0  0  0  0
  9 11  1  0  0  0  0
  9 23  1  0  0  0  0
  7  8  1  0  0  0  0
  7  9  1  0  0  0  0
 27 28  1  0  0  0  0
 27 29  1  0  0  0  0
 27 30  1  0  0  0  0
 25 26  1  0  0  0  0
 25 27  1  0  0  0  0
M  CHG  1  15   1
M  END
$$$$
default_name
  -OEChem-02102213163D

 30 30  0     1  0  0  0  0  0999 V2000
   -3.5507   -3.2183    1.8116 H   0  0  0  0  0  0  0  0  0  0  0  0
   -3.4597   -2.3913    1.1076 C   0  0  0  0  0  0  0  0  0  0  0  0
   -4.1577   -1.6043    1.3866 H   0  0  0  0  0  0  0  0  0  0  0  0
   -3.6807   -2.7523    0.1036 H   0  0  0  0  0  0  0  0  0  0  0  0
   -2.0477   -1.8543    1.1546 C   0  0  0  0  0  0  0  0  0  0  0  0
   -1.2227   -2.3443    1.9146 O   0  0  0  0  0  0  0  0  0  0  0  0
   -1.7517   -0.8483    0.3266 N   0  0  0  0  0  0  0  0  0  0  0  0
   -2.4847   -0.5123   -0.2804 H   0  0  0  0  0  0  0  0  0  0  0  0
   -0.4117   -0.2463    0.2186 C   0  0  1  0  0  0  0  0  0  0  0  0
    0.2987   -1.0391   -0.0285 H   0  0  0  0  0  0  0  0  0  0  0  0
   -0.4131    0.7505   -0.9636 C   0  0  0  0  0  0  0  0  0  0  0  0
   -1.3029    1.3805   -0.8869 H   0  0  0  0  0  0  0  0  0  0  0  0
    0.4541    1.4083   -0.8743 H   0  0  0  0  0  0  0  0  0  0  0  0
   -0.3838    0.1178   -2.3388 C   0  0  0  0  0  0  0  0  0  0  0  0
    0.7233   -0.4622   -2.9274 N   0  3  0  0  0  0  0  0  0  0  0  0
    1.6230   -0.5741   -2.4512 H   0  0  0  0  0  0  0  0  0  0  0  0
    0.3692   -0.9144   -4.1468 C   0  0  0  0  0  0  0  0  0  0  0  0
    1.0280   -1.4303   -4.8424 H   0  0  0  0  0  0  0  0  0  0  0  0
   -0.9384   -0.6330   -4.3452 N   0  0  0  0  0  0  0  0  0  0  0  0
   -1.4783   -0.8596   -5.1762 H   0  0  0  0  0  0  0  0  0  0  0  0
   -1.4267    0.0155   -3.2193 C   0  0  0  0  0  0  0  0  0  0  0  0
   -2.4391    0.3754   -3.0578 H   0  0  0  0  0  0  0  0  0  0  0  0
    0.0470    0.3465    1.5629 C   0  0  0  0  0  0  0  0  0  0  0  0
    1.1854    0.1365    1.9846 O   0  0  0  0  0  0  0  0  0  0  0  0
   -0.8551    1.0750    2.2320 N   0  0  0  0  0  0  0  0  0  0  0  0
   -1.7594    1.2031    1.8040 H   0  0  0  0  0  0  0  0  0  0  0  0
   -0.6356    1.6998    3.5400 C   0  0  0  0  0  0  0  0  0  0  0  0
   -0.4284    2.7647    3.4168 H   0  0  0  0  0  0  0  0  0  0  0  0
   -1.5268    1.5885    4.1601 H   0  0  0  0  0  0  0  0  0  0  0  0
    0.2072    1.2358    4.0566 H   0  0  0  0  0  0  0  0  0  0  0  0
  5  6  2  0  0  0  0
  5  7  1  0  0  0  0
  2  3  1  0  0  0  0
  2  4  1  0  0  0  0
  2  5  1  0  0  0  0
  1  2  1  0  0  0  0
 23 24  2  0  0  0  0
 23 25  1  0  0  0  0
 21 22  1  0  0  0  0
 19 20  1  0  0  0  0
 19 21  1  0  0  0  0
 17 18  1  0  0  0  0
 17 19  1  0  0  0  0
 15 16  1  0  0  0  0
 15 17  2  0  0  0  0
 14 15  1  0  0  0  0
 14 21  2  0  0  0  0
 11 12  1  0  0  0  0
 11 13  1  0  0  0  0
 11 14  1  0  0  0  0
  9 10  1  0  0  0  0
  9 11  1  0  0  0  0
  9 23  1  0  0  0  0
  7  8  1  0  0  0  0
  7  9  1  0  0  0  0
 27 28  1  0  0  0  0
 27 29  1  0  0  0  0
 27 30  1  0  0  0  0
 25 26  1  0  0  0  0
 25 27  1  0  0  0  0
M  CHG  1  15   1
M  END
$$$$
default_name
  -OEChem-02102213163D

 30 30  0     1  0  0  0  0  0999 V2000
   -3.5507   -3.2183    1.8116 H   0  0  0  0  0  0  0  0  0  0  0  0
   -3.4597   -2.3913    1.1076 C   0  0  0  0  0  0  0  0  0  0  0  0
   -4.1577   -1.6043    1.3866 H   0  0  0  0  0  0  0  0  0  0  0  0
   -3.6807   -2.7523    0.1036 H   0  0  0  0  0  0  0  0  0  0  0  0
   -2.0477   -1.8543    1.1546 C   0  0  0  0  0  0  0  0  0  0  0  0
   -1.2227   -2.3443    1.9146 O   0  0  0  0  0  0  0  0  0  0  0  0
   -1.7517   -0.8483    0.3266 N   0  0  0  0  0  0  0  0  0  0  0  0
   -2.4847   -0.5123   -0.2804 H   0  0  0  0  0  0  0  0  0  0  0  0
   -0.4117   -0.2463    0.2186 C   0  0  1  0  0  0  0  0  0  0  0  0
    0.2987   -1.0391   -0.0285 H   0  0  0  0  0  0  0  0  0  0  0  0
   -0.4131    0.7505   -0.9636 C   0  0  0  0  0  0  0  0  0  0  0  0
   -1.3029    1.3805   -0.8869 H   0  0  0  0  0  0  0  0  0  0  0  0
    0.4541    1.4083   -0.8743 H   0  0  0  0  0  0  0  0  0  0  0  0
   -0.3838    0.1178   -2.3388 C   0  0  0  0  0  0  0  0  0  0  0  0
    0.6134   -0.7111   -2.8153 N   0  3  0  0  0  0  0  0  0  0  0  0
    1.4044   -1.0278   -2.2471 H   0  0  0  0  0  0  0  0  0  0  0  0
    0.2979   -1.0769   -4.0735 C   0  0  0  0  0  0  0  0  0  0  0  0
    0.8887   -1.7389   -4.7034 H   0  0  0  0  0  0  0  0  0  0  0  0
   -0.8776   -0.4972   -4.4063 N   0  0  0  0  0  0  0  0  0  0  0  0
   -1.3619   -0.5970   -5.2945 H   0  0  0  0  0  0  0  0  0  0  0  0
   -1.3195    0.2568   -3.3281 C   0  0  0  0  0  0  0  0  0  0  0  0
   -2.2304    0.8462   -3.2700 H   0  0  0  0  0  0  0  0  0  0  0  0
    0.0470    0.3465    1.5629 C   0  0  0  0  0  0  0  0  0  0  0  0
    1.1854    0.1365    1.9846 O   0  0  0  0  0  0  0  0  0  0  0  0
   -0.8551    1.0750    2.2320 N   0  0  0  0  0  0  0  0  0  0  0  0
   -1.7594    1.2031    1.8040 H   0  0  0  0  0  0  0  0  0  0  0  0
   -0.6356    1.6998    3.5400 C   0  0  0  0  0  0  0  0  0  0  0  0
   -0.4284    2.7647    3.4168 H   0  0  0  0  0  0  0  0  0  0  0  0
   -1.5268    1.5885    4.1601 H   0  0  0  0  0  0  0  0  0  0  0  0
    0.2072    1.2358    4.0566 H   0  0  0  0  0  0  0  0  0  0  0  0
  5  6  2  0  0  0  0
  5  7  1  0  0  0  0
  2  3  1  0  0  0  0
  2  4  1  0  0  0  0
  2  5  1  0  0  0  0
  1  2  1  0  0  0  0
 23 24  2  0  0  0  0
 23 25  1  0  0  0  0
 21 22  1  0  0  0  0
 19 20  1  0  0  0  0
 19 21  1  0  0  0  0
 17 18  1  0  0  0  0
 17 19  1  0  0  0  0
 15 16  1  0  0  0  0
 15 17  2  0  0  0  0
 14 15  1  0  0  0  0
 14 21  2  0  0  0  0
 11 12  1  0  0  0  0
 11 13  1  0  0  0  0
 11 14  1  0  0  0  0
  9 10  1  0  0  0  0
  9 11  1  0  0  0  0
  9 23  1  0  0  0  0
  7  8  1  0  0  0  0
  7  9  1  0  0  0  0
 27 28  1  0  0  0  0
 27 29  1  0  0  0  0
 27 30  1  0  0  0  0
 25 26  1  0  0  0  0
 25 27  1  0  0  0  0
M  CHG  1  15   1
M  END
$$$$
default_name
  -OEChem-02102213163D

 30 30  0     1  0  0  0  0  0999 V2000
   -3.5507   -3.2183    1.8116 H   0  0  0  0  0  0  0  0  0  0  0  0
   -3.4597   -2.3913    1.1076 C   0  0  0  0  0  0  0  0  0  0  0  0
   -4.1577   -1.6043    1.3866 H   0  0  0  0  0  0  0  0  0  0  0  0
   -3.6807   -2.7523    0.1036 H   0  0  0  0  0  0  0  0  0  0  0  0
   -2.0477   -1.8543    1.1546 C   0  0  0  0  0  0  0  0  0  0  0  0
   -1.2227   -2.3443    1.9146 O   0  0  0  0  0  0  0  0  0  0  0  0
   -1.7517   -0.8483    0.3266 N   0  0  0  0  0  0  0  0  0  0  0  0
   -2.4847   -0.5123   -0.2804 H   0  0  0  0  0  0  0  0  0  0  0  0
   -0.4117   -0.2463    0.2186 C   0  0  1  0  0  0  0  0  0  0  0  0
    0.2987   -1.0391   -0.0285 H   0  0  0  0  0  0  0  0  0  0  0  0
   -0.4131    0.7505   -0.9636 C   0  0  0  0  0  0  0  0  0  0  0  0
   -1.3029    1.3805   -0.8869 H   0  0  0  0  0  0  0  0  0  0  0  0
    0.4541    1.4083   -0.8743 H   0  0  0  0  0  0  0  0  0  0  0  0
   -0.3838    0.1178   -2.3388 C   0  0  0  0  0  0  0  0  0  0  0  0
    0.4367   -0.9263   -2.7200 N   0  3  0  0  0  0  0  0  0  0  0  0
    1.0645   -1.4157   -2.0759 H   0  0  0  0  0  0  0  0  0  0  0  0
    0.1828   -1.2175   -4.0113 C   0  0  0  0  0  0  0  0  0  0  0  0
    0.6665   -2.0049   -4.5858 H   0  0  0  0  0  0  0  0  0  0  0  0
   -0.7803   -0.3801   -4.4581 N   0  0  0  0  0  0  0  0  0  0  0  0
   -1.1750   -0.3701   -5.3950 H   0  0  0  0  0  0  0  0  0  0  0  0
   -1.1473    0.4653   -3.4203 C   0  0  0  0  0  0  0  0  0  0  0  0
   -1.8951    1.2530   -3.4500 H   0  0  0  0  0  0  0  0  0  0  0  0
    0.0470    0.3465    1.5629 C   0  0  0  0  0  0  0  0  0  0  0  0
    1.1854    0.1365    1.9846 O   0  0  0  0  0  0  0  0  0  0  0  0
   -0.8551    1.0750    2.2320 N   0  0  0  0  0  0  0  0  0  0  0  0
   -1.7594    1.2031    1.8040 H   0  0  0  0  0  0  0  0  0  0  0  0
   -0.6356    1.6998    3.5400 C   0  0  0  0  0  0  0  0  0  0  0  0
   -0.4284    2.7647    3.4168 H   0  0  0  0  0  0  0  0  0  0  0  0
   -1.5268    1.5885    4.1601 H   0  0  0  0  0  0  0  0  0  0  0  0
    0.2072    1.2358    4.0566 H   0  0  0  0  0  0  0  0  0  0  0  0
  5  6  2  0  0  0  0
  5  7  1  0  0  0  0
  2  3  1  0  0  0  0
  2  4  1  0  0  0  0
  2  5  1  0  0  0  0
  1  2  1  0  0  0  0
 23 24  2  0  0  0  0
 23 25  1  0  0  0  0
 21 22  1  0  0  0  0
 19 20  1  0  0  0  0
 19 21  1  0  0  0  0
 17 18  1  0  0  0  0
 17 19  1  0  0  0  0
 15 16  1  0  0  0  0
 15 17  2  0  0  0  0
 14 15  1  0  0  0  0
 14 21  2  0  0  0  0
 11 12  1  0  0  0  0
 11 13  1  0  0  0  0
 11 14  1  0  0  0  0
  9 10  1  0  0  0  0
  9 11  1  0  0  0  0
  9 23  1  0  0  0  0
  7  8  1  0  0  0  0
  7  9  1  0  0  0  0
 27 28  1  0  0  0  0
 27 29  1  0  0  0  0
 27 30  1  0  0  0  0
 25 26  1  0  0  0  0
 25 27  1  0  0  0  0
M  CHG  1  15   1
M  END
$$$$
default_name
  -OEChem-02102213163D

 30 30  0     1  0  0  0  0  0999 V2000
   -3.5507   -3.2183    1.8116 H   0  0  0  0  0  0  0  0  0  0  0  0
   -3.4597   -2.3913    1.1076 C   0  0  0  0  0  0  0  0  0  0  0  0
   -4.1577   -1.6043    1.3866 H   0  0  0  0  0  0  0  0  0  0  0  0
   -3.6807   -2.7523    0.1036 H   0  0  0  0  0  0  0  0  0  0  0  0
   -2.0477   -1.8543    1.1546 C   0  0  0  0  0  0  0  0  0  0  0  0
   -1.2227   -2.3443    1.9146 O   0  0  0  0  0  0  0  0  0  0  0  0
   -1.7517   -0.8483    0.3266 N   0  0  0  0  0  0  0  0  0  0  0  0
   -2.4847   -0.5123   -0.2804 H   0  0  0  0  0  0  0  0  0  0  0  0
   -0.4117   -0.2463    0.2186 C   0  0  1  0  0  0  0  0  0  0  0  0
    0.2987   -1.0391   -0.0285 H   0  0  0  0  0  0  0  0  0  0  0  0
   -0.4131    0.7505   -0.9636 C   0  0  0  0  0  0  0  0  0  0  0  0
   -1.3029    1.3805   -0.8869 H   0  0  0  0  0  0  0  0  0  0  0  0
    0.4541    1.4083   -0.8743 H   0  0  0  0  0  0  0  0  0  0  0  0
   -0.3838    0.1178   -2.3388 C   0  0  0  0  0  0  0  0  0  0  0  0
    0.2050   -1.0930   -2.6482 N   0  3  0  0  0  0  0  0  0  0  0  0
    0.6265   -1.7114   -1.9492 H   0  0  0  0  0  0  0  0  0  0  0  0
    0.0319   -1.3266   -3.9643 C   0  0  0  0  0  0  0  0  0  0  0  0
    0.3767   -2.2102   -4.4975 H   0  0  0  0  0  0  0  0  0  0  0  0
   -0.6532   -0.2896   -4.4971 N   0  0  0  0  0  0  0  0  0  0  0  0
   -0.9302   -0.1944   -5.4706 H   0  0  0  0  0  0  0  0  0  0  0  0
   -0.9221    0.6267   -3.4898 C   0  0  0  0  0  0  0  0  0  0  0  0
   -1.4563    1.5679   -3.5856 H   0  0  0  0  0  0  0  0  0  0  0  0
    0.0470    0.3465    1.5629 C   0  0  0  0  0  0  0  0  0  0  0  0
    1.1854    0.1365    1.9846 O   0  0  0  0  0  0  0  0  0  0  0  0
   -0.8551    1.0750    2.2320 N   0  0  0  0  0  0  0  0  0  0  0  0
   -1.7594    1.2031    1.8040 H   0  0  0  0  0  0  0  0  0  0  0  0
   -0.6356    1.6998    3.5400 C   0  0  0  0  0  0  0  0  0  0  0  0
   -0.4284    2.7647    3.4168 H   0  0  0  0  0  0  0  0  0  0  0  0
   -1.5268    1.5885    4.1601 H   0  0  0  0  0  0  0  0  0  0  0  0
    0.2072    1.2358    4.0566 H   0  0  0  0  0  0  0  0  0  0  0  0
  5  6  2  0  0  0  0
  5  7  1  0  0  0  0
  2  3  1  0  0  0  0
  2  4  1  0  0  0  0
  2  5  1  0  0  0  0
  1  2  1  0  0  0  0
 23 24  2  0  0  0  0
 23 25  1  0  0  0  0
 21 22  1  0  0  0  0
 19 20  1  0  0  0  0
 19 21  1  0  0  0  0
 17 18  1  0  0  0  0
 17 19  1  0  0  0  0
 15 16  1  0  0  0  0
 15 17  2  0  0  0  0
 14 15  1  0  0  0  0
 14 21  2  0  0  0  0
 11 12  1  0  0  0  0
 11 13  1  0  0  0  0
 11 14  1  0  0  0  0
  9 10  1  0  0  0  0
  9 11  1  0  0  0  0
  9 23  1  0  0  0  0
  7  8  1  0  0  0  0
  7  9  1  0  0  0  0
 27 28  1  0  0  0  0
 27 29  1  0  0  0  0
 27 30  1  0  0  0  0
 25 26  1  0  0  0  0
 25 27  1  0  0  0  0
M  CHG  1  15   1
M  END
$$$$
default_name
  -OEChem-02102213163D

 30 30  0     1  0  0  0  0  0999 V2000
   -3.5507   -3.2183    1.8116 H   0  0  0  0  0  0  0  0  0  0  0  0
   -3.4597   -2.3913    1.1076 C   0  0  0  0  0  0  0  0  0  0  0  0
   -4.1577   -1.6043    1.3866 H   0  0  0  0  0  0  0  0  0  0  0  0
   -3.6807   -2.7523    0.1036 H   0  0  0  0  0  0  0  0  0  0  0  0
   -2.0477   -1.8543    1.1546 C   0  0  0  0  0  0  0  0  0  0  0  0
   -1.2227   -2.3443    1.9146 O   0  0  0  0  0  0  0  0  0  0  0  0
   -1.7517   -0.8483    0.3266 N   0  0  0  0  0  0  0  0  0  0  0  0
   -2.4847   -0.5123   -0.2804 H   0  0  0  0  0  0  0  0  0  0  0  0
   -0.4117   -0.2463    0.2186 C   0  0  1  0  0  0  0  0  0  0  0  0
    0.2987   -1.0391   -0.0285 H   0  0  0  0  0  0  0  0  0  0  0  0
   -0.4131    0.7505   -0.9636 C   0  0  0  0  0  0  0  0  0  0  0  0
   -1.3029    1.3805   -0.8869 H   0  0  0  0  0  0  0  0  0  0  0  0
    0.4541    1.4083   -0.8743 H   0  0  0  0  0  0  0  0  0  0  0  0
   -0.3838    0.1178   -2.3388 C   0  0  0  0  0  0  0  0  0  0  0  0
   -0.0657   -1.2000   -2.6048 N   0  3  0  0  0  0  0  0  0  0  0  0
    0.1202   -1.8946   -1.8756 H   0  0  0  0  0  0  0  0  0  0  0  0
   -0.1446   -1.3967   -3.9358 C   0  0  0  0  0  0  0  0  0  0  0  0
    0.0389   -2.3409   -4.4446 H   0  0  0  0  0  0  0  0  0  0  0  0
   -0.5049   -0.2319   -4.5205 N   0  0  0  0  0  0  0  0  0  0  0  0
   -0.6443   -0.0819   -5.5163 H   0  0  0  0  0  0  0  0  0  0  0  0
   -0.6591    0.7299   -3.5317 C   0  0  0  0  0  0  0  0  0  0  0  0
   -0.9436    1.7697   -3.6675 H   0  0  0  0  0  0  0  0  0  0  0  0
    0.0470    0.3465    1.5629 C   0  0  0  0  0  0  0  0  0  0  0  0
    1.1854    0.1365    1.9846 O   0  0  0  0  0  0  0  0  0  0  0  0
   -0.8551    1.0750    2.2320 N   0  0  0  0  0  0  0  0  0  0  0  0
   -1.7594    1.2031    1.8040 H   0  0  0  0  0  0  0  0  0  0  0  0
   -0.6356    1.6998    3.5400 C   0  0  0  0  0  0  0  0  0  0  0  0
   -0.4284    2.7647    3.4168 H   0  0  0  0  0  0  0  0  0  0  0  0
   -1.5268    1.5885    4.1601 H   0  0  0  0  0  0  0  0  0  0  0  0
    0.2072    1.2358    4.0566 H   0  0  0  0  0  0  0  0  0  0  0  0
  5  6  2  0  0  0  0
  5  7  1  0  0  0  0
  2  3  1  0  0  0  0
  2  4  1  0  0  0  0
  2  5  1  0  0  0  0
  1  2  1  0  0  0  0
 23 24  2  0  0  0  0
 23 25  1  0  0  0  0
 21 22  1  0  0  0  0
 19 20  1  0  0  0  0
 19 21  1  0  0  0  0
 17 18  1  0  0  0  0
 17 19  1  0  0  0  0
 15 16  1  0  0  0  0
 15 17  2  0  0  0  0
 14 15  1  0  0  0  0
 14 21  2  0  0  0  0
 11 12  1  0  0  0  0
 11 13  1  0  0  0  0
 11 14  1  0  0  0  0
  9 10  1  0  0  0  0
  9 11  1  0  0  0  0
  9 23  1  0  0  0  0
  7  8  1  0  0  0  0
  7  9  1  0  0  0  0
 27 28  1  0  0  0  0
 27 29  1  0  0  0  0
 27 30  1  0  0  0  0
 25 26  1  0  0  0  0
 25 27  1  0  0  0  0
M  CHG  1  15   1
M  END
$$$$
default_name
  -OEChem-02102213163D

 30 30  0     1  0  0  0  0  0999 V2000
   -3.5507   -3.2183    1.8116 H   0  0  0  0  0  0  0  0  0  0  0  0
   -3.4597   -2.3913    1.1076 C   0  0  0  0  0  0  0  0  0  0  0  0
   -4.1577   -1.6043    1.3866 H   0  0  0  0  0  0  0  0  0  0  0  0
   -3.6807   -2.7523    0.1036 H   0  0  0  0  0  0  0  0  0  0  0  0
   -2.0477   -1.8543    1.1546 C   0  0  0  0  0  0  0  0  0  0  0  0
   -1.2227   -2.3443    1.9146 O   0  0  0  0  0  0  0  0  0  0  0  0
   -1.7517   -0.8483    0.3266 N   0  0  0  0  0  0  0  0  0  0  0  0
   -2.4847   -0.5123   -0.2804 H   0  0  0  0  0  0  0  0  0  0  0  0
   -0.4117   -0.2463    0.2186 C   0  0  1  0  0  0  0  0  0  0  0  0
    0.2987   -1.0391   -0.0285 H   0  0  0  0  0  0  0  0  0  0  0  0
   -0.4131    0.7505   -0.9636 C   0  0  0  0  0  0  0  0  0  0  0  0
   -1.3029    1.3805   -0.8869 H   0  0  0  0  0  0  0  0  0  0  0  0
    0.4541    1.4083   -0.8743 H   0  0  0  0  0  0  0  0  0  0  0  0
   -0.3838    0.1178   -2.3388 C   0  0  0  0  0  0  0  0  0  0  0  0
   -0.3570   -1.2399   -2.5926 N   0  3  0  0  0  0  0  0  0  0  0  0
   -0.4198   -1.9530   -1.8603 H   0  0  0  0  0  0  0  0  0  0  0  0
   -0.3347   -1.4230   -3.9278 C   0  0  0  0  0  0  0  0  0  0  0  0
   -0.3237   -2.3879   -4.4306 H   0  0  0  0  0  0  0  0  0  0  0  0
   -0.3456   -0.2108   -4.5268 N   0  0  0  0  0  0  0  0  0  0  0  0
   -0.3367   -0.0401   -5.5289 H   0  0  0  0  0  0  0  0  0  0  0  0
   -0.3763    0.7680   -3.5432 C   0  0  0  0  0  0  0  0  0  0  0  0
   -0.3922    1.8444   -3.6901 H   0  0  0  0  0  0  0  0  0  0  0  0
    0.0470    0.3465    1.5629 C   0  0  0  0  0  0  0  0  0  0  0  0
    1.1854    0.1365    1.9846 O   0  0  0  0  0  0  0  0  0  0  0  0
   -0.8551    1.0750    2.2320 N   0  0  0  0  0  0  0  0  0  0  0  0
   -1.7594    1.2031    1.8040 H   0  0  0  0  0  0  0  0  0  0  0  0
   -0.6356    1.6998    3.5400 C   0  0  0  0  0  0  0  0  0  0  0  0
   -0.4284    2.7647    3.4168 H   0  0  0  0  0  0  0  0  0  0  0  0
   -1.5268    1.5885    4.1601 H   0  0  0  0  0  0  0  0  0  0  0  0
    0.2072    1.2358    4.0566 H   0  0  0  0  0  0  0  0  0  0  0  0
  5  6  2  0  0  0  0
  5  7  1  0  0  0  0
  2  3  1  0  0  0  0
  2  4  1  0  0  0  0
  2  5  1  0  0  0  0
  1  2  1  0  0  0  0
 23 24  2  0  0  0  0
 23 25  1  0  0  0  0
 21 22  1  0  0  0  0
 19 20  1  0  0  0  0
 19 21  1  0  0  0  0
 17 18  1  0  0  0  0
 17 19  1  0  0  0  0
 15 16  1  0  0  0  0
 15 17  2  0  0  0  0
 14 15  1  0  0  0  0
 14 21  2  0  0  0  0
 11 12  1  0  0  0  0
 11 13  1  0  0  0  0
 11 14  1  0  0  0  0
  9 10  1  0  0  0  0
  9 11  1  0  0  0  0
  9 23  1  0  0  0  0
  7  8  1  0  0  0  0
  7  9  1  0  0  0  0
 27 28  1  0  0  0  0
 27 29  1  0  0  0  0
 27 30  1  0  0  0  0
 25 26  1  0  0  0  0
 25 27  1  0  0  0  0
M  CHG  1  15   1
M  END
$$$$
default_name
  -OEChem-02102213163D

 30 30  0     1  0  0  0  0  0999 V2000
   -3.5507   -3.2183    1.8116 H   0  0  0  0  0  0  0  0  0  0  0  0
   -3.4597   -2.3913    1.1076 C   0  0  0  0  0  0  0  0  0  0  0  0
   -4.1577   -1.6043    1.3866 H   0  0  0  0  0  0  0  0  0  0  0  0
   -3.6807   -2.7523    0.1036 H   0  0  0  0  0  0  0  0  0  0  0  0
   -2.0477   -1.8543    1.1546 C   0  0  0  0  0  0  0  0  0  0  0  0
   -1.2227   -2.3443    1.9146 O   0  0  0  0  0  0  0  0  0  0  0  0
   -1.7517   -0.8483    0.3266 N   0  0  0  0  0  0  0  0  0  0  0  0
   -2.4847   -0.5123   -0.2804 H   0  0  0  0  0  0  0  0  0  0  0  0
   -0.4117   -0.2463    0.2186 C   0  0  1  0  0  0  0  0  0  0  0  0
    0.2987   -1.0391   -0.0285 H   0  0  0  0  0  0  0  0  0  0  0  0
   -0.4131    0.7505   -0.9636 C   0  0  0  0  0  0  0  0  0  0  0  0
   -1.3029    1.3805   -0.8869 H   0  0  0  0  0  0  0  0  0  0  0  0
    0.4541    1.4083   -0.8743 H   0  0  0  0  0  0  0  0  0  0  0  0
   -0.3838    0.1178   -2.3388 C   0  0  0  0  0  0  0  0  0  0  0  0
   -0.6491   -1.2101   -2.6126 N   0  3  0  0  0  0  0  0  0  0  0  0
   -0.9569   -1.8825   -1.9041 H   0  0  0  0  0  0  0  0  0  0  0  0
   -0.5254   -1.4038   -3.9406 C   0  0  0  0  0  0  0  0  0  0  0  0
   -0.6866   -2.3482   -4.4566 H   0  0  0  0  0  0  0  0  0  0  0  0
   -0.1861   -0.2279   -4.5155 N   0  0  0  0  0  0  0  0  0  0  0  0
   -0.0284   -0.0721   -5.5077 H   0  0  0  0  0  0  0  0  0  0  0  0
   -0.0928    0.7384   -3.5235 C   0  0  0  0  0  0  0  0  0  0  0  0
    0.1605    1.7871   -3.6520 H   0  0  0  0  0  0  0  0  0  0  0  0
    0.0470    0.3465    1.5629 C   0  0  0  0  0  0  0  0  0  0  0  0
    1.1854    0.1365    1.9846 O   0  0  0  0  0  0  0  0  0  0  0  0
   -0.8551    1.0750    2.2320 N   0  0  0  0  0  0  0  0  0  0  0  0
   -1.7594    1.2031    1.8040 H   0  0  0  0  0  0  0  0  0  0  0  0
   -0.6356    1.6998    3.5400 C   0  0  0  0  0  0  0  0  0  0  0  0
   -0.4284    2.7647    3.4168 H   0  0  0  0  0  0  0  0  0  0  0  0
   -1.5268    1.5885    4.1601 H   0  0  0  0  0  0  0  0  0  0  0  0
    0.2072    1.2358    4.0566 H   0  0  0  0  0  0  0  0  0  0  0  0
  5  6  2  0  0  0  0
  5  7  1  0  0  0  0
  2  3  1  0  0  0  0
  2  4  1  0  0  0  0
  2  5  1  0  0  0  0
  1  2  1  0  0  0  0
 23 24  2  0  0  0  0
 23 25  1  0  0  0  0
 21 22  1  0  0  0  0
 19 20  1  0  0  0  0
 19 21  1  0  0  0  0
 17 18  1  0  0  0  0
 17 19  1  0  0  0  0
 15 16  1  0  0  0  0
 15 17  2  0  0  0  0
 14 15  1  0  0  0  0
 14 21  2  0  0  0  0
 11 12  1  0  0  0  0
 11 13  1  0  0  0  0
 11 14  1  0  0  0  0
  9 10  1  0  0  0  0
  9 11  1  0  0  0  0
  9 23  1  0  0  0  0
  7  8  1  0  0  0  0
  7  9  1  0  0  0  0
 27 28  1  0  0  0  0
 27 29  1  0  0  0  0
 27 30  1  0  0  0  0
 25 26  1  0  0  0  0
 25 27  1  0  0  0  0
M  CHG  1  15   1
M  END
$$$$
default_name
  -OEChem-02102213163D

 30 30  0     1  0  0  0  0  0999 V2000
   -3.5507   -3.2183    1.8116 H   0  0  0  0  0  0  0  0  0  0  0  0
   -3.4597   -2.3913    1.1076 C   0  0  0  0  0  0  0  0  0  0  0  0
   -4.1577   -1.6043    1.3866 H   0  0  0  0  0  0  0  0  0  0  0  0
   -3.6807   -2.7523    0.1036 H   0  0  0  0  0  0  0  0  0  0  0  0
   -2.0477   -1.8543    1.1546 C   0  0  0  0  0  0  0  0  0  0  0  0
   -1.2227   -2.3443    1.9146 O   0  0  0  0  0  0  0  0  0  0  0  0
   -1.7517   -0.8483    0.3266 N   0  0  0  0  0  0  0  0  0  0  0  0
   -2.4847   -0.5123   -0.2804 H   0  0  0  0  0  0  0  0  0  0  0  0
   -0.4117   -0.2463    0.2186 C   0  0  1  0  0  0  0  0  0  0  0  0
    0.2987   -1.0391   -0.0285 H   0  0  0  0  0  0  0  0  0  0  0  0
   -0.4131    0.7505   -0.9636 C   0  0  0  0  0  0  0  0  0  0  0  0
   -1.3029    1.3805   -0.8869 H   0  0  0  0  0  0  0  0  0  0  0  0
    0.4541    1.4083   -0.8743 H   0  0  0  0  0  0  0  0  0  0  0  0
   -0.3838    0.1178   -2.3388 C   0  0  0  0  0  0  0  0  0  0  0  0
   -0.9221   -1.1124   -2.6633 N   0  3  0  0  0  0  0  0  0  0  0  0
   -1.4543   -1.6879   -2.0043 H   0  0  0  0  0  0  0  0  0  0  0  0
   -0.7036   -1.3404   -3.9736 C   0  0  0  0  0  0  0  0  0  0  0  0
   -1.0250   -2.2243   -4.5208 H   0  0  0  0  0  0  0  0  0  0  0  0
   -0.0373   -0.2820   -4.4875 N   0  0  0  0  0  0  0  0  0  0  0  0
    0.2595   -0.1755   -5.4540 H   0  0  0  0  0  0  0  0  0  0  0  0
    0.1718    0.6431   -3.4740 C   0  0  0  0  0  0  0  0  0  0  0  0
    0.6768    1.6017   -3.5557 H   0  0  0  0  0  0  0  0  0  0  0  0
    0.0470    0.3465    1.5629 C   0  0  0  0  0  0  0  0  0  0  0  0
    1.1854    0.1365    1.9846 O   0  0  0  0  0  0  0  0  0  0  0  0
   -0.8551    1.0750    2.2320 N   0  0  0  0  0  0  0  0  0  0  0  0
   -1.7594    1.2031    1.8040 H   0  0  0  0  0  0  0  0  0  0  0  0
   -0.6356    1.6998    3.5400 C   0  0  0  0  0  0  0  0  0  0  0  0
   -0.4284    2.7647    3.4168 H   0  0  0  0  0  0  0  0  0  0  0  0
   -1.5268    1.5885    4.1601 H   0  0  0  0  0  0  0  0  0  0  0  0
    0.2072    1.2358    4.0566 H   0  0  0  0  0  0  0  0  0  0  0  0
  5  6  2  0  0  0  0
  5  7  1  0  0  0  0
  2  3  1  0  0  0  0
  2  4  1  0  0  0  0
  2  5  1  0  0  0  0
  1  2  1  0  0  0  0
 23 24  2  0  0  0  0
 23 25  1  0  0  0  0
 21 22  1  0  0  0  0
 19 20  1  0  0  0  0
 19 21  1  0  0  0  0
 17 18  1  0  0  0  0
 17 19  1  0  0  0  0
 15 16  1  0  0  0  0
 15 17  2  0  0  0  0
 14 15  1  0  0  0  0
 14 21  2  0  0  0  0
 11 12  1  0  0  0  0
 11 13  1  0  0  0  0
 11 14  1  0  0  0  0
  9 10  1  0  0  0  0
  9 11  1  0  0  0  0
  9 23  1  0  0  0  0
  7  8  1  0  0  0  0
  7  9  1  0  0  0  0
 27 28  1  0  0  0  0
 27 29  1  0  0  0  0
 27 30  1  0  0  0  0
 25 26  1  0  0  0  0
 25 27  1  0  0  0  0
M  CHG  1  15   1
M  END
$$$$
default_name
  -OEChem-02102213163D

 30 30  0     1  0  0  0  0  0999 V2000
   -3.5507   -3.2183    1.8116 H   0  0  0  0  0  0  0  0  0  0  0  0
   -3.4597   -2.3913    1.1076 C   0  0  0  0  0  0  0  0  0  0  0  0
   -4.1577   -1.6043    1.3866 H   0  0  0  0  0  0  0  0  0  0  0  0
   -3.6807   -2.7523    0.1036 H   0  0  0  0  0  0  0  0  0  0  0  0
   -2.0477   -1.8543    1.1546 C   0  0  0  0  0  0  0  0  0  0  0  0
   -1.2227   -2.3443    1.9146 O   0  0  0  0  0  0  0  0  0  0  0  0
   -1.7517   -0.8483    0.3266 N   0  0  0  0  0  0  0  0  0  0  0  0
   -2.4847   -0.5123   -0.2804 H   0  0  0  0  0  0  0  0  0  0  0  0
   -0.4117   -0.2463    0.2186 C   0  0  1  0  0  0  0  0  0  0  0  0
    0.2987   -1.0391   -0.0285 H   0  0  0  0  0  0  0  0  0  0  0  0
   -0.4131    0.7505   -0.9636 C   0  0  0  0  0  0  0  0  0  0  0  0
   -1.3029    1.3805   -0.8869 H   0  0  0  0  0  0  0  0  0  0  0  0
    0.4541    1.4083   -0.8743 H   0  0  0  0  0  0  0  0  0  0  0  0
   -0.3838    0.1178   -2.3388 C   0  0  0  0  0  0  0  0  0  0  0  0
   -1.1573   -0.9537   -2.7413 N   0  3  0  0  0  0  0  0  0  0  0  0
   -1.8782   -1.3825   -2.1538 H   0  0  0  0  0  0  0  0  0  0  0  0
   -0.8573   -1.2371   -4.0244 C   0  0  0  0  0  0  0  0  0  0  0  0
   -1.3158   -2.0249   -4.6188 H   0  0  0  0  0  0  0  0  0  0  0  0
    0.0907   -0.3693   -4.4446 N   0  0  0  0  0  0  0  0  0  0  0  0
    0.5076   -0.3433   -5.3715 H   0  0  0  0  0  0  0  0  0  0  0  0
    0.3997    0.4886   -3.3981 C   0  0  0  0  0  0  0  0  0  0  0  0
    1.1214    1.3007   -3.4077 H   0  0  0  0  0  0  0  0  0  0  0  0
    0.0470    0.3465    1.5629 C   0  0  0  0  0  0  0  0  0  0  0  0
    1.1854    0.1365    1.9846 O   0  0  0  0  0  0  0  0  0  0  0  0
   -0.8551    1.0750    2.2320 N   0  0  0  0  0  0  0  0  0  0  0  0
   -1.7594    1.2031    1.8040 H   0  0  0  0  0  0  0  0  0  0  0  0
   -0.6356    1.6998    3.5400 C   0  0  0  0  0  0  0  0  0  0  0  0
   -0.4284    2.7647    3.4168 H   0  0  0  0  0  0  0  0  0  0  0  0
   -1.5268    1.5885    4.1601 H   0  0  0  0  0  0  0  0  0  0  0  0
    0.2072    1.2358    4.0566 H   0  0  0  0  0  0  0  0  0  0  0  0
  5  6  2  0  0  0  0
  5  7  1  0  0  0  0
  2  3  1  0  0  0  0
  2  4  1  0  0  0  0
  2  5  1  0  0  0  0
  1  2  1  0  0  0  0
 23 24  2  0  0  0  0
 23 25  1  0  0  0  0
 21 22  1  0  0  0  0
 19 20  1  0  0  0  0
 19 21  1  0  0  0  0
 17 18  1  0  0  0  0
 17 19  1  0  0  0  0
 15 16  1  0  0  0  0
 15 17  2  0  0  0  0
 14 15  1  0  0  0  0
 14 21  2  0  0  0  0
 11 12  1  0  0  0  0
 11 13  1  0  0  0  0
 11 14  1  0  0  0  0
  9 10  1  0  0  0  0
  9 11  1  0  0  0  0
  9 23  1  0  0  0  0
  7  8  1  0  0  0  0
  7  9  1  0  0  0  0
 27 28  1  0  0  0  0
 27 29  1  0  0  0  0
 27 30  1  0  0  0  0
 25 26  1  0  0  0  0
 25 27  1  0  0  0  0
M  CHG  1  15   1
M  END
$$$$
default_name
  -OEChem-02102213163D

 30 30  0     1  0  0  0  0  0999 V2000
   -3.5507   -3.2183    1.8116 H   0  0  0  0  0  0  0  0  0  0  0  0
   -3.4597   -2.3913    1.1076 C   0  0  0  0  0  0  0  0  0  0  0  0
   -4.1577   -1.6043    1.3866 H   0  0  0  0  0  0  0  0  0  0  0  0
   -3.6807   -2.7523    0.1036 H   0  0  0  0  0  0  0  0  0  0  0  0
   -2.0477   -1.8543    1.1546 C   0  0  0  0  0  0  0  0  0  0  0  0
   -1.2227   -2.3443    1.9146 O   0  0  0  0  0  0  0  0  0  0  0  0
   -1.7517   -0.8483    0.3266 N   0  0  0  0  0  0  0  0  0  0  0  0
   -2.4847   -0.5123   -0.2804 H   0  0  0  0  0  0  0  0  0  0  0  0
   -0.4117   -0.2463    0.2186 C   0  0  1  0  0  0  0  0  0  0  0  0
    0.2987   -1.0391   -0.0285 H   0  0  0  0  0  0  0  0  0  0  0  0
   -0.4131    0.7505   -0.9636 C   0  0  0  0  0  0  0  0  0  0  0  0
   -1.3029    1.3805   -0.8869 H   0  0  0  0  0  0  0  0  0  0  0  0
    0.4541    1.4083   -0.8743 H   0  0  0  0  0  0  0  0  0  0  0  0
   -0.3838    0.1178   -2.3388 C   0  0  0  0  0  0  0  0  0  0  0  0
   -1.3388   -0.7447   -2.8413 N   0  3  0  0  0  0  0  0  0  0  0  0
   -2.1997   -0.9871   -2.3425 H   0  0  0  0  0  0  0  0  0  0  0  0
   -0.9760   -1.1009   -4.0896 C   0  0  0  0  0  0  0  0  0  0  0  0
   -1.5392   -1.7633   -4.7439 H   0  0  0  0  0  0  0  0  0  0  0  0
    0.1892   -0.4840   -4.3897 N   0  0  0  0  0  0  0  0  0  0  0  0
    0.6987   -0.5642   -5.2658 H   0  0  0  0  0  0  0  0  0  0  0  0
    0.5753    0.2853   -3.3008 C   0  0  0  0  0  0  0  0  0  0  0  0
    1.4642    0.9047   -3.2182 H   0  0  0  0  0  0  0  0  0  0  0  0
    0.0470    0.3465    1.5629 C   0  0  0  0  0  0  0  0  0  0  0  0
    1.1854    0.1365    1.9846 O   0  0  0  0  0  0  0  0  0  0  0  0
   -0.8551    1.0750    2.2320 N   0  0  0  0  0  0  0  0  0  0  0  0
   -1.7594    1.2031    1.8040 H   0  0  0  0  0  0  0  0  0  0  0  0
   -0.6356    1.6998    3.5400 C   0  0  0  0  0  0  0  0  0  0  0  0
   -0.4284    2.7647    3.4168 H   0  0  0  0  0  0  0  0  0  0  0  0
   -1.5268    1.5885    4.1601 H   0  0  0  0  0  0  0  0  0  0  0  0
    0.2072    1.2358    4.0566 H   0  0  0  0  0  0  0  0  0  0  0  0
  5  6  2  0  0  0  0
  5  7  1  0  0  0  0
  2  3  1  0  0  0  0
  2  4  1  0  0  0  0
  2  5  1  0  0  0  0
  1  2  1  0  0  0  0
 23 24  2  0  0  0  0
 23 25  1  0  0  0  0
 21 22  1  0  0  0  0
 19 20  1  0  0  0  0
 19 21  1  0  0  0  0
 17 18  1  0  0  0  0
 17 19  1  0  0  0  0
 15 16  1  0  0  0  0
 15 17  2  0  0  0  0
 14 15  1  0  0  0  0
 14 21  2  0  0  0  0
 11 12  1  0  0  0  0
 11 13  1  0  0  0  0
 11 14  1  0  0  0  0
  9 10  1  0  0  0  0
  9 11  1  0  0  0  0
  9 23  1  0  0  0  0
  7  8  1  0  0  0  0
  7  9  1  0  0  0  0
 27 28  1  0  0  0  0
 27 29  1  0  0  0  0
 27 30  1  0  0  0  0
 25 26  1  0  0  0  0
 25 27  1  0  0  0  0
M  CHG  1  15   1
M  END
$$$$
default_name
  -OEChem-02102213163D

 30 30  0     1  0  0  0  0  0999 V2000
   -3.5507   -3.2183    1.8116 H   0  0  0  0  0  0  0  0  0  0  0  0
   -3.4597   -2.3913    1.1076 C   0  0  0  0  0  0  0  0  0  0  0  0
   -4.1577   -1.6043    1.3866 H   0  0  0  0  0  0  0  0  0  0  0  0
   -3.6807   -2.7523    0.1036 H   0  0  0  0  0  0  0  0  0  0  0  0
   -2.0477   -1.8543    1.1546 C   0  0  0  0  0  0  0  0  0  0  0  0
   -1.2227   -2.3443    1.9146 O   0  0  0  0  0  0  0  0  0  0  0  0
   -1.7517   -0.8483    0.3266 N   0  0  0  0  0  0  0  0  0  0  0  0
   -2.4847   -0.5123   -0.2804 H   0  0  0  0  0  0  0  0  0  0  0  0
   -0.4117   -0.2463    0.2186 C   0  0  1  0  0  0  0  0  0  0  0  0
    0.2987   -1.0391   -0.0285 H   0  0  0  0  0  0  0  0  0  0  0  0
   -0.4131    0.7505   -0.9636 C   0  0  0  0  0  0  0  0  0  0  0  0
   -1.3029    1.3805   -0.8869 H   0  0  0  0  0  0  0  0  0  0  0  0
    0.4541    1.4083   -0.8743 H   0  0  0  0  0  0  0  0  0  0  0  0
   -0.3838    0.1178   -2.3388 C   0  0  0  0  0  0  0  0  0  0  0  0
   -1.4541   -0.4997   -2.9565 N   0  3  0  0  0  0  0  0  0  0  0  0
   -2.3969   -0.5287   -2.5577 H   0  0  0  0  0  0  0  0  0  0  0  0
   -1.0516   -0.9412   -4.1647 C   0  0  0  0  0  0  0  0  0  0  0  0
   -1.6800   -1.4576   -4.8876 H   0  0  0  0  0  0  0  0  0  0  0  0
    0.2515   -0.6182   -4.3266 N   0  0  0  0  0  0  0  0  0  0  0  0
    0.8201   -0.8230   -5.1441 H   0  0  0  0  0  0  0  0  0  0  0  0
    0.6866    0.0473   -3.1889 C   0  0  0  0  0  0  0  0  0  0  0  0
    1.6816    0.4406   -3.0001 H   0  0  0  0  0  0  0  0  0  0  0  0
    0.0470    0.3465    1.5629 C   0  0  0  0  0  0  0  0  0  0  0  0
    1.1854    0.1365    1.9846 O   0  0  0  0  0  0  0  0  0  0  0  0
   -0.8551    1.0750    2.2320 N   0  0  0  0  0  0  0  0  0  0  0  0
   -1.7594    1.2031    1.8040 H   0  0  0  0  0  0  0  0  0  0  0  0
   -0.6356    1.6998    3.5400 C   0  0  0  0  0  0  0  0  0  0  0  0
   -0.4284    2.7647    3.4168 H   0  0  0  0  0  0  0  0  0  0  0  0
   -1.5268    1.5885    4.1601 H   0  0  0  0  0  0  0  0  0  0  0  0
    0.2072    1.2358    4.0566 H   0  0  0  0  0  0  0  0  0  0  0  0
  5  6  2  0  0  0  0
  5  7  1  0  0  0  0
  2  3  1  0  0  0  0
  2  4  1  0  0  0  0
  2  5  1  0  0  0  0
  1  2  1  0  0  0  0
 23 24  2  0  0  0  0
 23 25  1  0  0  0  0
 21 22  1  0  0  0  0
 19 20  1  0  0  0  0
 19 21  1  0  0  0  0
 17 18  1  0  0  0  0
 17 19  1  0  0  0  0
 15 16  1  0  0  0  0
 15 17  2  0  0  0  0
 14 15  1  0  0  0  0
 14 21  2  0  0  0  0
 11 12  1  0  0  0  0
 11 13  1  0  0  0  0
 11 14  1  0  0  0  0
  9 10  1  0  0  0  0
  9 11  1  0  0  0  0
  9 23  1  0  0  0  0
  7  8  1  0  0  0  0
  7  9  1  0  0  0  0
 27 28  1  0  0  0  0
 27 29  1  0  0  0  0
 27 30  1  0  0  0  0
 25 26  1  0  0  0  0
 25 27  1  0  0  0  0
M  CHG  1  15   1
M  END
$$$$
default_name
  -OEChem-02102213163D

 30 30  0     1  0  0  0  0  0999 V2000
   -3.5507   -3.2183    1.8116 H   0  0  0  0  0  0  0  0  0  0  0  0
   -3.4597   -2.3913    1.1076 C   0  0  0  0  0  0  0  0  0  0  0  0
   -4.1577   -1.6043    1.3866 H   0  0  0  0  0  0  0  0  0  0  0  0
   -3.6807   -2.7523    0.1036 H   0  0  0  0  0  0  0  0  0  0  0  0
   -2.0477   -1.8543    1.1546 C   0  0  0  0  0  0  0  0  0  0  0  0
   -1.2227   -2.3443    1.9146 O   0  0  0  0  0  0  0  0  0  0  0  0
   -1.7517   -0.8483    0.3266 N   0  0  0  0  0  0  0  0  0  0  0  0
   -2.4847   -0.5123   -0.2804 H   0  0  0  0  0  0  0  0  0  0  0  0
   -0.4117   -0.2463    0.2186 C   0  0  1  0  0  0  0  0  0  0  0  0
    0.2987   -1.0391   -0.0285 H   0  0  0  0  0  0  0  0  0  0  0  0
   -0.4131    0.7505   -0.9636 C   0  0  0  0  0  0  0  0  0  0  0  0
   -1.3029    1.3805   -0.8869 H   0  0  0  0  0  0  0  0  0  0  0  0
    0.4541    1.4083   -0.8743 H   0  0  0  0  0  0  0  0  0  0  0  0
   -0.3838    0.1178   -2.3388 C   0  0  0  0  0  0  0  0  0  0  0  0
   -1.4955   -0.2353   -3.0790 N   0  3  0  0  0  0  0  0  0  0  0  0
   -2.4563   -0.0384   -2.7845 H   0  0  0  0  0  0  0  0  0  0  0  0
   -1.0789   -0.7687   -4.2446 C   0  0  0  0  0  0  0  0  0  0  0  0
   -1.7285   -1.1284   -5.0400 H   0  0  0  0  0  0  0  0  0  0  0  0
    0.2732   -0.7628   -4.2597 N   0  0  0  0  0  0  0  0  0  0  0  0
    0.8633   -1.1021   -5.0148 H   0  0  0  0  0  0  0  0  0  0  0  0
    0.7261   -0.2094   -3.0700 C   0  0  0  0  0  0  0  0  0  0  0  0
    1.7590   -0.0598   -2.7682 H   0  0  0  0  0  0  0  0  0  0  0  0
    0.0470    0.3465    1.5629 C   0  0  0  0  0  0  0  0  0  0  0  0
    1.1854    0.1365    1.9846 O   0  0  0  0  0  0  0  0  0  0  0  0
   -0.8551    1.0750    2.2320 N   0  0  0  0  0  0  0  0  0  0  0  0
   -1.7594    1.2031    1.8040 H   0  0  0  0  0  0  0  0  0  0  0  0
   -0.6356    1.6998    3.5400 C   0  0  0  0  0  0  0  0  0  0  0  0
   -0.4284    2.7647    3.4168 H   0  0  0  0  0  0  0  0  0  0  0  0
   -1.5268    1.5885    4.1601 H   0  0  0  0  0  0  0  0  0  0  0  0
    0.2072    1.2358    4.0566 H   0  0  0  0  0  0  0  0  0  0  0  0
  5  6  2  0  0  0  0
  5  7  1  0  0  0  0
  2  3  1  0  0  0  0
  2  4  1  0  0  0  0
  2  5  1  0  0  0  0
  1  2  1  0  0  0  0
 23 24  2  0  0  0  0
 23 25  1  0  0  0  0
 21 22  1  0  0  0  0
 19 20  1  0  0  0  0
 19 21  1  0  0  0  0
 17 18  1  0  0  0  0
 17 19  1  0  0  0  0
 15 16  1  0  0  0  0
 15 17  2  0  0  0  0
 14 15  1  0  0  0  0
 14 21  2  0  0  0  0
 11 12  1  0  0  0  0
 11 13  1  0  0  0  0
 11 14  1  0  0  0  0
  9 10  1  0  0  0  0
  9 11  1  0  0  0  0
  9 23  1  0  0  0  0
  7  8  1  0  0  0  0
  7  9  1  0  0  0  0
 27 28  1  0  0  0  0
 27 29  1  0  0  0  0
 27 30  1  0  0  0  0
 25 26  1  0  0  0  0
 25 27  1  0  0  0  0
M  CHG  1  15   1
M  END
$$$$
default_name
  -OEChem-02102213163D

 30 30  0     1  0  0  0  0  0999 V2000
   -3.5507   -3.2183    1.8116 H   0  0  0  0  0  0  0  0  0  0  0  0
   -3.4597   -2.3913    1.1076 C   0  0  0  0  0  0  0  0  0  0  0  0
   -4.1577   -1.6043    1.3866 H   0  0  0  0  0  0  0  0  0  0  0  0
   -3.6807   -2.7523    0.1036 H   0  0  0  0  0  0  0  0  0  0  0  0
   -2.0477   -1.8543    1.1546 C   0  0  0  0  0  0  0  0  0  0  0  0
   -1.2227   -2.3443    1.9146 O   0  0  0  0  0  0  0  0  0  0  0  0
   -1.7517   -0.8483    0.3266 N   0  0  0  0  0  0  0  0  0  0  0  0
   -2.4847   -0.5123   -0.2804 H   0  0  0  0  0  0  0  0  0  0  0  0
   -0.4117   -0.2463    0.2186 C   0  0  1  0  0  0  0  0  0  0  0  0
    0.2987   -1.0391   -0.0285 H   0  0  0  0  0  0  0  0  0  0  0  0
   -0.4131    0.7505   -0.9636 C   0  0  0  0  0  0  0  0  0  0  0  0
   -1.3029    1.3805   -0.8869 H   0  0  0  0  0  0  0  0  0  0  0  0
    0.4541    1.4083   -0.8743 H   0  0  0  0  0  0  0  0  0  0  0  0
   -0.3838    0.1178   -2.3388 C   0  0  0  0  0  0  0  0  0  0  0  0
   -1.4600    0.0304   -3.2005 N   0  3  0  0  0  0  0  0  0  0  0  0
   -2.3739    0.4502   -3.0075 H   0  0  0  0  0  0  0  0  0  0  0  0
   -1.0561   -0.5953   -4.3239 C   0  0  0  0  0  0  0  0  0  0  0  0
   -1.6815   -0.7983   -5.1909 H   0  0  0  0  0  0  0  0  0  0  0  0
    0.2530   -0.9079   -4.1933 N   0  0  0  0  0  0  0  0  0  0  0  0
    0.8254   -1.3826   -4.8865 H   0  0  0  0  0  0  0  0  0  0  0  0
    0.6910   -0.4672   -2.9521 C   0  0  0  0  0  0  0  0  0  0  0  0
    1.6910   -0.5625   -2.5384 H   0  0  0  0  0  0  0  0  0  0  0  0
    0.0470    0.3465    1.5629 C   0  0  0  0  0  0  0  0  0  0  0  0
    1.1854    0.1365    1.9846 O   0  0  0  0  0  0  0  0  0  0  0  0
   -0.8551    1.0750    2.2320 N   0  0  0  0  0  0  0  0  0  0  0  0
   -1.7594    1.2031    1.8040 H   0  0  0  0  0  0  0  0  0  0  0  0
   -0.6356    1.6998    3.5400 C   0  0  0  0  0  0  0  0  0  0  0  0
   -0.4284    2.7647    3.4168 H   0  0  0  0  0  0  0  0  0  0  0  0
   -1.5268    1.5885    4.1601 H   0  0  0  0  0  0  0  0  0  0  0  0
    0.2072    1.2358    4.0566 H   0  0  0  0  0  0  0  0  0  0  0  0
  5  6  2  0  0  0  0
  5  7  1  0  0  0  0
  2  3  1  0  0  0  0
  2  4  1  0  0  0  0
  2  5  1  0  0  0  0
  1  2  1  0  0  0  0
 23 24  2  0  0  0  0
 23 25  1  0  0  0  0
 21 22  1  0  0  0  0
 19 20  1  0  0  0  0
 19 21  1  0  0  0  0
 17 18  1  0  0  0  0
 17 19  1  0  0  0  0
 15 16  1  0  0  0  0
 15 17  2  0  0  0  0
 14 15  1  0  0  0  0
 14 21  2  0  0  0  0
 11 12  1  0  0  0  0
 11 13  1  0  0  0  0
 11 14  1  0  0  0  0
  9 10  1  0  0  0  0
  9 11  1  0  0  0  0
  9 23  1  0  0  0  0
  7  8  1  0  0  0  0
  7  9  1  0  0  0  0
 27 28  1  0  0  0  0
 27 29  1  0  0  0  0
 27 30  1  0  0  0  0
 25 26  1  0  0  0  0
 25 27  1  0  0  0  0
M  CHG  1  15   1
M  END
$$$$
default_name
  -OEChem-02102213163D

 30 30  0     1  0  0  0  0  0999 V2000
   -3.5507   -3.2183    1.8116 H   0  0  0  0  0  0  0  0  0  0  0  0
   -3.4597   -2.3913    1.1076 C   0  0  0  0  0  0  0  0  0  0  0  0
   -4.1577   -1.6043    1.3866 H   0  0  0  0  0  0  0  0  0  0  0  0
   -3.6807   -2.7523    0.1036 H   0  0  0  0  0  0  0  0  0  0  0  0
   -2.0477   -1.8543    1.1546 C   0  0  0  0  0  0  0  0  0  0  0  0
   -1.2227   -2.3443    1.9146 O   0  0  0  0  0  0  0  0  0  0  0  0
   -1.7517   -0.8483    0.3266 N   0  0  0  0  0  0  0  0  0  0  0  0
   -2.4847   -0.5123   -0.2804 H   0  0  0  0  0  0  0  0  0  0  0  0
   -0.4117   -0.2463    0.2186 C   0  0  1  0  0  0  0  0  0  0  0  0
    0.2987   -1.0391   -0.0285 H   0  0  0  0  0  0  0  0  0  0  0  0
   -0.4131    0.7505   -0.9636 C   0  0  0  0  0  0  0  0  0  0  0  0
   -1.3029    1.3805   -0.8869 H   0  0  0  0  0  0  0  0  0  0  0  0
    0.4541    1.4083   -0.8743 H   0  0  0  0  0  0  0  0  0  0  0  0
   -0.3838    0.1178   -2.3388 C   0  0  0  0  0  0  0  0  0  0  0  0
   -1.3501    0.2793   -3.3127 N   0  3  0  0  0  0  0  0  0  0  0  0
   -2.1553    0.9039   -3.2117 H   0  0  0  0  0  0  0  0  0  0  0  0
   -0.9847   -0.4327   -4.3972 C   0  0  0  0  0  0  0  0  0  0  0  0
   -1.5422   -0.4897   -5.3299 H   0  0  0  0  0  0  0  0  0  0  0  0
    0.1922   -1.0436   -4.1322 N   0  0  0  0  0  0  0  0  0  0  0  0
    0.7090   -1.6452   -4.7682 H   0  0  0  0  0  0  0  0  0  0  0  0
    0.5837   -0.7086   -2.8434 C   0  0  0  0  0  0  0  0  0  0  0  0
    1.4823   -1.0333   -2.3262 H   0  0  0  0  0  0  0  0  0  0  0  0
    0.0470    0.3465    1.5629 C   0  0  0  0  0  0  0  0  0  0  0  0
    1.1854    0.1365    1.9846 O   0  0  0  0  0  0  0  0  0  0  0  0
   -0.8551    1.0750    2.2320 N   0  0  0  0  0  0  0  0  0  0  0  0
   -1.7594    1.2031    1.8040 H   0  0  0  0  0  0  0  0  0  0  0  0
   -0.6356    1.6998    3.5400 C   0  0  0  0  0  0  0  0  0  0  0  0
   -0.4284    2.7647    3.4168 H   0  0  0  0  0  0  0  0  0  0  0  0
   -1.5268    1.5885    4.1601 H   0  0  0  0  0  0  0  0  0  0  0  0
    0.2072    1.2358    4.0566 H   0  0  0  0  0  0  0  0  0  0  0  0
  5  6  2  0  0  0  0
  5  7  1  0  0  0  0
  2  3  1  0  0  0  0
  2  4  1  0  0  0  0
  2  5  1  0  0  0  0
  1  2  1  0  0  0  0
 23 24  2  0  0  0  0
 23 25  1  0  0  0  0
 21 22  1  0  0  0  0
 19 20  1  0  0  0  0
 19 21  1  0  0  0  0
 17 18  1  0  0  0  0
 17 19  1  0  0  0  0
 15 16  1  0  0  0  0
 15 17  2  0  0  0  0
 14 15  1  0  0  0  0
 14 21  2  0  0  0  0
 11 12  1  0  0  0  0
 11 13  1  0  0  0  0
 11 14  1  0  0  0  0
  9 10  1  0  0  0  0
  9 11  1  0  0  0  0
  9 23  1  0  0  0  0
  7  8  1  0  0  0  0
  7  9  1  0  0  0  0
 27 28  1  0  0  0  0
 27 29  1  0  0  0  0
 27 30  1  0  0  0  0
 25 26  1  0  0  0  0
 25 27  1  0  0  0  0
M  CHG  1  15   1
M  END
$$$$
default_name
  -OEChem-02102213163D

 30 30  0     1  0  0  0  0  0999 V2000
   -3.5507   -3.2183    1.8116 H   0  0  0  0  0  0  0  0  0  0  0  0
   -3.4597   -2.3913    1.1076 C   0  0  0  0  0  0  0  0  0  0  0  0
   -4.1577   -1.6043    1.3866 H   0  0  0  0  0  0  0  0  0  0  0  0
   -3.6807   -2.7523    0.1036 H   0  0  0  0  0  0  0  0  0  0  0  0
   -2.0477   -1.8543    1.1546 C   0  0  0  0  0  0  0  0  0  0  0  0
   -1.2227   -2.3443    1.9146 O   0  0  0  0  0  0  0  0  0  0  0  0
   -1.7517   -0.8483    0.3266 N   0  0  0  0  0  0  0  0  0  0  0  0
   -2.4847   -0.5123   -0.2804 H   0  0  0  0  0  0  0  0  0  0  0  0
   -0.4117   -0.2463    0.2186 C   0  0  1  0  0  0  0  0  0  0  0  0
    0.2987   -1.0391   -0.0285 H   0  0  0  0  0  0  0  0  0  0  0  0
   -0.4131    0.7505   -0.9636 C   0  0  0  0  0  0  0  0  0  0  0  0
   -1.3029    1.3805   -0.8869 H   0  0  0  0  0  0  0  0  0  0  0  0
    0.4541    1.4083   -0.8743 H   0  0  0  0  0  0  0  0  0  0  0  0
   -0.3838    0.1178   -2.3388 C   0  0  0  0  0  0  0  0  0  0  0  0
   -1.1734    0.4945   -3.4080 N   0  3  0  0  0  0  0  0  0  0  0  0
   -1.8155    1.2918   -3.3829 H   0  0  0  0  0  0  0  0  0  0  0  0
   -0.8696   -0.2922   -4.4594 C   0  0  0  0  0  0  0  0  0  0  0  0
   -1.3201   -0.2237   -5.4476 H   0  0  0  0  0  0  0  0  0  0  0  0
    0.0949   -1.1607   -4.0804 N   0  0  0  0  0  0  0  0  0  0  0  0
    0.5220   -1.8720   -4.6678 H   0  0  0  0  0  0  0  0  0  0  0  0
    0.4116   -0.9171   -2.7511 C   0  0  0  0  0  0  0  0  0  0  0  0
    1.1471   -1.4401   -2.1462 H   0  0  0  0  0  0  0  0  0  0  0  0
    0.0470    0.3465    1.5629 C   0  0  0  0  0  0  0  0  0  0  0  0
    1.1854    0.1365    1.9846 O   0  0  0  0  0  0  0  0  0  0  0  0
   -0.8551    1.0750    2.2320 N   0  0  0  0  0  0  0  0  0  0  0  0
   -1.7594    1.2031    1.8040 H   0  0  0  0  0  0  0  0  0  0  0  0
   -0.6356    1.6998    3.5400 C   0  0  0  0  0  0  0  0  0  0  0  0
   -0.4284    2.7647    3.4168 H   0  0  0  0  0  0  0  0  0  0  0  0
   -1.5268    1.5885    4.1601 H   0  0  0  0  0  0  0  0  0  0  0  0
    0.2072    1.2358    4.0566 H   0  0  0  0  0  0  0  0  0  0  0  0
  5  6  2  0  0  0  0
  5  7  1  0  0  0  0
  2  3  1  0  0  0  0
  2  4  1  0  0  0  0
  2  5  1  0  0  0  0
  1  2  1  0  0  0  0
 23 24  2  0  0  0  0
 23 25  1  0  0  0  0
 21 22  1  0  0  0  0
 19 20  1  0  0  0  0
 19 21  1  0  0  0  0
 17 18  1  0  0  0  0
 17 19  1  0  0  0  0
 15 16  1  0  0  0  0
 15 17  2  0  0  0  0
 14 15  1  0  0  0  0
 14 21  2  0  0  0  0
 11 12  1  0  0  0  0
 11 13  1  0  0  0  0
 11 14  1  0  0  0  0
  9 10  1  0  0  0  0
  9 11  1  0  0  0  0
  9 23  1  0  0  0  0
  7  8  1  0  0  0  0
  7  9  1  0  0  0  0
 27 28  1  0  0  0  0
 27 29  1  0  0  0  0
 27 30  1  0  0  0  0
 25 26  1  0  0  0  0
 25 27  1  0  0  0  0
M  CHG  1  15   1
M  END
$$$$
default_name
  -OEChem-02102213163D

 30 30  0     1  0  0  0  0  0999 V2000
   -3.5507   -3.2183    1.8116 H   0  0  0  0  0  0  0  0  0  0  0  0
   -3.4597   -2.3913    1.1076 C   0  0  0  0  0  0  0  0  0  0  0  0
   -4.1577   -1.6043    1.3866 H   0  0  0  0  0  0  0  0  0  0  0  0
   -3.6807   -2.7523    0.1036 H   0  0  0  0  0  0  0  0  0  0  0  0
   -2.0477   -1.8543    1.1546 C   0  0  0  0  0  0  0  0  0  0  0  0
   -1.2227   -2.3443    1.9146 O   0  0  0  0  0  0  0  0  0  0  0  0
   -1.7517   -0.8483    0.3266 N   0  0  0  0  0  0  0  0  0  0  0  0
   -2.4847   -0.5123   -0.2804 H   0  0  0  0  0  0  0  0  0  0  0  0
   -0.4117   -0.2463    0.2186 C   0  0  1  0  0  0  0  0  0  0  0  0
    0.2987   -1.0391   -0.0285 H   0  0  0  0  0  0  0  0  0  0  0  0
   -0.4131    0.7505   -0.9636 C   0  0  0  0  0  0  0  0  0  0  0  0
   -1.3029    1.3805   -0.8869 H   0  0  0  0  0  0  0  0  0  0  0  0
    0.4541    1.4083   -0.8743 H   0  0  0  0  0  0  0  0  0  0  0  0
   -0.3838    0.1178   -2.3388 C   0  0  0  0  0  0  0  0  0  0  0  0
   -0.9417    0.6612   -3.4798 N   0  3  0  0  0  0  0  0  0  0  0  0
   -1.3775    1.5875   -3.5096 H   0  0  0  0  0  0  0  0  0  0  0  0
   -0.7187   -0.1831   -4.5064 C   0  0  0  0  0  0  0  0  0  0  0  0
   -1.0303   -0.0184   -5.5359 H   0  0  0  0  0  0  0  0  0  0  0  0
   -0.0322   -1.2512   -4.0414 N   0  0  0  0  0  0  0  0  0  0  0  0
    0.2773   -2.0477   -4.5922 H   0  0  0  0  0  0  0  0  0  0  0  0
    0.1863   -1.0784   -2.6817 C   0  0  0  0  0  0  0  0  0  0  0  0
    0.7082   -1.7550   -2.0106 H   0  0  0  0  0  0  0  0  0  0  0  0
    0.0470    0.3465    1.5629 C   0  0  0  0  0  0  0  0  0  0  0  0
    1.1854    0.1365    1.9846 O   0  0  0  0  0  0  0  0  0  0  0  0
   -0.8551    1.0750    2.2320 N   0  0  0  0  0  0  0  0  0  0  0  0
   -1.7594    1.2031    1.8040 H   0  0  0  0  0  0  0  0  0  0  0  0
   -0.6356    1.6998    3.5400 C   0  0  0  0  0  0  0  0  0  0  0  0
   -0.4284    2.7647    3.4168 H   0  0  0  0  0  0  0  0  0  0  0  0
   -1.5268    1.5885    4.1601 H   0  0  0  0  0  0  0  0  0  0  0  0
    0.2072    1.2358    4.0566 H   0  0  0  0  0  0  0  0  0  0  0  0
  5  6  2  0  0  0  0
  5  7  1  0  0  0  0
  2  3  1  0  0  0  0
  2  4  1  0  0  0  0
  2  5  1  0  0  0  0
  1  2  1  0  0  0  0
 23 24  2  0  0  0  0
 23 25  1  0  0  0  0
 21 22  1  0  0  0  0
 19 20  1  0  0  0  0
 19 21  1  0  0  0  0
 17 18  1  0  0  0  0
 17 19  1  0  0  0  0
 15 16  1  0  0  0  0
 15 17  2  0  0  0  0
 14 15  1  0  0  0  0
 14 21  2  0  0  0  0
 11 12  1  0  0  0  0
 11 13  1  0  0  0  0
 11 14  1  0  0  0  0
  9 10  1  0  0  0  0
  9 11  1  0  0  0  0
  9 23  1  0  0  0  0
  7  8  1  0  0  0  0
  7  9  1  0  0  0  0
 27 28  1  0  0  0  0
 27 29  1  0  0  0  0
 27 30  1  0  0  0  0
 25 26  1  0  0  0  0
 25 27  1  0  0  0  0
M  CHG  1  15   1
M  END
$$$$
default_name
  -OEChem-02102213163D

 30 30  0     1  0  0  0  0  0999 V2000
   -3.5507   -3.2183    1.8116 H   0  0  0  0  0  0  0  0  0  0  0  0
   -3.4597   -2.3913    1.1076 C   0  0  0  0  0  0  0  0  0  0  0  0
   -4.1577   -1.6043    1.3866 H   0  0  0  0  0  0  0  0  0  0  0  0
   -3.6807   -2.7523    0.1036 H   0  0  0  0  0  0  0  0  0  0  0  0
   -2.0477   -1.8543    1.1546 C   0  0  0  0  0  0  0  0  0  0  0  0
   -1.2227   -2.3443    1.9146 O   0  0  0  0  0  0  0  0  0  0  0  0
   -1.7517   -0.8483    0.3266 N   0  0  0  0  0  0  0  0  0  0  0  0
   -2.4847   -0.5123   -0.2804 H   0  0  0  0  0  0  0  0  0  0  0  0
   -0.4117   -0.2463    0.2186 C   0  0  1  0  0  0  0  0  0  0  0  0
    0.2987   -1.0391   -0.0285 H   0  0  0  0  0  0  0  0  0  0  0  0
   -0.4131    0.7505   -0.9636 C   0  0  0  0  0  0  0  0  0  0  0  0
   -1.3029    1.3805   -0.8869 H   0  0  0  0  0  0  0  0  0  0  0  0
    0.4541    1.4083   -0.8743 H   0  0  0  0  0  0  0  0  0  0  0  0
   -0.3838    0.1178   -2.3388 C   0  0  0  0  0  0  0  0  0  0  0  0
   -0.6710    0.7682   -3.5232 N   0  3  0  0  0  0  0  0  0  0  0  0
   -0.8712    1.7708   -3.5831 H   0  0  0  0  0  0  0  0  0  0  0  0
   -0.5422   -0.1130   -4.5349 C   0  0  0  0  0  0  0  0  0  0  0  0
   -0.6925    0.1123   -5.5888 H   0  0  0  0  0  0  0  0  0  0  0  0
   -0.1804   -1.3090   -4.0180 N   0  0  0  0  0  0  0  0  0  0  0  0
   -0.0087   -2.1603   -4.5465 H   0  0  0  0  0  0  0  0  0  0  0  0
   -0.0767   -1.1817   -2.6398 C   0  0  0  0  0  0  0  0  0  0  0  0
    0.1956   -1.9568   -1.9287 H   0  0  0  0  0  0  0  0  0  0  0  0
    0.0470    0.3465    1.5629 C   0  0  0  0  0  0  0  0  0  0  0  0
    1.1854    0.1365    1.9846 O   0  0  0  0  0  0  0  0  0  0  0  0
   -0.8551    1.0750    2.2320 N   0  0  0  0  0  0  0  0  0  0  0  0
   -1.7594    1.2031    1.8040 H   0  0  0  0  0  0  0  0  0  0  0  0
   -0.6356    1.6998    3.5400 C   0  0  0  0  0  0  0  0  0  0  0  0
   -0.4284    2.7647    3.4168 H   0  0  0  0  0  0  0  0  0  0  0  0
   -1.5268    1.5885    4.1601 H   0  0  0  0  0  0  0  0  0  0  0  0
    0.2072    1.2358    4.0566 H   0  0  0  0  0  0  0  0  0  0  0  0
  5  6  2  0  0  0  0
  5  7  1  0  0  0  0
  2  3  1  0  0  0  0
  2  4  1  0  0  0  0
  2  5  1  0  0  0  0
  1  2  1  0  0  0  0
 23 24  2  0  0  0  0
 23 25  1  0  0  0  0
 21 22  1  0  0  0  0
 19 20  1  0  0  0  0
 19 21  1  0  0  0  0
 17 18  1  0  0  0  0
 17 19  1  0  0  0  0
 15 16  1  0  0  0  0
 15 17  2  0  0  0  0
 14 15  1  0  0  0  0
 14 21  2  0  0  0  0
 11 12  1  0  0  0  0
 11 13  1  0  0  0  0
 11 14  1  0  0  0  0
  9 10  1  0  0  0  0
  9 11  1  0  0  0  0
  9 23  1  0  0  0  0
  7  8  1  0  0  0  0
  7  9  1  0  0  0  0
 27 28  1  0  0  0  0
 27 29  1  0  0  0  0
 27 30  1  0  0  0  0
 25 26  1  0  0  0  0
 25 27  1  0  0  0  0
M  CHG  1  15   1
M  END
$$$$
default_name
  -OEChem-02102213163D

 30 30  0     1  0  0  0  0  0999 V2000
   -3.5507   -3.2183    1.8116 H   0  0  0  0  0  0  0  0  0  0  0  0
   -3.4597   -2.3913    1.1076 C   0  0  0  0  0  0  0  0  0  0  0  0
   -4.1577   -1.6043    1.3866 H   0  0  0  0  0  0  0  0  0  0  0  0
   -3.6807   -2.7523    0.1036 H   0  0  0  0  0  0  0  0  0  0  0  0
   -2.0477   -1.8543    1.1546 C   0  0  0  0  0  0  0  0  0  0  0  0
   -1.2227   -2.3443    1.9146 O   0  0  0  0  0  0  0  0  0  0  0  0
   -1.7517   -0.8483    0.3266 N   0  0  0  0  0  0  0  0  0  0  0  0
   -2.4847   -0.5123   -0.2804 H   0  0  0  0  0  0  0  0  0  0  0  0
   -0.4117   -0.2463    0.2186 C   0  0  1  0  0  0  0  0  0  0  0  0
    0.2987   -1.0391   -0.0285 H   0  0  0  0  0  0  0  0  0  0  0  0
   -0.4131    0.7505   -0.9636 C   0  0  0  0  0  0  0  0  0  0  0  0
   -1.1351    1.5427   -0.7503 H   0  0  0  0  0  0  0  0  0  0  0  0
    0.5696    1.2221   -1.0314 H   0  0  0  0  0  0  0  0  0  0  0  0
   -0.7394    0.1473   -2.3135 C   0  0  0  0  0  0  0  0  0  0  0  0
   -0.7985    0.8430   -3.5055 N   0  3  0  0  0  0  0  0  0  0  0  0
   -0.5601    1.8350   -3.5932 H   0  0  0  0  0  0  0  0  0  0  0  0
   -1.1171   -0.0227   -4.4882 C   0  0  0  0  0  0  0  0  0  0  0  0
   -1.2237    0.2314   -5.5409 H   0  0  0  0  0  0  0  0  0  0  0  0
   -1.2625   -1.2526   -3.9454 N   0  0  0  0  0  0  0  0  0  0  0  0
   -1.4994   -2.1033   -4.4492 H   0  0  0  0  0  0  0  0  0  0  0  0
   -1.0289   -1.1636   -2.5801 C   0  0  0  0  0  0  0  0  0  0  0  0
   -1.0655   -1.9718   -1.8549 H   0  0  0  0  0  0  0  0  0  0  0  0
    0.0470    0.3465    1.5629 C   0  0  0  0  0  0  0  0  0  0  0  0
    1.1854    0.1365    1.9846 O   0  0  0  0  0  0  0  0  0  0  0  0
   -0.8551    1.0750    2.2320 N   0  0  0  0  0  0  0  0  0  0  0  0
   -1.7594    1.2031    1.8040 H   0  0  0  0  0  0  0  0  0  0  0  0
   -0.6356    1.6998    3.5400 C   0  0  0  0  0  0  0  0  0  0  0  0
   -0.4284    2.7647    3.4168 H   0  0  0  0  0  0  0  0  0  0  0  0
   -1.5268    1.5885    4.1601 H   0  0  0  0  0  0  0  0  0  0  0  0
    0.2072    1.2358    4.0566 H   0  0  0  0  0  0  0  0  0  0  0  0
  5  6  2  0  0  0  0
  5  7  1  0  0  0  0
  2  3  1  0  0  0  0
  2  4  1  0  0  0  0
  2  5  1  0  0  0  0
  1  2  1  0  0  0  0
 23 24  2  0  0  0  0
 23 25  1  0  0  0  0
 21 22  1  0  0  0  0
 19 20  1  0  0  0  0
 19 21  1  0  0  0  0
 17 18  1  0  0  0  0
 17 19  1  0  0  0  0
 15 16  1  0  0  0  0
 15 17  2  0  0  0  0
 14 15  1  0  0  0  0
 14 21  2  0  0  0  0
 11 12  1  0  0  0  0
 11 13  1  0  0  0  0
 11 14  1  0  0  0  0
  9 10  1  0  0  0  0
  9 11  1  0  0  0  0
  9 23  1  0  0  0  0
  7  8  1  0  0  0  0
  7  9  1  0  0  0  0
 27 28  1  0  0  0  0
 27 29  1  0  0  0  0
 27 30  1  0  0  0  0
 25 26  1  0  0  0  0
 25 27  1  0  0  0  0
M  CHG  1  15   1
M  END
$$$$
default_name
  -OEChem-02102213163D

 30 30  0     1  0  0  0  0  0999 V2000
   -3.5507   -3.2183    1.8116 H   0  0  0  0  0  0  0  0  0  0  0  0
   -3.4597   -2.3913    1.1076 C   0  0  0  0  0  0  0  0  0  0  0  0
   -4.1577   -1.6043    1.3866 H   0  0  0  0  0  0  0  0  0  0  0  0
   -3.6807   -2.7523    0.1036 H   0  0  0  0  0  0  0  0  0  0  0  0
   -2.0477   -1.8543    1.1546 C   0  0  0  0  0  0  0  0  0  0  0  0
   -1.2227   -2.3443    1.9146 O   0  0  0  0  0  0  0  0  0  0  0  0
   -1.7517   -0.8483    0.3266 N   0  0  0  0  0  0  0  0  0  0  0  0
   -2.4847   -0.5123   -0.2804 H   0  0  0  0  0  0  0  0  0  0  0  0
   -0.4117   -0.2463    0.2186 C   0  0  1  0  0  0  0  0  0  0  0  0
    0.2987   -1.0391   -0.0285 H   0  0  0  0  0  0  0  0  0  0  0  0
   -0.4131    0.7505   -0.9636 C   0  0  0  0  0  0  0  0  0  0  0  0
   -1.1351    1.5427   -0.7503 H   0  0  0  0  0  0  0  0  0  0  0  0
    0.5696    1.2221   -1.0314 H   0  0  0  0  0  0  0  0  0  0  0  0
   -0.7394    0.1473   -2.3135 C   0  0  0  0  0  0  0  0  0  0  0  0
   -0.5189    0.7556   -3.5341 N   0  3  0  0  0  0  0  0  0  0  0  0
   -0.0480    1.6589   -3.6384 H   0  0  0  0  0  0  0  0  0  0  0  0
   -0.9345   -0.0795   -4.5070 C   0  0  0  0  0  0  0  0  0  0  0  0
   -0.8767    0.1202   -5.5751 H   0  0  0  0  0  0  0  0  0  0  0  0
   -1.4150   -1.2041   -3.9302 N   0  0  0  0  0  0  0  0  0  0  0  0
   -1.7944   -2.0106   -4.4192 H   0  0  0  0  0  0  0  0  0  0  0  0
   -1.3001   -1.0782   -2.5527 C   0  0  0  0  0  0  0  0  0  0  0  0
   -1.5944   -1.8057   -1.8013 H   0  0  0  0  0  0  0  0  0  0  0  0
    0.0470    0.3465    1.5629 C   0  0  0  0  0  0  0  0  0  0  0  0
    1.1854    0.1365    1.9846 O   0  0  0  0  0  0  0  0  0  0  0  0
   -0.8551    1.0750    2.2320 N   0  0  0  0  0  0  0  0  0  0  0  0
   -1.7594    1.2031    1.8040 H   0  0  0  0  0  0  0  0  0  0  0  0
   -0.6356    1.6998    3.5400 C   0  0  0  0  0  0  0  0  0  0  0  0
   -0.4284    2.7647    3.4168 H   0  0  0  0  0  0  0  0  0  0  0  0
   -1.5268    1.5885    4.1601 H   0  0  0  0  0  0  0  0  0  0  0  0
    0.2072    1.2358    4.0566 H   0  0  0  0  0  0  0  0  0  0  0  0
  5  6  2  0  0  0  0
  5  7  1  0  0  0  0
  2  3  1  0  0  0  0
  2  4  1  0  0  0  0
  2  5  1  0  0  0  0
  1  2  1  0  0  0  0
 23 24  2  0  0  0  0
 23 25  1  0  0  0  0
 21 22  1  0  0  0  0
 19 20  1  0  0  0  0
 19 21  1  0  0  0  0
 17 18  1  0  0  0  0
 17 19  1  0  0  0  0
 15 16  1  0  0  0  0
 15 17  2  0  0  0  0
 14 15  1  0  0  0  0
 14 21  2  0  0  0  0
 11 12  1  0  0  0  0
 11 13  1  0  0  0  0
 11 14  1  0  0  0  0
  9 10  1  0  0  0  0
  9 11  1  0  0  0  0
  9 23  1  0  0  0  0
  7  8  1  0  0  0  0
  7  9  1  0  0  0  0
 27 28  1  0  0  0  0
 27 29  1  0  0  0  0
 27 30  1  0  0  0  0
 25 26  1  0  0  0  0
 25 27  1  0  0  0  0
M  CHG  1  15   1
M  END
$$$$
default_name
  -OEChem-02102213163D

 30 30  0     1  0  0  0  0  0999 V2000
   -3.5507   -3.2183    1.8116 H   0  0  0  0  0  0  0  0  0  0  0  0
   -3.4597   -2.3913    1.1076 C   0  0  0  0  0  0  0  0  0  0  0  0
   -4.1577   -1.6043    1.3866 H   0  0  0  0  0  0  0  0  0  0  0  0
   -3.6807   -2.7523    0.1036 H   0  0  0  0  0  0  0  0  0  0  0  0
   -2.0477   -1.8543    1.1546 C   0  0  0  0  0  0  0  0  0  0  0  0
   -1.2227   -2.3443    1.9146 O   0  0  0  0  0  0  0  0  0  0  0  0
   -1.7517   -0.8483    0.3266 N   0  0  0  0  0  0  0  0  0  0  0  0
   -2.4847   -0.5123   -0.2804 H   0  0  0  0  0  0  0  0  0  0  0  0
   -0.4117   -0.2463    0.2186 C   0  0  1  0  0  0  0  0  0  0  0  0
    0.2987   -1.0391   -0.0285 H   0  0  0  0  0  0  0  0  0  0  0  0
   -0.4131    0.7505   -0.9636 C   0  0  0  0  0  0  0  0  0  0  0  0
   -1.1351    1.5427   -0.7503 H   0  0  0  0  0  0  0  0  0  0  0  0
    0.5696    1.2221   -1.0314 H   0  0  0  0  0  0  0  0  0  0  0  0
   -0.7394    0.1473   -2.3135 C   0  0  0  0  0  0  0  0  0  0  0  0
   -0.2661    0.6050   -3.5279 N   0  3  0  0  0  0  0  0  0  0  0  0
    0.4107    1.3681   -3.6193 H   0  0  0  0  0  0  0  0  0  0  0  0
   -0.7694   -0.1775   -4.5032 C   0  0  0  0  0  0  0  0  0  0  0  0
   -0.5636   -0.0692   -5.5661 H   0  0  0  0  0  0  0  0  0  0  0  0
   -1.5528   -1.1212   -3.9339 N   0  0  0  0  0  0  0  0  0  0  0  0
   -2.0610   -1.8514   -4.4259 H   0  0  0  0  0  0  0  0  0  0  0  0
   -1.5452   -0.9315   -2.5589 C   0  0  0  0  0  0  0  0  0  0  0  0
   -2.0724   -1.5201   -1.8133 H   0  0  0  0  0  0  0  0  0  0  0  0
    0.0470    0.3465    1.5629 C   0  0  0  0  0  0  0  0  0  0  0  0
    1.1854    0.1365    1.9846 O   0  0  0  0  0  0  0  0  0  0  0  0
   -0.8551    1.0750    2.2320 N   0  0  0  0  0  0  0  0  0  0  0  0
   -1.7594    1.2031    1.8040 H   0  0  0  0  0  0  0  0  0  0  0  0
   -0.6356    1.6998    3.5400 C   0  0  0  0  0  0  0  0  0  0  0  0
   -0.4284    2.7647    3.4168 H   0  0  0  0  0  0  0  0  0  0  0  0
   -1.5268    1.5885    4.1601 H   0  0  0  0  0  0  0  0  0  0  0  0
    0.2072    1.2358    4.0566 H   0  0  0  0  0  0  0  0  0  0  0  0
  5  6  2  0  0  0  0
  5  7  1  0  0  0  0
  2  3  1  0  0  0  0
  2  4  1  0  0  0  0
  2  5  1  0  0  0  0
  1  2  1  0  0  0  0
 23 24  2  0  0  0  0
 23 25  1  0  0  0  0
 21 22  1  0  0  0  0
 19 20  1  0  0  0  0
 19 21  1  0  0  0  0
 17 18  1  0  0  0  0
 17 19  1  0  0  0  0
 15 16  1  0  0  0  0
 15 17  2  0  0  0  0
 14 15  1  0  0  0  0
 14 21  2  0  0  0  0
 11 12  1  0  0  0  0
 11 13  1  0  0  0  0
 11 14  1  0  0  0  0
  9 10  1  0  0  0  0
  9 11  1  0  0  0  0
  9 23  1  0  0  0  0
  7  8  1  0  0  0  0
  7  9  1  0  0  0  0
 27 28  1  0  0  0  0
 27 29  1  0  0  0  0
 27 30  1  0  0  0  0
 25 26  1  0  0  0  0
 25 27  1  0  0  0  0
M  CHG  1  15   1
M  END
$$$$
default_name
  -OEChem-02102213163D

 30 30  0     1  0  0  0  0  0999 V2000
   -3.5507   -3.2183    1.8116 H   0  0  0  0  0  0  0  0  0  0  0  0
   -3.4597   -2.3913    1.1076 C   0  0  0  0  0  0  0  0  0  0  0  0
   -4.1577   -1.6043    1.3866 H   0  0  0  0  0  0  0  0  0  0  0  0
   -3.6807   -2.7523    0.1036 H   0  0  0  0  0  0  0  0  0  0  0  0
   -2.0477   -1.8543    1.1546 C   0  0  0  0  0  0  0  0  0  0  0  0
   -1.2227   -2.3443    1.9146 O   0  0  0  0  0  0  0  0  0  0  0  0
   -1.7517   -0.8483    0.3266 N   0  0  0  0  0  0  0  0  0  0  0  0
   -2.4847   -0.5123   -0.2804 H   0  0  0  0  0  0  0  0  0  0  0  0
   -0.4117   -0.2463    0.2186 C   0  0  1  0  0  0  0  0  0  0  0  0
    0.2987   -1.0391   -0.0285 H   0  0  0  0  0  0  0  0  0  0  0  0
   -0.4131    0.7505   -0.9636 C   0  0  0  0  0  0  0  0  0  0  0  0
   -1.1351    1.5427   -0.7503 H   0  0  0  0  0  0  0  0  0  0  0  0
    0.5696    1.2221   -1.0314 H   0  0  0  0  0  0  0  0  0  0  0  0
   -0.7394    0.1473   -2.3135 C   0  0  0  0  0  0  0  0  0  0  0  0
   -0.0573    0.4016   -3.4875 N   0  3  0  0  0  0  0  0  0  0  0  0
    0.7847    0.9824   -3.5374 H   0  0  0  0  0  0  0  0  0  0  0  0
   -0.6329   -0.3100   -4.4769 C   0  0  0  0  0  0  0  0  0  0  0  0
   -0.3059   -0.3238   -5.5147 H   0  0  0  0  0  0  0  0  0  0  0  0
   -1.6663   -1.0096   -3.9563 N   0  0  0  0  0  0  0  0  0  0  0  0
   -2.2812   -1.6364   -4.4688 H   0  0  0  0  0  0  0  0  0  0  0  0
   -1.7474   -0.7337   -2.5984 C   0  0  0  0  0  0  0  0  0  0  0  0
   -2.4670   -1.1347   -1.8901 H   0  0  0  0  0  0  0  0  0  0  0  0
    0.0470    0.3465    1.5629 C   0  0  0  0  0  0  0  0  0  0  0  0
    1.1854    0.1365    1.9846 O   0  0  0  0  0  0  0  0  0  0  0  0
   -0.8551    1.0750    2.2320 N   0  0  0  0  0  0  0  0  0  0  0  0
   -1.7594    1.2031    1.8040 H   0  0  0  0  0  0  0  0  0  0  0  0
   -0.6356    1.6998    3.5400 C   0  0  0  0  0  0  0  0  0  0  0  0
   -0.4284    2.7647    3.4168 H   0  0  0  0  0  0  0  0  0  0  0  0
   -1.5268    1.5885    4.1601 H   0  0  0  0  0  0  0  0  0  0  0  0
    0.2072    1.2358    4.0566 H   0  0  0  0  0  0  0  0  0  0  0  0
  5  6  2  0  0  0  0
  5  7  1  0  0  0  0
  2  3  1  0  0  0  0
  2  4  1  0  0  0  0
  2  5  1  0  0  0  0
  1  2  1  0  0  0  0
 23 24  2  0  0  0  0
 23 25  1  0  0  0  0
 21 22  1  0  0  0  0
 19 20  1  0  0  0  0
 19 21  1  0  0  0  0
 17 18  1  0  0  0  0
 17 19  1  0  0  0  0
 15 16  1  0  0  0  0
 15 17  2  0  0  0  0
 14 15  1  0  0  0  0
 14 21  2  0  0  0  0
 11 12  1  0  0  0  0
 11 13  1  0  0  0  0
 11 14  1  0  0  0  0
  9 10  1  0  0  0  0
  9 11  1  0  0  0  0
  9 23  1  0  0  0  0
  7  8  1  0  0  0  0
  7  9  1  0  0  0  0
 27 28  1  0  0  0  0
 27 29  1  0  0  0  0
 27 30  1  0  0  0  0
 25 26  1  0  0  0  0
 25 27  1  0  0  0  0
M  CHG  1  15   1
M  END
$$$$
default_name
  -OEChem-02102213163D

 30 30  0     1  0  0  0  0  0999 V2000
   -3.5507   -3.2183    1.8116 H   0  0  0  0  0  0  0  0  0  0  0  0
   -3.4597   -2.3913    1.1076 C   0  0  0  0  0  0  0  0  0  0  0  0
   -4.1577   -1.6043    1.3866 H   0  0  0  0  0  0  0  0  0  0  0  0
   -3.6807   -2.7523    0.1036 H   0  0  0  0  0  0  0  0  0  0  0  0
   -2.0477   -1.8543    1.1546 C   0  0  0  0  0  0  0  0  0  0  0  0
   -1.2227   -2.3443    1.9146 O   0  0  0  0  0  0  0  0  0  0  0  0
   -1.7517   -0.8483    0.3266 N   0  0  0  0  0  0  0  0  0  0  0  0
   -2.4847   -0.5123   -0.2804 H   0  0  0  0  0  0  0  0  0  0  0  0
   -0.4117   -0.2463    0.2186 C   0  0  1  0  0  0  0  0  0  0  0  0
    0.2987   -1.0391   -0.0285 H   0  0  0  0  0  0  0  0  0  0  0  0
   -0.4131    0.7505   -0.9636 C   0  0  0  0  0  0  0  0  0  0  0  0
   -1.1351    1.5427   -0.7503 H   0  0  0  0  0  0  0  0  0  0  0  0
    0.5696    1.2221   -1.0314 H   0  0  0  0  0  0  0  0  0  0  0  0
   -0.7394    0.1473   -2.3135 C   0  0  0  0  0  0  0  0  0  0  0  0
    0.0933    0.1592   -3.4156 N   0  3  0  0  0  0  0  0  0  0  0  0
    1.0485    0.5282   -3.3982 H   0  0  0  0  0  0  0  0  0  0  0  0
   -0.5343   -0.4680   -4.4302 C   0  0  0  0  0  0  0  0  0  0  0  0
   -0.1210   -0.6264   -5.4242 H   0  0  0  0  0  0  0  0  0  0  0  0
   -1.7479   -0.8768   -3.9959 N   0  0  0  0  0  0  0  0  0  0  0  0
   -2.4398   -1.3803   -4.5448 H   0  0  0  0  0  0  0  0  0  0  0  0
   -1.8930   -0.4982   -2.6685 C   0  0  0  0  0  0  0  0  0  0  0  0
   -2.7514   -0.6756   -2.0265 H   0  0  0  0  0  0  0  0  0  0  0  0
    0.0470    0.3465    1.5629 C   0  0  0  0  0  0  0  0  0  0  0  0
    1.1854    0.1365    1.9846 O   0  0  0  0  0  0  0  0  0  0  0  0
   -0.8551    1.0750    2.2320 N   0  0  0  0  0  0  0  0  0  0  0  0
   -1.7594    1.2031    1.8040 H   0  0  0  0  0  0  0  0  0  0  0  0
   -0.6356    1.6998    3.5400 C   0  0  0  0  0  0  0  0  0  0  0  0
   -0.4284    2.7647    3.4168 H   0  0  0  0  0  0  0  0  0  0  0  0
   -1.5268    1.5885    4.1601 H   0  0  0  0  0  0  0  0  0  0  0  0
    0.2072    1.2358    4.0566 H   0  0  0  0  0  0  0  0  0  0  0  0
  5  6  2  0  0  0  0
  5  7  1  0  0  0  0
  2  3  1  0  0  0  0
  2  4  1  0  0  0  0
  2  5  1  0  0  0  0
  1  2  1  0  0  0  0
 23 24  2  0  0  0  0
 23 25  1  0  0  0  0
 21 22  1  0  0  0  0
 19 20  1  0  0  0  0
 19 21  1  0  0  0  0
 17 18  1  0  0  0  0
 17 19  1  0  0  0  0
 15 16  1  0  0  0  0
 15 17  2  0  0  0  0
 14 15  1  0  0  0  0
 14 21  2  0  0  0  0
 11 12  1  0  0  0  0
 11 13  1  0  0  0  0
 11 14  1  0  0  0  0
  9 10  1  0  0  0  0
  9 11  1  0  0  0  0
  9 23  1  0  0  0  0
  7  8  1  0  0  0  0
  7  9  1  0  0  0  0
 27 28  1  0  0  0  0
 27 29  1  0  0  0  0
 27 30  1  0  0  0  0
 25 26  1  0  0  0  0
 25 27  1  0  0  0  0
M  CHG  1  15   1
M  END
$$$$
default_name
  -OEChem-02102213163D

 30 30  0     1  0  0  0  0  0999 V2000
   -3.5507   -3.2183    1.8116 H   0  0  0  0  0  0  0  0  0  0  0  0
   -3.4597   -2.3913    1.1076 C   0  0  0  0  0  0  0  0  0  0  0  0
   -4.1577   -1.6043    1.3866 H   0  0  0  0  0  0  0  0  0  0  0  0
   -3.6807   -2.7523    0.1036 H   0  0  0  0  0  0  0  0  0  0  0  0
   -2.0477   -1.8543    1.1546 C   0  0  0  0  0  0  0  0  0  0  0  0
   -1.2227   -2.3443    1.9146 O   0  0  0  0  0  0  0  0  0  0  0  0
   -1.7517   -0.8483    0.3266 N   0  0  0  0  0  0  0  0  0  0  0  0
   -2.4847   -0.5123   -0.2804 H   0  0  0  0  0  0  0  0  0  0  0  0
   -0.4117   -0.2463    0.2186 C   0  0  1  0  0  0  0  0  0  0  0  0
    0.2987   -1.0391   -0.0285 H   0  0  0  0  0  0  0  0  0  0  0  0
   -0.4131    0.7505   -0.9636 C   0  0  0  0  0  0  0  0  0  0  0  0
   -1.1351    1.5427   -0.7503 H   0  0  0  0  0  0  0  0  0  0  0  0
    0.5696    1.2221   -1.0314 H   0  0  0  0  0  0  0  0  0  0  0  0
   -0.7394    0.1473   -2.3135 C   0  0  0  0  0  0  0  0  0  0  0  0
    0.1755   -0.1057   -3.3171 N   0  3  0  0  0  0  0  0  0  0  0  0
    1.1841    0.0363   -3.2112 H   0  0  0  0  0  0  0  0  0  0  0  0
   -0.4804   -0.6408   -4.3660 C   0  0  0  0  0  0  0  0  0  0  0  0
   -0.0215   -0.9564   -5.3008 H   0  0  0  0  0  0  0  0  0  0  0  0
   -1.7920   -0.7319   -4.0500 N   0  0  0  0  0  0  0  0  0  0  0  0
   -2.5261   -1.1006   -4.6489 H   0  0  0  0  0  0  0  0  0  0  0  0
   -1.9721   -0.2410   -2.7643 C   0  0  0  0  0  0  0  0  0  0  0  0
   -2.9060   -0.1742   -2.2131 H   0  0  0  0  0  0  0  0  0  0  0  0
    0.0470    0.3465    1.5629 C   0  0  0  0  0  0  0  0  0  0  0  0
    1.1854    0.1365    1.9846 O   0  0  0  0  0  0  0  0  0  0  0  0
   -0.8551    1.0750    2.2320 N   0  0  0  0  0  0  0  0  0  0  0  0
   -1.7594    1.2031    1.8040 H   0  0  0  0  0  0  0  0  0  0  0  0
   -0.6356    1.6998    3.5400 C   0  0  0  0  0  0  0  0  0  0  0  0
   -0.4284    2.7647    3.4168 H   0  0  0  0  0  0  0  0  0  0  0  0
   -1.5268    1.5885    4.1601 H   0  0  0  0  0  0  0  0  0  0  0  0
    0.2072    1.2358    4.0566 H   0  0  0  0  0  0  0  0  0  0  0  0
  5  6  2  0  0  0  0
  5  7  1  0  0  0  0
  2  3  1  0  0  0  0
  2  4  1  0  0  0  0
  2  5  1  0  0  0  0
  1  2  1  0  0  0  0
 23 24  2  0  0  0  0
 23 25  1  0  0  0  0
 21 22  1  0  0  0  0
 19 20  1  0  0  0  0
 19 21  1  0  0  0  0
 17 18  1  0  0  0  0
 17 19  1  0  0  0  0
 15 16  1  0  0  0  0
 15 17  2  0  0  0  0
 14 15  1  0  0  0  0
 14 21  2  0  0  0  0
 11 12  1  0  0  0  0
 11 13  1  0  0  0  0
 11 14  1  0  0  0  0
  9 10  1  0  0  0  0
  9 11  1  0  0  0  0
  9 23  1  0  0  0  0
  7  8  1  0  0  0  0
  7  9  1  0  0  0  0
 27 28  1  0  0  0  0
 27 29  1  0  0  0  0
 27 30  1  0  0  0  0
 25 26  1  0  0  0  0
 25 27  1  0  0  0  0
M  CHG  1  15   1
M  END
$$$$
default_name
  -OEChem-02102213163D

 30 30  0     1  0  0  0  0  0999 V2000
   -3.5507   -3.2183    1.8116 H   0  0  0  0  0  0  0  0  0  0  0  0
   -3.4597   -2.3913    1.1076 C   0  0  0  0  0  0  0  0  0  0  0  0
   -4.1577   -1.6043    1.3866 H   0  0  0  0  0  0  0  0  0  0  0  0
   -3.6807   -2.7523    0.1036 H   0  0  0  0  0  0  0  0  0  0  0  0
   -2.0477   -1.8543    1.1546 C   0  0  0  0  0  0  0  0  0  0  0  0
   -1.2227   -2.3443    1.9146 O   0  0  0  0  0  0  0  0  0  0  0  0
   -1.7517   -0.8483    0.3266 N   0  0  0  0  0  0  0  0  0  0  0  0
   -2.4847   -0.5123   -0.2804 H   0  0  0  0  0  0  0  0  0  0  0  0
   -0.4117   -0.2463    0.2186 C   0  0  1  0  0  0  0  0  0  0  0  0
    0.2987   -1.0391   -0.0285 H   0  0  0  0  0  0  0  0  0  0  0  0
   -0.4131    0.7505   -0.9636 C   0  0  0  0  0  0  0  0  0  0  0  0
   -1.1351    1.5427   -0.7503 H   0  0  0  0  0  0  0  0  0  0  0  0
    0.5696    1.2221   -1.0314 H   0  0  0  0  0  0  0  0  0  0  0  0
   -0.7394    0.1473   -2.3135 C   0  0  0  0  0  0  0  0  0  0  0  0
    0.1835   -0.3750   -3.1988 N   0  3  0  0  0  0  0  0  0  0  0  0
    1.1823   -0.4597   -2.9892 H   0  0  0  0  0  0  0  0  0  0  0  0
   -0.4748   -0.8166   -4.2888 C   0  0  0  0  0  0  0  0  0  0  0  0
   -0.0143   -1.2911   -5.1530 H   0  0  0  0  0  0  0  0  0  0  0  0
   -1.7956   -0.5848   -4.1149 N   0  0  0  0  0  0  0  0  0  0  0  0
   -2.5341   -0.8164   -4.7740 H   0  0  0  0  0  0  0  0  0  0  0  0
   -1.9792    0.0204   -2.8793 C   0  0  0  0  0  0  0  0  0  0  0  0
   -2.9204    0.3355   -2.4373 H   0  0  0  0  0  0  0  0  0  0  0  0
    0.0470    0.3465    1.5629 C   0  0  0  0  0  0  0  0  0  0  0  0
    1.1854    0.1365    1.9846 O   0  0  0  0  0  0  0  0  0  0  0  0
   -0.8551    1.0750    2.2320 N   0  0  0  0  0  0  0  0  0  0  0  0
   -1.7594    1.2031    1.8040 H   0  0  0  0  0  0  0  0  0  0  0  0
   -0.6356    1.6998    3.5400 C   0  0  0  0  0  0  0  0  0  0  0  0
   -0.4284    2.7647    3.4168 H   0  0  0  0  0  0  0  0  0  0  0  0
   -1.5268    1.5885    4.1601 H   0  0  0  0  0  0  0  0  0  0  0  0
    0.2072    1.2358    4.0566 H   0  0  0  0  0  0  0  0  0  0  0  0
  5  6  2  0  0  0  0
  5  7  1  0  0  0  0
  2  3  1  0  0  0  0
  2  4  1  0  0  0  0
  2  5  1  0  0  0  0
  1  2  1  0  0  0  0
 23 24  2  0  0  0  0
 23 25  1  0  0  0  0
 21 22  1  0  0  0  0
 19 20  1  0  0  0  0
 19 21  1  0  0  0  0
 17 18  1  0  0  0  0
 17 19  1  0  0  0  0
 15 16  1  0  0  0  0
 15 17  2  0  0  0  0
 14 15  1  0  0  0  0
 14 21  2  0  0  0  0
 11 12  1  0  0  0  0
 11 13  1  0  0  0  0
 11 14  1  0  0  0  0
  9 10  1  0  0  0  0
  9 11  1  0  0  0  0
  9 23  1  0  0  0  0
  7  8  1  0  0  0  0
  7  9  1  0  0  0  0
 27 28  1  0  0  0  0
 27 29  1  0  0  0  0
 27 30  1  0  0  0  0
 25 26  1  0  0  0  0
 25 27  1  0  0  0  0
M  CHG  1  15   1
M  END
$$$$
default_name
  -OEChem-02102213163D

 30 30  0     1  0  0  0  0  0999 V2000
   -3.5507   -3.2183    1.8116 H   0  0  0  0  0  0  0  0  0  0  0  0
   -3.4597   -2.3913    1.1076 C   0  0  0  0  0  0  0  0  0  0  0  0
   -4.1577   -1.6043    1.3866 H   0  0  0  0  0  0  0  0  0  0  0  0
   -3.6807   -2.7523    0.1036 H   0  0  0  0  0  0  0  0  0  0  0  0
   -2.0477   -1.8543    1.1546 C   0  0  0  0  0  0  0  0  0  0  0  0
   -1.2227   -2.3443    1.9146 O   0  0  0  0  0  0  0  0  0  0  0  0
   -1.7517   -0.8483    0.3266 N   0  0  0  0  0  0  0  0  0  0  0  0
   -2.4847   -0.5123   -0.2804 H   0  0  0  0  0  0  0  0  0  0  0  0
   -0.4117   -0.2463    0.2186 C   0  0  1  0  0  0  0  0  0  0  0  0
    0.2987   -1.0391   -0.0285 H   0  0  0  0  0  0  0  0  0  0  0  0
   -0.4131    0.7505   -0.9636 C   0  0  0  0  0  0  0  0  0  0  0  0
   -1.1351    1.5427   -0.7503 H   0  0  0  0  0  0  0  0  0  0  0  0
    0.5696    1.2221   -1.0314 H   0  0  0  0  0  0  0  0  0  0  0  0
   -0.7394    0.1473   -2.3135 C   0  0  0  0  0  0  0  0  0  0  0  0
    0.1170   -0.6304   -3.0685 N   0  3  0  0  0  0  0  0  0  0  0  0
    1.0433   -0.9260   -2.7472 H   0  0  0  0  0  0  0  0  0  0  0  0
   -0.5179   -0.9833   -4.2039 C   0  0  0  0  0  0  0  0  0  0  0  0
   -0.0998   -1.6078   -4.9908 H   0  0  0  0  0  0  0  0  0  0  0  0
   -1.7584   -0.4455   -4.1861 N   0  0  0  0  0  0  0  0  0  0  0  0
   -2.4635   -0.5469   -4.9115 H   0  0  0  0  0  0  0  0  0  0  0  0
   -1.9140    0.2681   -3.0058 C   0  0  0  0  0  0  0  0  0  0  0  0
   -2.7936    0.8185   -2.6838 H   0  0  0  0  0  0  0  0  0  0  0  0
    0.0470    0.3465    1.5629 C   0  0  0  0  0  0  0  0  0  0  0  0
    1.1854    0.1365    1.9846 O   0  0  0  0  0  0  0  0  0  0  0  0
   -0.8551    1.0750    2.2320 N   0  0  0  0  0  0  0  0  0  0  0  0
   -1.7594    1.2031    1.8040 H   0  0  0  0  0  0  0  0  0  0  0  0
   -0.6356    1.6998    3.5400 C   0  0  0  0  0  0  0  0  0  0  0  0
   -0.4284    2.7647    3.4168 H   0  0  0  0  0  0  0  0  0  0  0  0
   -1.5268    1.5885    4.1601 H   0  0  0  0  0  0  0  0  0  0  0  0
    0.2072    1.2358    4.0566 H   0  0  0  0  0  0  0  0  0  0  0  0
  5  6  2  0  0  0  0
  5  7  1  0  0  0  0
  2  3  1  0  0  0  0
  2  4  1  0  0  0  0
  2  5  1  0  0  0  0
  1  2  1  0  0  0  0
 23 24  2  0  0  0  0
 23 25  1  0  0  0  0
 21 22  1  0  0  0  0
 19 20  1  0  0  0  0
 19 21  1  0  0  0  0
 17 18  1  0  0  0  0
 17 19  1  0  0  0  0
 15 16  1  0  0  0  0
 15 17  2  0  0  0  0
 14 15  1  0  0  0  0
 14 21  2  0  0  0  0
 11 12  1  0  0  0  0
 11 13  1  0  0  0  0
 11 14  1  0  0  0  0
  9 10  1  0  0  0  0
  9 11  1  0  0  0  0
  9 23  1  0  0  0  0
  7  8  1  0  0  0  0
  7  9  1  0  0  0  0
 27 28  1  0  0  0  0
 27 29  1  0  0  0  0
 27 30  1  0  0  0  0
 25 26  1  0  0  0  0
 25 27  1  0  0  0  0
M  CHG  1  15   1
M  END
$$$$
default_name
  -OEChem-02102213163D

 30 30  0     1  0  0  0  0  0999 V2000
   -3.5507   -3.2183    1.8116 H   0  0  0  0  0  0  0  0  0  0  0  0
   -3.4597   -2.3913    1.1076 C   0  0  0  0  0  0  0  0  0  0  0  0
   -4.1577   -1.6043    1.3866 H   0  0  0  0  0  0  0  0  0  0  0  0
   -3.6807   -2.7523    0.1036 H   0  0  0  0  0  0  0  0  0  0  0  0
   -2.0477   -1.8543    1.1546 C   0  0  0  0  0  0  0  0  0  0  0  0
   -1.2227   -2.3443    1.9146 O   0  0  0  0  0  0  0  0  0  0  0  0
   -1.7517   -0.8483    0.3266 N   0  0  0  0  0  0  0  0  0  0  0  0
   -2.4847   -0.5123   -0.2804 H   0  0  0  0  0  0  0  0  0  0  0  0
   -0.4117   -0.2463    0.2186 C   0  0  1  0  0  0  0  0  0  0  0  0
    0.2987   -1.0391   -0.0285 H   0  0  0  0  0  0  0  0  0  0  0  0
   -0.4131    0.7505   -0.9636 C   0  0  0  0  0  0  0  0  0  0  0  0
   -1.1351    1.5427   -0.7503 H   0  0  0  0  0  0  0  0  0  0  0  0
    0.5696    1.2221   -1.0314 H   0  0  0  0  0  0  0  0  0  0  0  0
   -0.7394    0.1473   -2.3135 C   0  0  0  0  0  0  0  0  0  0  0  0
   -0.0197   -0.8545   -2.9354 N   0  3  0  0  0  0  0  0  0  0  0  0
    0.7765   -1.3308   -2.5018 H   0  0  0  0  0  0  0  0  0  0  0  0
   -0.6068   -1.1297   -4.1170 C   0  0  0  0  0  0  0  0  0  0  0  0
   -0.2722   -1.8850   -4.8252 H   0  0  0  0  0  0  0  0  0  0  0  0
   -1.6830   -0.3235   -4.2589 N   0  0  0  0  0  0  0  0  0  0  0  0
   -2.3188   -0.3106   -5.0520 H   0  0  0  0  0  0  0  0  0  0  0  0
   -1.7808    0.4852   -3.1350 C   0  0  0  0  0  0  0  0  0  0  0  0
   -2.5343    1.2421   -2.9358 H   0  0  0  0  0  0  0  0  0  0  0  0
    0.0470    0.3465    1.5629 C   0  0  0  0  0  0  0  0  0  0  0  0
    1.1854    0.1365    1.9846 O   0  0  0  0  0  0  0  0  0  0  0  0
   -0.8551    1.0750    2.2320 N   0  0  0  0  0  0  0  0  0  0  0  0
   -1.7594    1.2031    1.8040 H   0  0  0  0  0  0  0  0  0  0  0  0
   -0.6356    1.6998    3.5400 C   0  0  0  0  0  0  0  0  0  0  0  0
   -0.4284    2.7647    3.4168 H   0  0  0  0  0  0  0  0  0  0  0  0
   -1.5268    1.5885    4.1601 H   0  0  0  0  0  0  0  0  0  0  0  0
    0.2072    1.2358    4.0566 H   0  0  0  0  0  0  0  0  0  0  0  0
  5  6  2  0  0  0  0
  5  7  1  0  0  0  0
  2  3  1  0  0  0  0
  2  4  1  0  0  0  0
  2  5  1  0  0  0  0
  1  2  1  0  0  0  0
 23 24  2  0  0  0  0
 23 25  1  0  0  0  0
 21 22  1  0  0  0  0
 19 20  1  0  0  0  0
 19 21  1  0  0  0  0
 17 18  1  0  0  0  0
 17 19  1  0  0  0  0
 15 16  1  0  0  0  0
 15 17  2  0  0  0  0
 14 15  1  0  0  0  0
 14 21  2  0  0  0  0
 11 12  1  0  0  0  0
 11 13  1  0  0  0  0
 11 14  1  0  0  0  0
  9 10  1  0  0  0  0
  9 11  1  0  0  0  0
  9 23  1  0  0  0  0
  7  8  1  0  0  0  0
  7  9  1  0  0  0  0
 27 28  1  0  0  0  0
 27 29  1  0  0  0  0
 27 30  1  0  0  0  0
 25 26  1  0  0  0  0
 25 27  1  0  0  0  0
M  CHG  1  15   1
M  END
$$$$
default_name
  -OEChem-02102213163D

 30 30  0     1  0  0  0  0  0999 V2000
   -3.5507   -3.2183    1.8116 H   0  0  0  0  0  0  0  0  0  0  0  0
   -3.4597   -2.3913    1.1076 C   0  0  0  0  0  0  0  0  0  0  0  0
   -4.1577   -1.6043    1.3866 H   0  0  0  0  0  0  0  0  0  0  0  0
   -3.6807   -2.7523    0.1036 H   0  0  0  0  0  0  0  0  0  0  0  0
   -2.0477   -1.8543    1.1546 C   0  0  0  0  0  0  0  0  0  0  0  0
   -1.2227   -2.3443    1.9146 O   0  0  0  0  0  0  0  0  0  0  0  0
   -1.7517   -0.8483    0.3266 N   0  0  0  0  0  0  0  0  0  0  0  0
   -2.4847   -0.5123   -0.2804 H   0  0  0  0  0  0  0  0  0  0  0  0
   -0.4117   -0.2463    0.2186 C   0  0  1  0  0  0  0  0  0  0  0  0
    0.2987   -1.0391   -0.0285 H   0  0  0  0  0  0  0  0  0  0  0  0
   -0.4131    0.7505   -0.9636 C   0  0  0  0  0  0  0  0  0  0  0  0
   -1.1351    1.5427   -0.7503 H   0  0  0  0  0  0  0  0  0  0  0  0
    0.5696    1.2221   -1.0314 H   0  0  0  0  0  0  0  0  0  0  0  0
   -0.7394    0.1473   -2.3135 C   0  0  0  0  0  0  0  0  0  0  0  0
   -0.2171   -1.0319   -2.8083 N   0  3  0  0  0  0  0  0  0  0  0  0
    0.4000   -1.6466   -2.2697 H   0  0  0  0  0  0  0  0  0  0  0  0
   -0.7354   -1.2458   -4.0340 C   0  0  0  0  0  0  0  0  0  0  0  0
   -0.5198   -2.1037   -4.6677 H   0  0  0  0  0  0  0  0  0  0  0  0
   -1.5745   -0.2271   -4.3282 N   0  0  0  0  0  0  0  0  0  0  0  0
   -2.1101   -0.1236   -5.1860 H   0  0  0  0  0  0  0  0  0  0  0  0
   -1.5886    0.6570   -3.2582 C   0  0  0  0  0  0  0  0  0  0  0  0
   -2.1601    1.5774   -3.1761 H   0  0  0  0  0  0  0  0  0  0  0  0
    0.0470    0.3465    1.5629 C   0  0  0  0  0  0  0  0  0  0  0  0
    1.1854    0.1365    1.9846 O   0  0  0  0  0  0  0  0  0  0  0  0
   -0.8551    1.0750    2.2320 N   0  0  0  0  0  0  0  0  0  0  0  0
   -1.7594    1.2031    1.8040 H   0  0  0  0  0  0  0  0  0  0  0  0
   -0.6356    1.6998    3.5400 C   0  0  0  0  0  0  0  0  0  0  0  0
   -0.4284    2.7647    3.4168 H   0  0  0  0  0  0  0  0  0  0  0  0
   -1.5268    1.5885    4.1601 H   0  0  0  0  0  0  0  0  0  0  0  0
    0.2072    1.2358    4.0566 H   0  0  0  0  0  0  0  0  0  0  0  0
  5  6  2  0  0  0  0
  5  7  1  0  0  0  0
  2  3  1  0  0  0  0
  2  4  1  0  0  0  0
  2  5  1  0  0  0  0
  1  2  1  0  0  0  0
 23 24  2  0  0  0  0
 23 25  1  0  0  0  0
 21 22  1  0  0  0  0
 19 20  1  0  0  0  0
 19 21  1  0  0  0  0
 17 18  1  0  0  0  0
 17 19  1  0  0  0  0
 15 16  1  0  0  0  0
 15 17  2  0  0  0  0
 14 15  1  0  0  0  0
 14 21  2  0  0  0  0
 11 12  1  0  0  0  0
 11 13  1  0  0  0  0
 11 14  1  0  0  0  0
  9 10  1  0  0  0  0
  9 11  1  0  0  0  0
  9 23  1  0  0  0  0
  7  8  1  0  0  0  0
  7  9  1  0  0  0  0
 27 28  1  0  0  0  0
 27 29  1  0  0  0  0
 27 30  1  0  0  0  0
 25 26  1  0  0  0  0
 25 27  1  0  0  0  0
M  CHG  1  15   1
M  END
$$$$
default_name
  -OEChem-02102213163D

 30 30  0     1  0  0  0  0  0999 V2000
   -3.5507   -3.2183    1.8116 H   0  0  0  0  0  0  0  0  0  0  0  0
   -3.4597   -2.3913    1.1076 C   0  0  0  0  0  0  0  0  0  0  0  0
   -4.1577   -1.6043    1.3866 H   0  0  0  0  0  0  0  0  0  0  0  0
   -3.6807   -2.7523    0.1036 H   0  0  0  0  0  0  0  0  0  0  0  0
   -2.0477   -1.8543    1.1546 C   0  0  0  0  0  0  0  0  0  0  0  0
   -1.2227   -2.3443    1.9146 O   0  0  0  0  0  0  0  0  0  0  0  0
   -1.7517   -0.8483    0.3266 N   0  0  0  0  0  0  0  0  0  0  0  0
   -2.4847   -0.5123   -0.2804 H   0  0  0  0  0  0  0  0  0  0  0  0
   -0.4117   -0.2463    0.2186 C   0  0  1  0  0  0  0  0  0  0  0  0
    0.2987   -1.0391   -0.0285 H   0  0  0  0  0  0  0  0  0  0  0  0
   -0.4131    0.7505   -0.9636 C   0  0  0  0  0  0  0  0  0  0  0  0
   -1.1351    1.5427   -0.7503 H   0  0  0  0  0  0  0  0  0  0  0  0
    0.5696    1.2221   -1.0314 H   0  0  0  0  0  0  0  0  0  0  0  0
   -0.7394    0.1473   -2.3135 C   0  0  0  0  0  0  0  0  0  0  0  0
   -0.4619   -1.1507   -2.6961 N   0  3  0  0  0  0  0  0  0  0  0  0
   -0.0604   -1.8518   -2.0667 H   0  0  0  0  0  0  0  0  0  0  0  0
   -0.8949   -1.3236   -3.9607 C   0  0  0  0  0  0  0  0  0  0  0  0
   -0.8256   -2.2490   -4.5288 H   0  0  0  0  0  0  0  0  0  0  0  0
   -1.4404   -0.1629   -4.3893 N   0  0  0  0  0  0  0  0  0  0  0  0
   -1.8515    0.0014   -5.3044 H   0  0  0  0  0  0  0  0  0  0  0  0
   -1.3507    0.7717   -3.3670 C   0  0  0  0  0  0  0  0  0  0  0  0
   -1.6964    1.8015   -3.3883 H   0  0  0  0  0  0  0  0  0  0  0  0
    0.0470    0.3465    1.5629 C   0  0  0  0  0  0  0  0  0  0  0  0
    1.1854    0.1365    1.9846 O   0  0  0  0  0  0  0  0  0  0  0  0
   -0.8551    1.0750    2.2320 N   0  0  0  0  0  0  0  0  0  0  0  0
   -1.7594    1.2031    1.8040 H   0  0  0  0  0  0  0  0  0  0  0  0
   -0.6356    1.6998    3.5400 C   0  0  0  0  0  0  0  0  0  0  0  0
   -0.4284    2.7647    3.4168 H   0  0  0  0  0  0  0  0  0  0  0  0
   -1.5268    1.5885    4.1601 H   0  0  0  0  0  0  0  0  0  0  0  0
    0.2072    1.2358    4.0566 H   0  0  0  0  0  0  0  0  0  0  0  0
  5  6  2  0  0  0  0
  5  7  1  0  0  0  0
  2  3  1  0  0  0  0
  2  4  1  0  0  0  0
  2  5  1  0  0  0  0
  1  2  1  0  0  0  0
 23 24  2  0  0  0  0
 23 25  1  0  0  0  0
 21 22  1  0  0  0  0
 19 20  1  0  0  0  0
 19 21  1  0  0  0  0
 17 18  1  0  0  0  0
 17 19  1  0  0  0  0
 15 16  1  0  0  0  0
 15 17  2  0  0  0  0
 14 15  1  0  0  0  0
 14 21  2  0  0  0  0
 11 12  1  0  0  0  0
 11 13  1  0  0  0  0
 11 14  1  0  0  0  0
  9 10  1  0  0  0  0
  9 11  1  0  0  0  0
  9 23  1  0  0  0  0
  7  8  1  0  0  0  0
  7  9  1  0  0  0  0
 27 28  1  0  0  0  0
 27 29  1  0  0  0  0
 27 30  1  0  0  0  0
 25 26  1  0  0  0  0
 25 27  1  0  0  0  0
M  CHG  1  15   1
M  END
$$$$
default_name
  -OEChem-02102213163D

 30 30  0     1  0  0  0  0  0999 V2000
   -3.5507   -3.2183    1.8116 H   0  0  0  0  0  0  0  0  0  0  0  0
   -3.4597   -2.3913    1.1076 C   0  0  0  0  0  0  0  0  0  0  0  0
   -4.1577   -1.6043    1.3866 H   0  0  0  0  0  0  0  0  0  0  0  0
   -3.6807   -2.7523    0.1036 H   0  0  0  0  0  0  0  0  0  0  0  0
   -2.0477   -1.8543    1.1546 C   0  0  0  0  0  0  0  0  0  0  0  0
   -1.2227   -2.3443    1.9146 O   0  0  0  0  0  0  0  0  0  0  0  0
   -1.7517   -0.8483    0.3266 N   0  0  0  0  0  0  0  0  0  0  0  0
   -2.4847   -0.5123   -0.2804 H   0  0  0  0  0  0  0  0  0  0  0  0
   -0.4117   -0.2463    0.2186 C   0  0  1  0  0  0  0  0  0  0  0  0
    0.2987   -1.0391   -0.0285 H   0  0  0  0  0  0  0  0  0  0  0  0
   -0.4131    0.7505   -0.9636 C   0  0  0  0  0  0  0  0  0  0  0  0
   -1.1351    1.5427   -0.7503 H   0  0  0  0  0  0  0  0  0  0  0  0
    0.5696    1.2221   -1.0314 H   0  0  0  0  0  0  0  0  0  0  0  0
   -0.7394    0.1473   -2.3135 C   0  0  0  0  0  0  0  0  0  0  0  0
   -0.7372   -1.2027   -2.6063 N   0  3  0  0  0  0  0  0  0  0  0  0
   -0.5735   -1.9324   -1.9066 H   0  0  0  0  0  0  0  0  0  0  0  0
   -1.0745   -1.3578   -3.9020 C   0  0  0  0  0  0  0  0  0  0  0  0
   -1.1689   -2.3111   -4.4181 H   0  0  0  0  0  0  0  0  0  0  0  0
   -1.2896   -0.1352   -4.4381 N   0  0  0  0  0  0  0  0  0  0  0  0
   -1.5607    0.0559   -5.3991 H   0  0  0  0  0  0  0  0  0  0  0  0
   -1.0833    0.8215   -3.4539 C   0  0  0  0  0  0  0  0  0  0  0  0
   -1.1750    1.8991   -3.5580 H   0  0  0  0  0  0  0  0  0  0  0  0
    0.0470    0.3465    1.5629 C   0  0  0  0  0  0  0  0  0  0  0  0
    1.1854    0.1365    1.9846 O   0  0  0  0  0  0  0  0  0  0  0  0
   -0.8551    1.0750    2.2320 N   0  0  0  0  0  0  0  0  0  0  0  0
   -1.7594    1.2031    1.8040 H   0  0  0  0  0  0  0  0  0  0  0  0
   -0.6356    1.6998    3.5400 C   0  0  0  0  0  0  0  0  0  0  0  0
   -0.4284    2.7647    3.4168 H   0  0  0  0  0  0  0  0  0  0  0  0
   -1.5268    1.5885    4.1601 H   0  0  0  0  0  0  0  0  0  0  0  0
    0.2072    1.2358    4.0566 H   0  0  0  0  0  0  0  0  0  0  0  0
  5  6  2  0  0  0  0
  5  7  1  0  0  0  0
  2  3  1  0  0  0  0
  2  4  1  0  0  0  0
  2  5  1  0  0  0  0
  1  2  1  0  0  0  0
 23 24  2  0  0  0  0
 23 25  1  0  0  0  0
 21 22  1  0  0  0  0
 19 20  1  0  0  0  0
 19 21  1  0  0  0  0
 17 18  1  0  0  0  0
 17 19  1  0  0  0  0
 15 16  1  0  0  0  0
 15 17  2  0  0  0  0
 14 15  1  0  0  0  0
 14 21  2  0  0  0  0
 11 12  1  0  0  0  0
 11 13  1  0  0  0  0
 11 14  1  0  0  0  0
  9 10  1  0  0  0  0
  9 11  1  0  0  0  0
  9 23  1  0  0  0  0
  7  8  1  0  0  0  0
  7  9  1  0  0  0  0
 27 28  1  0  0  0  0
 27 29  1  0  0  0  0
 27 30  1  0  0  0  0
 25 26  1  0  0  0  0
 25 27  1  0  0  0  0
M  CHG  1  15   1
M  END
$$$$
default_name
  -OEChem-02102213163D

 30 30  0     1  0  0  0  0  0999 V2000
   -3.5507   -3.2183    1.8116 H   0  0  0  0  0  0  0  0  0  0  0  0
   -3.4597   -2.3913    1.1076 C   0  0  0  0  0  0  0  0  0  0  0  0
   -4.1577   -1.6043    1.3866 H   0  0  0  0  0  0  0  0  0  0  0  0
   -3.6807   -2.7523    0.1036 H   0  0  0  0  0  0  0  0  0  0  0  0
   -2.0477   -1.8543    1.1546 C   0  0  0  0  0  0  0  0  0  0  0  0
   -1.2227   -2.3443    1.9146 O   0  0  0  0  0  0  0  0  0  0  0  0
   -1.7517   -0.8483    0.3266 N   0  0  0  0  0  0  0  0  0  0  0  0
   -2.4847   -0.5123   -0.2804 H   0  0  0  0  0  0  0  0  0  0  0  0
   -0.4117   -0.2463    0.2186 C   0  0  1  0  0  0  0  0  0  0  0  0
    0.2987   -1.0391   -0.0285 H   0  0  0  0  0  0  0  0  0  0  0  0
   -0.4131    0.7505   -0.9636 C   0  0  0  0  0  0  0  0  0  0  0  0
   -1.1351    1.5427   -0.7503 H   0  0  0  0  0  0  0  0  0  0  0  0
    0.5696    1.2221   -1.0314 H   0  0  0  0  0  0  0  0  0  0  0  0
   -0.7394    0.1473   -2.3135 C   0  0  0  0  0  0  0  0  0  0  0  0
   -1.0245   -1.1844   -2.5450 N   0  3  0  0  0  0  0  0  0  0  0  0
   -1.1041   -1.8830   -1.8004 H   0  0  0  0  0  0  0  0  0  0  0  0
   -1.2620   -1.3462   -3.8619 C   0  0  0  0  0  0  0  0  0  0  0  0
   -1.5262   -2.2857   -4.3430 H   0  0  0  0  0  0  0  0  0  0  0  0
   -1.1326   -0.1460   -4.4712 N   0  0  0  0  0  0  0  0  0  0  0  0
   -1.2575    0.0361   -5.4636 H   0  0  0  0  0  0  0  0  0  0  0  0
   -0.8044    0.8031   -3.5131 C   0  0  0  0  0  0  0  0  0  0  0  0
   -0.6313    1.8637   -3.6736 H   0  0  0  0  0  0  0  0  0  0  0  0
    0.0470    0.3465    1.5629 C   0  0  0  0  0  0  0  0  0  0  0  0
    1.1854    0.1365    1.9846 O   0  0  0  0  0  0  0  0  0  0  0  0
   -0.8551    1.0750    2.2320 N   0  0  0  0  0  0  0  0  0  0  0  0
   -1.7594    1.2031    1.8040 H   0  0  0  0  0  0  0  0  0  0  0  0
   -0.6356    1.6998    3.5400 C   0  0  0  0  0  0  0  0  0  0  0  0
   -0.4284    2.7647    3.4168 H   0  0  0  0  0  0  0  0  0  0  0  0
   -1.5268    1.5885    4.1601 H   0  0  0  0  0  0  0  0  0  0  0  0
    0.2072    1.2358    4.0566 H   0  0  0  0  0  0  0  0  0  0  0  0
  5  6  2  0  0  0  0
  5  7  1  0  0  0  0
  2  3  1  0  0  0  0
  2  4  1  0  0  0  0
  2  5  1  0  0  0  0
  1  2  1  0  0  0  0
 23 24  2  0  0  0  0
 23 25  1  0  0  0  0
 21 22  1  0  0  0  0
 19 20  1  0  0  0  0
 19 21  1  0  0  0  0
 17 18  1  0  0  0  0
 17 19  1  0  0  0  0
 15 16  1  0  0  0  0
 15 17  2  0  0  0  0
 14 15  1  0  0  0  0
 14 21  2  0  0  0  0
 11 12  1  0  0  0  0
 11 13  1  0  0  0  0
 11 14  1  0  0  0  0
  9 10  1  0  0  0  0
  9 11  1  0  0  0  0
  9 23  1  0  0  0  0
  7  8  1  0  0  0  0
  7  9  1  0  0  0  0
 27 28  1  0  0  0  0
 27 29  1  0  0  0  0
 27 30  1  0  0  0  0
 25 26  1  0  0  0  0
 25 27  1  0  0  0  0
M  CHG  1  15   1
M  END
$$$$
default_name
  -OEChem-02102213163D

 30 30  0     1  0  0  0  0  0999 V2000
   -3.5507   -3.2183    1.8116 H   0  0  0  0  0  0  0  0  0  0  0  0
   -3.4597   -2.3913    1.1076 C   0  0  0  0  0  0  0  0  0  0  0  0
   -4.1577   -1.6043    1.3866 H   0  0  0  0  0  0  0  0  0  0  0  0
   -3.6807   -2.7523    0.1036 H   0  0  0  0  0  0  0  0  0  0  0  0
   -2.0477   -1.8543    1.1546 C   0  0  0  0  0  0  0  0  0  0  0  0
   -1.2227   -2.3443    1.9146 O   0  0  0  0  0  0  0  0  0  0  0  0
   -1.7517   -0.8483    0.3266 N   0  0  0  0  0  0  0  0  0  0  0  0
   -2.4847   -0.5123   -0.2804 H   0  0  0  0  0  0  0  0  0  0  0  0
   -0.4117   -0.2463    0.2186 C   0  0  1  0  0  0  0  0  0  0  0  0
    0.2987   -1.0391   -0.0285 H   0  0  0  0  0  0  0  0  0  0  0  0
   -0.4131    0.7505   -0.9636 C   0  0  0  0  0  0  0  0  0  0  0  0
   -1.1351    1.5427   -0.7503 H   0  0  0  0  0  0  0  0  0  0  0  0
    0.5696    1.2221   -1.0314 H   0  0  0  0  0  0  0  0  0  0  0  0
   -0.7394    0.1473   -2.3135 C   0  0  0  0  0  0  0  0  0  0  0  0
   -1.3041   -1.0970   -2.5165 N   0  3  0  0  0  0  0  0  0  0  0  0
   -1.6162   -1.7068   -1.7553 H   0  0  0  0  0  0  0  0  0  0  0  0
   -1.4445   -1.2894   -3.8431 C   0  0  0  0  0  0  0  0  0  0  0  0
   -1.8732   -2.1745   -4.3088 H   0  0  0  0  0  0  0  0  0  0  0  0
   -0.9801   -0.1945   -4.4864 N   0  0  0  0  0  0  0  0  0  0  0  0
   -0.9625   -0.0565   -5.4935 H   0  0  0  0  0  0  0  0  0  0  0  0
   -0.5333    0.7177   -3.5405 C   0  0  0  0  0  0  0  0  0  0  0  0
   -0.1025    1.6975   -3.7273 H   0  0  0  0  0  0  0  0  0  0  0  0
    0.0470    0.3465    1.5629 C   0  0  0  0  0  0  0  0  0  0  0  0
    1.1854    0.1365    1.9846 O   0  0  0  0  0  0  0  0  0  0  0  0
   -0.8551    1.0750    2.2320 N   0  0  0  0  0  0  0  0  0  0  0  0
   -1.7594    1.2031    1.8040 H   0  0  0  0  0  0  0  0  0  0  0  0
   -0.6356    1.6998    3.5400 C   0  0  0  0  0  0  0  0  0  0  0  0
   -0.4284    2.7647    3.4168 H   0  0  0  0  0  0  0  0  0  0  0  0
   -1.5268    1.5885    4.1601 H   0  0  0  0  0  0  0  0  0  0  0  0
    0.2072    1.2358    4.0566 H   0  0  0  0  0  0  0  0  0  0  0  0
  5  6  2  0  0  0  0
  5  7  1  0  0  0  0
  2  3  1  0  0  0  0
  2  4  1  0  0  0  0
  2  5  1  0  0  0  0
  1  2  1  0  0  0  0
 23 24  2  0  0  0  0
 23 25  1  0  0  0  0
 21 22  1  0  0  0  0
 19 20  1  0  0  0  0
 19 21  1  0  0  0  0
 17 18  1  0  0  0  0
 17 19  1  0  0  0  0
 15 16  1  0  0  0  0
 15 17  2  0  0  0  0
 14 15  1  0  0  0  0
 14 21  2  0  0  0  0
 11 12  1  0  0  0  0
 11 13  1  0  0  0  0
 11 14  1  0  0  0  0
  9 10  1  0  0  0  0
  9 11  1  0  0  0  0
  9 23  1  0  0  0  0
  7  8  1  0  0  0  0
  7  9  1  0  0  0  0
 27 28  1  0  0  0  0
 27 29  1  0  0  0  0
 27 30  1  0  0  0  0
 25 26  1  0  0  0  0
 25 27  1  0  0  0  0
M  CHG  1  15   1
M  END
$$$$
default_name
  -OEChem-02102213163D

 30 30  0     1  0  0  0  0  0999 V2000
   -3.5507   -3.2183    1.8116 H   0  0  0  0  0  0  0  0  0  0  0  0
   -3.4597   -2.3913    1.1076 C   0  0  0  0  0  0  0  0  0  0  0  0
   -4.1577   -1.6043    1.3866 H   0  0  0  0  0  0  0  0  0  0  0  0
   -3.6807   -2.7523    0.1036 H   0  0  0  0  0  0  0  0  0  0  0  0
   -2.0477   -1.8543    1.1546 C   0  0  0  0  0  0  0  0  0  0  0  0
   -1.2227   -2.3443    1.9146 O   0  0  0  0  0  0  0  0  0  0  0  0
   -1.7517   -0.8483    0.3266 N   0  0  0  0  0  0  0  0  0  0  0  0
   -2.4847   -0.5123   -0.2804 H   0  0  0  0  0  0  0  0  0  0  0  0
   -0.4117   -0.2463    0.2186 C   0  0  1  0  0  0  0  0  0  0  0  0
    0.2987   -1.0391   -0.0285 H   0  0  0  0  0  0  0  0  0  0  0  0
   -0.4131    0.7505   -0.9636 C   0  0  0  0  0  0  0  0  0  0  0  0
   -1.1351    1.5427   -0.7503 H   0  0  0  0  0  0  0  0  0  0  0  0
    0.5696    1.2221   -1.0314 H   0  0  0  0  0  0  0  0  0  0  0  0
   -0.7394    0.1473   -2.3135 C   0  0  0  0  0  0  0  0  0  0  0  0
   -1.5569   -0.9465   -2.5226 N   0  3  0  0  0  0  0  0  0  0  0  0
   -2.0749   -1.4160   -1.7743 H   0  0  0  0  0  0  0  0  0  0  0  0
   -1.6096   -1.1914   -3.8469 C   0  0  0  0  0  0  0  0  0  0  0  0
   -2.1863   -1.9851   -4.3177 H   0  0  0  0  0  0  0  0  0  0  0  0
   -0.8423   -0.2774   -4.4827 N   0  0  0  0  0  0  0  0  0  0  0  0
   -0.6958   -0.2158   -5.4868 H   0  0  0  0  0  0  0  0  0  0  0  0
   -0.2882    0.5711   -3.5342 C   0  0  0  0  0  0  0  0  0  0  0  0
    0.3756    1.4120   -3.7153 H   0  0  0  0  0  0  0  0  0  0  0  0
    0.0470    0.3465    1.5629 C   0  0  0  0  0  0  0  0  0  0  0  0
    1.1854    0.1365    1.9846 O   0  0  0  0  0  0  0  0  0  0  0  0
   -0.8551    1.0750    2.2320 N   0  0  0  0  0  0  0  0  0  0  0  0
   -1.7594    1.2031    1.8040 H   0  0  0  0  0  0  0  0  0  0  0  0
   -0.6356    1.6998    3.5400 C   0  0  0  0  0  0  0  0  0  0  0  0
   -0.4284    2.7647    3.4168 H   0  0  0  0  0  0  0  0  0  0  0  0
   -1.5268    1.5885    4.1601 H   0  0  0  0  0  0  0  0  0  0  0  0
    0.2072    1.2358    4.0566 H   0  0  0  0  0  0  0  0  0  0  0  0
  5  6  2  0  0  0  0
  5  7  1  0  0  0  0
  2  3  1  0  0  0  0
  2  4  1  0  0  0  0
  2  5  1  0  0  0  0
  1  2  1  0  0  0  0
 23 24  2  0  0  0  0
 23 25  1  0  0  0  0
 21 22  1  0  0  0  0
 19 20  1  0  0  0  0
 19 21  1  0  0  0  0
 17 18  1  0  0  0  0
 17 19  1  0  0  0  0
 15 16  1  0  0  0  0
 15 17  2  0  0  0  0
 14 15  1  0  0  0  0
 14 21  2  0  0  0  0
 11 12  1  0  0  0  0
 11 13  1  0  0  0  0
 11 14  1  0  0  0  0
  9 10  1  0  0  0  0
  9 11  1  0  0  0  0
  9 23  1  0  0  0  0
  7  8  1  0  0  0  0
  7  9  1  0  0  0  0
 27 28  1  0  0  0  0
 27 29  1  0  0  0  0
 27 30  1  0  0  0  0
 25 26  1  0  0  0  0
 25 27  1  0  0  0  0
M  CHG  1  15   1
M  END
$$$$
default_name
  -OEChem-02102213163D

 30 30  0     1  0  0  0  0  0999 V2000
   -3.5507   -3.2183    1.8116 H   0  0  0  0  0  0  0  0  0  0  0  0
   -3.4597   -2.3913    1.1076 C   0  0  0  0  0  0  0  0  0  0  0  0
   -4.1577   -1.6043    1.3866 H   0  0  0  0  0  0  0  0  0  0  0  0
   -3.6807   -2.7523    0.1036 H   0  0  0  0  0  0  0  0  0  0  0  0
   -2.0477   -1.8543    1.1546 C   0  0  0  0  0  0  0  0  0  0  0  0
   -1.2227   -2.3443    1.9146 O   0  0  0  0  0  0  0  0  0  0  0  0
   -1.7517   -0.8483    0.3266 N   0  0  0  0  0  0  0  0  0  0  0  0
   -2.4847   -0.5123   -0.2804 H   0  0  0  0  0  0  0  0  0  0  0  0
   -0.4117   -0.2463    0.2186 C   0  0  1  0  0  0  0  0  0  0  0  0
    0.2987   -1.0391   -0.0285 H   0  0  0  0  0  0  0  0  0  0  0  0
   -0.4131    0.7505   -0.9636 C   0  0  0  0  0  0  0  0  0  0  0  0
   -1.1351    1.5427   -0.7503 H   0  0  0  0  0  0  0  0  0  0  0  0
    0.5696    1.2221   -1.0314 H   0  0  0  0  0  0  0  0  0  0  0  0
   -0.7394    0.1473   -2.3135 C   0  0  0  0  0  0  0  0  0  0  0  0
   -1.7657   -0.7431   -2.5630 N   0  3  0  0  0  0  0  0  0  0  0  0
   -2.4489   -1.0304   -1.8562 H   0  0  0  0  0  0  0  0  0  0  0  0
   -1.7461   -1.0589   -3.8731 C   0  0  0  0  0  0  0  0  0  0  0  0
   -2.4440   -1.7304   -4.3692 H   0  0  0  0  0  0  0  0  0  0  0  0
   -0.7288   -0.3891   -4.4603 N   0  0  0  0  0  0  0  0  0  0  0  0
   -0.4757   -0.4308   -5.4440 H   0  0  0  0  0  0  0  0  0  0  0  0
   -0.0860    0.3732   -3.4947 C   0  0  0  0  0  0  0  0  0  0  0  0
    0.7702    1.0265   -3.6385 H   0  0  0  0  0  0  0  0  0  0  0  0
    0.0470    0.3465    1.5629 C   0  0  0  0  0  0  0  0  0  0  0  0
    1.1854    0.1365    1.9846 O   0  0  0  0  0  0  0  0  0  0  0  0
   -0.8551    1.0750    2.2320 N   0  0  0  0  0  0  0  0  0  0  0  0
   -1.7594    1.2031    1.8040 H   0  0  0  0  0  0  0  0  0  0  0  0
   -0.6356    1.6998    3.5400 C   0  0  0  0  0  0  0  0  0  0  0  0
   -0.4284    2.7647    3.4168 H   0  0  0  0  0  0  0  0  0  0  0  0
   -1.5268    1.5885    4.1601 H   0  0  0  0  0  0  0  0  0  0  0  0
    0.2072    1.2358    4.0566 H   0  0  0  0  0  0  0  0  0  0  0  0
  5  6  2  0  0  0  0
  5  7  1  0  0  0  0
  2  3  1  0  0  0  0
  2  4  1  0  0  0  0
  2  5  1  0  0  0  0
  1  2  1  0  0  0  0
 23 24  2  0  0  0  0
 23 25  1  0  0  0  0
 21 22  1  0  0  0  0
 19 20  1  0  0  0  0
 19 21  1  0  0  0  0
 17 18  1  0  0  0  0
 17 19  1  0  0  0  0
 15 16  1  0  0  0  0
 15 17  2  0  0  0  0
 14 15  1  0  0  0  0
 14 21  2  0  0  0  0
 11 12  1  0  0  0  0
 11 13  1  0  0  0  0
 11 14  1  0  0  0  0
  9 10  1  0  0  0  0
  9 11  1  0  0  0  0
  9 23  1  0  0  0  0
  7  8  1  0  0  0  0
  7  9  1  0  0  0  0
 27 28  1  0  0  0  0
 27 29  1  0  0  0  0
 27 30  1  0  0  0  0
 25 26  1  0  0  0  0
 25 27  1  0  0  0  0
M  CHG  1  15   1
M  END
$$$$
default_name
  -OEChem-02102213163D

 30 30  0     1  0  0  0  0  0999 V2000
   -3.5507   -3.2183    1.8116 H   0  0  0  0  0  0  0  0  0  0  0  0
   -3.4597   -2.3913    1.1076 C   0  0  0  0  0  0  0  0  0  0  0  0
   -4.1577   -1.6043    1.3866 H   0  0  0  0  0  0  0  0  0  0  0  0
   -3.6807   -2.7523    0.1036 H   0  0  0  0  0  0  0  0  0  0  0  0
   -2.0477   -1.8543    1.1546 C   0  0  0  0  0  0  0  0  0  0  0  0
   -1.2227   -2.3443    1.9146 O   0  0  0  0  0  0  0  0  0  0  0  0
   -1.7517   -0.8483    0.3266 N   0  0  0  0  0  0  0  0  0  0  0  0
   -2.4847   -0.5123   -0.2804 H   0  0  0  0  0  0  0  0  0  0  0  0
   -0.4117   -0.2463    0.2186 C   0  0  1  0  0  0  0  0  0  0  0  0
    0.2987   -1.0391   -0.0285 H   0  0  0  0  0  0  0  0  0  0  0  0
   -0.4131    0.7505   -0.9636 C   0  0  0  0  0  0  0  0  0  0  0  0
   -1.1351    1.5427   -0.7503 H   0  0  0  0  0  0  0  0  0  0  0  0
    0.5696    1.2221   -1.0314 H   0  0  0  0  0  0  0  0  0  0  0  0
   -0.7394    0.1473   -2.3135 C   0  0  0  0  0  0  0  0  0  0  0  0
   -1.9164   -0.5006   -2.6349 N   0  3  0  0  0  0  0  0  0  0  0  0
   -2.7127   -0.5761   -1.9954 H   0  0  0  0  0  0  0  0  0  0  0  0
   -1.8447   -0.9009   -3.9199 C   0  0  0  0  0  0  0  0  0  0  0  0
   -2.6289   -1.4278   -4.4597 H   0  0  0  0  0  0  0  0  0  0  0  0
   -0.6472   -0.5219   -4.4207 N   0  0  0  0  0  0  0  0  0  0  0  0
   -0.3171   -0.6868   -5.3679 H   0  0  0  0  0  0  0  0  0  0  0  0
    0.0596    0.1377   -3.4247 C   0  0  0  0  0  0  0  0  0  0  0  0
    1.0545    0.5674   -3.5021 H   0  0  0  0  0  0  0  0  0  0  0  0
    0.0470    0.3465    1.5629 C   0  0  0  0  0  0  0  0  0  0  0  0
    1.1854    0.1365    1.9846 O   0  0  0  0  0  0  0  0  0  0  0  0
   -0.8551    1.0750    2.2320 N   0  0  0  0  0  0  0  0  0  0  0  0
   -1.7594    1.2031    1.8040 H   0  0  0  0  0  0  0  0  0  0  0  0
   -0.6356    1.6998    3.5400 C   0  0  0  0  0  0  0  0  0  0  0  0
   -0.4284    2.7647    3.4168 H   0  0  0  0  0  0  0  0  0  0  0  0
   -1.5268    1.5885    4.1601 H   0  0  0  0  0  0  0  0  0  0  0  0
    0.2072    1.2358    4.0566 H   0  0  0  0  0  0  0  0  0  0  0  0
  5  6  2  0  0  0  0
  5  7  1  0  0  0  0
  2  3  1  0  0  0  0
  2  4  1  0  0  0  0
  2  5  1  0  0  0  0
  1  2  1  0  0  0  0
 23 24  2  0  0  0  0
 23 25  1  0  0  0  0
 21 22  1  0  0  0  0
 19 20  1  0  0  0  0
 19 21  1  0  0  0  0
 17 18  1  0  0  0  0
 17 19  1  0  0  0  0
 15 16  1  0  0  0  0
 15 17  2  0  0  0  0
 14 15  1  0  0  0  0
 14 21  2  0  0  0  0
 11 12  1  0  0  0  0
 11 13  1  0  0  0  0
 11 14  1  0  0  0  0
  9 10  1  0  0  0  0
  9 11  1  0  0  0  0
  9 23  1  0  0  0  0
  7  8  1  0  0  0  0
  7  9  1  0  0  0  0
 27 28  1  0  0  0  0
 27 29  1  0  0  0  0
 27 30  1  0  0  0  0
 25 26  1  0  0  0  0
 25 27  1  0  0  0  0
M  CHG  1  15   1
M  END
$$$$
default_name
  -OEChem-02102213163D

 30 30  0     1  0  0  0  0  0999 V2000
   -3.5507   -3.2183    1.8116 H   0  0  0  0  0  0  0  0  0  0  0  0
   -3.4597   -2.3913    1.1076 C   0  0  0  0  0  0  0  0  0  0  0  0
   -4.1577   -1.6043    1.3866 H   0  0  0  0  0  0  0  0  0  0  0  0
   -3.6807   -2.7523    0.1036 H   0  0  0  0  0  0  0  0  0  0  0  0
   -2.0477   -1.8543    1.1546 C   0  0  0  0  0  0  0  0  0  0  0  0
   -1.2227   -2.3443    1.9146 O   0  0  0  0  0  0  0  0  0  0  0  0
   -1.7517   -0.8483    0.3266 N   0  0  0  0  0  0  0  0  0  0  0  0
   -2.4847   -0.5123   -0.2804 H   0  0  0  0  0  0  0  0  0  0  0  0
   -0.4117   -0.2463    0.2186 C   0  0  1  0  0  0  0  0  0  0  0  0
    0.2987   -1.0391   -0.0285 H   0  0  0  0  0  0  0  0  0  0  0  0
   -0.4131    0.7505   -0.9636 C   0  0  0  0  0  0  0  0  0  0  0  0
   -1.1351    1.5427   -0.7503 H   0  0  0  0  0  0  0  0  0  0  0  0
    0.5696    1.2221   -1.0314 H   0  0  0  0  0  0  0  0  0  0  0  0
   -0.7394    0.1473   -2.3135 C   0  0  0  0  0  0  0  0  0  0  0  0
   -1.9985   -0.2358   -2.7334 N   0  3  0  0  0  0  0  0  0  0  0  0
   -2.8483   -0.0842   -2.1824 H   0  0  0  0  0  0  0  0  0  0  0  0
   -1.8986   -0.7281   -3.9841 C   0  0  0  0  0  0  0  0  0  0  0  0
   -2.7284   -1.0979   -4.5831 H   0  0  0  0  0  0  0  0  0  0  0  0
   -0.6031   -0.6668   -4.3666 N   0  0  0  0  0  0  0  0  0  0  0  0
   -0.2308   -0.9665   -5.2638 H   0  0  0  0  0  0  0  0  0  0  0  0
    0.1387   -0.1195   -3.3289 C   0  0  0  0  0  0  0  0  0  0  0  0
    1.2092    0.0660   -3.3154 H   0  0  0  0  0  0  0  0  0  0  0  0
    0.0470    0.3465    1.5629 C   0  0  0  0  0  0  0  0  0  0  0  0
    1.1854    0.1365    1.9846 O   0  0  0  0  0  0  0  0  0  0  0  0
   -0.8551    1.0750    2.2320 N   0  0  0  0  0  0  0  0  0  0  0  0
   -1.7594    1.2031    1.8040 H   0  0  0  0  0  0  0  0  0  0  0  0
   -0.6356    1.6998    3.5400 C   0  0  0  0  0  0  0  0  0  0  0  0
   -0.4284    2.7647    3.4168 H   0  0  0  0  0  0  0  0  0  0  0  0
   -1.5268    1.5885    4.1601 H   0  0  0  0  0  0  0  0  0  0  0  0
    0.2072    1.2358    4.0566 H   0  0  0  0  0  0  0  0  0  0  0  0
  5  6  2  0  0  0  0
  5  7  1  0  0  0  0
  2  3  1  0  0  0  0
  2  4  1  0  0  0  0
  2  5  1  0  0  0  0
  1  2  1  0  0  0  0
 23 24  2  0  0  0  0
 23 25  1  0  0  0  0
 21 22  1  0  0  0  0
 19 20  1  0  0  0  0
 19 21  1  0  0  0  0
 17 18  1  0  0  0  0
 17 19  1  0  0  0  0
 15 16  1  0  0  0  0
 15 17  2  0  0  0  0
 14 15  1  0  0  0  0
 14 21  2  0  0  0  0
 11 12  1  0  0  0  0
 11 13  1  0  0  0  0
 11 14  1  0  0  0  0
  9 10  1  0  0  0  0
  9 11  1  0  0  0  0
  9 23  1  0  0  0  0
  7  8  1  0  0  0  0
  7  9  1  0  0  0  0
 27 28  1  0  0  0  0
 27 29  1  0  0  0  0
 27 30  1  0  0  0  0
 25 26  1  0  0  0  0
 25 27  1  0  0  0  0
M  CHG  1  15   1
M  END
$$$$
default_name
  -OEChem-02102213163D

 30 30  0     1  0  0  0  0  0999 V2000
   -3.5507   -3.2183    1.8116 H   0  0  0  0  0  0  0  0  0  0  0  0
   -3.4597   -2.3913    1.1076 C   0  0  0  0  0  0  0  0  0  0  0  0
   -4.1577   -1.6043    1.3866 H   0  0  0  0  0  0  0  0  0  0  0  0
   -3.6807   -2.7523    0.1036 H   0  0  0  0  0  0  0  0  0  0  0  0
   -2.0477   -1.8543    1.1546 C   0  0  0  0  0  0  0  0  0  0  0  0
   -1.2227   -2.3443    1.9146 O   0  0  0  0  0  0  0  0  0  0  0  0
   -1.7517   -0.8483    0.3266 N   0  0  0  0  0  0  0  0  0  0  0  0
   -2.4847   -0.5123   -0.2804 H   0  0  0  0  0  0  0  0  0  0  0  0
   -0.4117   -0.2463    0.2186 C   0  0  1  0  0  0  0  0  0  0  0  0
    0.2987   -1.0391   -0.0285 H   0  0  0  0  0  0  0  0  0  0  0  0
   -0.4131    0.7505   -0.9636 C   0  0  0  0  0  0  0  0  0  0  0  0
   -1.1351    1.5427   -0.7503 H   0  0  0  0  0  0  0  0  0  0  0  0
    0.5696    1.2221   -1.0314 H   0  0  0  0  0  0  0  0  0  0  0  0
   -0.7394    0.1473   -2.3135 C   0  0  0  0  0  0  0  0  0  0  0  0
   -2.0066    0.0336   -2.8518 N   0  3  0  0  0  0  0  0  0  0  0  0
   -2.8466    0.4118   -2.4045 H   0  0  0  0  0  0  0  0  0  0  0  0
   -1.9042   -0.5523   -4.0613 C   0  0  0  0  0  0  0  0  0  0  0  0
   -2.7356   -0.7631   -4.7309 H   0  0  0  0  0  0  0  0  0  0  0  0
   -0.5995   -0.8139   -4.3017 N   0  0  0  0  0  0  0  0  0  0  0  0
   -0.2227   -1.2507   -5.1388 H   0  0  0  0  0  0  0  0  0  0  0  0
    0.1459   -0.3809   -3.2138 C   0  0  0  0  0  0  0  0  0  0  0  0
    1.2236   -0.4436   -3.0912 H   0  0  0  0  0  0  0  0  0  0  0  0
    0.0470    0.3465    1.5629 C   0  0  0  0  0  0  0  0  0  0  0  0
    1.1854    0.1365    1.9846 O   0  0  0  0  0  0  0  0  0  0  0  0
   -0.8551    1.0750    2.2320 N   0  0  0  0  0  0  0  0  0  0  0  0
   -1.7594    1.2031    1.8040 H   0  0  0  0  0  0  0  0  0  0  0  0
   -0.6356    1.6998    3.5400 C   0  0  0  0  0  0  0  0  0  0  0  0
   -0.4284    2.7647    3.4168 H   0  0  0  0  0  0  0  0  0  0  0  0
   -1.5268    1.5885    4.1601 H   0  0  0  0  0  0  0  0  0  0  0  0
    0.2072    1.2358    4.0566 H   0  0  0  0  0  0  0  0  0  0  0  0
  5  6  2  0  0  0  0
  5  7  1  0  0  0  0
  2  3  1  0  0  0  0
  2  4  1  0  0  0  0
  2  5  1  0  0  0  0
  1  2  1  0  0  0  0
 23 24  2  0  0  0  0
 23 25  1  0  0  0  0
 21 22  1  0  0  0  0
 19 20  1  0  0  0  0
 19 21  1  0  0  0  0
 17 18  1  0  0  0  0
 17 19  1  0  0  0  0
 15 16  1  0  0  0  0
 15 17  2  0  0  0  0
 14 15  1  0  0  0  0
 14 21  2  0  0  0  0
 11 12  1  0  0  0  0
 11 13  1  0  0  0  0
 11 14  1  0  0  0  0
  9 10  1  0  0  0  0
  9 11  1  0  0  0  0
  9 23  1  0  0  0  0
  7  8  1  0  0  0  0
  7  9  1  0  0  0  0
 27 28  1  0  0  0  0
 27 29  1  0  0  0  0
 27 30  1  0  0  0  0
 25 26  1  0  0  0  0
 25 27  1  0  0  0  0
M  CHG  1  15   1
M  END
$$$$
default_name
  -OEChem-02102213163D

 30 30  0     1  0  0  0  0  0999 V2000
   -3.5507   -3.2183    1.8116 H   0  0  0  0  0  0  0  0  0  0  0  0
   -3.4597   -2.3913    1.1076 C   0  0  0  0  0  0  0  0  0  0  0  0
   -4.1577   -1.6043    1.3866 H   0  0  0  0  0  0  0  0  0  0  0  0
   -3.6807   -2.7523    0.1036 H   0  0  0  0  0  0  0  0  0  0  0  0
   -2.0477   -1.8543    1.1546 C   0  0  0  0  0  0  0  0  0  0  0  0
   -1.2227   -2.3443    1.9146 O   0  0  0  0  0  0  0  0  0  0  0  0
   -1.7517   -0.8483    0.3266 N   0  0  0  0  0  0  0  0  0  0  0  0
   -2.4847   -0.5123   -0.2804 H   0  0  0  0  0  0  0  0  0  0  0  0
   -0.4117   -0.2463    0.2186 C   0  0  1  0  0  0  0  0  0  0  0  0
    0.2987   -1.0391   -0.0285 H   0  0  0  0  0  0  0  0  0  0  0  0
   -0.4131    0.7505   -0.9636 C   0  0  0  0  0  0  0  0  0  0  0  0
   -1.1351    1.5427   -0.7503 H   0  0  0  0  0  0  0  0  0  0  0  0
    0.5696    1.2221   -1.0314 H   0  0  0  0  0  0  0  0  0  0  0  0
   -0.7394    0.1473   -2.3135 C   0  0  0  0  0  0  0  0  0  0  0  0
   -1.9400    0.2890   -2.9820 N   0  3  0  0  0  0  0  0  0  0  0  0
   -2.7075    0.8781   -2.6464 H   0  0  0  0  0  0  0  0  0  0  0  0
   -1.8611   -0.3856   -4.1462 C   0  0  0  0  0  0  0  0  0  0  0  0
   -2.6501   -0.4464   -4.8931 H   0  0  0  0  0  0  0  0  0  0  0  0
   -0.6367   -0.9532   -4.2305 N   0  0  0  0  0  0  0  0  0  0  0  0
   -0.2934   -1.5202   -5.0013 H   0  0  0  0  0  0  0  0  0  0  0  0
    0.0806   -0.6285   -3.0874 C   0  0  0  0  0  0  0  0  0  0  0  0
    1.0968   -0.9267   -2.8447 H   0  0  0  0  0  0  0  0  0  0  0  0
    0.0470    0.3465    1.5629 C   0  0  0  0  0  0  0  0  0  0  0  0
    1.1854    0.1365    1.9846 O   0  0  0  0  0  0  0  0  0  0  0  0
   -0.8551    1.0750    2.2320 N   0  0  0  0  0  0  0  0  0  0  0  0
   -1.7594    1.2031    1.8040 H   0  0  0  0  0  0  0  0  0  0  0  0
   -0.6356    1.6998    3.5400 C   0  0  0  0  0  0  0  0  0  0  0  0
   -0.4284    2.7647    3.4168 H   0  0  0  0  0  0  0  0  0  0  0  0
   -1.5268    1.5885    4.1601 H   0  0  0  0  0  0  0  0  0  0  0  0
    0.2072    1.2358    4.0566 H   0  0  0  0  0  0  0  0  0  0  0  0
  5  6  2  0  0  0  0
  5  7  1  0  0  0  0
  2  3  1  0  0  0  0
  2  4  1  0  0  0  0
  2  5  1  0  0  0  0
  1  2  1  0  0  0  0
 23 24  2  0  0  0  0
 23 25  1  0  0  0  0
 21 22  1  0  0  0  0
 19 20  1  0  0  0  0
 19 21  1  0  0  0  0
 17 18  1  0  0  0  0
 17 19  1  0  0  0  0
 15 16  1  0  0  0  0
 15 17  2  0  0  0  0
 14 15  1  0  0  0  0
 14 21  2  0  0  0  0
 11 12  1  0  0  0  0
 11 13  1  0  0  0  0
 11 14  1  0  0  0  0
  9 10  1  0  0  0  0
  9 11  1  0  0  0  0
  9 23  1  0  0  0  0
  7  8  1  0  0  0  0
  7  9  1  0  0  0  0
 27 28  1  0  0  0  0
 27 29  1  0  0  0  0
 27 30  1  0  0  0  0
 25 26  1  0  0  0  0
 25 27  1  0  0  0  0
M  CHG  1  15   1
M  END
$$$$
default_name
  -OEChem-02102213163D

 30 30  0     1  0  0  0  0  0999 V2000
   -3.5507   -3.2183    1.8116 H   0  0  0  0  0  0  0  0  0  0  0  0
   -3.4597   -2.3913    1.1076 C   0  0  0  0  0  0  0  0  0  0  0  0
   -4.1577   -1.6043    1.3866 H   0  0  0  0  0  0  0  0  0  0  0  0
   -3.6807   -2.7523    0.1036 H   0  0  0  0  0  0  0  0  0  0  0  0
   -2.0477   -1.8543    1.1546 C   0  0  0  0  0  0  0  0  0  0  0  0
   -1.2227   -2.3443    1.9146 O   0  0  0  0  0  0  0  0  0  0  0  0
   -1.7517   -0.8483    0.3266 N   0  0  0  0  0  0  0  0  0  0  0  0
   -2.4847   -0.5123   -0.2804 H   0  0  0  0  0  0  0  0  0  0  0  0
   -0.4117   -0.2463    0.2186 C   0  0  1  0  0  0  0  0  0  0  0  0
    0.2987   -1.0391   -0.0285 H   0  0  0  0  0  0  0  0  0  0  0  0
   -0.4131    0.7505   -0.9636 C   0  0  0  0  0  0  0  0  0  0  0  0
   -1.1351    1.5427   -0.7503 H   0  0  0  0  0  0  0  0  0  0  0  0
    0.5696    1.2221   -1.0314 H   0  0  0  0  0  0  0  0  0  0  0  0
   -0.7394    0.1473   -2.3135 C   0  0  0  0  0  0  0  0  0  0  0  0
   -1.8034    0.5130   -3.1151 N   0  3  0  0  0  0  0  0  0  0  0  0
   -2.4407    1.2829   -2.8918 H   0  0  0  0  0  0  0  0  0  0  0  0
   -1.7722   -0.2392   -4.2331 C   0  0  0  0  0  0  0  0  0  0  0  0
   -2.4777   -0.1692   -5.0586 H   0  0  0  0  0  0  0  0  0  0  0  0
   -0.7121   -1.0752   -4.1577 N   0  0  0  0  0  0  0  0  0  0  0  0
   -0.4380   -1.7565   -4.8607 H   0  0  0  0  0  0  0  0  0  0  0  0
   -0.0526   -0.8457   -2.9582 C   0  0  0  0  0  0  0  0  0  0  0  0
    0.8375   -1.3503   -2.5927 H   0  0  0  0  0  0  0  0  0  0  0  0
    0.0470    0.3465    1.5629 C   0  0  0  0  0  0  0  0  0  0  0  0
    1.1854    0.1365    1.9846 O   0  0  0  0  0  0  0  0  0  0  0  0
   -0.8551    1.0750    2.2320 N   0  0  0  0  0  0  0  0  0  0  0  0
   -1.7594    1.2031    1.8040 H   0  0  0  0  0  0  0  0  0  0  0  0
   -0.6356    1.6998    3.5400 C   0  0  0  0  0  0  0  0  0  0  0  0
   -0.4284    2.7647    3.4168 H   0  0  0  0  0  0  0  0  0  0  0  0
   -1.5268    1.5885    4.1601 H   0  0  0  0  0  0  0  0  0  0  0  0
    0.2072    1.2358    4.0566 H   0  0  0  0  0  0  0  0  0  0  0  0
  5  6  2  0  0  0  0
  5  7  1  0  0  0  0
  2  3  1  0  0  0  0
  2  4  1  0  0  0  0
  2  5  1  0  0  0  0
  1  2  1  0  0  0  0
 23 24  2  0  0  0  0
 23 25  1  0  0  0  0
 21 22  1  0  0  0  0
 19 20  1  0  0  0  0
 19 21  1  0  0  0  0
 17 18  1  0  0  0  0
 17 19  1  0  0  0  0
 15 16  1  0  0  0  0
 15 17  2  0  0  0  0
 14 15  1  0  0  0  0
 14 21  2  0  0  0  0
 11 12  1  0  0  0  0
 11 13  1  0  0  0  0
 11 14  1  0  0  0  0
  9 10  1  0  0  0  0
  9 11  1  0  0  0  0
  9 23  1  0  0  0  0
  7  8  1  0  0  0  0
  7  9  1  0  0  0  0
 27 28  1  0  0  0  0
 27 29  1  0  0  0  0
 27 30  1  0  0  0  0
 25 26  1  0  0  0  0
 25 27  1  0  0  0  0
M  CHG  1  15   1
M  END
$$$$
default_name
  -OEChem-02102213163D

 30 30  0     1  0  0  0  0  0999 V2000
   -3.5507   -3.2183    1.8116 H   0  0  0  0  0  0  0  0  0  0  0  0
   -3.4597   -2.3913    1.1076 C   0  0  0  0  0  0  0  0  0  0  0  0
   -4.1577   -1.6043    1.3866 H   0  0  0  0  0  0  0  0  0  0  0  0
   -3.6807   -2.7523    0.1036 H   0  0  0  0  0  0  0  0  0  0  0  0
   -2.0477   -1.8543    1.1546 C   0  0  0  0  0  0  0  0  0  0  0  0
   -1.2227   -2.3443    1.9146 O   0  0  0  0  0  0  0  0  0  0  0  0
   -1.7517   -0.8483    0.3266 N   0  0  0  0  0  0  0  0  0  0  0  0
   -2.4847   -0.5123   -0.2804 H   0  0  0  0  0  0  0  0  0  0  0  0
   -0.4117   -0.2463    0.2186 C   0  0  1  0  0  0  0  0  0  0  0  0
    0.2987   -1.0391   -0.0285 H   0  0  0  0  0  0  0  0  0  0  0  0
   -0.4131    0.7505   -0.9636 C   0  0  0  0  0  0  0  0  0  0  0  0
   -1.1351    1.5427   -0.7503 H   0  0  0  0  0  0  0  0  0  0  0  0
    0.5696    1.2221   -1.0314 H   0  0  0  0  0  0  0  0  0  0  0  0
   -0.7394    0.1473   -2.3135 C   0  0  0  0  0  0  0  0  0  0  0  0
   -1.6059    0.6905   -3.2422 N   0  3  0  0  0  0  0  0  0  0  0  0
   -2.0642    1.5987   -3.1239 H   0  0  0  0  0  0  0  0  0  0  0  0
   -1.6436   -0.1231   -4.3160 C   0  0  0  0  0  0  0  0  0  0  0  0
   -2.2301    0.0495   -5.2162 H   0  0  0  0  0  0  0  0  0  0  0  0
   -0.8206   -1.1716   -4.0884 N   0  0  0  0  0  0  0  0  0  0  0  0
   -0.6467   -1.9435   -4.7267 H   0  0  0  0  0  0  0  0  0  0  0  0
   -0.2447   -1.0174   -2.8350 C   0  0  0  0  0  0  0  0  0  0  0  0
    0.4632   -1.6856   -2.3524 H   0  0  0  0  0  0  0  0  0  0  0  0
    0.0470    0.3465    1.5629 C   0  0  0  0  0  0  0  0  0  0  0  0
    1.1854    0.1365    1.9846 O   0  0  0  0  0  0  0  0  0  0  0  0
   -0.8551    1.0750    2.2320 N   0  0  0  0  0  0  0  0  0  0  0  0
   -1.7594    1.2031    1.8040 H   0  0  0  0  0  0  0  0  0  0  0  0
   -0.6356    1.6998    3.5400 C   0  0  0  0  0  0  0  0  0  0  0  0
   -0.4284    2.7647    3.4168 H   0  0  0  0  0  0  0  0  0  0  0  0
   -1.5268    1.5885    4.1601 H   0  0  0  0  0  0  0  0  0  0  0  0
    0.2072    1.2358    4.0566 H   0  0  0  0  0  0  0  0  0  0  0  0
  5  6  2  0  0  0  0
  5  7  1  0  0  0  0
  2  3  1  0  0  0  0
  2  4  1  0  0  0  0
  2  5  1  0  0  0  0
  1  2  1  0  0  0  0
 23 24  2  0  0  0  0
 23 25  1  0  0  0  0
 21 22  1  0  0  0  0
 19 20  1  0  0  0  0
 19 21  1  0  0  0  0
 17 18  1  0  0  0  0
 17 19  1  0  0  0  0
 15 16  1  0  0  0  0
 15 17  2  0  0  0  0
 14 15  1  0  0  0  0
 14 21  2  0  0  0  0
 11 12  1  0  0  0  0
 11 13  1  0  0  0  0
 11 14  1  0  0  0  0
  9 10  1  0  0  0  0
  9 11  1  0  0  0  0
  9 23  1  0  0  0  0
  7  8  1  0  0  0  0
  7  9  1  0  0  0  0
 27 28  1  0  0  0  0
 27 29  1  0  0  0  0
 27 30  1  0  0  0  0
 25 26  1  0  0  0  0
 25 27  1  0  0  0  0
M  CHG  1  15   1
M  END
$$$$
default_name
  -OEChem-02102213163D

 30 30  0     1  0  0  0  0  0999 V2000
   -3.5507   -3.2183    1.8116 H   0  0  0  0  0  0  0  0  0  0  0  0
   -3.4597   -2.3913    1.1076 C   0  0  0  0  0  0  0  0  0  0  0  0
   -4.1577   -1.6043    1.3866 H   0  0  0  0  0  0  0  0  0  0  0  0
   -3.6807   -2.7523    0.1036 H   0  0  0  0  0  0  0  0  0  0  0  0
   -2.0477   -1.8543    1.1546 C   0  0  0  0  0  0  0  0  0  0  0  0
   -1.2227   -2.3443    1.9146 O   0  0  0  0  0  0  0  0  0  0  0  0
   -1.7517   -0.8483    0.3266 N   0  0  0  0  0  0  0  0  0  0  0  0
   -2.4847   -0.5123   -0.2804 H   0  0  0  0  0  0  0  0  0  0  0  0
   -0.4117   -0.2463    0.2186 C   0  0  1  0  0  0  0  0  0  0  0  0
    0.2987   -1.0391   -0.0285 H   0  0  0  0  0  0  0  0  0  0  0  0
   -0.4131    0.7505   -0.9636 C   0  0  0  0  0  0  0  0  0  0  0  0
   -1.1351    1.5427   -0.7503 H   0  0  0  0  0  0  0  0  0  0  0  0
    0.5696    1.2221   -1.0314 H   0  0  0  0  0  0  0  0  0  0  0  0
   -0.7394    0.1473   -2.3135 C   0  0  0  0  0  0  0  0  0  0  0  0
   -1.3612    0.8093   -3.3544 N   0  3  0  0  0  0  0  0  0  0  0  0
   -1.6038    1.8038   -3.3270 H   0  0  0  0  0  0  0  0  0  0  0  0
   -1.4841   -0.0453   -4.3894 C   0  0  0  0  0  0  0  0  0  0  0  0
   -1.9243    0.1948   -5.3551 H   0  0  0  0  0  0  0  0  0  0  0  0
   -0.9548   -1.2358   -4.0273 N   0  0  0  0  0  0  0  0  0  0  0  0
   -0.9053   -2.0685   -4.6083 H   0  0  0  0  0  0  0  0  0  0  0  0
   -0.4826   -1.1322   -2.7262 C   0  0  0  0  0  0  0  0  0  0  0  0
   -0.0004   -1.9097   -2.1402 H   0  0  0  0  0  0  0  0  0  0  0  0
    0.0470    0.3465    1.5629 C   0  0  0  0  0  0  0  0  0  0  0  0
    1.1854    0.1365    1.9846 O   0  0  0  0  0  0  0  0  0  0  0  0
   -0.8551    1.0750    2.2320 N   0  0  0  0  0  0  0  0  0  0  0  0
   -1.7594    1.2031    1.8040 H   0  0  0  0  0  0  0  0  0  0  0  0
   -0.6356    1.6998    3.5400 C   0  0  0  0  0  0  0  0  0  0  0  0
   -0.4284    2.7647    3.4168 H   0  0  0  0  0  0  0  0  0  0  0  0
   -1.5268    1.5885    4.1601 H   0  0  0  0  0  0  0  0  0  0  0  0
    0.2072    1.2358    4.0566 H   0  0  0  0  0  0  0  0  0  0  0  0
  5  6  2  0  0  0  0
  5  7  1  0  0  0  0
  2  3  1  0  0  0  0
  2  4  1  0  0  0  0
  2  5  1  0  0  0  0
  1  2  1  0  0  0  0
 23 24  2  0  0  0  0
 23 25  1  0  0  0  0
 21 22  1  0  0  0  0
 19 20  1  0  0  0  0
 19 21  1  0  0  0  0
 17 18  1  0  0  0  0
 17 19  1  0  0  0  0
 15 16  1  0  0  0  0
 15 17  2  0  0  0  0
 14 15  1  0  0  0  0
 14 21  2  0  0  0  0
 11 12  1  0  0  0  0
 11 13  1  0  0  0  0
 11 14  1  0  0  0  0
  9 10  1  0  0  0  0
  9 11  1  0  0  0  0
  9 23  1  0  0  0  0
  7  8  1  0  0  0  0
  7  9  1  0  0  0  0
 27 28  1  0  0  0  0
 27 29  1  0  0  0  0
 27 30  1  0  0  0  0
 25 26  1  0  0  0  0
 25 27  1  0  0  0  0
M  CHG  1  15   1
M  END
$$$$
default_name
  -OEChem-02102213163D

 30 30  0     1  0  0  0  0  0999 V2000
   -3.5507   -3.2183    1.8116 H   0  0  0  0  0  0  0  0  0  0  0  0
   -3.4597   -2.3913    1.1076 C   0  0  0  0  0  0  0  0  0  0  0  0
   -4.1577   -1.6043    1.3866 H   0  0  0  0  0  0  0  0  0  0  0  0
   -3.6807   -2.7523    0.1036 H   0  0  0  0  0  0  0  0  0  0  0  0
   -2.0477   -1.8543    1.1546 C   0  0  0  0  0  0  0  0  0  0  0  0
   -1.2227   -2.3443    1.9146 O   0  0  0  0  0  0  0  0  0  0  0  0
   -1.7517   -0.8483    0.3266 N   0  0  0  0  0  0  0  0  0  0  0  0
   -2.4847   -0.5123   -0.2804 H   0  0  0  0  0  0  0  0  0  0  0  0
   -0.4117   -0.2463    0.2186 C   0  0  1  0  0  0  0  0  0  0  0  0
    0.2987   -1.0391   -0.0285 H   0  0  0  0  0  0  0  0  0  0  0  0
   -0.4131    0.7505   -0.9636 C   0  0  0  0  0  0  0  0  0  0  0  0
   -1.1351    1.5427   -0.7503 H   0  0  0  0  0  0  0  0  0  0  0  0
    0.5696    1.2221   -1.0314 H   0  0  0  0  0  0  0  0  0  0  0  0
   -0.7394    0.1473   -2.3135 C   0  0  0  0  0  0  0  0  0  0  0  0
   -1.0858    0.8613   -3.4443 N   0  3  0  0  0  0  0  0  0  0  0  0
   -1.0908    1.8845   -3.4870 H   0  0  0  0  0  0  0  0  0  0  0  0
   -1.3045   -0.0111   -4.4481 C   0  0  0  0  0  0  0  0  0  0  0  0
   -1.5810    0.2569   -5.4658 H   0  0  0  0  0  0  0  0  0  0  0  0
   -1.1055   -1.2634   -3.9785 N   0  0  0  0  0  0  0  0  0  0  0  0
   -1.1962   -2.1230   -4.5137 H   0  0  0  0  0  0  0  0  0  0  0  0
   -0.7501   -1.1820   -2.6392 C   0  0  0  0  0  0  0  0  0  0  0  0
   -0.5218   -2.0073   -1.9705 H   0  0  0  0  0  0  0  0  0  0  0  0
    0.0470    0.3465    1.5629 C   0  0  0  0  0  0  0  0  0  0  0  0
    1.1854    0.1365    1.9846 O   0  0  0  0  0  0  0  0  0  0  0  0
   -0.8551    1.0750    2.2320 N   0  0  0  0  0  0  0  0  0  0  0  0
   -1.7594    1.2031    1.8040 H   0  0  0  0  0  0  0  0  0  0  0  0
   -0.6356    1.6998    3.5400 C   0  0  0  0  0  0  0  0  0  0  0  0
   -0.4284    2.7647    3.4168 H   0  0  0  0  0  0  0  0  0  0  0  0
   -1.5268    1.5885    4.1601 H   0  0  0  0  0  0  0  0  0  0  0  0
    0.2072    1.2358    4.0566 H   0  0  0  0  0  0  0  0  0  0  0  0
  5  6  2  0  0  0  0
  5  7  1  0  0  0  0
  2  3  1  0  0  0  0
  2  4  1  0  0  0  0
  2  5  1  0  0  0  0
  1  2  1  0  0  0  0
 23 24  2  0  0  0  0
 23 25  1  0  0  0  0
 21 22  1  0  0  0  0
 19 20  1  0  0  0  0
 19 21  1  0  0  0  0
 17 18  1  0  0  0  0
 17 19  1  0  0  0  0
 15 16  1  0  0  0  0
 15 17  2  0  0  0  0
 14 15  1  0  0  0  0
 14 21  2  0  0  0  0
 11 12  1  0  0  0  0
 11 13  1  0  0  0  0
 11 14  1  0  0  0  0
  9 10  1  0  0  0  0
  9 11  1  0  0  0  0
  9 23  1  0  0  0  0
  7  8  1  0  0  0  0
  7  9  1  0  0  0  0
 27 28  1  0  0  0  0
 27 29  1  0  0  0  0
 27 30  1  0  0  0  0
 25 26  1  0  0  0  0
 25 27  1  0  0  0  0
M  CHG  1  15   1
M  END
$$$$
default_name
  -OEChem-02102213163D

 30 30  0     1  0  0  0  0  0999 V2000
   -3.5507   -3.2183    1.8116 H   0  0  0  0  0  0  0  0  0  0  0  0
   -3.4597   -2.3913    1.1076 C   0  0  0  0  0  0  0  0  0  0  0  0
   -4.1577   -1.6043    1.3866 H   0  0  0  0  0  0  0  0  0  0  0  0
   -3.6807   -2.7523    0.1036 H   0  0  0  0  0  0  0  0  0  0  0  0
   -2.0477   -1.8543    1.1546 C   0  0  0  0  0  0  0  0  0  0  0  0
   -1.2227   -2.3443    1.9146 O   0  0  0  0  0  0  0  0  0  0  0  0
   -1.7517   -0.8483    0.3266 N   0  0  0  0  0  0  0  0  0  0  0  0
   -2.4847   -0.5123   -0.2804 H   0  0  0  0  0  0  0  0  0  0  0  0
   -0.4117   -0.2463    0.2186 C   0  0  1  0  0  0  0  0  0  0  0  0
    0.2987   -1.0391   -0.0285 H   0  0  0  0  0  0  0  0  0  0  0  0
   -0.4131    0.7505   -0.9636 C   0  0  0  0  0  0  0  0  0  0  0  0
   -0.9181    1.6663   -0.6464 H   0  0  0  0  0  0  0  0  0  0  0  0
    0.6182    1.0193   -1.2024 H   0  0  0  0  0  0  0  0  0  0  0  0
   -1.0728    0.2463   -2.2296 C   0  0  0  0  0  0  0  0  0  0  0  0
   -1.1912    0.9595   -3.4068 N   0  3  0  0  0  0  0  0  0  0  0  0
   -0.7792    1.8861   -3.5499 H   0  0  0  0  0  0  0  0  0  0  0  0
   -1.8341    0.1903   -4.3077 C   0  0  0  0  0  0  0  0  0  0  0  0
   -2.0625    0.4780   -5.3320 H   0  0  0  0  0  0  0  0  0  0  0  0
   -2.1274   -0.9952   -3.7274 N   0  0  0  0  0  0  0  0  0  0  0  0
   -2.6086   -1.7737   -4.1700 H   0  0  0  0  0  0  0  0  0  0  0  0
   -1.6563   -0.9768   -2.4219 C   0  0  0  0  0  0  0  0  0  0  0  0
   -1.7306   -1.7737   -1.6871 H   0  0  0  0  0  0  0  0  0  0  0  0
    0.0470    0.3465    1.5629 C   0  0  0  0  0  0  0  0  0  0  0  0
    1.1854    0.1365    1.9846 O   0  0  0  0  0  0  0  0  0  0  0  0
   -0.8551    1.0750    2.2320 N   0  0  0  0  0  0  0  0  0  0  0  0
   -1.7594    1.2031    1.8040 H   0  0  0  0  0  0  0  0  0  0  0  0
   -0.6356    1.6998    3.5400 C   0  0  0  0  0  0  0  0  0  0  0  0
   -0.4284    2.7647    3.4168 H   0  0  0  0  0  0  0  0  0  0  0  0
   -1.5268    1.5885    4.1601 H   0  0  0  0  0  0  0  0  0  0  0  0
    0.2072    1.2358    4.0566 H   0  0  0  0  0  0  0  0  0  0  0  0
  5  6  2  0  0  0  0
  5  7  1  0  0  0  0
  2  3  1  0  0  0  0
  2  4  1  0  0  0  0
  2  5  1  0  0  0  0
  1  2  1  0  0  0  0
 23 24  2  0  0  0  0
 23 25  1  0  0  0  0
 21 22  1  0  0  0  0
 19 20  1  0  0  0  0
 19 21  1  0  0  0  0
 17 18  1  0  0  0  0
 17 19  1  0  0  0  0
 15 16  1  0  0  0  0
 15 17  2  0  0  0  0
 14 15  1  0  0  0  0
 14 21  2  0  0  0  0
 11 12  1  0  0  0  0
 11 13  1  0  0  0  0
 11 14  1  0  0  0  0
  9 10  1  0  0  0  0
  9 11  1  0  0  0  0
  9 23  1  0  0  0  0
  7  8  1  0  0  0  0
  7  9  1  0  0  0  0
 27 28  1  0  0  0  0
 27 29  1  0  0  0  0
 27 30  1  0  0  0  0
 25 26  1  0  0  0  0
 25 27  1  0  0  0  0
M  CHG  1  15   1
M  END
$$$$
default_name
  -OEChem-02102213163D

 30 30  0     1  0  0  0  0  0999 V2000
   -3.5507   -3.2183    1.8116 H   0  0  0  0  0  0  0  0  0  0  0  0
   -3.4597   -2.3913    1.1076 C   0  0  0  0  0  0  0  0  0  0  0  0
   -4.1577   -1.6043    1.3866 H   0  0  0  0  0  0  0  0  0  0  0  0
   -3.6807   -2.7523    0.1036 H   0  0  0  0  0  0  0  0  0  0  0  0
   -2.0477   -1.8543    1.1546 C   0  0  0  0  0  0  0  0  0  0  0  0
   -1.2227   -2.3443    1.9146 O   0  0  0  0  0  0  0  0  0  0  0  0
   -1.7517   -0.8483    0.3266 N   0  0  0  0  0  0  0  0  0  0  0  0
   -2.4847   -0.5123   -0.2804 H   0  0  0  0  0  0  0  0  0  0  0  0
   -0.4117   -0.2463    0.2186 C   0  0  1  0  0  0  0  0  0  0  0  0
    0.2987   -1.0391   -0.0285 H   0  0  0  0  0  0  0  0  0  0  0  0
   -0.4131    0.7505   -0.9636 C   0  0  0  0  0  0  0  0  0  0  0  0
   -0.9181    1.6663   -0.6464 H   0  0  0  0  0  0  0  0  0  0  0  0
    0.6182    1.0193   -1.2024 H   0  0  0  0  0  0  0  0  0  0  0  0
   -1.0728    0.2463   -2.2296 C   0  0  0  0  0  0  0  0  0  0  0  0
   -0.9432    0.8190   -3.4801 N   0  3  0  0  0  0  0  0  0  0  0  0
   -0.3270    1.6129   -3.6768 H   0  0  0  0  0  0  0  0  0  0  0  0
   -1.6722    0.0989   -4.3557 C   0  0  0  0  0  0  0  0  0  0  0  0
   -1.7550    0.3009   -5.4217 H   0  0  0  0  0  0  0  0  0  0  0  0
   -2.2626   -0.9178   -3.6878 N   0  0  0  0  0  0  0  0  0  0  0  0
   -2.8702   -1.6250   -4.0929 H   0  0  0  0  0  0  0  0  0  0  0  0
   -1.8968   -0.8399   -2.3511 C   0  0  0  0  0  0  0  0  0  0  0  0
   -2.1996   -1.5071   -1.5488 H   0  0  0  0  0  0  0  0  0  0  0  0
    0.0470    0.3465    1.5629 C   0  0  0  0  0  0  0  0  0  0  0  0
    1.1854    0.1365    1.9846 O   0  0  0  0  0  0  0  0  0  0  0  0
   -0.8551    1.0750    2.2320 N   0  0  0  0  0  0  0  0  0  0  0  0
   -1.7594    1.2031    1.8040 H   0  0  0  0  0  0  0  0  0  0  0  0
   -0.6356    1.6998    3.5400 C   0  0  0  0  0  0  0  0  0  0  0  0
   -0.4284    2.7647    3.4168 H   0  0  0  0  0  0  0  0  0  0  0  0
   -1.5268    1.5885    4.1601 H   0  0  0  0  0  0  0  0  0  0  0  0
    0.2072    1.2358    4.0566 H   0  0  0  0  0  0  0  0  0  0  0  0
  5  6  2  0  0  0  0
  5  7  1  0  0  0  0
  2  3  1  0  0  0  0
  2  4  1  0  0  0  0
  2  5  1  0  0  0  0
  1  2  1  0  0  0  0
 23 24  2  0  0  0  0
 23 25  1  0  0  0  0
 21 22  1  0  0  0  0
 19 20  1  0  0  0  0
 19 21  1  0  0  0  0
 17 18  1  0  0  0  0
 17 19  1  0  0  0  0
 15 16  1  0  0  0  0
 15 17  2  0  0  0  0
 14 15  1  0  0  0  0
 14 21  2  0  0  0  0
 11 12  1  0  0  0  0
 11 13  1  0  0  0  0
 11 14  1  0  0  0  0
  9 10  1  0  0  0  0
  9 11  1  0  0  0  0
  9 23  1  0  0  0  0
  7  8  1  0  0  0  0
  7  9  1  0  0  0  0
 27 28  1  0  0  0  0
 27 29  1  0  0  0  0
 27 30  1  0  0  0  0
 25 26  1  0  0  0  0
 25 27  1  0  0  0  0
M  CHG  1  15   1
M  END
$$$$
default_name
  -OEChem-02102213163D

 30 30  0     1  0  0  0  0  0999 V2000
   -3.5507   -3.2183    1.8116 H   0  0  0  0  0  0  0  0  0  0  0  0
   -3.4597   -2.3913    1.1076 C   0  0  0  0  0  0  0  0  0  0  0  0
   -4.1577   -1.6043    1.3866 H   0  0  0  0  0  0  0  0  0  0  0  0
   -3.6807   -2.7523    0.1036 H   0  0  0  0  0  0  0  0  0  0  0  0
   -2.0477   -1.8543    1.1546 C   0  0  0  0  0  0  0  0  0  0  0  0
   -1.2227   -2.3443    1.9146 O   0  0  0  0  0  0  0  0  0  0  0  0
   -1.7517   -0.8483    0.3266 N   0  0  0  0  0  0  0  0  0  0  0  0
   -2.4847   -0.5123   -0.2804 H   0  0  0  0  0  0  0  0  0  0  0  0
   -0.4117   -0.2463    0.2186 C   0  0  1  0  0  0  0  0  0  0  0  0
    0.2987   -1.0391   -0.0285 H   0  0  0  0  0  0  0  0  0  0  0  0
   -0.4131    0.7505   -0.9636 C   0  0  0  0  0  0  0  0  0  0  0  0
   -0.9181    1.6663   -0.6464 H   0  0  0  0  0  0  0  0  0  0  0  0
    0.6182    1.0193   -1.2024 H   0  0  0  0  0  0  0  0  0  0  0  0
   -1.0728    0.2463   -2.2296 C   0  0  0  0  0  0  0  0  0  0  0  0
   -0.7278    0.6213   -3.5137 N   0  3  0  0  0  0  0  0  0  0  0  0
    0.0617    1.2368   -3.7296 H   0  0  0  0  0  0  0  0  0  0  0  0
   -1.5314   -0.0298   -4.3778 C   0  0  0  0  0  0  0  0  0  0  0  0
   -1.4886    0.0532   -5.4619 H   0  0  0  0  0  0  0  0  0  0  0  0
   -2.3799   -0.8092   -3.6699 N   0  0  0  0  0  0  0  0  0  0  0  0
   -3.0974   -1.4161   -4.0577 H   0  0  0  0  0  0  0  0  0  0  0  0
   -2.1056   -0.6476   -2.3189 C   0  0  0  0  0  0  0  0  0  0  0  0
   -2.6069   -1.1325   -1.4858 H   0  0  0  0  0  0  0  0  0  0  0  0
    0.0470    0.3465    1.5629 C   0  0  0  0  0  0  0  0  0  0  0  0
    1.1854    0.1365    1.9846 O   0  0  0  0  0  0  0  0  0  0  0  0
   -0.8551    1.0750    2.2320 N   0  0  0  0  0  0  0  0  0  0  0  0
   -1.7594    1.2031    1.8040 H   0  0  0  0  0  0  0  0  0  0  0  0
   -0.6356    1.6998    3.5400 C   0  0  0  0  0  0  0  0  0  0  0  0
   -0.4284    2.7647    3.4168 H   0  0  0  0  0  0  0  0  0  0  0  0
   -1.5268    1.5885    4.1601 H   0  0  0  0  0  0  0  0  0  0  0  0
    0.2072    1.2358    4.0566 H   0  0  0  0  0  0  0  0  0  0  0  0
  5  6  2  0  0  0  0
  5  7  1  0  0  0  0
  2  3  1  0  0  0  0
  2  4  1  0  0  0  0
  2  5  1  0  0  0  0
  1  2  1  0  0  0  0
 23 24  2  0  0  0  0
 23 25  1  0  0  0  0
 21 22  1  0  0  0  0
 19 20  1  0  0  0  0
 19 21  1  0  0  0  0
 17 18  1  0  0  0  0
 17 19  1  0  0  0  0
 15 16  1  0  0  0  0
 15 17  2  0  0  0  0
 14 15  1  0  0  0  0
 14 21  2  0  0  0  0
 11 12  1  0  0  0  0
 11 13  1  0  0  0  0
 11 14  1  0  0  0  0
  9 10  1  0  0  0  0
  9 11  1  0  0  0  0
  9 23  1  0  0  0  0
  7  8  1  0  0  0  0
  7  9  1  0  0  0  0
 27 28  1  0  0  0  0
 27 29  1  0  0  0  0
 27 30  1  0  0  0  0
 25 26  1  0  0  0  0
 25 27  1  0  0  0  0
M  CHG  1  15   1
M  END
$$$$
default_name
  -OEChem-02102213163D

 30 30  0     1  0  0  0  0  0999 V2000
   -3.5507   -3.2183    1.8116 H   0  0  0  0  0  0  0  0  0  0  0  0
   -3.4597   -2.3913    1.1076 C   0  0  0  0  0  0  0  0  0  0  0  0
   -4.1577   -1.6043    1.3866 H   0  0  0  0  0  0  0  0  0  0  0  0
   -3.6807   -2.7523    0.1036 H   0  0  0  0  0  0  0  0  0  0  0  0
   -2.0477   -1.8543    1.1546 C   0  0  0  0  0  0  0  0  0  0  0  0
   -1.2227   -2.3443    1.9146 O   0  0  0  0  0  0  0  0  0  0  0  0
   -1.7517   -0.8483    0.3266 N   0  0  0  0  0  0  0  0  0  0  0  0
   -2.4847   -0.5123   -0.2804 H   0  0  0  0  0  0  0  0  0  0  0  0
   -0.4117   -0.2463    0.2186 C   0  0  1  0  0  0  0  0  0  0  0  0
    0.2987   -1.0391   -0.0285 H   0  0  0  0  0  0  0  0  0  0  0  0
   -0.4131    0.7505   -0.9636 C   0  0  0  0  0  0  0  0  0  0  0  0
   -0.9181    1.6663   -0.6464 H   0  0  0  0  0  0  0  0  0  0  0  0
    0.6182    1.0193   -1.2024 H   0  0  0  0  0  0  0  0  0  0  0  0
   -1.0728    0.2463   -2.2296 C   0  0  0  0  0  0  0  0  0  0  0  0
   -0.5595    0.3800   -3.5052 N   0  3  0  0  0  0  0  0  0  0  0  0
    0.3603    0.7834   -3.7047 H   0  0  0  0  0  0  0  0  0  0  0  0
   -1.4214   -0.1872   -4.3725 C   0  0  0  0  0  0  0  0  0  0  0  0
   -1.2814   -0.2483   -5.4498 H   0  0  0  0  0  0  0  0  0  0  0  0
   -2.4712   -0.6769   -3.6750 N   0  0  0  0  0  0  0  0  0  0  0  0
   -3.2746   -1.1611   -4.0669 H   0  0  0  0  0  0  0  0  0  0  0  0
   -2.2683   -0.4130   -2.3275 C   0  0  0  0  0  0  0  0  0  0  0  0
   -2.9246   -0.6753   -1.5023 H   0  0  0  0  0  0  0  0  0  0  0  0
    0.0470    0.3465    1.5629 C   0  0  0  0  0  0  0  0  0  0  0  0
    1.1854    0.1365    1.9846 O   0  0  0  0  0  0  0  0  0  0  0  0
   -0.8551    1.0750    2.2320 N   0  0  0  0  0  0  0  0  0  0  0  0
   -1.7594    1.2031    1.8040 H   0  0  0  0  0  0  0  0  0  0  0  0
   -0.6356    1.6998    3.5400 C   0  0  0  0  0  0  0  0  0  0  0  0
   -0.4284    2.7647    3.4168 H   0  0  0  0  0  0  0  0  0  0  0  0
   -1.5268    1.5885    4.1601 H   0  0  0  0  0  0  0  0  0  0  0  0
    0.2072    1.2358    4.0566 H   0  0  0  0  0  0  0  0  0  0  0  0
  5  6  2  0  0  0  0
  5  7  1  0  0  0  0
  2  3  1  0  0  0  0
  2  4  1  0  0  0  0
  2  5  1  0  0  0  0
  1  2  1  0  0  0  0
 23 24  2  0  0  0  0
 23 25  1  0  0  0  0
 21 22  1  0  0  0  0
 19 20  1  0  0  0  0
 19 21  1  0  0  0  0
 17 18  1  0  0  0  0
 17 19  1  0  0  0  0
 15 16  1  0  0  0  0
 15 17  2  0  0  0  0
 14 15  1  0  0  0  0
 14 21  2  0  0  0  0
 11 12  1  0  0  0  0
 11 13  1  0  0  0  0
 11 14  1  0  0  0  0
  9 10  1  0  0  0  0
  9 11  1  0  0  0  0
  9 23  1  0  0  0  0
  7  8  1  0  0  0  0
  7  9  1  0  0  0  0
 27 28  1  0  0  0  0
 27 29  1  0  0  0  0
 27 30  1  0  0  0  0
 25 26  1  0  0  0  0
 25 27  1  0  0  0  0
M  CHG  1  15   1
M  END
$$$$
default_name
  -OEChem-02102213163D

 30 30  0     1  0  0  0  0  0999 V2000
   -3.5507   -3.2183    1.8116 H   0  0  0  0  0  0  0  0  0  0  0  0
   -3.4597   -2.3913    1.1076 C   0  0  0  0  0  0  0  0  0  0  0  0
   -4.1577   -1.6043    1.3866 H   0  0  0  0  0  0  0  0  0  0  0  0
   -3.6807   -2.7523    0.1036 H   0  0  0  0  0  0  0  0  0  0  0  0
   -2.0477   -1.8543    1.1546 C   0  0  0  0  0  0  0  0  0  0  0  0
   -1.2227   -2.3443    1.9146 O   0  0  0  0  0  0  0  0  0  0  0  0
   -1.7517   -0.8483    0.3266 N   0  0  0  0  0  0  0  0  0  0  0  0
   -2.4847   -0.5123   -0.2804 H   0  0  0  0  0  0  0  0  0  0  0  0
   -0.4117   -0.2463    0.2186 C   0  0  1  0  0  0  0  0  0  0  0  0
    0.2987   -1.0391   -0.0285 H   0  0  0  0  0  0  0  0  0  0  0  0
   -0.4131    0.7505   -0.9636 C   0  0  0  0  0  0  0  0  0  0  0  0
   -0.9181    1.6663   -0.6464 H   0  0  0  0  0  0  0  0  0  0  0  0
    0.6182    1.0193   -1.2024 H   0  0  0  0  0  0  0  0  0  0  0  0
   -1.0728    0.2463   -2.2296 C   0  0  0  0  0  0  0  0  0  0  0  0
   -0.4500    0.1114   -3.4553 N   0  3  0  0  0  0  0  0  0  0  0  0
    0.5485    0.2837   -3.6038 H   0  0  0  0  0  0  0  0  0  0  0  0
   -1.3497   -0.3623   -4.3401 C   0  0  0  0  0  0  0  0  0  0  0  0
   -1.1476   -0.5830   -5.3863 H   0  0  0  0  0  0  0  0  0  0  0  0
   -2.5303   -0.5300   -3.7027 N   0  0  0  0  0  0  0  0  0  0  0  0
   -3.3898   -0.8775   -4.1198 H   0  0  0  0  0  0  0  0  0  0  0  0
   -2.3741   -0.1522   -2.3762 C   0  0  0  0  0  0  0  0  0  0  0  0
   -3.1312   -0.1669   -1.5971 H   0  0  0  0  0  0  0  0  0  0  0  0
    0.0470    0.3465    1.5629 C   0  0  0  0  0  0  0  0  0  0  0  0
    1.1854    0.1365    1.9846 O   0  0  0  0  0  0  0  0  0  0  0  0
   -0.8551    1.0750    2.2320 N   0  0  0  0  0  0  0  0  0  0  0  0
   -1.7594    1.2031    1.8040 H   0  0  0  0  0  0  0  0  0  0  0  0
   -0.6356    1.6998    3.5400 C   0  0  0  0  0  0  0  0  0  0  0  0
   -0.4284    2.7647    3.4168 H   0  0  0  0  0  0  0  0  0  0  0  0
   -1.5268    1.5885    4.1601 H   0  0  0  0  0  0  0  0  0  0  0  0
    0.2072    1.2358    4.0566 H   0  0  0  0  0  0  0  0  0  0  0  0
  5  6  2  0  0  0  0
  5  7  1  0  0  0  0
  2  3  1  0  0  0  0
  2  4  1  0  0  0  0
  2  5  1  0  0  0  0
  1  2  1  0  0  0  0
 23 24  2  0  0  0  0
 23 25  1  0  0  0  0
 21 22  1  0  0  0  0
 19 20  1  0  0  0  0
 19 21  1  0  0  0  0
 17 18  1  0  0  0  0
 17 19  1  0  0  0  0
 15 16  1  0  0  0  0
 15 17  2  0  0  0  0
 14 15  1  0  0  0  0
 14 21  2  0  0  0  0
 11 12  1  0  0  0  0
 11 13  1  0  0  0  0
 11 14  1  0  0  0  0
  9 10  1  0  0  0  0
  9 11  1  0  0  0  0
  9 23  1  0  0  0  0
  7  8  1  0  0  0  0
  7  9  1  0  0  0  0
 27 28  1  0  0  0  0
 27 29  1  0  0  0  0
 27 30  1  0  0  0  0
 25 26  1  0  0  0  0
 25 27  1  0  0  0  0
M  CHG  1  15   1
M  END
$$$$
default_name
  -OEChem-02102213163D

 30 30  0     1  0  0  0  0  0999 V2000
   -3.5507   -3.2183    1.8116 H   0  0  0  0  0  0  0  0  0  0  0  0
   -3.4597   -2.3913    1.1076 C   0  0  0  0  0  0  0  0  0  0  0  0
   -4.1577   -1.6043    1.3866 H   0  0  0  0  0  0  0  0  0  0  0  0
   -3.6807   -2.7523    0.1036 H   0  0  0  0  0  0  0  0  0  0  0  0
   -2.0477   -1.8543    1.1546 C   0  0  0  0  0  0  0  0  0  0  0  0
   -1.2227   -2.3443    1.9146 O   0  0  0  0  0  0  0  0  0  0  0  0
   -1.7517   -0.8483    0.3266 N   0  0  0  0  0  0  0  0  0  0  0  0
   -2.4847   -0.5123   -0.2804 H   0  0  0  0  0  0  0  0  0  0  0  0
   -0.4117   -0.2463    0.2186 C   0  0  1  0  0  0  0  0  0  0  0  0
    0.2987   -1.0391   -0.0285 H   0  0  0  0  0  0  0  0  0  0  0  0
   -0.4131    0.7505   -0.9636 C   0  0  0  0  0  0  0  0  0  0  0  0
   -0.9181    1.6663   -0.6464 H   0  0  0  0  0  0  0  0  0  0  0  0
    0.6182    1.0193   -1.2024 H   0  0  0  0  0  0  0  0  0  0  0  0
   -1.0728    0.2463   -2.2296 C   0  0  0  0  0  0  0  0  0  0  0  0
   -0.4067   -0.1661   -3.3674 N   0  3  0  0  0  0  0  0  0  0  0  0
    0.6134   -0.2283   -3.4337 H   0  0  0  0  0  0  0  0  0  0  0  0
   -1.3211   -0.5434   -4.2829 C   0  0  0  0  0  0  0  0  0  0  0  0
   -1.0962   -0.9280   -5.2757 H   0  0  0  0  0  0  0  0  0  0  0  0
   -2.5533   -0.3783   -3.7511 N   0  0  0  0  0  0  0  0  0  0  0  0
   -3.4352   -0.5846   -4.2128 H   0  0  0  0  0  0  0  0  0  0  0  0
   -2.4155    0.1171   -2.4619 C   0  0  0  0  0  0  0  0  0  0  0  0
   -3.2125    0.3583   -1.7639 H   0  0  0  0  0  0  0  0  0  0  0  0
    0.0470    0.3465    1.5629 C   0  0  0  0  0  0  0  0  0  0  0  0
    1.1854    0.1365    1.9846 O   0  0  0  0  0  0  0  0  0  0  0  0
   -0.8551    1.0750    2.2320 N   0  0  0  0  0  0  0  0  0  0  0  0
   -1.7594    1.2031    1.8040 H   0  0  0  0  0  0  0  0  0  0  0  0
   -0.6356    1.6998    3.5400 C   0  0  0  0  0  0  0  0  0  0  0  0
   -0.4284    2.7647    3.4168 H   0  0  0  0  0  0  0  0  0  0  0  0
   -1.5268    1.5885    4.1601 H   0  0  0  0  0  0  0  0  0  0  0  0
    0.2072    1.2358    4.0566 H   0  0  0  0  0  0  0  0  0  0  0  0
  5  6  2  0  0  0  0
  5  7  1  0  0  0  0
  2  3  1  0  0  0  0
  2  4  1  0  0  0  0
  2  5  1  0  0  0  0
  1  2  1  0  0  0  0
 23 24  2  0  0  0  0
 23 25  1  0  0  0  0
 21 22  1  0  0  0  0
 19 20  1  0  0  0  0
 19 21  1  0  0  0  0
 17 18  1  0  0  0  0
 17 19  1  0  0  0  0
 15 16  1  0  0  0  0
 15 17  2  0  0  0  0
 14 15  1  0  0  0  0
 14 21  2  0  0  0  0
 11 12  1  0  0  0  0
 11 13  1  0  0  0  0
 11 14  1  0  0  0  0
  9 10  1  0  0  0  0
  9 11  1  0  0  0  0
  9 23  1  0  0  0  0
  7  8  1  0  0  0  0
  7  9  1  0  0  0  0
 27 28  1  0  0  0  0
 27 29  1  0  0  0  0
 27 30  1  0  0  0  0
 25 26  1  0  0  0  0
 25 27  1  0  0  0  0
M  CHG  1  15   1
M  END
$$$$
default_name
  -OEChem-02102213163D

 30 30  0     1  0  0  0  0  0999 V2000
   -3.5507   -3.2183    1.8116 H   0  0  0  0  0  0  0  0  0  0  0  0
   -3.4597   -2.3913    1.1076 C   0  0  0  0  0  0  0  0  0  0  0  0
   -4.1577   -1.6043    1.3866 H   0  0  0  0  0  0  0  0  0  0  0  0
   -3.6807   -2.7523    0.1036 H   0  0  0  0  0  0  0  0  0  0  0  0
   -2.0477   -1.8543    1.1546 C   0  0  0  0  0  0  0  0  0  0  0  0
   -1.2227   -2.3443    1.9146 O   0  0  0  0  0  0  0  0  0  0  0  0
   -1.7517   -0.8483    0.3266 N   0  0  0  0  0  0  0  0  0  0  0  0
   -2.4847   -0.5123   -0.2804 H   0  0  0  0  0  0  0  0  0  0  0  0
   -0.4117   -0.2463    0.2186 C   0  0  1  0  0  0  0  0  0  0  0  0
    0.2987   -1.0391   -0.0285 H   0  0  0  0  0  0  0  0  0  0  0  0
   -0.4131    0.7505   -0.9636 C   0  0  0  0  0  0  0  0  0  0  0  0
   -0.9181    1.6663   -0.6464 H   0  0  0  0  0  0  0  0  0  0  0  0
    0.6182    1.0193   -1.2024 H   0  0  0  0  0  0  0  0  0  0  0  0
   -1.0728    0.2463   -2.2296 C   0  0  0  0  0  0  0  0  0  0  0  0
   -0.4324   -0.4336   -3.2475 N   0  3  0  0  0  0  0  0  0  0  0  0
    0.5506   -0.7178   -3.2060 H   0  0  0  0  0  0  0  0  0  0  0  0
   -1.3376   -0.7181   -4.2048 C   0  0  0  0  0  0  0  0  0  0  0  0
   -1.1308   -1.2600   -5.1254 H   0  0  0  0  0  0  0  0  0  0  0  0
   -2.5385   -0.2324   -3.8169 N   0  0  0  0  0  0  0  0  0  0  0  0
   -3.4076   -0.3023   -4.3396 H   0  0  0  0  0  0  0  0  0  0  0  0
   -2.3899    0.3766   -2.5785 C   0  0  0  0  0  0  0  0  0  0  0  0
   -3.1630    0.8643   -1.9912 H   0  0  0  0  0  0  0  0  0  0  0  0
    0.0470    0.3465    1.5629 C   0  0  0  0  0  0  0  0  0  0  0  0
    1.1854    0.1365    1.9846 O   0  0  0  0  0  0  0  0  0  0  0  0
   -0.8551    1.0750    2.2320 N   0  0  0  0  0  0  0  0  0  0  0  0
   -1.7594    1.2031    1.8040 H   0  0  0  0  0  0  0  0  0  0  0  0
   -0.6356    1.6998    3.5400 C   0  0  0  0  0  0  0  0  0  0  0  0
   -0.4284    2.7647    3.4168 H   0  0  0  0  0  0  0  0  0  0  0  0
   -1.5268    1.5885    4.1601 H   0  0  0  0  0  0  0  0  0  0  0  0
    0.2072    1.2358    4.0566 H   0  0  0  0  0  0  0  0  0  0  0  0
  5  6  2  0  0  0  0
  5  7  1  0  0  0  0
  2  3  1  0  0  0  0
  2  4  1  0  0  0  0
  2  5  1  0  0  0  0
  1  2  1  0  0  0  0
 23 24  2  0  0  0  0
 23 25  1  0  0  0  0
 21 22  1  0  0  0  0
 19 20  1  0  0  0  0
 19 21  1  0  0  0  0
 17 18  1  0  0  0  0
 17 19  1  0  0  0  0
 15 16  1  0  0  0  0
 15 17  2  0  0  0  0
 14 15  1  0  0  0  0
 14 21  2  0  0  0  0
 11 12  1  0  0  0  0
 11 13  1  0  0  0  0
 11 14  1  0  0  0  0
  9 10  1  0  0  0  0
  9 11  1  0  0  0  0
  9 23  1  0  0  0  0
  7  8  1  0  0  0  0
  7  9  1  0  0  0  0
 27 28  1  0  0  0  0
 27 29  1  0  0  0  0
 27 30  1  0  0  0  0
 25 26  1  0  0  0  0
 25 27  1  0  0  0  0
M  CHG  1  15   1
M  END
$$$$
default_name
  -OEChem-02102213163D

 30 30  0     1  0  0  0  0  0999 V2000
   -3.5507   -3.2183    1.8116 H   0  0  0  0  0  0  0  0  0  0  0  0
   -3.4597   -2.3913    1.1076 C   0  0  0  0  0  0  0  0  0  0  0  0
   -4.1577   -1.6043    1.3866 H   0  0  0  0  0  0  0  0  0  0  0  0
   -3.6807   -2.7523    0.1036 H   0  0  0  0  0  0  0  0  0  0  0  0
   -2.0477   -1.8543    1.1546 C   0  0  0  0  0  0  0  0  0  0  0  0
   -1.2227   -2.3443    1.9146 O   0  0  0  0  0  0  0  0  0  0  0  0
   -1.7517   -0.8483    0.3266 N   0  0  0  0  0  0  0  0  0  0  0  0
   -2.4847   -0.5123   -0.2804 H   0  0  0  0  0  0  0  0  0  0  0  0
   -0.4117   -0.2463    0.2186 C   0  0  1  0  0  0  0  0  0  0  0  0
    0.2987   -1.0391   -0.0285 H   0  0  0  0  0  0  0  0  0  0  0  0
   -0.4131    0.7505   -0.9636 C   0  0  0  0  0  0  0  0  0  0  0  0
   -0.9181    1.6663   -0.6464 H   0  0  0  0  0  0  0  0  0  0  0  0
    0.6182    1.0193   -1.2024 H   0  0  0  0  0  0  0  0  0  0  0  0
   -1.0728    0.2463   -2.2296 C   0  0  0  0  0  0  0  0  0  0  0  0
   -0.5255   -0.6729   -3.1037 N   0  3  0  0  0  0  0  0  0  0  0  0
    0.3644   -1.1513   -2.9364 H   0  0  0  0  0  0  0  0  0  0  0  0
   -1.3980   -0.8744   -4.1110 C   0  0  0  0  0  0  0  0  0  0  0  0
   -1.2490   -1.5562   -4.9459 H   0  0  0  0  0  0  0  0  0  0  0  0
   -2.4869   -0.1020   -3.8957 N   0  0  0  0  0  0  0  0  0  0  0  0
   -3.3090   -0.0499   -4.4915 H   0  0  0  0  0  0  0  0  0  0  0  0
   -2.2990    0.6085   -2.7183 C   0  0  0  0  0  0  0  0  0  0  0  0
   -2.9861    1.3168   -2.2636 H   0  0  0  0  0  0  0  0  0  0  0  0
    0.0470    0.3465    1.5629 C   0  0  0  0  0  0  0  0  0  0  0  0
    1.1854    0.1365    1.9846 O   0  0  0  0  0  0  0  0  0  0  0  0
   -0.8551    1.0750    2.2320 N   0  0  0  0  0  0  0  0  0  0  0  0
   -1.7594    1.2031    1.8040 H   0  0  0  0  0  0  0  0  0  0  0  0
   -0.6356    1.6998    3.5400 C   0  0  0  0  0  0  0  0  0  0  0  0
   -0.4284    2.7647    3.4168 H   0  0  0  0  0  0  0  0  0  0  0  0
   -1.5268    1.5885    4.1601 H   0  0  0  0  0  0  0  0  0  0  0  0
    0.2072    1.2358    4.0566 H   0  0  0  0  0  0  0  0  0  0  0  0
  5  6  2  0  0  0  0
  5  7  1  0  0  0  0
  2  3  1  0  0  0  0
  2  4  1  0  0  0  0
  2  5  1  0  0  0  0
  1  2  1  0  0  0  0
 23 24  2  0  0  0  0
 23 25  1  0  0  0  0
 21 22  1  0  0  0  0
 19 20  1  0  0  0  0
 19 21  1  0  0  0  0
 17 18  1  0  0  0  0
 17 19  1  0  0  0  0
 15 16  1  0  0  0  0
 15 17  2  0  0  0  0
 14 15  1  0  0  0  0
 14 21  2  0  0  0  0
 11 12  1  0  0  0  0
 11 13  1  0  0  0  0
 11 14  1  0  0  0  0
  9 10  1  0  0  0  0
  9 11  1  0  0  0  0
  9 23  1  0  0  0  0
  7  8  1  0  0  0  0
  7  9  1  0  0  0  0
 27 28  1  0  0  0  0
 27 29  1  0  0  0  0
 27 30  1  0  0  0  0
 25 26  1  0  0  0  0
 25 27  1  0  0  0  0
M  CHG  1  15   1
M  END
$$$$
default_name
  -OEChem-02102213163D

 30 30  0     1  0  0  0  0  0999 V2000
   -3.5507   -3.2183    1.8116 H   0  0  0  0  0  0  0  0  0  0  0  0
   -3.4597   -2.3913    1.1076 C   0  0  0  0  0  0  0  0  0  0  0  0
   -4.1577   -1.6043    1.3866 H   0  0  0  0  0  0  0  0  0  0  0  0
   -3.6807   -2.7523    0.1036 H   0  0  0  0  0  0  0  0  0  0  0  0
   -2.0477   -1.8543    1.1546 C   0  0  0  0  0  0  0  0  0  0  0  0
   -1.2227   -2.3443    1.9146 O   0  0  0  0  0  0  0  0  0  0  0  0
   -1.7517   -0.8483    0.3266 N   0  0  0  0  0  0  0  0  0  0  0  0
   -2.4847   -0.5123   -0.2804 H   0  0  0  0  0  0  0  0  0  0  0  0
   -0.4117   -0.2463    0.2186 C   0  0  1  0  0  0  0  0  0  0  0  0
    0.2987   -1.0391   -0.0285 H   0  0  0  0  0  0  0  0  0  0  0  0
   -0.4131    0.7505   -0.9636 C   0  0  0  0  0  0  0  0  0  0  0  0
   -0.9181    1.6663   -0.6464 H   0  0  0  0  0  0  0  0  0  0  0  0
    0.6182    1.0193   -1.2024 H   0  0  0  0  0  0  0  0  0  0  0  0
   -1.0728    0.2463   -2.2296 C   0  0  0  0  0  0  0  0  0  0  0  0
   -0.6796   -0.8677   -2.9458 N   0  3  0  0  0  0  0  0  0  0  0  0
    0.0675   -1.4993   -2.6430 H   0  0  0  0  0  0  0  0  0  0  0  0
   -1.4983   -1.0017   -4.0080 C   0  0  0  0  0  0  0  0  0  0  0  0
   -1.4428   -1.7964   -4.7492 H   0  0  0  0  0  0  0  0  0  0  0  0
   -2.4020    0.0038   -3.9821 N   0  0  0  0  0  0  0  0  0  0  0  0
   -3.1460    0.1554   -4.6582 H   0  0  0  0  0  0  0  0  0  0  0  0
   -2.1489    0.7971   -2.8716 C   0  0  0  0  0  0  0  0  0  0  0  0
   -2.6938    1.6848   -2.5624 H   0  0  0  0  0  0  0  0  0  0  0  0
    0.0470    0.3465    1.5629 C   0  0  0  0  0  0  0  0  0  0  0  0
    1.1854    0.1365    1.9846 O   0  0  0  0  0  0  0  0  0  0  0  0
   -0.8551    1.0750    2.2320 N   0  0  0  0  0  0  0  0  0  0  0  0
   -1.7594    1.2031    1.8040 H   0  0  0  0  0  0  0  0  0  0  0  0
   -0.6356    1.6998    3.5400 C   0  0  0  0  0  0  0  0  0  0  0  0
   -0.4284    2.7647    3.4168 H   0  0  0  0  0  0  0  0  0  0  0  0
   -1.5268    1.5885    4.1601 H   0  0  0  0  0  0  0  0  0  0  0  0
    0.2072    1.2358    4.0566 H   0  0  0  0  0  0  0  0  0  0  0  0
  5  6  2  0  0  0  0
  5  7  1  0  0  0  0
  2  3  1  0  0  0  0
  2  4  1  0  0  0  0
  2  5  1  0  0  0  0
  1  2  1  0  0  0  0
 23 24  2  0  0  0  0
 23 25  1  0  0  0  0
 21 22  1  0  0  0  0
 19 20  1  0  0  0  0
 19 21  1  0  0  0  0
 17 18  1  0  0  0  0
 17 19  1  0  0  0  0
 15 16  1  0  0  0  0
 15 17  2  0  0  0  0
 14 15  1  0  0  0  0
 14 21  2  0  0  0  0
 11 12  1  0  0  0  0
 11 13  1  0  0  0  0
 11 14  1  0  0  0  0
  9 10  1  0  0  0  0
  9 11  1  0  0  0  0
  9 23  1  0  0  0  0
  7  8  1  0  0  0  0
  7  9  1  0  0  0  0
 27 28  1  0  0  0  0
 27 29  1  0  0  0  0
 27 30  1  0  0  0  0
 25 26  1  0  0  0  0
 25 27  1  0  0  0  0
M  CHG  1  15   1
M  END
$$$$
default_name
  -OEChem-02102213163D

 30 30  0     1  0  0  0  0  0999 V2000
   -3.5507   -3.2183    1.8116 H   0  0  0  0  0  0  0  0  0  0  0  0
   -3.4597   -2.3913    1.1076 C   0  0  0  0  0  0  0  0  0  0  0  0
   -4.1577   -1.6043    1.3866 H   0  0  0  0  0  0  0  0  0  0  0  0
   -3.6807   -2.7523    0.1036 H   0  0  0  0  0  0  0  0  0  0  0  0
   -2.0477   -1.8543    1.1546 C   0  0  0  0  0  0  0  0  0  0  0  0
   -1.2227   -2.3443    1.9146 O   0  0  0  0  0  0  0  0  0  0  0  0
   -1.7517   -0.8483    0.3266 N   0  0  0  0  0  0  0  0  0  0  0  0
   -2.4847   -0.5123   -0.2804 H   0  0  0  0  0  0  0  0  0  0  0  0
   -0.4117   -0.2463    0.2186 C   0  0  1  0  0  0  0  0  0  0  0  0
    0.2987   -1.0391   -0.0285 H   0  0  0  0  0  0  0  0  0  0  0  0
   -0.4131    0.7505   -0.9636 C   0  0  0  0  0  0  0  0  0  0  0  0
   -0.9181    1.6663   -0.6464 H   0  0  0  0  0  0  0  0  0  0  0  0
    0.6182    1.0193   -1.2024 H   0  0  0  0  0  0  0  0  0  0  0  0
   -1.0728    0.2463   -2.2296 C   0  0  0  0  0  0  0  0  0  0  0  0
   -0.8842   -1.0047   -2.7846 N   0  3  0  0  0  0  0  0  0  0  0  0
   -0.3199   -1.7381   -2.3460 H   0  0  0  0  0  0  0  0  0  0  0  0
   -1.6317   -1.0914   -3.9028 C   0  0  0  0  0  0  0  0  0  0  0  0
   -1.6989   -1.9644   -4.5488 H   0  0  0  0  0  0  0  0  0  0  0  0
   -2.2897    0.0780   -4.0702 N   0  0  0  0  0  0  0  0  0  0  0  0
   -2.9297    0.2996   -4.8283 H   0  0  0  0  0  0  0  0  0  0  0  0
   -1.9499    0.9295   -3.0280 C   0  0  0  0  0  0  0  0  0  0  0  0
   -2.3061    1.9433   -2.8675 H   0  0  0  0  0  0  0  0  0  0  0  0
    0.0470    0.3465    1.5629 C   0  0  0  0  0  0  0  0  0  0  0  0
    1.1854    0.1365    1.9846 O   0  0  0  0  0  0  0  0  0  0  0  0
   -0.8551    1.0750    2.2320 N   0  0  0  0  0  0  0  0  0  0  0  0
   -1.7594    1.2031    1.8040 H   0  0  0  0  0  0  0  0  0  0  0  0
   -0.6356    1.6998    3.5400 C   0  0  0  0  0  0  0  0  0  0  0  0
   -0.4284    2.7647    3.4168 H   0  0  0  0  0  0  0  0  0  0  0  0
   -1.5268    1.5885    4.1601 H   0  0  0  0  0  0  0  0  0  0  0  0
    0.2072    1.2358    4.0566 H   0  0  0  0  0  0  0  0  0  0  0  0
  5  6  2  0  0  0  0
  5  7  1  0  0  0  0
  2  3  1  0  0  0  0
  2  4  1  0  0  0  0
  2  5  1  0  0  0  0
  1  2  1  0  0  0  0
 23 24  2  0  0  0  0
 23 25  1  0  0  0  0
 21 22  1  0  0  0  0
 19 20  1  0  0  0  0
 19 21  1  0  0  0  0
 17 18  1  0  0  0  0
 17 19  1  0  0  0  0
 15 16  1  0  0  0  0
 15 17  2  0  0  0  0
 14 15  1  0  0  0  0
 14 21  2  0  0  0  0
 11 12  1  0  0  0  0
 11 13  1  0  0  0  0
 11 14  1  0  0  0  0
  9 10  1  0  0  0  0
  9 11  1  0  0  0  0
  9 23  1  0  0  0  0
  7  8  1  0  0  0  0
  7  9  1  0  0  0  0
 27 28  1  0  0  0  0
 27 29  1  0  0  0  0
 27 30  1  0  0  0  0
 25 26  1  0  0  0  0
 25 27  1  0  0  0  0
M  CHG  1  15   1
M  END
$$$$
default_name
  -OEChem-02102213163D

 30 30  0     1  0  0  0  0  0999 V2000
   -3.5507   -3.2183    1.8116 H   0  0  0  0  0  0  0  0  0  0  0  0
   -3.4597   -2.3913    1.1076 C   0  0  0  0  0  0  0  0  0  0  0  0
   -4.1577   -1.6043    1.3866 H   0  0  0  0  0  0  0  0  0  0  0  0
   -3.6807   -2.7523    0.1036 H   0  0  0  0  0  0  0  0  0  0  0  0
   -2.0477   -1.8543    1.1546 C   0  0  0  0  0  0  0  0  0  0  0  0
   -1.2227   -2.3443    1.9146 O   0  0  0  0  0  0  0  0  0  0  0  0
   -1.7517   -0.8483    0.3266 N   0  0  0  0  0  0  0  0  0  0  0  0
   -2.4847   -0.5123   -0.2804 H   0  0  0  0  0  0  0  0  0  0  0  0
   -0.4117   -0.2463    0.2186 C   0  0  1  0  0  0  0  0  0  0  0  0
    0.2987   -1.0391   -0.0285 H   0  0  0  0  0  0  0  0  0  0  0  0
   -0.4131    0.7505   -0.9636 C   0  0  0  0  0  0  0  0  0  0  0  0
   -0.9181    1.6663   -0.6464 H   0  0  0  0  0  0  0  0  0  0  0  0
    0.6182    1.0193   -1.2024 H   0  0  0  0  0  0  0  0  0  0  0  0
   -1.0728    0.2463   -2.2296 C   0  0  0  0  0  0  0  0  0  0  0  0
   -1.1254   -1.0745   -2.6311 N   0  3  0  0  0  0  0  0  0  0  0  0
   -0.7714   -1.8514   -2.0656 H   0  0  0  0  0  0  0  0  0  0  0  0
   -1.7889   -1.1373   -3.8026 C   0  0  0  0  0  0  0  0  0  0  0  0
   -1.9999   -2.0486   -4.3584 H   0  0  0  0  0  0  0  0  0  0  0  0
   -2.1576    0.1154   -4.1539 N   0  0  0  0  0  0  0  0  0  0  0  0
   -2.6750    0.3729   -4.9903 H   0  0  0  0  0  0  0  0  0  0  0  0
   -1.7156    0.9966   -3.1769 C   0  0  0  0  0  0  0  0  0  0  0  0
   -1.8493    2.0747   -3.1578 H   0  0  0  0  0  0  0  0  0  0  0  0
    0.0470    0.3465    1.5629 C   0  0  0  0  0  0  0  0  0  0  0  0
    1.1854    0.1365    1.9846 O   0  0  0  0  0  0  0  0  0  0  0  0
   -0.8551    1.0750    2.2320 N   0  0  0  0  0  0  0  0  0  0  0  0
   -1.7594    1.2031    1.8040 H   0  0  0  0  0  0  0  0  0  0  0  0
   -0.6356    1.6998    3.5400 C   0  0  0  0  0  0  0  0  0  0  0  0
   -0.4284    2.7647    3.4168 H   0  0  0  0  0  0  0  0  0  0  0  0
   -1.5268    1.5885    4.1601 H   0  0  0  0  0  0  0  0  0  0  0  0
    0.2072    1.2358    4.0566 H   0  0  0  0  0  0  0  0  0  0  0  0
  5  6  2  0  0  0  0
  5  7  1  0  0  0  0
  2  3  1  0  0  0  0
  2  4  1  0  0  0  0
  2  5  1  0  0  0  0
  1  2  1  0  0  0  0
 23 24  2  0  0  0  0
 23 25  1  0  0  0  0
 21 22  1  0  0  0  0
 19 20  1  0  0  0  0
 19 21  1  0  0  0  0
 17 18  1  0  0  0  0
 17 19  1  0  0  0  0
 15 16  1  0  0  0  0
 15 17  2  0  0  0  0
 14 15  1  0  0  0  0
 14 21  2  0  0  0  0
 11 12  1  0  0  0  0
 11 13  1  0  0  0  0
 11 14  1  0  0  0  0
  9 10  1  0  0  0  0
  9 11  1  0  0  0  0
  9 23  1  0  0  0  0
  7  8  1  0  0  0  0
  7  9  1  0  0  0  0
 27 28  1  0  0  0  0
 27 29  1  0  0  0  0
 27 30  1  0  0  0  0
 25 26  1  0  0  0  0
 25 27  1  0  0  0  0
M  CHG  1  15   1
M  END
$$$$
default_name
  -OEChem-02102213163D

 30 30  0     1  0  0  0  0  0999 V2000
   -3.5507   -3.2183    1.8116 H   0  0  0  0  0  0  0  0  0  0  0  0
   -3.4597   -2.3913    1.1076 C   0  0  0  0  0  0  0  0  0  0  0  0
   -4.1577   -1.6043    1.3866 H   0  0  0  0  0  0  0  0  0  0  0  0
   -3.6807   -2.7523    0.1036 H   0  0  0  0  0  0  0  0  0  0  0  0
   -2.0477   -1.8543    1.1546 C   0  0  0  0  0  0  0  0  0  0  0  0
   -1.2227   -2.3443    1.9146 O   0  0  0  0  0  0  0  0  0  0  0  0
   -1.7517   -0.8483    0.3266 N   0  0  0  0  0  0  0  0  0  0  0  0
   -2.4847   -0.5123   -0.2804 H   0  0  0  0  0  0  0  0  0  0  0  0
   -0.4117   -0.2463    0.2186 C   0  0  1  0  0  0  0  0  0  0  0  0
    0.2987   -1.0391   -0.0285 H   0  0  0  0  0  0  0  0  0  0  0  0
   -0.4131    0.7505   -0.9636 C   0  0  0  0  0  0  0  0  0  0  0  0
   -0.9181    1.6663   -0.6464 H   0  0  0  0  0  0  0  0  0  0  0  0
    0.6182    1.0193   -1.2024 H   0  0  0  0  0  0  0  0  0  0  0  0
   -1.0728    0.2463   -2.2296 C   0  0  0  0  0  0  0  0  0  0  0  0
   -1.3867   -1.0725   -2.4957 N   0  3  0  0  0  0  0  0  0  0  0  0
   -1.2562   -1.8316   -1.8209 H   0  0  0  0  0  0  0  0  0  0  0  0
   -1.9594   -1.1362   -3.7141 C   0  0  0  0  0  0  0  0  0  0  0  0
   -2.3253   -2.0433   -4.1910 H   0  0  0  0  0  0  0  0  0  0  0  0
   -2.0147    0.1134   -4.2276 N   0  0  0  0  0  0  0  0  0  0  0  0
   -2.3991    0.3703   -5.1330 H   0  0  0  0  0  0  0  0  0  0  0  0
   -1.4619    0.9940   -3.3081 C   0  0  0  0  0  0  0  0  0  0  0  0
   -1.3547    2.0700   -3.4138 H   0  0  0  0  0  0  0  0  0  0  0  0
    0.0470    0.3465    1.5629 C   0  0  0  0  0  0  0  0  0  0  0  0
    1.1854    0.1365    1.9846 O   0  0  0  0  0  0  0  0  0  0  0  0
   -0.8551    1.0750    2.2320 N   0  0  0  0  0  0  0  0  0  0  0  0
   -1.7594    1.2031    1.8040 H   0  0  0  0  0  0  0  0  0  0  0  0
   -0.6356    1.6998    3.5400 C   0  0  0  0  0  0  0  0  0  0  0  0
   -0.4284    2.7647    3.4168 H   0  0  0  0  0  0  0  0  0  0  0  0
   -1.5268    1.5885    4.1601 H   0  0  0  0  0  0  0  0  0  0  0  0
    0.2072    1.2358    4.0566 H   0  0  0  0  0  0  0  0  0  0  0  0
  5  6  2  0  0  0  0
  5  7  1  0  0  0  0
  2  3  1  0  0  0  0
  2  4  1  0  0  0  0
  2  5  1  0  0  0  0
  1  2  1  0  0  0  0
 23 24  2  0  0  0  0
 23 25  1  0  0  0  0
 21 22  1  0  0  0  0
 19 20  1  0  0  0  0
 19 21  1  0  0  0  0
 17 18  1  0  0  0  0
 17 19  1  0  0  0  0
 15 16  1  0  0  0  0
 15 17  2  0  0  0  0
 14 15  1  0  0  0  0
 14 21  2  0  0  0  0
 11 12  1  0  0  0  0
 11 13  1  0  0  0  0
 11 14  1  0  0  0  0
  9 10  1  0  0  0  0
  9 11  1  0  0  0  0
  9 23  1  0  0  0  0
  7  8  1  0  0  0  0
  7  9  1  0  0  0  0
 27 28  1  0  0  0  0
 27 29  1  0  0  0  0
 27 30  1  0  0  0  0
 25 26  1  0  0  0  0
 25 27  1  0  0  0  0
M  CHG  1  15   1
M  END
$$$$
default_name
  -OEChem-02102213163D

 30 30  0     1  0  0  0  0  0999 V2000
   -3.5507   -3.2183    1.8116 H   0  0  0  0  0  0  0  0  0  0  0  0
   -3.4597   -2.3913    1.1076 C   0  0  0  0  0  0  0  0  0  0  0  0
   -4.1577   -1.6043    1.3866 H   0  0  0  0  0  0  0  0  0  0  0  0
   -3.6807   -2.7523    0.1036 H   0  0  0  0  0  0  0  0  0  0  0  0
   -2.0477   -1.8543    1.1546 C   0  0  0  0  0  0  0  0  0  0  0  0
   -1.2227   -2.3443    1.9146 O   0  0  0  0  0  0  0  0  0  0  0  0
   -1.7517   -0.8483    0.3266 N   0  0  0  0  0  0  0  0  0  0  0  0
   -2.4847   -0.5123   -0.2804 H   0  0  0  0  0  0  0  0  0  0  0  0
   -0.4117   -0.2463    0.2186 C   0  0  1  0  0  0  0  0  0  0  0  0
    0.2987   -1.0391   -0.0285 H   0  0  0  0  0  0  0  0  0  0  0  0
   -0.4131    0.7505   -0.9636 C   0  0  0  0  0  0  0  0  0  0  0  0
   -0.9181    1.6663   -0.6464 H   0  0  0  0  0  0  0  0  0  0  0  0
    0.6182    1.0193   -1.2024 H   0  0  0  0  0  0  0  0  0  0  0  0
   -1.0728    0.2463   -2.2296 C   0  0  0  0  0  0  0  0  0  0  0  0
   -1.6504   -0.9987   -2.3877 N   0  3  0  0  0  0  0  0  0  0  0  0
   -1.7412   -1.6799   -1.6285 H   0  0  0  0  0  0  0  0  0  0  0  0
   -2.1315   -1.0884   -3.6435 C   0  0  0  0  0  0  0  0  0  0  0  0
   -2.6529   -1.9489   -4.0578 H   0  0  0  0  0  0  0  0  0  0  0  0
   -1.8707    0.0723   -4.2863 N   0  0  0  0  0  0  0  0  0  0  0  0
   -2.1208    0.2920   -5.2469 H   0  0  0  0  0  0  0  0  0  0  0  0
   -1.2061    0.9218   -3.4126 C   0  0  0  0  0  0  0  0  0  0  0  0
   -0.8558    1.9296   -3.6178 H   0  0  0  0  0  0  0  0  0  0  0  0
    0.0470    0.3465    1.5629 C   0  0  0  0  0  0  0  0  0  0  0  0
    1.1854    0.1365    1.9846 O   0  0  0  0  0  0  0  0  0  0  0  0
   -0.8551    1.0750    2.2320 N   0  0  0  0  0  0  0  0  0  0  0  0
   -1.7594    1.2031    1.8040 H   0  0  0  0  0  0  0  0  0  0  0  0
   -0.6356    1.6998    3.5400 C   0  0  0  0  0  0  0  0  0  0  0  0
   -0.4284    2.7647    3.4168 H   0  0  0  0  0  0  0  0  0  0  0  0
   -1.5268    1.5885    4.1601 H   0  0  0  0  0  0  0  0  0  0  0  0
    0.2072    1.2358    4.0566 H   0  0  0  0  0  0  0  0  0  0  0  0
  5  6  2  0  0  0  0
  5  7  1  0  0  0  0
  2  3  1  0  0  0  0
  2  4  1  0  0  0  0
  2  5  1  0  0  0  0
  1  2  1  0  0  0  0
 23 24  2  0  0  0  0
 23 25  1  0  0  0  0
 21 22  1  0  0  0  0
 19 20  1  0  0  0  0
 19 21  1  0  0  0  0
 17 18  1  0  0  0  0
 17 19  1  0  0  0  0
 15 16  1  0  0  0  0
 15 17  2  0  0  0  0
 14 15  1  0  0  0  0
 14 21  2  0  0  0  0
 11 12  1  0  0  0  0
 11 13  1  0  0  0  0
 11 14  1  0  0  0  0
  9 10  1  0  0  0  0
  9 11  1  0  0  0  0
  9 23  1  0  0  0  0
  7  8  1  0  0  0  0
  7  9  1  0  0  0  0
 27 28  1  0  0  0  0
 27 29  1  0  0  0  0
 27 30  1  0  0  0  0
 25 26  1  0  0  0  0
 25 27  1  0  0  0  0
M  CHG  1  15   1
M  END
$$$$
default_name
  -OEChem-02102213163D

 30 30  0     1  0  0  0  0  0999 V2000
   -3.5507   -3.2183    1.8116 H   0  0  0  0  0  0  0  0  0  0  0  0
   -3.4597   -2.3913    1.1076 C   0  0  0  0  0  0  0  0  0  0  0  0
   -4.1577   -1.6043    1.3866 H   0  0  0  0  0  0  0  0  0  0  0  0
   -3.6807   -2.7523    0.1036 H   0  0  0  0  0  0  0  0  0  0  0  0
   -2.0477   -1.8543    1.1546 C   0  0  0  0  0  0  0  0  0  0  0  0
   -1.2227   -2.3443    1.9146 O   0  0  0  0  0  0  0  0  0  0  0  0
   -1.7517   -0.8483    0.3266 N   0  0  0  0  0  0  0  0  0  0  0  0
   -2.4847   -0.5123   -0.2804 H   0  0  0  0  0  0  0  0  0  0  0  0
   -0.4117   -0.2463    0.2186 C   0  0  1  0  0  0  0  0  0  0  0  0
    0.2987   -1.0391   -0.0285 H   0  0  0  0  0  0  0  0  0  0  0  0
   -0.4131    0.7505   -0.9636 C   0  0  0  0  0  0  0  0  0  0  0  0
   -0.9181    1.6663   -0.6464 H   0  0  0  0  0  0  0  0  0  0  0  0
    0.6182    1.0193   -1.2024 H   0  0  0  0  0  0  0  0  0  0  0  0
   -1.0728    0.2463   -2.2296 C   0  0  0  0  0  0  0  0  0  0  0  0
   -1.8984   -0.8581   -2.3144 N   0  3  0  0  0  0  0  0  0  0  0  0
   -2.1935   -1.4067   -1.5016 H   0  0  0  0  0  0  0  0  0  0  0  0
   -2.2934   -0.9970   -3.5955 C   0  0  0  0  0  0  0  0  0  0  0  0
   -2.9603   -1.7719   -3.9681 H   0  0  0  0  0  0  0  0  0  0  0  0
   -1.7355   -0.0051   -4.3259 N   0  0  0  0  0  0  0  0  0  0  0  0
   -1.8592    0.1433   -5.3240 H   0  0  0  0  0  0  0  0  0  0  0  0
   -0.9656    0.7848   -3.4834 C   0  0  0  0  0  0  0  0  0  0  0  0
   -0.3868    1.6629   -3.7561 H   0  0  0  0  0  0  0  0  0  0  0  0
    0.0470    0.3465    1.5629 C   0  0  0  0  0  0  0  0  0  0  0  0
    1.1854    0.1365    1.9846 O   0  0  0  0  0  0  0  0  0  0  0  0
   -0.8551    1.0750    2.2320 N   0  0  0  0  0  0  0  0  0  0  0  0
   -1.7594    1.2031    1.8040 H   0  0  0  0  0  0  0  0  0  0  0  0
   -0.6356    1.6998    3.5400 C   0  0  0  0  0  0  0  0  0  0  0  0
   -0.4284    2.7647    3.4168 H   0  0  0  0  0  0  0  0  0  0  0  0
   -1.5268    1.5885    4.1601 H   0  0  0  0  0  0  0  0  0  0  0  0
    0.2072    1.2358    4.0566 H   0  0  0  0  0  0  0  0  0  0  0  0
  5  6  2  0  0  0  0
  5  7  1  0  0  0  0
  2  3  1  0  0  0  0
  2  4  1  0  0  0  0
  2  5  1  0  0  0  0
  1  2  1  0  0  0  0
 23 24  2  0  0  0  0
 23 25  1  0  0  0  0
 21 22  1  0  0  0  0
 19 20  1  0  0  0  0
 19 21  1  0  0  0  0
 17 18  1  0  0  0  0
 17 19  1  0  0  0  0
 15 16  1  0  0  0  0
 15 17  2  0  0  0  0
 14 15  1  0  0  0  0
 14 21  2  0  0  0  0
 11 12  1  0  0  0  0
 11 13  1  0  0  0  0
 11 14  1  0  0  0  0
  9 10  1  0  0  0  0
  9 11  1  0  0  0  0
  9 23  1  0  0  0  0
  7  8  1  0  0  0  0
  7  9  1  0  0  0  0
 27 28  1  0  0  0  0
 27 29  1  0  0  0  0
 27 30  1  0  0  0  0
 25 26  1  0  0  0  0
 25 27  1  0  0  0  0
M  CHG  1  15   1
M  END
$$$$
default_name
  -OEChem-02102213163D

 30 30  0     1  0  0  0  0  0999 V2000
   -3.5507   -3.2183    1.8116 H   0  0  0  0  0  0  0  0  0  0  0  0
   -3.4597   -2.3913    1.1076 C   0  0  0  0  0  0  0  0  0  0  0  0
   -4.1577   -1.6043    1.3866 H   0  0  0  0  0  0  0  0  0  0  0  0
   -3.6807   -2.7523    0.1036 H   0  0  0  0  0  0  0  0  0  0  0  0
   -2.0477   -1.8543    1.1546 C   0  0  0  0  0  0  0  0  0  0  0  0
   -1.2227   -2.3443    1.9146 O   0  0  0  0  0  0  0  0  0  0  0  0
   -1.7517   -0.8483    0.3266 N   0  0  0  0  0  0  0  0  0  0  0  0
   -2.4847   -0.5123   -0.2804 H   0  0  0  0  0  0  0  0  0  0  0  0
   -0.4117   -0.2463    0.2186 C   0  0  1  0  0  0  0  0  0  0  0  0
    0.2987   -1.0391   -0.0285 H   0  0  0  0  0  0  0  0  0  0  0  0
   -0.4131    0.7505   -0.9636 C   0  0  0  0  0  0  0  0  0  0  0  0
   -0.9181    1.6663   -0.6464 H   0  0  0  0  0  0  0  0  0  0  0  0
    0.6182    1.0193   -1.2024 H   0  0  0  0  0  0  0  0  0  0  0  0
   -1.0728    0.2463   -2.2296 C   0  0  0  0  0  0  0  0  0  0  0  0
   -2.1138   -0.6605   -2.2808 N   0  3  0  0  0  0  0  0  0  0  0  0
   -2.5822   -1.0306   -1.4488 H   0  0  0  0  0  0  0  0  0  0  0  0
   -2.4342   -0.8682   -3.5735 C   0  0  0  0  0  0  0  0  0  0  0  0
   -3.2267   -1.5241   -3.9279 H   0  0  0  0  0  0  0  0  0  0  0  0
   -1.6182   -0.1137   -4.3438 N   0  0  0  0  0  0  0  0  0  0  0  0
   -1.6320   -0.0657   -5.3592 H   0  0  0  0  0  0  0  0  0  0  0  0
   -0.7569    0.5925   -3.5156 C   0  0  0  0  0  0  0  0  0  0  0  0
    0.0205    1.2883   -3.8191 H   0  0  0  0  0  0  0  0  0  0  0  0
    0.0470    0.3465    1.5629 C   0  0  0  0  0  0  0  0  0  0  0  0
    1.1854    0.1365    1.9846 O   0  0  0  0  0  0  0  0  0  0  0  0
   -0.8551    1.0750    2.2320 N   0  0  0  0  0  0  0  0  0  0  0  0
   -1.7594    1.2031    1.8040 H   0  0  0  0  0  0  0  0  0  0  0  0
   -0.6356    1.6998    3.5400 C   0  0  0  0  0  0  0  0  0  0  0  0
   -0.4284    2.7647    3.4168 H   0  0  0  0  0  0  0  0  0  0  0  0
   -1.5268    1.5885    4.1601 H   0  0  0  0  0  0  0  0  0  0  0  0
    0.2072    1.2358    4.0566 H   0  0  0  0  0  0  0  0  0  0  0  0
  5  6  2  0  0  0  0
  5  7  1  0  0  0  0
  2  3  1  0  0  0  0
  2  4  1  0  0  0  0
  2  5  1  0  0  0  0
  1  2  1  0  0  0  0
 23 24  2  0  0  0  0
 23 25  1  0  0  0  0
 21 22  1  0  0  0  0
 19 20  1  0  0  0  0
 19 21  1  0  0  0  0
 17 18  1  0  0  0  0
 17 19  1  0  0  0  0
 15 16  1  0  0  0  0
 15 17  2  0  0  0  0
 14 15  1  0  0  0  0
 14 21  2  0  0  0  0
 11 12  1  0  0  0  0
 11 13  1  0  0  0  0
 11 14  1  0  0  0  0
  9 10  1  0  0  0  0
  9 11  1  0  0  0  0
  9 23  1  0  0  0  0
  7  8  1  0  0  0  0
  7  9  1  0  0  0  0
 27 28  1  0  0  0  0
 27 29  1  0  0  0  0
 27 30  1  0  0  0  0
 25 26  1  0  0  0  0
 25 27  1  0  0  0  0
M  CHG  1  15   1
M  END
$$$$
default_name
  -OEChem-02102213163D

 30 30  0     1  0  0  0  0  0999 V2000
   -3.5507   -3.2183    1.8116 H   0  0  0  0  0  0  0  0  0  0  0  0
   -3.4597   -2.3913    1.1076 C   0  0  0  0  0  0  0  0  0  0  0  0
   -4.1577   -1.6043    1.3866 H   0  0  0  0  0  0  0  0  0  0  0  0
   -3.6807   -2.7523    0.1036 H   0  0  0  0  0  0  0  0  0  0  0  0
   -2.0477   -1.8543    1.1546 C   0  0  0  0  0  0  0  0  0  0  0  0
   -1.2227   -2.3443    1.9146 O   0  0  0  0  0  0  0  0  0  0  0  0
   -1.7517   -0.8483    0.3266 N   0  0  0  0  0  0  0  0  0  0  0  0
   -2.4847   -0.5123   -0.2804 H   0  0  0  0  0  0  0  0  0  0  0  0
   -0.4117   -0.2463    0.2186 C   0  0  1  0  0  0  0  0  0  0  0  0
    0.2987   -1.0391   -0.0285 H   0  0  0  0  0  0  0  0  0  0  0  0
   -0.4131    0.7505   -0.9636 C   0  0  0  0  0  0  0  0  0  0  0  0
   -0.9181    1.6663   -0.6464 H   0  0  0  0  0  0  0  0  0  0  0  0
    0.6182    1.0193   -1.2024 H   0  0  0  0  0  0  0  0  0  0  0  0
   -1.0728    0.2463   -2.2296 C   0  0  0  0  0  0  0  0  0  0  0  0
   -2.2820   -0.4191   -2.2893 N   0  3  0  0  0  0  0  0  0  0  0  0
   -2.8808   -0.5772   -1.4737 H   0  0  0  0  0  0  0  0  0  0  0  0
   -2.5442   -0.7109   -3.5788 C   0  0  0  0  0  0  0  0  0  0  0  0
   -3.4339   -1.2227   -3.9400 H   0  0  0  0  0  0  0  0  0  0  0  0
   -1.5269   -0.2460   -4.3387 N   0  0  0  0  0  0  0  0  0  0  0  0
   -1.4548   -0.3206   -5.3500 H   0  0  0  0  0  0  0  0  0  0  0  0
   -0.5941    0.3579   -3.5070 C   0  0  0  0  0  0  0  0  0  0  0  0
    0.3382    0.8311   -3.8027 H   0  0  0  0  0  0  0  0  0  0  0  0
    0.0470    0.3465    1.5629 C   0  0  0  0  0  0  0  0  0  0  0  0
    1.1854    0.1365    1.9846 O   0  0  0  0  0  0  0  0  0  0  0  0
   -0.8551    1.0750    2.2320 N   0  0  0  0  0  0  0  0  0  0  0  0
   -1.7594    1.2031    1.8040 H   0  0  0  0  0  0  0  0  0  0  0  0
   -0.6356    1.6998    3.5400 C   0  0  0  0  0  0  0  0  0  0  0  0
   -0.4284    2.7647    3.4168 H   0  0  0  0  0  0  0  0  0  0  0  0
   -1.5268    1.5885    4.1601 H   0  0  0  0  0  0  0  0  0  0  0  0
    0.2072    1.2358    4.0566 H   0  0  0  0  0  0  0  0  0  0  0  0
  5  6  2  0  0  0  0
  5  7  1  0  0  0  0
  2  3  1  0  0  0  0
  2  4  1  0  0  0  0
  2  5  1  0  0  0  0
  1  2  1  0  0  0  0
 23 24  2  0  0  0  0
 23 25  1  0  0  0  0
 21 22  1  0  0  0  0
 19 20  1  0  0  0  0
 19 21  1  0  0  0  0
 17 18  1  0  0  0  0
 17 19  1  0  0  0  0
 15 16  1  0  0  0  0
 15 17  2  0  0  0  0
 14 15  1  0  0  0  0
 14 21  2  0  0  0  0
 11 12  1  0  0  0  0
 11 13  1  0  0  0  0
 11 14  1  0  0  0  0
  9 10  1  0  0  0  0
  9 11  1  0  0  0  0
  9 23  1  0  0  0  0
  7  8  1  0  0  0  0
  7  9  1  0  0  0  0
 27 28  1  0  0  0  0
 27 29  1  0  0  0  0
 27 30  1  0  0  0  0
 25 26  1  0  0  0  0
 25 27  1  0  0  0  0
M  CHG  1  15   1
M  END
$$$$
default_name
  -OEChem-02102213163D

 30 30  0     1  0  0  0  0  0999 V2000
   -3.5507   -3.2183    1.8116 H   0  0  0  0  0  0  0  0  0  0  0  0
   -3.4597   -2.3913    1.1076 C   0  0  0  0  0  0  0  0  0  0  0  0
   -4.1577   -1.6043    1.3866 H   0  0  0  0  0  0  0  0  0  0  0  0
   -3.6807   -2.7523    0.1036 H   0  0  0  0  0  0  0  0  0  0  0  0
   -2.0477   -1.8543    1.1546 C   0  0  0  0  0  0  0  0  0  0  0  0
   -1.2227   -2.3443    1.9146 O   0  0  0  0  0  0  0  0  0  0  0  0
   -1.7517   -0.8483    0.3266 N   0  0  0  0  0  0  0  0  0  0  0  0
   -2.4847   -0.5123   -0.2804 H   0  0  0  0  0  0  0  0  0  0  0  0
   -0.4117   -0.2463    0.2186 C   0  0  1  0  0  0  0  0  0  0  0  0
    0.2987   -1.0391   -0.0285 H   0  0  0  0  0  0  0  0  0  0  0  0
   -0.4131    0.7505   -0.9636 C   0  0  0  0  0  0  0  0  0  0  0  0
   -0.9181    1.6663   -0.6464 H   0  0  0  0  0  0  0  0  0  0  0  0
    0.6182    1.0193   -1.2024 H   0  0  0  0  0  0  0  0  0  0  0  0
   -1.0728    0.2463   -2.2296 C   0  0  0  0  0  0  0  0  0  0  0  0
   -2.3915   -0.1505   -2.3392 N   0  3  0  0  0  0  0  0  0  0  0  0
   -3.0690   -0.0775   -1.5747 H   0  0  0  0  0  0  0  0  0  0  0  0
   -2.6159   -0.5357   -3.6112 C   0  0  0  0  0  0  0  0  0  0  0  0
   -3.5677   -0.8880   -4.0035 H   0  0  0  0  0  0  0  0  0  0  0  0
   -1.4678   -0.3929   -4.3110 N   0  0  0  0  0  0  0  0  0  0  0  0
   -1.3396   -0.6042   -5.2971 H   0  0  0  0  0  0  0  0  0  0  0  0
   -0.4883    0.0971   -3.4583 C   0  0  0  0  0  0  0  0  0  0  0  0
    0.5448    0.3227   -3.7078 H   0  0  0  0  0  0  0  0  0  0  0  0
    0.0470    0.3465    1.5629 C   0  0  0  0  0  0  0  0  0  0  0  0
    1.1854    0.1365    1.9846 O   0  0  0  0  0  0  0  0  0  0  0  0
   -0.8551    1.0750    2.2320 N   0  0  0  0  0  0  0  0  0  0  0  0
   -1.7594    1.2031    1.8040 H   0  0  0  0  0  0  0  0  0  0  0  0
   -0.6356    1.6998    3.5400 C   0  0  0  0  0  0  0  0  0  0  0  0
   -0.4284    2.7647    3.4168 H   0  0  0  0  0  0  0  0  0  0  0  0
   -1.5268    1.5885    4.1601 H   0  0  0  0  0  0  0  0  0  0  0  0
    0.2072    1.2358    4.0566 H   0  0  0  0  0  0  0  0  0  0  0  0
  5  6  2  0  0  0  0
  5  7  1  0  0  0  0
  2  3  1  0  0  0  0
  2  4  1  0  0  0  0
  2  5  1  0  0  0  0
  1  2  1  0  0  0  0
 23 24  2  0  0  0  0
 23 25  1  0  0  0  0
 21 22  1  0  0  0  0
 19 20  1  0  0  0  0
 19 21  1  0  0  0  0
 17 18  1  0  0  0  0
 17 19  1  0  0  0  0
 15 16  1  0  0  0  0
 15 17  2  0  0  0  0
 14 15  1  0  0  0  0
 14 21  2  0  0  0  0
 11 12  1  0  0  0  0
 11 13  1  0  0  0  0
 11 14  1  0  0  0  0
  9 10  1  0  0  0  0
  9 11  1  0  0  0  0
  9 23  1  0  0  0  0
  7  8  1  0  0  0  0
  7  9  1  0  0  0  0
 27 28  1  0  0  0  0
 27 29  1  0  0  0  0
 27 30  1  0  0  0  0
 25 26  1  0  0  0  0
 25 27  1  0  0  0  0
M  CHG  1  15   1
M  END
$$$$
default_name
  -OEChem-02102213163D

 30 30  0     1  0  0  0  0  0999 V2000
   -3.5507   -3.2183    1.8116 H   0  0  0  0  0  0  0  0  0  0  0  0
   -3.4597   -2.3913    1.1076 C   0  0  0  0  0  0  0  0  0  0  0  0
   -4.1577   -1.6043    1.3866 H   0  0  0  0  0  0  0  0  0  0  0  0
   -3.6807   -2.7523    0.1036 H   0  0  0  0  0  0  0  0  0  0  0  0
   -2.0477   -1.8543    1.1546 C   0  0  0  0  0  0  0  0  0  0  0  0
   -1.2227   -2.3443    1.9146 O   0  0  0  0  0  0  0  0  0  0  0  0
   -1.7517   -0.8483    0.3266 N   0  0  0  0  0  0  0  0  0  0  0  0
   -2.4847   -0.5123   -0.2804 H   0  0  0  0  0  0  0  0  0  0  0  0
   -0.4117   -0.2463    0.2186 C   0  0  1  0  0  0  0  0  0  0  0  0
    0.2987   -1.0391   -0.0285 H   0  0  0  0  0  0  0  0  0  0  0  0
   -0.4131    0.7505   -0.9636 C   0  0  0  0  0  0  0  0  0  0  0  0
   -0.9181    1.6663   -0.6464 H   0  0  0  0  0  0  0  0  0  0  0  0
    0.6182    1.0193   -1.2024 H   0  0  0  0  0  0  0  0  0  0  0  0
   -1.0728    0.2463   -2.2296 C   0  0  0  0  0  0  0  0  0  0  0  0
   -2.4349    0.1270   -2.4271 N   0  3  0  0  0  0  0  0  0  0  0  0
   -3.1338    0.4345   -1.7447 H   0  0  0  0  0  0  0  0  0  0  0  0
   -2.6445   -0.3546   -3.6684 C   0  0  0  0  0  0  0  0  0  0  0  0
   -3.6191   -0.5429   -4.1142 H   0  0  0  0  0  0  0  0  0  0  0  0
   -1.4448   -0.5446   -4.2626 N   0  0  0  0  0  0  0  0  0  0  0  0
   -1.2942   -0.8972   -5.2041 H   0  0  0  0  0  0  0  0  0  0  0  0
   -0.4469   -0.1722   -3.3726 C   0  0  0  0  0  0  0  0  0  0  0  0
    0.6261   -0.2025   -3.5411 H   0  0  0  0  0  0  0  0  0  0  0  0
    0.0470    0.3465    1.5629 C   0  0  0  0  0  0  0  0  0  0  0  0
    1.1854    0.1365    1.9846 O   0  0  0  0  0  0  0  0  0  0  0  0
   -0.8551    1.0750    2.2320 N   0  0  0  0  0  0  0  0  0  0  0  0
   -1.7594    1.2031    1.8040 H   0  0  0  0  0  0  0  0  0  0  0  0
   -0.6356    1.6998    3.5400 C   0  0  0  0  0  0  0  0  0  0  0  0
   -0.4284    2.7647    3.4168 H   0  0  0  0  0  0  0  0  0  0  0  0
   -1.5268    1.5885    4.1601 H   0  0  0  0  0  0  0  0  0  0  0  0
    0.2072    1.2358    4.0566 H   0  0  0  0  0  0  0  0  0  0  0  0
  5  6  2  0  0  0  0
  5  7  1  0  0  0  0
  2  3  1  0  0  0  0
  2  4  1  0  0  0  0
  2  5  1  0  0  0  0
  1  2  1  0  0  0  0
 23 24  2  0  0  0  0
 23 25  1  0  0  0  0
 21 22  1  0  0  0  0
 19 20  1  0  0  0  0
 19 21  1  0  0  0  0
 17 18  1  0  0  0  0
 17 19  1  0  0  0  0
 15 16  1  0  0  0  0
 15 17  2  0  0  0  0
 14 15  1  0  0  0  0
 14 21  2  0  0  0  0
 11 12  1  0  0  0  0
 11 13  1  0  0  0  0
 11 14  1  0  0  0  0
  9 10  1  0  0  0  0
  9 11  1  0  0  0  0
  9 23  1  0  0  0  0
  7  8  1  0  0  0  0
  7  9  1  0  0  0  0
 27 28  1  0  0  0  0
 27 29  1  0  0  0  0
 27 30  1  0  0  0  0
 25 26  1  0  0  0  0
 25 27  1  0  0  0  0
M  CHG  1  15   1
M  END
$$$$
default_name
  -OEChem-02102213163D

 30 30  0     1  0  0  0  0  0999 V2000
   -3.5507   -3.2183    1.8116 H   0  0  0  0  0  0  0  0  0  0  0  0
   -3.4597   -2.3913    1.1076 C   0  0  0  0  0  0  0  0  0  0  0  0
   -4.1577   -1.6043    1.3866 H   0  0  0  0  0  0  0  0  0  0  0  0
   -3.6807   -2.7523    0.1036 H   0  0  0  0  0  0  0  0  0  0  0  0
   -2.0477   -1.8543    1.1546 C   0  0  0  0  0  0  0  0  0  0  0  0
   -1.2227   -2.3443    1.9146 O   0  0  0  0  0  0  0  0  0  0  0  0
   -1.7517   -0.8483    0.3266 N   0  0  0  0  0  0  0  0  0  0  0  0
   -2.4847   -0.5123   -0.2804 H   0  0  0  0  0  0  0  0  0  0  0  0
   -0.4117   -0.2463    0.2186 C   0  0  1  0  0  0  0  0  0  0  0  0
    0.2987   -1.0391   -0.0285 H   0  0  0  0  0  0  0  0  0  0  0  0
   -0.4131    0.7505   -0.9636 C   0  0  0  0  0  0  0  0  0  0  0  0
   -0.9181    1.6663   -0.6464 H   0  0  0  0  0  0  0  0  0  0  0  0
    0.6182    1.0193   -1.2024 H   0  0  0  0  0  0  0  0  0  0  0  0
   -1.0728    0.2463   -2.2296 C   0  0  0  0  0  0  0  0  0  0  0  0
   -2.4092    0.3945   -2.5470 N   0  3  0  0  0  0  0  0  0  0  0  0
   -3.0711    0.9240   -1.9724 H   0  0  0  0  0  0  0  0  0  0  0  0
   -2.6280   -0.1800   -3.7465 C   0  0  0  0  0  0  0  0  0  0  0  0
   -3.5845   -0.2110   -4.2644 H   0  0  0  0  0  0  0  0  0  0  0  0
   -1.4596   -0.6905   -4.1967 N   0  0  0  0  0  0  0  0  0  0  0  0
   -1.3218   -1.1794   -5.0773 H   0  0  0  0  0  0  0  0  0  0  0  0
   -0.4725   -0.4317   -3.2560 C   0  0  0  0  0  0  0  0  0  0  0  0
    0.5766   -0.7085   -3.3137 H   0  0  0  0  0  0  0  0  0  0  0  0
    0.0470    0.3465    1.5629 C   0  0  0  0  0  0  0  0  0  0  0  0
    1.1854    0.1365    1.9846 O   0  0  0  0  0  0  0  0  0  0  0  0
   -0.8551    1.0750    2.2320 N   0  0  0  0  0  0  0  0  0  0  0  0
   -1.7594    1.2031    1.8040 H   0  0  0  0  0  0  0  0  0  0  0  0
   -0.6356    1.6998    3.5400 C   0  0  0  0  0  0  0  0  0  0  0  0
   -0.4284    2.7647    3.4168 H   0  0  0  0  0  0  0  0  0  0  0  0
   -1.5268    1.5885    4.1601 H   0  0  0  0  0  0  0  0  0  0  0  0
    0.2072    1.2358    4.0566 H   0  0  0  0  0  0  0  0  0  0  0  0
  5  6  2  0  0  0  0
  5  7  1  0  0  0  0
  2  3  1  0  0  0  0
  2  4  1  0  0  0  0
  2  5  1  0  0  0  0
  1  2  1  0  0  0  0
 23 24  2  0  0  0  0
 23 25  1  0  0  0  0
 21 22  1  0  0  0  0
 19 20  1  0  0  0  0
 19 21  1  0  0  0  0
 17 18  1  0  0  0  0
 17 19  1  0  0  0  0
 15 16  1  0  0  0  0
 15 17  2  0  0  0  0
 14 15  1  0  0  0  0
 14 21  2  0  0  0  0
 11 12  1  0  0  0  0
 11 13  1  0  0  0  0
 11 14  1  0  0  0  0
  9 10  1  0  0  0  0
  9 11  1  0  0  0  0
  9 23  1  0  0  0  0
  7  8  1  0  0  0  0
  7  9  1  0  0  0  0
 27 28  1  0  0  0  0
 27 29  1  0  0  0  0
 27 30  1  0  0  0  0
 25 26  1  0  0  0  0
 25 27  1  0  0  0  0
M  CHG  1  15   1
M  END
$$$$
default_name
  -OEChem-02102213163D

 30 30  0     1  0  0  0  0  0999 V2000
   -3.5507   -3.2183    1.8116 H   0  0  0  0  0  0  0  0  0  0  0  0
   -3.4597   -2.3913    1.1076 C   0  0  0  0  0  0  0  0  0  0  0  0
   -4.1577   -1.6043    1.3866 H   0  0  0  0  0  0  0  0  0  0  0  0
   -3.6807   -2.7523    0.1036 H   0  0  0  0  0  0  0  0  0  0  0  0
   -2.0477   -1.8543    1.1546 C   0  0  0  0  0  0  0  0  0  0  0  0
   -1.2227   -2.3443    1.9146 O   0  0  0  0  0  0  0  0  0  0  0  0
   -1.7517   -0.8483    0.3266 N   0  0  0  0  0  0  0  0  0  0  0  0
   -2.4847   -0.5123   -0.2804 H   0  0  0  0  0  0  0  0  0  0  0  0
   -0.4117   -0.2463    0.2186 C   0  0  1  0  0  0  0  0  0  0  0  0
    0.2987   -1.0391   -0.0285 H   0  0  0  0  0  0  0  0  0  0  0  0
   -0.4131    0.7505   -0.9636 C   0  0  0  0  0  0  0  0  0  0  0  0
   -0.9181    1.6663   -0.6464 H   0  0  0  0  0  0  0  0  0  0  0  0
    0.6182    1.0193   -1.2024 H   0  0  0  0  0  0  0  0  0  0  0  0
   -1.0728    0.2463   -2.2296 C   0  0  0  0  0  0  0  0  0  0  0  0
   -2.3161    0.6338   -2.6908 N   0  3  0  0  0  0  0  0  0  0  0  0
   -2.8849    1.3575   -2.2421 H   0  0  0  0  0  0  0  0  0  0  0  0
   -2.5676   -0.0237   -3.8403 C   0  0  0  0  0  0  0  0  0  0  0  0
   -3.4663    0.0852   -4.4440 H   0  0  0  0  0  0  0  0  0  0  0  0
   -1.5112   -0.8209   -4.1179 N   0  0  0  0  0  0  0  0  0  0  0  0
   -1.4204   -1.4318   -4.9254 H   0  0  0  0  0  0  0  0  0  0  0  0
   -0.5634   -0.6636   -3.1162 C   0  0  0  0  0  0  0  0  0  0  0  0
    0.3997   -1.1610   -3.0414 H   0  0  0  0  0  0  0  0  0  0  0  0
    0.0470    0.3465    1.5629 C   0  0  0  0  0  0  0  0  0  0  0  0
    1.1854    0.1365    1.9846 O   0  0  0  0  0  0  0  0  0  0  0  0
   -0.8551    1.0750    2.2320 N   0  0  0  0  0  0  0  0  0  0  0  0
   -1.7594    1.2031    1.8040 H   0  0  0  0  0  0  0  0  0  0  0  0
   -0.6356    1.6998    3.5400 C   0  0  0  0  0  0  0  0  0  0  0  0
   -0.4284    2.7647    3.4168 H   0  0  0  0  0  0  0  0  0  0  0  0
   -1.5268    1.5885    4.1601 H   0  0  0  0  0  0  0  0  0  0  0  0
    0.2072    1.2358    4.0566 H   0  0  0  0  0  0  0  0  0  0  0  0
  5  6  2  0  0  0  0
  5  7  1  0  0  0  0
  2  3  1  0  0  0  0
  2  4  1  0  0  0  0
  2  5  1  0  0  0  0
  1  2  1  0  0  0  0
 23 24  2  0  0  0  0
 23 25  1  0  0  0  0
 21 22  1  0  0  0  0
 19 20  1  0  0  0  0
 19 21  1  0  0  0  0
 17 18  1  0  0  0  0
 17 19  1  0  0  0  0
 15 16  1  0  0  0  0
 15 17  2  0  0  0  0
 14 15  1  0  0  0  0
 14 21  2  0  0  0  0
 11 12  1  0  0  0  0
 11 13  1  0  0  0  0
 11 14  1  0  0  0  0
  9 10  1  0  0  0  0
  9 11  1  0  0  0  0
  9 23  1  0  0  0  0
  7  8  1  0  0  0  0
  7  9  1  0  0  0  0
 27 28  1  0  0  0  0
 27 29  1  0  0  0  0
 27 30  1  0  0  0  0
 25 26  1  0  0  0  0
 25 27  1  0  0  0  0
M  CHG  1  15   1
M  END
$$$$
default_name
  -OEChem-02102213163D

 30 30  0     1  0  0  0  0  0999 V2000
   -3.5507   -3.2183    1.8116 H   0  0  0  0  0  0  0  0  0  0  0  0
   -3.4597   -2.3913    1.1076 C   0  0  0  0  0  0  0  0  0  0  0  0
   -4.1577   -1.6043    1.3866 H   0  0  0  0  0  0  0  0  0  0  0  0
   -3.6807   -2.7523    0.1036 H   0  0  0  0  0  0  0  0  0  0  0  0
   -2.0477   -1.8543    1.1546 C   0  0  0  0  0  0  0  0  0  0  0  0
   -1.2227   -2.3443    1.9146 O   0  0  0  0  0  0  0  0  0  0  0  0
   -1.7517   -0.8483    0.3266 N   0  0  0  0  0  0  0  0  0  0  0  0
   -2.4847   -0.5123   -0.2804 H   0  0  0  0  0  0  0  0  0  0  0  0
   -0.4117   -0.2463    0.2186 C   0  0  1  0  0  0  0  0  0  0  0  0
    0.2987   -1.0391   -0.0285 H   0  0  0  0  0  0  0  0  0  0  0  0
   -0.4131    0.7505   -0.9636 C   0  0  0  0  0  0  0  0  0  0  0  0
   -0.9181    1.6663   -0.6464 H   0  0  0  0  0  0  0  0  0  0  0  0
    0.6182    1.0193   -1.2024 H   0  0  0  0  0  0  0  0  0  0  0  0
   -1.0728    0.2463   -2.2296 C   0  0  0  0  0  0  0  0  0  0  0  0
   -2.1619    0.8285   -2.8487 N   0  3  0  0  0  0  0  0  0  0  0  0
   -2.5880    1.7055   -2.5354 H   0  0  0  0  0  0  0  0  0  0  0  0
   -2.4672    0.1037   -3.9433 C   0  0  0  0  0  0  0  0  0  0  0  0
   -3.2725    0.3255   -4.6406 H   0  0  0  0  0  0  0  0  0  0  0  0
   -1.5961   -0.9267   -4.0316 N   0  0  0  0  0  0  0  0  0  0  0  0
   -1.5834   -1.6371   -4.7587 H   0  0  0  0  0  0  0  0  0  0  0  0
   -0.7135   -0.8522   -2.9629 C   0  0  0  0  0  0  0  0  0  0  0  0
    0.1074   -1.5290   -2.7425 H   0  0  0  0  0  0  0  0  0  0  0  0
    0.0470    0.3465    1.5629 C   0  0  0  0  0  0  0  0  0  0  0  0
    1.1854    0.1365    1.9846 O   0  0  0  0  0  0  0  0  0  0  0  0
   -0.8551    1.0750    2.2320 N   0  0  0  0  0  0  0  0  0  0  0  0
   -1.7594    1.2031    1.8040 H   0  0  0  0  0  0  0  0  0  0  0  0
   -0.6356    1.6998    3.5400 C   0  0  0  0  0  0  0  0  0  0  0  0
   -0.4284    2.7647    3.4168 H   0  0  0  0  0  0  0  0  0  0  0  0
   -1.5268    1.5885    4.1601 H   0  0  0  0  0  0  0  0  0  0  0  0
    0.2072    1.2358    4.0566 H   0  0  0  0  0  0  0  0  0  0  0  0
  5  6  2  0  0  0  0
  5  7  1  0  0  0  0
  2  3  1  0  0  0  0
  2  4  1  0  0  0  0
  2  5  1  0  0  0  0
  1  2  1  0  0  0  0
 23 24  2  0  0  0  0
 23 25  1  0  0  0  0
 21 22  1  0  0  0  0
 19 20  1  0  0  0  0
 19 21  1  0  0  0  0
 17 18  1  0  0  0  0
 17 19  1  0  0  0  0
 15 16  1  0  0  0  0
 15 17  2  0  0  0  0
 14 15  1  0  0  0  0
 14 21  2  0  0  0  0
 11 12  1  0  0  0  0
 11 13  1  0  0  0  0
 11 14  1  0  0  0  0
  9 10  1  0  0  0  0
  9 11  1  0  0  0  0
  9 23  1  0  0  0  0
  7  8  1  0  0  0  0
  7  9  1  0  0  0  0
 27 28  1  0  0  0  0
 27 29  1  0  0  0  0
 27 30  1  0  0  0  0
 25 26  1  0  0  0  0
 25 27  1  0  0  0  0
M  CHG  1  15   1
M  END
$$$$
default_name
  -OEChem-02102213163D

 30 30  0     1  0  0  0  0  0999 V2000
   -3.5507   -3.2183    1.8116 H   0  0  0  0  0  0  0  0  0  0  0  0
   -3.4597   -2.3913    1.1076 C   0  0  0  0  0  0  0  0  0  0  0  0
   -4.1577   -1.6043    1.3866 H   0  0  0  0  0  0  0  0  0  0  0  0
   -3.6807   -2.7523    0.1036 H   0  0  0  0  0  0  0  0  0  0  0  0
   -2.0477   -1.8543    1.1546 C   0  0  0  0  0  0  0  0  0  0  0  0
   -1.2227   -2.3443    1.9146 O   0  0  0  0  0  0  0  0  0  0  0  0
   -1.7517   -0.8483    0.3266 N   0  0  0  0  0  0  0  0  0  0  0  0
   -2.4847   -0.5123   -0.2804 H   0  0  0  0  0  0  0  0  0  0  0  0
   -0.4117   -0.2463    0.2186 C   0  0  1  0  0  0  0  0  0  0  0  0
    0.2987   -1.0391   -0.0285 H   0  0  0  0  0  0  0  0  0  0  0  0
   -0.4131    0.7505   -0.9636 C   0  0  0  0  0  0  0  0  0  0  0  0
   -0.9181    1.6663   -0.6464 H   0  0  0  0  0  0  0  0  0  0  0  0
    0.6182    1.0193   -1.2024 H   0  0  0  0  0  0  0  0  0  0  0  0
   -1.0728    0.2463   -2.2296 C   0  0  0  0  0  0  0  0  0  0  0  0
   -1.9573    0.9655   -3.0099 N   0  3  0  0  0  0  0  0  0  0  0  0
   -2.2006    1.9443   -2.8324 H   0  0  0  0  0  0  0  0  0  0  0  0
   -2.3339    0.1933   -4.0485 C   0  0  0  0  0  0  0  0  0  0  0  0
   -3.0164    0.4934   -4.8410 H   0  0  0  0  0  0  0  0  0  0  0  0
   -1.7084   -1.0009   -3.9435 N   0  0  0  0  0  0  0  0  0  0  0  0
   -1.7997   -1.7813   -4.5886 H   0  0  0  0  0  0  0  0  0  0  0  0
   -0.9125   -0.9846   -2.8065 C   0  0  0  0  0  0  0  0  0  0  0  0
   -0.2803   -1.7875   -2.4374 H   0  0  0  0  0  0  0  0  0  0  0  0
    0.0470    0.3465    1.5629 C   0  0  0  0  0  0  0  0  0  0  0  0
    1.1854    0.1365    1.9846 O   0  0  0  0  0  0  0  0  0  0  0  0
   -0.8551    1.0750    2.2320 N   0  0  0  0  0  0  0  0  0  0  0  0
   -1.7594    1.2031    1.8040 H   0  0  0  0  0  0  0  0  0  0  0  0
   -0.6356    1.6998    3.5400 C   0  0  0  0  0  0  0  0  0  0  0  0
   -0.4284    2.7647    3.4168 H   0  0  0  0  0  0  0  0  0  0  0  0
   -1.5268    1.5885    4.1601 H   0  0  0  0  0  0  0  0  0  0  0  0
    0.2072    1.2358    4.0566 H   0  0  0  0  0  0  0  0  0  0  0  0
  5  6  2  0  0  0  0
  5  7  1  0  0  0  0
  2  3  1  0  0  0  0
  2  4  1  0  0  0  0
  2  5  1  0  0  0  0
  1  2  1  0  0  0  0
 23 24  2  0  0  0  0
 23 25  1  0  0  0  0
 21 22  1  0  0  0  0
 19 20  1  0  0  0  0
 19 21  1  0  0  0  0
 17 18  1  0  0  0  0
 17 19  1  0  0  0  0
 15 16  1  0  0  0  0
 15 17  2  0  0  0  0
 14 15  1  0  0  0  0
 14 21  2  0  0  0  0
 11 12  1  0  0  0  0
 11 13  1  0  0  0  0
 11 14  1  0  0  0  0
  9 10  1  0  0  0  0
  9 11  1  0  0  0  0
  9 23  1  0  0  0  0
  7  8  1  0  0  0  0
  7  9  1  0  0  0  0
 27 28  1  0  0  0  0
 27 29  1  0  0  0  0
 27 30  1  0  0  0  0
 25 26  1  0  0  0  0
 25 27  1  0  0  0  0
M  CHG  1  15   1
M  END
$$$$
default_name
  -OEChem-02102213163D

 30 30  0     1  0  0  0  0  0999 V2000
   -3.5507   -3.2183    1.8116 H   0  0  0  0  0  0  0  0  0  0  0  0
   -3.4597   -2.3913    1.1076 C   0  0  0  0  0  0  0  0  0  0  0  0
   -4.1577   -1.6043    1.3866 H   0  0  0  0  0  0  0  0  0  0  0  0
   -3.6807   -2.7523    0.1036 H   0  0  0  0  0  0  0  0  0  0  0  0
   -2.0477   -1.8543    1.1546 C   0  0  0  0  0  0  0  0  0  0  0  0
   -1.2227   -2.3443    1.9146 O   0  0  0  0  0  0  0  0  0  0  0  0
   -1.7517   -0.8483    0.3266 N   0  0  0  0  0  0  0  0  0  0  0  0
   -2.4847   -0.5123   -0.2804 H   0  0  0  0  0  0  0  0  0  0  0  0
   -0.4117   -0.2463    0.2186 C   0  0  1  0  0  0  0  0  0  0  0  0
    0.2987   -1.0391   -0.0285 H   0  0  0  0  0  0  0  0  0  0  0  0
   -0.4131    0.7505   -0.9636 C   0  0  0  0  0  0  0  0  0  0  0  0
   -0.9181    1.6663   -0.6464 H   0  0  0  0  0  0  0  0  0  0  0  0
    0.6182    1.0193   -1.2024 H   0  0  0  0  0  0  0  0  0  0  0  0
   -1.0728    0.2463   -2.2296 C   0  0  0  0  0  0  0  0  0  0  0  0
   -1.7161    1.0354   -3.1634 N   0  3  0  0  0  0  0  0  0  0  0  0
   -1.7491    2.0576   -3.1128 H   0  0  0  0  0  0  0  0  0  0  0  0
   -2.1767    0.2392   -4.1487 C   0  0  0  0  0  0  0  0  0  0  0  0
   -2.7154    0.5777   -5.0314 H   0  0  0  0  0  0  0  0  0  0  0  0
   -1.8405   -1.0383   -3.8598 N   0  0  0  0  0  0  0  0  0  0  0  0
   -2.0544   -1.8546   -4.4266 H   0  0  0  0  0  0  0  0  0  0  0  0
   -1.1468   -1.0517   -2.6576 C   0  0  0  0  0  0  0  0  0  0  0  0
   -0.7371   -1.9189   -2.1471 H   0  0  0  0  0  0  0  0  0  0  0  0
    0.0470    0.3465    1.5629 C   0  0  0  0  0  0  0  0  0  0  0  0
    1.1854    0.1365    1.9846 O   0  0  0  0  0  0  0  0  0  0  0  0
   -0.8551    1.0750    2.2320 N   0  0  0  0  0  0  0  0  0  0  0  0
   -1.7594    1.2031    1.8040 H   0  0  0  0  0  0  0  0  0  0  0  0
   -0.6356    1.6998    3.5400 C   0  0  0  0  0  0  0  0  0  0  0  0
   -0.4284    2.7647    3.4168 H   0  0  0  0  0  0  0  0  0  0  0  0
   -1.5268    1.5885    4.1601 H   0  0  0  0  0  0  0  0  0  0  0  0
    0.2072    1.2358    4.0566 H   0  0  0  0  0  0  0  0  0  0  0  0
  5  6  2  0  0  0  0
  5  7  1  0  0  0  0
  2  3  1  0  0  0  0
  2  4  1  0  0  0  0
  2  5  1  0  0  0  0
  1  2  1  0  0  0  0
 23 24  2  0  0  0  0
 23 25  1  0  0  0  0
 21 22  1  0  0  0  0
 19 20  1  0  0  0  0
 19 21  1  0  0  0  0
 17 18  1  0  0  0  0
 17 19  1  0  0  0  0
 15 16  1  0  0  0  0
 15 17  2  0  0  0  0
 14 15  1  0  0  0  0
 14 21  2  0  0  0  0
 11 12  1  0  0  0  0
 11 13  1  0  0  0  0
 11 14  1  0  0  0  0
  9 10  1  0  0  0  0
  9 11  1  0  0  0  0
  9 23  1  0  0  0  0
  7  8  1  0  0  0  0
  7  9  1  0  0  0  0
 27 28  1  0  0  0  0
 27 29  1  0  0  0  0
 27 30  1  0  0  0  0
 25 26  1  0  0  0  0
 25 27  1  0  0  0  0
M  CHG  1  15   1
M  END
$$$$
default_name
  -OEChem-02102213163D

 30 30  0     1  0  0  0  0  0999 V2000
   -3.5507   -3.2183    1.8116 H   0  0  0  0  0  0  0  0  0  0  0  0
   -3.4597   -2.3913    1.1076 C   0  0  0  0  0  0  0  0  0  0  0  0
   -4.1577   -1.6043    1.3866 H   0  0  0  0  0  0  0  0  0  0  0  0
   -3.6807   -2.7523    0.1036 H   0  0  0  0  0  0  0  0  0  0  0  0
   -2.0477   -1.8543    1.1546 C   0  0  0  0  0  0  0  0  0  0  0  0
   -1.2227   -2.3443    1.9146 O   0  0  0  0  0  0  0  0  0  0  0  0
   -1.7517   -0.8483    0.3266 N   0  0  0  0  0  0  0  0  0  0  0  0
   -2.4847   -0.5123   -0.2804 H   0  0  0  0  0  0  0  0  0  0  0  0
   -0.4117   -0.2463    0.2186 C   0  0  1  0  0  0  0  0  0  0  0  0
    0.2987   -1.0391   -0.0285 H   0  0  0  0  0  0  0  0  0  0  0  0
   -0.4131    0.7505   -0.9636 C   0  0  0  0  0  0  0  0  0  0  0  0
   -0.9181    1.6663   -0.6464 H   0  0  0  0  0  0  0  0  0  0  0  0
    0.6182    1.0193   -1.2024 H   0  0  0  0  0  0  0  0  0  0  0  0
   -1.0728    0.2463   -2.2296 C   0  0  0  0  0  0  0  0  0  0  0  0
   -1.4548    1.0333   -3.2988 N   0  3  0  0  0  0  0  0  0  0  0  0
   -1.2643    2.0378   -3.3576 H   0  0  0  0  0  0  0  0  0  0  0  0
   -2.0062    0.2382   -4.2371 C   0  0  0  0  0  0  0  0  0  0  0  0
   -2.3900    0.5724   -5.1989 H   0  0  0  0  0  0  0  0  0  0  0  0
   -1.9834   -1.0363   -3.7860 N   0  0  0  0  0  0  0  0  0  0  0  0
   -2.3303   -1.8520   -4.2839 H   0  0  0  0  0  0  0  0  0  0  0  0
   -1.4005   -1.0491   -2.5264 C   0  0  0  0  0  0  0  0  0  0  0  0
   -1.2317   -1.9142   -1.8911 H   0  0  0  0  0  0  0  0  0  0  0  0
    0.0470    0.3465    1.5629 C   0  0  0  0  0  0  0  0  0  0  0  0
    1.1854    0.1365    1.9846 O   0  0  0  0  0  0  0  0  0  0  0  0
   -0.8551    1.0750    2.2320 N   0  0  0  0  0  0  0  0  0  0  0  0
   -1.7594    1.2031    1.8040 H   0  0  0  0  0  0  0  0  0  0  0  0
   -0.6356    1.6998    3.5400 C   0  0  0  0  0  0  0  0  0  0  0  0
   -0.4284    2.7647    3.4168 H   0  0  0  0  0  0  0  0  0  0  0  0
   -1.5268    1.5885    4.1601 H   0  0  0  0  0  0  0  0  0  0  0  0
    0.2072    1.2358    4.0566 H   0  0  0  0  0  0  0  0  0  0  0  0
  5  6  2  0  0  0  0
  5  7  1  0  0  0  0
  2  3  1  0  0  0  0
  2  4  1  0  0  0  0
  2  5  1  0  0  0  0
  1  2  1  0  0  0  0
 23 24  2  0  0  0  0
 23 25  1  0  0  0  0
 21 22  1  0  0  0  0
 19 20  1  0  0  0  0
 19 21  1  0  0  0  0
 17 18  1  0  0  0  0
 17 19  1  0  0  0  0
 15 16  1  0  0  0  0
 15 17  2  0  0  0  0
 14 15  1  0  0  0  0
 14 21  2  0  0  0  0
 11 12  1  0  0  0  0
 11 13  1  0  0  0  0
 11 14  1  0  0  0  0
  9 10  1  0  0  0  0
  9 11  1  0  0  0  0
  9 23  1  0  0  0  0
  7  8  1  0  0  0  0
  7  9  1  0  0  0  0
 27 28  1  0  0  0  0
 27 29  1  0  0  0  0
 27 30  1  0  0  0  0
 25 26  1  0  0  0  0
 25 27  1  0  0  0  0
M  CHG  1  15   1
M  END
$$$$
default_name
  -OEChem-02102213163D

 30 30  0     1  0  0  0  0  0999 V2000
   -3.5507   -3.2183    1.8116 H   0  0  0  0  0  0  0  0  0  0  0  0
   -3.4597   -2.3913    1.1076 C   0  0  0  0  0  0  0  0  0  0  0  0
   -4.1577   -1.6043    1.3866 H   0  0  0  0  0  0  0  0  0  0  0  0
   -3.6807   -2.7523    0.1036 H   0  0  0  0  0  0  0  0  0  0  0  0
   -2.0477   -1.8543    1.1546 C   0  0  0  0  0  0  0  0  0  0  0  0
   -1.2227   -2.3443    1.9146 O   0  0  0  0  0  0  0  0  0  0  0  0
   -1.7517   -0.8483    0.3266 N   0  0  0  0  0  0  0  0  0  0  0  0
   -2.4847   -0.5123   -0.2804 H   0  0  0  0  0  0  0  0  0  0  0  0
   -0.4117   -0.2463    0.2186 C   0  0  1  0  0  0  0  0  0  0  0  0
    0.2987   -1.0391   -0.0285 H   0  0  0  0  0  0  0  0  0  0  0  0
   -0.4131    0.7505   -0.9636 C   0  0  0  0  0  0  0  0  0  0  0  0
   -0.6668    1.7428   -0.5822 H   0  0  0  0  0  0  0  0  0  0  0  0
    0.5964    0.8138   -1.3756 H   0  0  0  0  0  0  0  0  0  0  0  0
   -1.3614    0.4079   -2.0931 C   0  0  0  0  0  0  0  0  0  0  0  0
   -1.5310    1.1498   -3.2460 N   0  3  0  0  0  0  0  0  0  0  0  0
   -0.9736    1.9788   -3.4716 H   0  0  0  0  0  0  0  0  0  0  0  0
   -2.4545    0.5381   -4.0138 C   0  0  0  0  0  0  0  0  0  0  0  0
   -2.7890    0.8822   -4.9904 H   0  0  0  0  0  0  0  0  0  0  0  0
   -2.8755   -0.5755   -3.3726 N   0  0  0  0  0  0  0  0  0  0  0  0
   -3.5682   -1.2358   -3.7155 H   0  0  0  0  0  0  0  0  0  0  0  0
   -2.1990   -0.6722   -2.1644 C   0  0  0  0  0  0  0  0  0  0  0  0
   -2.3058   -1.4508   -1.4141 H   0  0  0  0  0  0  0  0  0  0  0  0
    0.0470    0.3465    1.5629 C   0  0  0  0  0  0  0  0  0  0  0  0
    1.1854    0.1365    1.9846 O   0  0  0  0  0  0  0  0  0  0  0  0
   -0.8551    1.0750    2.2320 N   0  0  0  0  0  0  0  0  0  0  0  0
   -1.7594    1.2031    1.8040 H   0  0  0  0  0  0  0  0  0  0  0  0
   -0.6356    1.6998    3.5400 C   0  0  0  0  0  0  0  0  0  0  0  0
   -0.4284    2.7647    3.4168 H   0  0  0  0  0  0  0  0  0  0  0  0
   -1.5268    1.5885    4.1601 H   0  0  0  0  0  0  0  0  0  0  0  0
    0.2072    1.2358    4.0566 H   0  0  0  0  0  0  0  0  0  0  0  0
  5  6  2  0  0  0  0
  5  7  1  0  0  0  0
  2  3  1  0  0  0  0
  2  4  1  0  0  0  0
  2  5  1  0  0  0  0
  1  2  1  0  0  0  0
 23 24  2  0  0  0  0
 23 25  1  0  0  0  0
 21 22  1  0  0  0  0
 19 20  1  0  0  0  0
 19 21  1  0  0  0  0
 17 18  1  0  0  0  0
 17 19  1  0  0  0  0
 15 16  1  0  0  0  0
 15 17  2  0  0  0  0
 14 15  1  0  0  0  0
 14 21  2  0  0  0  0
 11 12  1  0  0  0  0
 11 13  1  0  0  0  0
 11 14  1  0  0  0  0
  9 10  1  0  0  0  0
  9 11  1  0  0  0  0
  9 23  1  0  0  0  0
  7  8  1  0  0  0  0
  7  9  1  0  0  0  0
 27 28  1  0  0  0  0
 27 29  1  0  0  0  0
 27 30  1  0  0  0  0
 25 26  1  0  0  0  0
 25 27  1  0  0  0  0
M  CHG  1  15   1
M  END
$$$$
default_name
  -OEChem-02102213163D

 30 30  0     1  0  0  0  0  0999 V2000
   -3.5507   -3.2183    1.8116 H   0  0  0  0  0  0  0  0  0  0  0  0
   -3.4597   -2.3913    1.1076 C   0  0  0  0  0  0  0  0  0  0  0  0
   -4.1577   -1.6043    1.3866 H   0  0  0  0  0  0  0  0  0  0  0  0
   -3.6807   -2.7523    0.1036 H   0  0  0  0  0  0  0  0  0  0  0  0
   -2.0477   -1.8543    1.1546 C   0  0  0  0  0  0  0  0  0  0  0  0
   -1.2227   -2.3443    1.9146 O   0  0  0  0  0  0  0  0  0  0  0  0
   -1.7517   -0.8483    0.3266 N   0  0  0  0  0  0  0  0  0  0  0  0
   -2.4847   -0.5123   -0.2804 H   0  0  0  0  0  0  0  0  0  0  0  0
   -0.4117   -0.2463    0.2186 C   0  0  1  0  0  0  0  0  0  0  0  0
    0.2987   -1.0391   -0.0285 H   0  0  0  0  0  0  0  0  0  0  0  0
   -0.4131    0.7505   -0.9636 C   0  0  0  0  0  0  0  0  0  0  0  0
   -0.6668    1.7428   -0.5822 H   0  0  0  0  0  0  0  0  0  0  0  0
    0.5964    0.8138   -1.3756 H   0  0  0  0  0  0  0  0  0  0  0  0
   -1.3614    0.4079   -2.0931 C   0  0  0  0  0  0  0  0  0  0  0  0
   -1.3315    0.9642   -3.3572 N   0  3  0  0  0  0  0  0  0  0  0  0
   -0.6120    1.6236   -3.6675 H   0  0  0  0  0  0  0  0  0  0  0  0
   -2.3242    0.4173   -4.0866 C   0  0  0  0  0  0  0  0  0  0  0  0
   -2.5420    0.6492   -5.1271 H   0  0  0  0  0  0  0  0  0  0  0  0
   -2.9842   -0.4734   -3.3123 N   0  0  0  0  0  0  0  0  0  0  0  0
   -3.7786   -1.0396   -3.5983 H   0  0  0  0  0  0  0  0  0  0  0  0
   -2.3924   -0.4916   -2.0569 C   0  0  0  0  0  0  0  0  0  0  0  0
   -2.6831   -1.0989   -1.2041 H   0  0  0  0  0  0  0  0  0  0  0  0
    0.0470    0.3465    1.5629 C   0  0  0  0  0  0  0  0  0  0  0  0
    1.1854    0.1365    1.9846 O   0  0  0  0  0  0  0  0  0  0  0  0
   -0.8551    1.0750    2.2320 N   0  0  0  0  0  0  0  0  0  0  0  0
   -1.7594    1.2031    1.8040 H   0  0  0  0  0  0  0  0  0  0  0  0
   -0.6356    1.6998    3.5400 C   0  0  0  0  0  0  0  0  0  0  0  0
   -0.4284    2.7647    3.4168 H   0  0  0  0  0  0  0  0  0  0  0  0
   -1.5268    1.5885    4.1601 H   0  0  0  0  0  0  0  0  0  0  0  0
    0.2072    1.2358    4.0566 H   0  0  0  0  0  0  0  0  0  0  0  0
  5  6  2  0  0  0  0
  5  7  1  0  0  0  0
  2  3  1  0  0  0  0
  2  4  1  0  0  0  0
  2  5  1  0  0  0  0
  1  2  1  0  0  0  0
 23 24  2  0  0  0  0
 23 25  1  0  0  0  0
 21 22  1  0  0  0  0
 19 20  1  0  0  0  0
 19 21  1  0  0  0  0
 17 18  1  0  0  0  0
 17 19  1  0  0  0  0
 15 16  1  0  0  0  0
 15 17  2  0  0  0  0
 14 15  1  0  0  0  0
 14 21  2  0  0  0  0
 11 12  1  0  0  0  0
 11 13  1  0  0  0  0
 11 14  1  0  0  0  0
  9 10  1  0  0  0  0
  9 11  1  0  0  0  0
  9 23  1  0  0  0  0
  7  8  1  0  0  0  0
  7  9  1  0  0  0  0
 27 28  1  0  0  0  0
 27 29  1  0  0  0  0
 27 30  1  0  0  0  0
 25 26  1  0  0  0  0
 25 27  1  0  0  0  0
M  CHG  1  15   1
M  END
$$$$
default_name
  -OEChem-02102213163D

 30 30  0     1  0  0  0  0  0999 V2000
   -3.5507   -3.2183    1.8116 H   0  0  0  0  0  0  0  0  0  0  0  0
   -3.4597   -2.3913    1.1076 C   0  0  0  0  0  0  0  0  0  0  0  0
   -4.1577   -1.6043    1.3866 H   0  0  0  0  0  0  0  0  0  0  0  0
   -3.6807   -2.7523    0.1036 H   0  0  0  0  0  0  0  0  0  0  0  0
   -2.0477   -1.8543    1.1546 C   0  0  0  0  0  0  0  0  0  0  0  0
   -1.2227   -2.3443    1.9146 O   0  0  0  0  0  0  0  0  0  0  0  0
   -1.7517   -0.8483    0.3266 N   0  0  0  0  0  0  0  0  0  0  0  0
   -2.4847   -0.5123   -0.2804 H   0  0  0  0  0  0  0  0  0  0  0  0
   -0.4117   -0.2463    0.2186 C   0  0  1  0  0  0  0  0  0  0  0  0
    0.2987   -1.0391   -0.0285 H   0  0  0  0  0  0  0  0  0  0  0  0
   -0.4131    0.7505   -0.9636 C   0  0  0  0  0  0  0  0  0  0  0  0
   -0.6668    1.7428   -0.5822 H   0  0  0  0  0  0  0  0  0  0  0  0
    0.5964    0.8138   -1.3756 H   0  0  0  0  0  0  0  0  0  0  0  0
   -1.3614    0.4079   -2.0931 C   0  0  0  0  0  0  0  0  0  0  0  0
   -1.1681    0.7284   -3.4229 N   0  3  0  0  0  0  0  0  0  0  0  0
   -0.3197    1.1789   -3.7780 H   0  0  0  0  0  0  0  0  0  0  0  0
   -2.2174    0.2636   -4.1296 C   0  0  0  0  0  0  0  0  0  0  0  0
   -2.3404    0.3544   -5.2070 H   0  0  0  0  0  0  0  0  0  0  0  0
   -3.0730   -0.3441   -3.2769 N   0  0  0  0  0  0  0  0  0  0  0  0
   -3.9508   -0.7904   -3.5293 H   0  0  0  0  0  0  0  0  0  0  0  0
   -2.5506   -0.2623   -1.9936 C   0  0  0  0  0  0  0  0  0  0  0  0
   -2.9918   -0.6522   -1.0804 H   0  0  0  0  0  0  0  0  0  0  0  0
    0.0470    0.3465    1.5629 C   0  0  0  0  0  0  0  0  0  0  0  0
    1.1854    0.1365    1.9846 O   0  0  0  0  0  0  0  0  0  0  0  0
   -0.8551    1.0750    2.2320 N   0  0  0  0  0  0  0  0  0  0  0  0
   -1.7594    1.2031    1.8040 H   0  0  0  0  0  0  0  0  0  0  0  0
   -0.6356    1.6998    3.5400 C   0  0  0  0  0  0  0  0  0  0  0  0
   -0.4284    2.7647    3.4168 H   0  0  0  0  0  0  0  0  0  0  0  0
   -1.5268    1.5885    4.1601 H   0  0  0  0  0  0  0  0  0  0  0  0
    0.2072    1.2358    4.0566 H   0  0  0  0  0  0  0  0  0  0  0  0
  5  6  2  0  0  0  0
  5  7  1  0  0  0  0
  2  3  1  0  0  0  0
  2  4  1  0  0  0  0
  2  5  1  0  0  0  0
  1  2  1  0  0  0  0
 23 24  2  0  0  0  0
 23 25  1  0  0  0  0
 21 22  1  0  0  0  0
 19 20  1  0  0  0  0
 19 21  1  0  0  0  0
 17 18  1  0  0  0  0
 17 19  1  0  0  0  0
 15 16  1  0  0  0  0
 15 17  2  0  0  0  0
 14 15  1  0  0  0  0
 14 21  2  0  0  0  0
 11 12  1  0  0  0  0
 11 13  1  0  0  0  0
 11 14  1  0  0  0  0
  9 10  1  0  0  0  0
  9 11  1  0  0  0  0
  9 23  1  0  0  0  0
  7  8  1  0  0  0  0
  7  9  1  0  0  0  0
 27 28  1  0  0  0  0
 27 29  1  0  0  0  0
 27 30  1  0  0  0  0
 25 26  1  0  0  0  0
 25 27  1  0  0  0  0
M  CHG  1  15   1
M  END
$$$$
default_name
  -OEChem-02102213163D

 30 30  0     1  0  0  0  0  0999 V2000
   -3.5507   -3.2183    1.8116 H   0  0  0  0  0  0  0  0  0  0  0  0
   -3.4597   -2.3913    1.1076 C   0  0  0  0  0  0  0  0  0  0  0  0
   -4.1577   -1.6043    1.3866 H   0  0  0  0  0  0  0  0  0  0  0  0
   -3.6807   -2.7523    0.1036 H   0  0  0  0  0  0  0  0  0  0  0  0
   -2.0477   -1.8543    1.1546 C   0  0  0  0  0  0  0  0  0  0  0  0
   -1.2227   -2.3443    1.9146 O   0  0  0  0  0  0  0  0  0  0  0  0
   -1.7517   -0.8483    0.3266 N   0  0  0  0  0  0  0  0  0  0  0  0
   -2.4847   -0.5123   -0.2804 H   0  0  0  0  0  0  0  0  0  0  0  0
   -0.4117   -0.2463    0.2186 C   0  0  1  0  0  0  0  0  0  0  0  0
    0.2987   -1.0391   -0.0285 H   0  0  0  0  0  0  0  0  0  0  0  0
   -0.4131    0.7505   -0.9636 C   0  0  0  0  0  0  0  0  0  0  0  0
   -0.6668    1.7428   -0.5822 H   0  0  0  0  0  0  0  0  0  0  0  0
    0.5964    0.8138   -1.3756 H   0  0  0  0  0  0  0  0  0  0  0  0
   -1.3614    0.4079   -2.0931 C   0  0  0  0  0  0  0  0  0  0  0  0
   -1.0519    0.4584   -3.4385 N   0  3  0  0  0  0  0  0  0  0  0  0
   -0.1169    0.6751   -3.7955 H   0  0  0  0  0  0  0  0  0  0  0  0
   -2.1414    0.0875   -4.1401 C   0  0  0  0  0  0  0  0  0  0  0  0
   -2.1980    0.0177   -5.2245 H   0  0  0  0  0  0  0  0  0  0  0  0
   -3.1359   -0.1963   -3.2690 N   0  0  0  0  0  0  0  0  0  0  0  0
   -4.0731   -0.5053   -3.5131 H   0  0  0  0  0  0  0  0  0  0  0  0
   -2.6629   -0.0001   -1.9789 C   0  0  0  0  0  0  0  0  0  0  0  0
   -3.2110   -0.1410   -1.0514 H   0  0  0  0  0  0  0  0  0  0  0  0
    0.0470    0.3465    1.5629 C   0  0  0  0  0  0  0  0  0  0  0  0
    1.1854    0.1365    1.9846 O   0  0  0  0  0  0  0  0  0  0  0  0
   -0.8551    1.0750    2.2320 N   0  0  0  0  0  0  0  0  0  0  0  0
   -1.7594    1.2031    1.8040 H   0  0  0  0  0  0  0  0  0  0  0  0
   -0.6356    1.6998    3.5400 C   0  0  0  0  0  0  0  0  0  0  0  0
   -0.4284    2.7647    3.4168 H   0  0  0  0  0  0  0  0  0  0  0  0
   -1.5268    1.5885    4.1601 H   0  0  0  0  0  0  0  0  0  0  0  0
    0.2072    1.2358    4.0566 H   0  0  0  0  0  0  0  0  0  0  0  0
  5  6  2  0  0  0  0
  5  7  1  0  0  0  0
  2  3  1  0  0  0  0
  2  4  1  0  0  0  0
  2  5  1  0  0  0  0
  1  2  1  0  0  0  0
 23 24  2  0  0  0  0
 23 25  1  0  0  0  0
 21 22  1  0  0  0  0
 19 20  1  0  0  0  0
 19 21  1  0  0  0  0
 17 18  1  0  0  0  0
 17 19  1  0  0  0  0
 15 16  1  0  0  0  0
 15 17  2  0  0  0  0
 14 15  1  0  0  0  0
 14 21  2  0  0  0  0
 11 12  1  0  0  0  0
 11 13  1  0  0  0  0
 11 14  1  0  0  0  0
  9 10  1  0  0  0  0
  9 11  1  0  0  0  0
  9 23  1  0  0  0  0
  7  8  1  0  0  0  0
  7  9  1  0  0  0  0
 27 28  1  0  0  0  0
 27 29  1  0  0  0  0
 27 30  1  0  0  0  0
 25 26  1  0  0  0  0
 25 27  1  0  0  0  0
M  CHG  1  15   1
M  END
$$$$
default_name
  -OEChem-02102213163D

 30 30  0     1  0  0  0  0  0999 V2000
   -3.5507   -3.2183    1.8116 H   0  0  0  0  0  0  0  0  0  0  0  0
   -3.4597   -2.3913    1.1076 C   0  0  0  0  0  0  0  0  0  0  0  0
   -4.1577   -1.6043    1.3866 H   0  0  0  0  0  0  0  0  0  0  0  0
   -3.6807   -2.7523    0.1036 H   0  0  0  0  0  0  0  0  0  0  0  0
   -2.0477   -1.8543    1.1546 C   0  0  0  0  0  0  0  0  0  0  0  0
   -1.2227   -2.3443    1.9146 O   0  0  0  0  0  0  0  0  0  0  0  0
   -1.7517   -0.8483    0.3266 N   0  0  0  0  0  0  0  0  0  0  0  0
   -2.4847   -0.5123   -0.2804 H   0  0  0  0  0  0  0  0  0  0  0  0
   -0.4117   -0.2463    0.2186 C   0  0  1  0  0  0  0  0  0  0  0  0
    0.2987   -1.0391   -0.0285 H   0  0  0  0  0  0  0  0  0  0  0  0
   -0.4131    0.7505   -0.9636 C   0  0  0  0  0  0  0  0  0  0  0  0
   -0.6668    1.7428   -0.5822 H   0  0  0  0  0  0  0  0  0  0  0  0
    0.5964    0.8138   -1.3756 H   0  0  0  0  0  0  0  0  0  0  0  0
   -1.3614    0.4079   -2.0931 C   0  0  0  0  0  0  0  0  0  0  0  0
   -0.9909    0.1727   -3.4030 N   0  3  0  0  0  0  0  0  0  0  0  0
   -0.0171    0.1464   -3.7188 H   0  0  0  0  0  0  0  0  0  0  0  0
   -2.1013   -0.0989   -4.1171 C   0  0  0  0  0  0  0  0  0  0  0  0
   -2.1243   -0.3378   -5.1785 H   0  0  0  0  0  0  0  0  0  0  0  0
   -3.1686   -0.0401   -3.2889 N   0  0  0  0  0  0  0  0  0  0  0  0
   -4.1371   -0.2037   -3.5508 H   0  0  0  0  0  0  0  0  0  0  0  0
   -2.7215    0.2773   -2.0138 C   0  0  0  0  0  0  0  0  0  0  0  0
   -3.3258    0.3998   -1.1191 H   0  0  0  0  0  0  0  0  0  0  0  0
    0.0470    0.3465    1.5629 C   0  0  0  0  0  0  0  0  0  0  0  0
    1.1854    0.1365    1.9846 O   0  0  0  0  0  0  0  0  0  0  0  0
   -0.8551    1.0750    2.2320 N   0  0  0  0  0  0  0  0  0  0  0  0
   -1.7594    1.2031    1.8040 H   0  0  0  0  0  0  0  0  0  0  0  0
   -0.6356    1.6998    3.5400 C   0  0  0  0  0  0  0  0  0  0  0  0
   -0.4284    2.7647    3.4168 H   0  0  0  0  0  0  0  0  0  0  0  0
   -1.5268    1.5885    4.1601 H   0  0  0  0  0  0  0  0  0  0  0  0
    0.2072    1.2358    4.0566 H   0  0  0  0  0  0  0  0  0  0  0  0
  5  6  2  0  0  0  0
  5  7  1  0  0  0  0
  2  3  1  0  0  0  0
  2  4  1  0  0  0  0
  2  5  1  0  0  0  0
  1  2  1  0  0  0  0
 23 24  2  0  0  0  0
 23 25  1  0  0  0  0
 21 22  1  0  0  0  0
 19 20  1  0  0  0  0
 19 21  1  0  0  0  0
 17 18  1  0  0  0  0
 17 19  1  0  0  0  0
 15 16  1  0  0  0  0
 15 17  2  0  0  0  0
 14 15  1  0  0  0  0
 14 21  2  0  0  0  0
 11 12  1  0  0  0  0
 11 13  1  0  0  0  0
 11 14  1  0  0  0  0
  9 10  1  0  0  0  0
  9 11  1  0  0  0  0
  9 23  1  0  0  0  0
  7  8  1  0  0  0  0
  7  9  1  0  0  0  0
 27 28  1  0  0  0  0
 27 29  1  0  0  0  0
 27 30  1  0  0  0  0
 25 26  1  0  0  0  0
 25 27  1  0  0  0  0
M  CHG  1  15   1
M  END
$$$$
default_name
  -OEChem-02102213163D

 30 30  0     1  0  0  0  0  0999 V2000
   -3.5507   -3.2183    1.8116 H   0  0  0  0  0  0  0  0  0  0  0  0
   -3.4597   -2.3913    1.1076 C   0  0  0  0  0  0  0  0  0  0  0  0
   -4.1577   -1.6043    1.3866 H   0  0  0  0  0  0  0  0  0  0  0  0
   -3.6807   -2.7523    0.1036 H   0  0  0  0  0  0  0  0  0  0  0  0
   -2.0477   -1.8543    1.1546 C   0  0  0  0  0  0  0  0  0  0  0  0
   -1.2227   -2.3443    1.9146 O   0  0  0  0  0  0  0  0  0  0  0  0
   -1.7517   -0.8483    0.3266 N   0  0  0  0  0  0  0  0  0  0  0  0
   -2.4847   -0.5123   -0.2804 H   0  0  0  0  0  0  0  0  0  0  0  0
   -0.4117   -0.2463    0.2186 C   0  0  1  0  0  0  0  0  0  0  0  0
    0.2987   -1.0391   -0.0285 H   0  0  0  0  0  0  0  0  0  0  0  0
   -0.4131    0.7505   -0.9636 C   0  0  0  0  0  0  0  0  0  0  0  0
   -0.6668    1.7428   -0.5822 H   0  0  0  0  0  0  0  0  0  0  0  0
    0.5964    0.8138   -1.3756 H   0  0  0  0  0  0  0  0  0  0  0  0
   -1.3614    0.4079   -2.0931 C   0  0  0  0  0  0  0  0  0  0  0  0
   -0.9893   -0.1093   -3.3189 N   0  3  0  0  0  0  0  0  0  0  0  0
   -0.0274   -0.3711   -3.5533 H   0  0  0  0  0  0  0  0  0  0  0  0
   -2.1000   -0.2830   -4.0624 C   0  0  0  0  0  0  0  0  0  0  0  0
   -2.1245   -0.6880   -5.0721 H   0  0  0  0  0  0  0  0  0  0  0  0
   -3.1688    0.1139   -3.3354 N   0  0  0  0  0  0  0  0  0  0  0  0
   -4.1385    0.0939   -3.6399 H   0  0  0  0  0  0  0  0  0  0  0  0
   -2.7226    0.5509   -2.0958 C   0  0  0  0  0  0  0  0  0  0  0  0
   -3.3282    0.9334   -1.2789 H   0  0  0  0  0  0  0  0  0  0  0  0
    0.0470    0.3465    1.5629 C   0  0  0  0  0  0  0  0  0  0  0  0
    1.1854    0.1365    1.9846 O   0  0  0  0  0  0  0  0  0  0  0  0
   -0.8551    1.0750    2.2320 N   0  0  0  0  0  0  0  0  0  0  0  0
   -1.7594    1.2031    1.8040 H   0  0  0  0  0  0  0  0  0  0  0  0
   -0.6356    1.6998    3.5400 C   0  0  0  0  0  0  0  0  0  0  0  0
   -0.4284    2.7647    3.4168 H   0  0  0  0  0  0  0  0  0  0  0  0
   -1.5268    1.5885    4.1601 H   0  0  0  0  0  0  0  0  0  0  0  0
    0.2072    1.2358    4.0566 H   0  0  0  0  0  0  0  0  0  0  0  0
  5  6  2  0  0  0  0
  5  7  1  0  0  0  0
  2  3  1  0  0  0  0
  2  4  1  0  0  0  0
  2  5  1  0  0  0  0
  1  2  1  0  0  0  0
 23 24  2  0  0  0  0
 23 25  1  0  0  0  0
 21 22  1  0  0  0  0
 19 20  1  0  0  0  0
 19 21  1  0  0  0  0
 17 18  1  0  0  0  0
 17 19  1  0  0  0  0
 15 16  1  0  0  0  0
 15 17  2  0  0  0  0
 14 15  1  0  0  0  0
 14 21  2  0  0  0  0
 11 12  1  0  0  0  0
 11 13  1  0  0  0  0
 11 14  1  0  0  0  0
  9 10  1  0  0  0  0
  9 11  1  0  0  0  0
  9 23  1  0  0  0  0
  7  8  1  0  0  0  0
  7  9  1  0  0  0  0
 27 28  1  0  0  0  0
 27 29  1  0  0  0  0
 27 30  1  0  0  0  0
 25 26  1  0  0  0  0
 25 27  1  0  0  0  0
M  CHG  1  15   1
M  END
$$$$
default_name
  -OEChem-02102213163D

 30 30  0     1  0  0  0  0  0999 V2000
   -3.5507   -3.2183    1.8116 H   0  0  0  0  0  0  0  0  0  0  0  0
   -3.4597   -2.3913    1.1076 C   0  0  0  0  0  0  0  0  0  0  0  0
   -4.1577   -1.6043    1.3866 H   0  0  0  0  0  0  0  0  0  0  0  0
   -3.6807   -2.7523    0.1036 H   0  0  0  0  0  0  0  0  0  0  0  0
   -2.0477   -1.8543    1.1546 C   0  0  0  0  0  0  0  0  0  0  0  0
   -1.2227   -2.3443    1.9146 O   0  0  0  0  0  0  0  0  0  0  0  0
   -1.7517   -0.8483    0.3266 N   0  0  0  0  0  0  0  0  0  0  0  0
   -2.4847   -0.5123   -0.2804 H   0  0  0  0  0  0  0  0  0  0  0  0
   -0.4117   -0.2463    0.2186 C   0  0  1  0  0  0  0  0  0  0  0  0
    0.2987   -1.0391   -0.0285 H   0  0  0  0  0  0  0  0  0  0  0  0
   -0.4131    0.7505   -0.9636 C   0  0  0  0  0  0  0  0  0  0  0  0
   -0.6668    1.7428   -0.5822 H   0  0  0  0  0  0  0  0  0  0  0  0
    0.5964    0.8138   -1.3756 H   0  0  0  0  0  0  0  0  0  0  0  0
   -1.3614    0.4079   -2.0931 C   0  0  0  0  0  0  0  0  0  0  0  0
   -1.0471   -0.3684   -3.1918 N   0  3  0  0  0  0  0  0  0  0  0  0
   -0.1469   -0.8421   -3.3100 H   0  0  0  0  0  0  0  0  0  0  0  0
   -2.1374   -0.4522   -3.9797 C   0  0  0  0  0  0  0  0  0  0  0  0
   -2.1985   -1.0090   -4.9126 H   0  0  0  0  0  0  0  0  0  0  0  0
   -3.1366    0.2551   -3.4053 N   0  0  0  0  0  0  0  0  0  0  0  0
   -4.0772    0.3672   -3.7743 H   0  0  0  0  0  0  0  0  0  0  0  0
   -2.6660    0.8020   -2.2196 C   0  0  0  0  0  0  0  0  0  0  0  0
   -3.2182    1.4233   -1.5199 H   0  0  0  0  0  0  0  0  0  0  0  0
    0.0470    0.3465    1.5629 C   0  0  0  0  0  0  0  0  0  0  0  0
    1.1854    0.1365    1.9846 O   0  0  0  0  0  0  0  0  0  0  0  0
   -0.8551    1.0750    2.2320 N   0  0  0  0  0  0  0  0  0  0  0  0
   -1.7594    1.2031    1.8040 H   0  0  0  0  0  0  0  0  0  0  0  0
   -0.6356    1.6998    3.5400 C   0  0  0  0  0  0  0  0  0  0  0  0
   -0.4284    2.7647    3.4168 H   0  0  0  0  0  0  0  0  0  0  0  0
   -1.5268    1.5885    4.1601 H   0  0  0  0  0  0  0  0  0  0  0  0
    0.2072    1.2358    4.0566 H   0  0  0  0  0  0  0  0  0  0  0  0
  5  6  2  0  0  0  0
  5  7  1  0  0  0  0
  2  3  1  0  0  0  0
  2  4  1  0  0  0  0
  2  5  1  0  0  0  0
  1  2  1  0  0  0  0
 23 24  2  0  0  0  0
 23 25  1  0  0  0  0
 21 22  1  0  0  0  0
 19 20  1  0  0  0  0
 19 21  1  0  0  0  0
 17 18  1  0  0  0  0
 17 19  1  0  0  0  0
 15 16  1  0  0  0  0
 15 17  2  0  0  0  0
 14 15  1  0  0  0  0
 14 21  2  0  0  0  0
 11 12  1  0  0  0  0
 11 13  1  0  0  0  0
 11 14  1  0  0  0  0
  9 10  1  0  0  0  0
  9 11  1  0  0  0  0
  9 23  1  0  0  0  0
  7  8  1  0  0  0  0
  7  9  1  0  0  0  0
 27 28  1  0  0  0  0
 27 29  1  0  0  0  0
 27 30  1  0  0  0  0
 25 26  1  0  0  0  0
 25 27  1  0  0  0  0
M  CHG  1  15   1
M  END
$$$$
default_name
  -OEChem-02102213163D

 30 30  0     1  0  0  0  0  0999 V2000
   -3.5507   -3.2183    1.8116 H   0  0  0  0  0  0  0  0  0  0  0  0
   -3.4597   -2.3913    1.1076 C   0  0  0  0  0  0  0  0  0  0  0  0
   -4.1577   -1.6043    1.3866 H   0  0  0  0  0  0  0  0  0  0  0  0
   -3.6807   -2.7523    0.1036 H   0  0  0  0  0  0  0  0  0  0  0  0
   -2.0477   -1.8543    1.1546 C   0  0  0  0  0  0  0  0  0  0  0  0
   -1.2227   -2.3443    1.9146 O   0  0  0  0  0  0  0  0  0  0  0  0
   -1.7517   -0.8483    0.3266 N   0  0  0  0  0  0  0  0  0  0  0  0
   -2.4847   -0.5123   -0.2804 H   0  0  0  0  0  0  0  0  0  0  0  0
   -0.4117   -0.2463    0.2186 C   0  0  1  0  0  0  0  0  0  0  0  0
    0.2987   -1.0391   -0.0285 H   0  0  0  0  0  0  0  0  0  0  0  0
   -0.4131    0.7505   -0.9636 C   0  0  0  0  0  0  0  0  0  0  0  0
   -0.6668    1.7428   -0.5822 H   0  0  0  0  0  0  0  0  0  0  0  0
    0.5964    0.8138   -1.3756 H   0  0  0  0  0  0  0  0  0  0  0  0
   -1.3614    0.4079   -2.0931 C   0  0  0  0  0  0  0  0  0  0  0  0
   -1.1604   -0.5869   -3.0304 N   0  3  0  0  0  0  0  0  0  0  0  0
   -0.3675   -1.2346   -3.0057 H   0  0  0  0  0  0  0  0  0  0  0  0
   -2.2111   -0.5950   -3.8745 C   0  0  0  0  0  0  0  0  0  0  0  0
   -2.3414   -1.2788   -4.7108 H   0  0  0  0  0  0  0  0  0  0  0  0
   -3.0741    0.3739   -3.4938 N   0  0  0  0  0  0  0  0  0  0  0  0
   -3.9573    0.5975   -3.9449 H   0  0  0  0  0  0  0  0  0  0  0  0
   -2.5556    1.0136   -2.3764 C   0  0  0  0  0  0  0  0  0  0  0  0
   -3.0032    1.8362   -1.8256 H   0  0  0  0  0  0  0  0  0  0  0  0
    0.0470    0.3465    1.5629 C   0  0  0  0  0  0  0  0  0  0  0  0
    1.1854    0.1365    1.9846 O   0  0  0  0  0  0  0  0  0  0  0  0
   -0.8551    1.0750    2.2320 N   0  0  0  0  0  0  0  0  0  0  0  0
   -1.7594    1.2031    1.8040 H   0  0  0  0  0  0  0  0  0  0  0  0
   -0.6356    1.6998    3.5400 C   0  0  0  0  0  0  0  0  0  0  0  0
   -0.4284    2.7647    3.4168 H   0  0  0  0  0  0  0  0  0  0  0  0
   -1.5268    1.5885    4.1601 H   0  0  0  0  0  0  0  0  0  0  0  0
    0.2072    1.2358    4.0566 H   0  0  0  0  0  0  0  0  0  0  0  0
  5  6  2  0  0  0  0
  5  7  1  0  0  0  0
  2  3  1  0  0  0  0
  2  4  1  0  0  0  0
  2  5  1  0  0  0  0
  1  2  1  0  0  0  0
 23 24  2  0  0  0  0
 23 25  1  0  0  0  0
 21 22  1  0  0  0  0
 19 20  1  0  0  0  0
 19 21  1  0  0  0  0
 17 18  1  0  0  0  0
 17 19  1  0  0  0  0
 15 16  1  0  0  0  0
 15 17  2  0  0  0  0
 14 15  1  0  0  0  0
 14 21  2  0  0  0  0
 11 12  1  0  0  0  0
 11 13  1  0  0  0  0
 11 14  1  0  0  0  0
  9 10  1  0  0  0  0
  9 11  1  0  0  0  0
  9 23  1  0  0  0  0
  7  8  1  0  0  0  0
  7  9  1  0  0  0  0
 27 28  1  0  0  0  0
 27 29  1  0  0  0  0
 27 30  1  0  0  0  0
 25 26  1  0  0  0  0
 25 27  1  0  0  0  0
M  CHG  1  15   1
M  END
$$$$
default_name
  -OEChem-02102213163D

 30 30  0     1  0  0  0  0  0999 V2000
   -3.5507   -3.2183    1.8116 H   0  0  0  0  0  0  0  0  0  0  0  0
   -3.4597   -2.3913    1.1076 C   0  0  0  0  0  0  0  0  0  0  0  0
   -4.1577   -1.6043    1.3866 H   0  0  0  0  0  0  0  0  0  0  0  0
   -3.6807   -2.7523    0.1036 H   0  0  0  0  0  0  0  0  0  0  0  0
   -2.0477   -1.8543    1.1546 C   0  0  0  0  0  0  0  0  0  0  0  0
   -1.2227   -2.3443    1.9146 O   0  0  0  0  0  0  0  0  0  0  0  0
   -1.7517   -0.8483    0.3266 N   0  0  0  0  0  0  0  0  0  0  0  0
   -2.4847   -0.5123   -0.2804 H   0  0  0  0  0  0  0  0  0  0  0  0
   -0.4117   -0.2463    0.2186 C   0  0  1  0  0  0  0  0  0  0  0  0
    0.2987   -1.0391   -0.0285 H   0  0  0  0  0  0  0  0  0  0  0  0
   -0.4131    0.7505   -0.9636 C   0  0  0  0  0  0  0  0  0  0  0  0
   -0.6668    1.7428   -0.5822 H   0  0  0  0  0  0  0  0  0  0  0  0
    0.5964    0.8138   -1.3756 H   0  0  0  0  0  0  0  0  0  0  0  0
   -1.3614    0.4079   -2.0931 C   0  0  0  0  0  0  0  0  0  0  0  0
   -1.3214   -0.7499   -2.8457 N   0  3  0  0  0  0  0  0  0  0  0  0
   -0.6742   -1.5218   -2.6611 H   0  0  0  0  0  0  0  0  0  0  0  0
   -2.3160   -0.7016   -3.7541 C   0  0  0  0  0  0  0  0  0  0  0  0
   -2.5433   -1.4792   -4.4805 H   0  0  0  0  0  0  0  0  0  0  0  0
   -2.9856    0.4623   -3.5949 N   0  0  0  0  0  0  0  0  0  0  0  0
   -3.7870    0.7692   -4.1399 H   0  0  0  0  0  0  0  0  0  0  0  0
   -2.3989    1.1713   -2.5558 C   0  0  0  0  0  0  0  0  0  0  0  0
   -2.6980    2.1440   -2.1753 H   0  0  0  0  0  0  0  0  0  0  0  0
    0.0470    0.3465    1.5629 C   0  0  0  0  0  0  0  0  0  0  0  0
    1.1854    0.1365    1.9846 O   0  0  0  0  0  0  0  0  0  0  0  0
   -0.8551    1.0750    2.2320 N   0  0  0  0  0  0  0  0  0  0  0  0
   -1.7594    1.2031    1.8040 H   0  0  0  0  0  0  0  0  0  0  0  0
   -0.6356    1.6998    3.5400 C   0  0  0  0  0  0  0  0  0  0  0  0
   -0.4284    2.7647    3.4168 H   0  0  0  0  0  0  0  0  0  0  0  0
   -1.5268    1.5885    4.1601 H   0  0  0  0  0  0  0  0  0  0  0  0
    0.2072    1.2358    4.0566 H   0  0  0  0  0  0  0  0  0  0  0  0
  5  6  2  0  0  0  0
  5  7  1  0  0  0  0
  2  3  1  0  0  0  0
  2  4  1  0  0  0  0
  2  5  1  0  0  0  0
  1  2  1  0  0  0  0
 23 24  2  0  0  0  0
 23 25  1  0  0  0  0
 21 22  1  0  0  0  0
 19 20  1  0  0  0  0
 19 21  1  0  0  0  0
 17 18  1  0  0  0  0
 17 19  1  0  0  0  0
 15 16  1  0  0  0  0
 15 17  2  0  0  0  0
 14 15  1  0  0  0  0
 14 21  2  0  0  0  0
 11 12  1  0  0  0  0
 11 13  1  0  0  0  0
 11 14  1  0  0  0  0
  9 10  1  0  0  0  0
  9 11  1  0  0  0  0
  9 23  1  0  0  0  0
  7  8  1  0  0  0  0
  7  9  1  0  0  0  0
 27 28  1  0  0  0  0
 27 29  1  0  0  0  0
 27 30  1  0  0  0  0
 25 26  1  0  0  0  0
 25 27  1  0  0  0  0
M  CHG  1  15   1
M  END
$$$$
default_name
  -OEChem-02102213163D

 30 30  0     1  0  0  0  0  0999 V2000
   -3.5507   -3.2183    1.8116 H   0  0  0  0  0  0  0  0  0  0  0  0
   -3.4597   -2.3913    1.1076 C   0  0  0  0  0  0  0  0  0  0  0  0
   -4.1577   -1.6043    1.3866 H   0  0  0  0  0  0  0  0  0  0  0  0
   -3.6807   -2.7523    0.1036 H   0  0  0  0  0  0  0  0  0  0  0  0
   -2.0477   -1.8543    1.1546 C   0  0  0  0  0  0  0  0  0  0  0  0
   -1.2227   -2.3443    1.9146 O   0  0  0  0  0  0  0  0  0  0  0  0
   -1.7517   -0.8483    0.3266 N   0  0  0  0  0  0  0  0  0  0  0  0
   -2.4847   -0.5123   -0.2804 H   0  0  0  0  0  0  0  0  0  0  0  0
   -0.4117   -0.2463    0.2186 C   0  0  1  0  0  0  0  0  0  0  0  0
    0.2987   -1.0391   -0.0285 H   0  0  0  0  0  0  0  0  0  0  0  0
   -0.4131    0.7505   -0.9636 C   0  0  0  0  0  0  0  0  0  0  0  0
   -0.6668    1.7428   -0.5822 H   0  0  0  0  0  0  0  0  0  0  0  0
    0.5964    0.8138   -1.3756 H   0  0  0  0  0  0  0  0  0  0  0  0
   -1.3614    0.4079   -2.0931 C   0  0  0  0  0  0  0  0  0  0  0  0
   -1.5193   -0.8463   -2.6503 N   0  3  0  0  0  0  0  0  0  0  0  0
   -1.0461   -1.6841   -2.2996 H   0  0  0  0  0  0  0  0  0  0  0  0
   -2.4450   -0.7648   -3.6266 C   0  0  0  0  0  0  0  0  0  0  0  0
   -2.7904   -1.5965   -4.2374 H   0  0  0  0  0  0  0  0  0  0  0  0
   -2.8772    0.5142   -3.7017 N   0  0  0  0  0  0  0  0  0  0  0  0
   -3.5780    0.8706   -4.3461 H   0  0  0  0  0  0  0  0  0  0  0  0
   -2.2066    1.2643   -2.7455 C   0  0  0  0  0  0  0  0  0  0  0  0
   -2.3232    2.3257   -2.5451 H   0  0  0  0  0  0  0  0  0  0  0  0
    0.0470    0.3465    1.5629 C   0  0  0  0  0  0  0  0  0  0  0  0
    1.1854    0.1365    1.9846 O   0  0  0  0  0  0  0  0  0  0  0  0
   -0.8551    1.0750    2.2320 N   0  0  0  0  0  0  0  0  0  0  0  0
   -1.7594    1.2031    1.8040 H   0  0  0  0  0  0  0  0  0  0  0  0
   -0.6356    1.6998    3.5400 C   0  0  0  0  0  0  0  0  0  0  0  0
   -0.4284    2.7647    3.4168 H   0  0  0  0  0  0  0  0  0  0  0  0
   -1.5268    1.5885    4.1601 H   0  0  0  0  0  0  0  0  0  0  0  0
    0.2072    1.2358    4.0566 H   0  0  0  0  0  0  0  0  0  0  0  0
  5  6  2  0  0  0  0
  5  7  1  0  0  0  0
  2  3  1  0  0  0  0
  2  4  1  0  0  0  0
  2  5  1  0  0  0  0
  1  2  1  0  0  0  0
 23 24  2  0  0  0  0
 23 25  1  0  0  0  0
 21 22  1  0  0  0  0
 19 20  1  0  0  0  0
 19 21  1  0  0  0  0
 17 18  1  0  0  0  0
 17 19  1  0  0  0  0
 15 16  1  0  0  0  0
 15 17  2  0  0  0  0
 14 15  1  0  0  0  0
 14 21  2  0  0  0  0
 11 12  1  0  0  0  0
 11 13  1  0  0  0  0
 11 14  1  0  0  0  0
  9 10  1  0  0  0  0
  9 11  1  0  0  0  0
  9 23  1  0  0  0  0
  7  8  1  0  0  0  0
  7  9  1  0  0  0  0
 27 28  1  0  0  0  0
 27 29  1  0  0  0  0
 27 30  1  0  0  0  0
 25 26  1  0  0  0  0
 25 27  1  0  0  0  0
M  CHG  1  15   1
M  END
$$$$
default_name
  -OEChem-02102213163D

 30 30  0     1  0  0  0  0  0999 V2000
   -3.5507   -3.2183    1.8116 H   0  0  0  0  0  0  0  0  0  0  0  0
   -3.4597   -2.3913    1.1076 C   0  0  0  0  0  0  0  0  0  0  0  0
   -4.1577   -1.6043    1.3866 H   0  0  0  0  0  0  0  0  0  0  0  0
   -3.6807   -2.7523    0.1036 H   0  0  0  0  0  0  0  0  0  0  0  0
   -2.0477   -1.8543    1.1546 C   0  0  0  0  0  0  0  0  0  0  0  0
   -1.2227   -2.3443    1.9146 O   0  0  0  0  0  0  0  0  0  0  0  0
   -1.7517   -0.8483    0.3266 N   0  0  0  0  0  0  0  0  0  0  0  0
   -2.4847   -0.5123   -0.2804 H   0  0  0  0  0  0  0  0  0  0  0  0
   -0.4117   -0.2463    0.2186 C   0  0  1  0  0  0  0  0  0  0  0  0
    0.2987   -1.0391   -0.0285 H   0  0  0  0  0  0  0  0  0  0  0  0
   -0.4131    0.7505   -0.9636 C   0  0  0  0  0  0  0  0  0  0  0  0
   -0.6668    1.7428   -0.5822 H   0  0  0  0  0  0  0  0  0  0  0  0
    0.5964    0.8138   -1.3756 H   0  0  0  0  0  0  0  0  0  0  0  0
   -1.3614    0.4079   -2.0931 C   0  0  0  0  0  0  0  0  0  0  0  0
   -1.7404   -0.8696   -2.4576 N   0  3  0  0  0  0  0  0  0  0  0  0
   -1.4578   -1.7105   -1.9459 H   0  0  0  0  0  0  0  0  0  0  0  0
   -2.5892   -0.7804   -3.5008 C   0  0  0  0  0  0  0  0  0  0  0  0
   -3.0661   -1.6226   -3.9980 H   0  0  0  0  0  0  0  0  0  0  0  0
   -2.7561    0.5261   -3.8069 N   0  0  0  0  0  0  0  0  0  0  0  0
   -3.3445    0.8947   -4.5496 H   0  0  0  0  0  0  0  0  0  0  0  0
   -1.9918    1.2862   -2.9325 C   0  0  0  0  0  0  0  0  0  0  0  0
   -1.9045    2.3689   -2.9097 H   0  0  0  0  0  0  0  0  0  0  0  0
    0.0470    0.3465    1.5629 C   0  0  0  0  0  0  0  0  0  0  0  0
    1.1854    0.1365    1.9846 O   0  0  0  0  0  0  0  0  0  0  0  0
   -0.8551    1.0750    2.2320 N   0  0  0  0  0  0  0  0  0  0  0  0
   -1.7594    1.2031    1.8040 H   0  0  0  0  0  0  0  0  0  0  0  0
   -0.6356    1.6998    3.5400 C   0  0  0  0  0  0  0  0  0  0  0  0
   -0.4284    2.7647    3.4168 H   0  0  0  0  0  0  0  0  0  0  0  0
   -1.5268    1.5885    4.1601 H   0  0  0  0  0  0  0  0  0  0  0  0
    0.2072    1.2358    4.0566 H   0  0  0  0  0  0  0  0  0  0  0  0
  5  6  2  0  0  0  0
  5  7  1  0  0  0  0
  2  3  1  0  0  0  0
  2  4  1  0  0  0  0
  2  5  1  0  0  0  0
  1  2  1  0  0  0  0
 23 24  2  0  0  0  0
 23 25  1  0  0  0  0
 21 22  1  0  0  0  0
 19 20  1  0  0  0  0
 19 21  1  0  0  0  0
 17 18  1  0  0  0  0
 17 19  1  0  0  0  0
 15 16  1  0  0  0  0
 15 17  2  0  0  0  0
 14 15  1  0  0  0  0
 14 21  2  0  0  0  0
 11 12  1  0  0  0  0
 11 13  1  0  0  0  0
 11 14  1  0  0  0  0
  9 10  1  0  0  0  0
  9 11  1  0  0  0  0
  9 23  1  0  0  0  0
  7  8  1  0  0  0  0
  7  9  1  0  0  0  0
 27 28  1  0  0  0  0
 27 29  1  0  0  0  0
 27 30  1  0  0  0  0
 25 26  1  0  0  0  0
 25 27  1  0  0  0  0
M  CHG  1  15   1
M  END
$$$$
default_name
  -OEChem-02102213163D

 30 30  0     1  0  0  0  0  0999 V2000
   -3.5507   -3.2183    1.8116 H   0  0  0  0  0  0  0  0  0  0  0  0
   -3.4597   -2.3913    1.1076 C   0  0  0  0  0  0  0  0  0  0  0  0
   -4.1577   -1.6043    1.3866 H   0  0  0  0  0  0  0  0  0  0  0  0
   -3.6807   -2.7523    0.1036 H   0  0  0  0  0  0  0  0  0  0  0  0
   -2.0477   -1.8543    1.1546 C   0  0  0  0  0  0  0  0  0  0  0  0
   -1.2227   -2.3443    1.9146 O   0  0  0  0  0  0  0  0  0  0  0  0
   -1.7517   -0.8483    0.3266 N   0  0  0  0  0  0  0  0  0  0  0  0
   -2.4847   -0.5123   -0.2804 H   0  0  0  0  0  0  0  0  0  0  0  0
   -0.4117   -0.2463    0.2186 C   0  0  1  0  0  0  0  0  0  0  0  0
    0.2987   -1.0391   -0.0285 H   0  0  0  0  0  0  0  0  0  0  0  0
   -0.4131    0.7505   -0.9636 C   0  0  0  0  0  0  0  0  0  0  0  0
   -0.6668    1.7428   -0.5822 H   0  0  0  0  0  0  0  0  0  0  0  0
    0.5964    0.8138   -1.3756 H   0  0  0  0  0  0  0  0  0  0  0  0
   -1.3614    0.4079   -2.0931 C   0  0  0  0  0  0  0  0  0  0  0  0
   -1.9699   -0.8181   -2.2806 N   0  3  0  0  0  0  0  0  0  0  0  0
   -1.8814   -1.5991   -1.6241 H   0  0  0  0  0  0  0  0  0  0  0  0
   -2.7389   -0.7471   -3.3852 C   0  0  0  0  0  0  0  0  0  0  0  0
   -3.3514   -1.5558   -3.7787 H   0  0  0  0  0  0  0  0  0  0  0  0
   -2.6308    0.4972   -3.9034 N   0  0  0  0  0  0  0  0  0  0  0  0
   -3.1023    0.8399   -4.7363 H   0  0  0  0  0  0  0  0  0  0  0  0
   -1.7691    1.2355   -3.1041 C   0  0  0  0  0  0  0  0  0  0  0  0
   -1.4703    2.2707   -3.2445 H   0  0  0  0  0  0  0  0  0  0  0  0
    0.0470    0.3465    1.5629 C   0  0  0  0  0  0  0  0  0  0  0  0
    1.1854    0.1365    1.9846 O   0  0  0  0  0  0  0  0  0  0  0  0
   -0.8551    1.0750    2.2320 N   0  0  0  0  0  0  0  0  0  0  0  0
   -1.7594    1.2031    1.8040 H   0  0  0  0  0  0  0  0  0  0  0  0
   -0.6356    1.6998    3.5400 C   0  0  0  0  0  0  0  0  0  0  0  0
   -0.4284    2.7647    3.4168 H   0  0  0  0  0  0  0  0  0  0  0  0
   -1.5268    1.5885    4.1601 H   0  0  0  0  0  0  0  0  0  0  0  0
    0.2072    1.2358    4.0566 H   0  0  0  0  0  0  0  0  0  0  0  0
  5  6  2  0  0  0  0
  5  7  1  0  0  0  0
  2  3  1  0  0  0  0
  2  4  1  0  0  0  0
  2  5  1  0  0  0  0
  1  2  1  0  0  0  0
 23 24  2  0  0  0  0
 23 25  1  0  0  0  0
 21 22  1  0  0  0  0
 19 20  1  0  0  0  0
 19 21  1  0  0  0  0
 17 18  1  0  0  0  0
 17 19  1  0  0  0  0
 15 16  1  0  0  0  0
 15 17  2  0  0  0  0
 14 15  1  0  0  0  0
 14 21  2  0  0  0  0
 11 12  1  0  0  0  0
 11 13  1  0  0  0  0
 11 14  1  0  0  0  0
  9 10  1  0  0  0  0
  9 11  1  0  0  0  0
  9 23  1  0  0  0  0
  7  8  1  0  0  0  0
  7  9  1  0  0  0  0
 27 28  1  0  0  0  0
 27 29  1  0  0  0  0
 27 30  1  0  0  0  0
 25 26  1  0  0  0  0
 25 27  1  0  0  0  0
M  CHG  1  15   1
M  END
$$$$
default_name
  -OEChem-02102213163D

 30 30  0     1  0  0  0  0  0999 V2000
   -3.5507   -3.2183    1.8116 H   0  0  0  0  0  0  0  0  0  0  0  0
   -3.4597   -2.3913    1.1076 C   0  0  0  0  0  0  0  0  0  0  0  0
   -4.1577   -1.6043    1.3866 H   0  0  0  0  0  0  0  0  0  0  0  0
   -3.6807   -2.7523    0.1036 H   0  0  0  0  0  0  0  0  0  0  0  0
   -2.0477   -1.8543    1.1546 C   0  0  0  0  0  0  0  0  0  0  0  0
   -1.2227   -2.3443    1.9146 O   0  0  0  0  0  0  0  0  0  0  0  0
   -1.7517   -0.8483    0.3266 N   0  0  0  0  0  0  0  0  0  0  0  0
   -2.4847   -0.5123   -0.2804 H   0  0  0  0  0  0  0  0  0  0  0  0
   -0.4117   -0.2463    0.2186 C   0  0  1  0  0  0  0  0  0  0  0  0
    0.2987   -1.0391   -0.0285 H   0  0  0  0  0  0  0  0  0  0  0  0
   -0.4131    0.7505   -0.9636 C   0  0  0  0  0  0  0  0  0  0  0  0
   -0.6668    1.7428   -0.5822 H   0  0  0  0  0  0  0  0  0  0  0  0
    0.5964    0.8138   -1.3756 H   0  0  0  0  0  0  0  0  0  0  0  0
   -1.3614    0.4079   -2.0931 C   0  0  0  0  0  0  0  0  0  0  0  0
   -2.1919   -0.6954   -2.1314 N   0  3  0  0  0  0  0  0  0  0  0  0
   -2.2878   -1.3576   -1.3561 H   0  0  0  0  0  0  0  0  0  0  0  0
   -2.8839   -0.6673   -3.2877 C   0  0  0  0  0  0  0  0  0  0  0  0
   -3.6269   -1.4007   -3.5945 H   0  0  0  0  0  0  0  0  0  0  0  0
   -2.5096    0.4294   -3.9846 N   0  0  0  0  0  0  0  0  0  0  0  0
   -2.8680    0.7100   -4.8936 H   0  0  0  0  0  0  0  0  0  0  0  0
   -1.5538    1.1158   -3.2486 C   0  0  0  0  0  0  0  0  0  0  0  0
   -1.0503    2.0377   -3.5265 H   0  0  0  0  0  0  0  0  0  0  0  0
    0.0470    0.3465    1.5629 C   0  0  0  0  0  0  0  0  0  0  0  0
    1.1854    0.1365    1.9846 O   0  0  0  0  0  0  0  0  0  0  0  0
   -0.8551    1.0750    2.2320 N   0  0  0  0  0  0  0  0  0  0  0  0
   -1.7594    1.2031    1.8040 H   0  0  0  0  0  0  0  0  0  0  0  0
   -0.6356    1.6998    3.5400 C   0  0  0  0  0  0  0  0  0  0  0  0
   -0.4284    2.7647    3.4168 H   0  0  0  0  0  0  0  0  0  0  0  0
   -1.5268    1.5885    4.1601 H   0  0  0  0  0  0  0  0  0  0  0  0
    0.2072    1.2358    4.0566 H   0  0  0  0  0  0  0  0  0  0  0  0
  5  6  2  0  0  0  0
  5  7  1  0  0  0  0
  2  3  1  0  0  0  0
  2  4  1  0  0  0  0
  2  5  1  0  0  0  0
  1  2  1  0  0  0  0
 23 24  2  0  0  0  0
 23 25  1  0  0  0  0
 21 22  1  0  0  0  0
 19 20  1  0  0  0  0
 19 21  1  0  0  0  0
 17 18  1  0  0  0  0
 17 19  1  0  0  0  0
 15 16  1  0  0  0  0
 15 17  2  0  0  0  0
 14 15  1  0  0  0  0
 14 21  2  0  0  0  0
 11 12  1  0  0  0  0
 11 13  1  0  0  0  0
 11 14  1  0  0  0  0
  9 10  1  0  0  0  0
  9 11  1  0  0  0  0
  9 23  1  0  0  0  0
  7  8  1  0  0  0  0
  7  9  1  0  0  0  0
 27 28  1  0  0  0  0
 27 29  1  0  0  0  0
 27 30  1  0  0  0  0
 25 26  1  0  0  0  0
 25 27  1  0  0  0  0
M  CHG  1  15   1
M  END
$$$$
default_name
  -OEChem-02102213163D

 30 30  0     1  0  0  0  0  0999 V2000
   -3.5507   -3.2183    1.8116 H   0  0  0  0  0  0  0  0  0  0  0  0
   -3.4597   -2.3913    1.1076 C   0  0  0  0  0  0  0  0  0  0  0  0
   -4.1577   -1.6043    1.3866 H   0  0  0  0  0  0  0  0  0  0  0  0
   -3.6807   -2.7523    0.1036 H   0  0  0  0  0  0  0  0  0  0  0  0
   -2.0477   -1.8543    1.1546 C   0  0  0  0  0  0  0  0  0  0  0  0
   -1.2227   -2.3443    1.9146 O   0  0  0  0  0  0  0  0  0  0  0  0
   -1.7517   -0.8483    0.3266 N   0  0  0  0  0  0  0  0  0  0  0  0
   -2.4847   -0.5123   -0.2804 H   0  0  0  0  0  0  0  0  0  0  0  0
   -0.4117   -0.2463    0.2186 C   0  0  1  0  0  0  0  0  0  0  0  0
    0.2987   -1.0391   -0.0285 H   0  0  0  0  0  0  0  0  0  0  0  0
   -0.4131    0.7505   -0.9636 C   0  0  0  0  0  0  0  0  0  0  0  0
   -0.6668    1.7428   -0.5822 H   0  0  0  0  0  0  0  0  0  0  0  0
    0.5964    0.8138   -1.3756 H   0  0  0  0  0  0  0  0  0  0  0  0
   -1.3614    0.4079   -2.0931 C   0  0  0  0  0  0  0  0  0  0  0  0
   -2.3914   -0.5098   -2.0201 N   0  3  0  0  0  0  0  0  0  0  0  0
   -2.6494   -1.0024   -1.1602 H   0  0  0  0  0  0  0  0  0  0  0  0
   -3.0142   -0.5465   -3.2149 C   0  0  0  0  0  0  0  0  0  0  0  0
   -3.8739   -1.1678   -3.4577 H   0  0  0  0  0  0  0  0  0  0  0  0
   -2.4009    0.3273   -4.0449 N   0  0  0  0  0  0  0  0  0  0  0  0
   -2.6576    0.5138   -5.0107 H   0  0  0  0  0  0  0  0  0  0  0  0
   -1.3604    0.9352   -3.3562 C   0  0  0  0  0  0  0  0  0  0  0  0
   -0.6731    1.6858   -3.7365 H   0  0  0  0  0  0  0  0  0  0  0  0
    0.0470    0.3465    1.5629 C   0  0  0  0  0  0  0  0  0  0  0  0
    1.1854    0.1365    1.9846 O   0  0  0  0  0  0  0  0  0  0  0  0
   -0.8551    1.0750    2.2320 N   0  0  0  0  0  0  0  0  0  0  0  0
   -1.7594    1.2031    1.8040 H   0  0  0  0  0  0  0  0  0  0  0  0
   -0.6356    1.6998    3.5400 C   0  0  0  0  0  0  0  0  0  0  0  0
   -0.4284    2.7647    3.4168 H   0  0  0  0  0  0  0  0  0  0  0  0
   -1.5268    1.5885    4.1601 H   0  0  0  0  0  0  0  0  0  0  0  0
    0.2072    1.2358    4.0566 H   0  0  0  0  0  0  0  0  0  0  0  0
  5  6  2  0  0  0  0
  5  7  1  0  0  0  0
  2  3  1  0  0  0  0
  2  4  1  0  0  0  0
  2  5  1  0  0  0  0
  1  2  1  0  0  0  0
 23 24  2  0  0  0  0
 23 25  1  0  0  0  0
 21 22  1  0  0  0  0
 19 20  1  0  0  0  0
 19 21  1  0  0  0  0
 17 18  1  0  0  0  0
 17 19  1  0  0  0  0
 15 16  1  0  0  0  0
 15 17  2  0  0  0  0
 14 15  1  0  0  0  0
 14 21  2  0  0  0  0
 11 12  1  0  0  0  0
 11 13  1  0  0  0  0
 11 14  1  0  0  0  0
  9 10  1  0  0  0  0
  9 11  1  0  0  0  0
  9 23  1  0  0  0  0
  7  8  1  0  0  0  0
  7  9  1  0  0  0  0
 27 28  1  0  0  0  0
 27 29  1  0  0  0  0
 27 30  1  0  0  0  0
 25 26  1  0  0  0  0
 25 27  1  0  0  0  0
M  CHG  1  15   1
M  END
$$$$
default_name
  -OEChem-02102213163D

 30 30  0     1  0  0  0  0  0999 V2000
   -3.5507   -3.2183    1.8116 H   0  0  0  0  0  0  0  0  0  0  0  0
   -3.4597   -2.3913    1.1076 C   0  0  0  0  0  0  0  0  0  0  0  0
   -4.1577   -1.6043    1.3866 H   0  0  0  0  0  0  0  0  0  0  0  0
   -3.6807   -2.7523    0.1036 H   0  0  0  0  0  0  0  0  0  0  0  0
   -2.0477   -1.8543    1.1546 C   0  0  0  0  0  0  0  0  0  0  0  0
   -1.2227   -2.3443    1.9146 O   0  0  0  0  0  0  0  0  0  0  0  0
   -1.7517   -0.8483    0.3266 N   0  0  0  0  0  0  0  0  0  0  0  0
   -2.4847   -0.5123   -0.2804 H   0  0  0  0  0  0  0  0  0  0  0  0
   -0.4117   -0.2463    0.2186 C   0  0  1  0  0  0  0  0  0  0  0  0
    0.2987   -1.0391   -0.0285 H   0  0  0  0  0  0  0  0  0  0  0  0
   -0.4131    0.7505   -0.9636 C   0  0  0  0  0  0  0  0  0  0  0  0
   -0.6668    1.7428   -0.5822 H   0  0  0  0  0  0  0  0  0  0  0  0
    0.5964    0.8138   -1.3756 H   0  0  0  0  0  0  0  0  0  0  0  0
   -1.3614    0.4079   -2.0931 C   0  0  0  0  0  0  0  0  0  0  0  0
   -2.5548   -0.2740   -1.9545 N   0  3  0  0  0  0  0  0  0  0  0  0
   -2.9416   -0.5578   -1.0498 H   0  0  0  0  0  0  0  0  0  0  0  0
   -3.1210   -0.3928   -3.1718 C   0  0  0  0  0  0  0  0  0  0  0  0
   -4.0755   -0.8729   -3.3779 H   0  0  0  0  0  0  0  0  0  0  0  0
   -2.3121    0.1980   -4.0802 N   0  0  0  0  0  0  0  0  0  0  0  0
   -2.4854    0.2646   -5.0797 H   0  0  0  0  0  0  0  0  0  0  0  0
   -1.2022    0.7059   -3.4195 C   0  0  0  0  0  0  0  0  0  0  0  0
   -0.3643    1.2391   -3.8602 H   0  0  0  0  0  0  0  0  0  0  0  0
    0.0470    0.3465    1.5629 C   0  0  0  0  0  0  0  0  0  0  0  0
    1.1854    0.1365    1.9846 O   0  0  0  0  0  0  0  0  0  0  0  0
   -0.8551    1.0750    2.2320 N   0  0  0  0  0  0  0  0  0  0  0  0
   -1.7594    1.2031    1.8040 H   0  0  0  0  0  0  0  0  0  0  0  0
   -0.6356    1.6998    3.5400 C   0  0  0  0  0  0  0  0  0  0  0  0
   -0.4284    2.7647    3.4168 H   0  0  0  0  0  0  0  0  0  0  0  0
   -1.5268    1.5885    4.1601 H   0  0  0  0  0  0  0  0  0  0  0  0
    0.2072    1.2358    4.0566 H   0  0  0  0  0  0  0  0  0  0  0  0
  5  6  2  0  0  0  0
  5  7  1  0  0  0  0
  2  3  1  0  0  0  0
  2  4  1  0  0  0  0
  2  5  1  0  0  0  0
  1  2  1  0  0  0  0
 23 24  2  0  0  0  0
 23 25  1  0  0  0  0
 21 22  1  0  0  0  0
 19 20  1  0  0  0  0
 19 21  1  0  0  0  0
 17 18  1  0  0  0  0
 17 19  1  0  0  0  0
 15 16  1  0  0  0  0
 15 17  2  0  0  0  0
 14 15  1  0  0  0  0
 14 21  2  0  0  0  0
 11 12  1  0  0  0  0
 11 13  1  0  0  0  0
 11 14  1  0  0  0  0
  9 10  1  0  0  0  0
  9 11  1  0  0  0  0
  9 23  1  0  0  0  0
  7  8  1  0  0  0  0
  7  9  1  0  0  0  0
 27 28  1  0  0  0  0
 27 29  1  0  0  0  0
 27 30  1  0  0  0  0
 25 26  1  0  0  0  0
 25 27  1  0  0  0  0
M  CHG  1  15   1
M  END
$$$$
default_name
  -OEChem-02102213163D

 30 30  0     1  0  0  0  0  0999 V2000
   -3.5507   -3.2183    1.8116 H   0  0  0  0  0  0  0  0  0  0  0  0
   -3.4597   -2.3913    1.1076 C   0  0  0  0  0  0  0  0  0  0  0  0
   -4.1577   -1.6043    1.3866 H   0  0  0  0  0  0  0  0  0  0  0  0
   -3.6807   -2.7523    0.1036 H   0  0  0  0  0  0  0  0  0  0  0  0
   -2.0477   -1.8543    1.1546 C   0  0  0  0  0  0  0  0  0  0  0  0
   -1.2227   -2.3443    1.9146 O   0  0  0  0  0  0  0  0  0  0  0  0
   -1.7517   -0.8483    0.3266 N   0  0  0  0  0  0  0  0  0  0  0  0
   -2.4847   -0.5123   -0.2804 H   0  0  0  0  0  0  0  0  0  0  0  0
   -0.4117   -0.2463    0.2186 C   0  0  1  0  0  0  0  0  0  0  0  0
    0.2987   -1.0391   -0.0285 H   0  0  0  0  0  0  0  0  0  0  0  0
   -0.4131    0.7505   -0.9636 C   0  0  0  0  0  0  0  0  0  0  0  0
   -0.6668    1.7428   -0.5822 H   0  0  0  0  0  0  0  0  0  0  0  0
    0.5964    0.8138   -1.3756 H   0  0  0  0  0  0  0  0  0  0  0  0
   -1.3614    0.4079   -2.0931 C   0  0  0  0  0  0  0  0  0  0  0  0
   -2.6709   -0.0040   -1.9389 N   0  3  0  0  0  0  0  0  0  0  0  0
   -3.1445   -0.0540   -1.0323 H   0  0  0  0  0  0  0  0  0  0  0  0
   -3.1970   -0.2167   -3.1614 C   0  0  0  0  0  0  0  0  0  0  0  0
   -4.2180   -0.5362   -3.3604 H   0  0  0  0  0  0  0  0  0  0  0  0
   -2.2492    0.0502   -4.0882 N   0  0  0  0  0  0  0  0  0  0  0  0
   -2.3631   -0.0205   -5.0959 H   0  0  0  0  0  0  0  0  0  0  0  0
   -1.0899    0.4437   -3.4342 C   0  0  0  0  0  0  0  0  0  0  0  0
   -0.1451    0.7279   -3.8892 H   0  0  0  0  0  0  0  0  0  0  0  0
    0.0470    0.3465    1.5629 C   0  0  0  0  0  0  0  0  0  0  0  0
    1.1854    0.1365    1.9846 O   0  0  0  0  0  0  0  0  0  0  0  0
   -0.8551    1.0750    2.2320 N   0  0  0  0  0  0  0  0  0  0  0  0
   -1.7594    1.2031    1.8040 H   0  0  0  0  0  0  0  0  0  0  0  0
   -0.6356    1.6998    3.5400 C   0  0  0  0  0  0  0  0  0  0  0  0
   -0.4284    2.7647    3.4168 H   0  0  0  0  0  0  0  0  0  0  0  0
   -1.5268    1.5885    4.1601 H   0  0  0  0  0  0  0  0  0  0  0  0
    0.2072    1.2358    4.0566 H   0  0  0  0  0  0  0  0  0  0  0  0
  5  6  2  0  0  0  0
  5  7  1  0  0  0  0
  2  3  1  0  0  0  0
  2  4  1  0  0  0  0
  2  5  1  0  0  0  0
  1  2  1  0  0  0  0
 23 24  2  0  0  0  0
 23 25  1  0  0  0  0
 21 22  1  0  0  0  0
 19 20  1  0  0  0  0
 19 21  1  0  0  0  0
 17 18  1  0  0  0  0
 17 19  1  0  0  0  0
 15 16  1  0  0  0  0
 15 17  2  0  0  0  0
 14 15  1  0  0  0  0
 14 21  2  0  0  0  0
 11 12  1  0  0  0  0
 11 13  1  0  0  0  0
 11 14  1  0  0  0  0
  9 10  1  0  0  0  0
  9 11  1  0  0  0  0
  9 23  1  0  0  0  0
  7  8  1  0  0  0  0
  7  9  1  0  0  0  0
 27 28  1  0  0  0  0
 27 29  1  0  0  0  0
 27 30  1  0  0  0  0
 25 26  1  0  0  0  0
 25 27  1  0  0  0  0
M  CHG  1  15   1
M  END
$$$$
default_name
  -OEChem-02102213163D

 30 30  0     1  0  0  0  0  0999 V2000
   -3.5507   -3.2183    1.8116 H   0  0  0  0  0  0  0  0  0  0  0  0
   -3.4597   -2.3913    1.1076 C   0  0  0  0  0  0  0  0  0  0  0  0
   -4.1577   -1.6043    1.3866 H   0  0  0  0  0  0  0  0  0  0  0  0
   -3.6807   -2.7523    0.1036 H   0  0  0  0  0  0  0  0  0  0  0  0
   -2.0477   -1.8543    1.1546 C   0  0  0  0  0  0  0  0  0  0  0  0
   -1.2227   -2.3443    1.9146 O   0  0  0  0  0  0  0  0  0  0  0  0
   -1.7517   -0.8483    0.3266 N   0  0  0  0  0  0  0  0  0  0  0  0
   -2.4847   -0.5123   -0.2804 H   0  0  0  0  0  0  0  0  0  0  0  0
   -0.4117   -0.2463    0.2186 C   0  0  1  0  0  0  0  0  0  0  0  0
    0.2987   -1.0391   -0.0285 H   0  0  0  0  0  0  0  0  0  0  0  0
   -0.4131    0.7505   -0.9636 C   0  0  0  0  0  0  0  0  0  0  0  0
   -0.6668    1.7428   -0.5822 H   0  0  0  0  0  0  0  0  0  0  0  0
    0.5964    0.8138   -1.3756 H   0  0  0  0  0  0  0  0  0  0  0  0
   -1.3614    0.4079   -2.0931 C   0  0  0  0  0  0  0  0  0  0  0  0
   -2.7319    0.2817   -1.9743 N   0  3  0  0  0  0  0  0  0  0  0  0
   -3.2442    0.4747   -1.1089 H   0  0  0  0  0  0  0  0  0  0  0  0
   -3.2371   -0.0303   -3.1843 C   0  0  0  0  0  0  0  0  0  0  0  0
   -4.2916   -0.1807   -3.4064 H   0  0  0  0  0  0  0  0  0  0  0  0
   -2.2166   -0.1060   -4.0682 N   0  0  0  0  0  0  0  0  0  0  0  0
   -2.2991   -0.3221   -5.0582 H   0  0  0  0  0  0  0  0  0  0  0  0
   -1.0313    0.1663   -3.3993 C   0  0  0  0  0  0  0  0  0  0  0  0
   -0.0304    0.1871   -3.8215 H   0  0  0  0  0  0  0  0  0  0  0  0
    0.0470    0.3465    1.5629 C   0  0  0  0  0  0  0  0  0  0  0  0
    1.1854    0.1365    1.9846 O   0  0  0  0  0  0  0  0  0  0  0  0
   -0.8551    1.0750    2.2320 N   0  0  0  0  0  0  0  0  0  0  0  0
   -1.7594    1.2031    1.8040 H   0  0  0  0  0  0  0  0  0  0  0  0
   -0.6356    1.6998    3.5400 C   0  0  0  0  0  0  0  0  0  0  0  0
   -0.4284    2.7647    3.4168 H   0  0  0  0  0  0  0  0  0  0  0  0
   -1.5268    1.5885    4.1601 H   0  0  0  0  0  0  0  0  0  0  0  0
    0.2072    1.2358    4.0566 H   0  0  0  0  0  0  0  0  0  0  0  0
  5  6  2  0  0  0  0
  5  7  1  0  0  0  0
  2  3  1  0  0  0  0
  2  4  1  0  0  0  0
  2  5  1  0  0  0  0
  1  2  1  0  0  0  0
 23 24  2  0  0  0  0
 23 25  1  0  0  0  0
 21 22  1  0  0  0  0
 19 20  1  0  0  0  0
 19 21  1  0  0  0  0
 17 18  1  0  0  0  0
 17 19  1  0  0  0  0
 15 16  1  0  0  0  0
 15 17  2  0  0  0  0
 14 15  1  0  0  0  0
 14 21  2  0  0  0  0
 11 12  1  0  0  0  0
 11 13  1  0  0  0  0
 11 14  1  0  0  0  0
  9 10  1  0  0  0  0
  9 11  1  0  0  0  0
  9 23  1  0  0  0  0
  7  8  1  0  0  0  0
  7  9  1  0  0  0  0
 27 28  1  0  0  0  0
 27 29  1  0  0  0  0
 27 30  1  0  0  0  0
 25 26  1  0  0  0  0
 25 27  1  0  0  0  0
M  CHG  1  15   1
M  END
$$$$
default_name
  -OEChem-02102213163D

 30 30  0     1  0  0  0  0  0999 V2000
   -3.5507   -3.2183    1.8116 H   0  0  0  0  0  0  0  0  0  0  0  0
   -3.4597   -2.3913    1.1076 C   0  0  0  0  0  0  0  0  0  0  0  0
   -4.1577   -1.6043    1.3866 H   0  0  0  0  0  0  0  0  0  0  0  0
   -3.6807   -2.7523    0.1036 H   0  0  0  0  0  0  0  0  0  0  0  0
   -2.0477   -1.8543    1.1546 C   0  0  0  0  0  0  0  0  0  0  0  0
   -1.2227   -2.3443    1.9146 O   0  0  0  0  0  0  0  0  0  0  0  0
   -1.7517   -0.8483    0.3266 N   0  0  0  0  0  0  0  0  0  0  0  0
   -2.4847   -0.5123   -0.2804 H   0  0  0  0  0  0  0  0  0  0  0  0
   -0.4117   -0.2463    0.2186 C   0  0  1  0  0  0  0  0  0  0  0  0
    0.2987   -1.0391   -0.0285 H   0  0  0  0  0  0  0  0  0  0  0  0
   -0.4131    0.7505   -0.9636 C   0  0  0  0  0  0  0  0  0  0  0  0
   -0.6668    1.7428   -0.5822 H   0  0  0  0  0  0  0  0  0  0  0  0
    0.5964    0.8138   -1.3756 H   0  0  0  0  0  0  0  0  0  0  0  0
   -1.3614    0.4079   -2.0931 C   0  0  0  0  0  0  0  0  0  0  0  0
   -2.7336    0.5637   -2.0585 N   0  3  0  0  0  0  0  0  0  0  0  0
   -3.2340    0.9922   -1.2745 H   0  0  0  0  0  0  0  0  0  0  0  0
   -3.2384    0.1538   -3.2390 C   0  0  0  0  0  0  0  0  0  0  0  0
   -4.2914    0.1695   -3.5128 H   0  0  0  0  0  0  0  0  0  0  0  0
   -2.2163   -0.2600   -4.0217 N   0  0  0  0  0  0  0  0  0  0  0  0
   -2.2977   -0.6197   -4.9691 H   0  0  0  0  0  0  0  0  0  0  0  0
   -1.0302   -0.1073   -3.3172 C   0  0  0  0  0  0  0  0  0  0  0  0
   -0.0279   -0.3465   -3.6617 H   0  0  0  0  0  0  0  0  0  0  0  0
    0.0470    0.3465    1.5629 C   0  0  0  0  0  0  0  0  0  0  0  0
    1.1854    0.1365    1.9846 O   0  0  0  0  0  0  0  0  0  0  0  0
   -0.8551    1.0750    2.2320 N   0  0  0  0  0  0  0  0  0  0  0  0
   -1.7594    1.2031    1.8040 H   0  0  0  0  0  0  0  0  0  0  0  0
   -0.6356    1.6998    3.5400 C   0  0  0  0  0  0  0  0  0  0  0  0
   -0.4284    2.7647    3.4168 H   0  0  0  0  0  0  0  0  0  0  0  0
   -1.5268    1.5885    4.1601 H   0  0  0  0  0  0  0  0  0  0  0  0
    0.2072    1.2358    4.0566 H   0  0  0  0  0  0  0  0  0  0  0  0
  5  6  2  0  0  0  0
  5  7  1  0  0  0  0
  2  3  1  0  0  0  0
  2  4  1  0  0  0  0
  2  5  1  0  0  0  0
  1  2  1  0  0  0  0
 23 24  2  0  0  0  0
 23 25  1  0  0  0  0
 21 22  1  0  0  0  0
 19 20  1  0  0  0  0
 19 21  1  0  0  0  0
 17 18  1  0  0  0  0
 17 19  1  0  0  0  0
 15 16  1  0  0  0  0
 15 17  2  0  0  0  0
 14 15  1  0  0  0  0
 14 21  2  0  0  0  0
 11 12  1  0  0  0  0
 11 13  1  0  0  0  0
 11 14  1  0  0  0  0
  9 10  1  0  0  0  0
  9 11  1  0  0  0  0
  9 23  1  0  0  0  0
  7  8  1  0  0  0  0
  7  9  1  0  0  0  0
 27 28  1  0  0  0  0
 27 29  1  0  0  0  0
 27 30  1  0  0  0  0
 25 26  1  0  0  0  0
 25 27  1  0  0  0  0
M  CHG  1  15   1
M  END
$$$$
default_name
  -OEChem-02102213163D

 30 30  0     1  0  0  0  0  0999 V2000
   -3.5507   -3.2183    1.8116 H   0  0  0  0  0  0  0  0  0  0  0  0
   -3.4597   -2.3913    1.1076 C   0  0  0  0  0  0  0  0  0  0  0  0
   -4.1577   -1.6043    1.3866 H   0  0  0  0  0  0  0  0  0  0  0  0
   -3.6807   -2.7523    0.1036 H   0  0  0  0  0  0  0  0  0  0  0  0
   -2.0477   -1.8543    1.1546 C   0  0  0  0  0  0  0  0  0  0  0  0
   -1.2227   -2.3443    1.9146 O   0  0  0  0  0  0  0  0  0  0  0  0
   -1.7517   -0.8483    0.3266 N   0  0  0  0  0  0  0  0  0  0  0  0
   -2.4847   -0.5123   -0.2804 H   0  0  0  0  0  0  0  0  0  0  0  0
   -0.4117   -0.2463    0.2186 C   0  0  1  0  0  0  0  0  0  0  0  0
    0.2987   -1.0391   -0.0285 H   0  0  0  0  0  0  0  0  0  0  0  0
   -0.4131    0.7505   -0.9636 C   0  0  0  0  0  0  0  0  0  0  0  0
   -0.6668    1.7428   -0.5822 H   0  0  0  0  0  0  0  0  0  0  0  0
    0.5964    0.8138   -1.3756 H   0  0  0  0  0  0  0  0  0  0  0  0
   -1.3614    0.4079   -2.0931 C   0  0  0  0  0  0  0  0  0  0  0  0
   -2.6758    0.8228   -2.1856 N   0  3  0  0  0  0  0  0  0  0  0  0
   -3.1145    1.4632   -1.5177 H   0  0  0  0  0  0  0  0  0  0  0  0
   -3.2010    0.3230   -3.3218 C   0  0  0  0  0  0  0  0  0  0  0  0
   -4.2174    0.4904   -3.6723 H   0  0  0  0  0  0  0  0  0  0  0  0
   -2.2485   -0.4012   -3.9518 N   0  0  0  0  0  0  0  0  0  0  0  0
   -2.3590   -0.8930   -4.8347 H   0  0  0  0  0  0  0  0  0  0  0  0
   -1.0868   -0.3584   -3.1935 C   0  0  0  0  0  0  0  0  0  0  0  0
   -0.1379   -0.8364   -3.4207 H   0  0  0  0  0  0  0  0  0  0  0  0
    0.0470    0.3465    1.5629 C   0  0  0  0  0  0  0  0  0  0  0  0
    1.1854    0.1365    1.9846 O   0  0  0  0  0  0  0  0  0  0  0  0
   -0.8551    1.0750    2.2320 N   0  0  0  0  0  0  0  0  0  0  0  0
   -1.7594    1.2031    1.8040 H   0  0  0  0  0  0  0  0  0  0  0  0
   -0.6356    1.6998    3.5400 C   0  0  0  0  0  0  0  0  0  0  0  0
   -0.4284    2.7647    3.4168 H   0  0  0  0  0  0  0  0  0  0  0  0
   -1.5268    1.5885    4.1601 H   0  0  0  0  0  0  0  0  0  0  0  0
    0.2072    1.2358    4.0566 H   0  0  0  0  0  0  0  0  0  0  0  0
  5  6  2  0  0  0  0
  5  7  1  0  0  0  0
  2  3  1  0  0  0  0
  2  4  1  0  0  0  0
  2  5  1  0  0  0  0
  1  2  1  0  0  0  0
 23 24  2  0  0  0  0
 23 25  1  0  0  0  0
 21 22  1  0  0  0  0
 19 20  1  0  0  0  0
 19 21  1  0  0  0  0
 17 18  1  0  0  0  0
 17 19  1  0  0  0  0
 15 16  1  0  0  0  0
 15 17  2  0  0  0  0
 14 15  1  0  0  0  0
 14 21  2  0  0  0  0
 11 12  1  0  0  0  0
 11 13  1  0  0  0  0
 11 14  1  0  0  0  0
  9 10  1  0  0  0  0
  9 11  1  0  0  0  0
  9 23  1  0  0  0  0
  7  8  1  0  0  0  0
  7  9  1  0  0  0  0
 27 28  1  0  0  0  0
 27 29  1  0  0  0  0
 27 30  1  0  0  0  0
 25 26  1  0  0  0  0
 25 27  1  0  0  0  0
M  CHG  1  15   1
M  END
$$$$
default_name
  -OEChem-02102213163D

 30 30  0     1  0  0  0  0  0999 V2000
   -3.5507   -3.2183    1.8116 H   0  0  0  0  0  0  0  0  0  0  0  0
   -3.4597   -2.3913    1.1076 C   0  0  0  0  0  0  0  0  0  0  0  0
   -4.1577   -1.6043    1.3866 H   0  0  0  0  0  0  0  0  0  0  0  0
   -3.6807   -2.7523    0.1036 H   0  0  0  0  0  0  0  0  0  0  0  0
   -2.0477   -1.8543    1.1546 C   0  0  0  0  0  0  0  0  0  0  0  0
   -1.2227   -2.3443    1.9146 O   0  0  0  0  0  0  0  0  0  0  0  0
   -1.7517   -0.8483    0.3266 N   0  0  0  0  0  0  0  0  0  0  0  0
   -2.4847   -0.5123   -0.2804 H   0  0  0  0  0  0  0  0  0  0  0  0
   -0.4117   -0.2463    0.2186 C   0  0  1  0  0  0  0  0  0  0  0  0
    0.2987   -1.0391   -0.0285 H   0  0  0  0  0  0  0  0  0  0  0  0
   -0.4131    0.7505   -0.9636 C   0  0  0  0  0  0  0  0  0  0  0  0
   -0.6668    1.7428   -0.5822 H   0  0  0  0  0  0  0  0  0  0  0  0
    0.5964    0.8138   -1.3756 H   0  0  0  0  0  0  0  0  0  0  0  0
   -1.3614    0.4079   -2.0931 C   0  0  0  0  0  0  0  0  0  0  0  0
   -2.5625    1.0413   -2.3470 N   0  3  0  0  0  0  0  0  0  0  0  0
   -2.8938    1.8557   -1.8220 H   0  0  0  0  0  0  0  0  0  0  0  0
   -3.1273    0.4658   -3.4270 C   0  0  0  0  0  0  0  0  0  0  0  0
   -4.0746    0.7603   -3.8741 H   0  0  0  0  0  0  0  0  0  0  0  0
   -2.3110   -0.5200   -3.8633 N   0  0  0  0  0  0  0  0  0  0  0  0
   -2.4789   -1.1234   -4.6641 H   0  0  0  0  0  0  0  0  0  0  0  0
   -1.1972   -0.5700   -3.0366 C   0  0  0  0  0  0  0  0  0  0  0  0
   -0.3529   -1.2493   -3.1150 H   0  0  0  0  0  0  0  0  0  0  0  0
    0.0470    0.3465    1.5629 C   0  0  0  0  0  0  0  0  0  0  0  0
    1.1854    0.1365    1.9846 O   0  0  0  0  0  0  0  0  0  0  0  0
   -0.8551    1.0750    2.2320 N   0  0  0  0  0  0  0  0  0  0  0  0
   -1.7594    1.2031    1.8040 H   0  0  0  0  0  0  0  0  0  0  0  0
   -0.6356    1.6998    3.5400 C   0  0  0  0  0  0  0  0  0  0  0  0
   -0.4284    2.7647    3.4168 H   0  0  0  0  0  0  0  0  0  0  0  0
   -1.5268    1.5885    4.1601 H   0  0  0  0  0  0  0  0  0  0  0  0
    0.2072    1.2358    4.0566 H   0  0  0  0  0  0  0  0  0  0  0  0
  5  6  2  0  0  0  0
  5  7  1  0  0  0  0
  2  3  1  0  0  0  0
  2  4  1  0  0  0  0
  2  5  1  0  0  0  0
  1  2  1  0  0  0  0
 23 24  2  0  0  0  0
 23 25  1  0  0  0  0
 21 22  1  0  0  0  0
 19 20  1  0  0  0  0
 19 21  1  0  0  0  0
 17 18  1  0  0  0  0
 17 19  1  0  0  0  0
 15 16  1  0  0  0  0
 15 17  2  0  0  0  0
 14 15  1  0  0  0  0
 14 21  2  0  0  0  0
 11 12  1  0  0  0  0
 11 13  1  0  0  0  0
 11 14  1  0  0  0  0
  9 10  1  0  0  0  0
  9 11  1  0  0  0  0
  9 23  1  0  0  0  0
  7  8  1  0  0  0  0
  7  9  1  0  0  0  0
 27 28  1  0  0  0  0
 27 29  1  0  0  0  0
 27 30  1  0  0  0  0
 25 26  1  0  0  0  0
 25 27  1  0  0  0  0
M  CHG  1  15   1
M  END
$$$$
default_name
  -OEChem-02102213163D

 30 30  0     1  0  0  0  0  0999 V2000
   -3.5507   -3.2183    1.8116 H   0  0  0  0  0  0  0  0  0  0  0  0
   -3.4597   -2.3913    1.1076 C   0  0  0  0  0  0  0  0  0  0  0  0
   -4.1577   -1.6043    1.3866 H   0  0  0  0  0  0  0  0  0  0  0  0
   -3.6807   -2.7523    0.1036 H   0  0  0  0  0  0  0  0  0  0  0  0
   -2.0477   -1.8543    1.1546 C   0  0  0  0  0  0  0  0  0  0  0  0
   -1.2227   -2.3443    1.9146 O   0  0  0  0  0  0  0  0  0  0  0  0
   -1.7517   -0.8483    0.3266 N   0  0  0  0  0  0  0  0  0  0  0  0
   -2.4847   -0.5123   -0.2804 H   0  0  0  0  0  0  0  0  0  0  0  0
   -0.4117   -0.2463    0.2186 C   0  0  1  0  0  0  0  0  0  0  0  0
    0.2987   -1.0391   -0.0285 H   0  0  0  0  0  0  0  0  0  0  0  0
   -0.4131    0.7505   -0.9636 C   0  0  0  0  0  0  0  0  0  0  0  0
   -0.6668    1.7428   -0.5822 H   0  0  0  0  0  0  0  0  0  0  0  0
    0.5964    0.8138   -1.3756 H   0  0  0  0  0  0  0  0  0  0  0  0
   -1.3614    0.4079   -2.0931 C   0  0  0  0  0  0  0  0  0  0  0  0
   -2.4014    1.2043   -2.5317 N   0  3  0  0  0  0  0  0  0  0  0  0
   -2.5871    2.1429   -2.1666 H   0  0  0  0  0  0  0  0  0  0  0  0
   -3.0224    0.5724   -3.5474 C   0  0  0  0  0  0  0  0  0  0  0  0
   -3.8727    0.9607   -4.1044 H   0  0  0  0  0  0  0  0  0  0  0  0
   -2.3995   -0.6084   -3.7622 N   0  0  0  0  0  0  0  0  0  0  0  0
   -2.6492   -1.2951   -4.4691 H   0  0  0  0  0  0  0  0  0  0  0  0
   -1.3539   -0.7277   -2.8572 C   0  0  0  0  0  0  0  0  0  0  0  0
   -0.6582   -1.5571   -2.7653 H   0  0  0  0  0  0  0  0  0  0  0  0
    0.0470    0.3465    1.5629 C   0  0  0  0  0  0  0  0  0  0  0  0
    1.1854    0.1365    1.9846 O   0  0  0  0  0  0  0  0  0  0  0  0
   -0.8551    1.0750    2.2320 N   0  0  0  0  0  0  0  0  0  0  0  0
   -1.7594    1.2031    1.8040 H   0  0  0  0  0  0  0  0  0  0  0  0
   -0.6356    1.6998    3.5400 C   0  0  0  0  0  0  0  0  0  0  0  0
   -0.4284    2.7647    3.4168 H   0  0  0  0  0  0  0  0  0  0  0  0
   -1.5268    1.5885    4.1601 H   0  0  0  0  0  0  0  0  0  0  0  0
    0.2072    1.2358    4.0566 H   0  0  0  0  0  0  0  0  0  0  0  0
  5  6  2  0  0  0  0
  5  7  1  0  0  0  0
  2  3  1  0  0  0  0
  2  4  1  0  0  0  0
  2  5  1  0  0  0  0
  1  2  1  0  0  0  0
 23 24  2  0  0  0  0
 23 25  1  0  0  0  0
 21 22  1  0  0  0  0
 19 20  1  0  0  0  0
 19 21  1  0  0  0  0
 17 18  1  0  0  0  0
 17 19  1  0  0  0  0
 15 16  1  0  0  0  0
 15 17  2  0  0  0  0
 14 15  1  0  0  0  0
 14 21  2  0  0  0  0
 11 12  1  0  0  0  0
 11 13  1  0  0  0  0
 11 14  1  0  0  0  0
  9 10  1  0  0  0  0
  9 11  1  0  0  0  0
  9 23  1  0  0  0  0
  7  8  1  0  0  0  0
  7  9  1  0  0  0  0
 27 28  1  0  0  0  0
 27 29  1  0  0  0  0
 27 30  1  0  0  0  0
 25 26  1  0  0  0  0
 25 27  1  0  0  0  0
M  CHG  1  15   1
M  END
$$$$
default_name
  -OEChem-02102213163D

 30 30  0     1  0  0  0  0  0999 V2000
   -3.5507   -3.2183    1.8116 H   0  0  0  0  0  0  0  0  0  0  0  0
   -3.4597   -2.3913    1.1076 C   0  0  0  0  0  0  0  0  0  0  0  0
   -4.1577   -1.6043    1.3866 H   0  0  0  0  0  0  0  0  0  0  0  0
   -3.6807   -2.7523    0.1036 H   0  0  0  0  0  0  0  0  0  0  0  0
   -2.0477   -1.8543    1.1546 C   0  0  0  0  0  0  0  0  0  0  0  0
   -1.2227   -2.3443    1.9146 O   0  0  0  0  0  0  0  0  0  0  0  0
   -1.7517   -0.8483    0.3266 N   0  0  0  0  0  0  0  0  0  0  0  0
   -2.4847   -0.5123   -0.2804 H   0  0  0  0  0  0  0  0  0  0  0  0
   -0.4117   -0.2463    0.2186 C   0  0  1  0  0  0  0  0  0  0  0  0
    0.2987   -1.0391   -0.0285 H   0  0  0  0  0  0  0  0  0  0  0  0
   -0.4131    0.7505   -0.9636 C   0  0  0  0  0  0  0  0  0  0  0  0
   -0.6668    1.7428   -0.5822 H   0  0  0  0  0  0  0  0  0  0  0  0
    0.5964    0.8138   -1.3756 H   0  0  0  0  0  0  0  0  0  0  0  0
   -1.3614    0.4079   -2.0931 C   0  0  0  0  0  0  0  0  0  0  0  0
   -2.2036    1.3007   -2.7270 N   0  3  0  0  0  0  0  0  0  0  0  0
   -2.2153    2.3052   -2.5281 H   0  0  0  0  0  0  0  0  0  0  0  0
   -2.8934    0.6356   -3.6749 C   0  0  0  0  0  0  0  0  0  0  0  0
   -3.6255    1.0780   -4.3475 H   0  0  0  0  0  0  0  0  0  0  0  0
   -2.5079   -0.6603   -3.6554 N   0  0  0  0  0  0  0  0  0  0  0  0
   -2.8582   -1.3964   -4.2629 H   0  0  0  0  0  0  0  0  0  0  0  0
   -1.5462   -0.8206   -2.6675 C   0  0  0  0  0  0  0  0  0  0  0  0
   -1.0329   -1.7388   -2.3955 H   0  0  0  0  0  0  0  0  0  0  0  0
    0.0470    0.3465    1.5629 C   0  0  0  0  0  0  0  0  0  0  0  0
    1.1854    0.1365    1.9846 O   0  0  0  0  0  0  0  0  0  0  0  0
   -0.8551    1.0750    2.2320 N   0  0  0  0  0  0  0  0  0  0  0  0
   -1.7594    1.2031    1.8040 H   0  0  0  0  0  0  0  0  0  0  0  0
   -0.6356    1.6998    3.5400 C   0  0  0  0  0  0  0  0  0  0  0  0
   -0.4284    2.7647    3.4168 H   0  0  0  0  0  0  0  0  0  0  0  0
   -1.5268    1.5885    4.1601 H   0  0  0  0  0  0  0  0  0  0  0  0
    0.2072    1.2358    4.0566 H   0  0  0  0  0  0  0  0  0  0  0  0
  5  6  2  0  0  0  0
  5  7  1  0  0  0  0
  2  3  1  0  0  0  0
  2  4  1  0  0  0  0
  2  5  1  0  0  0  0
  1  2  1  0  0  0  0
 23 24  2  0  0  0  0
 23 25  1  0  0  0  0
 21 22  1  0  0  0  0
 19 20  1  0  0  0  0
 19 21  1  0  0  0  0
 17 18  1  0  0  0  0
 17 19  1  0  0  0  0
 15 16  1  0  0  0  0
 15 17  2  0  0  0  0
 14 15  1  0  0  0  0
 14 21  2  0  0  0  0
 11 12  1  0  0  0  0
 11 13  1  0  0  0  0
 11 14  1  0  0  0  0
  9 10  1  0  0  0  0
  9 11  1  0  0  0  0
  9 23  1  0  0  0  0
  7  8  1  0  0  0  0
  7  9  1  0  0  0  0
 27 28  1  0  0  0  0
 27 29  1  0  0  0  0
 27 30  1  0  0  0  0
 25 26  1  0  0  0  0
 25 27  1  0  0  0  0
M  CHG  1  15   1
M  END
$$$$
default_name
  -OEChem-02102213163D

 30 30  0     1  0  0  0  0  0999 V2000
   -3.5507   -3.2183    1.8116 H   0  0  0  0  0  0  0  0  0  0  0  0
   -3.4597   -2.3913    1.1076 C   0  0  0  0  0  0  0  0  0  0  0  0
   -4.1577   -1.6043    1.3866 H   0  0  0  0  0  0  0  0  0  0  0  0
   -3.6807   -2.7523    0.1036 H   0  0  0  0  0  0  0  0  0  0  0  0
   -2.0477   -1.8543    1.1546 C   0  0  0  0  0  0  0  0  0  0  0  0
   -1.2227   -2.3443    1.9146 O   0  0  0  0  0  0  0  0  0  0  0  0
   -1.7517   -0.8483    0.3266 N   0  0  0  0  0  0  0  0  0  0  0  0
   -2.4847   -0.5123   -0.2804 H   0  0  0  0  0  0  0  0  0  0  0  0
   -0.4117   -0.2463    0.2186 C   0  0  1  0  0  0  0  0  0  0  0  0
    0.2987   -1.0391   -0.0285 H   0  0  0  0  0  0  0  0  0  0  0  0
   -0.4131    0.7505   -0.9636 C   0  0  0  0  0  0  0  0  0  0  0  0
   -0.6668    1.7428   -0.5822 H   0  0  0  0  0  0  0  0  0  0  0  0
    0.5964    0.8138   -1.3756 H   0  0  0  0  0  0  0  0  0  0  0  0
   -1.3614    0.4079   -2.0931 C   0  0  0  0  0  0  0  0  0  0  0  0
   -1.9824    1.3240   -2.9198 N   0  3  0  0  0  0  0  0  0  0  0  0
   -1.8035    2.3316   -2.8818 H   0  0  0  0  0  0  0  0  0  0  0  0
   -2.7491    0.6511   -3.8007 C   0  0  0  0  0  0  0  0  0  0  0  0
   -3.3499    1.1041   -4.5868 H   0  0  0  0  0  0  0  0  0  0  0  0
   -2.6290   -0.6722   -3.5502 N   0  0  0  0  0  0  0  0  0  0  0  0
   -3.0917   -1.4205   -4.0595 H   0  0  0  0  0  0  0  0  0  0  0  0
   -1.7610   -0.8426   -2.4805 C   0  0  0  0  0  0  0  0  0  0  0  0
   -1.4517   -1.7820   -2.0308 H   0  0  0  0  0  0  0  0  0  0  0  0
    0.0470    0.3465    1.5629 C   0  0  0  0  0  0  0  0  0  0  0  0
    1.1854    0.1365    1.9846 O   0  0  0  0  0  0  0  0  0  0  0  0
   -0.8551    1.0750    2.2320 N   0  0  0  0  0  0  0  0  0  0  0  0
   -1.7594    1.2031    1.8040 H   0  0  0  0  0  0  0  0  0  0  0  0
   -0.6356    1.6998    3.5400 C   0  0  0  0  0  0  0  0  0  0  0  0
   -0.4284    2.7647    3.4168 H   0  0  0  0  0  0  0  0  0  0  0  0
   -1.5268    1.5885    4.1601 H   0  0  0  0  0  0  0  0  0  0  0  0
    0.2072    1.2358    4.0566 H   0  0  0  0  0  0  0  0  0  0  0  0
  5  6  2  0  0  0  0
  5  7  1  0  0  0  0
  2  3  1  0  0  0  0
  2  4  1  0  0  0  0
  2  5  1  0  0  0  0
  1  2  1  0  0  0  0
 23 24  2  0  0  0  0
 23 25  1  0  0  0  0
 21 22  1  0  0  0  0
 19 20  1  0  0  0  0
 19 21  1  0  0  0  0
 17 18  1  0  0  0  0
 17 19  1  0  0  0  0
 15 16  1  0  0  0  0
 15 17  2  0  0  0  0
 14 15  1  0  0  0  0
 14 21  2  0  0  0  0
 11 12  1  0  0  0  0
 11 13  1  0  0  0  0
 11 14  1  0  0  0  0
  9 10  1  0  0  0  0
  9 11  1  0  0  0  0
  9 23  1  0  0  0  0
  7  8  1  0  0  0  0
  7  9  1  0  0  0  0
 27 28  1  0  0  0  0
 27 29  1  0  0  0  0
 27 30  1  0  0  0  0
 25 26  1  0  0  0  0
 25 27  1  0  0  0  0
M  CHG  1  15   1
M  END
$$$$
default_name
  -OEChem-02102213163D

 30 30  0     1  0  0  0  0  0999 V2000
   -3.5507   -3.2183    1.8116 H   0  0  0  0  0  0  0  0  0  0  0  0
   -3.4597   -2.3913    1.1076 C   0  0  0  0  0  0  0  0  0  0  0  0
   -4.1577   -1.6043    1.3866 H   0  0  0  0  0  0  0  0  0  0  0  0
   -3.6807   -2.7523    0.1036 H   0  0  0  0  0  0  0  0  0  0  0  0
   -2.0477   -1.8543    1.1546 C   0  0  0  0  0  0  0  0  0  0  0  0
   -1.2227   -2.3443    1.9146 O   0  0  0  0  0  0  0  0  0  0  0  0
   -1.7517   -0.8483    0.3266 N   0  0  0  0  0  0  0  0  0  0  0  0
   -2.4847   -0.5123   -0.2804 H   0  0  0  0  0  0  0  0  0  0  0  0
   -0.4117   -0.2463    0.2186 C   0  0  1  0  0  0  0  0  0  0  0  0
    0.2987   -1.0391   -0.0285 H   0  0  0  0  0  0  0  0  0  0  0  0
   -0.4131    0.7505   -0.9636 C   0  0  0  0  0  0  0  0  0  0  0  0
   -0.6668    1.7428   -0.5822 H   0  0  0  0  0  0  0  0  0  0  0  0
    0.5964    0.8138   -1.3756 H   0  0  0  0  0  0  0  0  0  0  0  0
   -1.3614    0.4079   -2.0931 C   0  0  0  0  0  0  0  0  0  0  0  0
   -1.7530    1.2725   -3.0968 N   0  3  0  0  0  0  0  0  0  0  0  0
   -1.3800    2.2203   -3.2036 H   0  0  0  0  0  0  0  0  0  0  0  0
   -2.5994    0.6179   -3.9163 C   0  0  0  0  0  0  0  0  0  0  0  0
   -3.0646    1.0373   -4.8061 H   0  0  0  0  0  0  0  0  0  0  0  0
   -2.7543   -0.6433   -3.4537 N   0  0  0  0  0  0  0  0  0  0  0  0
   -3.3339   -1.3658   -3.8727 H   0  0  0  0  0  0  0  0  0  0  0  0
   -1.9837   -0.7919   -2.3089 C   0  0  0  0  0  0  0  0  0  0  0  0
   -1.8858   -1.6837   -1.6961 H   0  0  0  0  0  0  0  0  0  0  0  0
    0.0470    0.3465    1.5629 C   0  0  0  0  0  0  0  0  0  0  0  0
    1.1854    0.1365    1.9846 O   0  0  0  0  0  0  0  0  0  0  0  0
   -0.8551    1.0750    2.2320 N   0  0  0  0  0  0  0  0  0  0  0  0
   -1.7594    1.2031    1.8040 H   0  0  0  0  0  0  0  0  0  0  0  0
   -0.6356    1.6998    3.5400 C   0  0  0  0  0  0  0  0  0  0  0  0
   -0.4284    2.7647    3.4168 H   0  0  0  0  0  0  0  0  0  0  0  0
   -1.5268    1.5885    4.1601 H   0  0  0  0  0  0  0  0  0  0  0  0
    0.2072    1.2358    4.0566 H   0  0  0  0  0  0  0  0  0  0  0  0
  5  6  2  0  0  0  0
  5  7  1  0  0  0  0
  2  3  1  0  0  0  0
  2  4  1  0  0  0  0
  2  5  1  0  0  0  0
  1  2  1  0  0  0  0
 23 24  2  0  0  0  0
 23 25  1  0  0  0  0
 21 22  1  0  0  0  0
 19 20  1  0  0  0  0
 19 21  1  0  0  0  0
 17 18  1  0  0  0  0
 17 19  1  0  0  0  0
 15 16  1  0  0  0  0
 15 17  2  0  0  0  0
 14 15  1  0  0  0  0
 14 21  2  0  0  0  0
 11 12  1  0  0  0  0
 11 13  1  0  0  0  0
 11 14  1  0  0  0  0
  9 10  1  0  0  0  0
  9 11  1  0  0  0  0
  9 23  1  0  0  0  0
  7  8  1  0  0  0  0
  7  9  1  0  0  0  0
 27 28  1  0  0  0  0
 27 29  1  0  0  0  0
 27 30  1  0  0  0  0
 25 26  1  0  0  0  0
 25 27  1  0  0  0  0
M  CHG  1  15   1
M  END
$$$$
default_name
  -OEChem-02102213163D

 30 30  0     1  0  0  0  0  0999 V2000
   -3.5507   -3.2183    1.8116 H   0  0  0  0  0  0  0  0  0  0  0  0
   -3.4597   -2.3913    1.1076 C   0  0  0  0  0  0  0  0  0  0  0  0
   -4.1577   -1.6043    1.3866 H   0  0  0  0  0  0  0  0  0  0  0  0
   -3.6807   -2.7523    0.1036 H   0  0  0  0  0  0  0  0  0  0  0  0
   -2.0477   -1.8543    1.1546 C   0  0  0  0  0  0  0  0  0  0  0  0
   -1.2227   -2.3443    1.9146 O   0  0  0  0  0  0  0  0  0  0  0  0
   -1.7517   -0.8483    0.3266 N   0  0  0  0  0  0  0  0  0  0  0  0
   -2.4847   -0.5123   -0.2804 H   0  0  0  0  0  0  0  0  0  0  0  0
   -0.4117   -0.2463    0.2186 C   0  0  1  0  0  0  0  0  0  0  0  0
    0.2987   -1.0391   -0.0285 H   0  0  0  0  0  0  0  0  0  0  0  0
   -0.4131    0.7505   -0.9636 C   0  0  0  0  0  0  0  0  0  0  0  0
   -0.3982    1.7669   -0.5622 H   0  0  0  0  0  0  0  0  0  0  0  0
    0.5058    0.6196   -1.5392 H   0  0  0  0  0  0  0  0  0  0  0  0
   -1.5853    0.6211   -1.9131 C   0  0  0  0  0  0  0  0  0  0  0  0
   -1.7947    1.4009   -3.0340 N   0  3  0  0  0  0  0  0  0  0  0  0
   -1.1299    2.1068   -3.3635 H   0  0  0  0  0  0  0  0  0  0  0  0
   -2.9359    0.9968   -3.6265 C   0  0  0  0  0  0  0  0  0  0  0  0
   -3.3539    1.4164   -4.5393 H   0  0  0  0  0  0  0  0  0  0  0  0
   -3.4559   -0.0218   -2.9052 N   0  0  0  0  0  0  0  0  0  0  0  0
   -4.3128   -0.5263   -3.1164 H   0  0  0  0  0  0  0  0  0  0  0  0
   -2.6200   -0.2706   -1.8253 C   0  0  0  0  0  0  0  0  0  0  0  0
   -2.7520   -1.0249   -1.0545 H   0  0  0  0  0  0  0  0  0  0  0  0
    0.0470    0.3465    1.5629 C   0  0  0  0  0  0  0  0  0  0  0  0
    1.1854    0.1365    1.9846 O   0  0  0  0  0  0  0  0  0  0  0  0
   -0.8551    1.0750    2.2320 N   0  0  0  0  0  0  0  0  0  0  0  0
   -1.7594    1.2031    1.8040 H   0  0  0  0  0  0  0  0  0  0  0  0
   -0.6356    1.6998    3.5400 C   0  0  0  0  0  0  0  0  0  0  0  0
   -0.4284    2.7647    3.4168 H   0  0  0  0  0  0  0  0  0  0  0  0
   -1.5268    1.5885    4.1601 H   0  0  0  0  0  0  0  0  0  0  0  0
    0.2072    1.2358    4.0566 H   0  0  0  0  0  0  0  0  0  0  0  0
  5  6  2  0  0  0  0
  5  7  1  0  0  0  0
  2  3  1  0  0  0  0
  2  4  1  0  0  0  0
  2  5  1  0  0  0  0
  1  2  1  0  0  0  0
 23 24  2  0  0  0  0
 23 25  1  0  0  0  0
 21 22  1  0  0  0  0
 19 20  1  0  0  0  0
 19 21  1  0  0  0  0
 17 18  1  0  0  0  0
 17 19  1  0  0  0  0
 15 16  1  0  0  0  0
 15 17  2  0  0  0  0
 14 15  1  0  0  0  0
 14 21  2  0  0  0  0
 11 12  1  0  0  0  0
 11 13  1  0  0  0  0
 11 14  1  0  0  0  0
  9 10  1  0  0  0  0
  9 11  1  0  0  0  0
  9 23  1  0  0  0  0
  7  8  1  0  0  0  0
  7  9  1  0  0  0  0
 27 28  1  0  0  0  0
 27 29  1  0  0  0  0
 27 30  1  0  0  0  0
 25 26  1  0  0  0  0
 25 27  1  0  0  0  0
M  CHG  1  15   1
M  END
$$$$
default_name
  -OEChem-02102213163D

 30 30  0     1  0  0  0  0  0999 V2000
   -3.5507   -3.2183    1.8116 H   0  0  0  0  0  0  0  0  0  0  0  0
   -3.4597   -2.3913    1.1076 C   0  0  0  0  0  0  0  0  0  0  0  0
   -4.1577   -1.6043    1.3866 H   0  0  0  0  0  0  0  0  0  0  0  0
   -3.6807   -2.7523    0.1036 H   0  0  0  0  0  0  0  0  0  0  0  0
   -2.0477   -1.8543    1.1546 C   0  0  0  0  0  0  0  0  0  0  0  0
   -1.2227   -2.3443    1.9146 O   0  0  0  0  0  0  0  0  0  0  0  0
   -1.7517   -0.8483    0.3266 N   0  0  0  0  0  0  0  0  0  0  0  0
   -2.4847   -0.5123   -0.2804 H   0  0  0  0  0  0  0  0  0  0  0  0
   -0.4117   -0.2463    0.2186 C   0  0  1  0  0  0  0  0  0  0  0  0
    0.2987   -1.0391   -0.0285 H   0  0  0  0  0  0  0  0  0  0  0  0
   -0.4131    0.7505   -0.9636 C   0  0  0  0  0  0  0  0  0  0  0  0
   -0.3982    1.7669   -0.5622 H   0  0  0  0  0  0  0  0  0  0  0  0
    0.5058    0.6196   -1.5392 H   0  0  0  0  0  0  0  0  0  0  0  0
   -1.5853    0.6211   -1.9131 C   0  0  0  0  0  0  0  0  0  0  0  0
   -1.6572    1.1813   -3.1738 N   0  3  0  0  0  0  0  0  0  0  0  0
   -0.8836    1.6903   -3.6109 H   0  0  0  0  0  0  0  0  0  0  0  0
   -2.8460    0.8538   -3.7179 C   0  0  0  0  0  0  0  0  0  0  0  0
   -3.1842    1.1415   -4.7113 H   0  0  0  0  0  0  0  0  0  0  0  0
   -3.5306    0.0987   -2.8293 N   0  0  0  0  0  0  0  0  0  0  0  0
   -4.4577   -0.2943   -2.9692 H   0  0  0  0  0  0  0  0  0  0  0  0
   -2.7531   -0.0570   -1.6901 C   0  0  0  0  0  0  0  0  0  0  0  0
   -3.0118   -0.6088   -0.7906 H   0  0  0  0  0  0  0  0  0  0  0  0
    0.0470    0.3465    1.5629 C   0  0  0  0  0  0  0  0  0  0  0  0
    1.1854    0.1365    1.9846 O   0  0  0  0  0  0  0  0  0  0  0  0
   -0.8551    1.0750    2.2320 N   0  0  0  0  0  0  0  0  0  0  0  0
   -1.7594    1.2031    1.8040 H   0  0  0  0  0  0  0  0  0  0  0  0
   -0.6356    1.6998    3.5400 C   0  0  0  0  0  0  0  0  0  0  0  0
   -0.4284    2.7647    3.4168 H   0  0  0  0  0  0  0  0  0  0  0  0
   -1.5268    1.5885    4.1601 H   0  0  0  0  0  0  0  0  0  0  0  0
    0.2072    1.2358    4.0566 H   0  0  0  0  0  0  0  0  0  0  0  0
  5  6  2  0  0  0  0
  5  7  1  0  0  0  0
  2  3  1  0  0  0  0
  2  4  1  0  0  0  0
  2  5  1  0  0  0  0
  1  2  1  0  0  0  0
 23 24  2  0  0  0  0
 23 25  1  0  0  0  0
 21 22  1  0  0  0  0
 19 20  1  0  0  0  0
 19 21  1  0  0  0  0
 17 18  1  0  0  0  0
 17 19  1  0  0  0  0
 15 16  1  0  0  0  0
 15 17  2  0  0  0  0
 14 15  1  0  0  0  0
 14 21  2  0  0  0  0
 11 12  1  0  0  0  0
 11 13  1  0  0  0  0
 11 14  1  0  0  0  0
  9 10  1  0  0  0  0
  9 11  1  0  0  0  0
  9 23  1  0  0  0  0
  7  8  1  0  0  0  0
  7  9  1  0  0  0  0
 27 28  1  0  0  0  0
 27 29  1  0  0  0  0
 27 30  1  0  0  0  0
 25 26  1  0  0  0  0
 25 27  1  0  0  0  0
M  CHG  1  15   1
M  END
$$$$
default_name
  -OEChem-02102213163D

 30 30  0     1  0  0  0  0  0999 V2000
   -3.5507   -3.2183    1.8116 H   0  0  0  0  0  0  0  0  0  0  0  0
   -3.4597   -2.3913    1.1076 C   0  0  0  0  0  0  0  0  0  0  0  0
   -4.1577   -1.6043    1.3866 H   0  0  0  0  0  0  0  0  0  0  0  0
   -3.6807   -2.7523    0.1036 H   0  0  0  0  0  0  0  0  0  0  0  0
   -2.0477   -1.8543    1.1546 C   0  0  0  0  0  0  0  0  0  0  0  0
   -1.2227   -2.3443    1.9146 O   0  0  0  0  0  0  0  0  0  0  0  0
   -1.7517   -0.8483    0.3266 N   0  0  0  0  0  0  0  0  0  0  0  0
   -2.4847   -0.5123   -0.2804 H   0  0  0  0  0  0  0  0  0  0  0  0
   -0.4117   -0.2463    0.2186 C   0  0  1  0  0  0  0  0  0  0  0  0
    0.2987   -1.0391   -0.0285 H   0  0  0  0  0  0  0  0  0  0  0  0
   -0.4131    0.7505   -0.9636 C   0  0  0  0  0  0  0  0  0  0  0  0
   -0.3982    1.7669   -0.5622 H   0  0  0  0  0  0  0  0  0  0  0  0
    0.5058    0.6196   -1.5392 H   0  0  0  0  0  0  0  0  0  0  0  0
   -1.5853    0.6211   -1.9131 C   0  0  0  0  0  0  0  0  0  0  0  0
   -1.5570    0.9190   -3.2617 N   0  3  0  0  0  0  0  0  0  0  0  0
   -0.7077    1.1985   -3.7610 H   0  0  0  0  0  0  0  0  0  0  0  0
   -2.7805    0.6828   -3.7756 C   0  0  0  0  0  0  0  0  0  0  0  0
   -3.0611    0.8140   -4.8187 H   0  0  0  0  0  0  0  0  0  0  0  0
   -3.5849    0.2424   -2.7819 N   0  0  0  0  0  0  0  0  0  0  0  0
   -4.5632   -0.0171   -2.8766 H   0  0  0  0  0  0  0  0  0  0  0  0
   -2.8500    0.1979   -1.6052 C   0  0  0  0  0  0  0  0  0  0  0  0
   -3.2009   -0.1119   -0.6247 H   0  0  0  0  0  0  0  0  0  0  0  0
    0.0470    0.3465    1.5629 C   0  0  0  0  0  0  0  0  0  0  0  0
    1.1854    0.1365    1.9846 O   0  0  0  0  0  0  0  0  0  0  0  0
   -0.8551    1.0750    2.2320 N   0  0  0  0  0  0  0  0  0  0  0  0
   -1.7594    1.2031    1.8040 H   0  0  0  0  0  0  0  0  0  0  0  0
   -0.6356    1.6998    3.5400 C   0  0  0  0  0  0  0  0  0  0  0  0
   -0.4284    2.7647    3.4168 H   0  0  0  0  0  0  0  0  0  0  0  0
   -1.5268    1.5885    4.1601 H   0  0  0  0  0  0  0  0  0  0  0  0
    0.2072    1.2358    4.0566 H   0  0  0  0  0  0  0  0  0  0  0  0
  5  6  2  0  0  0  0
  5  7  1  0  0  0  0
  2  3  1  0  0  0  0
  2  4  1  0  0  0  0
  2  5  1  0  0  0  0
  1  2  1  0  0  0  0
 23 24  2  0  0  0  0
 23 25  1  0  0  0  0
 21 22  1  0  0  0  0
 19 20  1  0  0  0  0
 19 21  1  0  0  0  0
 17 18  1  0  0  0  0
 17 19  1  0  0  0  0
 15 16  1  0  0  0  0
 15 17  2  0  0  0  0
 14 15  1  0  0  0  0
 14 21  2  0  0  0  0
 11 12  1  0  0  0  0
 11 13  1  0  0  0  0
 11 14  1  0  0  0  0
  9 10  1  0  0  0  0
  9 11  1  0  0  0  0
  9 23  1  0  0  0  0
  7  8  1  0  0  0  0
  7  9  1  0  0  0  0
 27 28  1  0  0  0  0
 27 29  1  0  0  0  0
 27 30  1  0  0  0  0
 25 26  1  0  0  0  0
 25 27  1  0  0  0  0
M  CHG  1  15   1
M  END
$$$$
default_name
  -OEChem-02102213163D

 30 30  0     1  0  0  0  0  0999 V2000
   -3.5507   -3.2183    1.8116 H   0  0  0  0  0  0  0  0  0  0  0  0
   -3.4597   -2.3913    1.1076 C   0  0  0  0  0  0  0  0  0  0  0  0
   -4.1577   -1.6043    1.3866 H   0  0  0  0  0  0  0  0  0  0  0  0
   -3.6807   -2.7523    0.1036 H   0  0  0  0  0  0  0  0  0  0  0  0
   -2.0477   -1.8543    1.1546 C   0  0  0  0  0  0  0  0  0  0  0  0
   -1.2227   -2.3443    1.9146 O   0  0  0  0  0  0  0  0  0  0  0  0
   -1.7517   -0.8483    0.3266 N   0  0  0  0  0  0  0  0  0  0  0  0
   -2.4847   -0.5123   -0.2804 H   0  0  0  0  0  0  0  0  0  0  0  0
   -0.4117   -0.2463    0.2186 C   0  0  1  0  0  0  0  0  0  0  0  0
    0.2987   -1.0391   -0.0285 H   0  0  0  0  0  0  0  0  0  0  0  0
   -0.4131    0.7505   -0.9636 C   0  0  0  0  0  0  0  0  0  0  0  0
   -0.3982    1.7669   -0.5622 H   0  0  0  0  0  0  0  0  0  0  0  0
    0.5058    0.6196   -1.5392 H   0  0  0  0  0  0  0  0  0  0  0  0
   -1.5853    0.6211   -1.9131 C   0  0  0  0  0  0  0  0  0  0  0  0
   -1.5009    0.6317   -3.2919 N   0  3  0  0  0  0  0  0  0  0  0  0
   -0.6144    0.6649   -3.8035 H   0  0  0  0  0  0  0  0  0  0  0  0
   -2.7436    0.4954   -3.7955 C   0  0  0  0  0  0  0  0  0  0  0  0
   -2.9930    0.4561   -4.8540 H   0  0  0  0  0  0  0  0  0  0  0  0
   -3.6151    0.3996   -2.7660 N   0  0  0  0  0  0  0  0  0  0  0  0
   -4.6222    0.2862   -2.8451 H   0  0  0  0  0  0  0  0  0  0  0  0
   -2.9041    0.4769   -1.5764 C   0  0  0  0  0  0  0  0  0  0  0  0
   -3.3067    0.4320   -0.5683 H   0  0  0  0  0  0  0  0  0  0  0  0
    0.0470    0.3465    1.5629 C   0  0  0  0  0  0  0  0  0  0  0  0
    1.1854    0.1365    1.9846 O   0  0  0  0  0  0  0  0  0  0  0  0
   -0.8551    1.0750    2.2320 N   0  0  0  0  0  0  0  0  0  0  0  0
   -1.7594    1.2031    1.8040 H   0  0  0  0  0  0  0  0  0  0  0  0
   -0.6356    1.6998    3.5400 C   0  0  0  0  0  0  0  0  0  0  0  0
   -0.4284    2.7647    3.4168 H   0  0  0  0  0  0  0  0  0  0  0  0
   -1.5268    1.5885    4.1601 H   0  0  0  0  0  0  0  0  0  0  0  0
    0.2072    1.2358    4.0566 H   0  0  0  0  0  0  0  0  0  0  0  0
  5  6  2  0  0  0  0
  5  7  1  0  0  0  0
  2  3  1  0  0  0  0
  2  4  1  0  0  0  0
  2  5  1  0  0  0  0
  1  2  1  0  0  0  0
 23 24  2  0  0  0  0
 23 25  1  0  0  0  0
 21 22  1  0  0  0  0
 19 20  1  0  0  0  0
 19 21  1  0  0  0  0
 17 18  1  0  0  0  0
 17 19  1  0  0  0  0
 15 16  1  0  0  0  0
 15 17  2  0  0  0  0
 14 15  1  0  0  0  0
 14 21  2  0  0  0  0
 11 12  1  0  0  0  0
 11 13  1  0  0  0  0
 11 14  1  0  0  0  0
  9 10  1  0  0  0  0
  9 11  1  0  0  0  0
  9 23  1  0  0  0  0
  7  8  1  0  0  0  0
  7  9  1  0  0  0  0
 27 28  1  0  0  0  0
 27 29  1  0  0  0  0
 27 30  1  0  0  0  0
 25 26  1  0  0  0  0
 25 27  1  0  0  0  0
M  CHG  1  15   1
M  END
$$$$
default_name
  -OEChem-02102213163D

 30 30  0     1  0  0  0  0  0999 V2000
   -3.5507   -3.2183    1.8116 H   0  0  0  0  0  0  0  0  0  0  0  0
   -3.4597   -2.3913    1.1076 C   0  0  0  0  0  0  0  0  0  0  0  0
   -4.1577   -1.6043    1.3866 H   0  0  0  0  0  0  0  0  0  0  0  0
   -3.6807   -2.7523    0.1036 H   0  0  0  0  0  0  0  0  0  0  0  0
   -2.0477   -1.8543    1.1546 C   0  0  0  0  0  0  0  0  0  0  0  0
   -1.2227   -2.3443    1.9146 O   0  0  0  0  0  0  0  0  0  0  0  0
   -1.7517   -0.8483    0.3266 N   0  0  0  0  0  0  0  0  0  0  0  0
   -2.4847   -0.5123   -0.2804 H   0  0  0  0  0  0  0  0  0  0  0  0
   -0.4117   -0.2463    0.2186 C   0  0  1  0  0  0  0  0  0  0  0  0
    0.2987   -1.0391   -0.0285 H   0  0  0  0  0  0  0  0  0  0  0  0
   -0.4131    0.7505   -0.9636 C   0  0  0  0  0  0  0  0  0  0  0  0
   -0.3982    1.7669   -0.5622 H   0  0  0  0  0  0  0  0  0  0  0  0
    0.5058    0.6196   -1.5392 H   0  0  0  0  0  0  0  0  0  0  0  0
   -1.5853    0.6211   -1.9131 C   0  0  0  0  0  0  0  0  0  0  0  0
   -1.4926    0.3390   -3.2622 N   0  3  0  0  0  0  0  0  0  0  0  0
   -0.6099    0.1257   -3.7356 H   0  0  0  0  0  0  0  0  0  0  0  0
   -2.7380    0.3043   -3.7764 C   0  0  0  0  0  0  0  0  0  0  0  0
   -2.9846    0.0923   -4.8148 H   0  0  0  0  0  0  0  0  0  0  0  0
   -3.6191    0.5595   -2.7829 N   0  0  0  0  0  0  0  0  0  0  0  0
   -4.6307    0.5951   -2.8768 H   0  0  0  0  0  0  0  0  0  0  0  0
   -2.9117    0.7609   -1.6058 C   0  0  0  0  0  0  0  0  0  0  0  0
   -3.3218    0.9858   -0.6251 H   0  0  0  0  0  0  0  0  0  0  0  0
    0.0470    0.3465    1.5629 C   0  0  0  0  0  0  0  0  0  0  0  0
    1.1854    0.1365    1.9846 O   0  0  0  0  0  0  0  0  0  0  0  0
   -0.8551    1.0750    2.2320 N   0  0  0  0  0  0  0  0  0  0  0  0
   -1.7594    1.2031    1.8040 H   0  0  0  0  0  0  0  0  0  0  0  0
   -0.6356    1.6998    3.5400 C   0  0  0  0  0  0  0  0  0  0  0  0
   -0.4284    2.7647    3.4168 H   0  0  0  0  0  0  0  0  0  0  0  0
   -1.5268    1.5885    4.1601 H   0  0  0  0  0  0  0  0  0  0  0  0
    0.2072    1.2358    4.0566 H   0  0  0  0  0  0  0  0  0  0  0  0
  5  6  2  0  0  0  0
  5  7  1  0  0  0  0
  2  3  1  0  0  0  0
  2  4  1  0  0  0  0
  2  5  1  0  0  0  0
  1  2  1  0  0  0  0
 23 24  2  0  0  0  0
 23 25  1  0  0  0  0
 21 22  1  0  0  0  0
 19 20  1  0  0  0  0
 19 21  1  0  0  0  0
 17 18  1  0  0  0  0
 17 19  1  0  0  0  0
 15 16  1  0  0  0  0
 15 17  2  0  0  0  0
 14 15  1  0  0  0  0
 14 21  2  0  0  0  0
 11 12  1  0  0  0  0
 11 13  1  0  0  0  0
 11 14  1  0  0  0  0
  9 10  1  0  0  0  0
  9 11  1  0  0  0  0
  9 23  1  0  0  0  0
  7  8  1  0  0  0  0
  7  9  1  0  0  0  0
 27 28  1  0  0  0  0
 27 29  1  0  0  0  0
 27 30  1  0  0  0  0
 25 26  1  0  0  0  0
 25 27  1  0  0  0  0
M  CHG  1  15   1
M  END
$$$$
default_name
  -OEChem-02102213163D

 30 30  0     1  0  0  0  0  0999 V2000
   -3.5507   -3.2183    1.8116 H   0  0  0  0  0  0  0  0  0  0  0  0
   -3.4597   -2.3913    1.1076 C   0  0  0  0  0  0  0  0  0  0  0  0
   -4.1577   -1.6043    1.3866 H   0  0  0  0  0  0  0  0  0  0  0  0
   -3.6807   -2.7523    0.1036 H   0  0  0  0  0  0  0  0  0  0  0  0
   -2.0477   -1.8543    1.1546 C   0  0  0  0  0  0  0  0  0  0  0  0
   -1.2227   -2.3443    1.9146 O   0  0  0  0  0  0  0  0  0  0  0  0
   -1.7517   -0.8483    0.3266 N   0  0  0  0  0  0  0  0  0  0  0  0
   -2.4847   -0.5123   -0.2804 H   0  0  0  0  0  0  0  0  0  0  0  0
   -0.4117   -0.2463    0.2186 C   0  0  1  0  0  0  0  0  0  0  0  0
    0.2987   -1.0391   -0.0285 H   0  0  0  0  0  0  0  0  0  0  0  0
   -0.4131    0.7505   -0.9636 C   0  0  0  0  0  0  0  0  0  0  0  0
   -0.3982    1.7669   -0.5622 H   0  0  0  0  0  0  0  0  0  0  0  0
    0.5058    0.6196   -1.5392 H   0  0  0  0  0  0  0  0  0  0  0  0
   -1.5853    0.6211   -1.9131 C   0  0  0  0  0  0  0  0  0  0  0  0
   -1.5327    0.0609   -3.1748 N   0  3  0  0  0  0  0  0  0  0  0  0
   -0.6945   -0.3822   -3.5618 H   0  0  0  0  0  0  0  0  0  0  0  0
   -2.7640    0.1228   -3.7196 C   0  0  0  0  0  0  0  0  0  0  0  0
   -3.0363   -0.2526   -4.7040 H   0  0  0  0  0  0  0  0  0  0  0  0
   -3.5966    0.7112   -2.8313 N   0  0  0  0  0  0  0  0  0  0  0  0
   -4.5880    0.8886   -2.9695 H   0  0  0  0  0  0  0  0  0  0  0  0
   -2.8723    1.0306   -1.6912 C   0  0  0  0  0  0  0  0  0  0  0  0
   -3.2453    1.5118   -0.7913 H   0  0  0  0  0  0  0  0  0  0  0  0
    0.0470    0.3465    1.5629 C   0  0  0  0  0  0  0  0  0  0  0  0
    1.1854    0.1365    1.9846 O   0  0  0  0  0  0  0  0  0  0  0  0
   -0.8551    1.0750    2.2320 N   0  0  0  0  0  0  0  0  0  0  0  0
   -1.7594    1.2031    1.8040 H   0  0  0  0  0  0  0  0  0  0  0  0
   -0.6356    1.6998    3.5400 C   0  0  0  0  0  0  0  0  0  0  0  0
   -0.4284    2.7647    3.4168 H   0  0  0  0  0  0  0  0  0  0  0  0
   -1.5268    1.5885    4.1601 H   0  0  0  0  0  0  0  0  0  0  0  0
    0.2072    1.2358    4.0566 H   0  0  0  0  0  0  0  0  0  0  0  0
  5  6  2  0  0  0  0
  5  7  1  0  0  0  0
  2  3  1  0  0  0  0
  2  4  1  0  0  0  0
  2  5  1  0  0  0  0
  1  2  1  0  0  0  0
 23 24  2  0  0  0  0
 23 25  1  0  0  0  0
 21 22  1  0  0  0  0
 19 20  1  0  0  0  0
 19 21  1  0  0  0  0
 17 18  1  0  0  0  0
 17 19  1  0  0  0  0
 15 16  1  0  0  0  0
 15 17  2  0  0  0  0
 14 15  1  0  0  0  0
 14 21  2  0  0  0  0
 11 12  1  0  0  0  0
 11 13  1  0  0  0  0
 11 14  1  0  0  0  0
  9 10  1  0  0  0  0
  9 11  1  0  0  0  0
  9 23  1  0  0  0  0
  7  8  1  0  0  0  0
  7  9  1  0  0  0  0
 27 28  1  0  0  0  0
 27 29  1  0  0  0  0
 27 30  1  0  0  0  0
 25 26  1  0  0  0  0
 25 27  1  0  0  0  0
M  CHG  1  15   1
M  END
$$$$
default_name
  -OEChem-02102213163D

 30 30  0     1  0  0  0  0  0999 V2000
   -3.5507   -3.2183    1.8116 H   0  0  0  0  0  0  0  0  0  0  0  0
   -3.4597   -2.3913    1.1076 C   0  0  0  0  0  0  0  0  0  0  0  0
   -4.1577   -1.6043    1.3866 H   0  0  0  0  0  0  0  0  0  0  0  0
   -3.6807   -2.7523    0.1036 H   0  0  0  0  0  0  0  0  0  0  0  0
   -2.0477   -1.8543    1.1546 C   0  0  0  0  0  0  0  0  0  0  0  0
   -1.2227   -2.3443    1.9146 O   0  0  0  0  0  0  0  0  0  0  0  0
   -1.7517   -0.8483    0.3266 N   0  0  0  0  0  0  0  0  0  0  0  0
   -2.4847   -0.5123   -0.2804 H   0  0  0  0  0  0  0  0  0  0  0  0
   -0.4117   -0.2463    0.2186 C   0  0  1  0  0  0  0  0  0  0  0  0
    0.2987   -1.0391   -0.0285 H   0  0  0  0  0  0  0  0  0  0  0  0
   -0.4131    0.7505   -0.9636 C   0  0  0  0  0  0  0  0  0  0  0  0
   -0.3982    1.7669   -0.5622 H   0  0  0  0  0  0  0  0  0  0  0  0
    0.5058    0.6196   -1.5392 H   0  0  0  0  0  0  0  0  0  0  0  0
   -1.5853    0.6211   -1.9131 C   0  0  0  0  0  0  0  0  0  0  0  0
   -1.6186   -0.1837   -3.0354 N   0  3  0  0  0  0  0  0  0  0  0  0
   -0.8626   -0.8242   -3.2941 H   0  0  0  0  0  0  0  0  0  0  0  0
   -2.8198   -0.0370   -3.6289 C   0  0  0  0  0  0  0  0  0  0  0  0
   -3.1447   -0.5552   -4.5289 H   0  0  0  0  0  0  0  0  0  0  0  0
   -3.5492    0.8443   -2.9080 N   0  0  0  0  0  0  0  0  0  0  0  0
   -4.4971    1.1465   -3.1168 H   0  0  0  0  0  0  0  0  0  0  0  0
   -2.7886    1.2676   -1.8269 C   0  0  0  0  0  0  0  0  0  0  0  0
   -3.0823    1.9742   -1.0555 H   0  0  0  0  0  0  0  0  0  0  0  0
    0.0470    0.3465    1.5629 C   0  0  0  0  0  0  0  0  0  0  0  0
    1.1854    0.1365    1.9846 O   0  0  0  0  0  0  0  0  0  0  0  0
   -0.8551    1.0750    2.2320 N   0  0  0  0  0  0  0  0  0  0  0  0
   -1.7594    1.2031    1.8040 H   0  0  0  0  0  0  0  0  0  0  0  0
   -0.6356    1.6998    3.5400 C   0  0  0  0  0  0  0  0  0  0  0  0
   -0.4284    2.7647    3.4168 H   0  0  0  0  0  0  0  0  0  0  0  0
   -1.5268    1.5885    4.1601 H   0  0  0  0  0  0  0  0  0  0  0  0
    0.2072    1.2358    4.0566 H   0  0  0  0  0  0  0  0  0  0  0  0
  5  6  2  0  0  0  0
  5  7  1  0  0  0  0
  2  3  1  0  0  0  0
  2  4  1  0  0  0  0
  2  5  1  0  0  0  0
  1  2  1  0  0  0  0
 23 24  2  0  0  0  0
 23 25  1  0  0  0  0
 21 22  1  0  0  0  0
 19 20  1  0  0  0  0
 19 21  1  0  0  0  0
 17 18  1  0  0  0  0
 17 19  1  0  0  0  0
 15 16  1  0  0  0  0
 15 17  2  0  0  0  0
 14 15  1  0  0  0  0
 14 21  2  0  0  0  0
 11 12  1  0  0  0  0
 11 13  1  0  0  0  0
 11 14  1  0  0  0  0
  9 10  1  0  0  0  0
  9 11  1  0  0  0  0
  9 23  1  0  0  0  0
  7  8  1  0  0  0  0
  7  9  1  0  0  0  0
 27 28  1  0  0  0  0
 27 29  1  0  0  0  0
 27 30  1  0  0  0  0
 25 26  1  0  0  0  0
 25 27  1  0  0  0  0
M  CHG  1  15   1
M  END
$$$$
default_name
  -OEChem-02102213163D

 30 30  0     1  0  0  0  0  0999 V2000
   -3.5507   -3.2183    1.8116 H   0  0  0  0  0  0  0  0  0  0  0  0
   -3.4597   -2.3913    1.1076 C   0  0  0  0  0  0  0  0  0  0  0  0
   -4.1577   -1.6043    1.3866 H   0  0  0  0  0  0  0  0  0  0  0  0
   -3.6807   -2.7523    0.1036 H   0  0  0  0  0  0  0  0  0  0  0  0
   -2.0477   -1.8543    1.1546 C   0  0  0  0  0  0  0  0  0  0  0  0
   -1.2227   -2.3443    1.9146 O   0  0  0  0  0  0  0  0  0  0  0  0
   -1.7517   -0.8483    0.3266 N   0  0  0  0  0  0  0  0  0  0  0  0
   -2.4847   -0.5123   -0.2804 H   0  0  0  0  0  0  0  0  0  0  0  0
   -0.4117   -0.2463    0.2186 C   0  0  1  0  0  0  0  0  0  0  0  0
    0.2987   -1.0391   -0.0285 H   0  0  0  0  0  0  0  0  0  0  0  0
   -0.4131    0.7505   -0.9636 C   0  0  0  0  0  0  0  0  0  0  0  0
   -0.3982    1.7669   -0.5622 H   0  0  0  0  0  0  0  0  0  0  0  0
    0.5058    0.6196   -1.5392 H   0  0  0  0  0  0  0  0  0  0  0  0
   -1.5853    0.6211   -1.9131 C   0  0  0  0  0  0  0  0  0  0  0  0
   -1.7443   -0.3781   -2.8537 N   0  3  0  0  0  0  0  0  0  0  0  0
   -1.1026   -1.1702   -2.9506 H   0  0  0  0  0  0  0  0  0  0  0  0
   -2.9017   -0.1641   -3.5104 C   0  0  0  0  0  0  0  0  0  0  0  0
   -3.3024   -0.7948   -4.3015 H   0  0  0  0  0  0  0  0  0  0  0  0
   -3.4801    0.9499   -3.0077 N   0  0  0  0  0  0  0  0  0  0  0  0
   -4.3642    1.3513   -3.3089 H   0  0  0  0  0  0  0  0  0  0  0  0
   -2.6662    1.4558   -2.0035 C   0  0  0  0  0  0  0  0  0  0  0  0
   -2.8440    2.3415   -1.3998 H   0  0  0  0  0  0  0  0  0  0  0  0
    0.0470    0.3465    1.5629 C   0  0  0  0  0  0  0  0  0  0  0  0
    1.1854    0.1365    1.9846 O   0  0  0  0  0  0  0  0  0  0  0  0
   -0.8551    1.0750    2.2320 N   0  0  0  0  0  0  0  0  0  0  0  0
   -1.7594    1.2031    1.8040 H   0  0  0  0  0  0  0  0  0  0  0  0
   -0.6356    1.6998    3.5400 C   0  0  0  0  0  0  0  0  0  0  0  0
   -0.4284    2.7647    3.4168 H   0  0  0  0  0  0  0  0  0  0  0  0
   -1.5268    1.5885    4.1601 H   0  0  0  0  0  0  0  0  0  0  0  0
    0.2072    1.2358    4.0566 H   0  0  0  0  0  0  0  0  0  0  0  0
  5  6  2  0  0  0  0
  5  7  1  0  0  0  0
  2  3  1  0  0  0  0
  2  4  1  0  0  0  0
  2  5  1  0  0  0  0
  1  2  1  0  0  0  0
 23 24  2  0  0  0  0
 23 25  1  0  0  0  0
 21 22  1  0  0  0  0
 19 20  1  0  0  0  0
 19 21  1  0  0  0  0
 17 18  1  0  0  0  0
 17 19  1  0  0  0  0
 15 16  1  0  0  0  0
 15 17  2  0  0  0  0
 14 15  1  0  0  0  0
 14 21  2  0  0  0  0
 11 12  1  0  0  0  0
 11 13  1  0  0  0  0
 11 14  1  0  0  0  0
  9 10  1  0  0  0  0
  9 11  1  0  0  0  0
  9 23  1  0  0  0  0
  7  8  1  0  0  0  0
  7  9  1  0  0  0  0
 27 28  1  0  0  0  0
 27 29  1  0  0  0  0
 27 30  1  0  0  0  0
 25 26  1  0  0  0  0
 25 27  1  0  0  0  0
M  CHG  1  15   1
M  END
$$$$
default_name
  -OEChem-02102213163D

 30 30  0     1  0  0  0  0  0999 V2000
   -3.5507   -3.2183    1.8116 H   0  0  0  0  0  0  0  0  0  0  0  0
   -3.4597   -2.3913    1.1076 C   0  0  0  0  0  0  0  0  0  0  0  0
   -4.1577   -1.6043    1.3866 H   0  0  0  0  0  0  0  0  0  0  0  0
   -3.6807   -2.7523    0.1036 H   0  0  0  0  0  0  0  0  0  0  0  0
   -2.0477   -1.8543    1.1546 C   0  0  0  0  0  0  0  0  0  0  0  0
   -1.2227   -2.3443    1.9146 O   0  0  0  0  0  0  0  0  0  0  0  0
   -1.7517   -0.8483    0.3266 N   0  0  0  0  0  0  0  0  0  0  0  0
   -2.4847   -0.5123   -0.2804 H   0  0  0  0  0  0  0  0  0  0  0  0
   -0.4117   -0.2463    0.2186 C   0  0  1  0  0  0  0  0  0  0  0  0
    0.2987   -1.0391   -0.0285 H   0  0  0  0  0  0  0  0  0  0  0  0
   -0.4131    0.7505   -0.9636 C   0  0  0  0  0  0  0  0  0  0  0  0
   -0.3982    1.7669   -0.5622 H   0  0  0  0  0  0  0  0  0  0  0  0
    0.5058    0.6196   -1.5392 H   0  0  0  0  0  0  0  0  0  0  0  0
   -1.5853    0.6211   -1.9131 C   0  0  0  0  0  0  0  0  0  0  0  0
   -1.9013   -0.5091   -2.6420 N   0  3  0  0  0  0  0  0  0  0  0  0
   -1.3981   -1.3967   -2.5548 H   0  0  0  0  0  0  0  0  0  0  0  0
   -3.0041   -0.2499   -3.3724 C   0  0  0  0  0  0  0  0  0  0  0  0
   -3.4986   -0.9550   -4.0374 H   0  0  0  0  0  0  0  0  0  0  0  0
   -3.3940    1.0207   -3.1236 N   0  0  0  0  0  0  0  0  0  0  0  0
   -4.1983    1.4892   -3.5325 H   0  0  0  0  0  0  0  0  0  0  0  0
   -2.5136    1.5823   -2.2092 C   0  0  0  0  0  0  0  0  0  0  0  0
   -2.5466    2.5885   -1.8007 H   0  0  0  0  0  0  0  0  0  0  0  0
    0.0470    0.3465    1.5629 C   0  0  0  0  0  0  0  0  0  0  0  0
    1.1854    0.1365    1.9846 O   0  0  0  0  0  0  0  0  0  0  0  0
   -0.8551    1.0750    2.2320 N   0  0  0  0  0  0  0  0  0  0  0  0
   -1.7594    1.2031    1.8040 H   0  0  0  0  0  0  0  0  0  0  0  0
   -0.6356    1.6998    3.5400 C   0  0  0  0  0  0  0  0  0  0  0  0
   -0.4284    2.7647    3.4168 H   0  0  0  0  0  0  0  0  0  0  0  0
   -1.5268    1.5885    4.1601 H   0  0  0  0  0  0  0  0  0  0  0  0
    0.2072    1.2358    4.0566 H   0  0  0  0  0  0  0  0  0  0  0  0
  5  6  2  0  0  0  0
  5  7  1  0  0  0  0
  2  3  1  0  0  0  0
  2  4  1  0  0  0  0
  2  5  1  0  0  0  0
  1  2  1  0  0  0  0
 23 24  2  0  0  0  0
 23 25  1  0  0  0  0
 21 22  1  0  0  0  0
 19 20  1  0  0  0  0
 19 21  1  0  0  0  0
 17 18  1  0  0  0  0
 17 19  1  0  0  0  0
 15 16  1  0  0  0  0
 15 17  2  0  0  0  0
 14 15  1  0  0  0  0
 14 21  2  0  0  0  0
 11 12  1  0  0  0  0
 11 13  1  0  0  0  0
 11 14  1  0  0  0  0
  9 10  1  0  0  0  0
  9 11  1  0  0  0  0
  9 23  1  0  0  0  0
  7  8  1  0  0  0  0
  7  9  1  0  0  0  0
 27 28  1  0  0  0  0
 27 29  1  0  0  0  0
 27 30  1  0  0  0  0
 25 26  1  0  0  0  0
 25 27  1  0  0  0  0
M  CHG  1  15   1
M  END
$$$$
default_name
  -OEChem-02102213163D

 30 30  0     1  0  0  0  0  0999 V2000
   -3.5507   -3.2183    1.8116 H   0  0  0  0  0  0  0  0  0  0  0  0
   -3.4597   -2.3913    1.1076 C   0  0  0  0  0  0  0  0  0  0  0  0
   -4.1577   -1.6043    1.3866 H   0  0  0  0  0  0  0  0  0  0  0  0
   -3.6807   -2.7523    0.1036 H   0  0  0  0  0  0  0  0  0  0  0  0
   -2.0477   -1.8543    1.1546 C   0  0  0  0  0  0  0  0  0  0  0  0
   -1.2227   -2.3443    1.9146 O   0  0  0  0  0  0  0  0  0  0  0  0
   -1.7517   -0.8483    0.3266 N   0  0  0  0  0  0  0  0  0  0  0  0
   -2.4847   -0.5123   -0.2804 H   0  0  0  0  0  0  0  0  0  0  0  0
   -0.4117   -0.2463    0.2186 C   0  0  1  0  0  0  0  0  0  0  0  0
    0.2987   -1.0391   -0.0285 H   0  0  0  0  0  0  0  0  0  0  0  0
   -0.4131    0.7505   -0.9636 C   0  0  0  0  0  0  0  0  0  0  0  0
   -0.3982    1.7669   -0.5622 H   0  0  0  0  0  0  0  0  0  0  0  0
    0.5058    0.6196   -1.5392 H   0  0  0  0  0  0  0  0  0  0  0  0
   -1.5853    0.6211   -1.9131 C   0  0  0  0  0  0  0  0  0  0  0  0
   -2.0789   -0.5676   -2.4147 N   0  3  0  0  0  0  0  0  0  0  0  0
   -1.7292   -1.4882   -2.1337 H   0  0  0  0  0  0  0  0  0  0  0  0
   -3.1199   -0.2885   -3.2242 C   0  0  0  0  0  0  0  0  0  0  0  0
   -3.7200   -1.0250   -3.7545 H   0  0  0  0  0  0  0  0  0  0  0  0
   -3.2968    1.0519   -3.2479 N   0  0  0  0  0  0  0  0  0  0  0  0
   -4.0108    1.5506   -3.7724 H   0  0  0  0  0  0  0  0  0  0  0  0
   -2.3411    1.6385   -2.4298 C   0  0  0  0  0  0  0  0  0  0  0  0
   -2.2103    2.6985   -2.2309 H   0  0  0  0  0  0  0  0  0  0  0  0
    0.0470    0.3465    1.5629 C   0  0  0  0  0  0  0  0  0  0  0  0
    1.1854    0.1365    1.9846 O   0  0  0  0  0  0  0  0  0  0  0  0
   -0.8551    1.0750    2.2320 N   0  0  0  0  0  0  0  0  0  0  0  0
   -1.7594    1.2031    1.8040 H   0  0  0  0  0  0  0  0  0  0  0  0
   -0.6356    1.6998    3.5400 C   0  0  0  0  0  0  0  0  0  0  0  0
   -0.4284    2.7647    3.4168 H   0  0  0  0  0  0  0  0  0  0  0  0
   -1.5268    1.5885    4.1601 H   0  0  0  0  0  0  0  0  0  0  0  0
    0.2072    1.2358    4.0566 H   0  0  0  0  0  0  0  0  0  0  0  0
  5  6  2  0  0  0  0
  5  7  1  0  0  0  0
  2  3  1  0  0  0  0
  2  4  1  0  0  0  0
  2  5  1  0  0  0  0
  1  2  1  0  0  0  0
 23 24  2  0  0  0  0
 23 25  1  0  0  0  0
 21 22  1  0  0  0  0
 19 20  1  0  0  0  0
 19 21  1  0  0  0  0
 17 18  1  0  0  0  0
 17 19  1  0  0  0  0
 15 16  1  0  0  0  0
 15 17  2  0  0  0  0
 14 15  1  0  0  0  0
 14 21  2  0  0  0  0
 11 12  1  0  0  0  0
 11 13  1  0  0  0  0
 11 14  1  0  0  0  0
  9 10  1  0  0  0  0
  9 11  1  0  0  0  0
  9 23  1  0  0  0  0
  7  8  1  0  0  0  0
  7  9  1  0  0  0  0
 27 28  1  0  0  0  0
 27 29  1  0  0  0  0
 27 30  1  0  0  0  0
 25 26  1  0  0  0  0
 25 27  1  0  0  0  0
M  CHG  1  15   1
M  END
$$$$
default_name
  -OEChem-02102213163D

 30 30  0     1  0  0  0  0  0999 V2000
   -3.5507   -3.2183    1.8116 H   0  0  0  0  0  0  0  0  0  0  0  0
   -3.4597   -2.3913    1.1076 C   0  0  0  0  0  0  0  0  0  0  0  0
   -4.1577   -1.6043    1.3866 H   0  0  0  0  0  0  0  0  0  0  0  0
   -3.6807   -2.7523    0.1036 H   0  0  0  0  0  0  0  0  0  0  0  0
   -2.0477   -1.8543    1.1546 C   0  0  0  0  0  0  0  0  0  0  0  0
   -1.2227   -2.3443    1.9146 O   0  0  0  0  0  0  0  0  0  0  0  0
   -1.7517   -0.8483    0.3266 N   0  0  0  0  0  0  0  0  0  0  0  0
   -2.4847   -0.5123   -0.2804 H   0  0  0  0  0  0  0  0  0  0  0  0
   -0.4117   -0.2463    0.2186 C   0  0  1  0  0  0  0  0  0  0  0  0
    0.2987   -1.0391   -0.0285 H   0  0  0  0  0  0  0  0  0  0  0  0
   -0.4131    0.7505   -0.9636 C   0  0  0  0  0  0  0  0  0  0  0  0
   -0.3982    1.7669   -0.5622 H   0  0  0  0  0  0  0  0  0  0  0  0
    0.5058    0.6196   -1.5392 H   0  0  0  0  0  0  0  0  0  0  0  0
   -1.5853    0.6211   -1.9131 C   0  0  0  0  0  0  0  0  0  0  0  0
   -2.2650   -0.5499   -2.1874 N   0  3  0  0  0  0  0  0  0  0  0  0
   -2.0731   -1.4384   -1.7159 H   0  0  0  0  0  0  0  0  0  0  0  0
   -3.2413   -0.2772   -3.0758 C   0  0  0  0  0  0  0  0  0  0  0  0
   -3.9515   -1.0001   -3.4721 H   0  0  0  0  0  0  0  0  0  0  0  0
   -3.1951    1.0413   -3.3720 N   0  0  0  0  0  0  0  0  0  0  0  0
   -3.8143    1.5313   -4.0123 H   0  0  0  0  0  0  0  0  0  0  0  0
   -2.1605    1.6205   -2.6504 C   0  0  0  0  0  0  0  0  0  0  0  0
   -1.8581    2.6640   -2.6610 H   0  0  0  0  0  0  0  0  0  0  0  0
    0.0470    0.3465    1.5629 C   0  0  0  0  0  0  0  0  0  0  0  0
    1.1854    0.1365    1.9846 O   0  0  0  0  0  0  0  0  0  0  0  0
   -0.8551    1.0750    2.2320 N   0  0  0  0  0  0  0  0  0  0  0  0
   -1.7594    1.2031    1.8040 H   0  0  0  0  0  0  0  0  0  0  0  0
   -0.6356    1.6998    3.5400 C   0  0  0  0  0  0  0  0  0  0  0  0
   -0.4284    2.7647    3.4168 H   0  0  0  0  0  0  0  0  0  0  0  0
   -1.5268    1.5885    4.1601 H   0  0  0  0  0  0  0  0  0  0  0  0
    0.2072    1.2358    4.0566 H   0  0  0  0  0  0  0  0  0  0  0  0
  5  6  2  0  0  0  0
  5  7  1  0  0  0  0
  2  3  1  0  0  0  0
  2  4  1  0  0  0  0
  2  5  1  0  0  0  0
  1  2  1  0  0  0  0
 23 24  2  0  0  0  0
 23 25  1  0  0  0  0
 21 22  1  0  0  0  0
 19 20  1  0  0  0  0
 19 21  1  0  0  0  0
 17 18  1  0  0  0  0
 17 19  1  0  0  0  0
 15 16  1  0  0  0  0
 15 17  2  0  0  0  0
 14 15  1  0  0  0  0
 14 21  2  0  0  0  0
 11 12  1  0  0  0  0
 11 13  1  0  0  0  0
 11 14  1  0  0  0  0
  9 10  1  0  0  0  0
  9 11  1  0  0  0  0
  9 23  1  0  0  0  0
  7  8  1  0  0  0  0
  7  9  1  0  0  0  0
 27 28  1  0  0  0  0
 27 29  1  0  0  0  0
 27 30  1  0  0  0  0
 25 26  1  0  0  0  0
 25 27  1  0  0  0  0
M  CHG  1  15   1
M  END
$$$$
default_name
  -OEChem-02102213163D

 30 30  0     1  0  0  0  0  0999 V2000
   -3.5507   -3.2183    1.8116 H   0  0  0  0  0  0  0  0  0  0  0  0
   -3.4597   -2.3913    1.1076 C   0  0  0  0  0  0  0  0  0  0  0  0
   -4.1577   -1.6043    1.3866 H   0  0  0  0  0  0  0  0  0  0  0  0
   -3.6807   -2.7523    0.1036 H   0  0  0  0  0  0  0  0  0  0  0  0
   -2.0477   -1.8543    1.1546 C   0  0  0  0  0  0  0  0  0  0  0  0
   -1.2227   -2.3443    1.9146 O   0  0  0  0  0  0  0  0  0  0  0  0
   -1.7517   -0.8483    0.3266 N   0  0  0  0  0  0  0  0  0  0  0  0
   -2.4847   -0.5123   -0.2804 H   0  0  0  0  0  0  0  0  0  0  0  0
   -0.4117   -0.2463    0.2186 C   0  0  1  0  0  0  0  0  0  0  0  0
    0.2987   -1.0391   -0.0285 H   0  0  0  0  0  0  0  0  0  0  0  0
   -0.4131    0.7505   -0.9636 C   0  0  0  0  0  0  0  0  0  0  0  0
   -0.3982    1.7669   -0.5622 H   0  0  0  0  0  0  0  0  0  0  0  0
    0.5058    0.6196   -1.5392 H   0  0  0  0  0  0  0  0  0  0  0  0
   -1.5853    0.6211   -1.9131 C   0  0  0  0  0  0  0  0  0  0  0  0
   -2.4469   -0.4569   -1.9755 N   0  3  0  0  0  0  0  0  0  0  0  0
   -2.4064   -1.2508   -1.3299 H   0  0  0  0  0  0  0  0  0  0  0  0
   -3.3600   -0.2169   -2.9374 C   0  0  0  0  0  0  0  0  0  0  0  0
   -4.1773   -0.8818   -3.2095 H   0  0  0  0  0  0  0  0  0  0  0  0
   -3.0958    0.9898   -3.4875 N   0  0  0  0  0  0  0  0  0  0  0  0
   -3.6224    1.4328   -4.2358 H   0  0  0  0  0  0  0  0  0  0  0  0
   -1.9841    1.5297   -2.8559 C   0  0  0  0  0  0  0  0  0  0  0  0
   -1.5140    2.4874   -3.0617 H   0  0  0  0  0  0  0  0  0  0  0  0
    0.0470    0.3465    1.5629 C   0  0  0  0  0  0  0  0  0  0  0  0
    1.1854    0.1365    1.9846 O   0  0  0  0  0  0  0  0  0  0  0  0
   -0.8551    1.0750    2.2320 N   0  0  0  0  0  0  0  0  0  0  0  0
   -1.7594    1.2031    1.8040 H   0  0  0  0  0  0  0  0  0  0  0  0
   -0.6356    1.6998    3.5400 C   0  0  0  0  0  0  0  0  0  0  0  0
   -0.4284    2.7647    3.4168 H   0  0  0  0  0  0  0  0  0  0  0  0
   -1.5268    1.5885    4.1601 H   0  0  0  0  0  0  0  0  0  0  0  0
    0.2072    1.2358    4.0566 H   0  0  0  0  0  0  0  0  0  0  0  0
  5  6  2  0  0  0  0
  5  7  1  0  0  0  0
  2  3  1  0  0  0  0
  2  4  1  0  0  0  0
  2  5  1  0  0  0  0
  1  2  1  0  0  0  0
 23 24  2  0  0  0  0
 23 25  1  0  0  0  0
 21 22  1  0  0  0  0
 19 20  1  0  0  0  0
 19 21  1  0  0  0  0
 17 18  1  0  0  0  0
 17 19  1  0  0  0  0
 15 16  1  0  0  0  0
 15 17  2  0  0  0  0
 14 15  1  0  0  0  0
 14 21  2  0  0  0  0
 11 12  1  0  0  0  0
 11 13  1  0  0  0  0
 11 14  1  0  0  0  0
  9 10  1  0  0  0  0
  9 11  1  0  0  0  0
  9 23  1  0  0  0  0
  7  8  1  0  0  0  0
  7  9  1  0  0  0  0
 27 28  1  0  0  0  0
 27 29  1  0  0  0  0
 27 30  1  0  0  0  0
 25 26  1  0  0  0  0
 25 27  1  0  0  0  0
M  CHG  1  15   1
M  END
$$$$
default_name
  -OEChem-02102213163D

 30 30  0     1  0  0  0  0  0999 V2000
   -3.5507   -3.2183    1.8116 H   0  0  0  0  0  0  0  0  0  0  0  0
   -3.4597   -2.3913    1.1076 C   0  0  0  0  0  0  0  0  0  0  0  0
   -4.1577   -1.6043    1.3866 H   0  0  0  0  0  0  0  0  0  0  0  0
   -3.6807   -2.7523    0.1036 H   0  0  0  0  0  0  0  0  0  0  0  0
   -2.0477   -1.8543    1.1546 C   0  0  0  0  0  0  0  0  0  0  0  0
   -1.2227   -2.3443    1.9146 O   0  0  0  0  0  0  0  0  0  0  0  0
   -1.7517   -0.8483    0.3266 N   0  0  0  0  0  0  0  0  0  0  0  0
   -2.4847   -0.5123   -0.2804 H   0  0  0  0  0  0  0  0  0  0  0  0
   -0.4117   -0.2463    0.2186 C   0  0  1  0  0  0  0  0  0  0  0  0
    0.2987   -1.0391   -0.0285 H   0  0  0  0  0  0  0  0  0  0  0  0
   -0.4131    0.7505   -0.9636 C   0  0  0  0  0  0  0  0  0  0  0  0
   -0.3982    1.7669   -0.5622 H   0  0  0  0  0  0  0  0  0  0  0  0
    0.5058    0.6196   -1.5392 H   0  0  0  0  0  0  0  0  0  0  0  0
   -1.5853    0.6211   -1.9131 C   0  0  0  0  0  0  0  0  0  0  0  0
   -2.6122   -0.2952   -1.7935 N   0  3  0  0  0  0  0  0  0  0  0  0
   -2.7065   -0.9381   -1.0020 H   0  0  0  0  0  0  0  0  0  0  0  0
   -3.4680   -0.1116   -2.8185 C   0  0  0  0  0  0  0  0  0  0  0  0
   -4.3820   -0.6783   -2.9845 H   0  0  0  0  0  0  0  0  0  0  0  0
   -3.0058    0.9007   -3.5866 N   0  0  0  0  0  0  0  0  0  0  0  0
   -3.4481    1.2617   -4.4277 H   0  0  0  0  0  0  0  0  0  0  0  0
   -1.8238    1.3721   -3.0322 C   0  0  0  0  0  0  0  0  0  0  0  0
   -1.2015    2.1806   -3.4058 H   0  0  0  0  0  0  0  0  0  0  0  0
    0.0470    0.3465    1.5629 C   0  0  0  0  0  0  0  0  0  0  0  0
    1.1854    0.1365    1.9846 O   0  0  0  0  0  0  0  0  0  0  0  0
   -0.8551    1.0750    2.2320 N   0  0  0  0  0  0  0  0  0  0  0  0
   -1.7594    1.2031    1.8040 H   0  0  0  0  0  0  0  0  0  0  0  0
   -0.6356    1.6998    3.5400 C   0  0  0  0  0  0  0  0  0  0  0  0
   -0.4284    2.7647    3.4168 H   0  0  0  0  0  0  0  0  0  0  0  0
   -1.5268    1.5885    4.1601 H   0  0  0  0  0  0  0  0  0  0  0  0
    0.2072    1.2358    4.0566 H   0  0  0  0  0  0  0  0  0  0  0  0
  5  6  2  0  0  0  0
  5  7  1  0  0  0  0
  2  3  1  0  0  0  0
  2  4  1  0  0  0  0
  2  5  1  0  0  0  0
  1  2  1  0  0  0  0
 23 24  2  0  0  0  0
 23 25  1  0  0  0  0
 21 22  1  0  0  0  0
 19 20  1  0  0  0  0
 19 21  1  0  0  0  0
 17 18  1  0  0  0  0
 17 19  1  0  0  0  0
 15 16  1  0  0  0  0
 15 17  2  0  0  0  0
 14 15  1  0  0  0  0
 14 21  2  0  0  0  0
 11 12  1  0  0  0  0
 11 13  1  0  0  0  0
 11 14  1  0  0  0  0
  9 10  1  0  0  0  0
  9 11  1  0  0  0  0
  9 23  1  0  0  0  0
  7  8  1  0  0  0  0
  7  9  1  0  0  0  0
 27 28  1  0  0  0  0
 27 29  1  0  0  0  0
 27 30  1  0  0  0  0
 25 26  1  0  0  0  0
 25 27  1  0  0  0  0
M  CHG  1  15   1
M  END
$$$$
default_name
  -OEChem-02102213163D

 30 30  0     1  0  0  0  0  0999 V2000
   -3.5507   -3.2183    1.8116 H   0  0  0  0  0  0  0  0  0  0  0  0
   -3.4597   -2.3913    1.1076 C   0  0  0  0  0  0  0  0  0  0  0  0
   -4.1577   -1.6043    1.3866 H   0  0  0  0  0  0  0  0  0  0  0  0
   -3.6807   -2.7523    0.1036 H   0  0  0  0  0  0  0  0  0  0  0  0
   -2.0477   -1.8543    1.1546 C   0  0  0  0  0  0  0  0  0  0  0  0
   -1.2227   -2.3443    1.9146 O   0  0  0  0  0  0  0  0  0  0  0  0
   -1.7517   -0.8483    0.3266 N   0  0  0  0  0  0  0  0  0  0  0  0
   -2.4847   -0.5123   -0.2804 H   0  0  0  0  0  0  0  0  0  0  0  0
   -0.4117   -0.2463    0.2186 C   0  0  1  0  0  0  0  0  0  0  0  0
    0.2987   -1.0391   -0.0285 H   0  0  0  0  0  0  0  0  0  0  0  0
   -0.4131    0.7505   -0.9636 C   0  0  0  0  0  0  0  0  0  0  0  0
   -0.3982    1.7669   -0.5622 H   0  0  0  0  0  0  0  0  0  0  0  0
    0.5058    0.6196   -1.5392 H   0  0  0  0  0  0  0  0  0  0  0  0
   -1.5853    0.6211   -1.9131 C   0  0  0  0  0  0  0  0  0  0  0  0
   -2.7496   -0.0757   -1.6537 N   0  3  0  0  0  0  0  0  0  0  0  0
   -2.9528   -0.5217   -0.7546 H   0  0  0  0  0  0  0  0  0  0  0  0
   -3.5578    0.0314   -2.7271 C   0  0  0  0  0  0  0  0  0  0  0  0
   -4.5517   -0.4033   -2.8125 H   0  0  0  0  0  0  0  0  0  0  0  0
   -2.9310    0.7802   -3.6624 N   0  0  0  0  0  0  0  0  0  0  0  0
   -3.3032    1.0297   -4.5750 H   0  0  0  0  0  0  0  0  0  0  0  0
   -1.6908    1.1586   -3.1674 C   0  0  0  0  0  0  0  0  0  0  0  0
   -0.9418    1.7646   -3.6698 H   0  0  0  0  0  0  0  0  0  0  0  0
    0.0470    0.3465    1.5629 C   0  0  0  0  0  0  0  0  0  0  0  0
    1.1854    0.1365    1.9846 O   0  0  0  0  0  0  0  0  0  0  0  0
   -0.8551    1.0750    2.2320 N   0  0  0  0  0  0  0  0  0  0  0  0
   -1.7594    1.2031    1.8040 H   0  0  0  0  0  0  0  0  0  0  0  0
   -0.6356    1.6998    3.5400 C   0  0  0  0  0  0  0  0  0  0  0  0
   -0.4284    2.7647    3.4168 H   0  0  0  0  0  0  0  0  0  0  0  0
   -1.5268    1.5885    4.1601 H   0  0  0  0  0  0  0  0  0  0  0  0
    0.2072    1.2358    4.0566 H   0  0  0  0  0  0  0  0  0  0  0  0
  5  6  2  0  0  0  0
  5  7  1  0  0  0  0
  2  3  1  0  0  0  0
  2  4  1  0  0  0  0
  2  5  1  0  0  0  0
  1  2  1  0  0  0  0
 23 24  2  0  0  0  0
 23 25  1  0  0  0  0
 21 22  1  0  0  0  0
 19 20  1  0  0  0  0
 19 21  1  0  0  0  0
 17 18  1  0  0  0  0
 17 19  1  0  0  0  0
 15 16  1  0  0  0  0
 15 17  2  0  0  0  0
 14 15  1  0  0  0  0
 14 21  2  0  0  0  0
 11 12  1  0  0  0  0
 11 13  1  0  0  0  0
 11 14  1  0  0  0  0
  9 10  1  0  0  0  0
  9 11  1  0  0  0  0
  9 23  1  0  0  0  0
  7  8  1  0  0  0  0
  7  9  1  0  0  0  0
 27 28  1  0  0  0  0
 27 29  1  0  0  0  0
 27 30  1  0  0  0  0
 25 26  1  0  0  0  0
 25 27  1  0  0  0  0
M  CHG  1  15   1
M  END
$$$$
default_name
  -OEChem-02102213163D

 30 30  0     1  0  0  0  0  0999 V2000
   -3.5507   -3.2183    1.8116 H   0  0  0  0  0  0  0  0  0  0  0  0
   -3.4597   -2.3913    1.1076 C   0  0  0  0  0  0  0  0  0  0  0  0
   -4.1577   -1.6043    1.3866 H   0  0  0  0  0  0  0  0  0  0  0  0
   -3.6807   -2.7523    0.1036 H   0  0  0  0  0  0  0  0  0  0  0  0
   -2.0477   -1.8543    1.1546 C   0  0  0  0  0  0  0  0  0  0  0  0
   -1.2227   -2.3443    1.9146 O   0  0  0  0  0  0  0  0  0  0  0  0
   -1.7517   -0.8483    0.3266 N   0  0  0  0  0  0  0  0  0  0  0  0
   -2.4847   -0.5123   -0.2804 H   0  0  0  0  0  0  0  0  0  0  0  0
   -0.4117   -0.2463    0.2186 C   0  0  1  0  0  0  0  0  0  0  0  0
    0.2987   -1.0391   -0.0285 H   0  0  0  0  0  0  0  0  0  0  0  0
   -0.4131    0.7505   -0.9636 C   0  0  0  0  0  0  0  0  0  0  0  0
   -0.3982    1.7669   -0.5622 H   0  0  0  0  0  0  0  0  0  0  0  0
    0.5058    0.6196   -1.5392 H   0  0  0  0  0  0  0  0  0  0  0  0
   -1.5853    0.6211   -1.9131 C   0  0  0  0  0  0  0  0  0  0  0  0
   -2.8498    0.1867   -1.5658 N   0  3  0  0  0  0  0  0  0  0  0  0
   -3.1287   -0.0299   -0.6045 H   0  0  0  0  0  0  0  0  0  0  0  0
   -3.6234    0.2025   -2.6694 C   0  0  0  0  0  0  0  0  0  0  0  0
   -4.6747   -0.0758   -2.7052 H   0  0  0  0  0  0  0  0  0  0  0  0
   -2.8767    0.6364   -3.7099 N   0  0  0  0  0  0  0  0  0  0  0  0
   -3.1977    0.7526   -4.6675 H   0  0  0  0  0  0  0  0  0  0  0  0
   -1.5939    0.9037   -3.2523 C   0  0  0  0  0  0  0  0  0  0  0  0
   -0.7526    1.2677   -3.8356 H   0  0  0  0  0  0  0  0  0  0  0  0
    0.0470    0.3465    1.5629 C   0  0  0  0  0  0  0  0  0  0  0  0
    1.1854    0.1365    1.9846 O   0  0  0  0  0  0  0  0  0  0  0  0
   -0.8551    1.0750    2.2320 N   0  0  0  0  0  0  0  0  0  0  0  0
   -1.7594    1.2031    1.8040 H   0  0  0  0  0  0  0  0  0  0  0  0
   -0.6356    1.6998    3.5400 C   0  0  0  0  0  0  0  0  0  0  0  0
   -0.4284    2.7647    3.4168 H   0  0  0  0  0  0  0  0  0  0  0  0
   -1.5268    1.5885    4.1601 H   0  0  0  0  0  0  0  0  0  0  0  0
    0.2072    1.2358    4.0566 H   0  0  0  0  0  0  0  0  0  0  0  0
  5  6  2  0  0  0  0
  5  7  1  0  0  0  0
  2  3  1  0  0  0  0
  2  4  1  0  0  0  0
  2  5  1  0  0  0  0
  1  2  1  0  0  0  0
 23 24  2  0  0  0  0
 23 25  1  0  0  0  0
 21 22  1  0  0  0  0
 19 20  1  0  0  0  0
 19 21  1  0  0  0  0
 17 18  1  0  0  0  0
 17 19  1  0  0  0  0
 15 16  1  0  0  0  0
 15 17  2  0  0  0  0
 14 15  1  0  0  0  0
 14 21  2  0  0  0  0
 11 12  1  0  0  0  0
 11 13  1  0  0  0  0
 11 14  1  0  0  0  0
  9 10  1  0  0  0  0
  9 11  1  0  0  0  0
  9 23  1  0  0  0  0
  7  8  1  0  0  0  0
  7  9  1  0  0  0  0
 27 28  1  0  0  0  0
 27 29  1  0  0  0  0
 27 30  1  0  0  0  0
 25 26  1  0  0  0  0
 25 27  1  0  0  0  0
M  CHG  1  15   1
M  END
$$$$
default_name
  -OEChem-02102213163D

 30 30  0     1  0  0  0  0  0999 V2000
   -3.5507   -3.2183    1.8116 H   0  0  0  0  0  0  0  0  0  0  0  0
   -3.4597   -2.3913    1.1076 C   0  0  0  0  0  0  0  0  0  0  0  0
   -4.1577   -1.6043    1.3866 H   0  0  0  0  0  0  0  0  0  0  0  0
   -3.6807   -2.7523    0.1036 H   0  0  0  0  0  0  0  0  0  0  0  0
   -2.0477   -1.8543    1.1546 C   0  0  0  0  0  0  0  0  0  0  0  0
   -1.2227   -2.3443    1.9146 O   0  0  0  0  0  0  0  0  0  0  0  0
   -1.7517   -0.8483    0.3266 N   0  0  0  0  0  0  0  0  0  0  0  0
   -2.4847   -0.5123   -0.2804 H   0  0  0  0  0  0  0  0  0  0  0  0
   -0.4117   -0.2463    0.2186 C   0  0  1  0  0  0  0  0  0  0  0  0
    0.2987   -1.0391   -0.0285 H   0  0  0  0  0  0  0  0  0  0  0  0
   -0.4131    0.7505   -0.9636 C   0  0  0  0  0  0  0  0  0  0  0  0
   -0.3982    1.7669   -0.5622 H   0  0  0  0  0  0  0  0  0  0  0  0
    0.5058    0.6196   -1.5392 H   0  0  0  0  0  0  0  0  0  0  0  0
   -1.5853    0.6211   -1.9131 C   0  0  0  0  0  0  0  0  0  0  0  0
   -2.9060    0.4740   -1.5356 N   0  3  0  0  0  0  0  0  0  0  0  0
   -3.2221    0.5038   -0.5620 H   0  0  0  0  0  0  0  0  0  0  0  0
   -3.6602    0.3899   -2.6495 C   0  0  0  0  0  0  0  0  0  0  0  0
   -4.7428    0.2821   -2.6699 H   0  0  0  0  0  0  0  0  0  0  0  0
   -2.8466    0.4793   -3.7257 N   0  0  0  0  0  0  0  0  0  0  0  0
   -3.1387    0.4492   -4.6990 H   0  0  0  0  0  0  0  0  0  0  0  0
   -1.5398    0.6247   -3.2811 C   0  0  0  0  0  0  0  0  0  0  0  0
   -0.6468    0.7238   -3.8921 H   0  0  0  0  0  0  0  0  0  0  0  0
    0.0470    0.3465    1.5629 C   0  0  0  0  0  0  0  0  0  0  0  0
    1.1854    0.1365    1.9846 O   0  0  0  0  0  0  0  0  0  0  0  0
   -0.8551    1.0750    2.2320 N   0  0  0  0  0  0  0  0  0  0  0  0
   -1.7594    1.2031    1.8040 H   0  0  0  0  0  0  0  0  0  0  0  0
   -0.6356    1.6998    3.5400 C   0  0  0  0  0  0  0  0  0  0  0  0
   -0.4284    2.7647    3.4168 H   0  0  0  0  0  0  0  0  0  0  0  0
   -1.5268    1.5885    4.1601 H   0  0  0  0  0  0  0  0  0  0  0  0
    0.2072    1.2358    4.0566 H   0  0  0  0  0  0  0  0  0  0  0  0
  5  6  2  0  0  0  0
  5  7  1  0  0  0  0
  2  3  1  0  0  0  0
  2  4  1  0  0  0  0
  2  5  1  0  0  0  0
  1  2  1  0  0  0  0
 23 24  2  0  0  0  0
 23 25  1  0  0  0  0
 21 22  1  0  0  0  0
 19 20  1  0  0  0  0
 19 21  1  0  0  0  0
 17 18  1  0  0  0  0
 17 19  1  0  0  0  0
 15 16  1  0  0  0  0
 15 17  2  0  0  0  0
 14 15  1  0  0  0  0
 14 21  2  0  0  0  0
 11 12  1  0  0  0  0
 11 13  1  0  0  0  0
 11 14  1  0  0  0  0
  9 10  1  0  0  0  0
  9 11  1  0  0  0  0
  9 23  1  0  0  0  0
  7  8  1  0  0  0  0
  7  9  1  0  0  0  0
 27 28  1  0  0  0  0
 27 29  1  0  0  0  0
 27 30  1  0  0  0  0
 25 26  1  0  0  0  0
 25 27  1  0  0  0  0
M  CHG  1  15   1
M  END
$$$$
default_name
  -OEChem-02102213163D

 30 30  0     1  0  0  0  0  0999 V2000
   -3.5507   -3.2183    1.8116 H   0  0  0  0  0  0  0  0  0  0  0  0
   -3.4597   -2.3913    1.1076 C   0  0  0  0  0  0  0  0  0  0  0  0
   -4.1577   -1.6043    1.3866 H   0  0  0  0  0  0  0  0  0  0  0  0
   -3.6807   -2.7523    0.1036 H   0  0  0  0  0  0  0  0  0  0  0  0
   -2.0477   -1.8543    1.1546 C   0  0  0  0  0  0  0  0  0  0  0  0
   -1.2227   -2.3443    1.9146 O   0  0  0  0  0  0  0  0  0  0  0  0
   -1.7517   -0.8483    0.3266 N   0  0  0  0  0  0  0  0  0  0  0  0
   -2.4847   -0.5123   -0.2804 H   0  0  0  0  0  0  0  0  0  0  0  0
   -0.4117   -0.2463    0.2186 C   0  0  1  0  0  0  0  0  0  0  0  0
    0.2987   -1.0391   -0.0285 H   0  0  0  0  0  0  0  0  0  0  0  0
   -0.4131    0.7505   -0.9636 C   0  0  0  0  0  0  0  0  0  0  0  0
   -0.3982    1.7669   -0.5622 H   0  0  0  0  0  0  0  0  0  0  0  0
    0.5058    0.6196   -1.5392 H   0  0  0  0  0  0  0  0  0  0  0  0
   -1.5853    0.6211   -1.9131 C   0  0  0  0  0  0  0  0  0  0  0  0
   -2.9143    0.7667   -1.5653 N   0  3  0  0  0  0  0  0  0  0  0  0
   -3.2266    1.0429   -0.6299 H   0  0  0  0  0  0  0  0  0  0  0  0
   -3.6659    0.5809   -2.6686 C   0  0  0  0  0  0  0  0  0  0  0  0
   -4.7513    0.6459   -2.7090 H   0  0  0  0  0  0  0  0  0  0  0  0
   -2.8426    0.3194   -3.7089 N   0  0  0  0  0  0  0  0  0  0  0  0
   -3.1302    0.1403   -4.6673 H   0  0  0  0  0  0  0  0  0  0  0  0
   -1.5322    0.3406   -3.2517 C   0  0  0  0  0  0  0  0  0  0  0  0
   -0.6317    0.1699   -3.8352 H   0  0  0  0  0  0  0  0  0  0  0  0
    0.0470    0.3465    1.5629 C   0  0  0  0  0  0  0  0  0  0  0  0
    1.1854    0.1365    1.9846 O   0  0  0  0  0  0  0  0  0  0  0  0
   -0.8551    1.0750    2.2320 N   0  0  0  0  0  0  0  0  0  0  0  0
   -1.7594    1.2031    1.8040 H   0  0  0  0  0  0  0  0  0  0  0  0
   -0.6356    1.6998    3.5400 C   0  0  0  0  0  0  0  0  0  0  0  0
   -0.4284    2.7647    3.4168 H   0  0  0  0  0  0  0  0  0  0  0  0
   -1.5268    1.5885    4.1601 H   0  0  0  0  0  0  0  0  0  0  0  0
    0.2072    1.2358    4.0566 H   0  0  0  0  0  0  0  0  0  0  0  0
  5  6  2  0  0  0  0
  5  7  1  0  0  0  0
  2  3  1  0  0  0  0
  2  4  1  0  0  0  0
  2  5  1  0  0  0  0
  1  2  1  0  0  0  0
 23 24  2  0  0  0  0
 23 25  1  0  0  0  0
 21 22  1  0  0  0  0
 19 20  1  0  0  0  0
 19 21  1  0  0  0  0
 17 18  1  0  0  0  0
 17 19  1  0  0  0  0
 15 16  1  0  0  0  0
 15 17  2  0  0  0  0
 14 15  1  0  0  0  0
 14 21  2  0  0  0  0
 11 12  1  0  0  0  0
 11 13  1  0  0  0  0
 11 14  1  0  0  0  0
  9 10  1  0  0  0  0
  9 11  1  0  0  0  0
  9 23  1  0  0  0  0
  7  8  1  0  0  0  0
  7  9  1  0  0  0  0
 27 28  1  0  0  0  0
 27 29  1  0  0  0  0
 27 30  1  0  0  0  0
 25 26  1  0  0  0  0
 25 27  1  0  0  0  0
M  CHG  1  15   1
M  END
$$$$
default_name
  -OEChem-02102213163D

 30 30  0     1  0  0  0  0  0999 V2000
   -3.5507   -3.2183    1.8116 H   0  0  0  0  0  0  0  0  0  0  0  0
   -3.4597   -2.3913    1.1076 C   0  0  0  0  0  0  0  0  0  0  0  0
   -4.1577   -1.6043    1.3866 H   0  0  0  0  0  0  0  0  0  0  0  0
   -3.6807   -2.7523    0.1036 H   0  0  0  0  0  0  0  0  0  0  0  0
   -2.0477   -1.8543    1.1546 C   0  0  0  0  0  0  0  0  0  0  0  0
   -1.2227   -2.3443    1.9146 O   0  0  0  0  0  0  0  0  0  0  0  0
   -1.7517   -0.8483    0.3266 N   0  0  0  0  0  0  0  0  0  0  0  0
   -2.4847   -0.5123   -0.2804 H   0  0  0  0  0  0  0  0  0  0  0  0
   -0.4117   -0.2463    0.2186 C   0  0  1  0  0  0  0  0  0  0  0  0
    0.2987   -1.0391   -0.0285 H   0  0  0  0  0  0  0  0  0  0  0  0
   -0.4131    0.7505   -0.9636 C   0  0  0  0  0  0  0  0  0  0  0  0
   -0.3982    1.7669   -0.5622 H   0  0  0  0  0  0  0  0  0  0  0  0
    0.5058    0.6196   -1.5392 H   0  0  0  0  0  0  0  0  0  0  0  0
   -1.5853    0.6211   -1.9131 C   0  0  0  0  0  0  0  0  0  0  0  0
   -2.8741    1.0448   -1.6527 N   0  3  0  0  0  0  0  0  0  0  0  0
   -3.1419    1.5508   -0.8036 H   0  0  0  0  0  0  0  0  0  0  0  0
   -3.6399    0.7625   -2.7254 C   0  0  0  0  0  0  0  0  0  0  0  0
   -4.6996    0.9908   -2.8199 H   0  0  0  0  0  0  0  0  0  0  0  0
   -2.8650    0.1677   -3.6604 N   0  0  0  0  0  0  0  0  0  0  0  0
   -3.1729   -0.1531   -4.5747 H   0  0  0  0  0  0  0  0  0  0  0  0
   -1.5716    0.0709   -3.1663 C   0  0  0  0  0  0  0  0  0  0  0  0
   -0.7082   -0.3561   -3.6690 H   0  0  0  0  0  0  0  0  0  0  0  0
    0.0470    0.3465    1.5629 C   0  0  0  0  0  0  0  0  0  0  0  0
    1.1854    0.1365    1.9846 O   0  0  0  0  0  0  0  0  0  0  0  0
   -0.8551    1.0750    2.2320 N   0  0  0  0  0  0  0  0  0  0  0  0
   -1.7594    1.2031    1.8040 H   0  0  0  0  0  0  0  0  0  0  0  0
   -0.6356    1.6998    3.5400 C   0  0  0  0  0  0  0  0  0  0  0  0
   -0.4284    2.7647    3.4168 H   0  0  0  0  0  0  0  0  0  0  0  0
   -1.5268    1.5885    4.1601 H   0  0  0  0  0  0  0  0  0  0  0  0
    0.2072    1.2358    4.0566 H   0  0  0  0  0  0  0  0  0  0  0  0
  5  6  2  0  0  0  0
  5  7  1  0  0  0  0
  2  3  1  0  0  0  0
  2  4  1  0  0  0  0
  2  5  1  0  0  0  0
  1  2  1  0  0  0  0
 23 24  2  0  0  0  0
 23 25  1  0  0  0  0
 21 22  1  0  0  0  0
 19 20  1  0  0  0  0
 19 21  1  0  0  0  0
 17 18  1  0  0  0  0
 17 19  1  0  0  0  0
 15 16  1  0  0  0  0
 15 17  2  0  0  0  0
 14 15  1  0  0  0  0
 14 21  2  0  0  0  0
 11 12  1  0  0  0  0
 11 13  1  0  0  0  0
 11 14  1  0  0  0  0
  9 10  1  0  0  0  0
  9 11  1  0  0  0  0
  9 23  1  0  0  0  0
  7  8  1  0  0  0  0
  7  9  1  0  0  0  0
 27 28  1  0  0  0  0
 27 29  1  0  0  0  0
 27 30  1  0  0  0  0
 25 26  1  0  0  0  0
 25 27  1  0  0  0  0
M  CHG  1  15   1
M  END
$$$$
default_name
  -OEChem-02102213163D

 30 30  0     1  0  0  0  0  0999 V2000
   -3.5507   -3.2183    1.8116 H   0  0  0  0  0  0  0  0  0  0  0  0
   -3.4597   -2.3913    1.1076 C   0  0  0  0  0  0  0  0  0  0  0  0
   -4.1577   -1.6043    1.3866 H   0  0  0  0  0  0  0  0  0  0  0  0
   -3.6807   -2.7523    0.1036 H   0  0  0  0  0  0  0  0  0  0  0  0
   -2.0477   -1.8543    1.1546 C   0  0  0  0  0  0  0  0  0  0  0  0
   -1.2227   -2.3443    1.9146 O   0  0  0  0  0  0  0  0  0  0  0  0
   -1.7517   -0.8483    0.3266 N   0  0  0  0  0  0  0  0  0  0  0  0
   -2.4847   -0.5123   -0.2804 H   0  0  0  0  0  0  0  0  0  0  0  0
   -0.4117   -0.2463    0.2186 C   0  0  1  0  0  0  0  0  0  0  0  0
    0.2987   -1.0391   -0.0285 H   0  0  0  0  0  0  0  0  0  0  0  0
   -0.4131    0.7505   -0.9636 C   0  0  0  0  0  0  0  0  0  0  0  0
   -0.3982    1.7669   -0.5622 H   0  0  0  0  0  0  0  0  0  0  0  0
    0.5058    0.6196   -1.5392 H   0  0  0  0  0  0  0  0  0  0  0  0
   -1.5853    0.6211   -1.9131 C   0  0  0  0  0  0  0  0  0  0  0  0
   -2.7882    1.2894   -1.7921 N   0  3  0  0  0  0  0  0  0  0  0  0
   -2.9738    1.9928   -1.0714 H   0  0  0  0  0  0  0  0  0  0  0  0
   -3.5840    0.9223   -2.8161 C   0  0  0  0  0  0  0  0  0  0  0  0
   -4.5912    1.2934   -2.9950 H   0  0  0  0  0  0  0  0  0  0  0  0
   -2.9124    0.0345   -3.5838 N   0  0  0  0  0  0  0  0  0  0  0  0
   -3.2638   -0.4111   -4.4273 H   0  0  0  0  0  0  0  0  0  0  0  0
   -1.6553   -0.1661   -3.0306 C   0  0  0  0  0  0  0  0  0  0  0  0
   -0.8712   -0.8185   -3.4048 H   0  0  0  0  0  0  0  0  0  0  0  0
    0.0470    0.3465    1.5629 C   0  0  0  0  0  0  0  0  0  0  0  0
    1.1854    0.1365    1.9846 O   0  0  0  0  0  0  0  0  0  0  0  0
   -0.8551    1.0750    2.2320 N   0  0  0  0  0  0  0  0  0  0  0  0
   -1.7594    1.2031    1.8040 H   0  0  0  0  0  0  0  0  0  0  0  0
   -0.6356    1.6998    3.5400 C   0  0  0  0  0  0  0  0  0  0  0  0
   -0.4284    2.7647    3.4168 H   0  0  0  0  0  0  0  0  0  0  0  0
   -1.5268    1.5885    4.1601 H   0  0  0  0  0  0  0  0  0  0  0  0
    0.2072    1.2358    4.0566 H   0  0  0  0  0  0  0  0  0  0  0  0
  5  6  2  0  0  0  0
  5  7  1  0  0  0  0
  2  3  1  0  0  0  0
  2  4  1  0  0  0  0
  2  5  1  0  0  0  0
  1  2  1  0  0  0  0
 23 24  2  0  0  0  0
 23 25  1  0  0  0  0
 21 22  1  0  0  0  0
 19 20  1  0  0  0  0
 19 21  1  0  0  0  0
 17 18  1  0  0  0  0
 17 19  1  0  0  0  0
 15 16  1  0  0  0  0
 15 17  2  0  0  0  0
 14 15  1  0  0  0  0
 14 21  2  0  0  0  0
 11 12  1  0  0  0  0
 11 13  1  0  0  0  0
 11 14  1  0  0  0  0
  9 10  1  0  0  0  0
  9 11  1  0  0  0  0
  9 23  1  0  0  0  0
  7  8  1  0  0  0  0
  7  9  1  0  0  0  0
 27 28  1  0  0  0  0
 27 29  1  0  0  0  0
 27 30  1  0  0  0  0
 25 26  1  0  0  0  0
 25 27  1  0  0  0  0
M  CHG  1  15   1
M  END
$$$$
default_name
  -OEChem-02102213163D

 30 30  0     1  0  0  0  0  0999 V2000
   -3.5507   -3.2183    1.8116 H   0  0  0  0  0  0  0  0  0  0  0  0
   -3.4597   -2.3913    1.1076 C   0  0  0  0  0  0  0  0  0  0  0  0
   -4.1577   -1.6043    1.3866 H   0  0  0  0  0  0  0  0  0  0  0  0
   -3.6807   -2.7523    0.1036 H   0  0  0  0  0  0  0  0  0  0  0  0
   -2.0477   -1.8543    1.1546 C   0  0  0  0  0  0  0  0  0  0  0  0
   -1.2227   -2.3443    1.9146 O   0  0  0  0  0  0  0  0  0  0  0  0
   -1.7517   -0.8483    0.3266 N   0  0  0  0  0  0  0  0  0  0  0  0
   -2.4847   -0.5123   -0.2804 H   0  0  0  0  0  0  0  0  0  0  0  0
   -0.4117   -0.2463    0.2186 C   0  0  1  0  0  0  0  0  0  0  0  0
    0.2987   -1.0391   -0.0285 H   0  0  0  0  0  0  0  0  0  0  0  0
   -0.4131    0.7505   -0.9636 C   0  0  0  0  0  0  0  0  0  0  0  0
   -0.3982    1.7669   -0.5622 H   0  0  0  0  0  0  0  0  0  0  0  0
    0.5058    0.6196   -1.5392 H   0  0  0  0  0  0  0  0  0  0  0  0
   -1.5853    0.6211   -1.9131 C   0  0  0  0  0  0  0  0  0  0  0  0
   -2.6625    1.4838   -1.9738 N   0  3  0  0  0  0  0  0  0  0  0  0
   -2.7338    2.3389   -1.4148 H   0  0  0  0  0  0  0  0  0  0  0  0
   -3.5021    1.0494   -2.9345 C   0  0  0  0  0  0  0  0  0  0  0  0
   -4.4335    1.5329   -3.2223 H   0  0  0  0  0  0  0  0  0  0  0  0
   -2.9815   -0.0711   -3.4841 N   0  0  0  0  0  0  0  0  0  0  0  0
   -3.3967   -0.6159   -4.2353 H   0  0  0  0  0  0  0  0  0  0  0  0
   -1.7776   -0.3542   -2.8540 C   0  0  0  0  0  0  0  0  0  0  0  0
   -1.1096   -1.1858   -3.0605 H   0  0  0  0  0  0  0  0  0  0  0  0
    0.0470    0.3465    1.5629 C   0  0  0  0  0  0  0  0  0  0  0  0
    1.1854    0.1365    1.9846 O   0  0  0  0  0  0  0  0  0  0  0  0
   -0.8551    1.0750    2.2320 N   0  0  0  0  0  0  0  0  0  0  0  0
   -1.7594    1.2031    1.8040 H   0  0  0  0  0  0  0  0  0  0  0  0
   -0.6356    1.6998    3.5400 C   0  0  0  0  0  0  0  0  0  0  0  0
   -0.4284    2.7647    3.4168 H   0  0  0  0  0  0  0  0  0  0  0  0
   -1.5268    1.5885    4.1601 H   0  0  0  0  0  0  0  0  0  0  0  0
    0.2072    1.2358    4.0566 H   0  0  0  0  0  0  0  0  0  0  0  0
  5  6  2  0  0  0  0
  5  7  1  0  0  0  0
  2  3  1  0  0  0  0
  2  4  1  0  0  0  0
  2  5  1  0  0  0  0
  1  2  1  0  0  0  0
 23 24  2  0  0  0  0
 23 25  1  0  0  0  0
 21 22  1  0  0  0  0
 19 20  1  0  0  0  0
 19 21  1  0  0  0  0
 17 18  1  0  0  0  0
 17 19  1  0  0  0  0
 15 16  1  0  0  0  0
 15 17  2  0  0  0  0
 14 15  1  0  0  0  0
 14 21  2  0  0  0  0
 11 12  1  0  0  0  0
 11 13  1  0  0  0  0
 11 14  1  0  0  0  0
  9 10  1  0  0  0  0
  9 11  1  0  0  0  0
  9 23  1  0  0  0  0
  7  8  1  0  0  0  0
  7  9  1  0  0  0  0
 27 28  1  0  0  0  0
 27 29  1  0  0  0  0
 27 30  1  0  0  0  0
 25 26  1  0  0  0  0
 25 27  1  0  0  0  0
M  CHG  1  15   1
M  END
$$$$
default_name
  -OEChem-02102213163D

 30 30  0     1  0  0  0  0  0999 V2000
   -3.5507   -3.2183    1.8116 H   0  0  0  0  0  0  0  0  0  0  0  0
   -3.4597   -2.3913    1.1076 C   0  0  0  0  0  0  0  0  0  0  0  0
   -4.1577   -1.6043    1.3866 H   0  0  0  0  0  0  0  0  0  0  0  0
   -3.6807   -2.7523    0.1036 H   0  0  0  0  0  0  0  0  0  0  0  0
   -2.0477   -1.8543    1.1546 C   0  0  0  0  0  0  0  0  0  0  0  0
   -1.2227   -2.3443    1.9146 O   0  0  0  0  0  0  0  0  0  0  0  0
   -1.7517   -0.8483    0.3266 N   0  0  0  0  0  0  0  0  0  0  0  0
   -2.4847   -0.5123   -0.2804 H   0  0  0  0  0  0  0  0  0  0  0  0
   -0.4117   -0.2463    0.2186 C   0  0  1  0  0  0  0  0  0  0  0  0
    0.2987   -1.0391   -0.0285 H   0  0  0  0  0  0  0  0  0  0  0  0
   -0.4131    0.7505   -0.9636 C   0  0  0  0  0  0  0  0  0  0  0  0
   -0.3982    1.7669   -0.5622 H   0  0  0  0  0  0  0  0  0  0  0  0
    0.5058    0.6196   -1.5392 H   0  0  0  0  0  0  0  0  0  0  0  0
   -1.5853    0.6211   -1.9131 C   0  0  0  0  0  0  0  0  0  0  0  0
   -2.5055    1.6147   -2.1855 N   0  3  0  0  0  0  0  0  0  0  0  0
   -2.4383    2.5653   -1.8106 H   0  0  0  0  0  0  0  0  0  0  0  0
   -3.3998    1.1351   -3.0726 C   0  0  0  0  0  0  0  0  0  0  0  0
   -4.2372    1.6932   -3.4864 H   0  0  0  0  0  0  0  0  0  0  0  0
   -3.0676   -0.1419   -3.3681 N   0  0  0  0  0  0  0  0  0  0  0  0
   -3.5626   -0.7537   -4.0117 H   0  0  0  0  0  0  0  0  0  0  0  0
   -1.9303   -0.4807   -2.6483 C   0  0  0  0  0  0  0  0  0  0  0  0
   -1.4070   -1.4328   -2.6596 H   0  0  0  0  0  0  0  0  0  0  0  0
    0.0470    0.3465    1.5629 C   0  0  0  0  0  0  0  0  0  0  0  0
    1.1854    0.1365    1.9846 O   0  0  0  0  0  0  0  0  0  0  0  0
   -0.8551    1.0750    2.2320 N   0  0  0  0  0  0  0  0  0  0  0  0
   -1.7594    1.2031    1.8040 H   0  0  0  0  0  0  0  0  0  0  0  0
   -0.6356    1.6998    3.5400 C   0  0  0  0  0  0  0  0  0  0  0  0
   -0.4284    2.7647    3.4168 H   0  0  0  0  0  0  0  0  0  0  0  0
   -1.5268    1.5885    4.1601 H   0  0  0  0  0  0  0  0  0  0  0  0
    0.2072    1.2358    4.0566 H   0  0  0  0  0  0  0  0  0  0  0  0
  5  6  2  0  0  0  0
  5  7  1  0  0  0  0
  2  3  1  0  0  0  0
  2  4  1  0  0  0  0
  2  5  1  0  0  0  0
  1  2  1  0  0  0  0
 23 24  2  0  0  0  0
 23 25  1  0  0  0  0
 21 22  1  0  0  0  0
 19 20  1  0  0  0  0
 19 21  1  0  0  0  0
 17 18  1  0  0  0  0
 17 19  1  0  0  0  0
 15 16  1  0  0  0  0
 15 17  2  0  0  0  0
 14 15  1  0  0  0  0
 14 21  2  0  0  0  0
 11 12  1  0  0  0  0
 11 13  1  0  0  0  0
 11 14  1  0  0  0  0
  9 10  1  0  0  0  0
  9 11  1  0  0  0  0
  9 23  1  0  0  0  0
  7  8  1  0  0  0  0
  7  9  1  0  0  0  0
 27 28  1  0  0  0  0
 27 29  1  0  0  0  0
 27 30  1  0  0  0  0
 25 26  1  0  0  0  0
 25 27  1  0  0  0  0
M  CHG  1  15   1
M  END
$$$$
default_name
  -OEChem-02102213163D

 30 30  0     1  0  0  0  0  0999 V2000
   -3.5507   -3.2183    1.8116 H   0  0  0  0  0  0  0  0  0  0  0  0
   -3.4597   -2.3913    1.1076 C   0  0  0  0  0  0  0  0  0  0  0  0
   -4.1577   -1.6043    1.3866 H   0  0  0  0  0  0  0  0  0  0  0  0
   -3.6807   -2.7523    0.1036 H   0  0  0  0  0  0  0  0  0  0  0  0
   -2.0477   -1.8543    1.1546 C   0  0  0  0  0  0  0  0  0  0  0  0
   -1.2227   -2.3443    1.9146 O   0  0  0  0  0  0  0  0  0  0  0  0
   -1.7517   -0.8483    0.3266 N   0  0  0  0  0  0  0  0  0  0  0  0
   -2.4847   -0.5123   -0.2804 H   0  0  0  0  0  0  0  0  0  0  0  0
   -0.4117   -0.2463    0.2186 C   0  0  1  0  0  0  0  0  0  0  0  0
    0.2987   -1.0391   -0.0285 H   0  0  0  0  0  0  0  0  0  0  0  0
   -0.4131    0.7505   -0.9636 C   0  0  0  0  0  0  0  0  0  0  0  0
   -0.3982    1.7669   -0.5622 H   0  0  0  0  0  0  0  0  0  0  0  0
    0.5058    0.6196   -1.5392 H   0  0  0  0  0  0  0  0  0  0  0  0
   -1.5853    0.6211   -1.9131 C   0  0  0  0  0  0  0  0  0  0  0  0
   -2.3279    1.6733   -2.4128 N   0  3  0  0  0  0  0  0  0  0  0  0
   -2.1072    2.6568   -2.2318 H   0  0  0  0  0  0  0  0  0  0  0  0
   -3.2840    1.1737   -3.2208 C   0  0  0  0  0  0  0  0  0  0  0  0
   -4.0158    1.7632   -3.7693 H   0  0  0  0  0  0  0  0  0  0  0  0
   -3.1648   -0.1731   -3.2439 N   0  0  0  0  0  0  0  0  0  0  0  0
   -3.7501   -0.8151   -3.7718 H   0  0  0  0  0  0  0  0  0  0  0  0
   -2.1028   -0.5369   -2.4277 C   0  0  0  0  0  0  0  0  0  0  0  0
   -1.7432   -1.5428   -2.2295 H   0  0  0  0  0  0  0  0  0  0  0  0
    0.0470    0.3465    1.5629 C   0  0  0  0  0  0  0  0  0  0  0  0
    1.1854    0.1365    1.9846 O   0  0  0  0  0  0  0  0  0  0  0  0
   -0.8551    1.0750    2.2320 N   0  0  0  0  0  0  0  0  0  0  0  0
   -1.7594    1.2031    1.8040 H   0  0  0  0  0  0  0  0  0  0  0  0
   -0.6356    1.6998    3.5400 C   0  0  0  0  0  0  0  0  0  0  0  0
   -0.4284    2.7647    3.4168 H   0  0  0  0  0  0  0  0  0  0  0  0
   -1.5268    1.5885    4.1601 H   0  0  0  0  0  0  0  0  0  0  0  0
    0.2072    1.2358    4.0566 H   0  0  0  0  0  0  0  0  0  0  0  0
  5  6  2  0  0  0  0
  5  7  1  0  0  0  0
  2  3  1  0  0  0  0
  2  4  1  0  0  0  0
  2  5  1  0  0  0  0
  1  2  1  0  0  0  0
 23 24  2  0  0  0  0
 23 25  1  0  0  0  0
 21 22  1  0  0  0  0
 19 20  1  0  0  0  0
 19 21  1  0  0  0  0
 17 18  1  0  0  0  0
 17 19  1  0  0  0  0
 15 16  1  0  0  0  0
 15 17  2  0  0  0  0
 14 15  1  0  0  0  0
 14 21  2  0  0  0  0
 11 12  1  0  0  0  0
 11 13  1  0  0  0  0
 11 14  1  0  0  0  0
  9 10  1  0  0  0  0
  9 11  1  0  0  0  0
  9 23  1  0  0  0  0
  7  8  1  0  0  0  0
  7  9  1  0  0  0  0
 27 28  1  0  0  0  0
 27 29  1  0  0  0  0
 27 30  1  0  0  0  0
 25 26  1  0  0  0  0
 25 27  1  0  0  0  0
M  CHG  1  15   1
M  END
$$$$
default_name
  -OEChem-02102213163D

 30 30  0     1  0  0  0  0  0999 V2000
   -3.5507   -3.2183    1.8116 H   0  0  0  0  0  0  0  0  0  0  0  0
   -3.4597   -2.3913    1.1076 C   0  0  0  0  0  0  0  0  0  0  0  0
   -4.1577   -1.6043    1.3866 H   0  0  0  0  0  0  0  0  0  0  0  0
   -3.6807   -2.7523    0.1036 H   0  0  0  0  0  0  0  0  0  0  0  0
   -2.0477   -1.8543    1.1546 C   0  0  0  0  0  0  0  0  0  0  0  0
   -1.2227   -2.3443    1.9146 O   0  0  0  0  0  0  0  0  0  0  0  0
   -1.7517   -0.8483    0.3266 N   0  0  0  0  0  0  0  0  0  0  0  0
   -2.4847   -0.5123   -0.2804 H   0  0  0  0  0  0  0  0  0  0  0  0
   -0.4117   -0.2463    0.2186 C   0  0  1  0  0  0  0  0  0  0  0  0
    0.2987   -1.0391   -0.0285 H   0  0  0  0  0  0  0  0  0  0  0  0
   -0.4131    0.7505   -0.9636 C   0  0  0  0  0  0  0  0  0  0  0  0
   -0.3982    1.7669   -0.5622 H   0  0  0  0  0  0  0  0  0  0  0  0
    0.5058    0.6196   -1.5392 H   0  0  0  0  0  0  0  0  0  0  0  0
   -1.5853    0.6211   -1.9131 C   0  0  0  0  0  0  0  0  0  0  0  0
   -2.1418    1.6555   -2.6401 N   0  3  0  0  0  0  0  0  0  0  0  0
   -1.7633    2.6070   -2.6496 H   0  0  0  0  0  0  0  0  0  0  0  0
   -3.1626    1.1624   -3.3692 C   0  0  0  0  0  0  0  0  0  0  0  0
   -3.7844    1.7383   -4.0517 H   0  0  0  0  0  0  0  0  0  0  0  0
   -3.2665   -0.1625   -3.1198 N   0  0  0  0  0  0  0  0  0  0  0  0
   -3.9466   -0.7959   -3.5319 H   0  0  0  0  0  0  0  0  0  0  0  0
   -2.2834   -0.5189   -2.2071 C   0  0  0  0  0  0  0  0  0  0  0  0
   -2.0954   -1.5083   -1.7994 H   0  0  0  0  0  0  0  0  0  0  0  0
    0.0470    0.3465    1.5629 C   0  0  0  0  0  0  0  0  0  0  0  0
    1.1854    0.1365    1.9846 O   0  0  0  0  0  0  0  0  0  0  0  0
   -0.8551    1.0750    2.2320 N   0  0  0  0  0  0  0  0  0  0  0  0
   -1.7594    1.2031    1.8040 H   0  0  0  0  0  0  0  0  0  0  0  0
   -0.6356    1.6998    3.5400 C   0  0  0  0  0  0  0  0  0  0  0  0
   -0.4284    2.7647    3.4168 H   0  0  0  0  0  0  0  0  0  0  0  0
   -1.5268    1.5885    4.1601 H   0  0  0  0  0  0  0  0  0  0  0  0
    0.2072    1.2358    4.0566 H   0  0  0  0  0  0  0  0  0  0  0  0
  5  6  2  0  0  0  0
  5  7  1  0  0  0  0
  2  3  1  0  0  0  0
  2  4  1  0  0  0  0
  2  5  1  0  0  0  0
  1  2  1  0  0  0  0
 23 24  2  0  0  0  0
 23 25  1  0  0  0  0
 21 22  1  0  0  0  0
 19 20  1  0  0  0  0
 19 21  1  0  0  0  0
 17 18  1  0  0  0  0
 17 19  1  0  0  0  0
 15 16  1  0  0  0  0
 15 17  2  0  0  0  0
 14 15  1  0  0  0  0
 14 21  2  0  0  0  0
 11 12  1  0  0  0  0
 11 13  1  0  0  0  0
 11 14  1  0  0  0  0
  9 10  1  0  0  0  0
  9 11  1  0  0  0  0
  9 23  1  0  0  0  0
  7  8  1  0  0  0  0
  7  9  1  0  0  0  0
 27 28  1  0  0  0  0
 27 29  1  0  0  0  0
 27 30  1  0  0  0  0
 25 26  1  0  0  0  0
 25 27  1  0  0  0  0
M  CHG  1  15   1
M  END
$$$$
default_name
  -OEChem-02102213163D

 30 30  0     1  0  0  0  0  0999 V2000
   -3.5507   -3.2183    1.8116 H   0  0  0  0  0  0  0  0  0  0  0  0
   -3.4597   -2.3913    1.1076 C   0  0  0  0  0  0  0  0  0  0  0  0
   -4.1577   -1.6043    1.3866 H   0  0  0  0  0  0  0  0  0  0  0  0
   -3.6807   -2.7523    0.1036 H   0  0  0  0  0  0  0  0  0  0  0  0
   -2.0477   -1.8543    1.1546 C   0  0  0  0  0  0  0  0  0  0  0  0
   -1.2227   -2.3443    1.9146 O   0  0  0  0  0  0  0  0  0  0  0  0
   -1.7517   -0.8483    0.3266 N   0  0  0  0  0  0  0  0  0  0  0  0
   -2.4847   -0.5123   -0.2804 H   0  0  0  0  0  0  0  0  0  0  0  0
   -0.4117   -0.2463    0.2186 C   0  0  1  0  0  0  0  0  0  0  0  0
    0.2987   -1.0391   -0.0285 H   0  0  0  0  0  0  0  0  0  0  0  0
   -0.4131    0.7505   -0.9636 C   0  0  0  0  0  0  0  0  0  0  0  0
   -0.3982    1.7669   -0.5622 H   0  0  0  0  0  0  0  0  0  0  0  0
    0.5058    0.6196   -1.5392 H   0  0  0  0  0  0  0  0  0  0  0  0
   -1.5853    0.6211   -1.9131 C   0  0  0  0  0  0  0  0  0  0  0  0
   -1.9600    1.5626   -2.8520 N   0  3  0  0  0  0  0  0  0  0  0  0
   -1.4300    2.4194   -3.0356 H   0  0  0  0  0  0  0  0  0  0  0  0
   -3.0438    1.1021   -3.5076 C   0  0  0  0  0  0  0  0  0  0  0  0
   -3.5586    1.6200   -4.3143 H   0  0  0  0  0  0  0  0  0  0  0  0
   -3.3658   -0.1109   -3.0042 N   0  0  0  0  0  0  0  0  0  0  0  0
   -4.1385   -0.6974   -3.3083 H   0  0  0  0  0  0  0  0  0  0  0  0
   -2.4598   -0.4281   -2.0016 C   0  0  0  0  0  0  0  0  0  0  0  0
   -2.4395   -1.3317   -1.3986 H   0  0  0  0  0  0  0  0  0  0  0  0
    0.0470    0.3465    1.5629 C   0  0  0  0  0  0  0  0  0  0  0  0
    1.1854    0.1365    1.9846 O   0  0  0  0  0  0  0  0  0  0  0  0
   -0.8551    1.0750    2.2320 N   0  0  0  0  0  0  0  0  0  0  0  0
   -1.7594    1.2031    1.8040 H   0  0  0  0  0  0  0  0  0  0  0  0
   -0.6356    1.6998    3.5400 C   0  0  0  0  0  0  0  0  0  0  0  0
   -0.4284    2.7647    3.4168 H   0  0  0  0  0  0  0  0  0  0  0  0
   -1.5268    1.5885    4.1601 H   0  0  0  0  0  0  0  0  0  0  0  0
    0.2072    1.2358    4.0566 H   0  0  0  0  0  0  0  0  0  0  0  0
  5  6  2  0  0  0  0
  5  7  1  0  0  0  0
  2  3  1  0  0  0  0
  2  4  1  0  0  0  0
  2  5  1  0  0  0  0
  1  2  1  0  0  0  0
 23 24  2  0  0  0  0
 23 25  1  0  0  0  0
 21 22  1  0  0  0  0
 19 20  1  0  0  0  0
 19 21  1  0  0  0  0
 17 18  1  0  0  0  0
 17 19  1  0  0  0  0
 15 16  1  0  0  0  0
 15 17  2  0  0  0  0
 14 15  1  0  0  0  0
 14 21  2  0  0  0  0
 11 12  1  0  0  0  0
 11 13  1  0  0  0  0
 11 14  1  0  0  0  0
  9 10  1  0  0  0  0
  9 11  1  0  0  0  0
  9 23  1  0  0  0  0
  7  8  1  0  0  0  0
  7  9  1  0  0  0  0
 27 28  1  0  0  0  0
 27 29  1  0  0  0  0
 27 30  1  0  0  0  0
 25 26  1  0  0  0  0
 25 27  1  0  0  0  0
M  CHG  1  15   1
M  END
$$$$
default_name
  -OEChem-02102213163D

 30 30  0     1  0  0  0  0  0999 V2000
   -3.5507   -3.2183    1.8116 H   0  0  0  0  0  0  0  0  0  0  0  0
   -3.4597   -2.3913    1.1076 C   0  0  0  0  0  0  0  0  0  0  0  0
   -4.1577   -1.6043    1.3866 H   0  0  0  0  0  0  0  0  0  0  0  0
   -3.6807   -2.7523    0.1036 H   0  0  0  0  0  0  0  0  0  0  0  0
   -2.0477   -1.8543    1.1546 C   0  0  0  0  0  0  0  0  0  0  0  0
   -1.2227   -2.3443    1.9146 O   0  0  0  0  0  0  0  0  0  0  0  0
   -1.7517   -0.8483    0.3266 N   0  0  0  0  0  0  0  0  0  0  0  0
   -2.4847   -0.5123   -0.2804 H   0  0  0  0  0  0  0  0  0  0  0  0
   -0.4117   -0.2463    0.2186 C   0  0  1  0  0  0  0  0  0  0  0  0
    0.2987   -1.0391   -0.0285 H   0  0  0  0  0  0  0  0  0  0  0  0
   -0.4131    0.7505   -0.9636 C   0  0  0  0  0  0  0  0  0  0  0  0
   -0.1306    1.7371   -0.5876 H   0  0  0  0  0  0  0  0  0  0  0  0
    0.3526    0.4499   -1.6821 H   0  0  0  0  0  0  0  0  0  0  0  0
   -1.7294    0.8714   -1.7019 C   0  0  0  0  0  0  0  0  0  0  0  0
   -1.9643    1.6956   -2.7853 N   0  3  0  0  0  0  0  0  0  0  0  0
   -1.2376    2.2614   -3.2330 H   0  0  0  0  0  0  0  0  0  0  0  0
   -3.2455    1.5353   -3.1722 C   0  0  0  0  0  0  0  0  0  0  0  0
   -3.7185    2.0444   -4.0095 H   0  0  0  0  0  0  0  0  0  0  0  0
   -3.8289    0.6279   -2.3570 N   0  0  0  0  0  0  0  0  0  0  0  0
   -4.7918    0.3065   -2.4137 H   0  0  0  0  0  0  0  0  0  0  0  0
   -2.8906    0.2008   -1.4276 C   0  0  0  0  0  0  0  0  0  0  0  0
   -3.0388   -0.5251   -0.6329 H   0  0  0  0  0  0  0  0  0  0  0  0
    0.0470    0.3465    1.5629 C   0  0  0  0  0  0  0  0  0  0  0  0
    1.1854    0.1365    1.9846 O   0  0  0  0  0  0  0  0  0  0  0  0
   -0.8551    1.0750    2.2320 N   0  0  0  0  0  0  0  0  0  0  0  0
   -1.7594    1.2031    1.8040 H   0  0  0  0  0  0  0  0  0  0  0  0
   -0.6356    1.6998    3.5400 C   0  0  0  0  0  0  0  0  0  0  0  0
   -0.4284    2.7647    3.4168 H   0  0  0  0  0  0  0  0  0  0  0  0
   -1.5268    1.5885    4.1601 H   0  0  0  0  0  0  0  0  0  0  0  0
    0.2072    1.2358    4.0566 H   0  0  0  0  0  0  0  0  0  0  0  0
  5  6  2  0  0  0  0
  5  7  1  0  0  0  0
  2  3  1  0  0  0  0
  2  4  1  0  0  0  0
  2  5  1  0  0  0  0
  1  2  1  0  0  0  0
 23 24  2  0  0  0  0
 23 25  1  0  0  0  0
 21 22  1  0  0  0  0
 19 20  1  0  0  0  0
 19 21  1  0  0  0  0
 17 18  1  0  0  0  0
 17 19  1  0  0  0  0
 15 16  1  0  0  0  0
 15 17  2  0  0  0  0
 14 15  1  0  0  0  0
 14 21  2  0  0  0  0
 11 12  1  0  0  0  0
 11 13  1  0  0  0  0
 11 14  1  0  0  0  0
  9 10  1  0  0  0  0
  9 11  1  0  0  0  0
  9 23  1  0  0  0  0
  7  8  1  0  0  0  0
  7  9  1  0  0  0  0
 27 28  1  0  0  0  0
 27 29  1  0  0  0  0
 27 30  1  0  0  0  0
 25 26  1  0  0  0  0
 25 27  1  0  0  0  0
M  CHG  1  15   1
M  END
$$$$
default_name
  -OEChem-02102213163D

 30 30  0     1  0  0  0  0  0999 V2000
   -3.5507   -3.2183    1.8116 H   0  0  0  0  0  0  0  0  0  0  0  0
   -3.4597   -2.3913    1.1076 C   0  0  0  0  0  0  0  0  0  0  0  0
   -4.1577   -1.6043    1.3866 H   0  0  0  0  0  0  0  0  0  0  0  0
   -3.6807   -2.7523    0.1036 H   0  0  0  0  0  0  0  0  0  0  0  0
   -2.0477   -1.8543    1.1546 C   0  0  0  0  0  0  0  0  0  0  0  0
   -1.2227   -2.3443    1.9146 O   0  0  0  0  0  0  0  0  0  0  0  0
   -1.7517   -0.8483    0.3266 N   0  0  0  0  0  0  0  0  0  0  0  0
   -2.4847   -0.5123   -0.2804 H   0  0  0  0  0  0  0  0  0  0  0  0
   -0.4117   -0.2463    0.2186 C   0  0  1  0  0  0  0  0  0  0  0  0
    0.2987   -1.0391   -0.0285 H   0  0  0  0  0  0  0  0  0  0  0  0
   -0.4131    0.7505   -0.9636 C   0  0  0  0  0  0  0  0  0  0  0  0
   -0.1306    1.7371   -0.5876 H   0  0  0  0  0  0  0  0  0  0  0  0
    0.3526    0.4499   -1.6821 H   0  0  0  0  0  0  0  0  0  0  0  0
   -1.7294    0.8714   -1.7019 C   0  0  0  0  0  0  0  0  0  0  0  0
   -1.8983    1.4556   -2.9423 N   0  3  0  0  0  0  0  0  0  0  0  0
   -1.1233    1.8086   -3.5109 H   0  0  0  0  0  0  0  0  0  0  0  0
   -3.2022    1.3789   -3.2749 C   0  0  0  0  0  0  0  0  0  0  0  0
   -3.6377    1.7442   -4.2027 H   0  0  0  0  0  0  0  0  0  0  0  0
   -3.8646    0.7595   -2.2718 N   0  0  0  0  0  0  0  0  0  0  0  0
   -4.8612    0.5602   -2.2483 H   0  0  0  0  0  0  0  0  0  0  0  0
   -2.9544    0.4342   -1.2757 C   0  0  0  0  0  0  0  0  0  0  0  0
   -3.1633   -0.0704   -0.3364 H   0  0  0  0  0  0  0  0  0  0  0  0
    0.0470    0.3465    1.5629 C   0  0  0  0  0  0  0  0  0  0  0  0
    1.1854    0.1365    1.9846 O   0  0  0  0  0  0  0  0  0  0  0  0
   -0.8551    1.0750    2.2320 N   0  0  0  0  0  0  0  0  0  0  0  0
   -1.7594    1.2031    1.8040 H   0  0  0  0  0  0  0  0  0  0  0  0
   -0.6356    1.6998    3.5400 C   0  0  0  0  0  0  0  0  0  0  0  0
   -0.4284    2.7647    3.4168 H   0  0  0  0  0  0  0  0  0  0  0  0
   -1.5268    1.5885    4.1601 H   0  0  0  0  0  0  0  0  0  0  0  0
    0.2072    1.2358    4.0566 H   0  0  0  0  0  0  0  0  0  0  0  0
  5  6  2  0  0  0  0
  5  7  1  0  0  0  0
  2  3  1  0  0  0  0
  2  4  1  0  0  0  0
  2  5  1  0  0  0  0
  1  2  1  0  0  0  0
 23 24  2  0  0  0  0
 23 25  1  0  0  0  0
 21 22  1  0  0  0  0
 19 20  1  0  0  0  0
 19 21  1  0  0  0  0
 17 18  1  0  0  0  0
 17 19  1  0  0  0  0
 15 16  1  0  0  0  0
 15 17  2  0  0  0  0
 14 15  1  0  0  0  0
 14 21  2  0  0  0  0
 11 12  1  0  0  0  0
 11 13  1  0  0  0  0
 11 14  1  0  0  0  0
  9 10  1  0  0  0  0
  9 11  1  0  0  0  0
  9 23  1  0  0  0  0
  7  8  1  0  0  0  0
  7  9  1  0  0  0  0
 27 28  1  0  0  0  0
 27 29  1  0  0  0  0
 27 30  1  0  0  0  0
 25 26  1  0  0  0  0
 25 27  1  0  0  0  0
M  CHG  1  15   1
M  END
$$$$
default_name
  -OEChem-02102213163D

 30 30  0     1  0  0  0  0  0999 V2000
   -3.5507   -3.2183    1.8116 H   0  0  0  0  0  0  0  0  0  0  0  0
   -3.4597   -2.3913    1.1076 C   0  0  0  0  0  0  0  0  0  0  0  0
   -4.1577   -1.6043    1.3866 H   0  0  0  0  0  0  0  0  0  0  0  0
   -3.6807   -2.7523    0.1036 H   0  0  0  0  0  0  0  0  0  0  0  0
   -2.0477   -1.8543    1.1546 C   0  0  0  0  0  0  0  0  0  0  0  0
   -1.2227   -2.3443    1.9146 O   0  0  0  0  0  0  0  0  0  0  0  0
   -1.7517   -0.8483    0.3266 N   0  0  0  0  0  0  0  0  0  0  0  0
   -2.4847   -0.5123   -0.2804 H   0  0  0  0  0  0  0  0  0  0  0  0
   -0.4117   -0.2463    0.2186 C   0  0  1  0  0  0  0  0  0  0  0  0
    0.2987   -1.0391   -0.0285 H   0  0  0  0  0  0  0  0  0  0  0  0
   -0.4131    0.7505   -0.9636 C   0  0  0  0  0  0  0  0  0  0  0  0
   -0.1306    1.7371   -0.5876 H   0  0  0  0  0  0  0  0  0  0  0  0
    0.3526    0.4499   -1.6821 H   0  0  0  0  0  0  0  0  0  0  0  0
   -1.7294    0.8714   -1.7019 C   0  0  0  0  0  0  0  0  0  0  0  0
   -1.8681    1.1801   -3.0413 N   0  3  0  0  0  0  0  0  0  0  0  0
   -1.0758    1.2943   -3.6798 H   0  0  0  0  0  0  0  0  0  0  0  0
   -3.1824    1.1992   -3.3397 C   0  0  0  0  0  0  0  0  0  0  0  0
   -3.6015    1.4006   -4.3235 H   0  0  0  0  0  0  0  0  0  0  0  0
   -3.8807    0.9104   -2.2184 N   0  0  0  0  0  0  0  0  0  0  0  0
   -4.8929    0.8511   -2.1442 H   0  0  0  0  0  0  0  0  0  0  0  0
   -2.9834    0.7018   -1.1802 C   0  0  0  0  0  0  0  0  0  0  0  0
   -3.2200    0.4513   -0.1498 H   0  0  0  0  0  0  0  0  0  0  0  0
    0.0470    0.3465    1.5629 C   0  0  0  0  0  0  0  0  0  0  0  0
    1.1854    0.1365    1.9846 O   0  0  0  0  0  0  0  0  0  0  0  0
   -0.8551    1.0750    2.2320 N   0  0  0  0  0  0  0  0  0  0  0  0
   -1.7594    1.2031    1.8040 H   0  0  0  0  0  0  0  0  0  0  0  0
   -0.6356    1.6998    3.5400 C   0  0  0  0  0  0  0  0  0  0  0  0
   -0.4284    2.7647    3.4168 H   0  0  0  0  0  0  0  0  0  0  0  0
   -1.5268    1.5885    4.1601 H   0  0  0  0  0  0  0  0  0  0  0  0
    0.2072    1.2358    4.0566 H   0  0  0  0  0  0  0  0  0  0  0  0
  5  6  2  0  0  0  0
  5  7  1  0  0  0  0
  2  3  1  0  0  0  0
  2  4  1  0  0  0  0
  2  5  1  0  0  0  0
  1  2  1  0  0  0  0
 23 24  2  0  0  0  0
 23 25  1  0  0  0  0
 21 22  1  0  0  0  0
 19 20  1  0  0  0  0
 19 21  1  0  0  0  0
 17 18  1  0  0  0  0
 17 19  1  0  0  0  0
 15 16  1  0  0  0  0
 15 17  2  0  0  0  0
 14 15  1  0  0  0  0
 14 21  2  0  0  0  0
 11 12  1  0  0  0  0
 11 13  1  0  0  0  0
 11 14  1  0  0  0  0
  9 10  1  0  0  0  0
  9 11  1  0  0  0  0
  9 23  1  0  0  0  0
  7  8  1  0  0  0  0
  7  9  1  0  0  0  0
 27 28  1  0  0  0  0
 27 29  1  0  0  0  0
 27 30  1  0  0  0  0
 25 26  1  0  0  0  0
 25 27  1  0  0  0  0
M  CHG  1  15   1
M  END
$$$$
default_name
  -OEChem-02102213163D

 30 30  0     1  0  0  0  0  0999 V2000
   -3.5507   -3.2183    1.8116 H   0  0  0  0  0  0  0  0  0  0  0  0
   -3.4597   -2.3913    1.1076 C   0  0  0  0  0  0  0  0  0  0  0  0
   -4.1577   -1.6043    1.3866 H   0  0  0  0  0  0  0  0  0  0  0  0
   -3.6807   -2.7523    0.1036 H   0  0  0  0  0  0  0  0  0  0  0  0
   -2.0477   -1.8543    1.1546 C   0  0  0  0  0  0  0  0  0  0  0  0
   -1.2227   -2.3443    1.9146 O   0  0  0  0  0  0  0  0  0  0  0  0
   -1.7517   -0.8483    0.3266 N   0  0  0  0  0  0  0  0  0  0  0  0
   -2.4847   -0.5123   -0.2804 H   0  0  0  0  0  0  0  0  0  0  0  0
   -0.4117   -0.2463    0.2186 C   0  0  1  0  0  0  0  0  0  0  0  0
    0.2987   -1.0391   -0.0285 H   0  0  0  0  0  0  0  0  0  0  0  0
   -0.4131    0.7505   -0.9636 C   0  0  0  0  0  0  0  0  0  0  0  0
   -0.1306    1.7371   -0.5876 H   0  0  0  0  0  0  0  0  0  0  0  0
    0.3526    0.4499   -1.6821 H   0  0  0  0  0  0  0  0  0  0  0  0
   -1.7294    0.8714   -1.7019 C   0  0  0  0  0  0  0  0  0  0  0  0
   -1.8758    0.8879   -3.0755 N   0  3  0  0  0  0  0  0  0  0  0  0
   -1.0983    0.7535   -3.7283 H   0  0  0  0  0  0  0  0  0  0  0  0
   -3.1872    1.0085   -3.3623 C   0  0  0  0  0  0  0  0  0  0  0  0
   -3.6125    1.0370   -4.3635 H   0  0  0  0  0  0  0  0  0  0  0  0
   -3.8761    1.0701   -2.2004 N   0  0  0  0  0  0  0  0  0  0  0  0
   -4.8846    1.1596   -2.1085 H   0  0  0  0  0  0  0  0  0  0  0  0
   -2.9756    0.9855   -1.1476 C   0  0  0  0  0  0  0  0  0  0  0  0
   -3.2052    1.0044   -0.0858 H   0  0  0  0  0  0  0  0  0  0  0  0
    0.0470    0.3465    1.5629 C   0  0  0  0  0  0  0  0  0  0  0  0
    1.1854    0.1365    1.9846 O   0  0  0  0  0  0  0  0  0  0  0  0
   -0.8551    1.0750    2.2320 N   0  0  0  0  0  0  0  0  0  0  0  0
   -1.7594    1.2031    1.8040 H   0  0  0  0  0  0  0  0  0  0  0  0
   -0.6356    1.6998    3.5400 C   0  0  0  0  0  0  0  0  0  0  0  0
   -0.4284    2.7647    3.4168 H   0  0  0  0  0  0  0  0  0  0  0  0
   -1.5268    1.5885    4.1601 H   0  0  0  0  0  0  0  0  0  0  0  0
    0.2072    1.2358    4.0566 H   0  0  0  0  0  0  0  0  0  0  0  0
  5  6  2  0  0  0  0
  5  7  1  0  0  0  0
  2  3  1  0  0  0  0
  2  4  1  0  0  0  0
  2  5  1  0  0  0  0
  1  2  1  0  0  0  0
 23 24  2  0  0  0  0
 23 25  1  0  0  0  0
 21 22  1  0  0  0  0
 19 20  1  0  0  0  0
 19 21  1  0  0  0  0
 17 18  1  0  0  0  0
 17 19  1  0  0  0  0
 15 16  1  0  0  0  0
 15 17  2  0  0  0  0
 14 15  1  0  0  0  0
 14 21  2  0  0  0  0
 11 12  1  0  0  0  0
 11 13  1  0  0  0  0
 11 14  1  0  0  0  0
  9 10  1  0  0  0  0
  9 11  1  0  0  0  0
  9 23  1  0  0  0  0
  7  8  1  0  0  0  0
  7  9  1  0  0  0  0
 27 28  1  0  0  0  0
 27 29  1  0  0  0  0
 27 30  1  0  0  0  0
 25 26  1  0  0  0  0
 25 27  1  0  0  0  0
M  CHG  1  15   1
M  END
$$$$
default_name
  -OEChem-02102213163D

 30 30  0     1  0  0  0  0  0999 V2000
   -3.5507   -3.2183    1.8116 H   0  0  0  0  0  0  0  0  0  0  0  0
   -3.4597   -2.3913    1.1076 C   0  0  0  0  0  0  0  0  0  0  0  0
   -4.1577   -1.6043    1.3866 H   0  0  0  0  0  0  0  0  0  0  0  0
   -3.6807   -2.7523    0.1036 H   0  0  0  0  0  0  0  0  0  0  0  0
   -2.0477   -1.8543    1.1546 C   0  0  0  0  0  0  0  0  0  0  0  0
   -1.2227   -2.3443    1.9146 O   0  0  0  0  0  0  0  0  0  0  0  0
   -1.7517   -0.8483    0.3266 N   0  0  0  0  0  0  0  0  0  0  0  0
   -2.4847   -0.5123   -0.2804 H   0  0  0  0  0  0  0  0  0  0  0  0
   -0.4117   -0.2463    0.2186 C   0  0  1  0  0  0  0  0  0  0  0  0
    0.2987   -1.0391   -0.0285 H   0  0  0  0  0  0  0  0  0  0  0  0
   -0.4131    0.7505   -0.9636 C   0  0  0  0  0  0  0  0  0  0  0  0
   -0.1306    1.7371   -0.5876 H   0  0  0  0  0  0  0  0  0  0  0  0
    0.3526    0.4499   -1.6821 H   0  0  0  0  0  0  0  0  0  0  0  0
   -1.7294    0.8714   -1.7019 C   0  0  0  0  0  0  0  0  0  0  0  0
   -1.9207    0.5989   -3.0426 N   0  3  0  0  0  0  0  0  0  0  0  0
   -1.1893    0.2230   -3.6529 H   0  0  0  0  0  0  0  0  0  0  0  0
   -3.2164    0.8199   -3.3412 C   0  0  0  0  0  0  0  0  0  0  0  0
   -3.6697    0.6781   -4.3202 H   0  0  0  0  0  0  0  0  0  0  0  0
   -3.8511    1.2279   -2.2191 N   0  0  0  0  0  0  0  0  0  0  0  0
   -4.8369    1.4646   -2.1435 H   0  0  0  0  0  0  0  0  0  0  0  0
   -2.9316    1.2658   -1.1801 C   0  0  0  0  0  0  0  0  0  0  0  0
   -3.1197    1.5512   -0.1487 H   0  0  0  0  0  0  0  0  0  0  0  0
    0.0470    0.3465    1.5629 C   0  0  0  0  0  0  0  0  0  0  0  0
    1.1854    0.1365    1.9846 O   0  0  0  0  0  0  0  0  0  0  0  0
   -0.8551    1.0750    2.2320 N   0  0  0  0  0  0  0  0  0  0  0  0
   -1.7594    1.2031    1.8040 H   0  0  0  0  0  0  0  0  0  0  0  0
   -0.6356    1.6998    3.5400 C   0  0  0  0  0  0  0  0  0  0  0  0
   -0.4284    2.7647    3.4168 H   0  0  0  0  0  0  0  0  0  0  0  0
   -1.5268    1.5885    4.1601 H   0  0  0  0  0  0  0  0  0  0  0  0
    0.2072    1.2358    4.0566 H   0  0  0  0  0  0  0  0  0  0  0  0
  5  6  2  0  0  0  0
  5  7  1  0  0  0  0
  2  3  1  0  0  0  0
  2  4  1  0  0  0  0
  2  5  1  0  0  0  0
  1  2  1  0  0  0  0
 23 24  2  0  0  0  0
 23 25  1  0  0  0  0
 21 22  1  0  0  0  0
 19 20  1  0  0  0  0
 19 21  1  0  0  0  0
 17 18  1  0  0  0  0
 17 19  1  0  0  0  0
 15 16  1  0  0  0  0
 15 17  2  0  0  0  0
 14 15  1  0  0  0  0
 14 21  2  0  0  0  0
 11 12  1  0  0  0  0
 11 13  1  0  0  0  0
 11 14  1  0  0  0  0
  9 10  1  0  0  0  0
  9 11  1  0  0  0  0
  9 23  1  0  0  0  0
  7  8  1  0  0  0  0
  7  9  1  0  0  0  0
 27 28  1  0  0  0  0
 27 29  1  0  0  0  0
 27 30  1  0  0  0  0
 25 26  1  0  0  0  0
 25 27  1  0  0  0  0
M  CHG  1  15   1
M  END
$$$$
default_name
  -OEChem-02102213163D

 30 30  0     1  0  0  0  0  0999 V2000
   -3.5507   -3.2183    1.8116 H   0  0  0  0  0  0  0  0  0  0  0  0
   -3.4597   -2.3913    1.1076 C   0  0  0  0  0  0  0  0  0  0  0  0
   -4.1577   -1.6043    1.3866 H   0  0  0  0  0  0  0  0  0  0  0  0
   -3.6807   -2.7523    0.1036 H   0  0  0  0  0  0  0  0  0  0  0  0
   -2.0477   -1.8543    1.1546 C   0  0  0  0  0  0  0  0  0  0  0  0
   -1.2227   -2.3443    1.9146 O   0  0  0  0  0  0  0  0  0  0  0  0
   -1.7517   -0.8483    0.3266 N   0  0  0  0  0  0  0  0  0  0  0  0
   -2.4847   -0.5123   -0.2804 H   0  0  0  0  0  0  0  0  0  0  0  0
   -0.4117   -0.2463    0.2186 C   0  0  1  0  0  0  0  0  0  0  0  0
    0.2987   -1.0391   -0.0285 H   0  0  0  0  0  0  0  0  0  0  0  0
   -0.4131    0.7505   -0.9636 C   0  0  0  0  0  0  0  0  0  0  0  0
   -0.1306    1.7371   -0.5876 H   0  0  0  0  0  0  0  0  0  0  0  0
    0.3526    0.4499   -1.6821 H   0  0  0  0  0  0  0  0  0  0  0  0
   -1.7294    0.8714   -1.7019 C   0  0  0  0  0  0  0  0  0  0  0  0
   -2.0000    0.3328   -2.9449 N   0  3  0  0  0  0  0  0  0  0  0  0
   -1.3425   -0.2609   -3.4588 H   0  0  0  0  0  0  0  0  0  0  0  0
   -3.2679    0.6461   -3.2777 C   0  0  0  0  0  0  0  0  0  0  0  0
   -3.7695    0.3485   -4.1964 H   0  0  0  0  0  0  0  0  0  0  0  0
   -3.8075    1.3729   -2.2732 N   0  0  0  0  0  0  0  0  0  0  0  0
   -4.7531    1.7453   -2.2470 H   0  0  0  0  0  0  0  0  0  0  0  0
   -2.8545    1.5238   -1.2754 C   0  0  0  0  0  0  0  0  0  0  0  0
   -2.9694    2.0543   -0.3343 H   0  0  0  0  0  0  0  0  0  0  0  0
    0.0470    0.3465    1.5629 C   0  0  0  0  0  0  0  0  0  0  0  0
    1.1854    0.1365    1.9846 O   0  0  0  0  0  0  0  0  0  0  0  0
   -0.8551    1.0750    2.2320 N   0  0  0  0  0  0  0  0  0  0  0  0
   -1.7594    1.2031    1.8040 H   0  0  0  0  0  0  0  0  0  0  0  0
   -0.6356    1.6998    3.5400 C   0  0  0  0  0  0  0  0  0  0  0  0
   -0.4284    2.7647    3.4168 H   0  0  0  0  0  0  0  0  0  0  0  0
   -1.5268    1.5885    4.1601 H   0  0  0  0  0  0  0  0  0  0  0  0
    0.2072    1.2358    4.0566 H   0  0  0  0  0  0  0  0  0  0  0  0
  5  6  2  0  0  0  0
  5  7  1  0  0  0  0
  2  3  1  0  0  0  0
  2  4  1  0  0  0  0
  2  5  1  0  0  0  0
  1  2  1  0  0  0  0
 23 24  2  0  0  0  0
 23 25  1  0  0  0  0
 21 22  1  0  0  0  0
 19 20  1  0  0  0  0
 19 21  1  0  0  0  0
 17 18  1  0  0  0  0
 17 19  1  0  0  0  0
 15 16  1  0  0  0  0
 15 17  2  0  0  0  0
 14 15  1  0  0  0  0
 14 21  2  0  0  0  0
 11 12  1  0  0  0  0
 11 13  1  0  0  0  0
 11 14  1  0  0  0  0
  9 10  1  0  0  0  0
  9 11  1  0  0  0  0
  9 23  1  0  0  0  0
  7  8  1  0  0  0  0
  7  9  1  0  0  0  0
 27 28  1  0  0  0  0
 27 29  1  0  0  0  0
 27 30  1  0  0  0  0
 25 26  1  0  0  0  0
 25 27  1  0  0  0  0
M  CHG  1  15   1
M  END
$$$$
default_name
  -OEChem-02102213163D

 30 30  0     1  0  0  0  0  0999 V2000
   -3.5507   -3.2183    1.8116 H   0  0  0  0  0  0  0  0  0  0  0  0
   -3.4597   -2.3913    1.1076 C   0  0  0  0  0  0  0  0  0  0  0  0
   -4.1577   -1.6043    1.3866 H   0  0  0  0  0  0  0  0  0  0  0  0
   -3.6807   -2.7523    0.1036 H   0  0  0  0  0  0  0  0  0  0  0  0
   -2.0477   -1.8543    1.1546 C   0  0  0  0  0  0  0  0  0  0  0  0
   -1.2227   -2.3443    1.9146 O   0  0  0  0  0  0  0  0  0  0  0  0
   -1.7517   -0.8483    0.3266 N   0  0  0  0  0  0  0  0  0  0  0  0
   -2.4847   -0.5123   -0.2804 H   0  0  0  0  0  0  0  0  0  0  0  0
   -0.4117   -0.2463    0.2186 C   0  0  1  0  0  0  0  0  0  0  0  0
    0.2987   -1.0391   -0.0285 H   0  0  0  0  0  0  0  0  0  0  0  0
   -0.4131    0.7505   -0.9636 C   0  0  0  0  0  0  0  0  0  0  0  0
   -0.1306    1.7371   -0.5876 H   0  0  0  0  0  0  0  0  0  0  0  0
    0.3526    0.4499   -1.6821 H   0  0  0  0  0  0  0  0  0  0  0  0
   -1.7294    0.8714   -1.7019 C   0  0  0  0  0  0  0  0  0  0  0  0
   -2.1080    0.1078   -2.7891 N   0  3  0  0  0  0  0  0  0  0  0  0
   -1.5477   -0.6653   -3.1593 H   0  0  0  0  0  0  0  0  0  0  0  0
   -3.3383    0.4991   -3.1763 C   0  0  0  0  0  0  0  0  0  0  0  0
   -3.9048    0.0705   -4.0005 H   0  0  0  0  0  0  0  0  0  0  0  0
   -3.7482    1.4953   -2.3589 N   0  0  0  0  0  0  0  0  0  0  0  0
   -4.6389    1.9825   -2.4119 H   0  0  0  0  0  0  0  0  0  0  0  0
   -2.7493    1.7418   -1.4272 C   0  0  0  0  0  0  0  0  0  0  0  0
   -2.7646    2.4796   -0.6298 H   0  0  0  0  0  0  0  0  0  0  0  0
    0.0470    0.3465    1.5629 C   0  0  0  0  0  0  0  0  0  0  0  0
    1.1854    0.1365    1.9846 O   0  0  0  0  0  0  0  0  0  0  0  0
   -0.8551    1.0750    2.2320 N   0  0  0  0  0  0  0  0  0  0  0  0
   -1.7594    1.2031    1.8040 H   0  0  0  0  0  0  0  0  0  0  0  0
   -0.6356    1.6998    3.5400 C   0  0  0  0  0  0  0  0  0  0  0  0
   -0.4284    2.7647    3.4168 H   0  0  0  0  0  0  0  0  0  0  0  0
   -1.5268    1.5885    4.1601 H   0  0  0  0  0  0  0  0  0  0  0  0
    0.2072    1.2358    4.0566 H   0  0  0  0  0  0  0  0  0  0  0  0
  5  6  2  0  0  0  0
  5  7  1  0  0  0  0
  2  3  1  0  0  0  0
  2  4  1  0  0  0  0
  2  5  1  0  0  0  0
  1  2  1  0  0  0  0
 23 24  2  0  0  0  0
 23 25  1  0  0  0  0
 21 22  1  0  0  0  0
 19 20  1  0  0  0  0
 19 21  1  0  0  0  0
 17 18  1  0  0  0  0
 17 19  1  0  0  0  0
 15 16  1  0  0  0  0
 15 17  2  0  0  0  0
 14 15  1  0  0  0  0
 14 21  2  0  0  0  0
 11 12  1  0  0  0  0
 11 13  1  0  0  0  0
 11 14  1  0  0  0  0
  9 10  1  0  0  0  0
  9 11  1  0  0  0  0
  9 23  1  0  0  0  0
  7  8  1  0  0  0  0
  7  9  1  0  0  0  0
 27 28  1  0  0  0  0
 27 29  1  0  0  0  0
 27 30  1  0  0  0  0
 25 26  1  0  0  0  0
 25 27  1  0  0  0  0
M  CHG  1  15   1
M  END
$$$$
default_name
  -OEChem-02102213163D

 30 30  0     1  0  0  0  0  0999 V2000
   -3.5507   -3.2183    1.8116 H   0  0  0  0  0  0  0  0  0  0  0  0
   -3.4597   -2.3913    1.1076 C   0  0  0  0  0  0  0  0  0  0  0  0
   -4.1577   -1.6043    1.3866 H   0  0  0  0  0  0  0  0  0  0  0  0
   -3.6807   -2.7523    0.1036 H   0  0  0  0  0  0  0  0  0  0  0  0
   -2.0477   -1.8543    1.1546 C   0  0  0  0  0  0  0  0  0  0  0  0
   -1.2227   -2.3443    1.9146 O   0  0  0  0  0  0  0  0  0  0  0  0
   -1.7517   -0.8483    0.3266 N   0  0  0  0  0  0  0  0  0  0  0  0
   -2.4847   -0.5123   -0.2804 H   0  0  0  0  0  0  0  0  0  0  0  0
   -0.4117   -0.2463    0.2186 C   0  0  1  0  0  0  0  0  0  0  0  0
    0.2987   -1.0391   -0.0285 H   0  0  0  0  0  0  0  0  0  0  0  0
   -0.4131    0.7505   -0.9636 C   0  0  0  0  0  0  0  0  0  0  0  0
   -0.1306    1.7371   -0.5876 H   0  0  0  0  0  0  0  0  0  0  0  0
    0.3526    0.4499   -1.6821 H   0  0  0  0  0  0  0  0  0  0  0  0
   -1.7294    0.8714   -1.7019 C   0  0  0  0  0  0  0  0  0  0  0  0
   -2.2376   -0.0609   -2.5857 N   0  3  0  0  0  0  0  0  0  0  0  0
   -1.7906   -0.9626   -2.7748 H   0  0  0  0  0  0  0  0  0  0  0  0
   -3.4228    0.3888   -3.0437 C   0  0  0  0  0  0  0  0  0  0  0  0
   -4.0666   -0.1369   -3.7460 H   0  0  0  0  0  0  0  0  0  0  0  0
   -3.6772    1.5868   -2.4706 N   0  0  0  0  0  0  0  0  0  0  0  0
   -4.5020    2.1601   -2.6268 H   0  0  0  0  0  0  0  0  0  0  0  0
   -2.6234    1.9049   -1.6250 C   0  0  0  0  0  0  0  0  0  0  0  0
   -2.5191    2.7981   -1.0153 H   0  0  0  0  0  0  0  0  0  0  0  0
    0.0470    0.3465    1.5629 C   0  0  0  0  0  0  0  0  0  0  0  0
    1.1854    0.1365    1.9846 O   0  0  0  0  0  0  0  0  0  0  0  0
   -0.8551    1.0750    2.2320 N   0  0  0  0  0  0  0  0  0  0  0  0
   -1.7594    1.2031    1.8040 H   0  0  0  0  0  0  0  0  0  0  0  0
   -0.6356    1.6998    3.5400 C   0  0  0  0  0  0  0  0  0  0  0  0
   -0.4284    2.7647    3.4168 H   0  0  0  0  0  0  0  0  0  0  0  0
   -1.5268    1.5885    4.1601 H   0  0  0  0  0  0  0  0  0  0  0  0
    0.2072    1.2358    4.0566 H   0  0  0  0  0  0  0  0  0  0  0  0
  5  6  2  0  0  0  0
  5  7  1  0  0  0  0
  2  3  1  0  0  0  0
  2  4  1  0  0  0  0
  2  5  1  0  0  0  0
  1  2  1  0  0  0  0
 23 24  2  0  0  0  0
 23 25  1  0  0  0  0
 21 22  1  0  0  0  0
 19 20  1  0  0  0  0
 19 21  1  0  0  0  0
 17 18  1  0  0  0  0
 17 19  1  0  0  0  0
 15 16  1  0  0  0  0
 15 17  2  0  0  0  0
 14 15  1  0  0  0  0
 14 21  2  0  0  0  0
 11 12  1  0  0  0  0
 11 13  1  0  0  0  0
 11 14  1  0  0  0  0
  9 10  1  0  0  0  0
  9 11  1  0  0  0  0
  9 23  1  0  0  0  0
  7  8  1  0  0  0  0
  7  9  1  0  0  0  0
 27 28  1  0  0  0  0
 27 29  1  0  0  0  0
 27 30  1  0  0  0  0
 25 26  1  0  0  0  0
 25 27  1  0  0  0  0
M  CHG  1  15   1
M  END
$$$$
default_name
  -OEChem-02102213163D

 30 30  0     1  0  0  0  0  0999 V2000
   -3.5507   -3.2183    1.8116 H   0  0  0  0  0  0  0  0  0  0  0  0
   -3.4597   -2.3913    1.1076 C   0  0  0  0  0  0  0  0  0  0  0  0
   -4.1577   -1.6043    1.3866 H   0  0  0  0  0  0  0  0  0  0  0  0
   -3.6807   -2.7523    0.1036 H   0  0  0  0  0  0  0  0  0  0  0  0
   -2.0477   -1.8543    1.1546 C   0  0  0  0  0  0  0  0  0  0  0  0
   -1.2227   -2.3443    1.9146 O   0  0  0  0  0  0  0  0  0  0  0  0
   -1.7517   -0.8483    0.3266 N   0  0  0  0  0  0  0  0  0  0  0  0
   -2.4847   -0.5123   -0.2804 H   0  0  0  0  0  0  0  0  0  0  0  0
   -0.4117   -0.2463    0.2186 C   0  0  1  0  0  0  0  0  0  0  0  0
    0.2987   -1.0391   -0.0285 H   0  0  0  0  0  0  0  0  0  0  0  0
   -0.4131    0.7505   -0.9636 C   0  0  0  0  0  0  0  0  0  0  0  0
   -0.1306    1.7371   -0.5876 H   0  0  0  0  0  0  0  0  0  0  0  0
    0.3526    0.4499   -1.6821 H   0  0  0  0  0  0  0  0  0  0  0  0
   -1.7294    0.8714   -1.7019 C   0  0  0  0  0  0  0  0  0  0  0  0
   -2.3799   -0.1617   -2.3485 N   0  3  0  0  0  0  0  0  0  0  0  0
   -2.0549   -1.1326   -2.3314 H   0  0  0  0  0  0  0  0  0  0  0  0
   -3.5156    0.3227   -2.8891 C   0  0  0  0  0  0  0  0  0  0  0  0
   -4.2438   -0.2595   -3.4502 H   0  0  0  0  0  0  0  0  0  0  0  0
   -3.5994    1.6410   -2.6004 N   0  0  0  0  0  0  0  0  0  0  0  0
   -4.3518    2.2661   -2.8773 H   0  0  0  0  0  0  0  0  0  0  0  0
   -2.4853    2.0020   -1.8554 C   0  0  0  0  0  0  0  0  0  0  0  0
   -2.2498    2.9880   -1.4643 H   0  0  0  0  0  0  0  0  0  0  0  0
    0.0470    0.3465    1.5629 C   0  0  0  0  0  0  0  0  0  0  0  0
    1.1854    0.1365    1.9846 O   0  0  0  0  0  0  0  0  0  0  0  0
   -0.8551    1.0750    2.2320 N   0  0  0  0  0  0  0  0  0  0  0  0
   -1.7594    1.2031    1.8040 H   0  0  0  0  0  0  0  0  0  0  0  0
   -0.6356    1.6998    3.5400 C   0  0  0  0  0  0  0  0  0  0  0  0
   -0.4284    2.7647    3.4168 H   0  0  0  0  0  0  0  0  0  0  0  0
   -1.5268    1.5885    4.1601 H   0  0  0  0  0  0  0  0  0  0  0  0
    0.2072    1.2358    4.0566 H   0  0  0  0  0  0  0  0  0  0  0  0
  5  6  2  0  0  0  0
  5  7  1  0  0  0  0
  2  3  1  0  0  0  0
  2  4  1  0  0  0  0
  2  5  1  0  0  0  0
  1  2  1  0  0  0  0
 23 24  2  0  0  0  0
 23 25  1  0  0  0  0
 21 22  1  0  0  0  0
 19 20  1  0  0  0  0
 19 21  1  0  0  0  0
 17 18  1  0  0  0  0
 17 19  1  0  0  0  0
 15 16  1  0  0  0  0
 15 17  2  0  0  0  0
 14 15  1  0  0  0  0
 14 21  2  0  0  0  0
 11 12  1  0  0  0  0
 11 13  1  0  0  0  0
 11 14  1  0  0  0  0
  9 10  1  0  0  0  0
  9 11  1  0  0  0  0
  9 23  1  0  0  0  0
  7  8  1  0  0  0  0
  7  9  1  0  0  0  0
 27 28  1  0  0  0  0
 27 29  1  0  0  0  0
 27 30  1  0  0  0  0
 25 26  1  0  0  0  0
 25 27  1  0  0  0  0
M  CHG  1  15   1
M  END
$$$$
default_name
  -OEChem-02102213163D

 30 30  0     1  0  0  0  0  0999 V2000
   -3.5507   -3.2183    1.8116 H   0  0  0  0  0  0  0  0  0  0  0  0
   -3.4597   -2.3913    1.1076 C   0  0  0  0  0  0  0  0  0  0  0  0
   -4.1577   -1.6043    1.3866 H   0  0  0  0  0  0  0  0  0  0  0  0
   -3.6807   -2.7523    0.1036 H   0  0  0  0  0  0  0  0  0  0  0  0
   -2.0477   -1.8543    1.1546 C   0  0  0  0  0  0  0  0  0  0  0  0
   -1.2227   -2.3443    1.9146 O   0  0  0  0  0  0  0  0  0  0  0  0
   -1.7517   -0.8483    0.3266 N   0  0  0  0  0  0  0  0  0  0  0  0
   -2.4847   -0.5123   -0.2804 H   0  0  0  0  0  0  0  0  0  0  0  0
   -0.4117   -0.2463    0.2186 C   0  0  1  0  0  0  0  0  0  0  0  0
    0.2987   -1.0391   -0.0285 H   0  0  0  0  0  0  0  0  0  0  0  0
   -0.4131    0.7505   -0.9636 C   0  0  0  0  0  0  0  0  0  0  0  0
   -0.1306    1.7371   -0.5876 H   0  0  0  0  0  0  0  0  0  0  0  0
    0.3526    0.4499   -1.6821 H   0  0  0  0  0  0  0  0  0  0  0  0
   -1.7294    0.8714   -1.7019 C   0  0  0  0  0  0  0  0  0  0  0  0
   -2.5251   -0.1877   -2.0939 N   0  3  0  0  0  0  0  0  0  0  0  0
   -2.3225   -1.1638   -1.8595 H   0  0  0  0  0  0  0  0  0  0  0  0
   -3.6104    0.3054   -2.7230 C   0  0  0  0  0  0  0  0  0  0  0  0
   -4.4243   -0.2890   -3.1332 H   0  0  0  0  0  0  0  0  0  0  0  0
   -3.5200    1.6544   -2.7397 N   0  0  0  0  0  0  0  0  0  0  0  0
   -4.1985    2.2931   -3.1461 H   0  0  0  0  0  0  0  0  0  0  0  0
   -2.3444    2.0266   -2.1026 C   0  0  0  0  0  0  0  0  0  0  0  0
   -1.9750    3.0364   -1.9463 H   0  0  0  0  0  0  0  0  0  0  0  0
    0.0470    0.3465    1.5629 C   0  0  0  0  0  0  0  0  0  0  0  0
    1.1854    0.1365    1.9846 O   0  0  0  0  0  0  0  0  0  0  0  0
   -0.8551    1.0750    2.2320 N   0  0  0  0  0  0  0  0  0  0  0  0
   -1.7594    1.2031    1.8040 H   0  0  0  0  0  0  0  0  0  0  0  0
   -0.6356    1.6998    3.5400 C   0  0  0  0  0  0  0  0  0  0  0  0
   -0.4284    2.7647    3.4168 H   0  0  0  0  0  0  0  0  0  0  0  0
   -1.5268    1.5885    4.1601 H   0  0  0  0  0  0  0  0  0  0  0  0
    0.2072    1.2358    4.0566 H   0  0  0  0  0  0  0  0  0  0  0  0
  5  6  2  0  0  0  0
  5  7  1  0  0  0  0
  2  3  1  0  0  0  0
  2  4  1  0  0  0  0
  2  5  1  0  0  0  0
  1  2  1  0  0  0  0
 23 24  2  0  0  0  0
 23 25  1  0  0  0  0
 21 22  1  0  0  0  0
 19 20  1  0  0  0  0
 19 21  1  0  0  0  0
 17 18  1  0  0  0  0
 17 19  1  0  0  0  0
 15 16  1  0  0  0  0
 15 17  2  0  0  0  0
 14 15  1  0  0  0  0
 14 21  2  0  0  0  0
 11 12  1  0  0  0  0
 11 13  1  0  0  0  0
 11 14  1  0  0  0  0
  9 10  1  0  0  0  0
  9 11  1  0  0  0  0
  9 23  1  0  0  0  0
  7  8  1  0  0  0  0
  7  9  1  0  0  0  0
 27 28  1  0  0  0  0
 27 29  1  0  0  0  0
 27 30  1  0  0  0  0
 25 26  1  0  0  0  0
 25 27  1  0  0  0  0
M  CHG  1  15   1
M  END
$$$$
default_name
  -OEChem-02102213163D

 30 30  0     1  0  0  0  0  0999 V2000
   -3.5507   -3.2183    1.8116 H   0  0  0  0  0  0  0  0  0  0  0  0
   -3.4597   -2.3913    1.1076 C   0  0  0  0  0  0  0  0  0  0  0  0
   -4.1577   -1.6043    1.3866 H   0  0  0  0  0  0  0  0  0  0  0  0
   -3.6807   -2.7523    0.1036 H   0  0  0  0  0  0  0  0  0  0  0  0
   -2.0477   -1.8543    1.1546 C   0  0  0  0  0  0  0  0  0  0  0  0
   -1.2227   -2.3443    1.9146 O   0  0  0  0  0  0  0  0  0  0  0  0
   -1.7517   -0.8483    0.3266 N   0  0  0  0  0  0  0  0  0  0  0  0
   -2.4847   -0.5123   -0.2804 H   0  0  0  0  0  0  0  0  0  0  0  0
   -0.4117   -0.2463    0.2186 C   0  0  1  0  0  0  0  0  0  0  0  0
    0.2987   -1.0391   -0.0285 H   0  0  0  0  0  0  0  0  0  0  0  0
   -0.4131    0.7505   -0.9636 C   0  0  0  0  0  0  0  0  0  0  0  0
   -0.1306    1.7371   -0.5876 H   0  0  0  0  0  0  0  0  0  0  0  0
    0.3526    0.4499   -1.6821 H   0  0  0  0  0  0  0  0  0  0  0  0
   -1.7294    0.8714   -1.7019 C   0  0  0  0  0  0  0  0  0  0  0  0
   -2.6634   -0.1372   -1.8391 N   0  3  0  0  0  0  0  0  0  0  0  0
   -2.5751   -1.0538   -1.3911 H   0  0  0  0  0  0  0  0  0  0  0  0
   -3.7007    0.3380   -2.5566 C   0  0  0  0  0  0  0  0  0  0  0  0
   -4.5958   -0.2234   -2.8166 H   0  0  0  0  0  0  0  0  0  0  0  0
   -3.4446    1.6260   -2.8788 N   0  0  0  0  0  0  0  0  0  0  0  0
   -4.0526    2.2394   -3.4151 H   0  0  0  0  0  0  0  0  0  0  0  0
   -2.2102    1.9770   -2.3499 C   0  0  0  0  0  0  0  0  0  0  0  0
   -1.7135    2.9400   -2.4285 H   0  0  0  0  0  0  0  0  0  0  0  0
    0.0470    0.3465    1.5629 C   0  0  0  0  0  0  0  0  0  0  0  0
    1.1854    0.1365    1.9846 O   0  0  0  0  0  0  0  0  0  0  0  0
   -0.8551    1.0750    2.2320 N   0  0  0  0  0  0  0  0  0  0  0  0
   -1.7594    1.2031    1.8040 H   0  0  0  0  0  0  0  0  0  0  0  0
   -0.6356    1.6998    3.5400 C   0  0  0  0  0  0  0  0  0  0  0  0
   -0.4284    2.7647    3.4168 H   0  0  0  0  0  0  0  0  0  0  0  0
   -1.5268    1.5885    4.1601 H   0  0  0  0  0  0  0  0  0  0  0  0
    0.2072    1.2358    4.0566 H   0  0  0  0  0  0  0  0  0  0  0  0
  5  6  2  0  0  0  0
  5  7  1  0  0  0  0
  2  3  1  0  0  0  0
  2  4  1  0  0  0  0
  2  5  1  0  0  0  0
  1  2  1  0  0  0  0
 23 24  2  0  0  0  0
 23 25  1  0  0  0  0
 21 22  1  0  0  0  0
 19 20  1  0  0  0  0
 19 21  1  0  0  0  0
 17 18  1  0  0  0  0
 17 19  1  0  0  0  0
 15 16  1  0  0  0  0
 15 17  2  0  0  0  0
 14 15  1  0  0  0  0
 14 21  2  0  0  0  0
 11 12  1  0  0  0  0
 11 13  1  0  0  0  0
 11 14  1  0  0  0  0
  9 10  1  0  0  0  0
  9 11  1  0  0  0  0
  9 23  1  0  0  0  0
  7  8  1  0  0  0  0
  7  9  1  0  0  0  0
 27 28  1  0  0  0  0
 27 29  1  0  0  0  0
 27 30  1  0  0  0  0
 25 26  1  0  0  0  0
 25 27  1  0  0  0  0
M  CHG  1  15   1
M  END
$$$$
default_name
  -OEChem-02102213163D

 30 30  0     1  0  0  0  0  0999 V2000
   -3.5507   -3.2183    1.8116 H   0  0  0  0  0  0  0  0  0  0  0  0
   -3.4597   -2.3913    1.1076 C   0  0  0  0  0  0  0  0  0  0  0  0
   -4.1577   -1.6043    1.3866 H   0  0  0  0  0  0  0  0  0  0  0  0
   -3.6807   -2.7523    0.1036 H   0  0  0  0  0  0  0  0  0  0  0  0
   -2.0477   -1.8543    1.1546 C   0  0  0  0  0  0  0  0  0  0  0  0
   -1.2227   -2.3443    1.9146 O   0  0  0  0  0  0  0  0  0  0  0  0
   -1.7517   -0.8483    0.3266 N   0  0  0  0  0  0  0  0  0  0  0  0
   -2.4847   -0.5123   -0.2804 H   0  0  0  0  0  0  0  0  0  0  0  0
   -0.4117   -0.2463    0.2186 C   0  0  1  0  0  0  0  0  0  0  0  0
    0.2987   -1.0391   -0.0285 H   0  0  0  0  0  0  0  0  0  0  0  0
   -0.4131    0.7505   -0.9636 C   0  0  0  0  0  0  0  0  0  0  0  0
   -0.1306    1.7371   -0.5876 H   0  0  0  0  0  0  0  0  0  0  0  0
    0.3526    0.4499   -1.6821 H   0  0  0  0  0  0  0  0  0  0  0  0
   -1.7294    0.8714   -1.7019 C   0  0  0  0  0  0  0  0  0  0  0  0
   -2.7853   -0.0136   -1.6014 N   0  3  0  0  0  0  0  0  0  0  0  0
   -2.7956   -0.8104   -0.9581 H   0  0  0  0  0  0  0  0  0  0  0  0
   -3.7803    0.4183   -2.4014 C   0  0  0  0  0  0  0  0  0  0  0  0
   -4.7467   -0.0671   -2.5220 H   0  0  0  0  0  0  0  0  0  0  0  0
   -3.3782    1.5577   -3.0084 N   0  0  0  0  0  0  0  0  0  0  0  0
   -3.9240    2.1086   -3.6658 H   0  0  0  0  0  0  0  0  0  0  0  0
   -2.0921    1.8564   -2.5803 C   0  0  0  0  0  0  0  0  0  0  0  0
   -1.4829    2.7054   -2.8779 H   0  0  0  0  0  0  0  0  0  0  0  0
    0.0470    0.3465    1.5629 C   0  0  0  0  0  0  0  0  0  0  0  0
    1.1854    0.1365    1.9846 O   0  0  0  0  0  0  0  0  0  0  0  0
   -0.8551    1.0750    2.2320 N   0  0  0  0  0  0  0  0  0  0  0  0
   -1.7594    1.2031    1.8040 H   0  0  0  0  0  0  0  0  0  0  0  0
   -0.6356    1.6998    3.5400 C   0  0  0  0  0  0  0  0  0  0  0  0
   -0.4284    2.7647    3.4168 H   0  0  0  0  0  0  0  0  0  0  0  0
   -1.5268    1.5885    4.1601 H   0  0  0  0  0  0  0  0  0  0  0  0
    0.2072    1.2358    4.0566 H   0  0  0  0  0  0  0  0  0  0  0  0
  5  6  2  0  0  0  0
  5  7  1  0  0  0  0
  2  3  1  0  0  0  0
  2  4  1  0  0  0  0
  2  5  1  0  0  0  0
  1  2  1  0  0  0  0
 23 24  2  0  0  0  0
 23 25  1  0  0  0  0
 21 22  1  0  0  0  0
 19 20  1  0  0  0  0
 19 21  1  0  0  0  0
 17 18  1  0  0  0  0
 17 19  1  0  0  0  0
 15 16  1  0  0  0  0
 15 17  2  0  0  0  0
 14 15  1  0  0  0  0
 14 21  2  0  0  0  0
 11 12  1  0  0  0  0
 11 13  1  0  0  0  0
 11 14  1  0  0  0  0
  9 10  1  0  0  0  0
  9 11  1  0  0  0  0
  9 23  1  0  0  0  0
  7  8  1  0  0  0  0
  7  9  1  0  0  0  0
 27 28  1  0  0  0  0
 27 29  1  0  0  0  0
 27 30  1  0  0  0  0
 25 26  1  0  0  0  0
 25 27  1  0  0  0  0
M  CHG  1  15   1
M  END
$$$$
default_name
  -OEChem-02102213163D

 30 30  0     1  0  0  0  0  0999 V2000
   -3.5507   -3.2183    1.8116 H   0  0  0  0  0  0  0  0  0  0  0  0
   -3.4597   -2.3913    1.1076 C   0  0  0  0  0  0  0  0  0  0  0  0
   -4.1577   -1.6043    1.3866 H   0  0  0  0  0  0  0  0  0  0  0  0
   -3.6807   -2.7523    0.1036 H   0  0  0  0  0  0  0  0  0  0  0  0
   -2.0477   -1.8543    1.1546 C   0  0  0  0  0  0  0  0  0  0  0  0
   -1.2227   -2.3443    1.9146 O   0  0  0  0  0  0  0  0  0  0  0  0
   -1.7517   -0.8483    0.3266 N   0  0  0  0  0  0  0  0  0  0  0  0
   -2.4847   -0.5123   -0.2804 H   0  0  0  0  0  0  0  0  0  0  0  0
   -0.4117   -0.2463    0.2186 C   0  0  1  0  0  0  0  0  0  0  0  0
    0.2987   -1.0391   -0.0285 H   0  0  0  0  0  0  0  0  0  0  0  0
   -0.4131    0.7505   -0.9636 C   0  0  0  0  0  0  0  0  0  0  0  0
   -0.1306    1.7371   -0.5876 H   0  0  0  0  0  0  0  0  0  0  0  0
    0.3526    0.4499   -1.6821 H   0  0  0  0  0  0  0  0  0  0  0  0
   -1.7294    0.8714   -1.7019 C   0  0  0  0  0  0  0  0  0  0  0  0
   -2.8826    0.1746   -1.3971 N   0  3  0  0  0  0  0  0  0  0  0  0
   -2.9688   -0.4500   -0.5902 H   0  0  0  0  0  0  0  0  0  0  0  0
   -3.8439    0.5408   -2.2680 C   0  0  0  0  0  0  0  0  0  0  0  0
   -4.8666    0.1691   -2.2695 H   0  0  0  0  0  0  0  0  0  0  0  0
   -3.3253    1.4542   -3.1196 N   0  0  0  0  0  0  0  0  0  0  0  0
   -3.8215    1.9095   -3.8811 H   0  0  0  0  0  0  0  0  0  0  0  0
   -1.9979    1.6732   -2.7782 C   0  0  0  0  0  0  0  0  0  0  0  0
   -1.2991    2.3486   -3.2641 H   0  0  0  0  0  0  0  0  0  0  0  0
    0.0470    0.3465    1.5629 C   0  0  0  0  0  0  0  0  0  0  0  0
    1.1854    0.1365    1.9846 O   0  0  0  0  0  0  0  0  0  0  0  0
   -0.8551    1.0750    2.2320 N   0  0  0  0  0  0  0  0  0  0  0  0
   -1.7594    1.2031    1.8040 H   0  0  0  0  0  0  0  0  0  0  0  0
   -0.6356    1.6998    3.5400 C   0  0  0  0  0  0  0  0  0  0  0  0
   -0.4284    2.7647    3.4168 H   0  0  0  0  0  0  0  0  0  0  0  0
   -1.5268    1.5885    4.1601 H   0  0  0  0  0  0  0  0  0  0  0  0
    0.2072    1.2358    4.0566 H   0  0  0  0  0  0  0  0  0  0  0  0
  5  6  2  0  0  0  0
  5  7  1  0  0  0  0
  2  3  1  0  0  0  0
  2  4  1  0  0  0  0
  2  5  1  0  0  0  0
  1  2  1  0  0  0  0
 23 24  2  0  0  0  0
 23 25  1  0  0  0  0
 21 22  1  0  0  0  0
 19 20  1  0  0  0  0
 19 21  1  0  0  0  0
 17 18  1  0  0  0  0
 17 19  1  0  0  0  0
 15 16  1  0  0  0  0
 15 17  2  0  0  0  0
 14 15  1  0  0  0  0
 14 21  2  0  0  0  0
 11 12  1  0  0  0  0
 11 13  1  0  0  0  0
 11 14  1  0  0  0  0
  9 10  1  0  0  0  0
  9 11  1  0  0  0  0
  9 23  1  0  0  0  0
  7  8  1  0  0  0  0
  7  9  1  0  0  0  0
 27 28  1  0  0  0  0
 27 29  1  0  0  0  0
 27 30  1  0  0  0  0
 25 26  1  0  0  0  0
 25 27  1  0  0  0  0
M  CHG  1  15   1
M  END
$$$$
default_name
  -OEChem-02102213163D

 30 30  0     1  0  0  0  0  0999 V2000
   -3.5507   -3.2183    1.8116 H   0  0  0  0  0  0  0  0  0  0  0  0
   -3.4597   -2.3913    1.1076 C   0  0  0  0  0  0  0  0  0  0  0  0
   -4.1577   -1.6043    1.3866 H   0  0  0  0  0  0  0  0  0  0  0  0
   -3.6807   -2.7523    0.1036 H   0  0  0  0  0  0  0  0  0  0  0  0
   -2.0477   -1.8543    1.1546 C   0  0  0  0  0  0  0  0  0  0  0  0
   -1.2227   -2.3443    1.9146 O   0  0  0  0  0  0  0  0  0  0  0  0
   -1.7517   -0.8483    0.3266 N   0  0  0  0  0  0  0  0  0  0  0  0
   -2.4847   -0.5123   -0.2804 H   0  0  0  0  0  0  0  0  0  0  0  0
   -0.4117   -0.2463    0.2186 C   0  0  1  0  0  0  0  0  0  0  0  0
    0.2987   -1.0391   -0.0285 H   0  0  0  0  0  0  0  0  0  0  0  0
   -0.4131    0.7505   -0.9636 C   0  0  0  0  0  0  0  0  0  0  0  0
   -0.1306    1.7371   -0.5876 H   0  0  0  0  0  0  0  0  0  0  0  0
    0.3526    0.4499   -1.6821 H   0  0  0  0  0  0  0  0  0  0  0  0
   -1.7294    0.8714   -1.7019 C   0  0  0  0  0  0  0  0  0  0  0  0
   -2.9486    0.4146   -1.2402 N   0  3  0  0  0  0  0  0  0  0  0  0
   -3.0831    0.0028   -0.3122 H   0  0  0  0  0  0  0  0  0  0  0  0
   -3.8872    0.6973   -2.1653 C   0  0  0  0  0  0  0  0  0  0  0  0
   -4.9474    0.4693   -2.0763 H   0  0  0  0  0  0  0  0  0  0  0  0
   -3.2897    1.3226   -3.2047 N   0  0  0  0  0  0  0  0  0  0  0  0
   -3.7520    1.6559   -4.0465 H   0  0  0  0  0  0  0  0  0  0  0  0
   -1.9342    1.4398   -2.9300 C   0  0  0  0  0  0  0  0  0  0  0  0
   -1.1746    1.8938   -3.5605 H   0  0  0  0  0  0  0  0  0  0  0  0
    0.0470    0.3465    1.5629 C   0  0  0  0  0  0  0  0  0  0  0  0
    1.1854    0.1365    1.9846 O   0  0  0  0  0  0  0  0  0  0  0  0
   -0.8551    1.0750    2.2320 N   0  0  0  0  0  0  0  0  0  0  0  0
   -1.7594    1.2031    1.8040 H   0  0  0  0  0  0  0  0  0  0  0  0
   -0.6356    1.6998    3.5400 C   0  0  0  0  0  0  0  0  0  0  0  0
   -0.4284    2.7647    3.4168 H   0  0  0  0  0  0  0  0  0  0  0  0
   -1.5268    1.5885    4.1601 H   0  0  0  0  0  0  0  0  0  0  0  0
    0.2072    1.2358    4.0566 H   0  0  0  0  0  0  0  0  0  0  0  0
  5  6  2  0  0  0  0
  5  7  1  0  0  0  0
  2  3  1  0  0  0  0
  2  4  1  0  0  0  0
  2  5  1  0  0  0  0
  1  2  1  0  0  0  0
 23 24  2  0  0  0  0
 23 25  1  0  0  0  0
 21 22  1  0  0  0  0
 19 20  1  0  0  0  0
 19 21  1  0  0  0  0
 17 18  1  0  0  0  0
 17 19  1  0  0  0  0
 15 16  1  0  0  0  0
 15 17  2  0  0  0  0
 14 15  1  0  0  0  0
 14 21  2  0  0  0  0
 11 12  1  0  0  0  0
 11 13  1  0  0  0  0
 11 14  1  0  0  0  0
  9 10  1  0  0  0  0
  9 11  1  0  0  0  0
  9 23  1  0  0  0  0
  7  8  1  0  0  0  0
  7  9  1  0  0  0  0
 27 28  1  0  0  0  0
 27 29  1  0  0  0  0
 27 30  1  0  0  0  0
 25 26  1  0  0  0  0
 25 27  1  0  0  0  0
M  CHG  1  15   1
M  END
$$$$
default_name
  -OEChem-02102213163D

 30 30  0     1  0  0  0  0  0999 V2000
   -3.5507   -3.2183    1.8116 H   0  0  0  0  0  0  0  0  0  0  0  0
   -3.4597   -2.3913    1.1076 C   0  0  0  0  0  0  0  0  0  0  0  0
   -4.1577   -1.6043    1.3866 H   0  0  0  0  0  0  0  0  0  0  0  0
   -3.6807   -2.7523    0.1036 H   0  0  0  0  0  0  0  0  0  0  0  0
   -2.0477   -1.8543    1.1546 C   0  0  0  0  0  0  0  0  0  0  0  0
   -1.2227   -2.3443    1.9146 O   0  0  0  0  0  0  0  0  0  0  0  0
   -1.7517   -0.8483    0.3266 N   0  0  0  0  0  0  0  0  0  0  0  0
   -2.4847   -0.5123   -0.2804 H   0  0  0  0  0  0  0  0  0  0  0  0
   -0.4117   -0.2463    0.2186 C   0  0  1  0  0  0  0  0  0  0  0  0
    0.2987   -1.0391   -0.0285 H   0  0  0  0  0  0  0  0  0  0  0  0
   -0.4131    0.7505   -0.9636 C   0  0  0  0  0  0  0  0  0  0  0  0
   -0.1306    1.7371   -0.5876 H   0  0  0  0  0  0  0  0  0  0  0  0
    0.3526    0.4499   -1.6821 H   0  0  0  0  0  0  0  0  0  0  0  0
   -1.7294    0.8714   -1.7019 C   0  0  0  0  0  0  0  0  0  0  0  0
   -2.9788    0.6901   -1.1412 N   0  3  0  0  0  0  0  0  0  0  0  0
   -3.1306    0.5171   -0.1433 H   0  0  0  0  0  0  0  0  0  0  0  0
   -3.9070    0.8769   -2.1004 C   0  0  0  0  0  0  0  0  0  0  0  0
   -4.9836    0.8129   -1.9556 H   0  0  0  0  0  0  0  0  0  0  0  0
   -3.2736    1.1717   -3.2581 N   0  0  0  0  0  0  0  0  0  0  0  0
   -3.7204    1.3649   -4.1506 H   0  0  0  0  0  0  0  0  0  0  0  0
   -1.9052    1.1722   -3.0255 C   0  0  0  0  0  0  0  0  0  0  0  0
   -1.1179    1.3721   -3.7471 H   0  0  0  0  0  0  0  0  0  0  0  0
    0.0470    0.3465    1.5629 C   0  0  0  0  0  0  0  0  0  0  0  0
    1.1854    0.1365    1.9846 O   0  0  0  0  0  0  0  0  0  0  0  0
   -0.8551    1.0750    2.2320 N   0  0  0  0  0  0  0  0  0  0  0  0
   -1.7594    1.2031    1.8040 H   0  0  0  0  0  0  0  0  0  0  0  0
   -0.6356    1.6998    3.5400 C   0  0  0  0  0  0  0  0  0  0  0  0
   -0.4284    2.7647    3.4168 H   0  0  0  0  0  0  0  0  0  0  0  0
   -1.5268    1.5885    4.1601 H   0  0  0  0  0  0  0  0  0  0  0  0
    0.2072    1.2358    4.0566 H   0  0  0  0  0  0  0  0  0  0  0  0
  5  6  2  0  0  0  0
  5  7  1  0  0  0  0
  2  3  1  0  0  0  0
  2  4  1  0  0  0  0
  2  5  1  0  0  0  0
  1  2  1  0  0  0  0
 23 24  2  0  0  0  0
 23 25  1  0  0  0  0
 21 22  1  0  0  0  0
 19 20  1  0  0  0  0
 19 21  1  0  0  0  0
 17 18  1  0  0  0  0
 17 19  1  0  0  0  0
 15 16  1  0  0  0  0
 15 17  2  0  0  0  0
 14 15  1  0  0  0  0
 14 21  2  0  0  0  0
 11 12  1  0  0  0  0
 11 13  1  0  0  0  0
 11 14  1  0  0  0  0
  9 10  1  0  0  0  0
  9 11  1  0  0  0  0
  9 23  1  0  0  0  0
  7  8  1  0  0  0  0
  7  9  1  0  0  0  0
 27 28  1  0  0  0  0
 27 29  1  0  0  0  0
 27 30  1  0  0  0  0
 25 26  1  0  0  0  0
 25 27  1  0  0  0  0
M  CHG  1  15   1
M  END
$$$$
default_name
  -OEChem-02102213163D

 30 30  0     1  0  0  0  0  0999 V2000
   -3.5507   -3.2183    1.8116 H   0  0  0  0  0  0  0  0  0  0  0  0
   -3.4597   -2.3913    1.1076 C   0  0  0  0  0  0  0  0  0  0  0  0
   -4.1577   -1.6043    1.3866 H   0  0  0  0  0  0  0  0  0  0  0  0
   -3.6807   -2.7523    0.1036 H   0  0  0  0  0  0  0  0  0  0  0  0
   -2.0477   -1.8543    1.1546 C   0  0  0  0  0  0  0  0  0  0  0  0
   -1.2227   -2.3443    1.9146 O   0  0  0  0  0  0  0  0  0  0  0  0
   -1.7517   -0.8483    0.3266 N   0  0  0  0  0  0  0  0  0  0  0  0
   -2.4847   -0.5123   -0.2804 H   0  0  0  0  0  0  0  0  0  0  0  0
   -0.4117   -0.2463    0.2186 C   0  0  1  0  0  0  0  0  0  0  0  0
    0.2987   -1.0391   -0.0285 H   0  0  0  0  0  0  0  0  0  0  0  0
   -0.4131    0.7505   -0.9636 C   0  0  0  0  0  0  0  0  0  0  0  0
   -0.1306    1.7371   -0.5876 H   0  0  0  0  0  0  0  0  0  0  0  0
    0.3526    0.4499   -1.6821 H   0  0  0  0  0  0  0  0  0  0  0  0
   -1.7294    0.8714   -1.7019 C   0  0  0  0  0  0  0  0  0  0  0  0
   -2.9712    0.9823   -1.1070 N   0  3  0  0  0  0  0  0  0  0  0  0
   -3.1081    1.0579   -0.0949 H   0  0  0  0  0  0  0  0  0  0  0  0
   -3.9022    1.0676   -2.0778 C   0  0  0  0  0  0  0  0  0  0  0  0
   -4.9727    1.1765   -1.9155 H   0  0  0  0  0  0  0  0  0  0  0  0
   -3.2782    1.0120   -3.2761 N   0  0  0  0  0  0  0  0  0  0  0  0
   -3.7286    1.0565   -4.1864 H   0  0  0  0  0  0  0  0  0  0  0  0
   -1.9129    0.8885   -3.0582 C   0  0  0  0  0  0  0  0  0  0  0  0
   -1.1328    0.8190   -3.8111 H   0  0  0  0  0  0  0  0  0  0  0  0
    0.0470    0.3465    1.5629 C   0  0  0  0  0  0  0  0  0  0  0  0
    1.1854    0.1365    1.9846 O   0  0  0  0  0  0  0  0  0  0  0  0
   -0.8551    1.0750    2.2320 N   0  0  0  0  0  0  0  0  0  0  0  0
   -1.7594    1.2031    1.8040 H   0  0  0  0  0  0  0  0  0  0  0  0
   -0.6356    1.6998    3.5400 C   0  0  0  0  0  0  0  0  0  0  0  0
   -0.4284    2.7647    3.4168 H   0  0  0  0  0  0  0  0  0  0  0  0
   -1.5268    1.5885    4.1601 H   0  0  0  0  0  0  0  0  0  0  0  0
    0.2072    1.2358    4.0566 H   0  0  0  0  0  0  0  0  0  0  0  0
  5  6  2  0  0  0  0
  5  7  1  0  0  0  0
  2  3  1  0  0  0  0
  2  4  1  0  0  0  0
  2  5  1  0  0  0  0
  1  2  1  0  0  0  0
 23 24  2  0  0  0  0
 23 25  1  0  0  0  0
 21 22  1  0  0  0  0
 19 20  1  0  0  0  0
 19 21  1  0  0  0  0
 17 18  1  0  0  0  0
 17 19  1  0  0  0  0
 15 16  1  0  0  0  0
 15 17  2  0  0  0  0
 14 15  1  0  0  0  0
 14 21  2  0  0  0  0
 11 12  1  0  0  0  0
 11 13  1  0  0  0  0
 11 14  1  0  0  0  0
  9 10  1  0  0  0  0
  9 11  1  0  0  0  0
  9 23  1  0  0  0  0
  7  8  1  0  0  0  0
  7  9  1  0  0  0  0
 27 28  1  0  0  0  0
 27 29  1  0  0  0  0
 27 30  1  0  0  0  0
 25 26  1  0  0  0  0
 25 27  1  0  0  0  0
M  CHG  1  15   1
M  END
$$$$
default_name
  -OEChem-02102213163D

 30 30  0     1  0  0  0  0  0999 V2000
   -3.5507   -3.2183    1.8116 H   0  0  0  0  0  0  0  0  0  0  0  0
   -3.4597   -2.3913    1.1076 C   0  0  0  0  0  0  0  0  0  0  0  0
   -4.1577   -1.6043    1.3866 H   0  0  0  0  0  0  0  0  0  0  0  0
   -3.6807   -2.7523    0.1036 H   0  0  0  0  0  0  0  0  0  0  0  0
   -2.0477   -1.8543    1.1546 C   0  0  0  0  0  0  0  0  0  0  0  0
   -1.2227   -2.3443    1.9146 O   0  0  0  0  0  0  0  0  0  0  0  0
   -1.7517   -0.8483    0.3266 N   0  0  0  0  0  0  0  0  0  0  0  0
   -2.4847   -0.5123   -0.2804 H   0  0  0  0  0  0  0  0  0  0  0  0
   -0.4117   -0.2463    0.2186 C   0  0  1  0  0  0  0  0  0  0  0  0
    0.2987   -1.0391   -0.0285 H   0  0  0  0  0  0  0  0  0  0  0  0
   -0.4131    0.7505   -0.9636 C   0  0  0  0  0  0  0  0  0  0  0  0
   -0.1306    1.7371   -0.5876 H   0  0  0  0  0  0  0  0  0  0  0  0
    0.3526    0.4499   -1.6821 H   0  0  0  0  0  0  0  0  0  0  0  0
   -1.7294    0.8714   -1.7019 C   0  0  0  0  0  0  0  0  0  0  0  0
   -2.9262    1.2713   -1.1398 N   0  3  0  0  0  0  0  0  0  0  0  0
   -3.0171    1.5883   -0.1703 H   0  0  0  0  0  0  0  0  0  0  0  0
   -3.8730    1.2562   -2.0990 C   0  0  0  0  0  0  0  0  0  0  0  0
   -4.9154    1.5354   -1.9589 H   0  0  0  0  0  0  0  0  0  0  0  0
   -3.3031    0.8542   -3.2574 N   0  0  0  0  0  0  0  0  0  0  0  0
   -3.7763    0.7515   -4.1513 H   0  0  0  0  0  0  0  0  0  0  0  0
   -1.9569    0.6082   -3.0257 C   0  0  0  0  0  0  0  0  0  0  0  0
   -1.2183    0.2723   -3.7482 H   0  0  0  0  0  0  0  0  0  0  0  0
    0.0470    0.3465    1.5629 C   0  0  0  0  0  0  0  0  0  0  0  0
    1.1854    0.1365    1.9846 O   0  0  0  0  0  0  0  0  0  0  0  0
   -0.8551    1.0750    2.2320 N   0  0  0  0  0  0  0  0  0  0  0  0
   -1.7594    1.2031    1.8040 H   0  0  0  0  0  0  0  0  0  0  0  0
   -0.6356    1.6998    3.5400 C   0  0  0  0  0  0  0  0  0  0  0  0
   -0.4284    2.7647    3.4168 H   0  0  0  0  0  0  0  0  0  0  0  0
   -1.5268    1.5885    4.1601 H   0  0  0  0  0  0  0  0  0  0  0  0
    0.2072    1.2358    4.0566 H   0  0  0  0  0  0  0  0  0  0  0  0
  5  6  2  0  0  0  0
  5  7  1  0  0  0  0
  2  3  1  0  0  0  0
  2  4  1  0  0  0  0
  2  5  1  0  0  0  0
  1  2  1  0  0  0  0
 23 24  2  0  0  0  0
 23 25  1  0  0  0  0
 21 22  1  0  0  0  0
 19 20  1  0  0  0  0
 19 21  1  0  0  0  0
 17 18  1  0  0  0  0
 17 19  1  0  0  0  0
 15 16  1  0  0  0  0
 15 17  2  0  0  0  0
 14 15  1  0  0  0  0
 14 21  2  0  0  0  0
 11 12  1  0  0  0  0
 11 13  1  0  0  0  0
 11 14  1  0  0  0  0
  9 10  1  0  0  0  0
  9 11  1  0  0  0  0
  9 23  1  0  0  0  0
  7  8  1  0  0  0  0
  7  9  1  0  0  0  0
 27 28  1  0  0  0  0
 27 29  1  0  0  0  0
 27 30  1  0  0  0  0
 25 26  1  0  0  0  0
 25 27  1  0  0  0  0
M  CHG  1  15   1
M  END
$$$$
default_name
  -OEChem-02102213163D

 30 30  0     1  0  0  0  0  0999 V2000
   -3.5507   -3.2183    1.8116 H   0  0  0  0  0  0  0  0  0  0  0  0
   -3.4597   -2.3913    1.1076 C   0  0  0  0  0  0  0  0  0  0  0  0
   -4.1577   -1.6043    1.3866 H   0  0  0  0  0  0  0  0  0  0  0  0
   -3.6807   -2.7523    0.1036 H   0  0  0  0  0  0  0  0  0  0  0  0
   -2.0477   -1.8543    1.1546 C   0  0  0  0  0  0  0  0  0  0  0  0
   -1.2227   -2.3443    1.9146 O   0  0  0  0  0  0  0  0  0  0  0  0
   -1.7517   -0.8483    0.3266 N   0  0  0  0  0  0  0  0  0  0  0  0
   -2.4847   -0.5123   -0.2804 H   0  0  0  0  0  0  0  0  0  0  0  0
   -0.4117   -0.2463    0.2186 C   0  0  1  0  0  0  0  0  0  0  0  0
    0.2987   -1.0391   -0.0285 H   0  0  0  0  0  0  0  0  0  0  0  0
   -0.4131    0.7505   -0.9636 C   0  0  0  0  0  0  0  0  0  0  0  0
   -0.1306    1.7371   -0.5876 H   0  0  0  0  0  0  0  0  0  0  0  0
    0.3526    0.4499   -1.6821 H   0  0  0  0  0  0  0  0  0  0  0  0
   -1.7294    0.8714   -1.7019 C   0  0  0  0  0  0  0  0  0  0  0  0
   -2.8470    1.5374   -1.2375 N   0  3  0  0  0  0  0  0  0  0  0  0
   -2.8639    2.0722   -0.3644 H   0  0  0  0  0  0  0  0  0  0  0  0
   -3.8215    1.4300   -2.1624 C   0  0  0  0  0  0  0  0  0  0  0  0
   -4.8157    1.8650   -2.0827 H   0  0  0  0  0  0  0  0  0  0  0  0
   -3.3468    0.7092   -3.2034 N   0  0  0  0  0  0  0  0  0  0  0  0
   -3.8601    0.4708   -4.0478 H   0  0  0  0  0  0  0  0  0  0  0  0
   -2.0341    0.3502   -2.9303 C   0  0  0  0  0  0  0  0  0  0  0  0
   -1.3685   -0.2309   -3.5627 H   0  0  0  0  0  0  0  0  0  0  0  0
    0.0470    0.3465    1.5629 C   0  0  0  0  0  0  0  0  0  0  0  0
    1.1854    0.1365    1.9846 O   0  0  0  0  0  0  0  0  0  0  0  0
   -0.8551    1.0750    2.2320 N   0  0  0  0  0  0  0  0  0  0  0  0
   -1.7594    1.2031    1.8040 H   0  0  0  0  0  0  0  0  0  0  0  0
   -0.6356    1.6998    3.5400 C   0  0  0  0  0  0  0  0  0  0  0  0
   -0.4284    2.7647    3.4168 H   0  0  0  0  0  0  0  0  0  0  0  0
   -1.5268    1.5885    4.1601 H   0  0  0  0  0  0  0  0  0  0  0  0
    0.2072    1.2358    4.0566 H   0  0  0  0  0  0  0  0  0  0  0  0
  5  6  2  0  0  0  0
  5  7  1  0  0  0  0
  2  3  1  0  0  0  0
  2  4  1  0  0  0  0
  2  5  1  0  0  0  0
  1  2  1  0  0  0  0
 23 24  2  0  0  0  0
 23 25  1  0  0  0  0
 21 22  1  0  0  0  0
 19 20  1  0  0  0  0
 19 21  1  0  0  0  0
 17 18  1  0  0  0  0
 17 19  1  0  0  0  0
 15 16  1  0  0  0  0
 15 17  2  0  0  0  0
 14 15  1  0  0  0  0
 14 21  2  0  0  0  0
 11 12  1  0  0  0  0
 11 13  1  0  0  0  0
 11 14  1  0  0  0  0
  9 10  1  0  0  0  0
  9 11  1  0  0  0  0
  9 23  1  0  0  0  0
  7  8  1  0  0  0  0
  7  9  1  0  0  0  0
 27 28  1  0  0  0  0
 27 29  1  0  0  0  0
 27 30  1  0  0  0  0
 25 26  1  0  0  0  0
 25 27  1  0  0  0  0
M  CHG  1  15   1
M  END
$$$$
default_name
  -OEChem-02102213163D

 30 30  0     1  0  0  0  0  0999 V2000
   -3.5507   -3.2183    1.8116 H   0  0  0  0  0  0  0  0  0  0  0  0
   -3.4597   -2.3913    1.1076 C   0  0  0  0  0  0  0  0  0  0  0  0
   -4.1577   -1.6043    1.3866 H   0  0  0  0  0  0  0  0  0  0  0  0
   -3.6807   -2.7523    0.1036 H   0  0  0  0  0  0  0  0  0  0  0  0
   -2.0477   -1.8543    1.1546 C   0  0  0  0  0  0  0  0  0  0  0  0
   -1.2227   -2.3443    1.9146 O   0  0  0  0  0  0  0  0  0  0  0  0
   -1.7517   -0.8483    0.3266 N   0  0  0  0  0  0  0  0  0  0  0  0
   -2.4847   -0.5123   -0.2804 H   0  0  0  0  0  0  0  0  0  0  0  0
   -0.4117   -0.2463    0.2186 C   0  0  1  0  0  0  0  0  0  0  0  0
    0.2987   -1.0391   -0.0285 H   0  0  0  0  0  0  0  0  0  0  0  0
   -0.4131    0.7505   -0.9636 C   0  0  0  0  0  0  0  0  0  0  0  0
   -0.1306    1.7371   -0.5876 H   0  0  0  0  0  0  0  0  0  0  0  0
    0.3526    0.4499   -1.6821 H   0  0  0  0  0  0  0  0  0  0  0  0
   -1.7294    0.8714   -1.7019 C   0  0  0  0  0  0  0  0  0  0  0  0
   -2.7389    1.7624   -1.3934 N   0  3  0  0  0  0  0  0  0  0  0  0
   -2.6587    2.4766   -0.6638 H   0  0  0  0  0  0  0  0  0  0  0  0
   -3.7511    1.5770   -2.2639 C   0  0  0  0  0  0  0  0  0  0  0  0
   -4.6803    2.1430   -2.2785 H   0  0  0  0  0  0  0  0  0  0  0  0
   -3.4061    0.5868   -3.1176 N   0  0  0  0  0  0  0  0  0  0  0  0
   -3.9744    0.2336   -3.8830 H   0  0  0  0  0  0  0  0  0  0  0  0
   -2.1392    0.1323   -2.7786 C   0  0  0  0  0  0  0  0  0  0  0  0
   -1.5734   -0.6562   -3.2671 H   0  0  0  0  0  0  0  0  0  0  0  0
    0.0470    0.3465    1.5629 C   0  0  0  0  0  0  0  0  0  0  0  0
    1.1854    0.1365    1.9846 O   0  0  0  0  0  0  0  0  0  0  0  0
   -0.8551    1.0750    2.2320 N   0  0  0  0  0  0  0  0  0  0  0  0
   -1.7594    1.2031    1.8040 H   0  0  0  0  0  0  0  0  0  0  0  0
   -0.6356    1.6998    3.5400 C   0  0  0  0  0  0  0  0  0  0  0  0
   -0.4284    2.7647    3.4168 H   0  0  0  0  0  0  0  0  0  0  0  0
   -1.5268    1.5885    4.1601 H   0  0  0  0  0  0  0  0  0  0  0  0
    0.2072    1.2358    4.0566 H   0  0  0  0  0  0  0  0  0  0  0  0
  5  6  2  0  0  0  0
  5  7  1  0  0  0  0
  2  3  1  0  0  0  0
  2  4  1  0  0  0  0
  2  5  1  0  0  0  0
  1  2  1  0  0  0  0
 23 24  2  0  0  0  0
 23 25  1  0  0  0  0
 21 22  1  0  0  0  0
 19 20  1  0  0  0  0
 19 21  1  0  0  0  0
 17 18  1  0  0  0  0
 17 19  1  0  0  0  0
 15 16  1  0  0  0  0
 15 17  2  0  0  0  0
 14 15  1  0  0  0  0
 14 21  2  0  0  0  0
 11 12  1  0  0  0  0
 11 13  1  0  0  0  0
 11 14  1  0  0  0  0
  9 10  1  0  0  0  0
  9 11  1  0  0  0  0
  9 23  1  0  0  0  0
  7  8  1  0  0  0  0
  7  9  1  0  0  0  0
 27 28  1  0  0  0  0
 27 29  1  0  0  0  0
 27 30  1  0  0  0  0
 25 26  1  0  0  0  0
 25 27  1  0  0  0  0
M  CHG  1  15   1
M  END
$$$$
default_name
  -OEChem-02102213163D

 30 30  0     1  0  0  0  0  0999 V2000
   -3.5507   -3.2183    1.8116 H   0  0  0  0  0  0  0  0  0  0  0  0
   -3.4597   -2.3913    1.1076 C   0  0  0  0  0  0  0  0  0  0  0  0
   -4.1577   -1.6043    1.3866 H   0  0  0  0  0  0  0  0  0  0  0  0
   -3.6807   -2.7523    0.1036 H   0  0  0  0  0  0  0  0  0  0  0  0
   -2.0477   -1.8543    1.1546 C   0  0  0  0  0  0  0  0  0  0  0  0
   -1.2227   -2.3443    1.9146 O   0  0  0  0  0  0  0  0  0  0  0  0
   -1.7517   -0.8483    0.3266 N   0  0  0  0  0  0  0  0  0  0  0  0
   -2.4847   -0.5123   -0.2804 H   0  0  0  0  0  0  0  0  0  0  0  0
   -0.4117   -0.2463    0.2186 C   0  0  1  0  0  0  0  0  0  0  0  0
    0.2987   -1.0391   -0.0285 H   0  0  0  0  0  0  0  0  0  0  0  0
   -0.4131    0.7505   -0.9636 C   0  0  0  0  0  0  0  0  0  0  0  0
   -0.1306    1.7371   -0.5876 H   0  0  0  0  0  0  0  0  0  0  0  0
    0.3526    0.4499   -1.6821 H   0  0  0  0  0  0  0  0  0  0  0  0
   -1.7294    0.8714   -1.7019 C   0  0  0  0  0  0  0  0  0  0  0  0
   -2.6093    1.9311   -1.5968 N   0  3  0  0  0  0  0  0  0  0  0  0
   -2.4158    2.7740   -1.0484 H   0  0  0  0  0  0  0  0  0  0  0  0
   -3.6666    1.6874   -2.3965 C   0  0  0  0  0  0  0  0  0  0  0  0
   -4.5185    2.3504   -2.5330 H   0  0  0  0  0  0  0  0  0  0  0  0
   -3.4771    0.4953   -3.0060 N   0  0  0  0  0  0  0  0  0  0  0  0
   -4.1113    0.0559   -3.6680 H   0  0  0  0  0  0  0  0  0  0  0  0
   -2.2651   -0.0309   -2.5808 C   0  0  0  0  0  0  0  0  0  0  0  0
   -1.8188   -0.9746   -2.8817 H   0  0  0  0  0  0  0  0  0  0  0  0
    0.0470    0.3465    1.5629 C   0  0  0  0  0  0  0  0  0  0  0  0
    1.1854    0.1365    1.9846 O   0  0  0  0  0  0  0  0  0  0  0  0
   -0.8551    1.0750    2.2320 N   0  0  0  0  0  0  0  0  0  0  0  0
   -1.7594    1.2031    1.8040 H   0  0  0  0  0  0  0  0  0  0  0  0
   -0.6356    1.6998    3.5400 C   0  0  0  0  0  0  0  0  0  0  0  0
   -0.4284    2.7647    3.4168 H   0  0  0  0  0  0  0  0  0  0  0  0
   -1.5268    1.5885    4.1601 H   0  0  0  0  0  0  0  0  0  0  0  0
    0.2072    1.2358    4.0566 H   0  0  0  0  0  0  0  0  0  0  0  0
  5  6  2  0  0  0  0
  5  7  1  0  0  0  0
  2  3  1  0  0  0  0
  2  4  1  0  0  0  0
  2  5  1  0  0  0  0
  1  2  1  0  0  0  0
 23 24  2  0  0  0  0
 23 25  1  0  0  0  0
 21 22  1  0  0  0  0
 19 20  1  0  0  0  0
 19 21  1  0  0  0  0
 17 18  1  0  0  0  0
 17 19  1  0  0  0  0
 15 16  1  0  0  0  0
 15 17  2  0  0  0  0
 14 15  1  0  0  0  0
 14 21  2  0  0  0  0
 11 12  1  0  0  0  0
 11 13  1  0  0  0  0
 11 14  1  0  0  0  0
  9 10  1  0  0  0  0
  9 11  1  0  0  0  0
  9 23  1  0  0  0  0
  7  8  1  0  0  0  0
  7  9  1  0  0  0  0
 27 28  1  0  0  0  0
 27 29  1  0  0  0  0
 27 30  1  0  0  0  0
 25 26  1  0  0  0  0
 25 27  1  0  0  0  0
M  CHG  1  15   1
M  END
$$$$
default_name
  -OEChem-02102213163D

 30 30  0     1  0  0  0  0  0999 V2000
   -3.5507   -3.2183    1.8116 H   0  0  0  0  0  0  0  0  0  0  0  0
   -3.4597   -2.3913    1.1076 C   0  0  0  0  0  0  0  0  0  0  0  0
   -4.1577   -1.6043    1.3866 H   0  0  0  0  0  0  0  0  0  0  0  0
   -3.6807   -2.7523    0.1036 H   0  0  0  0  0  0  0  0  0  0  0  0
   -2.0477   -1.8543    1.1546 C   0  0  0  0  0  0  0  0  0  0  0  0
   -1.2227   -2.3443    1.9146 O   0  0  0  0  0  0  0  0  0  0  0  0
   -1.7517   -0.8483    0.3266 N   0  0  0  0  0  0  0  0  0  0  0  0
   -2.4847   -0.5123   -0.2804 H   0  0  0  0  0  0  0  0  0  0  0  0
   -0.4117   -0.2463    0.2186 C   0  0  1  0  0  0  0  0  0  0  0  0
    0.2987   -1.0391   -0.0285 H   0  0  0  0  0  0  0  0  0  0  0  0
   -0.4131    0.7505   -0.9636 C   0  0  0  0  0  0  0  0  0  0  0  0
   -0.1306    1.7371   -0.5876 H   0  0  0  0  0  0  0  0  0  0  0  0
    0.3526    0.4499   -1.6821 H   0  0  0  0  0  0  0  0  0  0  0  0
   -1.7294    0.8714   -1.7019 C   0  0  0  0  0  0  0  0  0  0  0  0
   -2.4671    2.0318   -1.8339 N   0  3  0  0  0  0  0  0  0  0  0  0
   -2.1515    2.9440   -1.4917 H   0  0  0  0  0  0  0  0  0  0  0  0
   -3.5738    1.7535   -2.5511 C   0  0  0  0  0  0  0  0  0  0  0  0
   -4.3413    2.4730   -2.8289 H   0  0  0  0  0  0  0  0  0  0  0  0
   -3.5549    0.4410   -2.8761 N   0  0  0  0  0  0  0  0  0  0  0  0
   -4.2615   -0.0500   -3.4176 H   0  0  0  0  0  0  0  0  0  0  0  0
   -2.4032   -0.1280   -2.3504 C   0  0  0  0  0  0  0  0  0  0  0  0
   -2.0881   -1.1645   -2.4326 H   0  0  0  0  0  0  0  0  0  0  0  0
    0.0470    0.3465    1.5629 C   0  0  0  0  0  0  0  0  0  0  0  0
    1.1854    0.1365    1.9846 O   0  0  0  0  0  0  0  0  0  0  0  0
   -0.8551    1.0750    2.2320 N   0  0  0  0  0  0  0  0  0  0  0  0
   -1.7594    1.2031    1.8040 H   0  0  0  0  0  0  0  0  0  0  0  0
   -0.6356    1.6998    3.5400 C   0  0  0  0  0  0  0  0  0  0  0  0
   -0.4284    2.7647    3.4168 H   0  0  0  0  0  0  0  0  0  0  0  0
   -1.5268    1.5885    4.1601 H   0  0  0  0  0  0  0  0  0  0  0  0
    0.2072    1.2358    4.0566 H   0  0  0  0  0  0  0  0  0  0  0  0
  5  6  2  0  0  0  0
  5  7  1  0  0  0  0
  2  3  1  0  0  0  0
  2  4  1  0  0  0  0
  2  5  1  0  0  0  0
  1  2  1  0  0  0  0
 23 24  2  0  0  0  0
 23 25  1  0  0  0  0
 21 22  1  0  0  0  0
 19 20  1  0  0  0  0
 19 21  1  0  0  0  0
 17 18  1  0  0  0  0
 17 19  1  0  0  0  0
 15 16  1  0  0  0  0
 15 17  2  0  0  0  0
 14 15  1  0  0  0  0
 14 21  2  0  0  0  0
 11 12  1  0  0  0  0
 11 13  1  0  0  0  0
 11 14  1  0  0  0  0
  9 10  1  0  0  0  0
  9 11  1  0  0  0  0
  9 23  1  0  0  0  0
  7  8  1  0  0  0  0
  7  9  1  0  0  0  0
 27 28  1  0  0  0  0
 27 29  1  0  0  0  0
 27 30  1  0  0  0  0
 25 26  1  0  0  0  0
 25 27  1  0  0  0  0
M  CHG  1  15   1
M  END
$$$$
default_name
  -OEChem-02102213163D

 30 30  0     1  0  0  0  0  0999 V2000
   -3.5507   -3.2183    1.8116 H   0  0  0  0  0  0  0  0  0  0  0  0
   -3.4597   -2.3913    1.1076 C   0  0  0  0  0  0  0  0  0  0  0  0
   -4.1577   -1.6043    1.3866 H   0  0  0  0  0  0  0  0  0  0  0  0
   -3.6807   -2.7523    0.1036 H   0  0  0  0  0  0  0  0  0  0  0  0
   -2.0477   -1.8543    1.1546 C   0  0  0  0  0  0  0  0  0  0  0  0
   -1.2227   -2.3443    1.9146 O   0  0  0  0  0  0  0  0  0  0  0  0
   -1.7517   -0.8483    0.3266 N   0  0  0  0  0  0  0  0  0  0  0  0
   -2.4847   -0.5123   -0.2804 H   0  0  0  0  0  0  0  0  0  0  0  0
   -0.4117   -0.2463    0.2186 C   0  0  1  0  0  0  0  0  0  0  0  0
    0.2987   -1.0391   -0.0285 H   0  0  0  0  0  0  0  0  0  0  0  0
   -0.4131    0.7505   -0.9636 C   0  0  0  0  0  0  0  0  0  0  0  0
   -0.1306    1.7371   -0.5876 H   0  0  0  0  0  0  0  0  0  0  0  0
    0.3526    0.4499   -1.6821 H   0  0  0  0  0  0  0  0  0  0  0  0
   -1.7294    0.8714   -1.7019 C   0  0  0  0  0  0  0  0  0  0  0  0
   -2.3219    2.0579   -2.0886 N   0  3  0  0  0  0  0  0  0  0  0  0
   -1.8839    2.9751   -1.9637 H   0  0  0  0  0  0  0  0  0  0  0  0
   -3.4790    1.7708   -2.7172 C   0  0  0  0  0  0  0  0  0  0  0  0
   -4.1608    2.5025   -3.1459 H   0  0  0  0  0  0  0  0  0  0  0  0
   -3.6342    0.4277   -2.7369 N   0  0  0  0  0  0  0  0  0  0  0  0
   -4.4147   -0.0770   -3.1487 H   0  0  0  0  0  0  0  0  0  0  0  0
   -2.5442   -0.1526   -2.1032 C   0  0  0  0  0  0  0  0  0  0  0  0
   -2.3629   -1.2130   -1.9506 H   0  0  0  0  0  0  0  0  0  0  0  0
    0.0470    0.3465    1.5629 C   0  0  0  0  0  0  0  0  0  0  0  0
    1.1854    0.1365    1.9846 O   0  0  0  0  0  0  0  0  0  0  0  0
   -0.8551    1.0750    2.2320 N   0  0  0  0  0  0  0  0  0  0  0  0
   -1.7594    1.2031    1.8040 H   0  0  0  0  0  0  0  0  0  0  0  0
   -0.6356    1.6998    3.5400 C   0  0  0  0  0  0  0  0  0  0  0  0
   -0.4284    2.7647    3.4168 H   0  0  0  0  0  0  0  0  0  0  0  0
   -1.5268    1.5885    4.1601 H   0  0  0  0  0  0  0  0  0  0  0  0
    0.2072    1.2358    4.0566 H   0  0  0  0  0  0  0  0  0  0  0  0
  5  6  2  0  0  0  0
  5  7  1  0  0  0  0
  2  3  1  0  0  0  0
  2  4  1  0  0  0  0
  2  5  1  0  0  0  0
  1  2  1  0  0  0  0
 23 24  2  0  0  0  0
 23 25  1  0  0  0  0
 21 22  1  0  0  0  0
 19 20  1  0  0  0  0
 19 21  1  0  0  0  0
 17 18  1  0  0  0  0
 17 19  1  0  0  0  0
 15 16  1  0  0  0  0
 15 17  2  0  0  0  0
 14 15  1  0  0  0  0
 14 21  2  0  0  0  0
 11 12  1  0  0  0  0
 11 13  1  0  0  0  0
 11 14  1  0  0  0  0
  9 10  1  0  0  0  0
  9 11  1  0  0  0  0
  9 23  1  0  0  0  0
  7  8  1  0  0  0  0
  7  9  1  0  0  0  0
 27 28  1  0  0  0  0
 27 29  1  0  0  0  0
 27 30  1  0  0  0  0
 25 26  1  0  0  0  0
 25 27  1  0  0  0  0
M  CHG  1  15   1
M  END
$$$$
default_name
  -OEChem-02102213163D

 30 30  0     1  0  0  0  0  0999 V2000
   -3.5507   -3.2183    1.8116 H   0  0  0  0  0  0  0  0  0  0  0  0
   -3.4597   -2.3913    1.1076 C   0  0  0  0  0  0  0  0  0  0  0  0
   -4.1577   -1.6043    1.3866 H   0  0  0  0  0  0  0  0  0  0  0  0
   -3.6807   -2.7523    0.1036 H   0  0  0  0  0  0  0  0  0  0  0  0
   -2.0477   -1.8543    1.1546 C   0  0  0  0  0  0  0  0  0  0  0  0
   -1.2227   -2.3443    1.9146 O   0  0  0  0  0  0  0  0  0  0  0  0
   -1.7517   -0.8483    0.3266 N   0  0  0  0  0  0  0  0  0  0  0  0
   -2.4847   -0.5123   -0.2804 H   0  0  0  0  0  0  0  0  0  0  0  0
   -0.4117   -0.2463    0.2186 C   0  0  1  0  0  0  0  0  0  0  0  0
    0.2987   -1.0391   -0.0285 H   0  0  0  0  0  0  0  0  0  0  0  0
   -0.4131    0.7505   -0.9636 C   0  0  0  0  0  0  0  0  0  0  0  0
   -0.1306    1.7371   -0.5876 H   0  0  0  0  0  0  0  0  0  0  0  0
    0.3526    0.4499   -1.6821 H   0  0  0  0  0  0  0  0  0  0  0  0
   -1.7294    0.8714   -1.7019 C   0  0  0  0  0  0  0  0  0  0  0  0
   -2.1836    2.0074   -2.3434 N   0  3  0  0  0  0  0  0  0  0  0  0
   -1.6313    2.8652   -2.4321 H   0  0  0  0  0  0  0  0  0  0  0  0
   -3.3887    1.7382   -2.8835 C   0  0  0  0  0  0  0  0  0  0  0  0
   -3.9893    2.4369   -3.4625 H   0  0  0  0  0  0  0  0  0  0  0  0
   -3.7097    0.4561   -2.5977 N   0  0  0  0  0  0  0  0  0  0  0  0
   -4.5606   -0.0233   -2.8798 H   0  0  0  0  0  0  0  0  0  0  0  0
   -2.6783   -0.1029   -1.8559 C   0  0  0  0  0  0  0  0  0  0  0  0
   -2.6245   -1.1166   -1.4685 H   0  0  0  0  0  0  0  0  0  0  0  0
    0.0470    0.3465    1.5629 C   0  0  0  0  0  0  0  0  0  0  0  0
    1.1854    0.1365    1.9846 O   0  0  0  0  0  0  0  0  0  0  0  0
   -0.8551    1.0750    2.2320 N   0  0  0  0  0  0  0  0  0  0  0  0
   -1.7594    1.2031    1.8040 H   0  0  0  0  0  0  0  0  0  0  0  0
   -0.6356    1.6998    3.5400 C   0  0  0  0  0  0  0  0  0  0  0  0
   -0.4284    2.7647    3.4168 H   0  0  0  0  0  0  0  0  0  0  0  0
   -1.5268    1.5885    4.1601 H   0  0  0  0  0  0  0  0  0  0  0  0
    0.2072    1.2358    4.0566 H   0  0  0  0  0  0  0  0  0  0  0  0
  5  6  2  0  0  0  0
  5  7  1  0  0  0  0
  2  3  1  0  0  0  0
  2  4  1  0  0  0  0
  2  5  1  0  0  0  0
  1  2  1  0  0  0  0
 23 24  2  0  0  0  0
 23 25  1  0  0  0  0
 21 22  1  0  0  0  0
 19 20  1  0  0  0  0
 19 21  1  0  0  0  0
 17 18  1  0  0  0  0
 17 19  1  0  0  0  0
 15 16  1  0  0  0  0
 15 17  2  0  0  0  0
 14 15  1  0  0  0  0
 14 21  2  0  0  0  0
 11 12  1  0  0  0  0
 11 13  1  0  0  0  0
 11 14  1  0  0  0  0
  9 10  1  0  0  0  0
  9 11  1  0  0  0  0
  9 23  1  0  0  0  0
  7  8  1  0  0  0  0
  7  9  1  0  0  0  0
 27 28  1  0  0  0  0
 27 29  1  0  0  0  0
 27 30  1  0  0  0  0
 25 26  1  0  0  0  0
 25 27  1  0  0  0  0
M  CHG  1  15   1
M  END
$$$$
default_name
  -OEChem-02102213163D

 30 30  0     1  0  0  0  0  0999 V2000
   -3.5507   -3.2183    1.8116 H   0  0  0  0  0  0  0  0  0  0  0  0
   -3.4597   -2.3913    1.1076 C   0  0  0  0  0  0  0  0  0  0  0  0
   -4.1577   -1.6043    1.3866 H   0  0  0  0  0  0  0  0  0  0  0  0
   -3.6807   -2.7523    0.1036 H   0  0  0  0  0  0  0  0  0  0  0  0
   -2.0477   -1.8543    1.1546 C   0  0  0  0  0  0  0  0  0  0  0  0
   -1.2227   -2.3443    1.9146 O   0  0  0  0  0  0  0  0  0  0  0  0
   -1.7517   -0.8483    0.3266 N   0  0  0  0  0  0  0  0  0  0  0  0
   -2.4847   -0.5123   -0.2804 H   0  0  0  0  0  0  0  0  0  0  0  0
   -0.4117   -0.2463    0.2186 C   0  0  1  0  0  0  0  0  0  0  0  0
    0.2987   -1.0391   -0.0285 H   0  0  0  0  0  0  0  0  0  0  0  0
   -0.4131    0.7505   -0.9636 C   0  0  0  0  0  0  0  0  0  0  0  0
   -0.1306    1.7371   -0.5876 H   0  0  0  0  0  0  0  0  0  0  0  0
    0.3526    0.4499   -1.6821 H   0  0  0  0  0  0  0  0  0  0  0  0
   -1.7294    0.8714   -1.7019 C   0  0  0  0  0  0  0  0  0  0  0  0
   -2.0616    1.8838   -2.5810 N   0  3  0  0  0  0  0  0  0  0  0  0
   -1.4108    2.6218   -2.8651 H   0  0  0  0  0  0  0  0  0  0  0  0
   -3.3091    1.6579   -3.0387 C   0  0  0  0  0  0  0  0  0  0  0  0
   -3.8384    2.2806   -3.7570 H   0  0  0  0  0  0  0  0  0  0  0  0
   -3.7761    0.5244   -2.4682 N   0  0  0  0  0  0  0  0  0  0  0  0
   -4.6892    0.1075   -2.6291 H   0  0  0  0  0  0  0  0  0  0  0  0
   -2.7965    0.0176   -1.6255 C   0  0  0  0  0  0  0  0  0  0  0  0
   -2.8550   -0.8820   -1.0190 H   0  0  0  0  0  0  0  0  0  0  0  0
    0.0470    0.3465    1.5629 C   0  0  0  0  0  0  0  0  0  0  0  0
    1.1854    0.1365    1.9846 O   0  0  0  0  0  0  0  0  0  0  0  0
   -0.8551    1.0750    2.2320 N   0  0  0  0  0  0  0  0  0  0  0  0
   -1.7594    1.2031    1.8040 H   0  0  0  0  0  0  0  0  0  0  0  0
   -0.6356    1.6998    3.5400 C   0  0  0  0  0  0  0  0  0  0  0  0
   -0.4284    2.7647    3.4168 H   0  0  0  0  0  0  0  0  0  0  0  0
   -1.5268    1.5885    4.1601 H   0  0  0  0  0  0  0  0  0  0  0  0
    0.2072    1.2358    4.0566 H   0  0  0  0  0  0  0  0  0  0  0  0
  5  6  2  0  0  0  0
  5  7  1  0  0  0  0
  2  3  1  0  0  0  0
  2  4  1  0  0  0  0
  2  5  1  0  0  0  0
  1  2  1  0  0  0  0
 23 24  2  0  0  0  0
 23 25  1  0  0  0  0
 21 22  1  0  0  0  0
 19 20  1  0  0  0  0
 19 21  1  0  0  0  0
 17 18  1  0  0  0  0
 17 19  1  0  0  0  0
 15 16  1  0  0  0  0
 15 17  2  0  0  0  0
 14 15  1  0  0  0  0
 14 21  2  0  0  0  0
 11 12  1  0  0  0  0
 11 13  1  0  0  0  0
 11 14  1  0  0  0  0
  9 10  1  0  0  0  0
  9 11  1  0  0  0  0
  9 23  1  0  0  0  0
  7  8  1  0  0  0  0
  7  9  1  0  0  0  0
 27 28  1  0  0  0  0
 27 29  1  0  0  0  0
 27 30  1  0  0  0  0
 25 26  1  0  0  0  0
 25 27  1  0  0  0  0
M  CHG  1  15   1
M  END
$$$$
default_name
  -OEChem-02102213163D

 30 30  0     1  0  0  0  0  0999 V2000
   -3.5507   -3.2183    1.8116 H   0  0  0  0  0  0  0  0  0  0  0  0
   -3.4597   -2.3913    1.1076 C   0  0  0  0  0  0  0  0  0  0  0  0
   -4.1577   -1.6043    1.3866 H   0  0  0  0  0  0  0  0  0  0  0  0
   -3.6807   -2.7523    0.1036 H   0  0  0  0  0  0  0  0  0  0  0  0
   -2.0477   -1.8543    1.1546 C   0  0  0  0  0  0  0  0  0  0  0  0
   -1.2227   -2.3443    1.9146 O   0  0  0  0  0  0  0  0  0  0  0  0
   -1.7517   -0.8483    0.3266 N   0  0  0  0  0  0  0  0  0  0  0  0
   -2.4847   -0.5123   -0.2804 H   0  0  0  0  0  0  0  0  0  0  0  0
   -0.4117   -0.2463    0.2186 C   0  0  1  0  0  0  0  0  0  0  0  0
    0.2987   -1.0391   -0.0285 H   0  0  0  0  0  0  0  0  0  0  0  0
   -0.4131    0.7505   -0.9636 C   0  0  0  0  0  0  0  0  0  0  0  0
    0.1177    1.6553   -0.6569 H   0  0  0  0  0  0  0  0  0  0  0  0
    0.1472    0.3163   -1.7945 H   0  0  0  0  0  0  0  0  0  0  0  0
   -1.7838    1.1417   -1.4740 C   0  0  0  0  0  0  0  0  0  0  0  0
   -2.0284    2.0140   -2.5169 N   0  3  0  0  0  0  0  0  0  0  0  0
   -1.2892    2.4320   -3.0891 H   0  0  0  0  0  0  0  0  0  0  0  0
   -3.3622    2.1168   -2.6818 C   0  0  0  0  0  0  0  0  0  0  0  0
   -3.8581    2.7232   -3.4371 H   0  0  0  0  0  0  0  0  0  0  0  0
   -3.9693    1.3294   -1.7654 N   0  0  0  0  0  0  0  0  0  0  0  0
   -4.9723    1.2059   -1.6552 H   0  0  0  0  0  0  0  0  0  0  0  0
   -2.9924    0.7097   -0.9984 C   0  0  0  0  0  0  0  0  0  0  0  0
   -3.1465    0.0144   -0.1779 H   0  0  0  0  0  0  0  0  0  0  0  0
    0.0470    0.3465    1.5629 C   0  0  0  0  0  0  0  0  0  0  0  0
    1.1854    0.1365    1.9846 O   0  0  0  0  0  0  0  0  0  0  0  0
   -0.8551    1.0750    2.2320 N   0  0  0  0  0  0  0  0  0  0  0  0
   -1.7594    1.2031    1.8040 H   0  0  0  0  0  0  0  0  0  0  0  0
   -0.6356    1.6998    3.5400 C   0  0  0  0  0  0  0  0  0  0  0  0
   -0.4284    2.7647    3.4168 H   0  0  0  0  0  0  0  0  0  0  0  0
   -1.5268    1.5885    4.1601 H   0  0  0  0  0  0  0  0  0  0  0  0
    0.2072    1.2358    4.0566 H   0  0  0  0  0  0  0  0  0  0  0  0
  5  6  2  0  0  0  0
  5  7  1  0  0  0  0
  2  3  1  0  0  0  0
  2  4  1  0  0  0  0
  2  5  1  0  0  0  0
  1  2  1  0  0  0  0
 23 24  2  0  0  0  0
 23 25  1  0  0  0  0
 21 22  1  0  0  0  0
 19 20  1  0  0  0  0
 19 21  1  0  0  0  0
 17 18  1  0  0  0  0
 17 19  1  0  0  0  0
 15 16  1  0  0  0  0
 15 17  2  0  0  0  0
 14 15  1  0  0  0  0
 14 21  2  0  0  0  0
 11 12  1  0  0  0  0
 11 13  1  0  0  0  0
 11 14  1  0  0  0  0
  9 10  1  0  0  0  0
  9 11  1  0  0  0  0
  9 23  1  0  0  0  0
  7  8  1  0  0  0  0
  7  9  1  0  0  0  0
 27 28  1  0  0  0  0
 27 29  1  0  0  0  0
 27 30  1  0  0  0  0
 25 26  1  0  0  0  0
 25 27  1  0  0  0  0
M  CHG  1  15   1
M  END
$$$$
default_name
  -OEChem-02102213163D

 30 30  0     1  0  0  0  0  0999 V2000
   -3.5507   -3.2183    1.8116 H   0  0  0  0  0  0  0  0  0  0  0  0
   -3.4597   -2.3913    1.1076 C   0  0  0  0  0  0  0  0  0  0  0  0
   -4.1577   -1.6043    1.3866 H   0  0  0  0  0  0  0  0  0  0  0  0
   -3.6807   -2.7523    0.1036 H   0  0  0  0  0  0  0  0  0  0  0  0
   -2.0477   -1.8543    1.1546 C   0  0  0  0  0  0  0  0  0  0  0  0
   -1.2227   -2.3443    1.9146 O   0  0  0  0  0  0  0  0  0  0  0  0
   -1.7517   -0.8483    0.3266 N   0  0  0  0  0  0  0  0  0  0  0  0
   -2.4847   -0.5123   -0.2804 H   0  0  0  0  0  0  0  0  0  0  0  0
   -0.4117   -0.2463    0.2186 C   0  0  1  0  0  0  0  0  0  0  0  0
    0.2987   -1.0391   -0.0285 H   0  0  0  0  0  0  0  0  0  0  0  0
   -0.4131    0.7505   -0.9636 C   0  0  0  0  0  0  0  0  0  0  0  0
    0.1177    1.6553   -0.6569 H   0  0  0  0  0  0  0  0  0  0  0  0
    0.1472    0.3163   -1.7945 H   0  0  0  0  0  0  0  0  0  0  0  0
   -1.7838    1.1417   -1.4740 C   0  0  0  0  0  0  0  0  0  0  0  0
   -2.0384    1.7682   -2.6785 N   0  3  0  0  0  0  0  0  0  0  0  0
   -1.3147    1.9702   -3.3744 H   0  0  0  0  0  0  0  0  0  0  0  0
   -3.3685    1.9566   -2.7876 C   0  0  0  0  0  0  0  0  0  0  0  0
   -3.8716    2.4162   -3.6359 H   0  0  0  0  0  0  0  0  0  0  0  0
   -3.9635    1.4641   -1.6777 N   0  0  0  0  0  0  0  0  0  0  0  0
   -4.9616    1.4655   -1.4849 H   0  0  0  0  0  0  0  0  0  0  0  0
   -2.9824    0.9486   -0.8420 C   0  0  0  0  0  0  0  0  0  0  0  0
   -3.1273    0.4799    0.1274 H   0  0  0  0  0  0  0  0  0  0  0  0
    0.0470    0.3465    1.5629 C   0  0  0  0  0  0  0  0  0  0  0  0
    1.1854    0.1365    1.9846 O   0  0  0  0  0  0  0  0  0  0  0  0
   -0.8551    1.0750    2.2320 N   0  0  0  0  0  0  0  0  0  0  0  0
   -1.7594    1.2031    1.8040 H   0  0  0  0  0  0  0  0  0  0  0  0
   -0.6356    1.6998    3.5400 C   0  0  0  0  0  0  0  0  0  0  0  0
   -0.4284    2.7647    3.4168 H   0  0  0  0  0  0  0  0  0  0  0  0
   -1.5268    1.5885    4.1601 H   0  0  0  0  0  0  0  0  0  0  0  0
    0.2072    1.2358    4.0566 H   0  0  0  0  0  0  0  0  0  0  0  0
  5  6  2  0  0  0  0
  5  7  1  0  0  0  0
  2  3  1  0  0  0  0
  2  4  1  0  0  0  0
  2  5  1  0  0  0  0
  1  2  1  0  0  0  0
 23 24  2  0  0  0  0
 23 25  1  0  0  0  0
 21 22  1  0  0  0  0
 19 20  1  0  0  0  0
 19 21  1  0  0  0  0
 17 18  1  0  0  0  0
 17 19  1  0  0  0  0
 15 16  1  0  0  0  0
 15 17  2  0  0  0  0
 14 15  1  0  0  0  0
 14 21  2  0  0  0  0
 11 12  1  0  0  0  0
 11 13  1  0  0  0  0
 11 14  1  0  0  0  0
  9 10  1  0  0  0  0
  9 11  1  0  0  0  0
  9 23  1  0  0  0  0
  7  8  1  0  0  0  0
  7  9  1  0  0  0  0
 27 28  1  0  0  0  0
 27 29  1  0  0  0  0
 27 30  1  0  0  0  0
 25 26  1  0  0  0  0
 25 27  1  0  0  0  0
M  CHG  1  15   1
M  END
$$$$
default_name
  -OEChem-02102213163D

 30 30  0     1  0  0  0  0  0999 V2000
   -3.5507   -3.2183    1.8116 H   0  0  0  0  0  0  0  0  0  0  0  0
   -3.4597   -2.3913    1.1076 C   0  0  0  0  0  0  0  0  0  0  0  0
   -4.1577   -1.6043    1.3866 H   0  0  0  0  0  0  0  0  0  0  0  0
   -3.6807   -2.7523    0.1036 H   0  0  0  0  0  0  0  0  0  0  0  0
   -2.0477   -1.8543    1.1546 C   0  0  0  0  0  0  0  0  0  0  0  0
   -1.2227   -2.3443    1.9146 O   0  0  0  0  0  0  0  0  0  0  0  0
   -1.7517   -0.8483    0.3266 N   0  0  0  0  0  0  0  0  0  0  0  0
   -2.4847   -0.5123   -0.2804 H   0  0  0  0  0  0  0  0  0  0  0  0
   -0.4117   -0.2463    0.2186 C   0  0  1  0  0  0  0  0  0  0  0  0
    0.2987   -1.0391   -0.0285 H   0  0  0  0  0  0  0  0  0  0  0  0
   -0.4131    0.7505   -0.9636 C   0  0  0  0  0  0  0  0  0  0  0  0
    0.1177    1.6553   -0.6569 H   0  0  0  0  0  0  0  0  0  0  0  0
    0.1472    0.3163   -1.7945 H   0  0  0  0  0  0  0  0  0  0  0  0
   -1.7838    1.1417   -1.4740 C   0  0  0  0  0  0  0  0  0  0  0  0
   -2.0802    1.4939   -2.7764 N   0  3  0  0  0  0  0  0  0  0  0  0
   -1.3988    1.4596   -3.5401 H   0  0  0  0  0  0  0  0  0  0  0  0
   -3.3957    1.7777   -2.8518 C   0  0  0  0  0  0  0  0  0  0  0  0
   -3.9248    2.0743   -3.7551 H   0  0  0  0  0  0  0  0  0  0  0  0
   -3.9403    1.6142   -1.6249 N   0  0  0  0  0  0  0  0  0  0  0  0
   -4.9173    1.7552   -1.3820 H   0  0  0  0  0  0  0  0  0  0  0  0
   -2.9415    1.2150   -0.7476 C   0  0  0  0  0  0  0  0  0  0  0  0
   -3.0478    0.9993    0.3120 H   0  0  0  0  0  0  0  0  0  0  0  0
    0.0470    0.3465    1.5629 C   0  0  0  0  0  0  0  0  0  0  0  0
    1.1854    0.1365    1.9846 O   0  0  0  0  0  0  0  0  0  0  0  0
   -0.8551    1.0750    2.2320 N   0  0  0  0  0  0  0  0  0  0  0  0
   -1.7594    1.2031    1.8040 H   0  0  0  0  0  0  0  0  0  0  0  0
   -0.6356    1.6998    3.5400 C   0  0  0  0  0  0  0  0  0  0  0  0
   -0.4284    2.7647    3.4168 H   0  0  0  0  0  0  0  0  0  0  0  0
   -1.5268    1.5885    4.1601 H   0  0  0  0  0  0  0  0  0  0  0  0
    0.2072    1.2358    4.0566 H   0  0  0  0  0  0  0  0  0  0  0  0
  5  6  2  0  0  0  0
  5  7  1  0  0  0  0
  2  3  1  0  0  0  0
  2  4  1  0  0  0  0
  2  5  1  0  0  0  0
  1  2  1  0  0  0  0
 23 24  2  0  0  0  0
 23 25  1  0  0  0  0
 21 22  1  0  0  0  0
 19 20  1  0  0  0  0
 19 21  1  0  0  0  0
 17 18  1  0  0  0  0
 17 19  1  0  0  0  0
 15 16  1  0  0  0  0
 15 17  2  0  0  0  0
 14 15  1  0  0  0  0
 14 21  2  0  0  0  0
 11 12  1  0  0  0  0
 11 13  1  0  0  0  0
 11 14  1  0  0  0  0
  9 10  1  0  0  0  0
  9 11  1  0  0  0  0
  9 23  1  0  0  0  0
  7  8  1  0  0  0  0
  7  9  1  0  0  0  0
 27 28  1  0  0  0  0
 27 29  1  0  0  0  0
 27 30  1  0  0  0  0
 25 26  1  0  0  0  0
 25 27  1  0  0  0  0
M  CHG  1  15   1
M  END
$$$$
default_name
  -OEChem-02102213163D

 30 30  0     1  0  0  0  0  0999 V2000
   -3.5507   -3.2183    1.8116 H   0  0  0  0  0  0  0  0  0  0  0  0
   -3.4597   -2.3913    1.1076 C   0  0  0  0  0  0  0  0  0  0  0  0
   -4.1577   -1.6043    1.3866 H   0  0  0  0  0  0  0  0  0  0  0  0
   -3.6807   -2.7523    0.1036 H   0  0  0  0  0  0  0  0  0  0  0  0
   -2.0477   -1.8543    1.1546 C   0  0  0  0  0  0  0  0  0  0  0  0
   -1.2227   -2.3443    1.9146 O   0  0  0  0  0  0  0  0  0  0  0  0
   -1.7517   -0.8483    0.3266 N   0  0  0  0  0  0  0  0  0  0  0  0
   -2.4847   -0.5123   -0.2804 H   0  0  0  0  0  0  0  0  0  0  0  0
   -0.4117   -0.2463    0.2186 C   0  0  1  0  0  0  0  0  0  0  0  0
    0.2987   -1.0391   -0.0285 H   0  0  0  0  0  0  0  0  0  0  0  0
   -0.4131    0.7505   -0.9636 C   0  0  0  0  0  0  0  0  0  0  0  0
    0.1177    1.6553   -0.6569 H   0  0  0  0  0  0  0  0  0  0  0  0
    0.1472    0.3163   -1.7945 H   0  0  0  0  0  0  0  0  0  0  0  0
   -1.7838    1.1417   -1.4740 C   0  0  0  0  0  0  0  0  0  0  0  0
   -2.1511    1.2096   -2.8039 N   0  3  0  0  0  0  0  0  0  0  0  0
   -1.5356    0.9348   -3.5749 H   0  0  0  0  0  0  0  0  0  0  0  0
   -3.4418    1.5921   -2.8700 C   0  0  0  0  0  0  0  0  0  0  0  0
   -4.0140    1.7207   -3.7866 H   0  0  0  0  0  0  0  0  0  0  0  0
   -3.9012    1.7696   -1.6107 N   0  0  0  0  0  0  0  0  0  0  0  0
   -4.8423    2.0553   -1.3534 H   0  0  0  0  0  0  0  0  0  0  0  0
   -2.8725    1.4910   -0.7215 C   0  0  0  0  0  0  0  0  0  0  0  0
   -2.9133    1.5374    0.3632 H   0  0  0  0  0  0  0  0  0  0  0  0
    0.0470    0.3465    1.5629 C   0  0  0  0  0  0  0  0  0  0  0  0
    1.1854    0.1365    1.9846 O   0  0  0  0  0  0  0  0  0  0  0  0
   -0.8551    1.0750    2.2320 N   0  0  0  0  0  0  0  0  0  0  0  0
   -1.7594    1.2031    1.8040 H   0  0  0  0  0  0  0  0  0  0  0  0
   -0.6356    1.6998    3.5400 C   0  0  0  0  0  0  0  0  0  0  0  0
   -0.4284    2.7647    3.4168 H   0  0  0  0  0  0  0  0  0  0  0  0
   -1.5268    1.5885    4.1601 H   0  0  0  0  0  0  0  0  0  0  0  0
    0.2072    1.2358    4.0566 H   0  0  0  0  0  0  0  0  0  0  0  0
  5  6  2  0  0  0  0
  5  7  1  0  0  0  0
  2  3  1  0  0  0  0
  2  4  1  0  0  0  0
  2  5  1  0  0  0  0
  1  2  1  0  0  0  0
 23 24  2  0  0  0  0
 23 25  1  0  0  0  0
 21 22  1  0  0  0  0
 19 20  1  0  0  0  0
 19 21  1  0  0  0  0
 17 18  1  0  0  0  0
 17 19  1  0  0  0  0
 15 16  1  0  0  0  0
 15 17  2  0  0  0  0
 14 15  1  0  0  0  0
 14 21  2  0  0  0  0
 11 12  1  0  0  0  0
 11 13  1  0  0  0  0
 11 14  1  0  0  0  0
  9 10  1  0  0  0  0
  9 11  1  0  0  0  0
  9 23  1  0  0  0  0
  7  8  1  0  0  0  0
  7  9  1  0  0  0  0
 27 28  1  0  0  0  0
 27 29  1  0  0  0  0
 27 30  1  0  0  0  0
 25 26  1  0  0  0  0
 25 27  1  0  0  0  0
M  CHG  1  15   1
M  END
$$$$
default_name
  -OEChem-02102213163D

 30 30  0     1  0  0  0  0  0999 V2000
   -3.5507   -3.2183    1.8116 H   0  0  0  0  0  0  0  0  0  0  0  0
   -3.4597   -2.3913    1.1076 C   0  0  0  0  0  0  0  0  0  0  0  0
   -4.1577   -1.6043    1.3866 H   0  0  0  0  0  0  0  0  0  0  0  0
   -3.6807   -2.7523    0.1036 H   0  0  0  0  0  0  0  0  0  0  0  0
   -2.0477   -1.8543    1.1546 C   0  0  0  0  0  0  0  0  0  0  0  0
   -1.2227   -2.3443    1.9146 O   0  0  0  0  0  0  0  0  0  0  0  0
   -1.7517   -0.8483    0.3266 N   0  0  0  0  0  0  0  0  0  0  0  0
   -2.4847   -0.5123   -0.2804 H   0  0  0  0  0  0  0  0  0  0  0  0
   -0.4117   -0.2463    0.2186 C   0  0  1  0  0  0  0  0  0  0  0  0
    0.2987   -1.0391   -0.0285 H   0  0  0  0  0  0  0  0  0  0  0  0
   -0.4131    0.7505   -0.9636 C   0  0  0  0  0  0  0  0  0  0  0  0
    0.1177    1.6553   -0.6569 H   0  0  0  0  0  0  0  0  0  0  0  0
    0.1472    0.3163   -1.7945 H   0  0  0  0  0  0  0  0  0  0  0  0
   -1.7838    1.1417   -1.4740 C   0  0  0  0  0  0  0  0  0  0  0  0
   -2.2462    0.9347   -2.7591 N   0  3  0  0  0  0  0  0  0  0  0  0
   -1.7159    0.4317   -3.4764 H   0  0  0  0  0  0  0  0  0  0  0  0
   -3.5038    1.4127   -2.8411 C   0  0  0  0  0  0  0  0  0  0  0  0
   -4.1331    1.3796   -3.7282 H   0  0  0  0  0  0  0  0  0  0  0  0
   -3.8490    1.9195   -1.6360 N   0  0  0  0  0  0  0  0  0  0  0  0
   -4.7418    2.3454   -1.4011 H   0  0  0  0  0  0  0  0  0  0  0  0
   -2.7800    1.7576   -0.7657 C   0  0  0  0  0  0  0  0  0  0  0  0
   -2.7330    2.0573    0.2776 H   0  0  0  0  0  0  0  0  0  0  0  0
    0.0470    0.3465    1.5629 C   0  0  0  0  0  0  0  0  0  0  0  0
    1.1854    0.1365    1.9846 O   0  0  0  0  0  0  0  0  0  0  0  0
   -0.8551    1.0750    2.2320 N   0  0  0  0  0  0  0  0  0  0  0  0
   -1.7594    1.2031    1.8040 H   0  0  0  0  0  0  0  0  0  0  0  0
   -0.6356    1.6998    3.5400 C   0  0  0  0  0  0  0  0  0  0  0  0
   -0.4284    2.7647    3.4168 H   0  0  0  0  0  0  0  0  0  0  0  0
   -1.5268    1.5885    4.1601 H   0  0  0  0  0  0  0  0  0  0  0  0
    0.2072    1.2358    4.0566 H   0  0  0  0  0  0  0  0  0  0  0  0
  5  6  2  0  0  0  0
  5  7  1  0  0  0  0
  2  3  1  0  0  0  0
  2  4  1  0  0  0  0
  2  5  1  0  0  0  0
  1  2  1  0  0  0  0
 23 24  2  0  0  0  0
 23 25  1  0  0  0  0
 21 22  1  0  0  0  0
 19 20  1  0  0  0  0
 19 21  1  0  0  0  0
 17 18  1  0  0  0  0
 17 19  1  0  0  0  0
 15 16  1  0  0  0  0
 15 17  2  0  0  0  0
 14 15  1  0  0  0  0
 14 21  2  0  0  0  0
 11 12  1  0  0  0  0
 11 13  1  0  0  0  0
 11 14  1  0  0  0  0
  9 10  1  0  0  0  0
  9 11  1  0  0  0  0
  9 23  1  0  0  0  0
  7  8  1  0  0  0  0
  7  9  1  0  0  0  0
 27 28  1  0  0  0  0
 27 29  1  0  0  0  0
 27 30  1  0  0  0  0
 25 26  1  0  0  0  0
 25 27  1  0  0  0  0
M  CHG  1  15   1
M  END
$$$$
default_name
  -OEChem-02102213163D

 30 30  0     1  0  0  0  0  0999 V2000
   -3.5507   -3.2183    1.8116 H   0  0  0  0  0  0  0  0  0  0  0  0
   -3.4597   -2.3913    1.1076 C   0  0  0  0  0  0  0  0  0  0  0  0
   -4.1577   -1.6043    1.3866 H   0  0  0  0  0  0  0  0  0  0  0  0
   -3.6807   -2.7523    0.1036 H   0  0  0  0  0  0  0  0  0  0  0  0
   -2.0477   -1.8543    1.1546 C   0  0  0  0  0  0  0  0  0  0  0  0
   -1.2227   -2.3443    1.9146 O   0  0  0  0  0  0  0  0  0  0  0  0
   -1.7517   -0.8483    0.3266 N   0  0  0  0  0  0  0  0  0  0  0  0
   -2.4847   -0.5123   -0.2804 H   0  0  0  0  0  0  0  0  0  0  0  0
   -0.4117   -0.2463    0.2186 C   0  0  1  0  0  0  0  0  0  0  0  0
    0.2987   -1.0391   -0.0285 H   0  0  0  0  0  0  0  0  0  0  0  0
   -0.4131    0.7505   -0.9636 C   0  0  0  0  0  0  0  0  0  0  0  0
    0.1177    1.6553   -0.6569 H   0  0  0  0  0  0  0  0  0  0  0  0
    0.1472    0.3163   -1.7945 H   0  0  0  0  0  0  0  0  0  0  0  0
   -1.7838    1.1417   -1.4740 C   0  0  0  0  0  0  0  0  0  0  0  0
   -2.3591    0.6880   -2.6451 N   0  3  0  0  0  0  0  0  0  0  0  0
   -1.9273   -0.0155   -3.2512 H   0  0  0  0  0  0  0  0  0  0  0  0
   -3.5774    1.2515   -2.7670 C   0  0  0  0  0  0  0  0  0  0  0  0
   -4.2740    1.0742   -3.5839 H   0  0  0  0  0  0  0  0  0  0  0  0
   -3.7872    2.0539   -1.6990 N   0  0  0  0  0  0  0  0  0  0  0  0
   -4.6225    2.6056   -1.5218 H   0  0  0  0  0  0  0  0  0  0  0  0
   -2.6703    1.9967   -0.8770 C   0  0  0  0  0  0  0  0  0  0  0  0
   -2.5193    2.5238    0.0610 H   0  0  0  0  0  0  0  0  0  0  0  0
    0.0470    0.3465    1.5629 C   0  0  0  0  0  0  0  0  0  0  0  0
    1.1854    0.1365    1.9846 O   0  0  0  0  0  0  0  0  0  0  0  0
   -0.8551    1.0750    2.2320 N   0  0  0  0  0  0  0  0  0  0  0  0
   -1.7594    1.2031    1.8040 H   0  0  0  0  0  0  0  0  0  0  0  0
   -0.6356    1.6998    3.5400 C   0  0  0  0  0  0  0  0  0  0  0  0
   -0.4284    2.7647    3.4168 H   0  0  0  0  0  0  0  0  0  0  0  0
   -1.5268    1.5885    4.1601 H   0  0  0  0  0  0  0  0  0  0  0  0
    0.2072    1.2358    4.0566 H   0  0  0  0  0  0  0  0  0  0  0  0
  5  6  2  0  0  0  0
  5  7  1  0  0  0  0
  2  3  1  0  0  0  0
  2  4  1  0  0  0  0
  2  5  1  0  0  0  0
  1  2  1  0  0  0  0
 23 24  2  0  0  0  0
 23 25  1  0  0  0  0
 21 22  1  0  0  0  0
 19 20  1  0  0  0  0
 19 21  1  0  0  0  0
 17 18  1  0  0  0  0
 17 19  1  0  0  0  0
 15 16  1  0  0  0  0
 15 17  2  0  0  0  0
 14 15  1  0  0  0  0
 14 21  2  0  0  0  0
 11 12  1  0  0  0  0
 11 13  1  0  0  0  0
 11 14  1  0  0  0  0
  9 10  1  0  0  0  0
  9 11  1  0  0  0  0
  9 23  1  0  0  0  0
  7  8  1  0  0  0  0
  7  9  1  0  0  0  0
 27 28  1  0  0  0  0
 27 29  1  0  0  0  0
 27 30  1  0  0  0  0
 25 26  1  0  0  0  0
 25 27  1  0  0  0  0
M  CHG  1  15   1
M  END
$$$$
default_name
  -OEChem-02102213163D

 30 30  0     1  0  0  0  0  0999 V2000
   -3.5507   -3.2183    1.8116 H   0  0  0  0  0  0  0  0  0  0  0  0
   -3.4597   -2.3913    1.1076 C   0  0  0  0  0  0  0  0  0  0  0  0
   -4.1577   -1.6043    1.3866 H   0  0  0  0  0  0  0  0  0  0  0  0
   -3.6807   -2.7523    0.1036 H   0  0  0  0  0  0  0  0  0  0  0  0
   -2.0477   -1.8543    1.1546 C   0  0  0  0  0  0  0  0  0  0  0  0
   -1.2227   -2.3443    1.9146 O   0  0  0  0  0  0  0  0  0  0  0  0
   -1.7517   -0.8483    0.3266 N   0  0  0  0  0  0  0  0  0  0  0  0
   -2.4847   -0.5123   -0.2804 H   0  0  0  0  0  0  0  0  0  0  0  0
   -0.4117   -0.2463    0.2186 C   0  0  1  0  0  0  0  0  0  0  0  0
    0.2987   -1.0391   -0.0285 H   0  0  0  0  0  0  0  0  0  0  0  0
   -0.4131    0.7505   -0.9636 C   0  0  0  0  0  0  0  0  0  0  0  0
    0.1177    1.6553   -0.6569 H   0  0  0  0  0  0  0  0  0  0  0  0
    0.1472    0.3163   -1.7945 H   0  0  0  0  0  0  0  0  0  0  0  0
   -1.7838    1.1417   -1.4740 C   0  0  0  0  0  0  0  0  0  0  0  0
   -2.4820    0.4862   -2.4696 N   0  3  0  0  0  0  0  0  0  0  0  0
   -2.1555   -0.3762   -2.9149 H   0  0  0  0  0  0  0  0  0  0  0  0
   -3.6576    1.1196   -2.6527 C   0  0  0  0  0  0  0  0  0  0  0  0
   -4.4271    0.8253   -3.3635 H   0  0  0  0  0  0  0  0  0  0  0  0
   -3.7200    2.1636   -1.7956 N   0  0  0  0  0  0  0  0  0  0  0  0
   -4.4927    2.8182   -1.7074 H   0  0  0  0  0  0  0  0  0  0  0  0
   -2.5509    2.1920   -1.0478 C   0  0  0  0  0  0  0  0  0  0  0  0
   -2.2866    2.9050   -0.2718 H   0  0  0  0  0  0  0  0  0  0  0  0
    0.0470    0.3465    1.5629 C   0  0  0  0  0  0  0  0  0  0  0  0
    1.1854    0.1365    1.9846 O   0  0  0  0  0  0  0  0  0  0  0  0
   -0.8551    1.0750    2.2320 N   0  0  0  0  0  0  0  0  0  0  0  0
   -1.7594    1.2031    1.8040 H   0  0  0  0  0  0  0  0  0  0  0  0
   -0.6356    1.6998    3.5400 C   0  0  0  0  0  0  0  0  0  0  0  0
   -0.4284    2.7647    3.4168 H   0  0  0  0  0  0  0  0  0  0  0  0
   -1.5268    1.5885    4.1601 H   0  0  0  0  0  0  0  0  0  0  0  0
    0.2072    1.2358    4.0566 H   0  0  0  0  0  0  0  0  0  0  0  0
  5  6  2  0  0  0  0
  5  7  1  0  0  0  0
  2  3  1  0  0  0  0
  2  4  1  0  0  0  0
  2  5  1  0  0  0  0
  1  2  1  0  0  0  0
 23 24  2  0  0  0  0
 23 25  1  0  0  0  0
 21 22  1  0  0  0  0
 19 20  1  0  0  0  0
 19 21  1  0  0  0  0
 17 18  1  0  0  0  0
 17 19  1  0  0  0  0
 15 16  1  0  0  0  0
 15 17  2  0  0  0  0
 14 15  1  0  0  0  0
 14 21  2  0  0  0  0
 11 12  1  0  0  0  0
 11 13  1  0  0  0  0
 11 14  1  0  0  0  0
  9 10  1  0  0  0  0
  9 11  1  0  0  0  0
  9 23  1  0  0  0  0
  7  8  1  0  0  0  0
  7  9  1  0  0  0  0
 27 28  1  0  0  0  0
 27 29  1  0  0  0  0
 27 30  1  0  0  0  0
 25 26  1  0  0  0  0
 25 27  1  0  0  0  0
M  CHG  1  15   1
M  END
$$$$
default_name
  -OEChem-02102213163D

 30 30  0     1  0  0  0  0  0999 V2000
   -3.5507   -3.2183    1.8116 H   0  0  0  0  0  0  0  0  0  0  0  0
   -3.4597   -2.3913    1.1076 C   0  0  0  0  0  0  0  0  0  0  0  0
   -4.1577   -1.6043    1.3866 H   0  0  0  0  0  0  0  0  0  0  0  0
   -3.6807   -2.7523    0.1036 H   0  0  0  0  0  0  0  0  0  0  0  0
   -2.0477   -1.8543    1.1546 C   0  0  0  0  0  0  0  0  0  0  0  0
   -1.2227   -2.3443    1.9146 O   0  0  0  0  0  0  0  0  0  0  0  0
   -1.7517   -0.8483    0.3266 N   0  0  0  0  0  0  0  0  0  0  0  0
   -2.4847   -0.5123   -0.2804 H   0  0  0  0  0  0  0  0  0  0  0  0
   -0.4117   -0.2463    0.2186 C   0  0  1  0  0  0  0  0  0  0  0  0
    0.2987   -1.0391   -0.0285 H   0  0  0  0  0  0  0  0  0  0  0  0
   -0.4131    0.7505   -0.9636 C   0  0  0  0  0  0  0  0  0  0  0  0
    0.1177    1.6553   -0.6569 H   0  0  0  0  0  0  0  0  0  0  0  0
    0.1472    0.3163   -1.7945 H   0  0  0  0  0  0  0  0  0  0  0  0
   -1.7838    1.1417   -1.4740 C   0  0  0  0  0  0  0  0  0  0  0  0
   -2.6066    0.3432   -2.2445 N   0  3  0  0  0  0  0  0  0  0  0  0
   -2.3848   -0.6259   -2.4902 H   0  0  0  0  0  0  0  0  0  0  0  0
   -3.7389    1.0260   -2.5061 C   0  0  0  0  0  0  0  0  0  0  0  0
   -4.5819    0.6499   -3.0821 H   0  0  0  0  0  0  0  0  0  0  0  0
   -3.6519    2.2410   -1.9190 N   0  0  0  0  0  0  0  0  0  0  0  0
   -4.3612    2.9688   -1.9452 H   0  0  0  0  0  0  0  0  0  0  0  0
   -2.4300    2.3303   -1.2666 C   0  0  0  0  0  0  0  0  0  0  0  0
   -2.0508    3.1750   -0.6981 H   0  0  0  0  0  0  0  0  0  0  0  0
    0.0470    0.3465    1.5629 C   0  0  0  0  0  0  0  0  0  0  0  0
    1.1854    0.1365    1.9846 O   0  0  0  0  0  0  0  0  0  0  0  0
   -0.8551    1.0750    2.2320 N   0  0  0  0  0  0  0  0  0  0  0  0
   -1.7594    1.2031    1.8040 H   0  0  0  0  0  0  0  0  0  0  0  0
   -0.6356    1.6998    3.5400 C   0  0  0  0  0  0  0  0  0  0  0  0
   -0.4284    2.7647    3.4168 H   0  0  0  0  0  0  0  0  0  0  0  0
   -1.5268    1.5885    4.1601 H   0  0  0  0  0  0  0  0  0  0  0  0
    0.2072    1.2358    4.0566 H   0  0  0  0  0  0  0  0  0  0  0  0
  5  6  2  0  0  0  0
  5  7  1  0  0  0  0
  2  3  1  0  0  0  0
  2  4  1  0  0  0  0
  2  5  1  0  0  0  0
  1  2  1  0  0  0  0
 23 24  2  0  0  0  0
 23 25  1  0  0  0  0
 21 22  1  0  0  0  0
 19 20  1  0  0  0  0
 19 21  1  0  0  0  0
 17 18  1  0  0  0  0
 17 19  1  0  0  0  0
 15 16  1  0  0  0  0
 15 17  2  0  0  0  0
 14 15  1  0  0  0  0
 14 21  2  0  0  0  0
 11 12  1  0  0  0  0
 11 13  1  0  0  0  0
 11 14  1  0  0  0  0
  9 10  1  0  0  0  0
  9 11  1  0  0  0  0
  9 23  1  0  0  0  0
  7  8  1  0  0  0  0
  7  9  1  0  0  0  0
 27 28  1  0  0  0  0
 27 29  1  0  0  0  0
 27 30  1  0  0  0  0
 25 26  1  0  0  0  0
 25 27  1  0  0  0  0
M  CHG  1  15   1
M  END
$$$$
default_name
  -OEChem-02102213163D

 30 30  0     1  0  0  0  0  0999 V2000
   -3.5507   -3.2183    1.8116 H   0  0  0  0  0  0  0  0  0  0  0  0
   -3.4597   -2.3913    1.1076 C   0  0  0  0  0  0  0  0  0  0  0  0
   -4.1577   -1.6043    1.3866 H   0  0  0  0  0  0  0  0  0  0  0  0
   -3.6807   -2.7523    0.1036 H   0  0  0  0  0  0  0  0  0  0  0  0
   -2.0477   -1.8543    1.1546 C   0  0  0  0  0  0  0  0  0  0  0  0
   -1.2227   -2.3443    1.9146 O   0  0  0  0  0  0  0  0  0  0  0  0
   -1.7517   -0.8483    0.3266 N   0  0  0  0  0  0  0  0  0  0  0  0
   -2.4847   -0.5123   -0.2804 H   0  0  0  0  0  0  0  0  0  0  0  0
   -0.4117   -0.2463    0.2186 C   0  0  1  0  0  0  0  0  0  0  0  0
    0.2987   -1.0391   -0.0285 H   0  0  0  0  0  0  0  0  0  0  0  0
   -0.4131    0.7505   -0.9636 C   0  0  0  0  0  0  0  0  0  0  0  0
    0.1177    1.6553   -0.6569 H   0  0  0  0  0  0  0  0  0  0  0  0
    0.1472    0.3163   -1.7945 H   0  0  0  0  0  0  0  0  0  0  0  0
   -1.7838    1.1417   -1.4740 C   0  0  0  0  0  0  0  0  0  0  0  0
   -2.7244    0.2687   -1.9853 N   0  3  0  0  0  0  0  0  0  0  0  0
   -2.5998   -0.7476   -2.0062 H   0  0  0  0  0  0  0  0  0  0  0  0
   -3.8158    0.9771   -2.3370 C   0  0  0  0  0  0  0  0  0  0  0  0
   -4.7280    0.5599   -2.7588 H   0  0  0  0  0  0  0  0  0  0  0  0
   -3.5877    2.2810   -2.0609 N   0  0  0  0  0  0  0  0  0  0  0  0
   -4.2370    3.0471   -2.2190 H   0  0  0  0  0  0  0  0  0  0  0  0
   -2.3158    2.4020   -1.5184 C   0  0  0  0  0  0  0  0  0  0  0  0
   -1.8281    3.3152   -1.1889 H   0  0  0  0  0  0  0  0  0  0  0  0
    0.0470    0.3465    1.5629 C   0  0  0  0  0  0  0  0  0  0  0  0
    1.1854    0.1365    1.9846 O   0  0  0  0  0  0  0  0  0  0  0  0
   -0.8551    1.0750    2.2320 N   0  0  0  0  0  0  0  0  0  0  0  0
   -1.7594    1.2031    1.8040 H   0  0  0  0  0  0  0  0  0  0  0  0
   -0.6356    1.6998    3.5400 C   0  0  0  0  0  0  0  0  0  0  0  0
   -0.4284    2.7647    3.4168 H   0  0  0  0  0  0  0  0  0  0  0  0
   -1.5268    1.5885    4.1601 H   0  0  0  0  0  0  0  0  0  0  0  0
    0.2072    1.2358    4.0566 H   0  0  0  0  0  0  0  0  0  0  0  0
  5  6  2  0  0  0  0
  5  7  1  0  0  0  0
  2  3  1  0  0  0  0
  2  4  1  0  0  0  0
  2  5  1  0  0  0  0
  1  2  1  0  0  0  0
 23 24  2  0  0  0  0
 23 25  1  0  0  0  0
 21 22  1  0  0  0  0
 19 20  1  0  0  0  0
 19 21  1  0  0  0  0
 17 18  1  0  0  0  0
 17 19  1  0  0  0  0
 15 16  1  0  0  0  0
 15 17  2  0  0  0  0
 14 15  1  0  0  0  0
 14 21  2  0  0  0  0
 11 12  1  0  0  0  0
 11 13  1  0  0  0  0
 11 14  1  0  0  0  0
  9 10  1  0  0  0  0
  9 11  1  0  0  0  0
  9 23  1  0  0  0  0
  7  8  1  0  0  0  0
  7  9  1  0  0  0  0
 27 28  1  0  0  0  0
 27 29  1  0  0  0  0
 27 30  1  0  0  0  0
 25 26  1  0  0  0  0
 25 27  1  0  0  0  0
M  CHG  1  15   1
M  END
$$$$
default_name
  -OEChem-02102213163D

 30 30  0     1  0  0  0  0  0999 V2000
   -3.5507   -3.2183    1.8116 H   0  0  0  0  0  0  0  0  0  0  0  0
   -3.4597   -2.3913    1.1076 C   0  0  0  0  0  0  0  0  0  0  0  0
   -4.1577   -1.6043    1.3866 H   0  0  0  0  0  0  0  0  0  0  0  0
   -3.6807   -2.7523    0.1036 H   0  0  0  0  0  0  0  0  0  0  0  0
   -2.0477   -1.8543    1.1546 C   0  0  0  0  0  0  0  0  0  0  0  0
   -1.2227   -2.3443    1.9146 O   0  0  0  0  0  0  0  0  0  0  0  0
   -1.7517   -0.8483    0.3266 N   0  0  0  0  0  0  0  0  0  0  0  0
   -2.4847   -0.5123   -0.2804 H   0  0  0  0  0  0  0  0  0  0  0  0
   -0.4117   -0.2463    0.2186 C   0  0  1  0  0  0  0  0  0  0  0  0
    0.2987   -1.0391   -0.0285 H   0  0  0  0  0  0  0  0  0  0  0  0
   -0.4131    0.7505   -0.9636 C   0  0  0  0  0  0  0  0  0  0  0  0
    0.1177    1.6553   -0.6569 H   0  0  0  0  0  0  0  0  0  0  0  0
    0.1472    0.3163   -1.7945 H   0  0  0  0  0  0  0  0  0  0  0  0
   -1.7838    1.1417   -1.4740 C   0  0  0  0  0  0  0  0  0  0  0  0
   -2.8273    0.2677   -1.7096 N   0  3  0  0  0  0  0  0  0  0  0  0
   -2.7856   -0.7329   -1.4957 H   0  0  0  0  0  0  0  0  0  0  0  0
   -3.8830    0.9761   -2.1572 C   0  0  0  0  0  0  0  0  0  0  0  0
   -4.8553    0.5614   -2.4157 H   0  0  0  0  0  0  0  0  0  0  0  0
   -3.5316    2.2807   -2.2117 N   0  0  0  0  0  0  0  0  0  0  0  0
   -4.1284    3.0477   -2.5101 H   0  0  0  0  0  0  0  0  0  0  0  0
   -2.2161    2.4023   -1.7861 C   0  0  0  0  0  0  0  0  0  0  0  0
   -1.6335    3.3163   -1.7108 H   0  0  0  0  0  0  0  0  0  0  0  0
    0.0470    0.3465    1.5629 C   0  0  0  0  0  0  0  0  0  0  0  0
    1.1854    0.1365    1.9846 O   0  0  0  0  0  0  0  0  0  0  0  0
   -0.8551    1.0750    2.2320 N   0  0  0  0  0  0  0  0  0  0  0  0
   -1.7594    1.2031    1.8040 H   0  0  0  0  0  0  0  0  0  0  0  0
   -0.6356    1.6998    3.5400 C   0  0  0  0  0  0  0  0  0  0  0  0
   -0.4284    2.7647    3.4168 H   0  0  0  0  0  0  0  0  0  0  0  0
   -1.5268    1.5885    4.1601 H   0  0  0  0  0  0  0  0  0  0  0  0
    0.2072    1.2358    4.0566 H   0  0  0  0  0  0  0  0  0  0  0  0
  5  6  2  0  0  0  0
  5  7  1  0  0  0  0
  2  3  1  0  0  0  0
  2  4  1  0  0  0  0
  2  5  1  0  0  0  0
  1  2  1  0  0  0  0
 23 24  2  0  0  0  0
 23 25  1  0  0  0  0
 21 22  1  0  0  0  0
 19 20  1  0  0  0  0
 19 21  1  0  0  0  0
 17 18  1  0  0  0  0
 17 19  1  0  0  0  0
 15 16  1  0  0  0  0
 15 17  2  0  0  0  0
 14 15  1  0  0  0  0
 14 21  2  0  0  0  0
 11 12  1  0  0  0  0
 11 13  1  0  0  0  0
 11 14  1  0  0  0  0
  9 10  1  0  0  0  0
  9 11  1  0  0  0  0
  9 23  1  0  0  0  0
  7  8  1  0  0  0  0
  7  9  1  0  0  0  0
 27 28  1  0  0  0  0
 27 29  1  0  0  0  0
 27 30  1  0  0  0  0
 25 26  1  0  0  0  0
 25 27  1  0  0  0  0
M  CHG  1  15   1
M  END
$$$$
default_name
  -OEChem-02102213163D

 30 30  0     1  0  0  0  0  0999 V2000
   -3.5507   -3.2183    1.8116 H   0  0  0  0  0  0  0  0  0  0  0  0
   -3.4597   -2.3913    1.1076 C   0  0  0  0  0  0  0  0  0  0  0  0
   -4.1577   -1.6043    1.3866 H   0  0  0  0  0  0  0  0  0  0  0  0
   -3.6807   -2.7523    0.1036 H   0  0  0  0  0  0  0  0  0  0  0  0
   -2.0477   -1.8543    1.1546 C   0  0  0  0  0  0  0  0  0  0  0  0
   -1.2227   -2.3443    1.9146 O   0  0  0  0  0  0  0  0  0  0  0  0
   -1.7517   -0.8483    0.3266 N   0  0  0  0  0  0  0  0  0  0  0  0
   -2.4847   -0.5123   -0.2804 H   0  0  0  0  0  0  0  0  0  0  0  0
   -0.4117   -0.2463    0.2186 C   0  0  1  0  0  0  0  0  0  0  0  0
    0.2987   -1.0391   -0.0285 H   0  0  0  0  0  0  0  0  0  0  0  0
   -0.4131    0.7505   -0.9636 C   0  0  0  0  0  0  0  0  0  0  0  0
    0.1177    1.6553   -0.6569 H   0  0  0  0  0  0  0  0  0  0  0  0
    0.1472    0.3163   -1.7945 H   0  0  0  0  0  0  0  0  0  0  0  0
   -1.7838    1.1417   -1.4740 C   0  0  0  0  0  0  0  0  0  0  0  0
   -2.9084    0.3403   -1.4362 N   0  3  0  0  0  0  0  0  0  0  0  0
   -2.9297   -0.5830   -0.9937 H   0  0  0  0  0  0  0  0  0  0  0  0
   -3.9361    1.0232   -1.9787 C   0  0  0  0  0  0  0  0  0  0  0  0
   -4.9552    0.6544   -2.0761 H   0  0  0  0  0  0  0  0  0  0  0  0
   -3.4876    2.2402   -2.3609 N   0  0  0  0  0  0  0  0  0  0  0  0
   -4.0430    2.9706   -2.7986 H   0  0  0  0  0  0  0  0  0  0  0  0
   -2.1376    2.3311   -2.0513 C   0  0  0  0  0  0  0  0  0  0  0  0
   -1.4803    3.1780   -2.2281 H   0  0  0  0  0  0  0  0  0  0  0  0
    0.0470    0.3465    1.5629 C   0  0  0  0  0  0  0  0  0  0  0  0
    1.1854    0.1365    1.9846 O   0  0  0  0  0  0  0  0  0  0  0  0
   -0.8551    1.0750    2.2320 N   0  0  0  0  0  0  0  0  0  0  0  0
   -1.7594    1.2031    1.8040 H   0  0  0  0  0  0  0  0  0  0  0  0
   -0.6356    1.6998    3.5400 C   0  0  0  0  0  0  0  0  0  0  0  0
   -0.4284    2.7647    3.4168 H   0  0  0  0  0  0  0  0  0  0  0  0
   -1.5268    1.5885    4.1601 H   0  0  0  0  0  0  0  0  0  0  0  0
    0.2072    1.2358    4.0566 H   0  0  0  0  0  0  0  0  0  0  0  0
  5  6  2  0  0  0  0
  5  7  1  0  0  0  0
  2  3  1  0  0  0  0
  2  4  1  0  0  0  0
  2  5  1  0  0  0  0
  1  2  1  0  0  0  0
 23 24  2  0  0  0  0
 23 25  1  0  0  0  0
 21 22  1  0  0  0  0
 19 20  1  0  0  0  0
 19 21  1  0  0  0  0
 17 18  1  0  0  0  0
 17 19  1  0  0  0  0
 15 16  1  0  0  0  0
 15 17  2  0  0  0  0
 14 15  1  0  0  0  0
 14 21  2  0  0  0  0
 11 12  1  0  0  0  0
 11 13  1  0  0  0  0
 11 14  1  0  0  0  0
  9 10  1  0  0  0  0
  9 11  1  0  0  0  0
  9 23  1  0  0  0  0
  7  8  1  0  0  0  0
  7  9  1  0  0  0  0
 27 28  1  0  0  0  0
 27 29  1  0  0  0  0
 27 30  1  0  0  0  0
 25 26  1  0  0  0  0
 25 27  1  0  0  0  0
M  CHG  1  15   1
M  END
$$$$
default_name
  -OEChem-02102213163D

 30 30  0     1  0  0  0  0  0999 V2000
   -3.5507   -3.2183    1.8116 H   0  0  0  0  0  0  0  0  0  0  0  0
   -3.4597   -2.3913    1.1076 C   0  0  0  0  0  0  0  0  0  0  0  0
   -4.1577   -1.6043    1.3866 H   0  0  0  0  0  0  0  0  0  0  0  0
   -3.6807   -2.7523    0.1036 H   0  0  0  0  0  0  0  0  0  0  0  0
   -2.0477   -1.8543    1.1546 C   0  0  0  0  0  0  0  0  0  0  0  0
   -1.2227   -2.3443    1.9146 O   0  0  0  0  0  0  0  0  0  0  0  0
   -1.7517   -0.8483    0.3266 N   0  0  0  0  0  0  0  0  0  0  0  0
   -2.4847   -0.5123   -0.2804 H   0  0  0  0  0  0  0  0  0  0  0  0
   -0.4117   -0.2463    0.2186 C   0  0  1  0  0  0  0  0  0  0  0  0
    0.2987   -1.0391   -0.0285 H   0  0  0  0  0  0  0  0  0  0  0  0
   -0.4131    0.7505   -0.9636 C   0  0  0  0  0  0  0  0  0  0  0  0
    0.1177    1.6553   -0.6569 H   0  0  0  0  0  0  0  0  0  0  0  0
    0.1472    0.3163   -1.7945 H   0  0  0  0  0  0  0  0  0  0  0  0
   -1.7838    1.1417   -1.4740 C   0  0  0  0  0  0  0  0  0  0  0  0
   -2.9621    0.4816   -1.1837 N   0  3  0  0  0  0  0  0  0  0  0  0
   -3.0223   -0.3079   -0.5342 H   0  0  0  0  0  0  0  0  0  0  0  0
   -3.9712    1.1151   -1.8138 C   0  0  0  0  0  0  0  0  0  0  0  0
   -5.0208    0.8326   -1.7632 H   0  0  0  0  0  0  0  0  0  0  0  0
   -3.4586    2.1623   -2.4986 N   0  0  0  0  0  0  0  0  0  0  0  0
   -3.9865    2.8211   -3.0650 H   0  0  0  0  0  0  0  0  0  0  0  0
   -2.0858    2.1934   -2.2962 C   0  0  0  0  0  0  0  0  0  0  0  0
   -1.3791    2.9099   -2.7057 H   0  0  0  0  0  0  0  0  0  0  0  0
    0.0470    0.3465    1.5629 C   0  0  0  0  0  0  0  0  0  0  0  0
    1.1854    0.1365    1.9846 O   0  0  0  0  0  0  0  0  0  0  0  0
   -0.8551    1.0750    2.2320 N   0  0  0  0  0  0  0  0  0  0  0  0
   -1.7594    1.2031    1.8040 H   0  0  0  0  0  0  0  0  0  0  0  0
   -0.6356    1.6998    3.5400 C   0  0  0  0  0  0  0  0  0  0  0  0
   -0.4284    2.7647    3.4168 H   0  0  0  0  0  0  0  0  0  0  0  0
   -1.5268    1.5885    4.1601 H   0  0  0  0  0  0  0  0  0  0  0  0
    0.2072    1.2358    4.0566 H   0  0  0  0  0  0  0  0  0  0  0  0
  5  6  2  0  0  0  0
  5  7  1  0  0  0  0
  2  3  1  0  0  0  0
  2  4  1  0  0  0  0
  2  5  1  0  0  0  0
  1  2  1  0  0  0  0
 23 24  2  0  0  0  0
 23 25  1  0  0  0  0
 21 22  1  0  0  0  0
 19 20  1  0  0  0  0
 19 21  1  0  0  0  0
 17 18  1  0  0  0  0
 17 19  1  0  0  0  0
 15 16  1  0  0  0  0
 15 17  2  0  0  0  0
 14 15  1  0  0  0  0
 14 21  2  0  0  0  0
 11 12  1  0  0  0  0
 11 13  1  0  0  0  0
 11 14  1  0  0  0  0
  9 10  1  0  0  0  0
  9 11  1  0  0  0  0
  9 23  1  0  0  0  0
  7  8  1  0  0  0  0
  7  9  1  0  0  0  0
 27 28  1  0  0  0  0
 27 29  1  0  0  0  0
 27 30  1  0  0  0  0
 25 26  1  0  0  0  0
 25 27  1  0  0  0  0
M  CHG  1  15   1
M  END
$$$$
default_name
  -OEChem-02102213163D

 30 30  0     1  0  0  0  0  0999 V2000
   -3.5507   -3.2183    1.8116 H   0  0  0  0  0  0  0  0  0  0  0  0
   -3.4597   -2.3913    1.1076 C   0  0  0  0  0  0  0  0  0  0  0  0
   -4.1577   -1.6043    1.3866 H   0  0  0  0  0  0  0  0  0  0  0  0
   -3.6807   -2.7523    0.1036 H   0  0  0  0  0  0  0  0  0  0  0  0
   -2.0477   -1.8543    1.1546 C   0  0  0  0  0  0  0  0  0  0  0  0
   -1.2227   -2.3443    1.9146 O   0  0  0  0  0  0  0  0  0  0  0  0
   -1.7517   -0.8483    0.3266 N   0  0  0  0  0  0  0  0  0  0  0  0
   -2.4847   -0.5123   -0.2804 H   0  0  0  0  0  0  0  0  0  0  0  0
   -0.4117   -0.2463    0.2186 C   0  0  1  0  0  0  0  0  0  0  0  0
    0.2987   -1.0391   -0.0285 H   0  0  0  0  0  0  0  0  0  0  0  0
   -0.4131    0.7505   -0.9636 C   0  0  0  0  0  0  0  0  0  0  0  0
    0.1177    1.6553   -0.6569 H   0  0  0  0  0  0  0  0  0  0  0  0
    0.1472    0.3163   -1.7945 H   0  0  0  0  0  0  0  0  0  0  0  0
   -1.7838    1.1417   -1.4740 C   0  0  0  0  0  0  0  0  0  0  0  0
   -2.9847    0.6819   -0.9693 N   0  3  0  0  0  0  0  0  0  0  0  0
   -3.0570    0.0735   -0.1487 H   0  0  0  0  0  0  0  0  0  0  0  0
   -3.9861    1.2456   -1.6737 C   0  0  0  0  0  0  0  0  0  0  0  0
   -5.0478    1.0837   -1.4983 H   0  0  0  0  0  0  0  0  0  0  0  0
   -3.4466    2.0522   -2.6152 N   0  0  0  0  0  0  0  0  0  0  0  0
   -3.9628    2.6093   -3.2910 H   0  0  0  0  0  0  0  0  0  0  0  0
   -2.0641    1.9985   -2.5038 C   0  0  0  0  0  0  0  0  0  0  0  0
   -1.3366    2.5302   -3.1109 H   0  0  0  0  0  0  0  0  0  0  0  0
    0.0470    0.3465    1.5629 C   0  0  0  0  0  0  0  0  0  0  0  0
    1.1854    0.1365    1.9846 O   0  0  0  0  0  0  0  0  0  0  0  0
   -0.8551    1.0750    2.2320 N   0  0  0  0  0  0  0  0  0  0  0  0
   -1.7594    1.2031    1.8040 H   0  0  0  0  0  0  0  0  0  0  0  0
   -0.6356    1.6998    3.5400 C   0  0  0  0  0  0  0  0  0  0  0  0
   -0.4284    2.7647    3.4168 H   0  0  0  0  0  0  0  0  0  0  0  0
   -1.5268    1.5885    4.1601 H   0  0  0  0  0  0  0  0  0  0  0  0
    0.2072    1.2358    4.0566 H   0  0  0  0  0  0  0  0  0  0  0  0
  5  6  2  0  0  0  0
  5  7  1  0  0  0  0
  2  3  1  0  0  0  0
  2  4  1  0  0  0  0
  2  5  1  0  0  0  0
  1  2  1  0  0  0  0
 23 24  2  0  0  0  0
 23 25  1  0  0  0  0
 21 22  1  0  0  0  0
 19 20  1  0  0  0  0
 19 21  1  0  0  0  0
 17 18  1  0  0  0  0
 17 19  1  0  0  0  0
 15 16  1  0  0  0  0
 15 17  2  0  0  0  0
 14 15  1  0  0  0  0
 14 21  2  0  0  0  0
 11 12  1  0  0  0  0
 11 13  1  0  0  0  0
 11 14  1  0  0  0  0
  9 10  1  0  0  0  0
  9 11  1  0  0  0  0
  9 23  1  0  0  0  0
  7  8  1  0  0  0  0
  7  9  1  0  0  0  0
 27 28  1  0  0  0  0
 27 29  1  0  0  0  0
 27 30  1  0  0  0  0
 25 26  1  0  0  0  0
 25 27  1  0  0  0  0
M  CHG  1  15   1
M  END
$$$$
default_name
  -OEChem-02102213163D

 30 30  0     1  0  0  0  0  0999 V2000
   -3.5507   -3.2183    1.8116 H   0  0  0  0  0  0  0  0  0  0  0  0
   -3.4597   -2.3913    1.1076 C   0  0  0  0  0  0  0  0  0  0  0  0
   -4.1577   -1.6043    1.3866 H   0  0  0  0  0  0  0  0  0  0  0  0
   -3.6807   -2.7523    0.1036 H   0  0  0  0  0  0  0  0  0  0  0  0
   -2.0477   -1.8543    1.1546 C   0  0  0  0  0  0  0  0  0  0  0  0
   -1.2227   -2.3443    1.9146 O   0  0  0  0  0  0  0  0  0  0  0  0
   -1.7517   -0.8483    0.3266 N   0  0  0  0  0  0  0  0  0  0  0  0
   -2.4847   -0.5123   -0.2804 H   0  0  0  0  0  0  0  0  0  0  0  0
   -0.4117   -0.2463    0.2186 C   0  0  1  0  0  0  0  0  0  0  0  0
    0.2987   -1.0391   -0.0285 H   0  0  0  0  0  0  0  0  0  0  0  0
   -0.4131    0.7505   -0.9636 C   0  0  0  0  0  0  0  0  0  0  0  0
    0.1177    1.6553   -0.6569 H   0  0  0  0  0  0  0  0  0  0  0  0
    0.1472    0.3163   -1.7945 H   0  0  0  0  0  0  0  0  0  0  0  0
   -1.7838    1.1417   -1.4740 C   0  0  0  0  0  0  0  0  0  0  0  0
   -2.9748    0.9277   -0.8076 N   0  3  0  0  0  0  0  0  0  0  0  0
   -3.0314    0.5353    0.1366 H   0  0  0  0  0  0  0  0  0  0  0  0
   -3.9798    1.4058   -1.5679 C   0  0  0  0  0  0  0  0  0  0  0  0
   -5.0342    1.3906   -1.2995 H   0  0  0  0  0  0  0  0  0  0  0  0
   -3.4524    1.9176   -2.7029 N   0  0  0  0  0  0  0  0  0  0  0  0
   -3.9735    2.3497   -3.4613 H   0  0  0  0  0  0  0  0  0  0  0  0
   -2.0740    1.7597   -2.6602 C   0  0  0  0  0  0  0  0  0  0  0  0
   -1.3557    2.0647   -3.4162 H   0  0  0  0  0  0  0  0  0  0  0  0
    0.0470    0.3465    1.5629 C   0  0  0  0  0  0  0  0  0  0  0  0
    1.1854    0.1365    1.9846 O   0  0  0  0  0  0  0  0  0  0  0  0
   -0.8551    1.0750    2.2320 N   0  0  0  0  0  0  0  0  0  0  0  0
   -1.7594    1.2031    1.8040 H   0  0  0  0  0  0  0  0  0  0  0  0
   -0.6356    1.6998    3.5400 C   0  0  0  0  0  0  0  0  0  0  0  0
   -0.4284    2.7647    3.4168 H   0  0  0  0  0  0  0  0  0  0  0  0
   -1.5268    1.5885    4.1601 H   0  0  0  0  0  0  0  0  0  0  0  0
    0.2072    1.2358    4.0566 H   0  0  0  0  0  0  0  0  0  0  0  0
  5  6  2  0  0  0  0
  5  7  1  0  0  0  0
  2  3  1  0  0  0  0
  2  4  1  0  0  0  0
  2  5  1  0  0  0  0
  1  2  1  0  0  0  0
 23 24  2  0  0  0  0
 23 25  1  0  0  0  0
 21 22  1  0  0  0  0
 19 20  1  0  0  0  0
 19 21  1  0  0  0  0
 17 18  1  0  0  0  0
 17 19  1  0  0  0  0
 15 16  1  0  0  0  0
 15 17  2  0  0  0  0
 14 15  1  0  0  0  0
 14 21  2  0  0  0  0
 11 12  1  0  0  0  0
 11 13  1  0  0  0  0
 11 14  1  0  0  0  0
  9 10  1  0  0  0  0
  9 11  1  0  0  0  0
  9 23  1  0  0  0  0
  7  8  1  0  0  0  0
  7  9  1  0  0  0  0
 27 28  1  0  0  0  0
 27 29  1  0  0  0  0
 27 30  1  0  0  0  0
 25 26  1  0  0  0  0
 25 27  1  0  0  0  0
M  CHG  1  15   1
M  END
$$$$
default_name
  -OEChem-02102213163D

 30 30  0     1  0  0  0  0  0999 V2000
   -3.5507   -3.2183    1.8116 H   0  0  0  0  0  0  0  0  0  0  0  0
   -3.4597   -2.3913    1.1076 C   0  0  0  0  0  0  0  0  0  0  0  0
   -4.1577   -1.6043    1.3866 H   0  0  0  0  0  0  0  0  0  0  0  0
   -3.6807   -2.7523    0.1036 H   0  0  0  0  0  0  0  0  0  0  0  0
   -2.0477   -1.8543    1.1546 C   0  0  0  0  0  0  0  0  0  0  0  0
   -1.2227   -2.3443    1.9146 O   0  0  0  0  0  0  0  0  0  0  0  0
   -1.7517   -0.8483    0.3266 N   0  0  0  0  0  0  0  0  0  0  0  0
   -2.4847   -0.5123   -0.2804 H   0  0  0  0  0  0  0  0  0  0  0  0
   -0.4117   -0.2463    0.2186 C   0  0  1  0  0  0  0  0  0  0  0  0
    0.2987   -1.0391   -0.0285 H   0  0  0  0  0  0  0  0  0  0  0  0
   -0.4131    0.7505   -0.9636 C   0  0  0  0  0  0  0  0  0  0  0  0
    0.1177    1.6553   -0.6569 H   0  0  0  0  0  0  0  0  0  0  0  0
    0.1472    0.3163   -1.7945 H   0  0  0  0  0  0  0  0  0  0  0  0
   -1.7838    1.1417   -1.4740 C   0  0  0  0  0  0  0  0  0  0  0  0
   -2.9330    1.2020   -0.7097 N   0  3  0  0  0  0  0  0  0  0  0  0
   -2.9474    1.0460    0.3023 H   0  0  0  0  0  0  0  0  0  0  0  0
   -3.9526    1.5847   -1.5037 C   0  0  0  0  0  0  0  0  0  0  0  0
   -4.9810    1.7326   -1.1802 H   0  0  0  0  0  0  0  0  0  0  0  0
   -3.4756    1.7674   -2.7557 N   0  0  0  0  0  0  0  0  0  0  0  0
   -4.0178    2.0600   -3.5643 H   0  0  0  0  0  0  0  0  0  0  0  0
   -2.1149    1.4932   -2.7546 C   0  0  0  0  0  0  0  0  0  0  0  0
   -1.4353    1.5453   -3.6007 H   0  0  0  0  0  0  0  0  0  0  0  0
    0.0470    0.3465    1.5629 C   0  0  0  0  0  0  0  0  0  0  0  0
    1.1854    0.1365    1.9846 O   0  0  0  0  0  0  0  0  0  0  0  0
   -0.8551    1.0750    2.2320 N   0  0  0  0  0  0  0  0  0  0  0  0
   -1.7594    1.2031    1.8040 H   0  0  0  0  0  0  0  0  0  0  0  0
   -0.6356    1.6998    3.5400 C   0  0  0  0  0  0  0  0  0  0  0  0
   -0.4284    2.7647    3.4168 H   0  0  0  0  0  0  0  0  0  0  0  0
   -1.5268    1.5885    4.1601 H   0  0  0  0  0  0  0  0  0  0  0  0
    0.2072    1.2358    4.0566 H   0  0  0  0  0  0  0  0  0  0  0  0
  5  6  2  0  0  0  0
  5  7  1  0  0  0  0
  2  3  1  0  0  0  0
  2  4  1  0  0  0  0
  2  5  1  0  0  0  0
  1  2  1  0  0  0  0
 23 24  2  0  0  0  0
 23 25  1  0  0  0  0
 21 22  1  0  0  0  0
 19 20  1  0  0  0  0
 19 21  1  0  0  0  0
 17 18  1  0  0  0  0
 17 19  1  0  0  0  0
 15 16  1  0  0  0  0
 15 17  2  0  0  0  0
 14 15  1  0  0  0  0
 14 21  2  0  0  0  0
 11 12  1  0  0  0  0
 11 13  1  0  0  0  0
 11 14  1  0  0  0  0
  9 10  1  0  0  0  0
  9 11  1  0  0  0  0
  9 23  1  0  0  0  0
  7  8  1  0  0  0  0
  7  9  1  0  0  0  0
 27 28  1  0  0  0  0
 27 29  1  0  0  0  0
 27 30  1  0  0  0  0
 25 26  1  0  0  0  0
 25 27  1  0  0  0  0
M  CHG  1  15   1
M  END
$$$$
default_name
  -OEChem-02102213163D

 30 30  0     1  0  0  0  0  0999 V2000
   -3.5507   -3.2183    1.8116 H   0  0  0  0  0  0  0  0  0  0  0  0
   -3.4597   -2.3913    1.1076 C   0  0  0  0  0  0  0  0  0  0  0  0
   -4.1577   -1.6043    1.3866 H   0  0  0  0  0  0  0  0  0  0  0  0
   -3.6807   -2.7523    0.1036 H   0  0  0  0  0  0  0  0  0  0  0  0
   -2.0477   -1.8543    1.1546 C   0  0  0  0  0  0  0  0  0  0  0  0
   -1.2227   -2.3443    1.9146 O   0  0  0  0  0  0  0  0  0  0  0  0
   -1.7517   -0.8483    0.3266 N   0  0  0  0  0  0  0  0  0  0  0  0
   -2.4847   -0.5123   -0.2804 H   0  0  0  0  0  0  0  0  0  0  0  0
   -0.4117   -0.2463    0.2186 C   0  0  1  0  0  0  0  0  0  0  0  0
    0.2987   -1.0391   -0.0285 H   0  0  0  0  0  0  0  0  0  0  0  0
   -0.4131    0.7505   -0.9636 C   0  0  0  0  0  0  0  0  0  0  0  0
    0.1177    1.6553   -0.6569 H   0  0  0  0  0  0  0  0  0  0  0  0
    0.1472    0.3163   -1.7945 H   0  0  0  0  0  0  0  0  0  0  0  0
   -1.7838    1.1417   -1.4740 C   0  0  0  0  0  0  0  0  0  0  0  0
   -2.8621    1.4863   -0.6822 N   0  3  0  0  0  0  0  0  0  0  0  0
   -2.8105    1.5708    0.3371 H   0  0  0  0  0  0  0  0  0  0  0  0
   -3.9065    1.7702   -1.4854 C   0  0  0  0  0  0  0  0  0  0  0  0
   -4.8918    2.0861   -1.1488 H   0  0  0  0  0  0  0  0  0  0  0  0
   -3.5146    1.6121   -2.7699 N   0  0  0  0  0  0  0  0  0  0  0  0
   -4.0928    1.7599   -3.5929 H   0  0  0  0  0  0  0  0  0  0  0  0
   -2.1840    1.2173   -2.7807 C   0  0  0  0  0  0  0  0  0  0  0  0
   -1.5698    1.0073   -3.6520 H   0  0  0  0  0  0  0  0  0  0  0  0
    0.0470    0.3465    1.5629 C   0  0  0  0  0  0  0  0  0  0  0  0
    1.1854    0.1365    1.9846 O   0  0  0  0  0  0  0  0  0  0  0  0
   -0.8551    1.0750    2.2320 N   0  0  0  0  0  0  0  0  0  0  0  0
   -1.7594    1.2031    1.8040 H   0  0  0  0  0  0  0  0  0  0  0  0
   -0.6356    1.6998    3.5400 C   0  0  0  0  0  0  0  0  0  0  0  0
   -0.4284    2.7647    3.4168 H   0  0  0  0  0  0  0  0  0  0  0  0
   -1.5268    1.5885    4.1601 H   0  0  0  0  0  0  0  0  0  0  0  0
    0.2072    1.2358    4.0566 H   0  0  0  0  0  0  0  0  0  0  0  0
  5  6  2  0  0  0  0
  5  7  1  0  0  0  0
  2  3  1  0  0  0  0
  2  4  1  0  0  0  0
  2  5  1  0  0  0  0
  1  2  1  0  0  0  0
 23 24  2  0  0  0  0
 23 25  1  0  0  0  0
 21 22  1  0  0  0  0
 19 20  1  0  0  0  0
 19 21  1  0  0  0  0
 17 18  1  0  0  0  0
 17 19  1  0  0  0  0
 15 16  1  0  0  0  0
 15 17  2  0  0  0  0
 14 15  1  0  0  0  0
 14 21  2  0  0  0  0
 11 12  1  0  0  0  0
 11 13  1  0  0  0  0
 11 14  1  0  0  0  0
  9 10  1  0  0  0  0
  9 11  1  0  0  0  0
  9 23  1  0  0  0  0
  7  8  1  0  0  0  0
  7  9  1  0  0  0  0
 27 28  1  0  0  0  0
 27 29  1  0  0  0  0
 27 30  1  0  0  0  0
 25 26  1  0  0  0  0
 25 27  1  0  0  0  0
M  CHG  1  15   1
M  END
$$$$
default_name
  -OEChem-02102213163D

 30 30  0     1  0  0  0  0  0999 V2000
   -3.5507   -3.2183    1.8116 H   0  0  0  0  0  0  0  0  0  0  0  0
   -3.4597   -2.3913    1.1076 C   0  0  0  0  0  0  0  0  0  0  0  0
   -4.1577   -1.6043    1.3866 H   0  0  0  0  0  0  0  0  0  0  0  0
   -3.6807   -2.7523    0.1036 H   0  0  0  0  0  0  0  0  0  0  0  0
   -2.0477   -1.8543    1.1546 C   0  0  0  0  0  0  0  0  0  0  0  0
   -1.2227   -2.3443    1.9146 O   0  0  0  0  0  0  0  0  0  0  0  0
   -1.7517   -0.8483    0.3266 N   0  0  0  0  0  0  0  0  0  0  0  0
   -2.4847   -0.5123   -0.2804 H   0  0  0  0  0  0  0  0  0  0  0  0
   -0.4117   -0.2463    0.2186 C   0  0  1  0  0  0  0  0  0  0  0  0
    0.2987   -1.0391   -0.0285 H   0  0  0  0  0  0  0  0  0  0  0  0
   -0.4131    0.7505   -0.9636 C   0  0  0  0  0  0  0  0  0  0  0  0
    0.1177    1.6553   -0.6569 H   0  0  0  0  0  0  0  0  0  0  0  0
    0.1472    0.3163   -1.7945 H   0  0  0  0  0  0  0  0  0  0  0  0
   -1.7838    1.1417   -1.4740 C   0  0  0  0  0  0  0  0  0  0  0  0
   -2.7669    1.7612   -0.7270 N   0  3  0  0  0  0  0  0  0  0  0  0
   -2.6303    2.0739    0.2386 H   0  0  0  0  0  0  0  0  0  0  0  0
   -3.8445    1.9497   -1.5144 C   0  0  0  0  0  0  0  0  0  0  0  0
   -4.7727    2.4272   -1.2072 H   0  0  0  0  0  0  0  0  0  0  0  0
   -3.5668    1.4621   -2.7446 N   0  0  0  0  0  0  0  0  0  0  0  0
   -4.1934    1.4698   -3.5452 H   0  0  0  0  0  0  0  0  0  0  0  0
   -2.2765    0.9507   -2.7366 C   0  0  0  0  0  0  0  0  0  0  0  0
   -1.7500    0.4873   -3.5664 H   0  0  0  0  0  0  0  0  0  0  0  0
    0.0470    0.3465    1.5629 C   0  0  0  0  0  0  0  0  0  0  0  0
    1.1854    0.1365    1.9846 O   0  0  0  0  0  0  0  0  0  0  0  0
   -0.8551    1.0750    2.2320 N   0  0  0  0  0  0  0  0  0  0  0  0
   -1.7594    1.2031    1.8040 H   0  0  0  0  0  0  0  0  0  0  0  0
   -0.6356    1.6998    3.5400 C   0  0  0  0  0  0  0  0  0  0  0  0
   -0.4284    2.7647    3.4168 H   0  0  0  0  0  0  0  0  0  0  0  0
   -1.5268    1.5885    4.1601 H   0  0  0  0  0  0  0  0  0  0  0  0
    0.2072    1.2358    4.0566 H   0  0  0  0  0  0  0  0  0  0  0  0
  5  6  2  0  0  0  0
  5  7  1  0  0  0  0
  2  3  1  0  0  0  0
  2  4  1  0  0  0  0
  2  5  1  0  0  0  0
  1  2  1  0  0  0  0
 23 24  2  0  0  0  0
 23 25  1  0  0  0  0
 21 22  1  0  0  0  0
 19 20  1  0  0  0  0
 19 21  1  0  0  0  0
 17 18  1  0  0  0  0
 17 19  1  0  0  0  0
 15 16  1  0  0  0  0
 15 17  2  0  0  0  0
 14 15  1  0  0  0  0
 14 21  2  0  0  0  0
 11 12  1  0  0  0  0
 11 13  1  0  0  0  0
 11 14  1  0  0  0  0
  9 10  1  0  0  0  0
  9 11  1  0  0  0  0
  9 23  1  0  0  0  0
  7  8  1  0  0  0  0
  7  9  1  0  0  0  0
 27 28  1  0  0  0  0
 27 29  1  0  0  0  0
 27 30  1  0  0  0  0
 25 26  1  0  0  0  0
 25 27  1  0  0  0  0
M  CHG  1  15   1
M  END
$$$$
default_name
  -OEChem-02102213163D

 30 30  0     1  0  0  0  0  0999 V2000
   -3.5507   -3.2183    1.8116 H   0  0  0  0  0  0  0  0  0  0  0  0
   -3.4597   -2.3913    1.1076 C   0  0  0  0  0  0  0  0  0  0  0  0
   -4.1577   -1.6043    1.3866 H   0  0  0  0  0  0  0  0  0  0  0  0
   -3.6807   -2.7523    0.1036 H   0  0  0  0  0  0  0  0  0  0  0  0
   -2.0477   -1.8543    1.1546 C   0  0  0  0  0  0  0  0  0  0  0  0
   -1.2227   -2.3443    1.9146 O   0  0  0  0  0  0  0  0  0  0  0  0
   -1.7517   -0.8483    0.3266 N   0  0  0  0  0  0  0  0  0  0  0  0
   -2.4847   -0.5123   -0.2804 H   0  0  0  0  0  0  0  0  0  0  0  0
   -0.4117   -0.2463    0.2186 C   0  0  1  0  0  0  0  0  0  0  0  0
    0.2987   -1.0391   -0.0285 H   0  0  0  0  0  0  0  0  0  0  0  0
   -0.4131    0.7505   -0.9636 C   0  0  0  0  0  0  0  0  0  0  0  0
    0.1177    1.6553   -0.6569 H   0  0  0  0  0  0  0  0  0  0  0  0
    0.1472    0.3163   -1.7945 H   0  0  0  0  0  0  0  0  0  0  0  0
   -1.7838    1.1417   -1.4740 C   0  0  0  0  0  0  0  0  0  0  0  0
   -2.6541    2.0079   -0.8410 N   0  3  0  0  0  0  0  0  0  0  0  0
   -2.4188    2.5210    0.0135 H   0  0  0  0  0  0  0  0  0  0  0  0
   -3.7709    2.1108   -1.5885 C   0  0  0  0  0  0  0  0  0  0  0  0
   -4.6318    2.7326   -1.3515 H   0  0  0  0  0  0  0  0  0  0  0  0
   -3.6287    1.3277   -2.6816 N   0  0  0  0  0  0  0  0  0  0  0  0
   -4.3126    1.2096   -3.4244 H   0  0  0  0  0  0  0  0  0  0  0  0
   -2.3862    0.7116   -2.6253 C   0  0  0  0  0  0  0  0  0  0  0  0
   -1.9638    0.0208   -3.3498 H   0  0  0  0  0  0  0  0  0  0  0  0
    0.0470    0.3465    1.5629 C   0  0  0  0  0  0  0  0  0  0  0  0
    1.1854    0.1365    1.9846 O   0  0  0  0  0  0  0  0  0  0  0  0
   -0.8551    1.0750    2.2320 N   0  0  0  0  0  0  0  0  0  0  0  0
   -1.7594    1.2031    1.8040 H   0  0  0  0  0  0  0  0  0  0  0  0
   -0.6356    1.6998    3.5400 C   0  0  0  0  0  0  0  0  0  0  0  0
   -0.4284    2.7647    3.4168 H   0  0  0  0  0  0  0  0  0  0  0  0
   -1.5268    1.5885    4.1601 H   0  0  0  0  0  0  0  0  0  0  0  0
    0.2072    1.2358    4.0566 H   0  0  0  0  0  0  0  0  0  0  0  0
  5  6  2  0  0  0  0
  5  7  1  0  0  0  0
  2  3  1  0  0  0  0
  2  4  1  0  0  0  0
  2  5  1  0  0  0  0
  1  2  1  0  0  0  0
 23 24  2  0  0  0  0
 23 25  1  0  0  0  0
 21 22  1  0  0  0  0
 19 20  1  0  0  0  0
 19 21  1  0  0  0  0
 17 18  1  0  0  0  0
 17 19  1  0  0  0  0
 15 16  1  0  0  0  0
 15 17  2  0  0  0  0
 14 15  1  0  0  0  0
 14 21  2  0  0  0  0
 11 12  1  0  0  0  0
 11 13  1  0  0  0  0
 11 14  1  0  0  0  0
  9 10  1  0  0  0  0
  9 11  1  0  0  0  0
  9 23  1  0  0  0  0
  7  8  1  0  0  0  0
  7  9  1  0  0  0  0
 27 28  1  0  0  0  0
 27 29  1  0  0  0  0
 27 30  1  0  0  0  0
 25 26  1  0  0  0  0
 25 27  1  0  0  0  0
M  CHG  1  15   1
M  END
$$$$
default_name
  -OEChem-02102213163D

 30 30  0     1  0  0  0  0  0999 V2000
   -3.5507   -3.2183    1.8116 H   0  0  0  0  0  0  0  0  0  0  0  0
   -3.4597   -2.3913    1.1076 C   0  0  0  0  0  0  0  0  0  0  0  0
   -4.1577   -1.6043    1.3866 H   0  0  0  0  0  0  0  0  0  0  0  0
   -3.6807   -2.7523    0.1036 H   0  0  0  0  0  0  0  0  0  0  0  0
   -2.0477   -1.8543    1.1546 C   0  0  0  0  0  0  0  0  0  0  0  0
   -1.2227   -2.3443    1.9146 O   0  0  0  0  0  0  0  0  0  0  0  0
   -1.7517   -0.8483    0.3266 N   0  0  0  0  0  0  0  0  0  0  0  0
   -2.4847   -0.5123   -0.2804 H   0  0  0  0  0  0  0  0  0  0  0  0
   -0.4117   -0.2463    0.2186 C   0  0  1  0  0  0  0  0  0  0  0  0
    0.2987   -1.0391   -0.0285 H   0  0  0  0  0  0  0  0  0  0  0  0
   -0.4131    0.7505   -0.9636 C   0  0  0  0  0  0  0  0  0  0  0  0
    0.1177    1.6553   -0.6569 H   0  0  0  0  0  0  0  0  0  0  0  0
    0.1472    0.3163   -1.7945 H   0  0  0  0  0  0  0  0  0  0  0  0
   -1.7838    1.1417   -1.4740 C   0  0  0  0  0  0  0  0  0  0  0  0
   -2.5311    2.2097   -1.0165 N   0  3  0  0  0  0  0  0  0  0  0  0
   -2.1907    2.8817   -0.3229 H   0  0  0  0  0  0  0  0  0  0  0  0
   -3.6907    2.2427   -1.7028 C   0  0  0  0  0  0  0  0  0  0  0  0
   -4.4788    2.9815   -1.5718 H   0  0  0  0  0  0  0  0  0  0  0  0
   -3.6959    1.2180   -2.5851 N   0  0  0  0  0  0  0  0  0  0  0  0
   -4.4424    0.9970   -3.2388 H   0  0  0  0  0  0  0  0  0  0  0  0
   -2.5055    0.5162   -2.4544 C   0  0  0  0  0  0  0  0  0  0  0  0
   -2.1965   -0.3604   -3.0170 H   0  0  0  0  0  0  0  0  0  0  0  0
    0.0470    0.3465    1.5629 C   0  0  0  0  0  0  0  0  0  0  0  0
    1.1854    0.1365    1.9846 O   0  0  0  0  0  0  0  0  0  0  0  0
   -0.8551    1.0750    2.2320 N   0  0  0  0  0  0  0  0  0  0  0  0
   -1.7594    1.2031    1.8040 H   0  0  0  0  0  0  0  0  0  0  0  0
   -0.6356    1.6998    3.5400 C   0  0  0  0  0  0  0  0  0  0  0  0
   -0.4284    2.7647    3.4168 H   0  0  0  0  0  0  0  0  0  0  0  0
   -1.5268    1.5885    4.1601 H   0  0  0  0  0  0  0  0  0  0  0  0
    0.2072    1.2358    4.0566 H   0  0  0  0  0  0  0  0  0  0  0  0
  5  6  2  0  0  0  0
  5  7  1  0  0  0  0
  2  3  1  0  0  0  0
  2  4  1  0  0  0  0
  2  5  1  0  0  0  0
  1  2  1  0  0  0  0
 23 24  2  0  0  0  0
 23 25  1  0  0  0  0
 21 22  1  0  0  0  0
 19 20  1  0  0  0  0
 19 21  1  0  0  0  0
 17 18  1  0  0  0  0
 17 19  1  0  0  0  0
 15 16  1  0  0  0  0
 15 17  2  0  0  0  0
 14 15  1  0  0  0  0
 14 21  2  0  0  0  0
 11 12  1  0  0  0  0
 11 13  1  0  0  0  0
 11 14  1  0  0  0  0
  9 10  1  0  0  0  0
  9 11  1  0  0  0  0
  9 23  1  0  0  0  0
  7  8  1  0  0  0  0
  7  9  1  0  0  0  0
 27 28  1  0  0  0  0
 27 29  1  0  0  0  0
 27 30  1  0  0  0  0
 25 26  1  0  0  0  0
 25 27  1  0  0  0  0
M  CHG  1  15   1
M  END
$$$$
default_name
  -OEChem-02102213163D

 30 30  0     1  0  0  0  0  0999 V2000
   -3.5507   -3.2183    1.8116 H   0  0  0  0  0  0  0  0  0  0  0  0
   -3.4597   -2.3913    1.1076 C   0  0  0  0  0  0  0  0  0  0  0  0
   -4.1577   -1.6043    1.3866 H   0  0  0  0  0  0  0  0  0  0  0  0
   -3.6807   -2.7523    0.1036 H   0  0  0  0  0  0  0  0  0  0  0  0
   -2.0477   -1.8543    1.1546 C   0  0  0  0  0  0  0  0  0  0  0  0
   -1.2227   -2.3443    1.9146 O   0  0  0  0  0  0  0  0  0  0  0  0
   -1.7517   -0.8483    0.3266 N   0  0  0  0  0  0  0  0  0  0  0  0
   -2.4847   -0.5123   -0.2804 H   0  0  0  0  0  0  0  0  0  0  0  0
   -0.4117   -0.2463    0.2186 C   0  0  1  0  0  0  0  0  0  0  0  0
    0.2987   -1.0391   -0.0285 H   0  0  0  0  0  0  0  0  0  0  0  0
   -0.4131    0.7505   -0.9636 C   0  0  0  0  0  0  0  0  0  0  0  0
    0.1177    1.6553   -0.6569 H   0  0  0  0  0  0  0  0  0  0  0  0
    0.1472    0.3163   -1.7945 H   0  0  0  0  0  0  0  0  0  0  0  0
   -1.7838    1.1417   -1.4740 C   0  0  0  0  0  0  0  0  0  0  0  0
   -2.4065    2.3527   -1.2416 N   0  3  0  0  0  0  0  0  0  0  0  0
   -1.9613    3.1314   -0.7476 H   0  0  0  0  0  0  0  0  0  0  0  0
   -3.6094    2.3363   -1.8494 C   0  0  0  0  0  0  0  0  0  0  0  0
   -4.3239    3.1570   -1.8532 H   0  0  0  0  0  0  0  0  0  0  0  0
   -3.7639    1.1406   -2.4616 N   0  0  0  0  0  0  0  0  0  0  0  0
   -4.5739    0.8464   -3.0010 H   0  0  0  0  0  0  0  0  0  0  0  0
   -2.6264    0.3780   -2.2356 C   0  0  0  0  0  0  0  0  0  0  0  0
   -2.4322   -0.6303   -2.5907 H   0  0  0  0  0  0  0  0  0  0  0  0
    0.0470    0.3465    1.5629 C   0  0  0  0  0  0  0  0  0  0  0  0
    1.1854    0.1365    1.9846 O   0  0  0  0  0  0  0  0  0  0  0  0
   -0.8551    1.0750    2.2320 N   0  0  0  0  0  0  0  0  0  0  0  0
   -1.7594    1.2031    1.8040 H   0  0  0  0  0  0  0  0  0  0  0  0
   -0.6356    1.6998    3.5400 C   0  0  0  0  0  0  0  0  0  0  0  0
   -0.4284    2.7647    3.4168 H   0  0  0  0  0  0  0  0  0  0  0  0
   -1.5268    1.5885    4.1601 H   0  0  0  0  0  0  0  0  0  0  0  0
    0.2072    1.2358    4.0566 H   0  0  0  0  0  0  0  0  0  0  0  0
  5  6  2  0  0  0  0
  5  7  1  0  0  0  0
  2  3  1  0  0  0  0
  2  4  1  0  0  0  0
  2  5  1  0  0  0  0
  1  2  1  0  0  0  0
 23 24  2  0  0  0  0
 23 25  1  0  0  0  0
 21 22  1  0  0  0  0
 19 20  1  0  0  0  0
 19 21  1  0  0  0  0
 17 18  1  0  0  0  0
 17 19  1  0  0  0  0
 15 16  1  0  0  0  0
 15 17  2  0  0  0  0
 14 15  1  0  0  0  0
 14 21  2  0  0  0  0
 11 12  1  0  0  0  0
 11 13  1  0  0  0  0
 11 14  1  0  0  0  0
  9 10  1  0  0  0  0
  9 11  1  0  0  0  0
  9 23  1  0  0  0  0
  7  8  1  0  0  0  0
  7  9  1  0  0  0  0
 27 28  1  0  0  0  0
 27 29  1  0  0  0  0
 27 30  1  0  0  0  0
 25 26  1  0  0  0  0
 25 27  1  0  0  0  0
M  CHG  1  15   1
M  END
$$$$
default_name
  -OEChem-02102213163D

 30 30  0     1  0  0  0  0  0999 V2000
   -3.5507   -3.2183    1.8116 H   0  0  0  0  0  0  0  0  0  0  0  0
   -3.4597   -2.3913    1.1076 C   0  0  0  0  0  0  0  0  0  0  0  0
   -4.1577   -1.6043    1.3866 H   0  0  0  0  0  0  0  0  0  0  0  0
   -3.6807   -2.7523    0.1036 H   0  0  0  0  0  0  0  0  0  0  0  0
   -2.0477   -1.8543    1.1546 C   0  0  0  0  0  0  0  0  0  0  0  0
   -1.2227   -2.3443    1.9146 O   0  0  0  0  0  0  0  0  0  0  0  0
   -1.7517   -0.8483    0.3266 N   0  0  0  0  0  0  0  0  0  0  0  0
   -2.4847   -0.5123   -0.2804 H   0  0  0  0  0  0  0  0  0  0  0  0
   -0.4117   -0.2463    0.2186 C   0  0  1  0  0  0  0  0  0  0  0  0
    0.2987   -1.0391   -0.0285 H   0  0  0  0  0  0  0  0  0  0  0  0
   -0.4131    0.7505   -0.9636 C   0  0  0  0  0  0  0  0  0  0  0  0
    0.1177    1.6553   -0.6569 H   0  0  0  0  0  0  0  0  0  0  0  0
    0.1472    0.3163   -1.7945 H   0  0  0  0  0  0  0  0  0  0  0  0
   -1.7838    1.1417   -1.4740 C   0  0  0  0  0  0  0  0  0  0  0  0
   -2.2888    2.4272   -1.5008 N   0  3  0  0  0  0  0  0  0  0  0  0
   -1.7464    3.2531   -1.2316 H   0  0  0  0  0  0  0  0  0  0  0  0
   -3.5325    2.3853   -2.0184 C   0  0  0  0  0  0  0  0  0  0  0  0
   -4.1779    3.2470   -2.1765 H   0  0  0  0  0  0  0  0  0  0  0  0
   -3.8282    1.1007   -2.3197 N   0  0  0  0  0  0  0  0  0  0  0  0
   -4.6981    0.7682   -2.7273 H   0  0  0  0  0  0  0  0  0  0  0  0
   -2.7406    0.3063   -1.9838 C   0  0  0  0  0  0  0  0  0  0  0  0
   -2.6550   -0.7706   -2.0999 H   0  0  0  0  0  0  0  0  0  0  0  0
    0.0470    0.3465    1.5629 C   0  0  0  0  0  0  0  0  0  0  0  0
    1.1854    0.1365    1.9846 O   0  0  0  0  0  0  0  0  0  0  0  0
   -0.8551    1.0750    2.2320 N   0  0  0  0  0  0  0  0  0  0  0  0
   -1.7594    1.2031    1.8040 H   0  0  0  0  0  0  0  0  0  0  0  0
   -0.6356    1.6998    3.5400 C   0  0  0  0  0  0  0  0  0  0  0  0
   -0.4284    2.7647    3.4168 H   0  0  0  0  0  0  0  0  0  0  0  0
   -1.5268    1.5885    4.1601 H   0  0  0  0  0  0  0  0  0  0  0  0
    0.2072    1.2358    4.0566 H   0  0  0  0  0  0  0  0  0  0  0  0
  5  6  2  0  0  0  0
  5  7  1  0  0  0  0
  2  3  1  0  0  0  0
  2  4  1  0  0  0  0
  2  5  1  0  0  0  0
  1  2  1  0  0  0  0
 23 24  2  0  0  0  0
 23 25  1  0  0  0  0
 21 22  1  0  0  0  0
 19 20  1  0  0  0  0
 19 21  1  0  0  0  0
 17 18  1  0  0  0  0
 17 19  1  0  0  0  0
 15 16  1  0  0  0  0
 15 17  2  0  0  0  0
 14 15  1  0  0  0  0
 14 21  2  0  0  0  0
 11 12  1  0  0  0  0
 11 13  1  0  0  0  0
 11 14  1  0  0  0  0
  9 10  1  0  0  0  0
  9 11  1  0  0  0  0
  9 23  1  0  0  0  0
  7  8  1  0  0  0  0
  7  9  1  0  0  0  0
 27 28  1  0  0  0  0
 27 29  1  0  0  0  0
 27 30  1  0  0  0  0
 25 26  1  0  0  0  0
 25 27  1  0  0  0  0
M  CHG  1  15   1
M  END
$$$$
default_name
  -OEChem-02102213163D

 30 30  0     1  0  0  0  0  0999 V2000
   -3.5507   -3.2183    1.8116 H   0  0  0  0  0  0  0  0  0  0  0  0
   -3.4597   -2.3913    1.1076 C   0  0  0  0  0  0  0  0  0  0  0  0
   -4.1577   -1.6043    1.3866 H   0  0  0  0  0  0  0  0  0  0  0  0
   -3.6807   -2.7523    0.1036 H   0  0  0  0  0  0  0  0  0  0  0  0
   -2.0477   -1.8543    1.1546 C   0  0  0  0  0  0  0  0  0  0  0  0
   -1.2227   -2.3443    1.9146 O   0  0  0  0  0  0  0  0  0  0  0  0
   -1.7517   -0.8483    0.3266 N   0  0  0  0  0  0  0  0  0  0  0  0
   -2.4847   -0.5123   -0.2804 H   0  0  0  0  0  0  0  0  0  0  0  0
   -0.4117   -0.2463    0.2186 C   0  0  1  0  0  0  0  0  0  0  0  0
    0.2987   -1.0391   -0.0285 H   0  0  0  0  0  0  0  0  0  0  0  0
   -0.4131    0.7505   -0.9636 C   0  0  0  0  0  0  0  0  0  0  0  0
    0.1177    1.6553   -0.6569 H   0  0  0  0  0  0  0  0  0  0  0  0
    0.1472    0.3163   -1.7945 H   0  0  0  0  0  0  0  0  0  0  0  0
   -1.7838    1.1417   -1.4740 C   0  0  0  0  0  0  0  0  0  0  0  0
   -2.1858    2.4282   -1.7765 N   0  3  0  0  0  0  0  0  0  0  0  0
   -1.5605    3.2385   -1.7421 H   0  0  0  0  0  0  0  0  0  0  0  0
   -3.4653    2.3862   -2.1983 C   0  0  0  0  0  0  0  0  0  0  0  0
   -4.0506    3.2454   -2.5197 H   0  0  0  0  0  0  0  0  0  0  0  0
   -3.8842    1.1009   -2.1690 N   0  0  0  0  0  0  0  0  0  0  0  0
   -4.8067    0.7675   -2.4362 H   0  0  0  0  0  0  0  0  0  0  0  0
   -2.8404    0.3060   -1.7162 C   0  0  0  0  0  0  0  0  0  0  0  0
   -2.8496   -0.7716   -1.5780 H   0  0  0  0  0  0  0  0  0  0  0  0
    0.0470    0.3465    1.5629 C   0  0  0  0  0  0  0  0  0  0  0  0
    1.1854    0.1365    1.9846 O   0  0  0  0  0  0  0  0  0  0  0  0
   -0.8551    1.0750    2.2320 N   0  0  0  0  0  0  0  0  0  0  0  0
   -1.7594    1.2031    1.8040 H   0  0  0  0  0  0  0  0  0  0  0  0
   -0.6356    1.6998    3.5400 C   0  0  0  0  0  0  0  0  0  0  0  0
   -0.4284    2.7647    3.4168 H   0  0  0  0  0  0  0  0  0  0  0  0
   -1.5268    1.5885    4.1601 H   0  0  0  0  0  0  0  0  0  0  0  0
    0.2072    1.2358    4.0566 H   0  0  0  0  0  0  0  0  0  0  0  0
  5  6  2  0  0  0  0
  5  7  1  0  0  0  0
  2  3  1  0  0  0  0
  2  4  1  0  0  0  0
  2  5  1  0  0  0  0
  1  2  1  0  0  0  0
 23 24  2  0  0  0  0
 23 25  1  0  0  0  0
 21 22  1  0  0  0  0
 19 20  1  0  0  0  0
 19 21  1  0  0  0  0
 17 18  1  0  0  0  0
 17 19  1  0  0  0  0
 15 16  1  0  0  0  0
 15 17  2  0  0  0  0
 14 15  1  0  0  0  0
 14 21  2  0  0  0  0
 11 12  1  0  0  0  0
 11 13  1  0  0  0  0
 11 14  1  0  0  0  0
  9 10  1  0  0  0  0
  9 11  1  0  0  0  0
  9 23  1  0  0  0  0
  7  8  1  0  0  0  0
  7  9  1  0  0  0  0
 27 28  1  0  0  0  0
 27 29  1  0  0  0  0
 27 30  1  0  0  0  0
 25 26  1  0  0  0  0
 25 27  1  0  0  0  0
M  CHG  1  15   1
M  END
$$$$
default_name
  -OEChem-02102213163D

 30 30  0     1  0  0  0  0  0999 V2000
   -3.5507   -3.2183    1.8116 H   0  0  0  0  0  0  0  0  0  0  0  0
   -3.4597   -2.3913    1.1076 C   0  0  0  0  0  0  0  0  0  0  0  0
   -4.1577   -1.6043    1.3866 H   0  0  0  0  0  0  0  0  0  0  0  0
   -3.6807   -2.7523    0.1036 H   0  0  0  0  0  0  0  0  0  0  0  0
   -2.0477   -1.8543    1.1546 C   0  0  0  0  0  0  0  0  0  0  0  0
   -1.2227   -2.3443    1.9146 O   0  0  0  0  0  0  0  0  0  0  0  0
   -1.7517   -0.8483    0.3266 N   0  0  0  0  0  0  0  0  0  0  0  0
   -2.4847   -0.5123   -0.2804 H   0  0  0  0  0  0  0  0  0  0  0  0
   -0.4117   -0.2463    0.2186 C   0  0  1  0  0  0  0  0  0  0  0  0
    0.2987   -1.0391   -0.0285 H   0  0  0  0  0  0  0  0  0  0  0  0
   -0.4131    0.7505   -0.9636 C   0  0  0  0  0  0  0  0  0  0  0  0
    0.1177    1.6553   -0.6569 H   0  0  0  0  0  0  0  0  0  0  0  0
    0.1472    0.3163   -1.7945 H   0  0  0  0  0  0  0  0  0  0  0  0
   -1.7838    1.1417   -1.4740 C   0  0  0  0  0  0  0  0  0  0  0  0
   -2.1048    2.3556   -2.0499 N   0  3  0  0  0  0  0  0  0  0  0  0
   -1.4164    3.0885   -2.2441 H   0  0  0  0  0  0  0  0  0  0  0  0
   -3.4122    2.3392   -2.3768 C   0  0  0  0  0  0  0  0  0  0  0  0
   -3.9507    3.1524   -2.8593 H   0  0  0  0  0  0  0  0  0  0  0  0
   -3.9282    1.1414   -2.0197 N   0  0  0  0  0  0  0  0  0  0  0  0
   -4.8921    0.8446   -2.1476 H   0  0  0  0  0  0  0  0  0  0  0  0
   -2.9188    0.3771   -1.4509 C   0  0  0  0  0  0  0  0  0  0  0  0
   -3.0027   -0.6334   -1.0607 H   0  0  0  0  0  0  0  0  0  0  0  0
    0.0470    0.3465    1.5629 C   0  0  0  0  0  0  0  0  0  0  0  0
    1.1854    0.1365    1.9846 O   0  0  0  0  0  0  0  0  0  0  0  0
   -0.8551    1.0750    2.2320 N   0  0  0  0  0  0  0  0  0  0  0  0
   -1.7594    1.2031    1.8040 H   0  0  0  0  0  0  0  0  0  0  0  0
   -0.6356    1.6998    3.5400 C   0  0  0  0  0  0  0  0  0  0  0  0
   -0.4284    2.7647    3.4168 H   0  0  0  0  0  0  0  0  0  0  0  0
   -1.5268    1.5885    4.1601 H   0  0  0  0  0  0  0  0  0  0  0  0
    0.2072    1.2358    4.0566 H   0  0  0  0  0  0  0  0  0  0  0  0
  5  6  2  0  0  0  0
  5  7  1  0  0  0  0
  2  3  1  0  0  0  0
  2  4  1  0  0  0  0
  2  5  1  0  0  0  0
  1  2  1  0  0  0  0
 23 24  2  0  0  0  0
 23 25  1  0  0  0  0
 21 22  1  0  0  0  0
 19 20  1  0  0  0  0
 19 21  1  0  0  0  0
 17 18  1  0  0  0  0
 17 19  1  0  0  0  0
 15 16  1  0  0  0  0
 15 17  2  0  0  0  0
 14 15  1  0  0  0  0
 14 21  2  0  0  0  0
 11 12  1  0  0  0  0
 11 13  1  0  0  0  0
 11 14  1  0  0  0  0
  9 10  1  0  0  0  0
  9 11  1  0  0  0  0
  9 23  1  0  0  0  0
  7  8  1  0  0  0  0
  7  9  1  0  0  0  0
 27 28  1  0  0  0  0
 27 29  1  0  0  0  0
 27 30  1  0  0  0  0
 25 26  1  0  0  0  0
 25 27  1  0  0  0  0
M  CHG  1  15   1
M  END
$$$$
default_name
  -OEChem-02102213163D

 30 30  0     1  0  0  0  0  0999 V2000
   -3.5507   -3.2183    1.8116 H   0  0  0  0  0  0  0  0  0  0  0  0
   -3.4597   -2.3913    1.1076 C   0  0  0  0  0  0  0  0  0  0  0  0
   -4.1577   -1.6043    1.3866 H   0  0  0  0  0  0  0  0  0  0  0  0
   -3.6807   -2.7523    0.1036 H   0  0  0  0  0  0  0  0  0  0  0  0
   -2.0477   -1.8543    1.1546 C   0  0  0  0  0  0  0  0  0  0  0  0
   -1.2227   -2.3443    1.9146 O   0  0  0  0  0  0  0  0  0  0  0  0
   -1.7517   -0.8483    0.3266 N   0  0  0  0  0  0  0  0  0  0  0  0
   -2.4847   -0.5123   -0.2804 H   0  0  0  0  0  0  0  0  0  0  0  0
   -0.4117   -0.2463    0.2186 C   0  0  1  0  0  0  0  0  0  0  0  0
    0.2987   -1.0391   -0.0285 H   0  0  0  0  0  0  0  0  0  0  0  0
   -0.4131    0.7505   -0.9636 C   0  0  0  0  0  0  0  0  0  0  0  0
    0.1177    1.6553   -0.6569 H   0  0  0  0  0  0  0  0  0  0  0  0
    0.1472    0.3163   -1.7945 H   0  0  0  0  0  0  0  0  0  0  0  0
   -1.7838    1.1417   -1.4740 C   0  0  0  0  0  0  0  0  0  0  0  0
   -2.0511    2.2143   -2.3025 N   0  3  0  0  0  0  0  0  0  0  0  0
   -1.3238    2.8134   -2.7036 H   0  0  0  0  0  0  0  0  0  0  0  0
   -3.3771    2.2473   -2.5417 C   0  0  0  0  0  0  0  0  0  0  0  0
   -3.8850    2.9743   -3.1722 H   0  0  0  0  0  0  0  0  0  0  0  0
   -3.9573    1.2193   -1.8820 N   0  0  0  0  0  0  0  0  0  0  0  0
   -4.9486    0.9942   -1.8813 H   0  0  0  0  0  0  0  0  0  0  0  0
   -2.9707    0.5148   -1.2061 C   0  0  0  0  0  0  0  0  0  0  0  0
   -3.1040   -0.3653   -0.5831 H   0  0  0  0  0  0  0  0  0  0  0  0
    0.0470    0.3465    1.5629 C   0  0  0  0  0  0  0  0  0  0  0  0
    1.1854    0.1365    1.9846 O   0  0  0  0  0  0  0  0  0  0  0  0
   -0.8551    1.0750    2.2320 N   0  0  0  0  0  0  0  0  0  0  0  0
   -1.7594    1.2031    1.8040 H   0  0  0  0  0  0  0  0  0  0  0  0
   -0.6356    1.6998    3.5400 C   0  0  0  0  0  0  0  0  0  0  0  0
   -0.4284    2.7647    3.4168 H   0  0  0  0  0  0  0  0  0  0  0  0
   -1.5268    1.5885    4.1601 H   0  0  0  0  0  0  0  0  0  0  0  0
    0.2072    1.2358    4.0566 H   0  0  0  0  0  0  0  0  0  0  0  0
  5  6  2  0  0  0  0
  5  7  1  0  0  0  0
  2  3  1  0  0  0  0
  2  4  1  0  0  0  0
  2  5  1  0  0  0  0
  1  2  1  0  0  0  0
 23 24  2  0  0  0  0
 23 25  1  0  0  0  0
 21 22  1  0  0  0  0
 19 20  1  0  0  0  0
 19 21  1  0  0  0  0
 17 18  1  0  0  0  0
 17 19  1  0  0  0  0
 15 16  1  0  0  0  0
 15 17  2  0  0  0  0
 14 15  1  0  0  0  0
 14 21  2  0  0  0  0
 11 12  1  0  0  0  0
 11 13  1  0  0  0  0
 11 14  1  0  0  0  0
  9 10  1  0  0  0  0
  9 11  1  0  0  0  0
  9 23  1  0  0  0  0
  7  8  1  0  0  0  0
  7  9  1  0  0  0  0
 27 28  1  0  0  0  0
 27 29  1  0  0  0  0
 27 30  1  0  0  0  0
 25 26  1  0  0  0  0
 25 27  1  0  0  0  0
M  CHG  1  15   1
M  END
$$$$
default_name
  -OEChem-02102213163D

 30 30  0     1  0  0  0  0  0999 V2000
   -3.5507   -3.2183    1.8116 H   0  0  0  0  0  0  0  0  0  0  0  0
   -3.4597   -2.3913    1.1076 C   0  0  0  0  0  0  0  0  0  0  0  0
   -4.1577   -1.6043    1.3866 H   0  0  0  0  0  0  0  0  0  0  0  0
   -3.6807   -2.7523    0.1036 H   0  0  0  0  0  0  0  0  0  0  0  0
   -2.0477   -1.8543    1.1546 C   0  0  0  0  0  0  0  0  0  0  0  0
   -1.2227   -2.3443    1.9146 O   0  0  0  0  0  0  0  0  0  0  0  0
   -1.7517   -0.8483    0.3266 N   0  0  0  0  0  0  0  0  0  0  0  0
   -2.4847   -0.5123   -0.2804 H   0  0  0  0  0  0  0  0  0  0  0  0
   -0.4117   -0.2463    0.2186 C   0  0  1  0  0  0  0  0  0  0  0  0
    0.2987   -1.0391   -0.0285 H   0  0  0  0  0  0  0  0  0  0  0  0
   -0.4131    0.7505   -0.9636 C   0  0  0  0  0  0  0  0  0  0  0  0
    0.3299    1.5271   -0.7652 H   0  0  0  0  0  0  0  0  0  0  0  0
   -0.0965    0.2278   -1.8688 H   0  0  0  0  0  0  0  0  0  0  0  0
   -1.7448    1.4136   -1.2447 C   0  0  0  0  0  0  0  0  0  0  0  0
   -1.9825    2.3342   -2.2469 N   0  3  0  0  0  0  0  0  0  0  0  0
   -1.2812    2.6071   -2.9415 H   0  0  0  0  0  0  0  0  0  0  0  0
   -3.2780    2.7016   -2.1888 C   0  0  0  0  0  0  0  0  0  0  0  0
   -3.7630    3.4066   -2.8610 H   0  0  0  0  0  0  0  0  0  0  0  0
   -3.8673    2.0349   -1.1707 N   0  0  0  0  0  0  0  0  0  0  0  0
   -4.8423    2.1106   -0.8927 H   0  0  0  0  0  0  0  0  0  0  0  0
   -2.9183    1.2216   -0.5670 C   0  0  0  0  0  0  0  0  0  0  0  0
   -3.0679    0.5570    0.2795 H   0  0  0  0  0  0  0  0  0  0  0  0
    0.0470    0.3465    1.5629 C   0  0  0  0  0  0  0  0  0  0  0  0
    1.1854    0.1365    1.9846 O   0  0  0  0  0  0  0  0  0  0  0  0
   -0.8551    1.0750    2.2320 N   0  0  0  0  0  0  0  0  0  0  0  0
   -1.7594    1.2031    1.8040 H   0  0  0  0  0  0  0  0  0  0  0  0
   -0.6356    1.6998    3.5400 C   0  0  0  0  0  0  0  0  0  0  0  0
   -0.4284    2.7647    3.4168 H   0  0  0  0  0  0  0  0  0  0  0  0
   -1.5268    1.5885    4.1601 H   0  0  0  0  0  0  0  0  0  0  0  0
    0.2072    1.2358    4.0566 H   0  0  0  0  0  0  0  0  0  0  0  0
  5  6  2  0  0  0  0
  5  7  1  0  0  0  0
  2  3  1  0  0  0  0
  2  4  1  0  0  0  0
  2  5  1  0  0  0  0
  1  2  1  0  0  0  0
 23 24  2  0  0  0  0
 23 25  1  0  0  0  0
 21 22  1  0  0  0  0
 19 20  1  0  0  0  0
 19 21  1  0  0  0  0
 17 18  1  0  0  0  0
 17 19  1  0  0  0  0
 15 16  1  0  0  0  0
 15 17  2  0  0  0  0
 14 15  1  0  0  0  0
 14 21  2  0  0  0  0
 11 12  1  0  0  0  0
 11 13  1  0  0  0  0
 11 14  1  0  0  0  0
  9 10  1  0  0  0  0
  9 11  1  0  0  0  0
  9 23  1  0  0  0  0
  7  8  1  0  0  0  0
  7  9  1  0  0  0  0
 27 28  1  0  0  0  0
 27 29  1  0  0  0  0
 27 30  1  0  0  0  0
 25 26  1  0  0  0  0
 25 27  1  0  0  0  0
M  CHG  1  15   1
M  END
$$$$
default_name
  -OEChem-02102213163D

 30 30  0     1  0  0  0  0  0999 V2000
   -3.5507   -3.2183    1.8116 H   0  0  0  0  0  0  0  0  0  0  0  0
   -3.4597   -2.3913    1.1076 C   0  0  0  0  0  0  0  0  0  0  0  0
   -4.1577   -1.6043    1.3866 H   0  0  0  0  0  0  0  0  0  0  0  0
   -3.6807   -2.7523    0.1036 H   0  0  0  0  0  0  0  0  0  0  0  0
   -2.0477   -1.8543    1.1546 C   0  0  0  0  0  0  0  0  0  0  0  0
   -1.2227   -2.3443    1.9146 O   0  0  0  0  0  0  0  0  0  0  0  0
   -1.7517   -0.8483    0.3266 N   0  0  0  0  0  0  0  0  0  0  0  0
   -2.4847   -0.5123   -0.2804 H   0  0  0  0  0  0  0  0  0  0  0  0
   -0.4117   -0.2463    0.2186 C   0  0  1  0  0  0  0  0  0  0  0  0
    0.2987   -1.0391   -0.0285 H   0  0  0  0  0  0  0  0  0  0  0  0
   -0.4131    0.7505   -0.9636 C   0  0  0  0  0  0  0  0  0  0  0  0
    0.3299    1.5271   -0.7652 H   0  0  0  0  0  0  0  0  0  0  0  0
   -0.0965    0.2278   -1.8688 H   0  0  0  0  0  0  0  0  0  0  0  0
   -1.7448    1.4136   -1.2447 C   0  0  0  0  0  0  0  0  0  0  0  0
   -2.0677    2.0980   -2.4005 N   0  3  0  0  0  0  0  0  0  0  0  0
   -1.4449    2.1643   -3.2107 H   0  0  0  0  0  0  0  0  0  0  0  0
   -3.3335    2.5477   -2.2893 C   0  0  0  0  0  0  0  0  0  0  0  0
   -3.8701    3.1117   -3.0495 H   0  0  0  0  0  0  0  0  0  0  0  0
   -3.8205    2.1643   -1.0875 N   0  0  0  0  0  0  0  0  0  0  0  0
   -4.7522    2.3601   -0.7310 H   0  0  0  0  0  0  0  0  0  0  0  0
   -2.8354    1.4511   -0.4185 C   0  0  0  0  0  0  0  0  0  0  0  0
   -2.9064    1.0044    0.5693 H   0  0  0  0  0  0  0  0  0  0  0  0
    0.0470    0.3465    1.5629 C   0  0  0  0  0  0  0  0  0  0  0  0
    1.1854    0.1365    1.9846 O   0  0  0  0  0  0  0  0  0  0  0  0
   -0.8551    1.0750    2.2320 N   0  0  0  0  0  0  0  0  0  0  0  0
   -1.7594    1.2031    1.8040 H   0  0  0  0  0  0  0  0  0  0  0  0
   -0.6356    1.6998    3.5400 C   0  0  0  0  0  0  0  0  0  0  0  0
   -0.4284    2.7647    3.4168 H   0  0  0  0  0  0  0  0  0  0  0  0
   -1.5268    1.5885    4.1601 H   0  0  0  0  0  0  0  0  0  0  0  0
    0.2072    1.2358    4.0566 H   0  0  0  0  0  0  0  0  0  0  0  0
  5  6  2  0  0  0  0
  5  7  1  0  0  0  0
  2  3  1  0  0  0  0
  2  4  1  0  0  0  0
  2  5  1  0  0  0  0
  1  2  1  0  0  0  0
 23 24  2  0  0  0  0
 23 25  1  0  0  0  0
 21 22  1  0  0  0  0
 19 20  1  0  0  0  0
 19 21  1  0  0  0  0
 17 18  1  0  0  0  0
 17 19  1  0  0  0  0
 15 16  1  0  0  0  0
 15 17  2  0  0  0  0
 14 15  1  0  0  0  0
 14 21  2  0  0  0  0
 11 12  1  0  0  0  0
 11 13  1  0  0  0  0
 11 14  1  0  0  0  0
  9 10  1  0  0  0  0
  9 11  1  0  0  0  0
  9 23  1  0  0  0  0
  7  8  1  0  0  0  0
  7  9  1  0  0  0  0
 27 28  1  0  0  0  0
 27 29  1  0  0  0  0
 27 30  1  0  0  0  0
 25 26  1  0  0  0  0
 25 27  1  0  0  0  0
M  CHG  1  15   1
M  END
$$$$
default_name
  -OEChem-02102213163D

 30 30  0     1  0  0  0  0  0999 V2000
   -3.5507   -3.2183    1.8116 H   0  0  0  0  0  0  0  0  0  0  0  0
   -3.4597   -2.3913    1.1076 C   0  0  0  0  0  0  0  0  0  0  0  0
   -4.1577   -1.6043    1.3866 H   0  0  0  0  0  0  0  0  0  0  0  0
   -3.6807   -2.7523    0.1036 H   0  0  0  0  0  0  0  0  0  0  0  0
   -2.0477   -1.8543    1.1546 C   0  0  0  0  0  0  0  0  0  0  0  0
   -1.2227   -2.3443    1.9146 O   0  0  0  0  0  0  0  0  0  0  0  0
   -1.7517   -0.8483    0.3266 N   0  0  0  0  0  0  0  0  0  0  0  0
   -2.4847   -0.5123   -0.2804 H   0  0  0  0  0  0  0  0  0  0  0  0
   -0.4117   -0.2463    0.2186 C   0  0  1  0  0  0  0  0  0  0  0  0
    0.2987   -1.0391   -0.0285 H   0  0  0  0  0  0  0  0  0  0  0  0
   -0.4131    0.7505   -0.9636 C   0  0  0  0  0  0  0  0  0  0  0  0
    0.3299    1.5271   -0.7652 H   0  0  0  0  0  0  0  0  0  0  0  0
   -0.0965    0.2278   -1.8688 H   0  0  0  0  0  0  0  0  0  0  0  0
   -1.7448    1.4136   -1.2447 C   0  0  0  0  0  0  0  0  0  0  0  0
   -2.1788    1.8390   -2.4853 N   0  3  0  0  0  0  0  0  0  0  0  0
   -1.6548    1.6832   -3.3513 H   0  0  0  0  0  0  0  0  0  0  0  0
   -3.4058    2.3787   -2.3450 C   0  0  0  0  0  0  0  0  0  0  0  0
   -4.0090    2.7891   -3.1524 H   0  0  0  0  0  0  0  0  0  0  0  0
   -3.7595    2.3060   -1.0419 N   0  0  0  0  0  0  0  0  0  0  0  0
   -4.6348    2.6335   -0.6418 H   0  0  0  0  0  0  0  0  0  0  0  0
   -2.7274    1.7026   -0.3368 C   0  0  0  0  0  0  0  0  0  0  0  0
   -2.6960    1.4947    0.7292 H   0  0  0  0  0  0  0  0  0  0  0  0
    0.0470    0.3465    1.5629 C   0  0  0  0  0  0  0  0  0  0  0  0
    1.1854    0.1365    1.9846 O   0  0  0  0  0  0  0  0  0  0  0  0
   -0.8551    1.0750    2.2320 N   0  0  0  0  0  0  0  0  0  0  0  0
   -1.7594    1.2031    1.8040 H   0  0  0  0  0  0  0  0  0  0  0  0
   -0.6356    1.6998    3.5400 C   0  0  0  0  0  0  0  0  0  0  0  0
   -0.4284    2.7647    3.4168 H   0  0  0  0  0  0  0  0  0  0  0  0
   -1.5268    1.5885    4.1601 H   0  0  0  0  0  0  0  0  0  0  0  0
    0.2072    1.2358    4.0566 H   0  0  0  0  0  0  0  0  0  0  0  0
  5  6  2  0  0  0  0
  5  7  1  0  0  0  0
  2  3  1  0  0  0  0
  2  4  1  0  0  0  0
  2  5  1  0  0  0  0
  1  2  1  0  0  0  0
 23 24  2  0  0  0  0
 23 25  1  0  0  0  0
 21 22  1  0  0  0  0
 19 20  1  0  0  0  0
 19 21  1  0  0  0  0
 17 18  1  0  0  0  0
 17 19  1  0  0  0  0
 15 16  1  0  0  0  0
 15 17  2  0  0  0  0
 14 15  1  0  0  0  0
 14 21  2  0  0  0  0
 11 12  1  0  0  0  0
 11 13  1  0  0  0  0
 11 14  1  0  0  0  0
  9 10  1  0  0  0  0
  9 11  1  0  0  0  0
  9 23  1  0  0  0  0
  7  8  1  0  0  0  0
  7  9  1  0  0  0  0
 27 28  1  0  0  0  0
 27 29  1  0  0  0  0
 27 30  1  0  0  0  0
 25 26  1  0  0  0  0
 25 27  1  0  0  0  0
M  CHG  1  15   1
M  END
$$$$
default_name
  -OEChem-02102213163D

 30 30  0     1  0  0  0  0  0999 V2000
   -3.5507   -3.2183    1.8116 H   0  0  0  0  0  0  0  0  0  0  0  0
   -3.4597   -2.3913    1.1076 C   0  0  0  0  0  0  0  0  0  0  0  0
   -4.1577   -1.6043    1.3866 H   0  0  0  0  0  0  0  0  0  0  0  0
   -3.6807   -2.7523    0.1036 H   0  0  0  0  0  0  0  0  0  0  0  0
   -2.0477   -1.8543    1.1546 C   0  0  0  0  0  0  0  0  0  0  0  0
   -1.2227   -2.3443    1.9146 O   0  0  0  0  0  0  0  0  0  0  0  0
   -1.7517   -0.8483    0.3266 N   0  0  0  0  0  0  0  0  0  0  0  0
   -2.4847   -0.5123   -0.2804 H   0  0  0  0  0  0  0  0  0  0  0  0
   -0.4117   -0.2463    0.2186 C   0  0  1  0  0  0  0  0  0  0  0  0
    0.2987   -1.0391   -0.0285 H   0  0  0  0  0  0  0  0  0  0  0  0
   -0.4131    0.7505   -0.9636 C   0  0  0  0  0  0  0  0  0  0  0  0
    0.3299    1.5271   -0.7652 H   0  0  0  0  0  0  0  0  0  0  0  0
   -0.0965    0.2278   -1.8688 H   0  0  0  0  0  0  0  0  0  0  0  0
   -1.7448    1.4136   -1.2447 C   0  0  0  0  0  0  0  0  0  0  0  0
   -2.3081    1.5749   -2.4958 N   0  3  0  0  0  0  0  0  0  0  0  0
   -1.8966    1.1965   -3.3538 H   0  0  0  0  0  0  0  0  0  0  0  0
   -3.4902    2.2063   -2.3522 C   0  0  0  0  0  0  0  0  0  0  0  0
   -4.1704    2.4608   -3.1625 H   0  0  0  0  0  0  0  0  0  0  0  0
   -3.6887    2.4503   -1.0371 N   0  0  0  0  0  0  0  0  0  0  0  0
   -4.4982    2.9124   -0.6312 H   0  0  0  0  0  0  0  0  0  0  0  0
   -2.6018    1.9589   -0.3273 C   0  0  0  0  0  0  0  0  0  0  0  0
   -2.4510    1.9945    0.7481 H   0  0  0  0  0  0  0  0  0  0  0  0
    0.0470    0.3465    1.5629 C   0  0  0  0  0  0  0  0  0  0  0  0
    1.1854    0.1365    1.9846 O   0  0  0  0  0  0  0  0  0  0  0  0
   -0.8551    1.0750    2.2320 N   0  0  0  0  0  0  0  0  0  0  0  0
   -1.7594    1.2031    1.8040 H   0  0  0  0  0  0  0  0  0  0  0  0
   -0.6356    1.6998    3.5400 C   0  0  0  0  0  0  0  0  0  0  0  0
   -0.4284    2.7647    3.4168 H   0  0  0  0  0  0  0  0  0  0  0  0
   -1.5268    1.5885    4.1601 H   0  0  0  0  0  0  0  0  0  0  0  0
    0.2072    1.2358    4.0566 H   0  0  0  0  0  0  0  0  0  0  0  0
  5  6  2  0  0  0  0
  5  7  1  0  0  0  0
  2  3  1  0  0  0  0
  2  4  1  0  0  0  0
  2  5  1  0  0  0  0
  1  2  1  0  0  0  0
 23 24  2  0  0  0  0
 23 25  1  0  0  0  0
 21 22  1  0  0  0  0
 19 20  1  0  0  0  0
 19 21  1  0  0  0  0
 17 18  1  0  0  0  0
 17 19  1  0  0  0  0
 15 16  1  0  0  0  0
 15 17  2  0  0  0  0
 14 15  1  0  0  0  0
 14 21  2  0  0  0  0
 11 12  1  0  0  0  0
 11 13  1  0  0  0  0
 11 14  1  0  0  0  0
  9 10  1  0  0  0  0
  9 11  1  0  0  0  0
  9 23  1  0  0  0  0
  7  8  1  0  0  0  0
  7  9  1  0  0  0  0
 27 28  1  0  0  0  0
 27 29  1  0  0  0  0
 27 30  1  0  0  0  0
 25 26  1  0  0  0  0
 25 27  1  0  0  0  0
M  CHG  1  15   1
M  END
$$$$
default_name
  -OEChem-02102213163D

 30 30  0     1  0  0  0  0  0999 V2000
   -3.5507   -3.2183    1.8116 H   0  0  0  0  0  0  0  0  0  0  0  0
   -3.4597   -2.3913    1.1076 C   0  0  0  0  0  0  0  0  0  0  0  0
   -4.1577   -1.6043    1.3866 H   0  0  0  0  0  0  0  0  0  0  0  0
   -3.6807   -2.7523    0.1036 H   0  0  0  0  0  0  0  0  0  0  0  0
   -2.0477   -1.8543    1.1546 C   0  0  0  0  0  0  0  0  0  0  0  0
   -1.2227   -2.3443    1.9146 O   0  0  0  0  0  0  0  0  0  0  0  0
   -1.7517   -0.8483    0.3266 N   0  0  0  0  0  0  0  0  0  0  0  0
   -2.4847   -0.5123   -0.2804 H   0  0  0  0  0  0  0  0  0  0  0  0
   -0.4117   -0.2463    0.2186 C   0  0  1  0  0  0  0  0  0  0  0  0
    0.2987   -1.0391   -0.0285 H   0  0  0  0  0  0  0  0  0  0  0  0
   -0.4131    0.7505   -0.9636 C   0  0  0  0  0  0  0  0  0  0  0  0
    0.3299    1.5271   -0.7652 H   0  0  0  0  0  0  0  0  0  0  0  0
   -0.0965    0.2278   -1.8688 H   0  0  0  0  0  0  0  0  0  0  0  0
   -1.7448    1.4136   -1.2447 C   0  0  0  0  0  0  0  0  0  0  0  0
   -2.4469    1.3235   -2.4311 N   0  3  0  0  0  0  0  0  0  0  0  0
   -2.1538    0.7375   -3.2180 H   0  0  0  0  0  0  0  0  0  0  0  0
   -3.5807    2.0422   -2.3103 C   0  0  0  0  0  0  0  0  0  0  0  0
   -4.3431    2.1491   -3.0793 H   0  0  0  0  0  0  0  0  0  0  0  0
   -3.6128    2.5874   -1.0732 N   0  0  0  0  0  0  0  0  0  0  0  0
   -4.3517    3.1775   -0.7000 H   0  0  0  0  0  0  0  0  0  0  0  0
   -2.4670    2.2027   -0.3908 C   0  0  0  0  0  0  0  0  0  0  0  0
   -2.1883    2.4699    0.6248 H   0  0  0  0  0  0  0  0  0  0  0  0
    0.0470    0.3465    1.5629 C   0  0  0  0  0  0  0  0  0  0  0  0
    1.1854    0.1365    1.9846 O   0  0  0  0  0  0  0  0  0  0  0  0
   -0.8551    1.0750    2.2320 N   0  0  0  0  0  0  0  0  0  0  0  0
   -1.7594    1.2031    1.8040 H   0  0  0  0  0  0  0  0  0  0  0  0
   -0.6356    1.6998    3.5400 C   0  0  0  0  0  0  0  0  0  0  0  0
   -0.4284    2.7647    3.4168 H   0  0  0  0  0  0  0  0  0  0  0  0
   -1.5268    1.5885    4.1601 H   0  0  0  0  0  0  0  0  0  0  0  0
    0.2072    1.2358    4.0566 H   0  0  0  0  0  0  0  0  0  0  0  0
  5  6  2  0  0  0  0
  5  7  1  0  0  0  0
  2  3  1  0  0  0  0
  2  4  1  0  0  0  0
  2  5  1  0  0  0  0
  1  2  1  0  0  0  0
 23 24  2  0  0  0  0
 23 25  1  0  0  0  0
 21 22  1  0  0  0  0
 19 20  1  0  0  0  0
 19 21  1  0  0  0  0
 17 18  1  0  0  0  0
 17 19  1  0  0  0  0
 15 16  1  0  0  0  0
 15 17  2  0  0  0  0
 14 15  1  0  0  0  0
 14 21  2  0  0  0  0
 11 12  1  0  0  0  0
 11 13  1  0  0  0  0
 11 14  1  0  0  0  0
  9 10  1  0  0  0  0
  9 11  1  0  0  0  0
  9 23  1  0  0  0  0
  7  8  1  0  0  0  0
  7  9  1  0  0  0  0
 27 28  1  0  0  0  0
 27 29  1  0  0  0  0
 27 30  1  0  0  0  0
 25 26  1  0  0  0  0
 25 27  1  0  0  0  0
M  CHG  1  15   1
M  END
$$$$
default_name
  -OEChem-02102213163D

 30 30  0     1  0  0  0  0  0999 V2000
   -3.5507   -3.2183    1.8116 H   0  0  0  0  0  0  0  0  0  0  0  0
   -3.4597   -2.3913    1.1076 C   0  0  0  0  0  0  0  0  0  0  0  0
   -4.1577   -1.6043    1.3866 H   0  0  0  0  0  0  0  0  0  0  0  0
   -3.6807   -2.7523    0.1036 H   0  0  0  0  0  0  0  0  0  0  0  0
   -2.0477   -1.8543    1.1546 C   0  0  0  0  0  0  0  0  0  0  0  0
   -1.2227   -2.3443    1.9146 O   0  0  0  0  0  0  0  0  0  0  0  0
   -1.7517   -0.8483    0.3266 N   0  0  0  0  0  0  0  0  0  0  0  0
   -2.4847   -0.5123   -0.2804 H   0  0  0  0  0  0  0  0  0  0  0  0
   -0.4117   -0.2463    0.2186 C   0  0  1  0  0  0  0  0  0  0  0  0
    0.2987   -1.0391   -0.0285 H   0  0  0  0  0  0  0  0  0  0  0  0
   -0.4131    0.7505   -0.9636 C   0  0  0  0  0  0  0  0  0  0  0  0
    0.3299    1.5271   -0.7652 H   0  0  0  0  0  0  0  0  0  0  0  0
   -0.0965    0.2278   -1.8688 H   0  0  0  0  0  0  0  0  0  0  0  0
   -1.7448    1.4136   -1.2447 C   0  0  0  0  0  0  0  0  0  0  0  0
   -2.5857    1.1022   -2.2956 N   0  3  0  0  0  0  0  0  0  0  0  0
   -2.4089    0.3373   -2.9532 H   0  0  0  0  0  0  0  0  0  0  0  0
   -3.6713    1.8976   -2.2222 C   0  0  0  0  0  0  0  0  0  0  0  0
   -4.5156    1.8752   -2.9083 H   0  0  0  0  0  0  0  0  0  0  0  0
   -3.5370    2.7079   -1.1480 N   0  0  0  0  0  0  0  0  0  0  0  0
   -4.2052    3.4109   -0.8434 H   0  0  0  0  0  0  0  0  0  0  0  0
   -2.3323    2.4172   -0.5229 C   0  0  0  0  0  0  0  0  0  0  0  0
   -1.9257    2.8884    0.3677 H   0  0  0  0  0  0  0  0  0  0  0  0
    0.0470    0.3465    1.5629 C   0  0  0  0  0  0  0  0  0  0  0  0
    1.1854    0.1365    1.9846 O   0  0  0  0  0  0  0  0  0  0  0  0
   -0.8551    1.0750    2.2320 N   0  0  0  0  0  0  0  0  0  0  0  0
   -1.7594    1.2031    1.8040 H   0  0  0  0  0  0  0  0  0  0  0  0
   -0.6356    1.6998    3.5400 C   0  0  0  0  0  0  0  0  0  0  0  0
   -0.4284    2.7647    3.4168 H   0  0  0  0  0  0  0  0  0  0  0  0
   -1.5268    1.5885    4.1601 H   0  0  0  0  0  0  0  0  0  0  0  0
    0.2072    1.2358    4.0566 H   0  0  0  0  0  0  0  0  0  0  0  0
  5  6  2  0  0  0  0
  5  7  1  0  0  0  0
  2  3  1  0  0  0  0
  2  4  1  0  0  0  0
  2  5  1  0  0  0  0
  1  2  1  0  0  0  0
 23 24  2  0  0  0  0
 23 25  1  0  0  0  0
 21 22  1  0  0  0  0
 19 20  1  0  0  0  0
 19 21  1  0  0  0  0
 17 18  1  0  0  0  0
 17 19  1  0  0  0  0
 15 16  1  0  0  0  0
 15 17  2  0  0  0  0
 14 15  1  0  0  0  0
 14 21  2  0  0  0  0
 11 12  1  0  0  0  0
 11 13  1  0  0  0  0
 11 14  1  0  0  0  0
  9 10  1  0  0  0  0
  9 11  1  0  0  0  0
  9 23  1  0  0  0  0
  7  8  1  0  0  0  0
  7  9  1  0  0  0  0
 27 28  1  0  0  0  0
 27 29  1  0  0  0  0
 27 30  1  0  0  0  0
 25 26  1  0  0  0  0
 25 27  1  0  0  0  0
M  CHG  1  15   1
M  END
$$$$
default_name
  -OEChem-02102213163D

 30 30  0     1  0  0  0  0  0999 V2000
   -3.5507   -3.2183    1.8116 H   0  0  0  0  0  0  0  0  0  0  0  0
   -3.4597   -2.3913    1.1076 C   0  0  0  0  0  0  0  0  0  0  0  0
   -4.1577   -1.6043    1.3866 H   0  0  0  0  0  0  0  0  0  0  0  0
   -3.6807   -2.7523    0.1036 H   0  0  0  0  0  0  0  0  0  0  0  0
   -2.0477   -1.8543    1.1546 C   0  0  0  0  0  0  0  0  0  0  0  0
   -1.2227   -2.3443    1.9146 O   0  0  0  0  0  0  0  0  0  0  0  0
   -1.7517   -0.8483    0.3266 N   0  0  0  0  0  0  0  0  0  0  0  0
   -2.4847   -0.5123   -0.2804 H   0  0  0  0  0  0  0  0  0  0  0  0
   -0.4117   -0.2463    0.2186 C   0  0  1  0  0  0  0  0  0  0  0  0
    0.2987   -1.0391   -0.0285 H   0  0  0  0  0  0  0  0  0  0  0  0
   -0.4131    0.7505   -0.9636 C   0  0  0  0  0  0  0  0  0  0  0  0
    0.3299    1.5271   -0.7652 H   0  0  0  0  0  0  0  0  0  0  0  0
   -0.0965    0.2278   -1.8688 H   0  0  0  0  0  0  0  0  0  0  0  0
   -1.7448    1.4136   -1.2447 C   0  0  0  0  0  0  0  0  0  0  0  0
   -2.7151    0.9259   -2.0986 N   0  3  0  0  0  0  0  0  0  0  0  0
   -2.6446    0.0234   -2.5774 H   0  0  0  0  0  0  0  0  0  0  0  0
   -3.7558    1.7824   -2.0939 C   0  0  0  0  0  0  0  0  0  0  0  0
   -4.6759    1.6579   -2.6613 H   0  0  0  0  0  0  0  0  0  0  0  0
   -3.4665    2.8037   -1.2562 N   0  0  0  0  0  0  0  0  0  0  0  0
   -4.0687    3.5967   -1.0516 H   0  0  0  0  0  0  0  0  0  0  0  0
   -2.2069    2.5878   -0.7145 C   0  0  0  0  0  0  0  0  0  0  0  0
   -1.6810    3.2214   -0.0057 H   0  0  0  0  0  0  0  0  0  0  0  0
    0.0470    0.3465    1.5629 C   0  0  0  0  0  0  0  0  0  0  0  0
    1.1854    0.1365    1.9846 O   0  0  0  0  0  0  0  0  0  0  0  0
   -0.8551    1.0750    2.2320 N   0  0  0  0  0  0  0  0  0  0  0  0
   -1.7594    1.2031    1.8040 H   0  0  0  0  0  0  0  0  0  0  0  0
   -0.6356    1.6998    3.5400 C   0  0  0  0  0  0  0  0  0  0  0  0
   -0.4284    2.7647    3.4168 H   0  0  0  0  0  0  0  0  0  0  0  0
   -1.5268    1.5885    4.1601 H   0  0  0  0  0  0  0  0  0  0  0  0
    0.2072    1.2358    4.0566 H   0  0  0  0  0  0  0  0  0  0  0  0
  5  6  2  0  0  0  0
  5  7  1  0  0  0  0
  2  3  1  0  0  0  0
  2  4  1  0  0  0  0
  2  5  1  0  0  0  0
  1  2  1  0  0  0  0
 23 24  2  0  0  0  0
 23 25  1  0  0  0  0
 21 22  1  0  0  0  0
 19 20  1  0  0  0  0
 19 21  1  0  0  0  0
 17 18  1  0  0  0  0
 17 19  1  0  0  0  0
 15 16  1  0  0  0  0
 15 17  2  0  0  0  0
 14 15  1  0  0  0  0
 14 21  2  0  0  0  0
 11 12  1  0  0  0  0
 11 13  1  0  0  0  0
 11 14  1  0  0  0  0
  9 10  1  0  0  0  0
  9 11  1  0  0  0  0
  9 23  1  0  0  0  0
  7  8  1  0  0  0  0
  7  9  1  0  0  0  0
 27 28  1  0  0  0  0
 27 29  1  0  0  0  0
 27 30  1  0  0  0  0
 25 26  1  0  0  0  0
 25 27  1  0  0  0  0
M  CHG  1  15   1
M  END
$$$$
default_name
  -OEChem-02102213163D

 30 30  0     1  0  0  0  0  0999 V2000
   -3.5507   -3.2183    1.8116 H   0  0  0  0  0  0  0  0  0  0  0  0
   -3.4597   -2.3913    1.1076 C   0  0  0  0  0  0  0  0  0  0  0  0
   -4.1577   -1.6043    1.3866 H   0  0  0  0  0  0  0  0  0  0  0  0
   -3.6807   -2.7523    0.1036 H   0  0  0  0  0  0  0  0  0  0  0  0
   -2.0477   -1.8543    1.1546 C   0  0  0  0  0  0  0  0  0  0  0  0
   -1.2227   -2.3443    1.9146 O   0  0  0  0  0  0  0  0  0  0  0  0
   -1.7517   -0.8483    0.3266 N   0  0  0  0  0  0  0  0  0  0  0  0
   -2.4847   -0.5123   -0.2804 H   0  0  0  0  0  0  0  0  0  0  0  0
   -0.4117   -0.2463    0.2186 C   0  0  1  0  0  0  0  0  0  0  0  0
    0.2987   -1.0391   -0.0285 H   0  0  0  0  0  0  0  0  0  0  0  0
   -0.4131    0.7505   -0.9636 C   0  0  0  0  0  0  0  0  0  0  0  0
    0.3299    1.5271   -0.7652 H   0  0  0  0  0  0  0  0  0  0  0  0
   -0.0965    0.2278   -1.8688 H   0  0  0  0  0  0  0  0  0  0  0  0
   -1.7448    1.4136   -1.2447 C   0  0  0  0  0  0  0  0  0  0  0  0
   -2.8262    0.8067   -1.8536 N   0  3  0  0  0  0  0  0  0  0  0  0
   -2.8447   -0.1830   -2.1163 H   0  0  0  0  0  0  0  0  0  0  0  0
   -3.8284    1.7043   -1.9342 C   0  0  0  0  0  0  0  0  0  0  0  0
   -4.8132    1.5120   -2.3550 H   0  0  0  0  0  0  0  0  0  0  0  0
   -3.4060    2.8681   -1.3906 N   0  0  0  0  0  0  0  0  0  0  0  0
   -3.9516    3.7222   -1.3105 H   0  0  0  0  0  0  0  0  0  0  0  0
   -2.0993    2.7030   -0.9528 C   0  0  0  0  0  0  0  0  0  0  0  0
   -1.4710    3.4464   -0.4699 H   0  0  0  0  0  0  0  0  0  0  0  0
    0.0470    0.3465    1.5629 C   0  0  0  0  0  0  0  0  0  0  0  0
    1.1854    0.1365    1.9846 O   0  0  0  0  0  0  0  0  0  0  0  0
   -0.8551    1.0750    2.2320 N   0  0  0  0  0  0  0  0  0  0  0  0
   -1.7594    1.2031    1.8040 H   0  0  0  0  0  0  0  0  0  0  0  0
   -0.6356    1.6998    3.5400 C   0  0  0  0  0  0  0  0  0  0  0  0
   -0.4284    2.7647    3.4168 H   0  0  0  0  0  0  0  0  0  0  0  0
   -1.5268    1.5885    4.1601 H   0  0  0  0  0  0  0  0  0  0  0  0
    0.2072    1.2358    4.0566 H   0  0  0  0  0  0  0  0  0  0  0  0
  5  6  2  0  0  0  0
  5  7  1  0  0  0  0
  2  3  1  0  0  0  0
  2  4  1  0  0  0  0
  2  5  1  0  0  0  0
  1  2  1  0  0  0  0
 23 24  2  0  0  0  0
 23 25  1  0  0  0  0
 21 22  1  0  0  0  0
 19 20  1  0  0  0  0
 19 21  1  0  0  0  0
 17 18  1  0  0  0  0
 17 19  1  0  0  0  0
 15 16  1  0  0  0  0
 15 17  2  0  0  0  0
 14 15  1  0  0  0  0
 14 21  2  0  0  0  0
 11 12  1  0  0  0  0
 11 13  1  0  0  0  0
 11 14  1  0  0  0  0
  9 10  1  0  0  0  0
  9 11  1  0  0  0  0
  9 23  1  0  0  0  0
  7  8  1  0  0  0  0
  7  9  1  0  0  0  0
 27 28  1  0  0  0  0
 27 29  1  0  0  0  0
 27 30  1  0  0  0  0
 25 26  1  0  0  0  0
 25 27  1  0  0  0  0
M  CHG  1  15   1
M  END
$$$$
default_name
  -OEChem-02102213163D

 30 30  0     1  0  0  0  0  0999 V2000
   -3.5507   -3.2183    1.8116 H   0  0  0  0  0  0  0  0  0  0  0  0
   -3.4597   -2.3913    1.1076 C   0  0  0  0  0  0  0  0  0  0  0  0
   -4.1577   -1.6043    1.3866 H   0  0  0  0  0  0  0  0  0  0  0  0
   -3.6807   -2.7523    0.1036 H   0  0  0  0  0  0  0  0  0  0  0  0
   -2.0477   -1.8543    1.1546 C   0  0  0  0  0  0  0  0  0  0  0  0
   -1.2227   -2.3443    1.9146 O   0  0  0  0  0  0  0  0  0  0  0  0
   -1.7517   -0.8483    0.3266 N   0  0  0  0  0  0  0  0  0  0  0  0
   -2.4847   -0.5123   -0.2804 H   0  0  0  0  0  0  0  0  0  0  0  0
   -0.4117   -0.2463    0.2186 C   0  0  1  0  0  0  0  0  0  0  0  0
    0.2987   -1.0391   -0.0285 H   0  0  0  0  0  0  0  0  0  0  0  0
   -0.4131    0.7505   -0.9636 C   0  0  0  0  0  0  0  0  0  0  0  0
    0.3299    1.5271   -0.7652 H   0  0  0  0  0  0  0  0  0  0  0  0
   -0.0965    0.2278   -1.8688 H   0  0  0  0  0  0  0  0  0  0  0  0
   -1.7448    1.4136   -1.2447 C   0  0  0  0  0  0  0  0  0  0  0  0
   -2.9114    0.7526   -1.5771 N   0  3  0  0  0  0  0  0  0  0  0  0
   -2.9956   -0.2677   -1.6011 H   0  0  0  0  0  0  0  0  0  0  0  0
   -3.8842    1.6687   -1.7539 C   0  0  0  0  0  0  0  0  0  0  0  0
   -4.9182    1.4473   -2.0104 H   0  0  0  0  0  0  0  0  0  0  0  0
   -3.3598    2.8969   -1.5419 N   0  0  0  0  0  0  0  0  0  0  0  0
   -3.8617    3.7789   -1.6025 H   0  0  0  0  0  0  0  0  0  0  0  0
   -2.0168    2.7548   -1.2213 C   0  0  0  0  0  0  0  0  0  0  0  0
   -1.3100    3.5479   -0.9934 H   0  0  0  0  0  0  0  0  0  0  0  0
    0.0470    0.3465    1.5629 C   0  0  0  0  0  0  0  0  0  0  0  0
    1.1854    0.1365    1.9846 O   0  0  0  0  0  0  0  0  0  0  0  0
   -0.8551    1.0750    2.2320 N   0  0  0  0  0  0  0  0  0  0  0  0
   -1.7594    1.2031    1.8040 H   0  0  0  0  0  0  0  0  0  0  0  0
   -0.6356    1.6998    3.5400 C   0  0  0  0  0  0  0  0  0  0  0  0
   -0.4284    2.7647    3.4168 H   0  0  0  0  0  0  0  0  0  0  0  0
   -1.5268    1.5885    4.1601 H   0  0  0  0  0  0  0  0  0  0  0  0
    0.2072    1.2358    4.0566 H   0  0  0  0  0  0  0  0  0  0  0  0
  5  6  2  0  0  0  0
  5  7  1  0  0  0  0
  2  3  1  0  0  0  0
  2  4  1  0  0  0  0
  2  5  1  0  0  0  0
  1  2  1  0  0  0  0
 23 24  2  0  0  0  0
 23 25  1  0  0  0  0
 21 22  1  0  0  0  0
 19 20  1  0  0  0  0
 19 21  1  0  0  0  0
 17 18  1  0  0  0  0
 17 19  1  0  0  0  0
 15 16  1  0  0  0  0
 15 17  2  0  0  0  0
 14 15  1  0  0  0  0
 14 21  2  0  0  0  0
 11 12  1  0  0  0  0
 11 13  1  0  0  0  0
 11 14  1  0  0  0  0
  9 10  1  0  0  0  0
  9 11  1  0  0  0  0
  9 23  1  0  0  0  0
  7  8  1  0  0  0  0
  7  9  1  0  0  0  0
 27 28  1  0  0  0  0
 27 29  1  0  0  0  0
 27 30  1  0  0  0  0
 25 26  1  0  0  0  0
 25 27  1  0  0  0  0
M  CHG  1  15   1
M  END
$$$$
default_name
  -OEChem-02102213163D

 30 30  0     1  0  0  0  0  0999 V2000
   -3.5507   -3.2183    1.8116 H   0  0  0  0  0  0  0  0  0  0  0  0
   -3.4597   -2.3913    1.1076 C   0  0  0  0  0  0  0  0  0  0  0  0
   -4.1577   -1.6043    1.3866 H   0  0  0  0  0  0  0  0  0  0  0  0
   -3.6807   -2.7523    0.1036 H   0  0  0  0  0  0  0  0  0  0  0  0
   -2.0477   -1.8543    1.1546 C   0  0  0  0  0  0  0  0  0  0  0  0
   -1.2227   -2.3443    1.9146 O   0  0  0  0  0  0  0  0  0  0  0  0
   -1.7517   -0.8483    0.3266 N   0  0  0  0  0  0  0  0  0  0  0  0
   -2.4847   -0.5123   -0.2804 H   0  0  0  0  0  0  0  0  0  0  0  0
   -0.4117   -0.2463    0.2186 C   0  0  1  0  0  0  0  0  0  0  0  0
    0.2987   -1.0391   -0.0285 H   0  0  0  0  0  0  0  0  0  0  0  0
   -0.4131    0.7505   -0.9636 C   0  0  0  0  0  0  0  0  0  0  0  0
    0.3299    1.5271   -0.7652 H   0  0  0  0  0  0  0  0  0  0  0  0
   -0.0965    0.2278   -1.8688 H   0  0  0  0  0  0  0  0  0  0  0  0
   -1.7448    1.4136   -1.2447 C   0  0  0  0  0  0  0  0  0  0  0  0
   -2.9651    0.7674   -1.2881 N   0  3  0  0  0  0  0  0  0  0  0  0
   -3.0871   -0.2250   -1.0672 H   0  0  0  0  0  0  0  0  0  0  0  0
   -3.9193    1.6781   -1.5653 C   0  0  0  0  0  0  0  0  0  0  0  0
   -4.9836    1.4684   -1.6509 H   0  0  0  0  0  0  0  0  0  0  0  0
   -3.3308    2.8880   -1.6998 N   0  0  0  0  0  0  0  0  0  0  0  0
   -3.8053    3.7628   -1.9075 H   0  0  0  0  0  0  0  0  0  0  0  0
   -1.9650    2.7398   -1.5018 C   0  0  0  0  0  0  0  0  0  0  0  0
   -1.2089    3.5191   -1.5403 H   0  0  0  0  0  0  0  0  0  0  0  0
    0.0470    0.3465    1.5629 C   0  0  0  0  0  0  0  0  0  0  0  0
    1.1854    0.1365    1.9846 O   0  0  0  0  0  0  0  0  0  0  0  0
   -0.8551    1.0750    2.2320 N   0  0  0  0  0  0  0  0  0  0  0  0
   -1.7594    1.2031    1.8040 H   0  0  0  0  0  0  0  0  0  0  0  0
   -0.6356    1.6998    3.5400 C   0  0  0  0  0  0  0  0  0  0  0  0
   -0.4284    2.7647    3.4168 H   0  0  0  0  0  0  0  0  0  0  0  0
   -1.5268    1.5885    4.1601 H   0  0  0  0  0  0  0  0  0  0  0  0
    0.2072    1.2358    4.0566 H   0  0  0  0  0  0  0  0  0  0  0  0
  5  6  2  0  0  0  0
  5  7  1  0  0  0  0
  2  3  1  0  0  0  0
  2  4  1  0  0  0  0
  2  5  1  0  0  0  0
  1  2  1  0  0  0  0
 23 24  2  0  0  0  0
 23 25  1  0  0  0  0
 21 22  1  0  0  0  0
 19 20  1  0  0  0  0
 19 21  1  0  0  0  0
 17 18  1  0  0  0  0
 17 19  1  0  0  0  0
 15 16  1  0  0  0  0
 15 17  2  0  0  0  0
 14 15  1  0  0  0  0
 14 21  2  0  0  0  0
 11 12  1  0  0  0  0
 11 13  1  0  0  0  0
 11 14  1  0  0  0  0
  9 10  1  0  0  0  0
  9 11  1  0  0  0  0
  9 23  1  0  0  0  0
  7  8  1  0  0  0  0
  7  9  1  0  0  0  0
 27 28  1  0  0  0  0
 27 29  1  0  0  0  0
 27 30  1  0  0  0  0
 25 26  1  0  0  0  0
 25 27  1  0  0  0  0
M  CHG  1  15   1
M  END
$$$$
default_name
  -OEChem-02102213163D

 30 30  0     1  0  0  0  0  0999 V2000
   -3.5507   -3.2183    1.8116 H   0  0  0  0  0  0  0  0  0  0  0  0
   -3.4597   -2.3913    1.1076 C   0  0  0  0  0  0  0  0  0  0  0  0
   -4.1577   -1.6043    1.3866 H   0  0  0  0  0  0  0  0  0  0  0  0
   -3.6807   -2.7523    0.1036 H   0  0  0  0  0  0  0  0  0  0  0  0
   -2.0477   -1.8543    1.1546 C   0  0  0  0  0  0  0  0  0  0  0  0
   -1.2227   -2.3443    1.9146 O   0  0  0  0  0  0  0  0  0  0  0  0
   -1.7517   -0.8483    0.3266 N   0  0  0  0  0  0  0  0  0  0  0  0
   -2.4847   -0.5123   -0.2804 H   0  0  0  0  0  0  0  0  0  0  0  0
   -0.4117   -0.2463    0.2186 C   0  0  1  0  0  0  0  0  0  0  0  0
    0.2987   -1.0391   -0.0285 H   0  0  0  0  0  0  0  0  0  0  0  0
   -0.4131    0.7505   -0.9636 C   0  0  0  0  0  0  0  0  0  0  0  0
    0.3299    1.5271   -0.7652 H   0  0  0  0  0  0  0  0  0  0  0  0
   -0.0965    0.2278   -1.8688 H   0  0  0  0  0  0  0  0  0  0  0  0
   -1.7448    1.4136   -1.2447 C   0  0  0  0  0  0  0  0  0  0  0  0
   -2.9834    0.8501   -1.0063 N   0  3  0  0  0  0  0  0  0  0  0  0
   -3.1128   -0.0579   -0.5507 H   0  0  0  0  0  0  0  0  0  0  0  0
   -3.9314    1.7317   -1.3813 C   0  0  0  0  0  0  0  0  0  0  0  0
   -5.0050    1.5737   -1.3011 H   0  0  0  0  0  0  0  0  0  0  0  0
   -3.3212    2.8421   -1.8537 N   0  0  0  0  0  0  0  0  0  0  0  0
   -3.7862    3.6751   -2.2049 H   0  0  0  0  0  0  0  0  0  0  0  0
   -1.9476    2.6590   -1.7752 C   0  0  0  0  0  0  0  0  0  0  0  0
   -1.1746    3.3618   -2.0735 H   0  0  0  0  0  0  0  0  0  0  0  0
    0.0470    0.3465    1.5629 C   0  0  0  0  0  0  0  0  0  0  0  0
    1.1854    0.1365    1.9846 O   0  0  0  0  0  0  0  0  0  0  0  0
   -0.8551    1.0750    2.2320 N   0  0  0  0  0  0  0  0  0  0  0  0
   -1.7594    1.2031    1.8040 H   0  0  0  0  0  0  0  0  0  0  0  0
   -0.6356    1.6998    3.5400 C   0  0  0  0  0  0  0  0  0  0  0  0
   -0.4284    2.7647    3.4168 H   0  0  0  0  0  0  0  0  0  0  0  0
   -1.5268    1.5885    4.1601 H   0  0  0  0  0  0  0  0  0  0  0  0
    0.2072    1.2358    4.0566 H   0  0  0  0  0  0  0  0  0  0  0  0
  5  6  2  0  0  0  0
  5  7  1  0  0  0  0
  2  3  1  0  0  0  0
  2  4  1  0  0  0  0
  2  5  1  0  0  0  0
  1  2  1  0  0  0  0
 23 24  2  0  0  0  0
 23 25  1  0  0  0  0
 21 22  1  0  0  0  0
 19 20  1  0  0  0  0
 19 21  1  0  0  0  0
 17 18  1  0  0  0  0
 17 19  1  0  0  0  0
 15 16  1  0  0  0  0
 15 17  2  0  0  0  0
 14 15  1  0  0  0  0
 14 21  2  0  0  0  0
 11 12  1  0  0  0  0
 11 13  1  0  0  0  0
 11 14  1  0  0  0  0
  9 10  1  0  0  0  0
  9 11  1  0  0  0  0
  9 23  1  0  0  0  0
  7  8  1  0  0  0  0
  7  9  1  0  0  0  0
 27 28  1  0  0  0  0
 27 29  1  0  0  0  0
 27 30  1  0  0  0  0
 25 26  1  0  0  0  0
 25 27  1  0  0  0  0
M  CHG  1  15   1
M  END
$$$$
default_name
  -OEChem-02102213163D

 30 30  0     1  0  0  0  0  0999 V2000
   -3.5507   -3.2183    1.8116 H   0  0  0  0  0  0  0  0  0  0  0  0
   -3.4597   -2.3913    1.1076 C   0  0  0  0  0  0  0  0  0  0  0  0
   -4.1577   -1.6043    1.3866 H   0  0  0  0  0  0  0  0  0  0  0  0
   -3.6807   -2.7523    0.1036 H   0  0  0  0  0  0  0  0  0  0  0  0
   -2.0477   -1.8543    1.1546 C   0  0  0  0  0  0  0  0  0  0  0  0
   -1.2227   -2.3443    1.9146 O   0  0  0  0  0  0  0  0  0  0  0  0
   -1.7517   -0.8483    0.3266 N   0  0  0  0  0  0  0  0  0  0  0  0
   -2.4847   -0.5123   -0.2804 H   0  0  0  0  0  0  0  0  0  0  0  0
   -0.4117   -0.2463    0.2186 C   0  0  1  0  0  0  0  0  0  0  0  0
    0.2987   -1.0391   -0.0285 H   0  0  0  0  0  0  0  0  0  0  0  0
   -0.4131    0.7505   -0.9636 C   0  0  0  0  0  0  0  0  0  0  0  0
    0.3299    1.5271   -0.7652 H   0  0  0  0  0  0  0  0  0  0  0  0
   -0.0965    0.2278   -1.8688 H   0  0  0  0  0  0  0  0  0  0  0  0
   -1.7448    1.4136   -1.2447 C   0  0  0  0  0  0  0  0  0  0  0  0
   -2.9651    0.9951   -0.7508 N   0  3  0  0  0  0  0  0  0  0  0  0
   -3.0711    0.2224   -0.0870 H   0  0  0  0  0  0  0  0  0  0  0  0
   -3.9197    1.8261   -1.2144 C   0  0  0  0  0  0  0  0  0  0  0  0
   -4.9810    1.7561   -0.9847 H   0  0  0  0  0  0  0  0  0  0  0  0
   -3.3316    2.7623   -1.9929 N   0  0  0  0  0  0  0  0  0  0  0  0
   -3.8057    3.5218   -2.4744 H   0  0  0  0  0  0  0  0  0  0  0  0
   -1.9656    2.5178   -2.0228 C   0  0  0  0  0  0  0  0  0  0  0  0
   -1.2095    3.0869   -2.5566 H   0  0  0  0  0  0  0  0  0  0  0  0
    0.0470    0.3465    1.5629 C   0  0  0  0  0  0  0  0  0  0  0  0
    1.1854    0.1365    1.9846 O   0  0  0  0  0  0  0  0  0  0  0  0
   -0.8551    1.0750    2.2320 N   0  0  0  0  0  0  0  0  0  0  0  0
   -1.7594    1.2031    1.8040 H   0  0  0  0  0  0  0  0  0  0  0  0
   -0.6356    1.6998    3.5400 C   0  0  0  0  0  0  0  0  0  0  0  0
   -0.4284    2.7647    3.4168 H   0  0  0  0  0  0  0  0  0  0  0  0
   -1.5268    1.5885    4.1601 H   0  0  0  0  0  0  0  0  0  0  0  0
    0.2072    1.2358    4.0566 H   0  0  0  0  0  0  0  0  0  0  0  0
  5  6  2  0  0  0  0
  5  7  1  0  0  0  0
  2  3  1  0  0  0  0
  2  4  1  0  0  0  0
  2  5  1  0  0  0  0
  1  2  1  0  0  0  0
 23 24  2  0  0  0  0
 23 25  1  0  0  0  0
 21 22  1  0  0  0  0
 19 20  1  0  0  0  0
 19 21  1  0  0  0  0
 17 18  1  0  0  0  0
 17 19  1  0  0  0  0
 15 16  1  0  0  0  0
 15 17  2  0  0  0  0
 14 15  1  0  0  0  0
 14 21  2  0  0  0  0
 11 12  1  0  0  0  0
 11 13  1  0  0  0  0
 11 14  1  0  0  0  0
  9 10  1  0  0  0  0
  9 11  1  0  0  0  0
  9 23  1  0  0  0  0
  7  8  1  0  0  0  0
  7  9  1  0  0  0  0
 27 28  1  0  0  0  0
 27 29  1  0  0  0  0
 27 30  1  0  0  0  0
 25 26  1  0  0  0  0
 25 27  1  0  0  0  0
M  CHG  1  15   1
M  END
$$$$
default_name
  -OEChem-02102213163D

 30 30  0     1  0  0  0  0  0999 V2000
   -3.5507   -3.2183    1.8116 H   0  0  0  0  0  0  0  0  0  0  0  0
   -3.4597   -2.3913    1.1076 C   0  0  0  0  0  0  0  0  0  0  0  0
   -4.1577   -1.6043    1.3866 H   0  0  0  0  0  0  0  0  0  0  0  0
   -3.6807   -2.7523    0.1036 H   0  0  0  0  0  0  0  0  0  0  0  0
   -2.0477   -1.8543    1.1546 C   0  0  0  0  0  0  0  0  0  0  0  0
   -1.2227   -2.3443    1.9146 O   0  0  0  0  0  0  0  0  0  0  0  0
   -1.7517   -0.8483    0.3266 N   0  0  0  0  0  0  0  0  0  0  0  0
   -2.4847   -0.5123   -0.2804 H   0  0  0  0  0  0  0  0  0  0  0  0
   -0.4117   -0.2463    0.2186 C   0  0  1  0  0  0  0  0  0  0  0  0
    0.2987   -1.0391   -0.0285 H   0  0  0  0  0  0  0  0  0  0  0  0
   -0.4131    0.7505   -0.9636 C   0  0  0  0  0  0  0  0  0  0  0  0
    0.3299    1.5271   -0.7652 H   0  0  0  0  0  0  0  0  0  0  0  0
   -0.0965    0.2278   -1.8688 H   0  0  0  0  0  0  0  0  0  0  0  0
   -1.7448    1.4136   -1.2447 C   0  0  0  0  0  0  0  0  0  0  0  0
   -2.9116    1.1923   -0.5390 N   0  3  0  0  0  0  0  0  0  0  0  0
   -2.9648    0.5967    0.2923 H   0  0  0  0  0  0  0  0  0  0  0  0
   -3.8849    1.9546   -1.0760 C   0  0  0  0  0  0  0  0  0  0  0  0
   -4.9131    2.0031   -0.7233 H   0  0  0  0  0  0  0  0  0  0  0  0
   -3.3612    2.6540   -2.1080 N   0  0  0  0  0  0  0  0  0  0  0  0
   -3.8624    3.3133   -2.6976 H   0  0  0  0  0  0  0  0  0  0  0  0
   -2.0179    2.3259   -2.2279 C   0  0  0  0  0  0  0  0  0  0  0  0
   -1.3112    2.7131   -2.9567 H   0  0  0  0  0  0  0  0  0  0  0  0
    0.0470    0.3465    1.5629 C   0  0  0  0  0  0  0  0  0  0  0  0
    1.1854    0.1365    1.9846 O   0  0  0  0  0  0  0  0  0  0  0  0
   -0.8551    1.0750    2.2320 N   0  0  0  0  0  0  0  0  0  0  0  0
   -1.7594    1.2031    1.8040 H   0  0  0  0  0  0  0  0  0  0  0  0
   -0.6356    1.6998    3.5400 C   0  0  0  0  0  0  0  0  0  0  0  0
   -0.4284    2.7647    3.4168 H   0  0  0  0  0  0  0  0  0  0  0  0
   -1.5268    1.5885    4.1601 H   0  0  0  0  0  0  0  0  0  0  0  0
    0.2072    1.2358    4.0566 H   0  0  0  0  0  0  0  0  0  0  0  0
  5  6  2  0  0  0  0
  5  7  1  0  0  0  0
  2  3  1  0  0  0  0
  2  4  1  0  0  0  0
  2  5  1  0  0  0  0
  1  2  1  0  0  0  0
 23 24  2  0  0  0  0
 23 25  1  0  0  0  0
 21 22  1  0  0  0  0
 19 20  1  0  0  0  0
 19 21  1  0  0  0  0
 17 18  1  0  0  0  0
 17 19  1  0  0  0  0
 15 16  1  0  0  0  0
 15 17  2  0  0  0  0
 14 15  1  0  0  0  0
 14 21  2  0  0  0  0
 11 12  1  0  0  0  0
 11 13  1  0  0  0  0
 11 14  1  0  0  0  0
  9 10  1  0  0  0  0
  9 11  1  0  0  0  0
  9 23  1  0  0  0  0
  7  8  1  0  0  0  0
  7  9  1  0  0  0  0
 27 28  1  0  0  0  0
 27 29  1  0  0  0  0
 27 30  1  0  0  0  0
 25 26  1  0  0  0  0
 25 27  1  0  0  0  0
M  CHG  1  15   1
M  END
$$$$
default_name
  -OEChem-02102213163D

 30 30  0     1  0  0  0  0  0999 V2000
   -3.5507   -3.2183    1.8116 H   0  0  0  0  0  0  0  0  0  0  0  0
   -3.4597   -2.3913    1.1076 C   0  0  0  0  0  0  0  0  0  0  0  0
   -4.1577   -1.6043    1.3866 H   0  0  0  0  0  0  0  0  0  0  0  0
   -3.6807   -2.7523    0.1036 H   0  0  0  0  0  0  0  0  0  0  0  0
   -2.0477   -1.8543    1.1546 C   0  0  0  0  0  0  0  0  0  0  0  0
   -1.2227   -2.3443    1.9146 O   0  0  0  0  0  0  0  0  0  0  0  0
   -1.7517   -0.8483    0.3266 N   0  0  0  0  0  0  0  0  0  0  0  0
   -2.4847   -0.5123   -0.2804 H   0  0  0  0  0  0  0  0  0  0  0  0
   -0.4117   -0.2463    0.2186 C   0  0  1  0  0  0  0  0  0  0  0  0
    0.2987   -1.0391   -0.0285 H   0  0  0  0  0  0  0  0  0  0  0  0
   -0.4131    0.7505   -0.9636 C   0  0  0  0  0  0  0  0  0  0  0  0
    0.3299    1.5271   -0.7652 H   0  0  0  0  0  0  0  0  0  0  0  0
   -0.0965    0.2278   -1.8688 H   0  0  0  0  0  0  0  0  0  0  0  0
   -1.7448    1.4136   -1.2447 C   0  0  0  0  0  0  0  0  0  0  0  0
   -2.8264    1.4285   -0.3855 N   0  3  0  0  0  0  0  0  0  0  0  0
   -2.8012    1.0395    0.5615 H   0  0  0  0  0  0  0  0  0  0  0  0
   -3.8294    2.1086   -0.9756 C   0  0  0  0  0  0  0  0  0  0  0  0
   -4.8061    2.2980   -0.5348 H   0  0  0  0  0  0  0  0  0  0  0  0
   -3.4081    2.5246   -2.1912 N   0  0  0  0  0  0  0  0  0  0  0  0
   -3.9525    3.0638   -2.8593 H   0  0  0  0  0  0  0  0  0  0  0  0
   -2.1008    2.0964   -2.3763 C   0  0  0  0  0  0  0  0  0  0  0  0
   -1.4728    2.2657   -3.2466 H   0  0  0  0  0  0  0  0  0  0  0  0
    0.0470    0.3465    1.5629 C   0  0  0  0  0  0  0  0  0  0  0  0
    1.1854    0.1365    1.9846 O   0  0  0  0  0  0  0  0  0  0  0  0
   -0.8551    1.0750    2.2320 N   0  0  0  0  0  0  0  0  0  0  0  0
   -1.7594    1.2031    1.8040 H   0  0  0  0  0  0  0  0  0  0  0  0
   -0.6356    1.6998    3.5400 C   0  0  0  0  0  0  0  0  0  0  0  0
   -0.4284    2.7647    3.4168 H   0  0  0  0  0  0  0  0  0  0  0  0
   -1.5268    1.5885    4.1601 H   0  0  0  0  0  0  0  0  0  0  0  0
    0.2072    1.2358    4.0566 H   0  0  0  0  0  0  0  0  0  0  0  0
  5  6  2  0  0  0  0
  5  7  1  0  0  0  0
  2  3  1  0  0  0  0
  2  4  1  0  0  0  0
  2  5  1  0  0  0  0
  1  2  1  0  0  0  0
 23 24  2  0  0  0  0
 23 25  1  0  0  0  0
 21 22  1  0  0  0  0
 19 20  1  0  0  0  0
 19 21  1  0  0  0  0
 17 18  1  0  0  0  0
 17 19  1  0  0  0  0
 15 16  1  0  0  0  0
 15 17  2  0  0  0  0
 14 15  1  0  0  0  0
 14 21  2  0  0  0  0
 11 12  1  0  0  0  0
 11 13  1  0  0  0  0
 11 14  1  0  0  0  0
  9 10  1  0  0  0  0
  9 11  1  0  0  0  0
  9 23  1  0  0  0  0
  7  8  1  0  0  0  0
  7  9  1  0  0  0  0
 27 28  1  0  0  0  0
 27 29  1  0  0  0  0
 27 30  1  0  0  0  0
 25 26  1  0  0  0  0
 25 27  1  0  0  0  0
M  CHG  1  15   1
M  END
$$$$
default_name
  -OEChem-02102213163D

 30 30  0     1  0  0  0  0  0999 V2000
   -3.5507   -3.2183    1.8116 H   0  0  0  0  0  0  0  0  0  0  0  0
   -3.4597   -2.3913    1.1076 C   0  0  0  0  0  0  0  0  0  0  0  0
   -4.1577   -1.6043    1.3866 H   0  0  0  0  0  0  0  0  0  0  0  0
   -3.6807   -2.7523    0.1036 H   0  0  0  0  0  0  0  0  0  0  0  0
   -2.0477   -1.8543    1.1546 C   0  0  0  0  0  0  0  0  0  0  0  0
   -1.2227   -2.3443    1.9146 O   0  0  0  0  0  0  0  0  0  0  0  0
   -1.7517   -0.8483    0.3266 N   0  0  0  0  0  0  0  0  0  0  0  0
   -2.4847   -0.5123   -0.2804 H   0  0  0  0  0  0  0  0  0  0  0  0
   -0.4117   -0.2463    0.2186 C   0  0  1  0  0  0  0  0  0  0  0  0
    0.2987   -1.0391   -0.0285 H   0  0  0  0  0  0  0  0  0  0  0  0
   -0.4131    0.7505   -0.9636 C   0  0  0  0  0  0  0  0  0  0  0  0
    0.3299    1.5271   -0.7652 H   0  0  0  0  0  0  0  0  0  0  0  0
   -0.0965    0.2278   -1.8688 H   0  0  0  0  0  0  0  0  0  0  0  0
   -1.7448    1.4136   -1.2447 C   0  0  0  0  0  0  0  0  0  0  0  0
   -2.7154    1.6875   -0.3006 N   0  3  0  0  0  0  0  0  0  0  0  0
   -2.5913    1.5207    0.7021 H   0  0  0  0  0  0  0  0  0  0  0  0
   -3.7571    2.2775   -0.9198 C   0  0  0  0  0  0  0  0  0  0  0  0
   -4.6672    2.6206   -0.4319 H   0  0  0  0  0  0  0  0  0  0  0  0
   -3.4690    2.3829   -2.2368 N   0  0  0  0  0  0  0  0  0  0  0  0
   -4.0698    2.7904   -2.9485 H   0  0  0  0  0  0  0  0  0  0  0  0
   -2.2088    1.8449   -2.4581 C   0  0  0  0  0  0  0  0  0  0  0  0
   -1.6832    1.7754   -3.4064 H   0  0  0  0  0  0  0  0  0  0  0  0
    0.0470    0.3465    1.5629 C   0  0  0  0  0  0  0  0  0  0  0  0
    1.1854    0.1365    1.9846 O   0  0  0  0  0  0  0  0  0  0  0  0
   -0.8551    1.0750    2.2320 N   0  0  0  0  0  0  0  0  0  0  0  0
   -1.7594    1.2031    1.8040 H   0  0  0  0  0  0  0  0  0  0  0  0
   -0.6356    1.6998    3.5400 C   0  0  0  0  0  0  0  0  0  0  0  0
   -0.4284    2.7647    3.4168 H   0  0  0  0  0  0  0  0  0  0  0  0
   -1.5268    1.5885    4.1601 H   0  0  0  0  0  0  0  0  0  0  0  0
    0.2072    1.2358    4.0566 H   0  0  0  0  0  0  0  0  0  0  0  0
  5  6  2  0  0  0  0
  5  7  1  0  0  0  0
  2  3  1  0  0  0  0
  2  4  1  0  0  0  0
  2  5  1  0  0  0  0
  1  2  1  0  0  0  0
 23 24  2  0  0  0  0
 23 25  1  0  0  0  0
 21 22  1  0  0  0  0
 19 20  1  0  0  0  0
 19 21  1  0  0  0  0
 17 18  1  0  0  0  0
 17 19  1  0  0  0  0
 15 16  1  0  0  0  0
 15 17  2  0  0  0  0
 14 15  1  0  0  0  0
 14 21  2  0  0  0  0
 11 12  1  0  0  0  0
 11 13  1  0  0  0  0
 11 14  1  0  0  0  0
  9 10  1  0  0  0  0
  9 11  1  0  0  0  0
  9 23  1  0  0  0  0
  7  8  1  0  0  0  0
  7  9  1  0  0  0  0
 27 28  1  0  0  0  0
 27 29  1  0  0  0  0
 27 30  1  0  0  0  0
 25 26  1  0  0  0  0
 25 27  1  0  0  0  0
M  CHG  1  15   1
M  END
$$$$
default_name
  -OEChem-02102213163D

 30 30  0     1  0  0  0  0  0999 V2000
   -3.5507   -3.2183    1.8116 H   0  0  0  0  0  0  0  0  0  0  0  0
   -3.4597   -2.3913    1.1076 C   0  0  0  0  0  0  0  0  0  0  0  0
   -4.1577   -1.6043    1.3866 H   0  0  0  0  0  0  0  0  0  0  0  0
   -3.6807   -2.7523    0.1036 H   0  0  0  0  0  0  0  0  0  0  0  0
   -2.0477   -1.8543    1.1546 C   0  0  0  0  0  0  0  0  0  0  0  0
   -1.2227   -2.3443    1.9146 O   0  0  0  0  0  0  0  0  0  0  0  0
   -1.7517   -0.8483    0.3266 N   0  0  0  0  0  0  0  0  0  0  0  0
   -2.4847   -0.5123   -0.2804 H   0  0  0  0  0  0  0  0  0  0  0  0
   -0.4117   -0.2463    0.2186 C   0  0  1  0  0  0  0  0  0  0  0  0
    0.2987   -1.0391   -0.0285 H   0  0  0  0  0  0  0  0  0  0  0  0
   -0.4131    0.7505   -0.9636 C   0  0  0  0  0  0  0  0  0  0  0  0
    0.3299    1.5271   -0.7652 H   0  0  0  0  0  0  0  0  0  0  0  0
   -0.0965    0.2278   -1.8688 H   0  0  0  0  0  0  0  0  0  0  0  0
   -1.7448    1.4136   -1.2447 C   0  0  0  0  0  0  0  0  0  0  0  0
   -2.5860    1.9517   -0.2902 N   0  3  0  0  0  0  0  0  0  0  0  0
   -2.3495    2.0073    0.7046 H   0  0  0  0  0  0  0  0  0  0  0  0
   -3.6727    2.4499   -0.9127 C   0  0  0  0  0  0  0  0  0  0  0  0
   -4.5058    2.9489   -0.4218 H   0  0  0  0  0  0  0  0  0  0  0  0
   -3.5398    2.2386   -2.2417 N   0  0  0  0  0  0  0  0  0  0  0  0
   -4.2064    2.5115   -2.9591 H   0  0  0  0  0  0  0  0  0  0  0  0
   -2.3344    1.5886   -2.4675 C   0  0  0  0  0  0  0  0  0  0  0  0
   -1.9281    1.2756   -3.4253 H   0  0  0  0  0  0  0  0  0  0  0  0
    0.0470    0.3465    1.5629 C   0  0  0  0  0  0  0  0  0  0  0  0
    1.1854    0.1365    1.9846 O   0  0  0  0  0  0  0  0  0  0  0  0
   -0.8551    1.0750    2.2320 N   0  0  0  0  0  0  0  0  0  0  0  0
   -1.7594    1.2031    1.8040 H   0  0  0  0  0  0  0  0  0  0  0  0
   -0.6356    1.6998    3.5400 C   0  0  0  0  0  0  0  0  0  0  0  0
   -0.4284    2.7647    3.4168 H   0  0  0  0  0  0  0  0  0  0  0  0
   -1.5268    1.5885    4.1601 H   0  0  0  0  0  0  0  0  0  0  0  0
    0.2072    1.2358    4.0566 H   0  0  0  0  0  0  0  0  0  0  0  0
  5  6  2  0  0  0  0
  5  7  1  0  0  0  0
  2  3  1  0  0  0  0
  2  4  1  0  0  0  0
  2  5  1  0  0  0  0
  1  2  1  0  0  0  0
 23 24  2  0  0  0  0
 23 25  1  0  0  0  0
 21 22  1  0  0  0  0
 19 20  1  0  0  0  0
 19 21  1  0  0  0  0
 17 18  1  0  0  0  0
 17 19  1  0  0  0  0
 15 16  1  0  0  0  0
 15 17  2  0  0  0  0
 14 15  1  0  0  0  0
 14 21  2  0  0  0  0
 11 12  1  0  0  0  0
 11 13  1  0  0  0  0
 11 14  1  0  0  0  0
  9 10  1  0  0  0  0
  9 11  1  0  0  0  0
  9 23  1  0  0  0  0
  7  8  1  0  0  0  0
  7  9  1  0  0  0  0
 27 28  1  0  0  0  0
 27 29  1  0  0  0  0
 27 30  1  0  0  0  0
 25 26  1  0  0  0  0
 25 27  1  0  0  0  0
M  CHG  1  15   1
M  END
$$$$
default_name
  -OEChem-02102213163D

 30 30  0     1  0  0  0  0  0999 V2000
   -3.5507   -3.2183    1.8116 H   0  0  0  0  0  0  0  0  0  0  0  0
   -3.4597   -2.3913    1.1076 C   0  0  0  0  0  0  0  0  0  0  0  0
   -4.1577   -1.6043    1.3866 H   0  0  0  0  0  0  0  0  0  0  0  0
   -3.6807   -2.7523    0.1036 H   0  0  0  0  0  0  0  0  0  0  0  0
   -2.0477   -1.8543    1.1546 C   0  0  0  0  0  0  0  0  0  0  0  0
   -1.2227   -2.3443    1.9146 O   0  0  0  0  0  0  0  0  0  0  0  0
   -1.7517   -0.8483    0.3266 N   0  0  0  0  0  0  0  0  0  0  0  0
   -2.4847   -0.5123   -0.2804 H   0  0  0  0  0  0  0  0  0  0  0  0
   -0.4117   -0.2463    0.2186 C   0  0  1  0  0  0  0  0  0  0  0  0
    0.2987   -1.0391   -0.0285 H   0  0  0  0  0  0  0  0  0  0  0  0
   -0.4131    0.7505   -0.9636 C   0  0  0  0  0  0  0  0  0  0  0  0
    0.3299    1.5271   -0.7652 H   0  0  0  0  0  0  0  0  0  0  0  0
   -0.0965    0.2278   -1.8688 H   0  0  0  0  0  0  0  0  0  0  0  0
   -1.7448    1.4136   -1.2447 C   0  0  0  0  0  0  0  0  0  0  0  0
   -2.4472    2.2030   -0.3549 N   0  3  0  0  0  0  0  0  0  0  0  0
   -2.0923    2.4664    0.5689 H   0  0  0  0  0  0  0  0  0  0  0  0
   -3.5822    2.6140   -0.9546 C   0  0  0  0  0  0  0  0  0  0  0  0
   -4.3330    3.2606   -0.5050 H   0  0  0  0  0  0  0  0  0  0  0  0
   -3.6157    2.1015   -2.2055 N   0  0  0  0  0  0  0  0  0  0  0  0
   -4.3530    2.2464   -2.8903 H   0  0  0  0  0  0  0  0  0  0  0  0
   -2.4692    1.3448   -2.4040 C   0  0  0  0  0  0  0  0  0  0  0  0
   -2.1908    0.8002   -3.3020 H   0  0  0  0  0  0  0  0  0  0  0  0
    0.0470    0.3465    1.5629 C   0  0  0  0  0  0  0  0  0  0  0  0
    1.1854    0.1365    1.9846 O   0  0  0  0  0  0  0  0  0  0  0  0
   -0.8551    1.0750    2.2320 N   0  0  0  0  0  0  0  0  0  0  0  0
   -1.7594    1.2031    1.8040 H   0  0  0  0  0  0  0  0  0  0  0  0
   -0.6356    1.6998    3.5400 C   0  0  0  0  0  0  0  0  0  0  0  0
   -0.4284    2.7647    3.4168 H   0  0  0  0  0  0  0  0  0  0  0  0
   -1.5268    1.5885    4.1601 H   0  0  0  0  0  0  0  0  0  0  0  0
    0.2072    1.2358    4.0566 H   0  0  0  0  0  0  0  0  0  0  0  0
  5  6  2  0  0  0  0
  5  7  1  0  0  0  0
  2  3  1  0  0  0  0
  2  4  1  0  0  0  0
  2  5  1  0  0  0  0
  1  2  1  0  0  0  0
 23 24  2  0  0  0  0
 23 25  1  0  0  0  0
 21 22  1  0  0  0  0
 19 20  1  0  0  0  0
 19 21  1  0  0  0  0
 17 18  1  0  0  0  0
 17 19  1  0  0  0  0
 15 16  1  0  0  0  0
 15 17  2  0  0  0  0
 14 15  1  0  0  0  0
 14 21  2  0  0  0  0
 11 12  1  0  0  0  0
 11 13  1  0  0  0  0
 11 14  1  0  0  0  0
  9 10  1  0  0  0  0
  9 11  1  0  0  0  0
  9 23  1  0  0  0  0
  7  8  1  0  0  0  0
  7  9  1  0  0  0  0
 27 28  1  0  0  0  0
 27 29  1  0  0  0  0
 27 30  1  0  0  0  0
 25 26  1  0  0  0  0
 25 27  1  0  0  0  0
M  CHG  1  15   1
M  END
$$$$
default_name
  -OEChem-02102213163D

 30 30  0     1  0  0  0  0  0999 V2000
   -3.5507   -3.2183    1.8116 H   0  0  0  0  0  0  0  0  0  0  0  0
   -3.4597   -2.3913    1.1076 C   0  0  0  0  0  0  0  0  0  0  0  0
   -4.1577   -1.6043    1.3866 H   0  0  0  0  0  0  0  0  0  0  0  0
   -3.6807   -2.7523    0.1036 H   0  0  0  0  0  0  0  0  0  0  0  0
   -2.0477   -1.8543    1.1546 C   0  0  0  0  0  0  0  0  0  0  0  0
   -1.2227   -2.3443    1.9146 O   0  0  0  0  0  0  0  0  0  0  0  0
   -1.7517   -0.8483    0.3266 N   0  0  0  0  0  0  0  0  0  0  0  0
   -2.4847   -0.5123   -0.2804 H   0  0  0  0  0  0  0  0  0  0  0  0
   -0.4117   -0.2463    0.2186 C   0  0  1  0  0  0  0  0  0  0  0  0
    0.2987   -1.0391   -0.0285 H   0  0  0  0  0  0  0  0  0  0  0  0
   -0.4131    0.7505   -0.9636 C   0  0  0  0  0  0  0  0  0  0  0  0
    0.3299    1.5271   -0.7652 H   0  0  0  0  0  0  0  0  0  0  0  0
   -0.0965    0.2278   -1.8688 H   0  0  0  0  0  0  0  0  0  0  0  0
   -1.7448    1.4136   -1.2447 C   0  0  0  0  0  0  0  0  0  0  0  0
   -2.3084    2.4243   -0.4904 N   0  3  0  0  0  0  0  0  0  0  0  0
   -1.8371    2.8665    0.3041 H   0  0  0  0  0  0  0  0  0  0  0  0
   -3.4916    2.7586   -1.0427 C   0  0  0  0  0  0  0  0  0  0  0  0
   -4.1606    3.5345   -0.6760 H   0  0  0  0  0  0  0  0  0  0  0  0
   -3.6915    1.9810   -2.1307 N   0  0  0  0  0  0  0  0  0  0  0  0
   -4.4995    2.0130   -2.7469 H   0  0  0  0  0  0  0  0  0  0  0  0
   -2.6039    1.1303   -2.2720 C   0  0  0  0  0  0  0  0  0  0  0  0
   -2.4535    0.3817   -3.0449 H   0  0  0  0  0  0  0  0  0  0  0  0
    0.0470    0.3465    1.5629 C   0  0  0  0  0  0  0  0  0  0  0  0
    1.1854    0.1365    1.9846 O   0  0  0  0  0  0  0  0  0  0  0  0
   -0.8551    1.0750    2.2320 N   0  0  0  0  0  0  0  0  0  0  0  0
   -1.7594    1.2031    1.8040 H   0  0  0  0  0  0  0  0  0  0  0  0
   -0.6356    1.6998    3.5400 C   0  0  0  0  0  0  0  0  0  0  0  0
   -0.4284    2.7647    3.4168 H   0  0  0  0  0  0  0  0  0  0  0  0
   -1.5268    1.5885    4.1601 H   0  0  0  0  0  0  0  0  0  0  0  0
    0.2072    1.2358    4.0566 H   0  0  0  0  0  0  0  0  0  0  0  0
  5  6  2  0  0  0  0
  5  7  1  0  0  0  0
  2  3  1  0  0  0  0
  2  4  1  0  0  0  0
  2  5  1  0  0  0  0
  1  2  1  0  0  0  0
 23 24  2  0  0  0  0
 23 25  1  0  0  0  0
 21 22  1  0  0  0  0
 19 20  1  0  0  0  0
 19 21  1  0  0  0  0
 17 18  1  0  0  0  0
 17 19  1  0  0  0  0
 15 16  1  0  0  0  0
 15 17  2  0  0  0  0
 14 15  1  0  0  0  0
 14 21  2  0  0  0  0
 11 12  1  0  0  0  0
 11 13  1  0  0  0  0
 11 14  1  0  0  0  0
  9 10  1  0  0  0  0
  9 11  1  0  0  0  0
  9 23  1  0  0  0  0
  7  8  1  0  0  0  0
  7  9  1  0  0  0  0
 27 28  1  0  0  0  0
 27 29  1  0  0  0  0
 27 30  1  0  0  0  0
 25 26  1  0  0  0  0
 25 27  1  0  0  0  0
M  CHG  1  15   1
M  END
$$$$
default_name
  -OEChem-02102213163D

 30 30  0     1  0  0  0  0  0999 V2000
   -3.5507   -3.2183    1.8116 H   0  0  0  0  0  0  0  0  0  0  0  0
   -3.4597   -2.3913    1.1076 C   0  0  0  0  0  0  0  0  0  0  0  0
   -4.1577   -1.6043    1.3866 H   0  0  0  0  0  0  0  0  0  0  0  0
   -3.6807   -2.7523    0.1036 H   0  0  0  0  0  0  0  0  0  0  0  0
   -2.0477   -1.8543    1.1546 C   0  0  0  0  0  0  0  0  0  0  0  0
   -1.2227   -2.3443    1.9146 O   0  0  0  0  0  0  0  0  0  0  0  0
   -1.7517   -0.8483    0.3266 N   0  0  0  0  0  0  0  0  0  0  0  0
   -2.4847   -0.5123   -0.2804 H   0  0  0  0  0  0  0  0  0  0  0  0
   -0.4117   -0.2463    0.2186 C   0  0  1  0  0  0  0  0  0  0  0  0
    0.2987   -1.0391   -0.0285 H   0  0  0  0  0  0  0  0  0  0  0  0
   -0.4131    0.7505   -0.9636 C   0  0  0  0  0  0  0  0  0  0  0  0
    0.3299    1.5271   -0.7652 H   0  0  0  0  0  0  0  0  0  0  0  0
   -0.0965    0.2278   -1.8688 H   0  0  0  0  0  0  0  0  0  0  0  0
   -1.7448    1.4136   -1.2447 C   0  0  0  0  0  0  0  0  0  0  0  0
   -2.1791    2.6006   -0.6873 N   0  3  0  0  0  0  0  0  0  0  0  0
   -1.6015    3.1804   -0.0717 H   0  0  0  0  0  0  0  0  0  0  0  0
   -3.4071    2.8739   -1.1710 C   0  0  0  0  0  0  0  0  0  0  0  0
   -4.0003    3.7518   -0.9230 H   0  0  0  0  0  0  0  0  0  0  0  0
   -3.7621    1.8852   -2.0225 N   0  0  0  0  0  0  0  0  0  0  0  0
   -4.6359    1.8272   -2.5387 H   0  0  0  0  0  0  0  0  0  0  0  0
   -2.7293    0.9597   -2.0803 C   0  0  0  0  0  0  0  0  0  0  0  0
   -2.6981    0.0487   -2.6715 H   0  0  0  0  0  0  0  0  0  0  0  0
    0.0470    0.3465    1.5629 C   0  0  0  0  0  0  0  0  0  0  0  0
    1.1854    0.1365    1.9846 O   0  0  0  0  0  0  0  0  0  0  0  0
   -0.8551    1.0750    2.2320 N   0  0  0  0  0  0  0  0  0  0  0  0
   -1.7594    1.2031    1.8040 H   0  0  0  0  0  0  0  0  0  0  0  0
   -0.6356    1.6998    3.5400 C   0  0  0  0  0  0  0  0  0  0  0  0
   -0.4284    2.7647    3.4168 H   0  0  0  0  0  0  0  0  0  0  0  0
   -1.5268    1.5885    4.1601 H   0  0  0  0  0  0  0  0  0  0  0  0
    0.2072    1.2358    4.0566 H   0  0  0  0  0  0  0  0  0  0  0  0
  5  6  2  0  0  0  0
  5  7  1  0  0  0  0
  2  3  1  0  0  0  0
  2  4  1  0  0  0  0
  2  5  1  0  0  0  0
  1  2  1  0  0  0  0
 23 24  2  0  0  0  0
 23 25  1  0  0  0  0
 21 22  1  0  0  0  0
 19 20  1  0  0  0  0
 19 21  1  0  0  0  0
 17 18  1  0  0  0  0
 17 19  1  0  0  0  0
 15 16  1  0  0  0  0
 15 17  2  0  0  0  0
 14 15  1  0  0  0  0
 14 21  2  0  0  0  0
 11 12  1  0  0  0  0
 11 13  1  0  0  0  0
 11 14  1  0  0  0  0
  9 10  1  0  0  0  0
  9 11  1  0  0  0  0
  9 23  1  0  0  0  0
  7  8  1  0  0  0  0
  7  9  1  0  0  0  0
 27 28  1  0  0  0  0
 27 29  1  0  0  0  0
 27 30  1  0  0  0  0
 25 26  1  0  0  0  0
 25 27  1  0  0  0  0
M  CHG  1  15   1
M  END
$$$$
default_name
  -OEChem-02102213163D

 30 30  0     1  0  0  0  0  0999 V2000
   -3.5507   -3.2183    1.8116 H   0  0  0  0  0  0  0  0  0  0  0  0
   -3.4597   -2.3913    1.1076 C   0  0  0  0  0  0  0  0  0  0  0  0
   -4.1577   -1.6043    1.3866 H   0  0  0  0  0  0  0  0  0  0  0  0
   -3.6807   -2.7523    0.1036 H   0  0  0  0  0  0  0  0  0  0  0  0
   -2.0477   -1.8543    1.1546 C   0  0  0  0  0  0  0  0  0  0  0  0
   -1.2227   -2.3443    1.9146 O   0  0  0  0  0  0  0  0  0  0  0  0
   -1.7517   -0.8483    0.3266 N   0  0  0  0  0  0  0  0  0  0  0  0
   -2.4847   -0.5123   -0.2804 H   0  0  0  0  0  0  0  0  0  0  0  0
   -0.4117   -0.2463    0.2186 C   0  0  1  0  0  0  0  0  0  0  0  0
    0.2987   -1.0391   -0.0285 H   0  0  0  0  0  0  0  0  0  0  0  0
   -0.4131    0.7505   -0.9636 C   0  0  0  0  0  0  0  0  0  0  0  0
    0.3299    1.5271   -0.7652 H   0  0  0  0  0  0  0  0  0  0  0  0
   -0.0965    0.2278   -1.8688 H   0  0  0  0  0  0  0  0  0  0  0  0
   -1.7448    1.4136   -1.2447 C   0  0  0  0  0  0  0  0  0  0  0  0
   -2.0680    2.7199   -0.9324 N   0  3  0  0  0  0  0  0  0  0  0  0
   -1.4014    3.3868   -0.5329 H   0  0  0  0  0  0  0  0  0  0  0  0
   -3.3345    2.9519   -1.3307 C   0  0  0  0  0  0  0  0  0  0  0  0
   -3.8629    3.8977   -1.2293 H   0  0  0  0  0  0  0  0  0  0  0  0
   -3.8225    1.8208   -1.8881 N   0  0  0  0  0  0  0  0  0  0  0  0
   -4.7531    1.7017   -2.2798 H   0  0  0  0  0  0  0  0  0  0  0  0
   -2.8369    0.8445   -1.8421 C   0  0  0  0  0  0  0  0  0  0  0  0
   -2.9081   -0.1763   -2.2073 H   0  0  0  0  0  0  0  0  0  0  0  0
    0.0470    0.3465    1.5629 C   0  0  0  0  0  0  0  0  0  0  0  0
    1.1854    0.1365    1.9846 O   0  0  0  0  0  0  0  0  0  0  0  0
   -0.8551    1.0750    2.2320 N   0  0  0  0  0  0  0  0  0  0  0  0
   -1.7594    1.2031    1.8040 H   0  0  0  0  0  0  0  0  0  0  0  0
   -0.6356    1.6998    3.5400 C   0  0  0  0  0  0  0  0  0  0  0  0
   -0.4284    2.7647    3.4168 H   0  0  0  0  0  0  0  0  0  0  0  0
   -1.5268    1.5885    4.1601 H   0  0  0  0  0  0  0  0  0  0  0  0
    0.2072    1.2358    4.0566 H   0  0  0  0  0  0  0  0  0  0  0  0
  5  6  2  0  0  0  0
  5  7  1  0  0  0  0
  2  3  1  0  0  0  0
  2  4  1  0  0  0  0
  2  5  1  0  0  0  0
  1  2  1  0  0  0  0
 23 24  2  0  0  0  0
 23 25  1  0  0  0  0
 21 22  1  0  0  0  0
 19 20  1  0  0  0  0
 19 21  1  0  0  0  0
 17 18  1  0  0  0  0
 17 19  1  0  0  0  0
 15 16  1  0  0  0  0
 15 17  2  0  0  0  0
 14 15  1  0  0  0  0
 14 21  2  0  0  0  0
 11 12  1  0  0  0  0
 11 13  1  0  0  0  0
 11 14  1  0  0  0  0
  9 10  1  0  0  0  0
  9 11  1  0  0  0  0
  9 23  1  0  0  0  0
  7  8  1  0  0  0  0
  7  9  1  0  0  0  0
 27 28  1  0  0  0  0
 27 29  1  0  0  0  0
 27 30  1  0  0  0  0
 25 26  1  0  0  0  0
 25 27  1  0  0  0  0
M  CHG  1  15   1
M  END
$$$$
default_name
  -OEChem-02102213163D

 30 30  0     1  0  0  0  0  0999 V2000
   -3.5507   -3.2183    1.8116 H   0  0  0  0  0  0  0  0  0  0  0  0
   -3.4597   -2.3913    1.1076 C   0  0  0  0  0  0  0  0  0  0  0  0
   -4.1577   -1.6043    1.3866 H   0  0  0  0  0  0  0  0  0  0  0  0
   -3.6807   -2.7523    0.1036 H   0  0  0  0  0  0  0  0  0  0  0  0
   -2.0477   -1.8543    1.1546 C   0  0  0  0  0  0  0  0  0  0  0  0
   -1.2227   -2.3443    1.9146 O   0  0  0  0  0  0  0  0  0  0  0  0
   -1.7517   -0.8483    0.3266 N   0  0  0  0  0  0  0  0  0  0  0  0
   -2.4847   -0.5123   -0.2804 H   0  0  0  0  0  0  0  0  0  0  0  0
   -0.4117   -0.2463    0.2186 C   0  0  1  0  0  0  0  0  0  0  0  0
    0.2987   -1.0391   -0.0285 H   0  0  0  0  0  0  0  0  0  0  0  0
   -0.4131    0.7505   -0.9636 C   0  0  0  0  0  0  0  0  0  0  0  0
    0.3299    1.5271   -0.7652 H   0  0  0  0  0  0  0  0  0  0  0  0
   -0.0965    0.2278   -1.8688 H   0  0  0  0  0  0  0  0  0  0  0  0
   -1.7448    1.4136   -1.2447 C   0  0  0  0  0  0  0  0  0  0  0  0
   -1.9827    2.7739   -1.2088 N   0  3  0  0  0  0  0  0  0  0  0  0
   -1.2505    3.4716   -1.0480 H   0  0  0  0  0  0  0  0  0  0  0  0
   -3.2787    2.9875   -1.5110 C   0  0  0  0  0  0  0  0  0  0  0  0
   -3.7580    3.9624   -1.5739 H   0  0  0  0  0  0  0  0  0  0  0  0
   -3.8688    1.7920   -1.7368 N   0  0  0  0  0  0  0  0  0  0  0  0
   -4.8429    1.6450   -1.9878 H   0  0  0  0  0  0  0  0  0  0  0  0
   -2.9194    0.7927   -1.5736 C   0  0  0  0  0  0  0  0  0  0  0  0
   -3.0691   -0.2778   -1.6839 H   0  0  0  0  0  0  0  0  0  0  0  0
    0.0470    0.3465    1.5629 C   0  0  0  0  0  0  0  0  0  0  0  0
    1.1854    0.1365    1.9846 O   0  0  0  0  0  0  0  0  0  0  0  0
   -0.8551    1.0750    2.2320 N   0  0  0  0  0  0  0  0  0  0  0  0
   -1.7594    1.2031    1.8040 H   0  0  0  0  0  0  0  0  0  0  0  0
   -0.6356    1.6998    3.5400 C   0  0  0  0  0  0  0  0  0  0  0  0
   -0.4284    2.7647    3.4168 H   0  0  0  0  0  0  0  0  0  0  0  0
   -1.5268    1.5885    4.1601 H   0  0  0  0  0  0  0  0  0  0  0  0
    0.2072    1.2358    4.0566 H   0  0  0  0  0  0  0  0  0  0  0  0
  5  6  2  0  0  0  0
  5  7  1  0  0  0  0
  2  3  1  0  0  0  0
  2  4  1  0  0  0  0
  2  5  1  0  0  0  0
  1  2  1  0  0  0  0
 23 24  2  0  0  0  0
 23 25  1  0  0  0  0
 21 22  1  0  0  0  0
 19 20  1  0  0  0  0
 19 21  1  0  0  0  0
 17 18  1  0  0  0  0
 17 19  1  0  0  0  0
 15 16  1  0  0  0  0
 15 17  2  0  0  0  0
 14 15  1  0  0  0  0
 14 21  2  0  0  0  0
 11 12  1  0  0  0  0
 11 13  1  0  0  0  0
 11 14  1  0  0  0  0
  9 10  1  0  0  0  0
  9 11  1  0  0  0  0
  9 23  1  0  0  0  0
  7  8  1  0  0  0  0
  7  9  1  0  0  0  0
 27 28  1  0  0  0  0
 27 29  1  0  0  0  0
 27 30  1  0  0  0  0
 25 26  1  0  0  0  0
 25 27  1  0  0  0  0
M  CHG  1  15   1
M  END
$$$$
default_name
  -OEChem-02102213163D

 30 30  0     1  0  0  0  0  0999 V2000
   -3.5507   -3.2183    1.8116 H   0  0  0  0  0  0  0  0  0  0  0  0
   -3.4597   -2.3913    1.1076 C   0  0  0  0  0  0  0  0  0  0  0  0
   -4.1577   -1.6043    1.3866 H   0  0  0  0  0  0  0  0  0  0  0  0
   -3.6807   -2.7523    0.1036 H   0  0  0  0  0  0  0  0  0  0  0  0
   -2.0477   -1.8543    1.1546 C   0  0  0  0  0  0  0  0  0  0  0  0
   -1.2227   -2.3443    1.9146 O   0  0  0  0  0  0  0  0  0  0  0  0
   -1.7517   -0.8483    0.3266 N   0  0  0  0  0  0  0  0  0  0  0  0
   -2.4847   -0.5123   -0.2804 H   0  0  0  0  0  0  0  0  0  0  0  0
   -0.4117   -0.2463    0.2186 C   0  0  1  0  0  0  0  0  0  0  0  0
    0.2987   -1.0391   -0.0285 H   0  0  0  0  0  0  0  0  0  0  0  0
   -0.4131    0.7505   -0.9636 C   0  0  0  0  0  0  0  0  0  0  0  0
    0.3299    1.5271   -0.7652 H   0  0  0  0  0  0  0  0  0  0  0  0
   -0.0965    0.2278   -1.8688 H   0  0  0  0  0  0  0  0  0  0  0  0
   -1.7448    1.4136   -1.2447 C   0  0  0  0  0  0  0  0  0  0  0  0
   -1.9291    2.7591   -1.4978 N   0  3  0  0  0  0  0  0  0  0  0  0
   -1.1590    3.4289   -1.5820 H   0  0  0  0  0  0  0  0  0  0  0  0
   -3.2436    2.9781   -1.6996 C   0  0  0  0  0  0  0  0  0  0  0  0
   -3.6926    3.9414   -1.9334 H   0  0  0  0  0  0  0  0  0  0  0  0
   -3.8977    1.8009   -1.5789 N   0  0  0  0  0  0  0  0  0  0  0  0
   -4.8993    1.6611   -1.6828 H   0  0  0  0  0  0  0  0  0  0  0  0
   -2.9712    0.8077   -1.2931 C   0  0  0  0  0  0  0  0  0  0  0  0
   -3.1702   -0.2490   -1.1370 H   0  0  0  0  0  0  0  0  0  0  0  0
    0.0470    0.3465    1.5629 C   0  0  0  0  0  0  0  0  0  0  0  0
    1.1854    0.1365    1.9846 O   0  0  0  0  0  0  0  0  0  0  0  0
   -0.8551    1.0750    2.2320 N   0  0  0  0  0  0  0  0  0  0  0  0
   -1.7594    1.2031    1.8040 H   0  0  0  0  0  0  0  0  0  0  0  0
   -0.6356    1.6998    3.5400 C   0  0  0  0  0  0  0  0  0  0  0  0
   -0.4284    2.7647    3.4168 H   0  0  0  0  0  0  0  0  0  0  0  0
   -1.5268    1.5885    4.1601 H   0  0  0  0  0  0  0  0  0  0  0  0
    0.2072    1.2358    4.0566 H   0  0  0  0  0  0  0  0  0  0  0  0
  5  6  2  0  0  0  0
  5  7  1  0  0  0  0
  2  3  1  0  0  0  0
  2  4  1  0  0  0  0
  2  5  1  0  0  0  0
  1  2  1  0  0  0  0
 23 24  2  0  0  0  0
 23 25  1  0  0  0  0
 21 22  1  0  0  0  0
 19 20  1  0  0  0  0
 19 21  1  0  0  0  0
 17 18  1  0  0  0  0
 17 19  1  0  0  0  0
 15 16  1  0  0  0  0
 15 17  2  0  0  0  0
 14 15  1  0  0  0  0
 14 21  2  0  0  0  0
 11 12  1  0  0  0  0
 11 13  1  0  0  0  0
 11 14  1  0  0  0  0
  9 10  1  0  0  0  0
  9 11  1  0  0  0  0
  9 23  1  0  0  0  0
  7  8  1  0  0  0  0
  7  9  1  0  0  0  0
 27 28  1  0  0  0  0
 27 29  1  0  0  0  0
 27 30  1  0  0  0  0
 25 26  1  0  0  0  0
 25 27  1  0  0  0  0
M  CHG  1  15   1
M  END
$$$$
default_name
  -OEChem-02102213163D

 30 30  0     1  0  0  0  0  0999 V2000
   -3.5507   -3.2183    1.8116 H   0  0  0  0  0  0  0  0  0  0  0  0
   -3.4597   -2.3913    1.1076 C   0  0  0  0  0  0  0  0  0  0  0  0
   -4.1577   -1.6043    1.3866 H   0  0  0  0  0  0  0  0  0  0  0  0
   -3.6807   -2.7523    0.1036 H   0  0  0  0  0  0  0  0  0  0  0  0
   -2.0477   -1.8543    1.1546 C   0  0  0  0  0  0  0  0  0  0  0  0
   -1.2227   -2.3443    1.9146 O   0  0  0  0  0  0  0  0  0  0  0  0
   -1.7517   -0.8483    0.3266 N   0  0  0  0  0  0  0  0  0  0  0  0
   -2.4847   -0.5123   -0.2804 H   0  0  0  0  0  0  0  0  0  0  0  0
   -0.4117   -0.2463    0.2186 C   0  0  1  0  0  0  0  0  0  0  0  0
    0.2987   -1.0391   -0.0285 H   0  0  0  0  0  0  0  0  0  0  0  0
   -0.4131    0.7505   -0.9636 C   0  0  0  0  0  0  0  0  0  0  0  0
    0.3299    1.5271   -0.7652 H   0  0  0  0  0  0  0  0  0  0  0  0
   -0.0965    0.2278   -1.8688 H   0  0  0  0  0  0  0  0  0  0  0  0
   -1.7448    1.4136   -1.2447 C   0  0  0  0  0  0  0  0  0  0  0  0
   -1.9108    2.6764   -1.7797 N   0  3  0  0  0  0  0  0  0  0  0  0
   -1.1332    3.2617   -2.0984 H   0  0  0  0  0  0  0  0  0  0  0  0
   -3.2315    2.9245   -1.8836 C   0  0  0  0  0  0  0  0  0  0  0  0
   -3.6712    3.8361   -2.2832 H   0  0  0  0  0  0  0  0  0  0  0  0
   -3.9073    1.8468   -1.4251 N   0  0  0  0  0  0  0  0  0  0  0  0
   -4.9184    1.7488   -1.3854 H   0  0  0  0  0  0  0  0  0  0  0  0
   -2.9886    0.8885   -1.0197 C   0  0  0  0  0  0  0  0  0  0  0  0
   -3.2045   -0.0917   -0.6038 H   0  0  0  0  0  0  0  0  0  0  0  0
    0.0470    0.3465    1.5629 C   0  0  0  0  0  0  0  0  0  0  0  0
    1.1854    0.1365    1.9846 O   0  0  0  0  0  0  0  0  0  0  0  0
   -0.8551    1.0750    2.2320 N   0  0  0  0  0  0  0  0  0  0  0  0
   -1.7594    1.2031    1.8040 H   0  0  0  0  0  0  0  0  0  0  0  0
   -0.6356    1.6998    3.5400 C   0  0  0  0  0  0  0  0  0  0  0  0
   -0.4284    2.7647    3.4168 H   0  0  0  0  0  0  0  0  0  0  0  0
   -1.5268    1.5885    4.1601 H   0  0  0  0  0  0  0  0  0  0  0  0
    0.2072    1.2358    4.0566 H   0  0  0  0  0  0  0  0  0  0  0  0
  5  6  2  0  0  0  0
  5  7  1  0  0  0  0
  2  3  1  0  0  0  0
  2  4  1  0  0  0  0
  2  5  1  0  0  0  0
  1  2  1  0  0  0  0
 23 24  2  0  0  0  0
 23 25  1  0  0  0  0
 21 22  1  0  0  0  0
 19 20  1  0  0  0  0
 19 21  1  0  0  0  0
 17 18  1  0  0  0  0
 17 19  1  0  0  0  0
 15 16  1  0  0  0  0
 15 17  2  0  0  0  0
 14 15  1  0  0  0  0
 14 21  2  0  0  0  0
 11 12  1  0  0  0  0
 11 13  1  0  0  0  0
 11 14  1  0  0  0  0
  9 10  1  0  0  0  0
  9 11  1  0  0  0  0
  9 23  1  0  0  0  0
  7  8  1  0  0  0  0
  7  9  1  0  0  0  0
 27 28  1  0  0  0  0
 27 29  1  0  0  0  0
 27 30  1  0  0  0  0
 25 26  1  0  0  0  0
 25 27  1  0  0  0  0
M  CHG  1  15   1
M  END
$$$$
default_name
  -OEChem-02102213163D

 30 30  0     1  0  0  0  0  0999 V2000
   -3.5507   -3.2183    1.8116 H   0  0  0  0  0  0  0  0  0  0  0  0
   -3.4597   -2.3913    1.1076 C   0  0  0  0  0  0  0  0  0  0  0  0
   -4.1577   -1.6043    1.3866 H   0  0  0  0  0  0  0  0  0  0  0  0
   -3.6807   -2.7523    0.1036 H   0  0  0  0  0  0  0  0  0  0  0  0
   -2.0477   -1.8543    1.1546 C   0  0  0  0  0  0  0  0  0  0  0  0
   -1.2227   -2.3443    1.9146 O   0  0  0  0  0  0  0  0  0  0  0  0
   -1.7517   -0.8483    0.3266 N   0  0  0  0  0  0  0  0  0  0  0  0
   -2.4847   -0.5123   -0.2804 H   0  0  0  0  0  0  0  0  0  0  0  0
   -0.4117   -0.2463    0.2186 C   0  0  1  0  0  0  0  0  0  0  0  0
    0.2987   -1.0391   -0.0285 H   0  0  0  0  0  0  0  0  0  0  0  0
   -0.4131    0.7505   -0.9636 C   0  0  0  0  0  0  0  0  0  0  0  0
    0.3299    1.5271   -0.7652 H   0  0  0  0  0  0  0  0  0  0  0  0
   -0.0965    0.2278   -1.8688 H   0  0  0  0  0  0  0  0  0  0  0  0
   -1.7448    1.4136   -1.2447 C   0  0  0  0  0  0  0  0  0  0  0  0
   -1.9290    2.5315   -2.0352 N   0  3  0  0  0  0  0  0  0  0  0  0
   -1.1749    2.9814   -2.5621 H   0  0  0  0  0  0  0  0  0  0  0  0
   -3.2432    2.8302   -2.0505 C   0  0  0  0  0  0  0  0  0  0  0  0
   -3.6952    3.6537   -2.5996 H   0  0  0  0  0  0  0  0  0  0  0  0
   -3.8970    1.9266   -1.2858 N   0  0  0  0  0  0  0  0  0  0  0  0
   -4.8990    1.9021   -1.1159 H   0  0  0  0  0  0  0  0  0  0  0  0
   -2.9706    1.0297   -0.7720 C   0  0  0  0  0  0  0  0  0  0  0  0
   -3.1696    0.1832   -0.1206 H   0  0  0  0  0  0  0  0  0  0  0  0
    0.0470    0.3465    1.5629 C   0  0  0  0  0  0  0  0  0  0  0  0
    1.1854    0.1365    1.9846 O   0  0  0  0  0  0  0  0  0  0  0  0
   -0.8551    1.0750    2.2320 N   0  0  0  0  0  0  0  0  0  0  0  0
   -1.7594    1.2031    1.8040 H   0  0  0  0  0  0  0  0  0  0  0  0
   -0.6356    1.6998    3.5400 C   0  0  0  0  0  0  0  0  0  0  0  0
   -0.4284    2.7647    3.4168 H   0  0  0  0  0  0  0  0  0  0  0  0
   -1.5268    1.5885    4.1601 H   0  0  0  0  0  0  0  0  0  0  0  0
    0.2072    1.2358    4.0566 H   0  0  0  0  0  0  0  0  0  0  0  0
  5  6  2  0  0  0  0
  5  7  1  0  0  0  0
  2  3  1  0  0  0  0
  2  4  1  0  0  0  0
  2  5  1  0  0  0  0
  1  2  1  0  0  0  0
 23 24  2  0  0  0  0
 23 25  1  0  0  0  0
 21 22  1  0  0  0  0
 19 20  1  0  0  0  0
 19 21  1  0  0  0  0
 17 18  1  0  0  0  0
 17 19  1  0  0  0  0
 15 16  1  0  0  0  0
 15 17  2  0  0  0  0
 14 15  1  0  0  0  0
 14 21  2  0  0  0  0
 11 12  1  0  0  0  0
 11 13  1  0  0  0  0
 11 14  1  0  0  0  0
  9 10  1  0  0  0  0
  9 11  1  0  0  0  0
  9 23  1  0  0  0  0
  7  8  1  0  0  0  0
  7  9  1  0  0  0  0
 27 28  1  0  0  0  0
 27 29  1  0  0  0  0
 27 30  1  0  0  0  0
 25 26  1  0  0  0  0
 25 27  1  0  0  0  0
M  CHG  1  15   1
M  END
$$$$
default_name
  -OEChem-02102213163D

 30 30  0     1  0  0  0  0  0999 V2000
   -3.5507   -3.2183    1.8116 H   0  0  0  0  0  0  0  0  0  0  0  0
   -3.4597   -2.3913    1.1076 C   0  0  0  0  0  0  0  0  0  0  0  0
   -4.1577   -1.6043    1.3866 H   0  0  0  0  0  0  0  0  0  0  0  0
   -3.6807   -2.7523    0.1036 H   0  0  0  0  0  0  0  0  0  0  0  0
   -2.0477   -1.8543    1.1546 C   0  0  0  0  0  0  0  0  0  0  0  0
   -1.2227   -2.3443    1.9146 O   0  0  0  0  0  0  0  0  0  0  0  0
   -1.7517   -0.8483    0.3266 N   0  0  0  0  0  0  0  0  0  0  0  0
   -2.4847   -0.5123   -0.2804 H   0  0  0  0  0  0  0  0  0  0  0  0
   -0.4117   -0.2463    0.2186 C   0  0  1  0  0  0  0  0  0  0  0  0
    0.2987   -1.0391   -0.0285 H   0  0  0  0  0  0  0  0  0  0  0  0
   -0.4131    0.7505   -0.9636 C   0  0  0  0  0  0  0  0  0  0  0  0
    0.4913    1.3614   -0.9051 H   0  0  0  0  0  0  0  0  0  0  0  0
   -0.3617    0.1906   -1.8999 H   0  0  0  0  0  0  0  0  0  0  0  0
   -1.6151    1.6686   -1.0299 C   0  0  0  0  0  0  0  0  0  0  0  0
   -1.8298    2.6345   -1.9939 N   0  3  0  0  0  0  0  0  0  0  0  0
   -1.2143    2.7747   -2.8003 H   0  0  0  0  0  0  0  0  0  0  0  0
   -2.9988    3.2500   -1.7268 C   0  0  0  0  0  0  0  0  0  0  0  0
   -3.4399    4.0481   -2.3206 H   0  0  0  0  0  0  0  0  0  0  0  0
   -3.5300    2.6963   -0.6135 N   0  0  0  0  0  0  0  0  0  0  0  0
   -4.4104    2.9589   -0.1780 H   0  0  0  0  0  0  0  0  0  0  0  0
   -2.6736    1.7014   -0.1627 C   0  0  0  0  0  0  0  0  0  0  0  0
   -2.8083    1.0657    0.7080 H   0  0  0  0  0  0  0  0  0  0  0  0
    0.0470    0.3465    1.5629 C   0  0  0  0  0  0  0  0  0  0  0  0
    1.1854    0.1365    1.9846 O   0  0  0  0  0  0  0  0  0  0  0  0
   -0.8551    1.0750    2.2320 N   0  0  0  0  0  0  0  0  0  0  0  0
   -1.7594    1.2031    1.8040 H   0  0  0  0  0  0  0  0  0  0  0  0
   -0.6356    1.6998    3.5400 C   0  0  0  0  0  0  0  0  0  0  0  0
   -0.4284    2.7647    3.4168 H   0  0  0  0  0  0  0  0  0  0  0  0
   -1.5268    1.5885    4.1601 H   0  0  0  0  0  0  0  0  0  0  0  0
    0.2072    1.2358    4.0566 H   0  0  0  0  0  0  0  0  0  0  0  0
  5  6  2  0  0  0  0
  5  7  1  0  0  0  0
  2  3  1  0  0  0  0
  2  4  1  0  0  0  0
  2  5  1  0  0  0  0
  1  2  1  0  0  0  0
 23 24  2  0  0  0  0
 23 25  1  0  0  0  0
 21 22  1  0  0  0  0
 19 20  1  0  0  0  0
 19 21  1  0  0  0  0
 17 18  1  0  0  0  0
 17 19  1  0  0  0  0
 15 16  1  0  0  0  0
 15 17  2  0  0  0  0
 14 15  1  0  0  0  0
 14 21  2  0  0  0  0
 11 12  1  0  0  0  0
 11 13  1  0  0  0  0
 11 14  1  0  0  0  0
  9 10  1  0  0  0  0
  9 11  1  0  0  0  0
  9 23  1  0  0  0  0
  7  8  1  0  0  0  0
  7  9  1  0  0  0  0
 27 28  1  0  0  0  0
 27 29  1  0  0  0  0
 27 30  1  0  0  0  0
 25 26  1  0  0  0  0
 25 27  1  0  0  0  0
M  CHG  1  15   1
M  END
$$$$
default_name
  -OEChem-02102213163D

 30 30  0     1  0  0  0  0  0999 V2000
   -3.5507   -3.2183    1.8116 H   0  0  0  0  0  0  0  0  0  0  0  0
   -3.4597   -2.3913    1.1076 C   0  0  0  0  0  0  0  0  0  0  0  0
   -4.1577   -1.6043    1.3866 H   0  0  0  0  0  0  0  0  0  0  0  0
   -3.6807   -2.7523    0.1036 H   0  0  0  0  0  0  0  0  0  0  0  0
   -2.0477   -1.8543    1.1546 C   0  0  0  0  0  0  0  0  0  0  0  0
   -1.2227   -2.3443    1.9146 O   0  0  0  0  0  0  0  0  0  0  0  0
   -1.7517   -0.8483    0.3266 N   0  0  0  0  0  0  0  0  0  0  0  0
   -2.4847   -0.5123   -0.2804 H   0  0  0  0  0  0  0  0  0  0  0  0
   -0.4117   -0.2463    0.2186 C   0  0  1  0  0  0  0  0  0  0  0  0
    0.2987   -1.0391   -0.0285 H   0  0  0  0  0  0  0  0  0  0  0  0
   -0.4131    0.7505   -0.9636 C   0  0  0  0  0  0  0  0  0  0  0  0
    0.4913    1.3614   -0.9051 H   0  0  0  0  0  0  0  0  0  0  0  0
   -0.3617    0.1906   -1.8999 H   0  0  0  0  0  0  0  0  0  0  0  0
   -1.6151    1.6686   -1.0299 C   0  0  0  0  0  0  0  0  0  0  0  0
   -1.9845    2.4224   -2.1271 N   0  3  0  0  0  0  0  0  0  0  0  0
   -1.5049    2.3776   -3.0308 H   0  0  0  0  0  0  0  0  0  0  0  0
   -3.0996    3.1118   -1.8140 C   0  0  0  0  0  0  0  0  0  0  0  0
   -3.6331    3.7834   -2.4835 H   0  0  0  0  0  0  0  0  0  0  0  0
   -3.4453    2.8125   -0.5415 N   0  0  0  0  0  0  0  0  0  0  0  0
   -4.2470    3.1829   -0.0379 H   0  0  0  0  0  0  0  0  0  0  0  0
   -2.5233    1.9075   -0.0341 C   0  0  0  0  0  0  0  0  0  0  0  0
   -2.5154    1.4673    0.9592 H   0  0  0  0  0  0  0  0  0  0  0  0
    0.0470    0.3465    1.5629 C   0  0  0  0  0  0  0  0  0  0  0  0
    1.1854    0.1365    1.9846 O   0  0  0  0  0  0  0  0  0  0  0  0
   -0.8551    1.0750    2.2320 N   0  0  0  0  0  0  0  0  0  0  0  0
   -1.7594    1.2031    1.8040 H   0  0  0  0  0  0  0  0  0  0  0  0
   -0.6356    1.6998    3.5400 C   0  0  0  0  0  0  0  0  0  0  0  0
   -0.4284    2.7647    3.4168 H   0  0  0  0  0  0  0  0  0  0  0  0
   -1.5268    1.5885    4.1601 H   0  0  0  0  0  0  0  0  0  0  0  0
    0.2072    1.2358    4.0566 H   0  0  0  0  0  0  0  0  0  0  0  0
  5  6  2  0  0  0  0
  5  7  1  0  0  0  0
  2  3  1  0  0  0  0
  2  4  1  0  0  0  0
  2  5  1  0  0  0  0
  1  2  1  0  0  0  0
 23 24  2  0  0  0  0
 23 25  1  0  0  0  0
 21 22  1  0  0  0  0
 19 20  1  0  0  0  0
 19 21  1  0  0  0  0
 17 18  1  0  0  0  0
 17 19  1  0  0  0  0
 15 16  1  0  0  0  0
 15 17  2  0  0  0  0
 14 15  1  0  0  0  0
 14 21  2  0  0  0  0
 11 12  1  0  0  0  0
 11 13  1  0  0  0  0
 11 14  1  0  0  0  0
  9 10  1  0  0  0  0
  9 11  1  0  0  0  0
  9 23  1  0  0  0  0
  7  8  1  0  0  0  0
  7  9  1  0  0  0  0
 27 28  1  0  0  0  0
 27 29  1  0  0  0  0
 27 30  1  0  0  0  0
 25 26  1  0  0  0  0
 25 27  1  0  0  0  0
M  CHG  1  15   1
M  END
$$$$
default_name
  -OEChem-02102213163D

 30 30  0     1  0  0  0  0  0999 V2000
   -3.5507   -3.2183    1.8116 H   0  0  0  0  0  0  0  0  0  0  0  0
   -3.4597   -2.3913    1.1076 C   0  0  0  0  0  0  0  0  0  0  0  0
   -4.1577   -1.6043    1.3866 H   0  0  0  0  0  0  0  0  0  0  0  0
   -3.6807   -2.7523    0.1036 H   0  0  0  0  0  0  0  0  0  0  0  0
   -2.0477   -1.8543    1.1546 C   0  0  0  0  0  0  0  0  0  0  0  0
   -1.2227   -2.3443    1.9146 O   0  0  0  0  0  0  0  0  0  0  0  0
   -1.7517   -0.8483    0.3266 N   0  0  0  0  0  0  0  0  0  0  0  0
   -2.4847   -0.5123   -0.2804 H   0  0  0  0  0  0  0  0  0  0  0  0
   -0.4117   -0.2463    0.2186 C   0  0  1  0  0  0  0  0  0  0  0  0
    0.2987   -1.0391   -0.0285 H   0  0  0  0  0  0  0  0  0  0  0  0
   -0.4131    0.7505   -0.9636 C   0  0  0  0  0  0  0  0  0  0  0  0
    0.4913    1.3614   -0.9051 H   0  0  0  0  0  0  0  0  0  0  0  0
   -0.3617    0.1906   -1.8999 H   0  0  0  0  0  0  0  0  0  0  0  0
   -1.6151    1.6686   -1.0299 C   0  0  0  0  0  0  0  0  0  0  0  0
   -2.1571    2.1920   -2.1878 N   0  3  0  0  0  0  0  0  0  0  0  0
   -1.8263    1.9499   -3.1262 H   0  0  0  0  0  0  0  0  0  0  0  0
   -3.2122    2.9614   -1.8540 C   0  0  0  0  0  0  0  0  0  0  0  0
   -3.8483    3.4964   -2.5563 H   0  0  0  0  0  0  0  0  0  0  0  0
   -3.3508    2.9386   -0.5091 N   0  0  0  0  0  0  0  0  0  0  0  0
   -4.0647    3.4262    0.0258 H   0  0  0  0  0  0  0  0  0  0  0  0
   -2.3556    2.1313    0.0242 C   0  0  0  0  0  0  0  0  0  0  0  0
   -2.1885    1.9036    1.0733 H   0  0  0  0  0  0  0  0  0  0  0  0
    0.0470    0.3465    1.5629 C   0  0  0  0  0  0  0  0  0  0  0  0
    1.1854    0.1365    1.9846 O   0  0  0  0  0  0  0  0  0  0  0  0
   -0.8551    1.0750    2.2320 N   0  0  0  0  0  0  0  0  0  0  0  0
   -1.7594    1.2031    1.8040 H   0  0  0  0  0  0  0  0  0  0  0  0
   -0.6356    1.6998    3.5400 C   0  0  0  0  0  0  0  0  0  0  0  0
   -0.4284    2.7647    3.4168 H   0  0  0  0  0  0  0  0  0  0  0  0
   -1.5268    1.5885    4.1601 H   0  0  0  0  0  0  0  0  0  0  0  0
    0.2072    1.2358    4.0566 H   0  0  0  0  0  0  0  0  0  0  0  0
  5  6  2  0  0  0  0
  5  7  1  0  0  0  0
  2  3  1  0  0  0  0
  2  4  1  0  0  0  0
  2  5  1  0  0  0  0
  1  2  1  0  0  0  0
 23 24  2  0  0  0  0
 23 25  1  0  0  0  0
 21 22  1  0  0  0  0
 19 20  1  0  0  0  0
 19 21  1  0  0  0  0
 17 18  1  0  0  0  0
 17 19  1  0  0  0  0
 15 16  1  0  0  0  0
 15 17  2  0  0  0  0
 14 15  1  0  0  0  0
 14 21  2  0  0  0  0
 11 12  1  0  0  0  0
 11 13  1  0  0  0  0
 11 14  1  0  0  0  0
  9 10  1  0  0  0  0
  9 11  1  0  0  0  0
  9 23  1  0  0  0  0
  7  8  1  0  0  0  0
  7  9  1  0  0  0  0
 27 28  1  0  0  0  0
 27 29  1  0  0  0  0
 27 30  1  0  0  0  0
 25 26  1  0  0  0  0
 25 27  1  0  0  0  0
M  CHG  1  15   1
M  END
$$$$
default_name
  -OEChem-02102213163D

 30 30  0     1  0  0  0  0  0999 V2000
   -3.5507   -3.2183    1.8116 H   0  0  0  0  0  0  0  0  0  0  0  0
   -3.4597   -2.3913    1.1076 C   0  0  0  0  0  0  0  0  0  0  0  0
   -4.1577   -1.6043    1.3866 H   0  0  0  0  0  0  0  0  0  0  0  0
   -3.6807   -2.7523    0.1036 H   0  0  0  0  0  0  0  0  0  0  0  0
   -2.0477   -1.8543    1.1546 C   0  0  0  0  0  0  0  0  0  0  0  0
   -1.2227   -2.3443    1.9146 O   0  0  0  0  0  0  0  0  0  0  0  0
   -1.7517   -0.8483    0.3266 N   0  0  0  0  0  0  0  0  0  0  0  0
   -2.4847   -0.5123   -0.2804 H   0  0  0  0  0  0  0  0  0  0  0  0
   -0.4117   -0.2463    0.2186 C   0  0  1  0  0  0  0  0  0  0  0  0
    0.2987   -1.0391   -0.0285 H   0  0  0  0  0  0  0  0  0  0  0  0
   -0.4131    0.7505   -0.9636 C   0  0  0  0  0  0  0  0  0  0  0  0
    0.4913    1.3614   -0.9051 H   0  0  0  0  0  0  0  0  0  0  0  0
   -0.3617    0.1906   -1.8999 H   0  0  0  0  0  0  0  0  0  0  0  0
   -1.6151    1.6686   -1.0299 C   0  0  0  0  0  0  0  0  0  0  0  0
   -2.3361    1.9588   -2.1720 N   0  3  0  0  0  0  0  0  0  0  0  0
   -2.1566    1.5208   -3.0801 H   0  0  0  0  0  0  0  0  0  0  0  0
   -3.3289    2.8093   -1.8440 C   0  0  0  0  0  0  0  0  0  0  0  0
   -4.0708    3.2067   -2.5338 H   0  0  0  0  0  0  0  0  0  0  0  0
   -3.2530    3.0659   -0.5186 N   0  0  0  0  0  0  0  0  0  0  0  0
   -3.8758    3.6722    0.0087 H   0  0  0  0  0  0  0  0  0  0  0  0
   -2.1819    2.3575    0.0082 C   0  0  0  0  0  0  0  0  0  0  0  0
   -1.8499    2.3447    1.0426 H   0  0  0  0  0  0  0  0  0  0  0  0
    0.0470    0.3465    1.5629 C   0  0  0  0  0  0  0  0  0  0  0  0
    1.1854    0.1365    1.9846 O   0  0  0  0  0  0  0  0  0  0  0  0
   -0.8551    1.0750    2.2320 N   0  0  0  0  0  0  0  0  0  0  0  0
   -1.7594    1.2031    1.8040 H   0  0  0  0  0  0  0  0  0  0  0  0
   -0.6356    1.6998    3.5400 C   0  0  0  0  0  0  0  0  0  0  0  0
   -0.4284    2.7647    3.4168 H   0  0  0  0  0  0  0  0  0  0  0  0
   -1.5268    1.5885    4.1601 H   0  0  0  0  0  0  0  0  0  0  0  0
    0.2072    1.2358    4.0566 H   0  0  0  0  0  0  0  0  0  0  0  0
  5  6  2  0  0  0  0
  5  7  1  0  0  0  0
  2  3  1  0  0  0  0
  2  4  1  0  0  0  0
  2  5  1  0  0  0  0
  1  2  1  0  0  0  0
 23 24  2  0  0  0  0
 23 25  1  0  0  0  0
 21 22  1  0  0  0  0
 19 20  1  0  0  0  0
 19 21  1  0  0  0  0
 17 18  1  0  0  0  0
 17 19  1  0  0  0  0
 15 16  1  0  0  0  0
 15 17  2  0  0  0  0
 14 15  1  0  0  0  0
 14 21  2  0  0  0  0
 11 12  1  0  0  0  0
 11 13  1  0  0  0  0
 11 14  1  0  0  0  0
  9 10  1  0  0  0  0
  9 11  1  0  0  0  0
  9 23  1  0  0  0  0
  7  8  1  0  0  0  0
  7  9  1  0  0  0  0
 27 28  1  0  0  0  0
 27 29  1  0  0  0  0
 27 30  1  0  0  0  0
 25 26  1  0  0  0  0
 25 27  1  0  0  0  0
M  CHG  1  15   1
M  END
$$$$
default_name
  -OEChem-02102213163D

 30 30  0     1  0  0  0  0  0999 V2000
   -3.5507   -3.2183    1.8116 H   0  0  0  0  0  0  0  0  0  0  0  0
   -3.4597   -2.3913    1.1076 C   0  0  0  0  0  0  0  0  0  0  0  0
   -4.1577   -1.6043    1.3866 H   0  0  0  0  0  0  0  0  0  0  0  0
   -3.6807   -2.7523    0.1036 H   0  0  0  0  0  0  0  0  0  0  0  0
   -2.0477   -1.8543    1.1546 C   0  0  0  0  0  0  0  0  0  0  0  0
   -1.2227   -2.3443    1.9146 O   0  0  0  0  0  0  0  0  0  0  0  0
   -1.7517   -0.8483    0.3266 N   0  0  0  0  0  0  0  0  0  0  0  0
   -2.4847   -0.5123   -0.2804 H   0  0  0  0  0  0  0  0  0  0  0  0
   -0.4117   -0.2463    0.2186 C   0  0  1  0  0  0  0  0  0  0  0  0
    0.2987   -1.0391   -0.0285 H   0  0  0  0  0  0  0  0  0  0  0  0
   -0.4131    0.7505   -0.9636 C   0  0  0  0  0  0  0  0  0  0  0  0
    0.4913    1.3614   -0.9051 H   0  0  0  0  0  0  0  0  0  0  0  0
   -0.3617    0.1906   -1.8999 H   0  0  0  0  0  0  0  0  0  0  0  0
   -1.6151    1.6686   -1.0299 C   0  0  0  0  0  0  0  0  0  0  0  0
   -2.5091    1.7389   -2.0808 N   0  3  0  0  0  0  0  0  0  0  0  0
   -2.4732    1.1196   -2.8955 H   0  0  0  0  0  0  0  0  0  0  0  0
   -3.4419    2.6657   -1.7848 C   0  0  0  0  0  0  0  0  0  0  0  0
   -4.2855    2.9340   -2.4176 H   0  0  0  0  0  0  0  0  0  0  0  0
   -3.1586    3.1858   -0.5692 N   0  0  0  0  0  0  0  0  0  0  0  0
   -3.6933    3.9042   -0.0881 H   0  0  0  0  0  0  0  0  0  0  0  0
   -2.0141    2.5707   -0.0810 C   0  0  0  0  0  0  0  0  0  0  0  0
   -1.5226    2.7607    0.8691 H   0  0  0  0  0  0  0  0  0  0  0  0
    0.0470    0.3465    1.5629 C   0  0  0  0  0  0  0  0  0  0  0  0
    1.1854    0.1365    1.9846 O   0  0  0  0  0  0  0  0  0  0  0  0
   -0.8551    1.0750    2.2320 N   0  0  0  0  0  0  0  0  0  0  0  0
   -1.7594    1.2031    1.8040 H   0  0  0  0  0  0  0  0  0  0  0  0
   -0.6356    1.6998    3.5400 C   0  0  0  0  0  0  0  0  0  0  0  0
   -0.4284    2.7647    3.4168 H   0  0  0  0  0  0  0  0  0  0  0  0
   -1.5268    1.5885    4.1601 H   0  0  0  0  0  0  0  0  0  0  0  0
    0.2072    1.2358    4.0566 H   0  0  0  0  0  0  0  0  0  0  0  0
  5  6  2  0  0  0  0
  5  7  1  0  0  0  0
  2  3  1  0  0  0  0
  2  4  1  0  0  0  0
  2  5  1  0  0  0  0
  1  2  1  0  0  0  0
 23 24  2  0  0  0  0
 23 25  1  0  0  0  0
 21 22  1  0  0  0  0
 19 20  1  0  0  0  0
 19 21  1  0  0  0  0
 17 18  1  0  0  0  0
 17 19  1  0  0  0  0
 15 16  1  0  0  0  0
 15 17  2  0  0  0  0
 14 15  1  0  0  0  0
 14 21  2  0  0  0  0
 11 12  1  0  0  0  0
 11 13  1  0  0  0  0
 11 14  1  0  0  0  0
  9 10  1  0  0  0  0
  9 11  1  0  0  0  0
  9 23  1  0  0  0  0
  7  8  1  0  0  0  0
  7  9  1  0  0  0  0
 27 28  1  0  0  0  0
 27 29  1  0  0  0  0
 27 30  1  0  0  0  0
 25 26  1  0  0  0  0
 25 27  1  0  0  0  0
M  CHG  1  15   1
M  END
$$$$
default_name
  -OEChem-02102213163D

 30 30  0     1  0  0  0  0  0999 V2000
   -3.5507   -3.2183    1.8116 H   0  0  0  0  0  0  0  0  0  0  0  0
   -3.4597   -2.3913    1.1076 C   0  0  0  0  0  0  0  0  0  0  0  0
   -4.1577   -1.6043    1.3866 H   0  0  0  0  0  0  0  0  0  0  0  0
   -3.6807   -2.7523    0.1036 H   0  0  0  0  0  0  0  0  0  0  0  0
   -2.0477   -1.8543    1.1546 C   0  0  0  0  0  0  0  0  0  0  0  0
   -1.2227   -2.3443    1.9146 O   0  0  0  0  0  0  0  0  0  0  0  0
   -1.7517   -0.8483    0.3266 N   0  0  0  0  0  0  0  0  0  0  0  0
   -2.4847   -0.5123   -0.2804 H   0  0  0  0  0  0  0  0  0  0  0  0
   -0.4117   -0.2463    0.2186 C   0  0  1  0  0  0  0  0  0  0  0  0
    0.2987   -1.0391   -0.0285 H   0  0  0  0  0  0  0  0  0  0  0  0
   -0.4131    0.7505   -0.9636 C   0  0  0  0  0  0  0  0  0  0  0  0
    0.4913    1.3614   -0.9051 H   0  0  0  0  0  0  0  0  0  0  0  0
   -0.3617    0.1906   -1.8999 H   0  0  0  0  0  0  0  0  0  0  0  0
   -1.6151    1.6686   -1.0299 C   0  0  0  0  0  0  0  0  0  0  0  0
   -2.6643    1.5472   -1.9203 N   0  3  0  0  0  0  0  0  0  0  0  0
   -2.7546    0.7735   -2.5851 H   0  0  0  0  0  0  0  0  0  0  0  0
   -3.5433    2.5404   -1.6804 C   0  0  0  0  0  0  0  0  0  0  0  0
   -4.4777    2.6969   -2.2156 H   0  0  0  0  0  0  0  0  0  0  0  0
   -3.0740    3.2902   -0.6576 N   0  0  0  0  0  0  0  0  0  0  0  0
   -3.5295    4.1064   -0.2578 H   0  0  0  0  0  0  0  0  0  0  0  0
   -1.8636    2.7565   -0.2373 C   0  0  0  0  0  0  0  0  0  0  0  0
   -1.2290    3.1231    0.5647 H   0  0  0  0  0  0  0  0  0  0  0  0
    0.0470    0.3465    1.5629 C   0  0  0  0  0  0  0  0  0  0  0  0
    1.1854    0.1365    1.9846 O   0  0  0  0  0  0  0  0  0  0  0  0
   -0.8551    1.0750    2.2320 N   0  0  0  0  0  0  0  0  0  0  0  0
   -1.7594    1.2031    1.8040 H   0  0  0  0  0  0  0  0  0  0  0  0
   -0.6356    1.6998    3.5400 C   0  0  0  0  0  0  0  0  0  0  0  0
   -0.4284    2.7647    3.4168 H   0  0  0  0  0  0  0  0  0  0  0  0
   -1.5268    1.5885    4.1601 H   0  0  0  0  0  0  0  0  0  0  0  0
    0.2072    1.2358    4.0566 H   0  0  0  0  0  0  0  0  0  0  0  0
  5  6  2  0  0  0  0
  5  7  1  0  0  0  0
  2  3  1  0  0  0  0
  2  4  1  0  0  0  0
  2  5  1  0  0  0  0
  1  2  1  0  0  0  0
 23 24  2  0  0  0  0
 23 25  1  0  0  0  0
 21 22  1  0  0  0  0
 19 20  1  0  0  0  0
 19 21  1  0  0  0  0
 17 18  1  0  0  0  0
 17 19  1  0  0  0  0
 15 16  1  0  0  0  0
 15 17  2  0  0  0  0
 14 15  1  0  0  0  0
 14 21  2  0  0  0  0
 11 12  1  0  0  0  0
 11 13  1  0  0  0  0
 11 14  1  0  0  0  0
  9 10  1  0  0  0  0
  9 11  1  0  0  0  0
  9 23  1  0  0  0  0
  7  8  1  0  0  0  0
  7  9  1  0  0  0  0
 27 28  1  0  0  0  0
 27 29  1  0  0  0  0
 27 30  1  0  0  0  0
 25 26  1  0  0  0  0
 25 27  1  0  0  0  0
M  CHG  1  15   1
M  END
$$$$
default_name
  -OEChem-02102213163D

 30 30  0     1  0  0  0  0  0999 V2000
   -3.5507   -3.2183    1.8116 H   0  0  0  0  0  0  0  0  0  0  0  0
   -3.4597   -2.3913    1.1076 C   0  0  0  0  0  0  0  0  0  0  0  0
   -4.1577   -1.6043    1.3866 H   0  0  0  0  0  0  0  0  0  0  0  0
   -3.6807   -2.7523    0.1036 H   0  0  0  0  0  0  0  0  0  0  0  0
   -2.0477   -1.8543    1.1546 C   0  0  0  0  0  0  0  0  0  0  0  0
   -1.2227   -2.3443    1.9146 O   0  0  0  0  0  0  0  0  0  0  0  0
   -1.7517   -0.8483    0.3266 N   0  0  0  0  0  0  0  0  0  0  0  0
   -2.4847   -0.5123   -0.2804 H   0  0  0  0  0  0  0  0  0  0  0  0
   -0.4117   -0.2463    0.2186 C   0  0  1  0  0  0  0  0  0  0  0  0
    0.2987   -1.0391   -0.0285 H   0  0  0  0  0  0  0  0  0  0  0  0
   -0.4131    0.7505   -0.9636 C   0  0  0  0  0  0  0  0  0  0  0  0
    0.4913    1.3614   -0.9051 H   0  0  0  0  0  0  0  0  0  0  0  0
   -0.3617    0.1906   -1.8999 H   0  0  0  0  0  0  0  0  0  0  0  0
   -1.6151    1.6686   -1.0299 C   0  0  0  0  0  0  0  0  0  0  0  0
   -2.7913    1.3968   -1.7016 N   0  3  0  0  0  0  0  0  0  0  0  0
   -2.9817    0.5062   -2.1700 H   0  0  0  0  0  0  0  0  0  0  0  0
   -3.6263    2.4420   -1.5379 C   0  0  0  0  0  0  0  0  0  0  0  0
   -4.6344    2.5116   -1.9416 H   0  0  0  0  0  0  0  0  0  0  0  0
   -3.0050    3.3719   -0.7777 N   0  0  0  0  0  0  0  0  0  0  0  0
   -3.3957    4.2649   -0.4890 H   0  0  0  0  0  0  0  0  0  0  0  0
   -1.7407    2.9021   -0.4501 C   0  0  0  0  0  0  0  0  0  0  0  0
   -0.9891    3.4073    0.1502 H   0  0  0  0  0  0  0  0  0  0  0  0
    0.0470    0.3465    1.5629 C   0  0  0  0  0  0  0  0  0  0  0  0
    1.1854    0.1365    1.9846 O   0  0  0  0  0  0  0  0  0  0  0  0
   -0.8551    1.0750    2.2320 N   0  0  0  0  0  0  0  0  0  0  0  0
   -1.7594    1.2031    1.8040 H   0  0  0  0  0  0  0  0  0  0  0  0
   -0.6356    1.6998    3.5400 C   0  0  0  0  0  0  0  0  0  0  0  0
   -0.4284    2.7647    3.4168 H   0  0  0  0  0  0  0  0  0  0  0  0
   -1.5268    1.5885    4.1601 H   0  0  0  0  0  0  0  0  0  0  0  0
    0.2072    1.2358    4.0566 H   0  0  0  0  0  0  0  0  0  0  0  0
  5  6  2  0  0  0  0
  5  7  1  0  0  0  0
  2  3  1  0  0  0  0
  2  4  1  0  0  0  0
  2  5  1  0  0  0  0
  1  2  1  0  0  0  0
 23 24  2  0  0  0  0
 23 25  1  0  0  0  0
 21 22  1  0  0  0  0
 19 20  1  0  0  0  0
 19 21  1  0  0  0  0
 17 18  1  0  0  0  0
 17 19  1  0  0  0  0
 15 16  1  0  0  0  0
 15 17  2  0  0  0  0
 14 15  1  0  0  0  0
 14 21  2  0  0  0  0
 11 12  1  0  0  0  0
 11 13  1  0  0  0  0
 11 14  1  0  0  0  0
  9 10  1  0  0  0  0
  9 11  1  0  0  0  0
  9 23  1  0  0  0  0
  7  8  1  0  0  0  0
  7  9  1  0  0  0  0
 27 28  1  0  0  0  0
 27 29  1  0  0  0  0
 27 30  1  0  0  0  0
 25 26  1  0  0  0  0
 25 27  1  0  0  0  0
M  CHG  1  15   1
M  END
$$$$
default_name
  -OEChem-02102213163D

 30 30  0     1  0  0  0  0  0999 V2000
   -3.5507   -3.2183    1.8116 H   0  0  0  0  0  0  0  0  0  0  0  0
   -3.4597   -2.3913    1.1076 C   0  0  0  0  0  0  0  0  0  0  0  0
   -4.1577   -1.6043    1.3866 H   0  0  0  0  0  0  0  0  0  0  0  0
   -3.6807   -2.7523    0.1036 H   0  0  0  0  0  0  0  0  0  0  0  0
   -2.0477   -1.8543    1.1546 C   0  0  0  0  0  0  0  0  0  0  0  0
   -1.2227   -2.3443    1.9146 O   0  0  0  0  0  0  0  0  0  0  0  0
   -1.7517   -0.8483    0.3266 N   0  0  0  0  0  0  0  0  0  0  0  0
   -2.4847   -0.5123   -0.2804 H   0  0  0  0  0  0  0  0  0  0  0  0
   -0.4117   -0.2463    0.2186 C   0  0  1  0  0  0  0  0  0  0  0  0
    0.2987   -1.0391   -0.0285 H   0  0  0  0  0  0  0  0  0  0  0  0
   -0.4131    0.7505   -0.9636 C   0  0  0  0  0  0  0  0  0  0  0  0
    0.4913    1.3614   -0.9051 H   0  0  0  0  0  0  0  0  0  0  0  0
   -0.3617    0.1906   -1.8999 H   0  0  0  0  0  0  0  0  0  0  0  0
   -1.6151    1.6686   -1.0299 C   0  0  0  0  0  0  0  0  0  0  0  0
   -2.8813    1.2978   -1.4394 N   0  3  0  0  0  0  0  0  0  0  0  0
   -3.1388    0.3359   -1.6785 H   0  0  0  0  0  0  0  0  0  0  0  0
   -3.6852    2.3772   -1.3670 C   0  0  0  0  0  0  0  0  0  0  0  0
   -4.7448    2.3907   -1.6143 H   0  0  0  0  0  0  0  0  0  0  0  0
   -2.9563    3.4253   -0.9214 N   0  0  0  0  0  0  0  0  0  0  0  0
   -3.3009    4.3690   -0.7660 H   0  0  0  0  0  0  0  0  0  0  0  0
   -1.6537    2.9976   -0.7049 C   0  0  0  0  0  0  0  0  0  0  0  0
   -0.8192    3.5939   -0.3463 H   0  0  0  0  0  0  0  0  0  0  0  0
    0.0470    0.3465    1.5629 C   0  0  0  0  0  0  0  0  0  0  0  0
    1.1854    0.1365    1.9846 O   0  0  0  0  0  0  0  0  0  0  0  0
   -0.8551    1.0750    2.2320 N   0  0  0  0  0  0  0  0  0  0  0  0
   -1.7594    1.2031    1.8040 H   0  0  0  0  0  0  0  0  0  0  0  0
   -0.6356    1.6998    3.5400 C   0  0  0  0  0  0  0  0  0  0  0  0
   -0.4284    2.7647    3.4168 H   0  0  0  0  0  0  0  0  0  0  0  0
   -1.5268    1.5885    4.1601 H   0  0  0  0  0  0  0  0  0  0  0  0
    0.2072    1.2358    4.0566 H   0  0  0  0  0  0  0  0  0  0  0  0
  5  6  2  0  0  0  0
  5  7  1  0  0  0  0
  2  3  1  0  0  0  0
  2  4  1  0  0  0  0
  2  5  1  0  0  0  0
  1  2  1  0  0  0  0
 23 24  2  0  0  0  0
 23 25  1  0  0  0  0
 21 22  1  0  0  0  0
 19 20  1  0  0  0  0
 19 21  1  0  0  0  0
 17 18  1  0  0  0  0
 17 19  1  0  0  0  0
 15 16  1  0  0  0  0
 15 17  2  0  0  0  0
 14 15  1  0  0  0  0
 14 21  2  0  0  0  0
 11 12  1  0  0  0  0
 11 13  1  0  0  0  0
 11 14  1  0  0  0  0
  9 10  1  0  0  0  0
  9 11  1  0  0  0  0
  9 23  1  0  0  0  0
  7  8  1  0  0  0  0
  7  9  1  0  0  0  0
 27 28  1  0  0  0  0
 27 29  1  0  0  0  0
 27 30  1  0  0  0  0
 25 26  1  0  0  0  0
 25 27  1  0  0  0  0
M  CHG  1  15   1
M  END
$$$$
default_name
  -OEChem-02102213163D

 30 30  0     1  0  0  0  0  0999 V2000
   -3.5507   -3.2183    1.8116 H   0  0  0  0  0  0  0  0  0  0  0  0
   -3.4597   -2.3913    1.1076 C   0  0  0  0  0  0  0  0  0  0  0  0
   -4.1577   -1.6043    1.3866 H   0  0  0  0  0  0  0  0  0  0  0  0
   -3.6807   -2.7523    0.1036 H   0  0  0  0  0  0  0  0  0  0  0  0
   -2.0477   -1.8543    1.1546 C   0  0  0  0  0  0  0  0  0  0  0  0
   -1.2227   -2.3443    1.9146 O   0  0  0  0  0  0  0  0  0  0  0  0
   -1.7517   -0.8483    0.3266 N   0  0  0  0  0  0  0  0  0  0  0  0
   -2.4847   -0.5123   -0.2804 H   0  0  0  0  0  0  0  0  0  0  0  0
   -0.4117   -0.2463    0.2186 C   0  0  1  0  0  0  0  0  0  0  0  0
    0.2987   -1.0391   -0.0285 H   0  0  0  0  0  0  0  0  0  0  0  0
   -0.4131    0.7505   -0.9636 C   0  0  0  0  0  0  0  0  0  0  0  0
    0.4913    1.3614   -0.9051 H   0  0  0  0  0  0  0  0  0  0  0  0
   -0.3617    0.1906   -1.8999 H   0  0  0  0  0  0  0  0  0  0  0  0
   -1.6151    1.6686   -1.0299 C   0  0  0  0  0  0  0  0  0  0  0  0
   -2.9282    1.2572   -1.1517 N   0  3  0  0  0  0  0  0  0  0  0  0
   -3.2154    0.2742   -1.1440 H   0  0  0  0  0  0  0  0  0  0  0  0
   -3.7161    2.3504   -1.1793 C   0  0  0  0  0  0  0  0  0  0  0  0
   -4.8015    2.3423   -1.2560 H   0  0  0  0  0  0  0  0  0  0  0  0
   -2.9311    3.4469   -1.0787 N   0  0  0  0  0  0  0  0  0  0  0  0
   -3.2516    4.4116   -1.0697 H   0  0  0  0  0  0  0  0  0  0  0  0
   -1.6085    3.0365   -0.9842 C   0  0  0  0  0  0  0  0  0  0  0  0
   -0.7309    3.6702   -0.8909 H   0  0  0  0  0  0  0  0  0  0  0  0
    0.0470    0.3465    1.5629 C   0  0  0  0  0  0  0  0  0  0  0  0
    1.1854    0.1365    1.9846 O   0  0  0  0  0  0  0  0  0  0  0  0
   -0.8551    1.0750    2.2320 N   0  0  0  0  0  0  0  0  0  0  0  0
   -1.7594    1.2031    1.8040 H   0  0  0  0  0  0  0  0  0  0  0  0
   -0.6356    1.6998    3.5400 C   0  0  0  0  0  0  0  0  0  0  0  0
   -0.4284    2.7647    3.4168 H   0  0  0  0  0  0  0  0  0  0  0  0
   -1.5268    1.5885    4.1601 H   0  0  0  0  0  0  0  0  0  0  0  0
    0.2072    1.2358    4.0566 H   0  0  0  0  0  0  0  0  0  0  0  0
  5  6  2  0  0  0  0
  5  7  1  0  0  0  0
  2  3  1  0  0  0  0
  2  4  1  0  0  0  0
  2  5  1  0  0  0  0
  1  2  1  0  0  0  0
 23 24  2  0  0  0  0
 23 25  1  0  0  0  0
 21 22  1  0  0  0  0
 19 20  1  0  0  0  0
 19 21  1  0  0  0  0
 17 18  1  0  0  0  0
 17 19  1  0  0  0  0
 15 16  1  0  0  0  0
 15 17  2  0  0  0  0
 14 15  1  0  0  0  0
 14 21  2  0  0  0  0
 11 12  1  0  0  0  0
 11 13  1  0  0  0  0
 11 14  1  0  0  0  0
  9 10  1  0  0  0  0
  9 11  1  0  0  0  0
  9 23  1  0  0  0  0
  7  8  1  0  0  0  0
  7  9  1  0  0  0  0
 27 28  1  0  0  0  0
 27 29  1  0  0  0  0
 27 30  1  0  0  0  0
 25 26  1  0  0  0  0
 25 27  1  0  0  0  0
M  CHG  1  15   1
M  END
$$$$
default_name
  -OEChem-02102213163D

 30 30  0     1  0  0  0  0  0999 V2000
   -3.5507   -3.2183    1.8116 H   0  0  0  0  0  0  0  0  0  0  0  0
   -3.4597   -2.3913    1.1076 C   0  0  0  0  0  0  0  0  0  0  0  0
   -4.1577   -1.6043    1.3866 H   0  0  0  0  0  0  0  0  0  0  0  0
   -3.6807   -2.7523    0.1036 H   0  0  0  0  0  0  0  0  0  0  0  0
   -2.0477   -1.8543    1.1546 C   0  0  0  0  0  0  0  0  0  0  0  0
   -1.2227   -2.3443    1.9146 O   0  0  0  0  0  0  0  0  0  0  0  0
   -1.7517   -0.8483    0.3266 N   0  0  0  0  0  0  0  0  0  0  0  0
   -2.4847   -0.5123   -0.2804 H   0  0  0  0  0  0  0  0  0  0  0  0
   -0.4117   -0.2463    0.2186 C   0  0  1  0  0  0  0  0  0  0  0  0
    0.2987   -1.0391   -0.0285 H   0  0  0  0  0  0  0  0  0  0  0  0
   -0.4131    0.7505   -0.9636 C   0  0  0  0  0  0  0  0  0  0  0  0
    0.4913    1.3614   -0.9051 H   0  0  0  0  0  0  0  0  0  0  0  0
   -0.3617    0.1906   -1.8999 H   0  0  0  0  0  0  0  0  0  0  0  0
   -1.6151    1.6686   -1.0299 C   0  0  0  0  0  0  0  0  0  0  0  0
   -2.9289    1.2775   -0.8581 N   0  3  0  0  0  0  0  0  0  0  0  0
   -3.2062    0.3253   -0.6031 H   0  0  0  0  0  0  0  0  0  0  0  0
   -3.7167    2.3634   -0.9877 C   0  0  0  0  0  0  0  0  0  0  0  0
   -4.8005    2.3699   -0.8910 H   0  0  0  0  0  0  0  0  0  0  0  0
   -2.9313    3.4351   -1.2391 N   0  0  0  0  0  0  0  0  0  0  0  0
   -3.2512    4.3898   -1.3796 H   0  0  0  0  0  0  0  0  0  0  0  0
   -1.6083    3.0162   -1.2691 C   0  0  0  0  0  0  0  0  0  0  0  0
   -0.7302    3.6310   -1.4465 H   0  0  0  0  0  0  0  0  0  0  0  0
    0.0470    0.3465    1.5629 C   0  0  0  0  0  0  0  0  0  0  0  0
    1.1854    0.1365    1.9846 O   0  0  0  0  0  0  0  0  0  0  0  0
   -0.8551    1.0750    2.2320 N   0  0  0  0  0  0  0  0  0  0  0  0
   -1.7594    1.2031    1.8040 H   0  0  0  0  0  0  0  0  0  0  0  0
   -0.6356    1.6998    3.5400 C   0  0  0  0  0  0  0  0  0  0  0  0
   -0.4284    2.7647    3.4168 H   0  0  0  0  0  0  0  0  0  0  0  0
   -1.5268    1.5885    4.1601 H   0  0  0  0  0  0  0  0  0  0  0  0
    0.2072    1.2358    4.0566 H   0  0  0  0  0  0  0  0  0  0  0  0
  5  6  2  0  0  0  0
  5  7  1  0  0  0  0
  2  3  1  0  0  0  0
  2  4  1  0  0  0  0
  2  5  1  0  0  0  0
  1  2  1  0  0  0  0
 23 24  2  0  0  0  0
 23 25  1  0  0  0  0
 21 22  1  0  0  0  0
 19 20  1  0  0  0  0
 19 21  1  0  0  0  0
 17 18  1  0  0  0  0
 17 19  1  0  0  0  0
 15 16  1  0  0  0  0
 15 17  2  0  0  0  0
 14 15  1  0  0  0  0
 14 21  2  0  0  0  0
 11 12  1  0  0  0  0
 11 13  1  0  0  0  0
 11 14  1  0  0  0  0
  9 10  1  0  0  0  0
  9 11  1  0  0  0  0
  9 23  1  0  0  0  0
  7  8  1  0  0  0  0
  7  9  1  0  0  0  0
 27 28  1  0  0  0  0
 27 29  1  0  0  0  0
 27 30  1  0  0  0  0
 25 26  1  0  0  0  0
 25 27  1  0  0  0  0
M  CHG  1  15   1
M  END
$$$$
default_name
  -OEChem-02102213163D

 30 30  0     1  0  0  0  0  0999 V2000
   -3.5507   -3.2183    1.8116 H   0  0  0  0  0  0  0  0  0  0  0  0
   -3.4597   -2.3913    1.1076 C   0  0  0  0  0  0  0  0  0  0  0  0
   -4.1577   -1.6043    1.3866 H   0  0  0  0  0  0  0  0  0  0  0  0
   -3.6807   -2.7523    0.1036 H   0  0  0  0  0  0  0  0  0  0  0  0
   -2.0477   -1.8543    1.1546 C   0  0  0  0  0  0  0  0  0  0  0  0
   -1.2227   -2.3443    1.9146 O   0  0  0  0  0  0  0  0  0  0  0  0
   -1.7517   -0.8483    0.3266 N   0  0  0  0  0  0  0  0  0  0  0  0
   -2.4847   -0.5123   -0.2804 H   0  0  0  0  0  0  0  0  0  0  0  0
   -0.4117   -0.2463    0.2186 C   0  0  1  0  0  0  0  0  0  0  0  0
    0.2987   -1.0391   -0.0285 H   0  0  0  0  0  0  0  0  0  0  0  0
   -0.4131    0.7505   -0.9636 C   0  0  0  0  0  0  0  0  0  0  0  0
    0.4913    1.3614   -0.9051 H   0  0  0  0  0  0  0  0  0  0  0  0
   -0.3617    0.1906   -1.8999 H   0  0  0  0  0  0  0  0  0  0  0  0
   -1.6151    1.6686   -1.0299 C   0  0  0  0  0  0  0  0  0  0  0  0
   -2.8832    1.3575   -0.5786 N   0  3  0  0  0  0  0  0  0  0  0  0
   -3.1119    0.4857   -0.0925 H   0  0  0  0  0  0  0  0  0  0  0  0
   -3.6871    2.4154   -0.8052 C   0  0  0  0  0  0  0  0  0  0  0  0
   -4.7420    2.4716   -0.5444 H   0  0  0  0  0  0  0  0  0  0  0  0
   -2.9568    3.3907   -1.3916 N   0  0  0  0  0  0  0  0  0  0  0  0
   -3.2997    4.3050   -1.6745 H   0  0  0  0  0  0  0  0  0  0  0  0
   -1.6531    2.9381   -1.5402 C   0  0  0  0  0  0  0  0  0  0  0  0
   -0.8172    3.4789   -1.9752 H   0  0  0  0  0  0  0  0  0  0  0  0
    0.0470    0.3465    1.5629 C   0  0  0  0  0  0  0  0  0  0  0  0
    1.1854    0.1365    1.9846 O   0  0  0  0  0  0  0  0  0  0  0  0
   -0.8551    1.0750    2.2320 N   0  0  0  0  0  0  0  0  0  0  0  0
   -1.7594    1.2031    1.8040 H   0  0  0  0  0  0  0  0  0  0  0  0
   -0.6356    1.6998    3.5400 C   0  0  0  0  0  0  0  0  0  0  0  0
   -0.4284    2.7647    3.4168 H   0  0  0  0  0  0  0  0  0  0  0  0
   -1.5268    1.5885    4.1601 H   0  0  0  0  0  0  0  0  0  0  0  0
    0.2072    1.2358    4.0566 H   0  0  0  0  0  0  0  0  0  0  0  0
  5  6  2  0  0  0  0
  5  7  1  0  0  0  0
  2  3  1  0  0  0  0
  2  4  1  0  0  0  0
  2  5  1  0  0  0  0
  1  2  1  0  0  0  0
 23 24  2  0  0  0  0
 23 25  1  0  0  0  0
 21 22  1  0  0  0  0
 19 20  1  0  0  0  0
 19 21  1  0  0  0  0
 17 18  1  0  0  0  0
 17 19  1  0  0  0  0
 15 16  1  0  0  0  0
 15 17  2  0  0  0  0
 14 15  1  0  0  0  0
 14 21  2  0  0  0  0
 11 12  1  0  0  0  0
 11 13  1  0  0  0  0
 11 14  1  0  0  0  0
  9 10  1  0  0  0  0
  9 11  1  0  0  0  0
  9 23  1  0  0  0  0
  7  8  1  0  0  0  0
  7  9  1  0  0  0  0
 27 28  1  0  0  0  0
 27 29  1  0  0  0  0
 27 30  1  0  0  0  0
 25 26  1  0  0  0  0
 25 27  1  0  0  0  0
M  CHG  1  15   1
M  END
$$$$
default_name
  -OEChem-02102213163D

 30 30  0     1  0  0  0  0  0999 V2000
   -3.5507   -3.2183    1.8116 H   0  0  0  0  0  0  0  0  0  0  0  0
   -3.4597   -2.3913    1.1076 C   0  0  0  0  0  0  0  0  0  0  0  0
   -4.1577   -1.6043    1.3866 H   0  0  0  0  0  0  0  0  0  0  0  0
   -3.6807   -2.7523    0.1036 H   0  0  0  0  0  0  0  0  0  0  0  0
   -2.0477   -1.8543    1.1546 C   0  0  0  0  0  0  0  0  0  0  0  0
   -1.2227   -2.3443    1.9146 O   0  0  0  0  0  0  0  0  0  0  0  0
   -1.7517   -0.8483    0.3266 N   0  0  0  0  0  0  0  0  0  0  0  0
   -2.4847   -0.5123   -0.2804 H   0  0  0  0  0  0  0  0  0  0  0  0
   -0.4117   -0.2463    0.2186 C   0  0  1  0  0  0  0  0  0  0  0  0
    0.2987   -1.0391   -0.0285 H   0  0  0  0  0  0  0  0  0  0  0  0
   -0.4131    0.7505   -0.9636 C   0  0  0  0  0  0  0  0  0  0  0  0
    0.4913    1.3614   -0.9051 H   0  0  0  0  0  0  0  0  0  0  0  0
   -0.3617    0.1906   -1.8999 H   0  0  0  0  0  0  0  0  0  0  0  0
   -1.6151    1.6686   -1.0299 C   0  0  0  0  0  0  0  0  0  0  0  0
   -2.7943    1.4917   -0.3323 N   0  3  0  0  0  0  0  0  0  0  0  0
   -2.9388    0.7445    0.3529 H   0  0  0  0  0  0  0  0  0  0  0  0
   -3.6292    2.5027   -0.6443 C   0  0  0  0  0  0  0  0  0  0  0  0
   -4.6299    2.6404   -0.2396 H   0  0  0  0  0  0  0  0  0  0  0  0
   -3.0058    3.3169   -1.5257 N   0  0  0  0  0  0  0  0  0  0  0  0
   -3.3938    4.1630   -1.9343 H   0  0  0  0  0  0  0  0  0  0  0  0
   -1.7398    2.8074   -1.7790 C   0  0  0  0  0  0  0  0  0  0  0  0
   -0.9859    3.2244   -2.4410 H   0  0  0  0  0  0  0  0  0  0  0  0
    0.0470    0.3465    1.5629 C   0  0  0  0  0  0  0  0  0  0  0  0
    1.1854    0.1365    1.9846 O   0  0  0  0  0  0  0  0  0  0  0  0
   -0.8551    1.0750    2.2320 N   0  0  0  0  0  0  0  0  0  0  0  0
   -1.7594    1.2031    1.8040 H   0  0  0  0  0  0  0  0  0  0  0  0
   -0.6356    1.6998    3.5400 C   0  0  0  0  0  0  0  0  0  0  0  0
   -0.4284    2.7647    3.4168 H   0  0  0  0  0  0  0  0  0  0  0  0
   -1.5268    1.5885    4.1601 H   0  0  0  0  0  0  0  0  0  0  0  0
    0.2072    1.2358    4.0566 H   0  0  0  0  0  0  0  0  0  0  0  0
  5  6  2  0  0  0  0
  5  7  1  0  0  0  0
  2  3  1  0  0  0  0
  2  4  1  0  0  0  0
  2  5  1  0  0  0  0
  1  2  1  0  0  0  0
 23 24  2  0  0  0  0
 23 25  1  0  0  0  0
 21 22  1  0  0  0  0
 19 20  1  0  0  0  0
 19 21  1  0  0  0  0
 17 18  1  0  0  0  0
 17 19  1  0  0  0  0
 15 16  1  0  0  0  0
 15 17  2  0  0  0  0
 14 15  1  0  0  0  0
 14 21  2  0  0  0  0
 11 12  1  0  0  0  0
 11 13  1  0  0  0  0
 11 14  1  0  0  0  0
  9 10  1  0  0  0  0
  9 11  1  0  0  0  0
  9 23  1  0  0  0  0
  7  8  1  0  0  0  0
  7  9  1  0  0  0  0
 27 28  1  0  0  0  0
 27 29  1  0  0  0  0
 27 30  1  0  0  0  0
 25 26  1  0  0  0  0
 25 27  1  0  0  0  0
M  CHG  1  15   1
M  END
$$$$
default_name
  -OEChem-02102213163D

 30 30  0     1  0  0  0  0  0999 V2000
   -3.5507   -3.2183    1.8116 H   0  0  0  0  0  0  0  0  0  0  0  0
   -3.4597   -2.3913    1.1076 C   0  0  0  0  0  0  0  0  0  0  0  0
   -4.1577   -1.6043    1.3866 H   0  0  0  0  0  0  0  0  0  0  0  0
   -3.6807   -2.7523    0.1036 H   0  0  0  0  0  0  0  0  0  0  0  0
   -2.0477   -1.8543    1.1546 C   0  0  0  0  0  0  0  0  0  0  0  0
   -1.2227   -2.3443    1.9146 O   0  0  0  0  0  0  0  0  0  0  0  0
   -1.7517   -0.8483    0.3266 N   0  0  0  0  0  0  0  0  0  0  0  0
   -2.4847   -0.5123   -0.2804 H   0  0  0  0  0  0  0  0  0  0  0  0
   -0.4117   -0.2463    0.2186 C   0  0  1  0  0  0  0  0  0  0  0  0
    0.2987   -1.0391   -0.0285 H   0  0  0  0  0  0  0  0  0  0  0  0
   -0.4131    0.7505   -0.9636 C   0  0  0  0  0  0  0  0  0  0  0  0
    0.4913    1.3614   -0.9051 H   0  0  0  0  0  0  0  0  0  0  0  0
   -0.3617    0.1906   -1.8999 H   0  0  0  0  0  0  0  0  0  0  0  0
   -1.6151    1.6686   -1.0299 C   0  0  0  0  0  0  0  0  0  0  0  0
   -2.6682    1.6710   -0.1358 N   0  3  0  0  0  0  0  0  0  0  0  0
   -2.6988    1.0840    0.7028 H   0  0  0  0  0  0  0  0  0  0  0  0
   -3.5471    2.6195   -0.5158 C   0  0  0  0  0  0  0  0  0  0  0  0
   -4.4719    2.8647    0.0026 H   0  0  0  0  0  0  0  0  0  0  0  0
   -3.0751    3.2185   -1.6325 N   0  0  0  0  0  0  0  0  0  0  0  0
   -3.5271    3.9736   -2.1413 H   0  0  0  0  0  0  0  0  0  0  0  0
   -1.8624    2.6331   -1.9691 C   0  0  0  0  0  0  0  0  0  0  0  0
   -1.2249    2.8847   -2.8121 H   0  0  0  0  0  0  0  0  0  0  0  0
    0.0470    0.3465    1.5629 C   0  0  0  0  0  0  0  0  0  0  0  0
    1.1854    0.1365    1.9846 O   0  0  0  0  0  0  0  0  0  0  0  0
   -0.8551    1.0750    2.2320 N   0  0  0  0  0  0  0  0  0  0  0  0
   -1.7594    1.2031    1.8040 H   0  0  0  0  0  0  0  0  0  0  0  0
   -0.6356    1.6998    3.5400 C   0  0  0  0  0  0  0  0  0  0  0  0
   -0.4284    2.7647    3.4168 H   0  0  0  0  0  0  0  0  0  0  0  0
   -1.5268    1.5885    4.1601 H   0  0  0  0  0  0  0  0  0  0  0  0
    0.2072    1.2358    4.0566 H   0  0  0  0  0  0  0  0  0  0  0  0
  5  6  2  0  0  0  0
  5  7  1  0  0  0  0
  2  3  1  0  0  0  0
  2  4  1  0  0  0  0
  2  5  1  0  0  0  0
  1  2  1  0  0  0  0
 23 24  2  0  0  0  0
 23 25  1  0  0  0  0
 21 22  1  0  0  0  0
 19 20  1  0  0  0  0
 19 21  1  0  0  0  0
 17 18  1  0  0  0  0
 17 19  1  0  0  0  0
 15 16  1  0  0  0  0
 15 17  2  0  0  0  0
 14 15  1  0  0  0  0
 14 21  2  0  0  0  0
 11 12  1  0  0  0  0
 11 13  1  0  0  0  0
 11 14  1  0  0  0  0
  9 10  1  0  0  0  0
  9 11  1  0  0  0  0
  9 23  1  0  0  0  0
  7  8  1  0  0  0  0
  7  9  1  0  0  0  0
 27 28  1  0  0  0  0
 27 29  1  0  0  0  0
 27 30  1  0  0  0  0
 25 26  1  0  0  0  0
 25 27  1  0  0  0  0
M  CHG  1  15   1
M  END
$$$$
default_name
  -OEChem-02102213163D

 30 30  0     1  0  0  0  0  0999 V2000
   -3.5507   -3.2183    1.8116 H   0  0  0  0  0  0  0  0  0  0  0  0
   -3.4597   -2.3913    1.1076 C   0  0  0  0  0  0  0  0  0  0  0  0
   -4.1577   -1.6043    1.3866 H   0  0  0  0  0  0  0  0  0  0  0  0
   -3.6807   -2.7523    0.1036 H   0  0  0  0  0  0  0  0  0  0  0  0
   -2.0477   -1.8543    1.1546 C   0  0  0  0  0  0  0  0  0  0  0  0
   -1.2227   -2.3443    1.9146 O   0  0  0  0  0  0  0  0  0  0  0  0
   -1.7517   -0.8483    0.3266 N   0  0  0  0  0  0  0  0  0  0  0  0
   -2.4847   -0.5123   -0.2804 H   0  0  0  0  0  0  0  0  0  0  0  0
   -0.4117   -0.2463    0.2186 C   0  0  1  0  0  0  0  0  0  0  0  0
    0.2987   -1.0391   -0.0285 H   0  0  0  0  0  0  0  0  0  0  0  0
   -0.4131    0.7505   -0.9636 C   0  0  0  0  0  0  0  0  0  0  0  0
    0.4913    1.3614   -0.9051 H   0  0  0  0  0  0  0  0  0  0  0  0
   -0.3617    0.1906   -1.8999 H   0  0  0  0  0  0  0  0  0  0  0  0
   -1.6151    1.6686   -1.0299 C   0  0  0  0  0  0  0  0  0  0  0  0
   -2.5136    1.8830   -0.0027 N   0  3  0  0  0  0  0  0  0  0  0  0
   -2.4081    1.4811    0.9333 H   0  0  0  0  0  0  0  0  0  0  0  0
   -3.4463    2.7578   -0.4286 C   0  0  0  0  0  0  0  0  0  0  0  0
   -4.2787    3.1294    0.1656 H   0  0  0  0  0  0  0  0  0  0  0  0
   -3.1598    3.1023   -1.7044 N   0  0  0  0  0  0  0  0  0  0  0  0
   -3.6905    3.7496   -2.2815 H   0  0  0  0  0  0  0  0  0  0  0  0
   -2.0127    2.4270   -2.0977 C   0  0  0  0  0  0  0  0  0  0  0  0
   -1.5178    2.4831   -3.0633 H   0  0  0  0  0  0  0  0  0  0  0  0
    0.0470    0.3465    1.5629 C   0  0  0  0  0  0  0  0  0  0  0  0
    1.1854    0.1365    1.9846 O   0  0  0  0  0  0  0  0  0  0  0  0
   -0.8551    1.0750    2.2320 N   0  0  0  0  0  0  0  0  0  0  0  0
   -1.7594    1.2031    1.8040 H   0  0  0  0  0  0  0  0  0  0  0  0
   -0.6356    1.6998    3.5400 C   0  0  0  0  0  0  0  0  0  0  0  0
   -0.4284    2.7647    3.4168 H   0  0  0  0  0  0  0  0  0  0  0  0
   -1.5268    1.5885    4.1601 H   0  0  0  0  0  0  0  0  0  0  0  0
    0.2072    1.2358    4.0566 H   0  0  0  0  0  0  0  0  0  0  0  0
  5  6  2  0  0  0  0
  5  7  1  0  0  0  0
  2  3  1  0  0  0  0
  2  4  1  0  0  0  0
  2  5  1  0  0  0  0
  1  2  1  0  0  0  0
 23 24  2  0  0  0  0
 23 25  1  0  0  0  0
 21 22  1  0  0  0  0
 19 20  1  0  0  0  0
 19 21  1  0  0  0  0
 17 18  1  0  0  0  0
 17 19  1  0  0  0  0
 15 16  1  0  0  0  0
 15 17  2  0  0  0  0
 14 15  1  0  0  0  0
 14 21  2  0  0  0  0
 11 12  1  0  0  0  0
 11 13  1  0  0  0  0
 11 14  1  0  0  0  0
  9 10  1  0  0  0  0
  9 11  1  0  0  0  0
  9 23  1  0  0  0  0
  7  8  1  0  0  0  0
  7  9  1  0  0  0  0
 27 28  1  0  0  0  0
 27 29  1  0  0  0  0
 27 30  1  0  0  0  0
 25 26  1  0  0  0  0
 25 27  1  0  0  0  0
M  CHG  1  15   1
M  END
$$$$
default_name
  -OEChem-02102213163D

 30 30  0     1  0  0  0  0  0999 V2000
   -3.5507   -3.2183    1.8116 H   0  0  0  0  0  0  0  0  0  0  0  0
   -3.4597   -2.3913    1.1076 C   0  0  0  0  0  0  0  0  0  0  0  0
   -4.1577   -1.6043    1.3866 H   0  0  0  0  0  0  0  0  0  0  0  0
   -3.6807   -2.7523    0.1036 H   0  0  0  0  0  0  0  0  0  0  0  0
   -2.0477   -1.8543    1.1546 C   0  0  0  0  0  0  0  0  0  0  0  0
   -1.2227   -2.3443    1.9146 O   0  0  0  0  0  0  0  0  0  0  0  0
   -1.7517   -0.8483    0.3266 N   0  0  0  0  0  0  0  0  0  0  0  0
   -2.4847   -0.5123   -0.2804 H   0  0  0  0  0  0  0  0  0  0  0  0
   -0.4117   -0.2463    0.2186 C   0  0  1  0  0  0  0  0  0  0  0  0
    0.2987   -1.0391   -0.0285 H   0  0  0  0  0  0  0  0  0  0  0  0
   -0.4131    0.7505   -0.9636 C   0  0  0  0  0  0  0  0  0  0  0  0
    0.4913    1.3614   -0.9051 H   0  0  0  0  0  0  0  0  0  0  0  0
   -0.3617    0.1906   -1.8999 H   0  0  0  0  0  0  0  0  0  0  0  0
   -1.6151    1.6686   -1.0299 C   0  0  0  0  0  0  0  0  0  0  0  0
   -2.3409    2.1135    0.0581 N   0  3  0  0  0  0  0  0  0  0  0  0
   -2.0868    1.9088    1.0288 H   0  0  0  0  0  0  0  0  0  0  0  0
   -3.3337    2.9081   -0.3887 C   0  0  0  0  0  0  0  0  0  0  0  0
   -4.0635    3.4164    0.2383 H   0  0  0  0  0  0  0  0  0  0  0  0
   -3.2543    2.9763   -1.7368 N   0  0  0  0  0  0  0  0  0  0  0  0
   -3.8728    3.5063   -2.3451 H   0  0  0  0  0  0  0  0  0  0  0  0
   -2.1804    2.2032   -2.1560 C   0  0  0  0  0  0  0  0  0  0  0  0
   -1.8447    2.0468   -3.1774 H   0  0  0  0  0  0  0  0  0  0  0  0
    0.0470    0.3465    1.5629 C   0  0  0  0  0  0  0  0  0  0  0  0
    1.1854    0.1365    1.9846 O   0  0  0  0  0  0  0  0  0  0  0  0
   -0.8551    1.0750    2.2320 N   0  0  0  0  0  0  0  0  0  0  0  0
   -1.7594    1.2031    1.8040 H   0  0  0  0  0  0  0  0  0  0  0  0
   -0.6356    1.6998    3.5400 C   0  0  0  0  0  0  0  0  0  0  0  0
   -0.4284    2.7647    3.4168 H   0  0  0  0  0  0  0  0  0  0  0  0
   -1.5268    1.5885    4.1601 H   0  0  0  0  0  0  0  0  0  0  0  0
    0.2072    1.2358    4.0566 H   0  0  0  0  0  0  0  0  0  0  0  0
  5  6  2  0  0  0  0
  5  7  1  0  0  0  0
  2  3  1  0  0  0  0
  2  4  1  0  0  0  0
  2  5  1  0  0  0  0
  1  2  1  0  0  0  0
 23 24  2  0  0  0  0
 23 25  1  0  0  0  0
 21 22  1  0  0  0  0
 19 20  1  0  0  0  0
 19 21  1  0  0  0  0
 17 18  1  0  0  0  0
 17 19  1  0  0  0  0
 15 16  1  0  0  0  0
 15 17  2  0  0  0  0
 14 15  1  0  0  0  0
 14 21  2  0  0  0  0
 11 12  1  0  0  0  0
 11 13  1  0  0  0  0
 11 14  1  0  0  0  0
  9 10  1  0  0  0  0
  9 11  1  0  0  0  0
  9 23  1  0  0  0  0
  7  8  1  0  0  0  0
  7  9  1  0  0  0  0
 27 28  1  0  0  0  0
 27 29  1  0  0  0  0
 27 30  1  0  0  0  0
 25 26  1  0  0  0  0
 25 27  1  0  0  0  0
M  CHG  1  15   1
M  END
$$$$
default_name
  -OEChem-02102213163D

 30 30  0     1  0  0  0  0  0999 V2000
   -3.5507   -3.2183    1.8116 H   0  0  0  0  0  0  0  0  0  0  0  0
   -3.4597   -2.3913    1.1076 C   0  0  0  0  0  0  0  0  0  0  0  0
   -4.1577   -1.6043    1.3866 H   0  0  0  0  0  0  0  0  0  0  0  0
   -3.6807   -2.7523    0.1036 H   0  0  0  0  0  0  0  0  0  0  0  0
   -2.0477   -1.8543    1.1546 C   0  0  0  0  0  0  0  0  0  0  0  0
   -1.2227   -2.3443    1.9146 O   0  0  0  0  0  0  0  0  0  0  0  0
   -1.7517   -0.8483    0.3266 N   0  0  0  0  0  0  0  0  0  0  0  0
   -2.4847   -0.5123   -0.2804 H   0  0  0  0  0  0  0  0  0  0  0  0
   -0.4117   -0.2463    0.2186 C   0  0  1  0  0  0  0  0  0  0  0  0
    0.2987   -1.0391   -0.0285 H   0  0  0  0  0  0  0  0  0  0  0  0
   -0.4131    0.7505   -0.9636 C   0  0  0  0  0  0  0  0  0  0  0  0
    0.4913    1.3614   -0.9051 H   0  0  0  0  0  0  0  0  0  0  0  0
   -0.3617    0.1906   -1.8999 H   0  0  0  0  0  0  0  0  0  0  0  0
   -1.6151    1.6686   -1.0299 C   0  0  0  0  0  0  0  0  0  0  0  0
   -2.1620    2.3466    0.0423 N   0  3  0  0  0  0  0  0  0  0  0  0
   -1.7565    2.3379    0.9826 H   0  0  0  0  0  0  0  0  0  0  0  0
   -3.2169    3.0603   -0.3986 C   0  0  0  0  0  0  0  0  0  0  0  0
   -3.8410    3.7061    0.2158 H   0  0  0  0  0  0  0  0  0  0  0  0
   -3.3521    2.8489   -1.7273 N   0  0  0  0  0  0  0  0  0  0  0  0
   -4.0617    3.2602   -2.3280 H   0  0  0  0  0  0  0  0  0  0  0  0
   -2.3541    1.9770   -2.1400 C   0  0  0  0  0  0  0  0  0  0  0  0
   -2.1833    1.6057   -3.1467 H   0  0  0  0  0  0  0  0  0  0  0  0
    0.0470    0.3465    1.5629 C   0  0  0  0  0  0  0  0  0  0  0  0
    1.1854    0.1365    1.9846 O   0  0  0  0  0  0  0  0  0  0  0  0
   -0.8551    1.0750    2.2320 N   0  0  0  0  0  0  0  0  0  0  0  0
   -1.7594    1.2031    1.8040 H   0  0  0  0  0  0  0  0  0  0  0  0
   -0.6356    1.6998    3.5400 C   0  0  0  0  0  0  0  0  0  0  0  0
   -0.4284    2.7647    3.4168 H   0  0  0  0  0  0  0  0  0  0  0  0
   -1.5268    1.5885    4.1601 H   0  0  0  0  0  0  0  0  0  0  0  0
    0.2072    1.2358    4.0566 H   0  0  0  0  0  0  0  0  0  0  0  0
  5  6  2  0  0  0  0
  5  7  1  0  0  0  0
  2  3  1  0  0  0  0
  2  4  1  0  0  0  0
  2  5  1  0  0  0  0
  1  2  1  0  0  0  0
 23 24  2  0  0  0  0
 23 25  1  0  0  0  0
 21 22  1  0  0  0  0
 19 20  1  0  0  0  0
 19 21  1  0  0  0  0
 17 18  1  0  0  0  0
 17 19  1  0  0  0  0
 15 16  1  0  0  0  0
 15 17  2  0  0  0  0
 14 15  1  0  0  0  0
 14 21  2  0  0  0  0
 11 12  1  0  0  0  0
 11 13  1  0  0  0  0
 11 14  1  0  0  0  0
  9 10  1  0  0  0  0
  9 11  1  0  0  0  0
  9 23  1  0  0  0  0
  7  8  1  0  0  0  0
  7  9  1  0  0  0  0
 27 28  1  0  0  0  0
 27 29  1  0  0  0  0
 27 30  1  0  0  0  0
 25 26  1  0  0  0  0
 25 27  1  0  0  0  0
M  CHG  1  15   1
M  END
$$$$
default_name
  -OEChem-02102213163D

 30 30  0     1  0  0  0  0  0999 V2000
   -3.5507   -3.2183    1.8116 H   0  0  0  0  0  0  0  0  0  0  0  0
   -3.4597   -2.3913    1.1076 C   0  0  0  0  0  0  0  0  0  0  0  0
   -4.1577   -1.6043    1.3866 H   0  0  0  0  0  0  0  0  0  0  0  0
   -3.6807   -2.7523    0.1036 H   0  0  0  0  0  0  0  0  0  0  0  0
   -2.0477   -1.8543    1.1546 C   0  0  0  0  0  0  0  0  0  0  0  0
   -1.2227   -2.3443    1.9146 O   0  0  0  0  0  0  0  0  0  0  0  0
   -1.7517   -0.8483    0.3266 N   0  0  0  0  0  0  0  0  0  0  0  0
   -2.4847   -0.5123   -0.2804 H   0  0  0  0  0  0  0  0  0  0  0  0
   -0.4117   -0.2463    0.2186 C   0  0  1  0  0  0  0  0  0  0  0  0
    0.2987   -1.0391   -0.0285 H   0  0  0  0  0  0  0  0  0  0  0  0
   -0.4131    0.7505   -0.9636 C   0  0  0  0  0  0  0  0  0  0  0  0
    0.4913    1.3614   -0.9051 H   0  0  0  0  0  0  0  0  0  0  0  0
   -0.3617    0.1906   -1.8999 H   0  0  0  0  0  0  0  0  0  0  0  0
   -1.6151    1.6686   -1.0299 C   0  0  0  0  0  0  0  0  0  0  0  0
   -1.9890    2.5665   -0.0489 N   0  3  0  0  0  0  0  0  0  0  0  0
   -1.4399    2.7391    0.7981 H   0  0  0  0  0  0  0  0  0  0  0  0
   -3.1040    3.2039   -0.4578 C   0  0  0  0  0  0  0  0  0  0  0  0
   -3.6263    3.9788    0.0996 H   0  0  0  0  0  0  0  0  0  0  0  0
   -3.4465    2.7290   -1.6767 N   0  0  0  0  0  0  0  0  0  0  0  0
   -4.2442    3.0282   -2.2313 H   0  0  0  0  0  0  0  0  0  0  0  0
   -2.5219    1.7638   -2.0508 C   0  0  0  0  0  0  0  0  0  0  0  0
   -2.5106    1.1898   -2.9732 H   0  0  0  0  0  0  0  0  0  0  0  0
    0.0470    0.3465    1.5629 C   0  0  0  0  0  0  0  0  0  0  0  0
    1.1854    0.1365    1.9846 O   0  0  0  0  0  0  0  0  0  0  0  0
   -0.8551    1.0750    2.2320 N   0  0  0  0  0  0  0  0  0  0  0  0
   -1.7594    1.2031    1.8040 H   0  0  0  0  0  0  0  0  0  0  0  0
   -0.6356    1.6998    3.5400 C   0  0  0  0  0  0  0  0  0  0  0  0
   -0.4284    2.7647    3.4168 H   0  0  0  0  0  0  0  0  0  0  0  0
   -1.5268    1.5885    4.1601 H   0  0  0  0  0  0  0  0  0  0  0  0
    0.2072    1.2358    4.0566 H   0  0  0  0  0  0  0  0  0  0  0  0
  5  6  2  0  0  0  0
  5  7  1  0  0  0  0
  2  3  1  0  0  0  0
  2  4  1  0  0  0  0
  2  5  1  0  0  0  0
  1  2  1  0  0  0  0
 23 24  2  0  0  0  0
 23 25  1  0  0  0  0
 21 22  1  0  0  0  0
 19 20  1  0  0  0  0
 19 21  1  0  0  0  0
 17 18  1  0  0  0  0
 17 19  1  0  0  0  0
 15 16  1  0  0  0  0
 15 17  2  0  0  0  0
 14 15  1  0  0  0  0
 14 21  2  0  0  0  0
 11 12  1  0  0  0  0
 11 13  1  0  0  0  0
 11 14  1  0  0  0  0
  9 10  1  0  0  0  0
  9 11  1  0  0  0  0
  9 23  1  0  0  0  0
  7  8  1  0  0  0  0
  7  9  1  0  0  0  0
 27 28  1  0  0  0  0
 27 29  1  0  0  0  0
 27 30  1  0  0  0  0
 25 26  1  0  0  0  0
 25 27  1  0  0  0  0
M  CHG  1  15   1
M  END
$$$$
default_name
  -OEChem-02102213163D

 30 30  0     1  0  0  0  0  0999 V2000
   -3.5507   -3.2183    1.8116 H   0  0  0  0  0  0  0  0  0  0  0  0
   -3.4597   -2.3913    1.1076 C   0  0  0  0  0  0  0  0  0  0  0  0
   -4.1577   -1.6043    1.3866 H   0  0  0  0  0  0  0  0  0  0  0  0
   -3.6807   -2.7523    0.1036 H   0  0  0  0  0  0  0  0  0  0  0  0
   -2.0477   -1.8543    1.1546 C   0  0  0  0  0  0  0  0  0  0  0  0
   -1.2227   -2.3443    1.9146 O   0  0  0  0  0  0  0  0  0  0  0  0
   -1.7517   -0.8483    0.3266 N   0  0  0  0  0  0  0  0  0  0  0  0
   -2.4847   -0.5123   -0.2804 H   0  0  0  0  0  0  0  0  0  0  0  0
   -0.4117   -0.2463    0.2186 C   0  0  1  0  0  0  0  0  0  0  0  0
    0.2987   -1.0391   -0.0285 H   0  0  0  0  0  0  0  0  0  0  0  0
   -0.4131    0.7505   -0.9636 C   0  0  0  0  0  0  0  0  0  0  0  0
    0.4913    1.3614   -0.9051 H   0  0  0  0  0  0  0  0  0  0  0  0
   -0.3617    0.1906   -1.8999 H   0  0  0  0  0  0  0  0  0  0  0  0
   -1.6151    1.6686   -1.0299 C   0  0  0  0  0  0  0  0  0  0  0  0
   -1.8337    2.7583   -0.2094 N   0  3  0  0  0  0  0  0  0  0  0  0
   -1.1584    3.0852    0.4876 H   0  0  0  0  0  0  0  0  0  0  0  0
   -3.0026    3.3291   -0.5623 C   0  0  0  0  0  0  0  0  0  0  0  0
   -3.4341    4.2159   -0.1024 H   0  0  0  0  0  0  0  0  0  0  0  0
   -3.5311    2.6246   -1.5883 N   0  0  0  0  0  0  0  0  0  0  0  0
   -4.4080    2.8260   -2.0616 H   0  0  0  0  0  0  0  0  0  0  0  0
   -2.6724    1.5780   -1.8945 C   0  0  0  0  0  0  0  0  0  0  0  0
   -2.8042    0.8273   -2.6688 H   0  0  0  0  0  0  0  0  0  0  0  0
    0.0470    0.3465    1.5629 C   0  0  0  0  0  0  0  0  0  0  0  0
    1.1854    0.1365    1.9846 O   0  0  0  0  0  0  0  0  0  0  0  0
   -0.8551    1.0750    2.2320 N   0  0  0  0  0  0  0  0  0  0  0  0
   -1.7594    1.2031    1.8040 H   0  0  0  0  0  0  0  0  0  0  0  0
   -0.6356    1.6998    3.5400 C   0  0  0  0  0  0  0  0  0  0  0  0
   -0.4284    2.7647    3.4168 H   0  0  0  0  0  0  0  0  0  0  0  0
   -1.5268    1.5885    4.1601 H   0  0  0  0  0  0  0  0  0  0  0  0
    0.2072    1.2358    4.0566 H   0  0  0  0  0  0  0  0  0  0  0  0
  5  6  2  0  0  0  0
  5  7  1  0  0  0  0
  2  3  1  0  0  0  0
  2  4  1  0  0  0  0
  2  5  1  0  0  0  0
  1  2  1  0  0  0  0
 23 24  2  0  0  0  0
 23 25  1  0  0  0  0
 21 22  1  0  0  0  0
 19 20  1  0  0  0  0
 19 21  1  0  0  0  0
 17 18  1  0  0  0  0
 17 19  1  0  0  0  0
 15 16  1  0  0  0  0
 15 17  2  0  0  0  0
 14 15  1  0  0  0  0
 14 21  2  0  0  0  0
 11 12  1  0  0  0  0
 11 13  1  0  0  0  0
 11 14  1  0  0  0  0
  9 10  1  0  0  0  0
  9 11  1  0  0  0  0
  9 23  1  0  0  0  0
  7  8  1  0  0  0  0
  7  9  1  0  0  0  0
 27 28  1  0  0  0  0
 27 29  1  0  0  0  0
 27 30  1  0  0  0  0
 25 26  1  0  0  0  0
 25 27  1  0  0  0  0
M  CHG  1  15   1
M  END
$$$$
default_name
  -OEChem-02102213163D

 30 30  0     1  0  0  0  0  0999 V2000
   -3.5507   -3.2183    1.8116 H   0  0  0  0  0  0  0  0  0  0  0  0
   -3.4597   -2.3913    1.1076 C   0  0  0  0  0  0  0  0  0  0  0  0
   -4.1577   -1.6043    1.3866 H   0  0  0  0  0  0  0  0  0  0  0  0
   -3.6807   -2.7523    0.1036 H   0  0  0  0  0  0  0  0  0  0  0  0
   -2.0477   -1.8543    1.1546 C   0  0  0  0  0  0  0  0  0  0  0  0
   -1.2227   -2.3443    1.9146 O   0  0  0  0  0  0  0  0  0  0  0  0
   -1.7517   -0.8483    0.3266 N   0  0  0  0  0  0  0  0  0  0  0  0
   -2.4847   -0.5123   -0.2804 H   0  0  0  0  0  0  0  0  0  0  0  0
   -0.4117   -0.2463    0.2186 C   0  0  1  0  0  0  0  0  0  0  0  0
    0.2987   -1.0391   -0.0285 H   0  0  0  0  0  0  0  0  0  0  0  0
   -0.4131    0.7505   -0.9636 C   0  0  0  0  0  0  0  0  0  0  0  0
    0.4913    1.3614   -0.9051 H   0  0  0  0  0  0  0  0  0  0  0  0
   -0.3617    0.1906   -1.8999 H   0  0  0  0  0  0  0  0  0  0  0  0
   -1.6151    1.6686   -1.0299 C   0  0  0  0  0  0  0  0  0  0  0  0
   -1.7067    2.9087   -0.4282 N   0  3  0  0  0  0  0  0  0  0  0  0
   -0.9314    3.3525    0.0725 H   0  0  0  0  0  0  0  0  0  0  0  0
   -2.9196    3.4275   -0.7048 C   0  0  0  0  0  0  0  0  0  0  0  0
   -3.2774    4.4012   -0.3763 H   0  0  0  0  0  0  0  0  0  0  0  0
   -3.6001    2.5429   -1.4682 N   0  0  0  0  0  0  0  0  0  0  0  0
   -4.5418    2.6675   -1.8303 H   0  0  0  0  0  0  0  0  0  0  0  0
   -2.7953    1.4324   -1.6817 C   0  0  0  0  0  0  0  0  0  0  0  0
   -3.0441    0.5431   -2.2543 H   0  0  0  0  0  0  0  0  0  0  0  0
    0.0470    0.3465    1.5629 C   0  0  0  0  0  0  0  0  0  0  0  0
    1.1854    0.1365    1.9846 O   0  0  0  0  0  0  0  0  0  0  0  0
   -0.8551    1.0750    2.2320 N   0  0  0  0  0  0  0  0  0  0  0  0
   -1.7594    1.2031    1.8040 H   0  0  0  0  0  0  0  0  0  0  0  0
   -0.6356    1.6998    3.5400 C   0  0  0  0  0  0  0  0  0  0  0  0
   -0.4284    2.7647    3.4168 H   0  0  0  0  0  0  0  0  0  0  0  0
   -1.5268    1.5885    4.1601 H   0  0  0  0  0  0  0  0  0  0  0  0
    0.2072    1.2358    4.0566 H   0  0  0  0  0  0  0  0  0  0  0  0
  5  6  2  0  0  0  0
  5  7  1  0  0  0  0
  2  3  1  0  0  0  0
  2  4  1  0  0  0  0
  2  5  1  0  0  0  0
  1  2  1  0  0  0  0
 23 24  2  0  0  0  0
 23 25  1  0  0  0  0
 21 22  1  0  0  0  0
 19 20  1  0  0  0  0
 19 21  1  0  0  0  0
 17 18  1  0  0  0  0
 17 19  1  0  0  0  0
 15 16  1  0  0  0  0
 15 17  2  0  0  0  0
 14 15  1  0  0  0  0
 14 21  2  0  0  0  0
 11 12  1  0  0  0  0
 11 13  1  0  0  0  0
 11 14  1  0  0  0  0
  9 10  1  0  0  0  0
  9 11  1  0  0  0  0
  9 23  1  0  0  0  0
  7  8  1  0  0  0  0
  7  9  1  0  0  0  0
 27 28  1  0  0  0  0
 27 29  1  0  0  0  0
 27 30  1  0  0  0  0
 25 26  1  0  0  0  0
 25 27  1  0  0  0  0
M  CHG  1  15   1
M  END
$$$$
default_name
  -OEChem-02102213163D

 30 30  0     1  0  0  0  0  0999 V2000
   -3.5507   -3.2183    1.8116 H   0  0  0  0  0  0  0  0  0  0  0  0
   -3.4597   -2.3913    1.1076 C   0  0  0  0  0  0  0  0  0  0  0  0
   -4.1577   -1.6043    1.3866 H   0  0  0  0  0  0  0  0  0  0  0  0
   -3.6807   -2.7523    0.1036 H   0  0  0  0  0  0  0  0  0  0  0  0
   -2.0477   -1.8543    1.1546 C   0  0  0  0  0  0  0  0  0  0  0  0
   -1.2227   -2.3443    1.9146 O   0  0  0  0  0  0  0  0  0  0  0  0
   -1.7517   -0.8483    0.3266 N   0  0  0  0  0  0  0  0  0  0  0  0
   -2.4847   -0.5123   -0.2804 H   0  0  0  0  0  0  0  0  0  0  0  0
   -0.4117   -0.2463    0.2186 C   0  0  1  0  0  0  0  0  0  0  0  0
    0.2987   -1.0391   -0.0285 H   0  0  0  0  0  0  0  0  0  0  0  0
   -0.4131    0.7505   -0.9636 C   0  0  0  0  0  0  0  0  0  0  0  0
    0.4913    1.3614   -0.9051 H   0  0  0  0  0  0  0  0  0  0  0  0
   -0.3617    0.1906   -1.8999 H   0  0  0  0  0  0  0  0  0  0  0  0
   -1.6151    1.6686   -1.0299 C   0  0  0  0  0  0  0  0  0  0  0  0
   -1.6167    3.0076   -0.6903 N   0  3  0  0  0  0  0  0  0  0  0  0
   -0.7742    3.5228   -0.4190 H   0  0  0  0  0  0  0  0  0  0  0  0
   -2.8606    3.4923   -0.8757 C   0  0  0  0  0  0  0  0  0  0  0  0
   -3.1670    4.5222   -0.7036 H   0  0  0  0  0  0  0  0  0  0  0  0
   -3.6488    2.4895   -1.3246 N   0  0  0  0  0  0  0  0  0  0  0  0
   -4.6366    2.5634   -1.5534 H   0  0  0  0  0  0  0  0  0  0  0  0
   -2.8823    1.3369   -1.4270 C   0  0  0  0  0  0  0  0  0  0  0  0
   -3.2140    0.3565   -1.7578 H   0  0  0  0  0  0  0  0  0  0  0  0
    0.0470    0.3465    1.5629 C   0  0  0  0  0  0  0  0  0  0  0  0
    1.1854    0.1365    1.9846 O   0  0  0  0  0  0  0  0  0  0  0  0
   -0.8551    1.0750    2.2320 N   0  0  0  0  0  0  0  0  0  0  0  0
   -1.7594    1.2031    1.8040 H   0  0  0  0  0  0  0  0  0  0  0  0
   -0.6356    1.6998    3.5400 C   0  0  0  0  0  0  0  0  0  0  0  0
   -0.4284    2.7647    3.4168 H   0  0  0  0  0  0  0  0  0  0  0  0
   -1.5268    1.5885    4.1601 H   0  0  0  0  0  0  0  0  0  0  0  0
    0.2072    1.2358    4.0566 H   0  0  0  0  0  0  0  0  0  0  0  0
  5  6  2  0  0  0  0
  5  7  1  0  0  0  0
  2  3  1  0  0  0  0
  2  4  1  0  0  0  0
  2  5  1  0  0  0  0
  1  2  1  0  0  0  0
 23 24  2  0  0  0  0
 23 25  1  0  0  0  0
 21 22  1  0  0  0  0
 19 20  1  0  0  0  0
 19 21  1  0  0  0  0
 17 18  1  0  0  0  0
 17 19  1  0  0  0  0
 15 16  1  0  0  0  0
 15 17  2  0  0  0  0
 14 15  1  0  0  0  0
 14 21  2  0  0  0  0
 11 12  1  0  0  0  0
 11 13  1  0  0  0  0
 11 14  1  0  0  0  0
  9 10  1  0  0  0  0
  9 11  1  0  0  0  0
  9 23  1  0  0  0  0
  7  8  1  0  0  0  0
  7  9  1  0  0  0  0
 27 28  1  0  0  0  0
 27 29  1  0  0  0  0
 27 30  1  0  0  0  0
 25 26  1  0  0  0  0
 25 27  1  0  0  0  0
M  CHG  1  15   1
M  END
$$$$
default_name
  -OEChem-02102213163D

 30 30  0     1  0  0  0  0  0999 V2000
   -3.5507   -3.2183    1.8116 H   0  0  0  0  0  0  0  0  0  0  0  0
   -3.4597   -2.3913    1.1076 C   0  0  0  0  0  0  0  0  0  0  0  0
   -4.1577   -1.6043    1.3866 H   0  0  0  0  0  0  0  0  0  0  0  0
   -3.6807   -2.7523    0.1036 H   0  0  0  0  0  0  0  0  0  0  0  0
   -2.0477   -1.8543    1.1546 C   0  0  0  0  0  0  0  0  0  0  0  0
   -1.2227   -2.3443    1.9146 O   0  0  0  0  0  0  0  0  0  0  0  0
   -1.7517   -0.8483    0.3266 N   0  0  0  0  0  0  0  0  0  0  0  0
   -2.4847   -0.5123   -0.2804 H   0  0  0  0  0  0  0  0  0  0  0  0
   -0.4117   -0.2463    0.2186 C   0  0  1  0  0  0  0  0  0  0  0  0
    0.2987   -1.0391   -0.0285 H   0  0  0  0  0  0  0  0  0  0  0  0
   -0.4131    0.7505   -0.9636 C   0  0  0  0  0  0  0  0  0  0  0  0
    0.4913    1.3614   -0.9051 H   0  0  0  0  0  0  0  0  0  0  0  0
   -0.3617    0.1906   -1.8999 H   0  0  0  0  0  0  0  0  0  0  0  0
   -1.6151    1.6686   -1.0299 C   0  0  0  0  0  0  0  0  0  0  0  0
   -1.5698    3.0483   -0.9780 N   0  3  0  0  0  0  0  0  0  0  0  0
   -0.6976    3.5845   -0.9535 H   0  0  0  0  0  0  0  0  0  0  0  0
   -2.8298    3.5191   -1.0633 C   0  0  0  0  0  0  0  0  0  0  0  0
   -3.1103    4.5705   -1.0620 H   0  0  0  0  0  0  0  0  0  0  0  0
   -3.6740    2.4679   -1.1672 N   0  0  0  0  0  0  0  0  0  0  0  0
   -4.6858    2.5208   -1.2497 H   0  0  0  0  0  0  0  0  0  0  0  0
   -2.9275    1.2979   -1.1476 C   0  0  0  0  0  0  0  0  0  0  0  0
   -3.3023    0.2802   -1.2132 H   0  0  0  0  0  0  0  0  0  0  0  0
    0.0470    0.3465    1.5629 C   0  0  0  0  0  0  0  0  0  0  0  0
    1.1854    0.1365    1.9846 O   0  0  0  0  0  0  0  0  0  0  0  0
   -0.8551    1.0750    2.2320 N   0  0  0  0  0  0  0  0  0  0  0  0
   -1.7594    1.2031    1.8040 H   0  0  0  0  0  0  0  0  0  0  0  0
   -0.6356    1.6998    3.5400 C   0  0  0  0  0  0  0  0  0  0  0  0
   -0.4284    2.7647    3.4168 H   0  0  0  0  0  0  0  0  0  0  0  0
   -1.5268    1.5885    4.1601 H   0  0  0  0  0  0  0  0  0  0  0  0
    0.2072    1.2358    4.0566 H   0  0  0  0  0  0  0  0  0  0  0  0
  5  6  2  0  0  0  0
  5  7  1  0  0  0  0
  2  3  1  0  0  0  0
  2  4  1  0  0  0  0
  2  5  1  0  0  0  0
  1  2  1  0  0  0  0
 23 24  2  0  0  0  0
 23 25  1  0  0  0  0
 21 22  1  0  0  0  0
 19 20  1  0  0  0  0
 19 21  1  0  0  0  0
 17 18  1  0  0  0  0
 17 19  1  0  0  0  0
 15 16  1  0  0  0  0
 15 17  2  0  0  0  0
 14 15  1  0  0  0  0
 14 21  2  0  0  0  0
 11 12  1  0  0  0  0
 11 13  1  0  0  0  0
 11 14  1  0  0  0  0
  9 10  1  0  0  0  0
  9 11  1  0  0  0  0
  9 23  1  0  0  0  0
  7  8  1  0  0  0  0
  7  9  1  0  0  0  0
 27 28  1  0  0  0  0
 27 29  1  0  0  0  0
 27 30  1  0  0  0  0
 25 26  1  0  0  0  0
 25 27  1  0  0  0  0
M  CHG  1  15   1
M  END
$$$$
default_name
  -OEChem-02102213163D

 30 30  0     1  0  0  0  0  0999 V2000
   -3.5507   -3.2183    1.8116 H   0  0  0  0  0  0  0  0  0  0  0  0
   -3.4597   -2.3913    1.1076 C   0  0  0  0  0  0  0  0  0  0  0  0
   -4.1577   -1.6043    1.3866 H   0  0  0  0  0  0  0  0  0  0  0  0
   -3.6807   -2.7523    0.1036 H   0  0  0  0  0  0  0  0  0  0  0  0
   -2.0477   -1.8543    1.1546 C   0  0  0  0  0  0  0  0  0  0  0  0
   -1.2227   -2.3443    1.9146 O   0  0  0  0  0  0  0  0  0  0  0  0
   -1.7517   -0.8483    0.3266 N   0  0  0  0  0  0  0  0  0  0  0  0
   -2.4847   -0.5123   -0.2804 H   0  0  0  0  0  0  0  0  0  0  0  0
   -0.4117   -0.2463    0.2186 C   0  0  1  0  0  0  0  0  0  0  0  0
    0.2987   -1.0391   -0.0285 H   0  0  0  0  0  0  0  0  0  0  0  0
   -0.4131    0.7505   -0.9636 C   0  0  0  0  0  0  0  0  0  0  0  0
    0.4913    1.3614   -0.9051 H   0  0  0  0  0  0  0  0  0  0  0  0
   -0.3617    0.1906   -1.8999 H   0  0  0  0  0  0  0  0  0  0  0  0
   -1.6151    1.6686   -1.0299 C   0  0  0  0  0  0  0  0  0  0  0  0
   -1.5691    3.0280   -1.2716 N   0  3  0  0  0  0  0  0  0  0  0  0
   -0.7068    3.5334   -1.4944 H   0  0  0  0  0  0  0  0  0  0  0  0
   -2.8292    3.5061   -1.2549 C   0  0  0  0  0  0  0  0  0  0  0  0
   -3.1113    4.5429   -1.4269 H   0  0  0  0  0  0  0  0  0  0  0  0
   -3.6738    2.4797   -1.0068 N   0  0  0  0  0  0  0  0  0  0  0  0
   -4.6862    2.5427   -0.9398 H   0  0  0  0  0  0  0  0  0  0  0  0
   -2.9277    1.3182   -0.8627 C   0  0  0  0  0  0  0  0  0  0  0  0
   -3.3030    0.3195   -0.6576 H   0  0  0  0  0  0  0  0  0  0  0  0
    0.0470    0.3465    1.5629 C   0  0  0  0  0  0  0  0  0  0  0  0
    1.1854    0.1365    1.9846 O   0  0  0  0  0  0  0  0  0  0  0  0
   -0.8551    1.0750    2.2320 N   0  0  0  0  0  0  0  0  0  0  0  0
   -1.7594    1.2031    1.8040 H   0  0  0  0  0  0  0  0  0  0  0  0
   -0.6356    1.6998    3.5400 C   0  0  0  0  0  0  0  0  0  0  0  0
   -0.4284    2.7647    3.4168 H   0  0  0  0  0  0  0  0  0  0  0  0
   -1.5268    1.5885    4.1601 H   0  0  0  0  0  0  0  0  0  0  0  0
    0.2072    1.2358    4.0566 H   0  0  0  0  0  0  0  0  0  0  0  0
  5  6  2  0  0  0  0
  5  7  1  0  0  0  0
  2  3  1  0  0  0  0
  2  4  1  0  0  0  0
  2  5  1  0  0  0  0
  1  2  1  0  0  0  0
 23 24  2  0  0  0  0
 23 25  1  0  0  0  0
 21 22  1  0  0  0  0
 19 20  1  0  0  0  0
 19 21  1  0  0  0  0
 17 18  1  0  0  0  0
 17 19  1  0  0  0  0
 15 16  1  0  0  0  0
 15 17  2  0  0  0  0
 14 15  1  0  0  0  0
 14 21  2  0  0  0  0
 11 12  1  0  0  0  0
 11 13  1  0  0  0  0
 11 14  1  0  0  0  0
  9 10  1  0  0  0  0
  9 11  1  0  0  0  0
  9 23  1  0  0  0  0
  7  8  1  0  0  0  0
  7  9  1  0  0  0  0
 27 28  1  0  0  0  0
 27 29  1  0  0  0  0
 27 30  1  0  0  0  0
 25 26  1  0  0  0  0
 25 27  1  0  0  0  0
M  CHG  1  15   1
M  END
$$$$
default_name
  -OEChem-02102213163D

 30 30  0     1  0  0  0  0  0999 V2000
   -3.5507   -3.2183    1.8116 H   0  0  0  0  0  0  0  0  0  0  0  0
   -3.4597   -2.3913    1.1076 C   0  0  0  0  0  0  0  0  0  0  0  0
   -4.1577   -1.6043    1.3866 H   0  0  0  0  0  0  0  0  0  0  0  0
   -3.6807   -2.7523    0.1036 H   0  0  0  0  0  0  0  0  0  0  0  0
   -2.0477   -1.8543    1.1546 C   0  0  0  0  0  0  0  0  0  0  0  0
   -1.2227   -2.3443    1.9146 O   0  0  0  0  0  0  0  0  0  0  0  0
   -1.7517   -0.8483    0.3266 N   0  0  0  0  0  0  0  0  0  0  0  0
   -2.4847   -0.5123   -0.2804 H   0  0  0  0  0  0  0  0  0  0  0  0
   -0.4117   -0.2463    0.2186 C   0  0  1  0  0  0  0  0  0  0  0  0
    0.2987   -1.0391   -0.0285 H   0  0  0  0  0  0  0  0  0  0  0  0
   -0.4131    0.7505   -0.9636 C   0  0  0  0  0  0  0  0  0  0  0  0
    0.4913    1.3614   -0.9051 H   0  0  0  0  0  0  0  0  0  0  0  0
   -0.3617    0.1906   -1.8999 H   0  0  0  0  0  0  0  0  0  0  0  0
   -1.6151    1.6686   -1.0299 C   0  0  0  0  0  0  0  0  0  0  0  0
   -1.6148    2.9480   -1.5511 N   0  3  0  0  0  0  0  0  0  0  0  0
   -0.8012    3.3730   -2.0050 H   0  0  0  0  0  0  0  0  0  0  0  0
   -2.8588    3.4542   -1.4374 C   0  0  0  0  0  0  0  0  0  0  0  0
   -3.1698    4.4412   -1.7736 H   0  0  0  0  0  0  0  0  0  0  0  0
   -3.6483    2.5241   -0.8543 N   0  0  0  0  0  0  0  0  0  0  0  0
   -4.6377    2.6275   -0.6449 H   0  0  0  0  0  0  0  0  0  0  0  0
   -2.8829    1.3964   -0.5916 C   0  0  0  0  0  0  0  0  0  0  0  0
   -3.2160    0.4715   -0.1289 H   0  0  0  0  0  0  0  0  0  0  0  0
    0.0470    0.3465    1.5629 C   0  0  0  0  0  0  0  0  0  0  0  0
    1.1854    0.1365    1.9846 O   0  0  0  0  0  0  0  0  0  0  0  0
   -0.8551    1.0750    2.2320 N   0  0  0  0  0  0  0  0  0  0  0  0
   -1.7594    1.2031    1.8040 H   0  0  0  0  0  0  0  0  0  0  0  0
   -0.6356    1.6998    3.5400 C   0  0  0  0  0  0  0  0  0  0  0  0
   -0.4284    2.7647    3.4168 H   0  0  0  0  0  0  0  0  0  0  0  0
   -1.5268    1.5885    4.1601 H   0  0  0  0  0  0  0  0  0  0  0  0
    0.2072    1.2358    4.0566 H   0  0  0  0  0  0  0  0  0  0  0  0
  5  6  2  0  0  0  0
  5  7  1  0  0  0  0
  2  3  1  0  0  0  0
  2  4  1  0  0  0  0
  2  5  1  0  0  0  0
  1  2  1  0  0  0  0
 23 24  2  0  0  0  0
 23 25  1  0  0  0  0
 21 22  1  0  0  0  0
 19 20  1  0  0  0  0
 19 21  1  0  0  0  0
 17 18  1  0  0  0  0
 17 19  1  0  0  0  0
 15 16  1  0  0  0  0
 15 17  2  0  0  0  0
 14 15  1  0  0  0  0
 14 21  2  0  0  0  0
 11 12  1  0  0  0  0
 11 13  1  0  0  0  0
 11 14  1  0  0  0  0
  9 10  1  0  0  0  0
  9 11  1  0  0  0  0
  9 23  1  0  0  0  0
  7  8  1  0  0  0  0
  7  9  1  0  0  0  0
 27 28  1  0  0  0  0
 27 29  1  0  0  0  0
 27 30  1  0  0  0  0
 25 26  1  0  0  0  0
 25 27  1  0  0  0  0
M  CHG  1  15   1
M  END
$$$$
default_name
  -OEChem-02102213163D

 30 30  0     1  0  0  0  0  0999 V2000
   -3.5507   -3.2183    1.8116 H   0  0  0  0  0  0  0  0  0  0  0  0
   -3.4597   -2.3913    1.1076 C   0  0  0  0  0  0  0  0  0  0  0  0
   -4.1577   -1.6043    1.3866 H   0  0  0  0  0  0  0  0  0  0  0  0
   -3.6807   -2.7523    0.1036 H   0  0  0  0  0  0  0  0  0  0  0  0
   -2.0477   -1.8543    1.1546 C   0  0  0  0  0  0  0  0  0  0  0  0
   -1.2227   -2.3443    1.9146 O   0  0  0  0  0  0  0  0  0  0  0  0
   -1.7517   -0.8483    0.3266 N   0  0  0  0  0  0  0  0  0  0  0  0
   -2.4847   -0.5123   -0.2804 H   0  0  0  0  0  0  0  0  0  0  0  0
   -0.4117   -0.2463    0.2186 C   0  0  1  0  0  0  0  0  0  0  0  0
    0.2987   -1.0391   -0.0285 H   0  0  0  0  0  0  0  0  0  0  0  0
   -0.4131    0.7505   -0.9636 C   0  0  0  0  0  0  0  0  0  0  0  0
    0.4913    1.3614   -0.9051 H   0  0  0  0  0  0  0  0  0  0  0  0
   -0.3617    0.1906   -1.8999 H   0  0  0  0  0  0  0  0  0  0  0  0
   -1.6151    1.6686   -1.0299 C   0  0  0  0  0  0  0  0  0  0  0  0
   -1.7037    2.8138   -1.7975 N   0  3  0  0  0  0  0  0  0  0  0  0
   -0.9743    3.1142   -2.4504 H   0  0  0  0  0  0  0  0  0  0  0  0
   -2.9166    3.3668   -1.5984 C   0  0  0  0  0  0  0  0  0  0  0  0
   -3.2819    4.2725   -2.0784 H   0  0  0  0  0  0  0  0  0  0  0  0
   -3.5993    2.5980   -0.7202 N   0  0  0  0  0  0  0  0  0  0  0  0
   -4.5437    2.7694   -0.3851 H   0  0  0  0  0  0  0  0  0  0  0  0
   -2.7962    1.5271   -0.3529 C   0  0  0  0  0  0  0  0  0  0  0  0
   -3.0473    0.7260    0.3369 H   0  0  0  0  0  0  0  0  0  0  0  0
    0.0470    0.3465    1.5629 C   0  0  0  0  0  0  0  0  0  0  0  0
    1.1854    0.1365    1.9846 O   0  0  0  0  0  0  0  0  0  0  0  0
   -0.8551    1.0750    2.2320 N   0  0  0  0  0  0  0  0  0  0  0  0
   -1.7594    1.2031    1.8040 H   0  0  0  0  0  0  0  0  0  0  0  0
   -0.6356    1.6998    3.5400 C   0  0  0  0  0  0  0  0  0  0  0  0
   -0.4284    2.7647    3.4168 H   0  0  0  0  0  0  0  0  0  0  0  0
   -1.5268    1.5885    4.1601 H   0  0  0  0  0  0  0  0  0  0  0  0
    0.2072    1.2358    4.0566 H   0  0  0  0  0  0  0  0  0  0  0  0
  5  6  2  0  0  0  0
  5  7  1  0  0  0  0
  2  3  1  0  0  0  0
  2  4  1  0  0  0  0
  2  5  1  0  0  0  0
  1  2  1  0  0  0  0
 23 24  2  0  0  0  0
 23 25  1  0  0  0  0
 21 22  1  0  0  0  0
 19 20  1  0  0  0  0
 19 21  1  0  0  0  0
 17 18  1  0  0  0  0
 17 19  1  0  0  0  0
 15 16  1  0  0  0  0
 15 17  2  0  0  0  0
 14 15  1  0  0  0  0
 14 21  2  0  0  0  0
 11 12  1  0  0  0  0
 11 13  1  0  0  0  0
 11 14  1  0  0  0  0
  9 10  1  0  0  0  0
  9 11  1  0  0  0  0
  9 23  1  0  0  0  0
  7  8  1  0  0  0  0
  7  9  1  0  0  0  0
 27 28  1  0  0  0  0
 27 29  1  0  0  0  0
 27 30  1  0  0  0  0
 25 26  1  0  0  0  0
 25 27  1  0  0  0  0
M  CHG  1  15   1
M  END
$$$$
default_name
  -OEChem-02102213163D

 30 30  0     1  0  0  0  0  0999 V2000
   -3.5507   -3.2183    1.8116 H   0  0  0  0  0  0  0  0  0  0  0  0
   -3.4597   -2.3913    1.1076 C   0  0  0  0  0  0  0  0  0  0  0  0
   -4.1577   -1.6043    1.3866 H   0  0  0  0  0  0  0  0  0  0  0  0
   -3.6807   -2.7523    0.1036 H   0  0  0  0  0  0  0  0  0  0  0  0
   -2.0477   -1.8543    1.1546 C   0  0  0  0  0  0  0  0  0  0  0  0
   -1.2227   -2.3443    1.9146 O   0  0  0  0  0  0  0  0  0  0  0  0
   -1.7517   -0.8483    0.3266 N   0  0  0  0  0  0  0  0  0  0  0  0
   -2.4847   -0.5123   -0.2804 H   0  0  0  0  0  0  0  0  0  0  0  0
   -0.4117   -0.2463    0.2186 C   0  0  1  0  0  0  0  0  0  0  0  0
    0.2987   -1.0391   -0.0285 H   0  0  0  0  0  0  0  0  0  0  0  0
   -0.4131    0.7505   -0.9636 C   0  0  0  0  0  0  0  0  0  0  0  0
    0.5912    1.1692   -1.0672 H   0  0  0  0  0  0  0  0  0  0  0  0
   -0.6304    0.2071   -1.8857 H   0  0  0  0  0  0  0  0  0  0  0  0
   -1.4036    1.8893   -0.8441 C   0  0  0  0  0  0  0  0  0  0  0  0
   -1.5807    2.8944   -1.7751 N   0  3  0  0  0  0  0  0  0  0  0  0
   -1.0929    2.9234   -2.6751 H   0  0  0  0  0  0  0  0  0  0  0  0
   -2.5434    3.7246   -1.3273 C   0  0  0  0  0  0  0  0  0  0  0  0
   -2.9107    4.6039   -1.8526 H   0  0  0  0  0  0  0  0  0  0  0  0
   -2.9804    3.2686   -0.1316 N   0  0  0  0  0  0  0  0  0  0  0  0
   -3.7061    3.6929    0.4400 H   0  0  0  0  0  0  0  0  0  0  0  0
   -2.2748    2.1166    0.1868 C   0  0  0  0  0  0  0  0  0  0  0  0
   -2.3854    1.5058    1.0785 H   0  0  0  0  0  0  0  0  0  0  0  0
    0.0470    0.3465    1.5629 C   0  0  0  0  0  0  0  0  0  0  0  0
    1.1854    0.1365    1.9846 O   0  0  0  0  0  0  0  0  0  0  0  0
   -0.8551    1.0750    2.2320 N   0  0  0  0  0  0  0  0  0  0  0  0
   -1.7594    1.2031    1.8040 H   0  0  0  0  0  0  0  0  0  0  0  0
   -0.6356    1.6998    3.5400 C   0  0  0  0  0  0  0  0  0  0  0  0
   -0.4284    2.7647    3.4168 H   0  0  0  0  0  0  0  0  0  0  0  0
   -1.5268    1.5885    4.1601 H   0  0  0  0  0  0  0  0  0  0  0  0
    0.2072    1.2358    4.0566 H   0  0  0  0  0  0  0  0  0  0  0  0
  5  6  2  0  0  0  0
  5  7  1  0  0  0  0
  2  3  1  0  0  0  0
  2  4  1  0  0  0  0
  2  5  1  0  0  0  0
  1  2  1  0  0  0  0
 23 24  2  0  0  0  0
 23 25  1  0  0  0  0
 21 22  1  0  0  0  0
 19 20  1  0  0  0  0
 19 21  1  0  0  0  0
 17 18  1  0  0  0  0
 17 19  1  0  0  0  0
 15 16  1  0  0  0  0
 15 17  2  0  0  0  0
 14 15  1  0  0  0  0
 14 21  2  0  0  0  0
 11 12  1  0  0  0  0
 11 13  1  0  0  0  0
 11 14  1  0  0  0  0
  9 10  1  0  0  0  0
  9 11  1  0  0  0  0
  9 23  1  0  0  0  0
  7  8  1  0  0  0  0
  7  9  1  0  0  0  0
 27 28  1  0  0  0  0
 27 29  1  0  0  0  0
 27 30  1  0  0  0  0
 25 26  1  0  0  0  0
 25 27  1  0  0  0  0
M  CHG  1  15   1
M  END
$$$$
default_name
  -OEChem-02102213163D

 30 30  0     1  0  0  0  0  0999 V2000
   -3.5507   -3.2183    1.8116 H   0  0  0  0  0  0  0  0  0  0  0  0
   -3.4597   -2.3913    1.1076 C   0  0  0  0  0  0  0  0  0  0  0  0
   -4.1577   -1.6043    1.3866 H   0  0  0  0  0  0  0  0  0  0  0  0
   -3.6807   -2.7523    0.1036 H   0  0  0  0  0  0  0  0  0  0  0  0
   -2.0477   -1.8543    1.1546 C   0  0  0  0  0  0  0  0  0  0  0  0
   -1.2227   -2.3443    1.9146 O   0  0  0  0  0  0  0  0  0  0  0  0
   -1.7517   -0.8483    0.3266 N   0  0  0  0  0  0  0  0  0  0  0  0
   -2.4847   -0.5123   -0.2804 H   0  0  0  0  0  0  0  0  0  0  0  0
   -0.4117   -0.2463    0.2186 C   0  0  1  0  0  0  0  0  0  0  0  0
    0.2987   -1.0391   -0.0285 H   0  0  0  0  0  0  0  0  0  0  0  0
   -0.4131    0.7505   -0.9636 C   0  0  0  0  0  0  0  0  0  0  0  0
    0.5912    1.1692   -1.0672 H   0  0  0  0  0  0  0  0  0  0  0  0
   -0.6304    0.2071   -1.8857 H   0  0  0  0  0  0  0  0  0  0  0  0
   -1.4036    1.8893   -0.8441 C   0  0  0  0  0  0  0  0  0  0  0  0
   -1.7942    2.7194   -1.8769 N   0  3  0  0  0  0  0  0  0  0  0  0
   -1.4907    2.5955   -2.8471 H   0  0  0  0  0  0  0  0  0  0  0  0
   -2.6827    3.6105   -1.3941 C   0  0  0  0  0  0  0  0  0  0  0  0
   -3.1769    4.3854   -1.9765 H   0  0  0  0  0  0  0  0  0  0  0  0
   -2.8635    3.3645   -0.0768 N   0  0  0  0  0  0  0  0  0  0  0  0
   -3.4806    3.8778    0.5471 H   0  0  0  0  0  0  0  0  0  0  0  0
   -2.0674    2.2867    0.2850 C   0  0  0  0  0  0  0  0  0  0  0  0
   -1.9811    1.8373    1.2704 H   0  0  0  0  0  0  0  0  0  0  0  0
    0.0470    0.3465    1.5629 C   0  0  0  0  0  0  0  0  0  0  0  0
    1.1854    0.1365    1.9846 O   0  0  0  0  0  0  0  0  0  0  0  0
   -0.8551    1.0750    2.2320 N   0  0  0  0  0  0  0  0  0  0  0  0
   -1.7594    1.2031    1.8040 H   0  0  0  0  0  0  0  0  0  0  0  0
   -0.6356    1.6998    3.5400 C   0  0  0  0  0  0  0  0  0  0  0  0
   -0.4284    2.7647    3.4168 H   0  0  0  0  0  0  0  0  0  0  0  0
   -1.5268    1.5885    4.1601 H   0  0  0  0  0  0  0  0  0  0  0  0
    0.2072    1.2358    4.0566 H   0  0  0  0  0  0  0  0  0  0  0  0
  5  6  2  0  0  0  0
  5  7  1  0  0  0  0
  2  3  1  0  0  0  0
  2  4  1  0  0  0  0
  2  5  1  0  0  0  0
  1  2  1  0  0  0  0
 23 24  2  0  0  0  0
 23 25  1  0  0  0  0
 21 22  1  0  0  0  0
 19 20  1  0  0  0  0
 19 21  1  0  0  0  0
 17 18  1  0  0  0  0
 17 19  1  0  0  0  0
 15 16  1  0  0  0  0
 15 17  2  0  0  0  0
 14 15  1  0  0  0  0
 14 21  2  0  0  0  0
 11 12  1  0  0  0  0
 11 13  1  0  0  0  0
 11 14  1  0  0  0  0
  9 10  1  0  0  0  0
  9 11  1  0  0  0  0
  9 23  1  0  0  0  0
  7  8  1  0  0  0  0
  7  9  1  0  0  0  0
 27 28  1  0  0  0  0
 27 29  1  0  0  0  0
 27 30  1  0  0  0  0
 25 26  1  0  0  0  0
 25 27  1  0  0  0  0
M  CHG  1  15   1
M  END
$$$$
default_name
  -OEChem-02102213163D

 30 30  0     1  0  0  0  0  0999 V2000
   -3.5507   -3.2183    1.8116 H   0  0  0  0  0  0  0  0  0  0  0  0
   -3.4597   -2.3913    1.1076 C   0  0  0  0  0  0  0  0  0  0  0  0
   -4.1577   -1.6043    1.3866 H   0  0  0  0  0  0  0  0  0  0  0  0
   -3.6807   -2.7523    0.1036 H   0  0  0  0  0  0  0  0  0  0  0  0
   -2.0477   -1.8543    1.1546 C   0  0  0  0  0  0  0  0  0  0  0  0
   -1.2227   -2.3443    1.9146 O   0  0  0  0  0  0  0  0  0  0  0  0
   -1.7517   -0.8483    0.3266 N   0  0  0  0  0  0  0  0  0  0  0  0
   -2.4847   -0.5123   -0.2804 H   0  0  0  0  0  0  0  0  0  0  0  0
   -0.4117   -0.2463    0.2186 C   0  0  1  0  0  0  0  0  0  0  0  0
    0.2987   -1.0391   -0.0285 H   0  0  0  0  0  0  0  0  0  0  0  0
   -0.4131    0.7505   -0.9636 C   0  0  0  0  0  0  0  0  0  0  0  0
    0.5912    1.1692   -1.0672 H   0  0  0  0  0  0  0  0  0  0  0  0
   -0.6304    0.2071   -1.8857 H   0  0  0  0  0  0  0  0  0  0  0  0
   -1.4036    1.8893   -0.8441 C   0  0  0  0  0  0  0  0  0  0  0  0
   -2.0167    2.5287   -1.9041 N   0  3  0  0  0  0  0  0  0  0  0  0
   -1.9017    2.2415   -2.8803 H   0  0  0  0  0  0  0  0  0  0  0  0
   -2.8279    3.4861   -1.4121 C   0  0  0  0  0  0  0  0  0  0  0  0
   -3.4537    4.1479   -2.0075 H   0  0  0  0  0  0  0  0  0  0  0  0
   -2.7419    3.4688   -0.0628 N   0  0  0  0  0  0  0  0  0  0  0  0
   -3.2458    4.0792    0.5753 H   0  0  0  0  0  0  0  0  0  0  0  0
   -1.8514    2.4718    0.3107 C   0  0  0  0  0  0  0  0  0  0  0  0
   -1.5600    2.1982    1.3210 H   0  0  0  0  0  0  0  0  0  0  0  0
    0.0470    0.3465    1.5629 C   0  0  0  0  0  0  0  0  0  0  0  0
    1.1854    0.1365    1.9846 O   0  0  0  0  0  0  0  0  0  0  0  0
   -0.8551    1.0750    2.2320 N   0  0  0  0  0  0  0  0  0  0  0  0
   -1.7594    1.2031    1.8040 H   0  0  0  0  0  0  0  0  0  0  0  0
   -0.6356    1.6998    3.5400 C   0  0  0  0  0  0  0  0  0  0  0  0
   -0.4284    2.7647    3.4168 H   0  0  0  0  0  0  0  0  0  0  0  0
   -1.5268    1.5885    4.1601 H   0  0  0  0  0  0  0  0  0  0  0  0
    0.2072    1.2358    4.0566 H   0  0  0  0  0  0  0  0  0  0  0  0
  5  6  2  0  0  0  0
  5  7  1  0  0  0  0
  2  3  1  0  0  0  0
  2  4  1  0  0  0  0
  2  5  1  0  0  0  0
  1  2  1  0  0  0  0
 23 24  2  0  0  0  0
 23 25  1  0  0  0  0
 21 22  1  0  0  0  0
 19 20  1  0  0  0  0
 19 21  1  0  0  0  0
 17 18  1  0  0  0  0
 17 19  1  0  0  0  0
 15 16  1  0  0  0  0
 15 17  2  0  0  0  0
 14 15  1  0  0  0  0
 14 21  2  0  0  0  0
 11 12  1  0  0  0  0
 11 13  1  0  0  0  0
 11 14  1  0  0  0  0
  9 10  1  0  0  0  0
  9 11  1  0  0  0  0
  9 23  1  0  0  0  0
  7  8  1  0  0  0  0
  7  9  1  0  0  0  0
 27 28  1  0  0  0  0
 27 29  1  0  0  0  0
 27 30  1  0  0  0  0
 25 26  1  0  0  0  0
 25 27  1  0  0  0  0
M  CHG  1  15   1
M  END
$$$$
default_name
  -OEChem-02102213163D

 30 30  0     1  0  0  0  0  0999 V2000
   -3.5507   -3.2183    1.8116 H   0  0  0  0  0  0  0  0  0  0  0  0
   -3.4597   -2.3913    1.1076 C   0  0  0  0  0  0  0  0  0  0  0  0
   -4.1577   -1.6043    1.3866 H   0  0  0  0  0  0  0  0  0  0  0  0
   -3.6807   -2.7523    0.1036 H   0  0  0  0  0  0  0  0  0  0  0  0
   -2.0477   -1.8543    1.1546 C   0  0  0  0  0  0  0  0  0  0  0  0
   -1.2227   -2.3443    1.9146 O   0  0  0  0  0  0  0  0  0  0  0  0
   -1.7517   -0.8483    0.3266 N   0  0  0  0  0  0  0  0  0  0  0  0
   -2.4847   -0.5123   -0.2804 H   0  0  0  0  0  0  0  0  0  0  0  0
   -0.4117   -0.2463    0.2186 C   0  0  1  0  0  0  0  0  0  0  0  0
    0.2987   -1.0391   -0.0285 H   0  0  0  0  0  0  0  0  0  0  0  0
   -0.4131    0.7505   -0.9636 C   0  0  0  0  0  0  0  0  0  0  0  0
    0.5912    1.1692   -1.0672 H   0  0  0  0  0  0  0  0  0  0  0  0
   -0.6304    0.2071   -1.8857 H   0  0  0  0  0  0  0  0  0  0  0  0
   -1.4036    1.8893   -0.8441 C   0  0  0  0  0  0  0  0  0  0  0  0
   -2.2331    2.3353   -1.8547 N   0  3  0  0  0  0  0  0  0  0  0  0
   -2.2979    1.8855   -2.7724 H   0  0  0  0  0  0  0  0  0  0  0  0
   -2.9691    3.3599   -1.3802 C   0  0  0  0  0  0  0  0  0  0  0  0
   -3.7222    3.9077   -1.9432 H   0  0  0  0  0  0  0  0  0  0  0  0
   -2.6239    3.5744   -0.0906 N   0  0  0  0  0  0  0  0  0  0  0  0
   -3.0175    4.2832    0.5228 H   0  0  0  0  0  0  0  0  0  0  0  0
   -1.6415    2.6594    0.2621 C   0  0  0  0  0  0  0  0  0  0  0  0
   -1.1507    2.5641    1.2267 H   0  0  0  0  0  0  0  0  0  0  0  0
    0.0470    0.3465    1.5629 C   0  0  0  0  0  0  0  0  0  0  0  0
    1.1854    0.1365    1.9846 O   0  0  0  0  0  0  0  0  0  0  0  0
   -0.8551    1.0750    2.2320 N   0  0  0  0  0  0  0  0  0  0  0  0
   -1.7594    1.2031    1.8040 H   0  0  0  0  0  0  0  0  0  0  0  0
   -0.6356    1.6998    3.5400 C   0  0  0  0  0  0  0  0  0  0  0  0
   -0.4284    2.7647    3.4168 H   0  0  0  0  0  0  0  0  0  0  0  0
   -1.5268    1.5885    4.1601 H   0  0  0  0  0  0  0  0  0  0  0  0
    0.2072    1.2358    4.0566 H   0  0  0  0  0  0  0  0  0  0  0  0
  5  6  2  0  0  0  0
  5  7  1  0  0  0  0
  2  3  1  0  0  0  0
  2  4  1  0  0  0  0
  2  5  1  0  0  0  0
  1  2  1  0  0  0  0
 23 24  2  0  0  0  0
 23 25  1  0  0  0  0
 21 22  1  0  0  0  0
 19 20  1  0  0  0  0
 19 21  1  0  0  0  0
 17 18  1  0  0  0  0
 17 19  1  0  0  0  0
 15 16  1  0  0  0  0
 15 17  2  0  0  0  0
 14 15  1  0  0  0  0
 14 21  2  0  0  0  0
 11 12  1  0  0  0  0
 11 13  1  0  0  0  0
 11 14  1  0  0  0  0
  9 10  1  0  0  0  0
  9 11  1  0  0  0  0
  9 23  1  0  0  0  0
  7  8  1  0  0  0  0
  7  9  1  0  0  0  0
 27 28  1  0  0  0  0
 27 29  1  0  0  0  0
 27 30  1  0  0  0  0
 25 26  1  0  0  0  0
 25 27  1  0  0  0  0
M  CHG  1  15   1
M  END
$$$$
default_name
  -OEChem-02102213163D

 30 30  0     1  0  0  0  0  0999 V2000
   -3.5507   -3.2183    1.8116 H   0  0  0  0  0  0  0  0  0  0  0  0
   -3.4597   -2.3913    1.1076 C   0  0  0  0  0  0  0  0  0  0  0  0
   -4.1577   -1.6043    1.3866 H   0  0  0  0  0  0  0  0  0  0  0  0
   -3.6807   -2.7523    0.1036 H   0  0  0  0  0  0  0  0  0  0  0  0
   -2.0477   -1.8543    1.1546 C   0  0  0  0  0  0  0  0  0  0  0  0
   -1.2227   -2.3443    1.9146 O   0  0  0  0  0  0  0  0  0  0  0  0
   -1.7517   -0.8483    0.3266 N   0  0  0  0  0  0  0  0  0  0  0  0
   -2.4847   -0.5123   -0.2804 H   0  0  0  0  0  0  0  0  0  0  0  0
   -0.4117   -0.2463    0.2186 C   0  0  1  0  0  0  0  0  0  0  0  0
    0.2987   -1.0391   -0.0285 H   0  0  0  0  0  0  0  0  0  0  0  0
   -0.4131    0.7505   -0.9636 C   0  0  0  0  0  0  0  0  0  0  0  0
    0.5912    1.1692   -1.0672 H   0  0  0  0  0  0  0  0  0  0  0  0
   -0.6304    0.2071   -1.8857 H   0  0  0  0  0  0  0  0  0  0  0  0
   -1.4036    1.8893   -0.8441 C   0  0  0  0  0  0  0  0  0  0  0  0
   -2.4285    2.1525   -1.7322 N   0  3  0  0  0  0  0  0  0  0  0  0
   -2.6523    1.5519   -2.5308 H   0  0  0  0  0  0  0  0  0  0  0  0
   -3.0967    3.2405   -1.3006 C   0  0  0  0  0  0  0  0  0  0  0  0
   -3.9641    3.6810   -1.7882 H   0  0  0  0  0  0  0  0  0  0  0  0
   -2.5174    3.6741   -0.1583 N   0  0  0  0  0  0  0  0  0  0  0  0
   -2.8114    4.4761    0.3930 H   0  0  0  0  0  0  0  0  0  0  0  0
   -1.4522    2.8367    0.1425 C   0  0  0  0  0  0  0  0  0  0  0  0
   -0.7813    2.9098    0.9940 H   0  0  0  0  0  0  0  0  0  0  0  0
    0.0470    0.3465    1.5629 C   0  0  0  0  0  0  0  0  0  0  0  0
    1.1854    0.1365    1.9846 O   0  0  0  0  0  0  0  0  0  0  0  0
   -0.8551    1.0750    2.2320 N   0  0  0  0  0  0  0  0  0  0  0  0
   -1.7594    1.2031    1.8040 H   0  0  0  0  0  0  0  0  0  0  0  0
   -0.6356    1.6998    3.5400 C   0  0  0  0  0  0  0  0  0  0  0  0
   -0.4284    2.7647    3.4168 H   0  0  0  0  0  0  0  0  0  0  0  0
   -1.5268    1.5885    4.1601 H   0  0  0  0  0  0  0  0  0  0  0  0
    0.2072    1.2358    4.0566 H   0  0  0  0  0  0  0  0  0  0  0  0
  5  6  2  0  0  0  0
  5  7  1  0  0  0  0
  2  3  1  0  0  0  0
  2  4  1  0  0  0  0
  2  5  1  0  0  0  0
  1  2  1  0  0  0  0
 23 24  2  0  0  0  0
 23 25  1  0  0  0  0
 21 22  1  0  0  0  0
 19 20  1  0  0  0  0
 19 21  1  0  0  0  0
 17 18  1  0  0  0  0
 17 19  1  0  0  0  0
 15 16  1  0  0  0  0
 15 17  2  0  0  0  0
 14 15  1  0  0  0  0
 14 21  2  0  0  0  0
 11 12  1  0  0  0  0
 11 13  1  0  0  0  0
 11 14  1  0  0  0  0
  9 10  1  0  0  0  0
  9 11  1  0  0  0  0
  9 23  1  0  0  0  0
  7  8  1  0  0  0  0
  7  9  1  0  0  0  0
 27 28  1  0  0  0  0
 27 29  1  0  0  0  0
 27 30  1  0  0  0  0
 25 26  1  0  0  0  0
 25 27  1  0  0  0  0
M  CHG  1  15   1
M  END
$$$$
default_name
  -OEChem-02102213163D

 30 30  0     1  0  0  0  0  0999 V2000
   -3.5507   -3.2183    1.8116 H   0  0  0  0  0  0  0  0  0  0  0  0
   -3.4597   -2.3913    1.1076 C   0  0  0  0  0  0  0  0  0  0  0  0
   -4.1577   -1.6043    1.3866 H   0  0  0  0  0  0  0  0  0  0  0  0
   -3.6807   -2.7523    0.1036 H   0  0  0  0  0  0  0  0  0  0  0  0
   -2.0477   -1.8543    1.1546 C   0  0  0  0  0  0  0  0  0  0  0  0
   -1.2227   -2.3443    1.9146 O   0  0  0  0  0  0  0  0  0  0  0  0
   -1.7517   -0.8483    0.3266 N   0  0  0  0  0  0  0  0  0  0  0  0
   -2.4847   -0.5123   -0.2804 H   0  0  0  0  0  0  0  0  0  0  0  0
   -0.4117   -0.2463    0.2186 C   0  0  1  0  0  0  0  0  0  0  0  0
    0.2987   -1.0391   -0.0285 H   0  0  0  0  0  0  0  0  0  0  0  0
   -0.4131    0.7505   -0.9636 C   0  0  0  0  0  0  0  0  0  0  0  0
    0.5912    1.1692   -1.0672 H   0  0  0  0  0  0  0  0  0  0  0  0
   -0.6304    0.2071   -1.8857 H   0  0  0  0  0  0  0  0  0  0  0  0
   -1.4036    1.8893   -0.8441 C   0  0  0  0  0  0  0  0  0  0  0  0
   -2.5896    1.9927   -1.5448 N   0  3  0  0  0  0  0  0  0  0  0  0
   -2.9408    1.2633   -2.1720 H   0  0  0  0  0  0  0  0  0  0  0  0
   -3.2021    3.1361   -1.1786 C   0  0  0  0  0  0  0  0  0  0  0  0
   -4.1630    3.4833   -1.5530 H   0  0  0  0  0  0  0  0  0  0  0  0
   -2.4298    3.7611   -0.2613 N   0  0  0  0  0  0  0  0  0  0  0  0
   -2.6415    4.6446    0.1949 H   0  0  0  0  0  0  0  0  0  0  0  0
   -1.2961    2.9916   -0.0398 C   0  0  0  0  0  0  0  0  0  0  0  0
   -0.4768    3.2120    0.6388 H   0  0  0  0  0  0  0  0  0  0  0  0
    0.0470    0.3465    1.5629 C   0  0  0  0  0  0  0  0  0  0  0  0
    1.1854    0.1365    1.9846 O   0  0  0  0  0  0  0  0  0  0  0  0
   -0.8551    1.0750    2.2320 N   0  0  0  0  0  0  0  0  0  0  0  0
   -1.7594    1.2031    1.8040 H   0  0  0  0  0  0  0  0  0  0  0  0
   -0.6356    1.6998    3.5400 C   0  0  0  0  0  0  0  0  0  0  0  0
   -0.4284    2.7647    3.4168 H   0  0  0  0  0  0  0  0  0  0  0  0
   -1.5268    1.5885    4.1601 H   0  0  0  0  0  0  0  0  0  0  0  0
    0.2072    1.2358    4.0566 H   0  0  0  0  0  0  0  0  0  0  0  0
  5  6  2  0  0  0  0
  5  7  1  0  0  0  0
  2  3  1  0  0  0  0
  2  4  1  0  0  0  0
  2  5  1  0  0  0  0
  1  2  1  0  0  0  0
 23 24  2  0  0  0  0
 23 25  1  0  0  0  0
 21 22  1  0  0  0  0
 19 20  1  0  0  0  0
 19 21  1  0  0  0  0
 17 18  1  0  0  0  0
 17 19  1  0  0  0  0
 15 16  1  0  0  0  0
 15 17  2  0  0  0  0
 14 15  1  0  0  0  0
 14 21  2  0  0  0  0
 11 12  1  0  0  0  0
 11 13  1  0  0  0  0
 11 14  1  0  0  0  0
  9 10  1  0  0  0  0
  9 11  1  0  0  0  0
  9 23  1  0  0  0  0
  7  8  1  0  0  0  0
  7  9  1  0  0  0  0
 27 28  1  0  0  0  0
 27 29  1  0  0  0  0
 27 30  1  0  0  0  0
 25 26  1  0  0  0  0
 25 27  1  0  0  0  0
M  CHG  1  15   1
M  END
$$$$
default_name
  -OEChem-02102213163D

 30 30  0     1  0  0  0  0  0999 V2000
   -3.5507   -3.2183    1.8116 H   0  0  0  0  0  0  0  0  0  0  0  0
   -3.4597   -2.3913    1.1076 C   0  0  0  0  0  0  0  0  0  0  0  0
   -4.1577   -1.6043    1.3866 H   0  0  0  0  0  0  0  0  0  0  0  0
   -3.6807   -2.7523    0.1036 H   0  0  0  0  0  0  0  0  0  0  0  0
   -2.0477   -1.8543    1.1546 C   0  0  0  0  0  0  0  0  0  0  0  0
   -1.2227   -2.3443    1.9146 O   0  0  0  0  0  0  0  0  0  0  0  0
   -1.7517   -0.8483    0.3266 N   0  0  0  0  0  0  0  0  0  0  0  0
   -2.4847   -0.5123   -0.2804 H   0  0  0  0  0  0  0  0  0  0  0  0
   -0.4117   -0.2463    0.2186 C   0  0  1  0  0  0  0  0  0  0  0  0
    0.2987   -1.0391   -0.0285 H   0  0  0  0  0  0  0  0  0  0  0  0
   -0.4131    0.7505   -0.9636 C   0  0  0  0  0  0  0  0  0  0  0  0
    0.5912    1.1692   -1.0672 H   0  0  0  0  0  0  0  0  0  0  0  0
   -0.6304    0.2071   -1.8857 H   0  0  0  0  0  0  0  0  0  0  0  0
   -1.4036    1.8893   -0.8441 C   0  0  0  0  0  0  0  0  0  0  0  0
   -2.7055    1.8668   -1.3054 N   0  3  0  0  0  0  0  0  0  0  0  0
   -3.1437    1.0394   -1.7203 H   0  0  0  0  0  0  0  0  0  0  0  0
   -3.2779    3.0538   -1.0226 C   0  0  0  0  0  0  0  0  0  0  0  0
   -4.3053    3.3281   -1.2536 H   0  0  0  0  0  0  0  0  0  0  0  0
   -2.3670    3.8295   -0.3926 N   0  0  0  0  0  0  0  0  0  0  0  0
   -2.5195    4.7773   -0.0581 H   0  0  0  0  0  0  0  0  0  0  0  0
   -1.1841    3.1135   -0.2726 C   0  0  0  0  0  0  0  0  0  0  0  0
   -0.2579    3.4499    0.1852 H   0  0  0  0  0  0  0  0  0  0  0  0
    0.0470    0.3465    1.5629 C   0  0  0  0  0  0  0  0  0  0  0  0
    1.1854    0.1365    1.9846 O   0  0  0  0  0  0  0  0  0  0  0  0
   -0.8551    1.0750    2.2320 N   0  0  0  0  0  0  0  0  0  0  0  0
   -1.7594    1.2031    1.8040 H   0  0  0  0  0  0  0  0  0  0  0  0
   -0.6356    1.6998    3.5400 C   0  0  0  0  0  0  0  0  0  0  0  0
   -0.4284    2.7647    3.4168 H   0  0  0  0  0  0  0  0  0  0  0  0
   -1.5268    1.5885    4.1601 H   0  0  0  0  0  0  0  0  0  0  0  0
    0.2072    1.2358    4.0566 H   0  0  0  0  0  0  0  0  0  0  0  0
  5  6  2  0  0  0  0
  5  7  1  0  0  0  0
  2  3  1  0  0  0  0
  2  4  1  0  0  0  0
  2  5  1  0  0  0  0
  1  2  1  0  0  0  0
 23 24  2  0  0  0  0
 23 25  1  0  0  0  0
 21 22  1  0  0  0  0
 19 20  1  0  0  0  0
 19 21  1  0  0  0  0
 17 18  1  0  0  0  0
 17 19  1  0  0  0  0
 15 16  1  0  0  0  0
 15 17  2  0  0  0  0
 14 15  1  0  0  0  0
 14 21  2  0  0  0  0
 11 12  1  0  0  0  0
 11 13  1  0  0  0  0
 11 14  1  0  0  0  0
  9 10  1  0  0  0  0
  9 11  1  0  0  0  0
  9 23  1  0  0  0  0
  7  8  1  0  0  0  0
  7  9  1  0  0  0  0
 27 28  1  0  0  0  0
 27 29  1  0  0  0  0
 27 30  1  0  0  0  0
 25 26  1  0  0  0  0
 25 27  1  0  0  0  0
M  CHG  1  15   1
M  END
$$$$
default_name
  -OEChem-02102213163D

 30 30  0     1  0  0  0  0  0999 V2000
   -3.5507   -3.2183    1.8116 H   0  0  0  0  0  0  0  0  0  0  0  0
   -3.4597   -2.3913    1.1076 C   0  0  0  0  0  0  0  0  0  0  0  0
   -4.1577   -1.6043    1.3866 H   0  0  0  0  0  0  0  0  0  0  0  0
   -3.6807   -2.7523    0.1036 H   0  0  0  0  0  0  0  0  0  0  0  0
   -2.0477   -1.8543    1.1546 C   0  0  0  0  0  0  0  0  0  0  0  0
   -1.2227   -2.3443    1.9146 O   0  0  0  0  0  0  0  0  0  0  0  0
   -1.7517   -0.8483    0.3266 N   0  0  0  0  0  0  0  0  0  0  0  0
   -2.4847   -0.5123   -0.2804 H   0  0  0  0  0  0  0  0  0  0  0  0
   -0.4117   -0.2463    0.2186 C   0  0  1  0  0  0  0  0  0  0  0  0
    0.2987   -1.0391   -0.0285 H   0  0  0  0  0  0  0  0  0  0  0  0
   -0.4131    0.7505   -0.9636 C   0  0  0  0  0  0  0  0  0  0  0  0
    0.5912    1.1692   -1.0672 H   0  0  0  0  0  0  0  0  0  0  0  0
   -0.6304    0.2071   -1.8857 H   0  0  0  0  0  0  0  0  0  0  0  0
   -1.4036    1.8893   -0.8441 C   0  0  0  0  0  0  0  0  0  0  0  0
   -2.7683    1.7833   -1.0303 N   0  3  0  0  0  0  0  0  0  0  0  0
   -3.2472    0.8954   -1.2066 H   0  0  0  0  0  0  0  0  0  0  0  0
   -3.3192    2.9991   -0.8431 C   0  0  0  0  0  0  0  0  0  0  0  0
   -4.3812    3.2260   -0.9105 H   0  0  0  0  0  0  0  0  0  0  0  0
   -2.3333    3.8747   -0.5433 N   0  0  0  0  0  0  0  0  0  0  0  0
   -2.4535    4.8652   -0.3487 H   0  0  0  0  0  0  0  0  0  0  0  0
   -1.1236    3.1941   -0.5399 C   0  0  0  0  0  0  0  0  0  0  0  0
   -0.1398    3.6074   -0.3357 H   0  0  0  0  0  0  0  0  0  0  0  0
    0.0470    0.3465    1.5629 C   0  0  0  0  0  0  0  0  0  0  0  0
    1.1854    0.1365    1.9846 O   0  0  0  0  0  0  0  0  0  0  0  0
   -0.8551    1.0750    2.2320 N   0  0  0  0  0  0  0  0  0  0  0  0
   -1.7594    1.2031    1.8040 H   0  0  0  0  0  0  0  0  0  0  0  0
   -0.6356    1.6998    3.5400 C   0  0  0  0  0  0  0  0  0  0  0  0
   -0.4284    2.7647    3.4168 H   0  0  0  0  0  0  0  0  0  0  0  0
   -1.5268    1.5885    4.1601 H   0  0  0  0  0  0  0  0  0  0  0  0
    0.2072    1.2358    4.0566 H   0  0  0  0  0  0  0  0  0  0  0  0
  5  6  2  0  0  0  0
  5  7  1  0  0  0  0
  2  3  1  0  0  0  0
  2  4  1  0  0  0  0
  2  5  1  0  0  0  0
  1  2  1  0  0  0  0
 23 24  2  0  0  0  0
 23 25  1  0  0  0  0
 21 22  1  0  0  0  0
 19 20  1  0  0  0  0
 19 21  1  0  0  0  0
 17 18  1  0  0  0  0
 17 19  1  0  0  0  0
 15 16  1  0  0  0  0
 15 17  2  0  0  0  0
 14 15  1  0  0  0  0
 14 21  2  0  0  0  0
 11 12  1  0  0  0  0
 11 13  1  0  0  0  0
 11 14  1  0  0  0  0
  9 10  1  0  0  0  0
  9 11  1  0  0  0  0
  9 23  1  0  0  0  0
  7  8  1  0  0  0  0
  7  9  1  0  0  0  0
 27 28  1  0  0  0  0
 27 29  1  0  0  0  0
 27 30  1  0  0  0  0
 25 26  1  0  0  0  0
 25 27  1  0  0  0  0
M  CHG  1  15   1
M  END
$$$$
default_name
  -OEChem-02102213163D

 30 30  0     1  0  0  0  0  0999 V2000
   -3.5507   -3.2183    1.8116 H   0  0  0  0  0  0  0  0  0  0  0  0
   -3.4597   -2.3913    1.1076 C   0  0  0  0  0  0  0  0  0  0  0  0
   -4.1577   -1.6043    1.3866 H   0  0  0  0  0  0  0  0  0  0  0  0
   -3.6807   -2.7523    0.1036 H   0  0  0  0  0  0  0  0  0  0  0  0
   -2.0477   -1.8543    1.1546 C   0  0  0  0  0  0  0  0  0  0  0  0
   -1.2227   -2.3443    1.9146 O   0  0  0  0  0  0  0  0  0  0  0  0
   -1.7517   -0.8483    0.3266 N   0  0  0  0  0  0  0  0  0  0  0  0
   -2.4847   -0.5123   -0.2804 H   0  0  0  0  0  0  0  0  0  0  0  0
   -0.4117   -0.2463    0.2186 C   0  0  1  0  0  0  0  0  0  0  0  0
    0.2987   -1.0391   -0.0285 H   0  0  0  0  0  0  0  0  0  0  0  0
   -0.4131    0.7505   -0.9636 C   0  0  0  0  0  0  0  0  0  0  0  0
    0.5912    1.1692   -1.0672 H   0  0  0  0  0  0  0  0  0  0  0  0
   -0.6304    0.2071   -1.8857 H   0  0  0  0  0  0  0  0  0  0  0  0
   -1.4036    1.8893   -0.8441 C   0  0  0  0  0  0  0  0  0  0  0  0
   -2.7737    1.7479   -0.7382 N   0  3  0  0  0  0  0  0  0  0  0  0
   -3.2443    0.8413   -0.6659 H   0  0  0  0  0  0  0  0  0  0  0  0
   -3.3229    2.9758   -0.6526 C   0  0  0  0  0  0  0  0  0  0  0  0
   -4.3857    3.1839   -0.5470 H   0  0  0  0  0  0  0  0  0  0  0  0
   -2.3310    3.8934   -0.7030 N   0  0  0  0  0  0  0  0  0  0  0  0
   -2.4482    4.9022   -0.6571 H   0  0  0  0  0  0  0  0  0  0  0  0
   -1.1189    3.2279   -0.8234 C   0  0  0  0  0  0  0  0  0  0  0  0
   -0.1302    3.6737   -0.8887 H   0  0  0  0  0  0  0  0  0  0  0  0
    0.0470    0.3465    1.5629 C   0  0  0  0  0  0  0  0  0  0  0  0
    1.1854    0.1365    1.9846 O   0  0  0  0  0  0  0  0  0  0  0  0
   -0.8551    1.0750    2.2320 N   0  0  0  0  0  0  0  0  0  0  0  0
   -1.7594    1.2031    1.8040 H   0  0  0  0  0  0  0  0  0  0  0  0
   -0.6356    1.6998    3.5400 C   0  0  0  0  0  0  0  0  0  0  0  0
   -0.4284    2.7647    3.4168 H   0  0  0  0  0  0  0  0  0  0  0  0
   -1.5268    1.5885    4.1601 H   0  0  0  0  0  0  0  0  0  0  0  0
    0.2072    1.2358    4.0566 H   0  0  0  0  0  0  0  0  0  0  0  0
  5  6  2  0  0  0  0
  5  7  1  0  0  0  0
  2  3  1  0  0  0  0
  2  4  1  0  0  0  0
  2  5  1  0  0  0  0
  1  2  1  0  0  0  0
 23 24  2  0  0  0  0
 23 25  1  0  0  0  0
 21 22  1  0  0  0  0
 19 20  1  0  0  0  0
 19 21  1  0  0  0  0
 17 18  1  0  0  0  0
 17 19  1  0  0  0  0
 15 16  1  0  0  0  0
 15 17  2  0  0  0  0
 14 15  1  0  0  0  0
 14 21  2  0  0  0  0
 11 12  1  0  0  0  0
 11 13  1  0  0  0  0
 11 14  1  0  0  0  0
  9 10  1  0  0  0  0
  9 11  1  0  0  0  0
  9 23  1  0  0  0  0
  7  8  1  0  0  0  0
  7  9  1  0  0  0  0
 27 28  1  0  0  0  0
 27 29  1  0  0  0  0
 27 30  1  0  0  0  0
 25 26  1  0  0  0  0
 25 27  1  0  0  0  0
M  CHG  1  15   1
M  END
$$$$
default_name
  -OEChem-02102213163D

 30 30  0     1  0  0  0  0  0999 V2000
   -3.5507   -3.2183    1.8116 H   0  0  0  0  0  0  0  0  0  0  0  0
   -3.4597   -2.3913    1.1076 C   0  0  0  0  0  0  0  0  0  0  0  0
   -4.1577   -1.6043    1.3866 H   0  0  0  0  0  0  0  0  0  0  0  0
   -3.6807   -2.7523    0.1036 H   0  0  0  0  0  0  0  0  0  0  0  0
   -2.0477   -1.8543    1.1546 C   0  0  0  0  0  0  0  0  0  0  0  0
   -1.2227   -2.3443    1.9146 O   0  0  0  0  0  0  0  0  0  0  0  0
   -1.7517   -0.8483    0.3266 N   0  0  0  0  0  0  0  0  0  0  0  0
   -2.4847   -0.5123   -0.2804 H   0  0  0  0  0  0  0  0  0  0  0  0
   -0.4117   -0.2463    0.2186 C   0  0  1  0  0  0  0  0  0  0  0  0
    0.2987   -1.0391   -0.0285 H   0  0  0  0  0  0  0  0  0  0  0  0
   -0.4131    0.7505   -0.9636 C   0  0  0  0  0  0  0  0  0  0  0  0
    0.5912    1.1692   -1.0672 H   0  0  0  0  0  0  0  0  0  0  0  0
   -0.6304    0.2071   -1.8857 H   0  0  0  0  0  0  0  0  0  0  0  0
   -1.4036    1.8893   -0.8441 C   0  0  0  0  0  0  0  0  0  0  0  0
   -2.7213    1.7632   -0.4490 N   0  3  0  0  0  0  0  0  0  0  0  0
   -3.1350    0.8806   -0.1350 H   0  0  0  0  0  0  0  0  0  0  0  0
   -3.2890    2.9855   -0.4638 C   0  0  0  0  0  0  0  0  0  0  0  0
   -4.3184    3.2048   -0.1878 H   0  0  0  0  0  0  0  0  0  0  0  0
   -2.3603    3.8845   -0.8609 N   0  0  0  0  0  0  0  0  0  0  0  0
   -2.5038    4.8858   -0.9623 H   0  0  0  0  0  0  0  0  0  0  0  0
   -1.1703    3.2127   -1.1040 C   0  0  0  0  0  0  0  0  0  0  0  0
   -0.2300    3.6443   -1.4358 H   0  0  0  0  0  0  0  0  0  0  0  0
    0.0470    0.3465    1.5629 C   0  0  0  0  0  0  0  0  0  0  0  0
    1.1854    0.1365    1.9846 O   0  0  0  0  0  0  0  0  0  0  0  0
   -0.8551    1.0750    2.2320 N   0  0  0  0  0  0  0  0  0  0  0  0
   -1.7594    1.2031    1.8040 H   0  0  0  0  0  0  0  0  0  0  0  0
   -0.6356    1.6998    3.5400 C   0  0  0  0  0  0  0  0  0  0  0  0
   -0.4284    2.7647    3.4168 H   0  0  0  0  0  0  0  0  0  0  0  0
   -1.5268    1.5885    4.1601 H   0  0  0  0  0  0  0  0  0  0  0  0
    0.2072    1.2358    4.0566 H   0  0  0  0  0  0  0  0  0  0  0  0
  5  6  2  0  0  0  0
  5  7  1  0  0  0  0
  2  3  1  0  0  0  0
  2  4  1  0  0  0  0
  2  5  1  0  0  0  0
  1  2  1  0  0  0  0
 23 24  2  0  0  0  0
 23 25  1  0  0  0  0
 21 22  1  0  0  0  0
 19 20  1  0  0  0  0
 19 21  1  0  0  0  0
 17 18  1  0  0  0  0
 17 19  1  0  0  0  0
 15 16  1  0  0  0  0
 15 17  2  0  0  0  0
 14 15  1  0  0  0  0
 14 21  2  0  0  0  0
 11 12  1  0  0  0  0
 11 13  1  0  0  0  0
 11 14  1  0  0  0  0
  9 10  1  0  0  0  0
  9 11  1  0  0  0  0
  9 23  1  0  0  0  0
  7  8  1  0  0  0  0
  7  9  1  0  0  0  0
 27 28  1  0  0  0  0
 27 29  1  0  0  0  0
 27 30  1  0  0  0  0
 25 26  1  0  0  0  0
 25 27  1  0  0  0  0
M  CHG  1  15   1
M  END
$$$$
default_name
  -OEChem-02102213163D

 30 30  0     1  0  0  0  0  0999 V2000
   -3.5507   -3.2183    1.8116 H   0  0  0  0  0  0  0  0  0  0  0  0
   -3.4597   -2.3913    1.1076 C   0  0  0  0  0  0  0  0  0  0  0  0
   -4.1577   -1.6043    1.3866 H   0  0  0  0  0  0  0  0  0  0  0  0
   -3.6807   -2.7523    0.1036 H   0  0  0  0  0  0  0  0  0  0  0  0
   -2.0477   -1.8543    1.1546 C   0  0  0  0  0  0  0  0  0  0  0  0
   -1.2227   -2.3443    1.9146 O   0  0  0  0  0  0  0  0  0  0  0  0
   -1.7517   -0.8483    0.3266 N   0  0  0  0  0  0  0  0  0  0  0  0
   -2.4847   -0.5123   -0.2804 H   0  0  0  0  0  0  0  0  0  0  0  0
   -0.4117   -0.2463    0.2186 C   0  0  1  0  0  0  0  0  0  0  0  0
    0.2987   -1.0391   -0.0285 H   0  0  0  0  0  0  0  0  0  0  0  0
   -0.4131    0.7505   -0.9636 C   0  0  0  0  0  0  0  0  0  0  0  0
    0.5912    1.1692   -1.0672 H   0  0  0  0  0  0  0  0  0  0  0  0
   -0.6304    0.2071   -1.8857 H   0  0  0  0  0  0  0  0  0  0  0  0
   -1.4036    1.8893   -0.8441 C   0  0  0  0  0  0  0  0  0  0  0  0
   -2.6147    1.8279   -0.1824 N   0  3  0  0  0  0  0  0  0  0  0  0
   -2.9270    1.0106    0.3499 H   0  0  0  0  0  0  0  0  0  0  0  0
   -3.2196    3.0275   -0.2897 C   0  0  0  0  0  0  0  0  0  0  0  0
   -4.1840    3.2871    0.1425 H   0  0  0  0  0  0  0  0  0  0  0  0
   -2.4191    3.8486   -1.0062 N   0  0  0  0  0  0  0  0  0  0  0  0
   -2.6167    4.8172   -1.2434 H   0  0  0  0  0  0  0  0  0  0  0  0
   -1.2742    3.1495   -1.3624 C   0  0  0  0  0  0  0  0  0  0  0  0
   -0.4323    3.5213   -1.9399 H   0  0  0  0  0  0  0  0  0  0  0  0
    0.0470    0.3465    1.5629 C   0  0  0  0  0  0  0  0  0  0  0  0
    1.1854    0.1365    1.9846 O   0  0  0  0  0  0  0  0  0  0  0  0
   -0.8551    1.0750    2.2320 N   0  0  0  0  0  0  0  0  0  0  0  0
   -1.7594    1.2031    1.8040 H   0  0  0  0  0  0  0  0  0  0  0  0
   -0.6356    1.6998    3.5400 C   0  0  0  0  0  0  0  0  0  0  0  0
   -0.4284    2.7647    3.4168 H   0  0  0  0  0  0  0  0  0  0  0  0
   -1.5268    1.5885    4.1601 H   0  0  0  0  0  0  0  0  0  0  0  0
    0.2072    1.2358    4.0566 H   0  0  0  0  0  0  0  0  0  0  0  0
  5  6  2  0  0  0  0
  5  7  1  0  0  0  0
  2  3  1  0  0  0  0
  2  4  1  0  0  0  0
  2  5  1  0  0  0  0
  1  2  1  0  0  0  0
 23 24  2  0  0  0  0
 23 25  1  0  0  0  0
 21 22  1  0  0  0  0
 19 20  1  0  0  0  0
 19 21  1  0  0  0  0
 17 18  1  0  0  0  0
 17 19  1  0  0  0  0
 15 16  1  0  0  0  0
 15 17  2  0  0  0  0
 14 15  1  0  0  0  0
 14 21  2  0  0  0  0
 11 12  1  0  0  0  0
 11 13  1  0  0  0  0
 11 14  1  0  0  0  0
  9 10  1  0  0  0  0
  9 11  1  0  0  0  0
  9 23  1  0  0  0  0
  7  8  1  0  0  0  0
  7  9  1  0  0  0  0
 27 28  1  0  0  0  0
 27 29  1  0  0  0  0
 27 30  1  0  0  0  0
 25 26  1  0  0  0  0
 25 27  1  0  0  0  0
M  CHG  1  15   1
M  END
$$$$
default_name
  -OEChem-02102213163D

 30 30  0     1  0  0  0  0  0999 V2000
   -3.5507   -3.2183    1.8116 H   0  0  0  0  0  0  0  0  0  0  0  0
   -3.4597   -2.3913    1.1076 C   0  0  0  0  0  0  0  0  0  0  0  0
   -4.1577   -1.6043    1.3866 H   0  0  0  0  0  0  0  0  0  0  0  0
   -3.6807   -2.7523    0.1036 H   0  0  0  0  0  0  0  0  0  0  0  0
   -2.0477   -1.8543    1.1546 C   0  0  0  0  0  0  0  0  0  0  0  0
   -1.2227   -2.3443    1.9146 O   0  0  0  0  0  0  0  0  0  0  0  0
   -1.7517   -0.8483    0.3266 N   0  0  0  0  0  0  0  0  0  0  0  0
   -2.4847   -0.5123   -0.2804 H   0  0  0  0  0  0  0  0  0  0  0  0
   -0.4117   -0.2463    0.2186 C   0  0  1  0  0  0  0  0  0  0  0  0
    0.2987   -1.0391   -0.0285 H   0  0  0  0  0  0  0  0  0  0  0  0
   -0.4131    0.7505   -0.9636 C   0  0  0  0  0  0  0  0  0  0  0  0
    0.5912    1.1692   -1.0672 H   0  0  0  0  0  0  0  0  0  0  0  0
   -0.6304    0.2071   -1.8857 H   0  0  0  0  0  0  0  0  0  0  0  0
   -1.4036    1.8893   -0.8441 C   0  0  0  0  0  0  0  0  0  0  0  0
   -2.4611    1.9377    0.0434 N   0  3  0  0  0  0  0  0  0  0  0  0
   -2.6343    1.2226    0.7557 H   0  0  0  0  0  0  0  0  0  0  0  0
   -3.1196    3.0990   -0.1422 C   0  0  0  0  0  0  0  0  0  0  0  0
   -3.9914    3.4252    0.4214 H   0  0  0  0  0  0  0  0  0  0  0  0
   -2.5035    3.7881   -1.1290 N   0  0  0  0  0  0  0  0  0  0  0  0
   -2.7790    4.7010   -1.4815 H   0  0  0  0  0  0  0  0  0  0  0  0
   -1.4236    3.0425   -1.5811 C   0  0  0  0  0  0  0  0  0  0  0  0
   -0.7234    3.3129   -2.3666 H   0  0  0  0  0  0  0  0  0  0  0  0
    0.0470    0.3465    1.5629 C   0  0  0  0  0  0  0  0  0  0  0  0
    1.1854    0.1365    1.9846 O   0  0  0  0  0  0  0  0  0  0  0  0
   -0.8551    1.0750    2.2320 N   0  0  0  0  0  0  0  0  0  0  0  0
   -1.7594    1.2031    1.8040 H   0  0  0  0  0  0  0  0  0  0  0  0
   -0.6356    1.6998    3.5400 C   0  0  0  0  0  0  0  0  0  0  0  0
   -0.4284    2.7647    3.4168 H   0  0  0  0  0  0  0  0  0  0  0  0
   -1.5268    1.5885    4.1601 H   0  0  0  0  0  0  0  0  0  0  0  0
    0.2072    1.2358    4.0566 H   0  0  0  0  0  0  0  0  0  0  0  0
  5  6  2  0  0  0  0
  5  7  1  0  0  0  0
  2  3  1  0  0  0  0
  2  4  1  0  0  0  0
  2  5  1  0  0  0  0
  1  2  1  0  0  0  0
 23 24  2  0  0  0  0
 23 25  1  0  0  0  0
 21 22  1  0  0  0  0
 19 20  1  0  0  0  0
 19 21  1  0  0  0  0
 17 18  1  0  0  0  0
 17 19  1  0  0  0  0
 15 16  1  0  0  0  0
 15 17  2  0  0  0  0
 14 15  1  0  0  0  0
 14 21  2  0  0  0  0
 11 12  1  0  0  0  0
 11 13  1  0  0  0  0
 11 14  1  0  0  0  0
  9 10  1  0  0  0  0
  9 11  1  0  0  0  0
  9 23  1  0  0  0  0
  7  8  1  0  0  0  0
  7  9  1  0  0  0  0
 27 28  1  0  0  0  0
 27 29  1  0  0  0  0
 27 30  1  0  0  0  0
 25 26  1  0  0  0  0
 25 27  1  0  0  0  0
M  CHG  1  15   1
M  END
$$$$
default_name
  -OEChem-02102213163D

 30 30  0     1  0  0  0  0  0999 V2000
   -3.5507   -3.2183    1.8116 H   0  0  0  0  0  0  0  0  0  0  0  0
   -3.4597   -2.3913    1.1076 C   0  0  0  0  0  0  0  0  0  0  0  0
   -4.1577   -1.6043    1.3866 H   0  0  0  0  0  0  0  0  0  0  0  0
   -3.6807   -2.7523    0.1036 H   0  0  0  0  0  0  0  0  0  0  0  0
   -2.0477   -1.8543    1.1546 C   0  0  0  0  0  0  0  0  0  0  0  0
   -1.2227   -2.3443    1.9146 O   0  0  0  0  0  0  0  0  0  0  0  0
   -1.7517   -0.8483    0.3266 N   0  0  0  0  0  0  0  0  0  0  0  0
   -2.4847   -0.5123   -0.2804 H   0  0  0  0  0  0  0  0  0  0  0  0
   -0.4117   -0.2463    0.2186 C   0  0  1  0  0  0  0  0  0  0  0  0
    0.2987   -1.0391   -0.0285 H   0  0  0  0  0  0  0  0  0  0  0  0
   -0.4131    0.7505   -0.9636 C   0  0  0  0  0  0  0  0  0  0  0  0
    0.5912    1.1692   -1.0672 H   0  0  0  0  0  0  0  0  0  0  0  0
   -0.6304    0.2071   -1.8857 H   0  0  0  0  0  0  0  0  0  0  0  0
   -1.4036    1.8893   -0.8441 C   0  0  0  0  0  0  0  0  0  0  0  0
   -2.2711    2.0852    0.2130 N   0  3  0  0  0  0  0  0  0  0  0  0
   -2.2768    1.5021    1.0548 H   0  0  0  0  0  0  0  0  0  0  0  0
   -2.9958    3.1951   -0.0312 C   0  0  0  0  0  0  0  0  0  0  0  0
   -3.7540    3.6099    0.6299 H   0  0  0  0  0  0  0  0  0  0  0  0
   -2.6076    3.7072   -1.2210 N   0  0  0  0  0  0  0  0  0  0  0  0
   -2.9797    4.5452   -1.6601 H   0  0  0  0  0  0  0  0  0  0  0  0
   -1.6083    2.8990   -1.7452 C   0  0  0  0  0  0  0  0  0  0  0  0
   -1.0833    3.0335   -2.6869 H   0  0  0  0  0  0  0  0  0  0  0  0
    0.0470    0.3465    1.5629 C   0  0  0  0  0  0  0  0  0  0  0  0
    1.1854    0.1365    1.9846 O   0  0  0  0  0  0  0  0  0  0  0  0
   -0.8551    1.0750    2.2320 N   0  0  0  0  0  0  0  0  0  0  0  0
   -1.7594    1.2031    1.8040 H   0  0  0  0  0  0  0  0  0  0  0  0
   -0.6356    1.6998    3.5400 C   0  0  0  0  0  0  0  0  0  0  0  0
   -0.4284    2.7647    3.4168 H   0  0  0  0  0  0  0  0  0  0  0  0
   -1.5268    1.5885    4.1601 H   0  0  0  0  0  0  0  0  0  0  0  0
    0.2072    1.2358    4.0566 H   0  0  0  0  0  0  0  0  0  0  0  0
  5  6  2  0  0  0  0
  5  7  1  0  0  0  0
  2  3  1  0  0  0  0
  2  4  1  0  0  0  0
  2  5  1  0  0  0  0
  1  2  1  0  0  0  0
 23 24  2  0  0  0  0
 23 25  1  0  0  0  0
 21 22  1  0  0  0  0
 19 20  1  0  0  0  0
 19 21  1  0  0  0  0
 17 18  1  0  0  0  0
 17 19  1  0  0  0  0
 15 16  1  0  0  0  0
 15 17  2  0  0  0  0
 14 15  1  0  0  0  0
 14 21  2  0  0  0  0
 11 12  1  0  0  0  0
 11 13  1  0  0  0  0
 11 14  1  0  0  0  0
  9 10  1  0  0  0  0
  9 11  1  0  0  0  0
  9 23  1  0  0  0  0
  7  8  1  0  0  0  0
  7  9  1  0  0  0  0
 27 28  1  0  0  0  0
 27 29  1  0  0  0  0
 27 30  1  0  0  0  0
 25 26  1  0  0  0  0
 25 27  1  0  0  0  0
M  CHG  1  15   1
M  END
$$$$
default_name
  -OEChem-02102213163D

 30 30  0     1  0  0  0  0  0999 V2000
   -3.5507   -3.2183    1.8116 H   0  0  0  0  0  0  0  0  0  0  0  0
   -3.4597   -2.3913    1.1076 C   0  0  0  0  0  0  0  0  0  0  0  0
   -4.1577   -1.6043    1.3866 H   0  0  0  0  0  0  0  0  0  0  0  0
   -3.6807   -2.7523    0.1036 H   0  0  0  0  0  0  0  0  0  0  0  0
   -2.0477   -1.8543    1.1546 C   0  0  0  0  0  0  0  0  0  0  0  0
   -1.2227   -2.3443    1.9146 O   0  0  0  0  0  0  0  0  0  0  0  0
   -1.7517   -0.8483    0.3266 N   0  0  0  0  0  0  0  0  0  0  0  0
   -2.4847   -0.5123   -0.2804 H   0  0  0  0  0  0  0  0  0  0  0  0
   -0.4117   -0.2463    0.2186 C   0  0  1  0  0  0  0  0  0  0  0  0
    0.2987   -1.0391   -0.0285 H   0  0  0  0  0  0  0  0  0  0  0  0
   -0.4131    0.7505   -0.9636 C   0  0  0  0  0  0  0  0  0  0  0  0
    0.5912    1.1692   -1.0672 H   0  0  0  0  0  0  0  0  0  0  0  0
   -0.6304    0.2071   -1.8857 H   0  0  0  0  0  0  0  0  0  0  0  0
   -1.4036    1.8893   -0.8441 C   0  0  0  0  0  0  0  0  0  0  0  0
   -2.0576    2.2603    0.3148 N   0  3  0  0  0  0  0  0  0  0  0  0
   -1.8791    1.8300    1.2268 H   0  0  0  0  0  0  0  0  0  0  0  0
   -2.8565    3.3092    0.0356 C   0  0  0  0  0  0  0  0  0  0  0  0
   -3.4878    3.8284    0.7539 H   0  0  0  0  0  0  0  0  0  0  0  0
   -2.7245    3.6113   -1.2758 N   0  0  0  0  0  0  0  0  0  0  0  0
   -3.2053    4.3603   -1.7672 H   0  0  0  0  0  0  0  0  0  0  0  0
   -1.8157    2.7290   -1.8434 C   0  0  0  0  0  0  0  0  0  0  0  0
   -1.4876    2.7020   -2.8788 H   0  0  0  0  0  0  0  0  0  0  0  0
    0.0470    0.3465    1.5629 C   0  0  0  0  0  0  0  0  0  0  0  0
    1.1854    0.1365    1.9846 O   0  0  0  0  0  0  0  0  0  0  0  0
   -0.8551    1.0750    2.2320 N   0  0  0  0  0  0  0  0  0  0  0  0
   -1.7594    1.2031    1.8040 H   0  0  0  0  0  0  0  0  0  0  0  0
   -0.6356    1.6998    3.5400 C   0  0  0  0  0  0  0  0  0  0  0  0
   -0.4284    2.7647    3.4168 H   0  0  0  0  0  0  0  0  0  0  0  0
   -1.5268    1.5885    4.1601 H   0  0  0  0  0  0  0  0  0  0  0  0
    0.2072    1.2358    4.0566 H   0  0  0  0  0  0  0  0  0  0  0  0
  5  6  2  0  0  0  0
  5  7  1  0  0  0  0
  2  3  1  0  0  0  0
  2  4  1  0  0  0  0
  2  5  1  0  0  0  0
  1  2  1  0  0  0  0
 23 24  2  0  0  0  0
 23 25  1  0  0  0  0
 21 22  1  0  0  0  0
 19 20  1  0  0  0  0
 19 21  1  0  0  0  0
 17 18  1  0  0  0  0
 17 19  1  0  0  0  0
 15 16  1  0  0  0  0
 15 17  2  0  0  0  0
 14 15  1  0  0  0  0
 14 21  2  0  0  0  0
 11 12  1  0  0  0  0
 11 13  1  0  0  0  0
 11 14  1  0  0  0  0
  9 10  1  0  0  0  0
  9 11  1  0  0  0  0
  9 23  1  0  0  0  0
  7  8  1  0  0  0  0
  7  9  1  0  0  0  0
 27 28  1  0  0  0  0
 27 29  1  0  0  0  0
 27 30  1  0  0  0  0
 25 26  1  0  0  0  0
 25 27  1  0  0  0  0
M  CHG  1  15   1
M  END
$$$$
default_name
  -OEChem-02102213163D

 30 30  0     1  0  0  0  0  0999 V2000
   -3.5507   -3.2183    1.8116 H   0  0  0  0  0  0  0  0  0  0  0  0
   -3.4597   -2.3913    1.1076 C   0  0  0  0  0  0  0  0  0  0  0  0
   -4.1577   -1.6043    1.3866 H   0  0  0  0  0  0  0  0  0  0  0  0
   -3.6807   -2.7523    0.1036 H   0  0  0  0  0  0  0  0  0  0  0  0
   -2.0477   -1.8543    1.1546 C   0  0  0  0  0  0  0  0  0  0  0  0
   -1.2227   -2.3443    1.9146 O   0  0  0  0  0  0  0  0  0  0  0  0
   -1.7517   -0.8483    0.3266 N   0  0  0  0  0  0  0  0  0  0  0  0
   -2.4847   -0.5123   -0.2804 H   0  0  0  0  0  0  0  0  0  0  0  0
   -0.4117   -0.2463    0.2186 C   0  0  1  0  0  0  0  0  0  0  0  0
    0.2987   -1.0391   -0.0285 H   0  0  0  0  0  0  0  0  0  0  0  0
   -0.4131    0.7505   -0.9636 C   0  0  0  0  0  0  0  0  0  0  0  0
    0.5912    1.1692   -1.0672 H   0  0  0  0  0  0  0  0  0  0  0  0
   -0.6304    0.2071   -1.8857 H   0  0  0  0  0  0  0  0  0  0  0  0
   -1.4036    1.8893   -0.8441 C   0  0  0  0  0  0  0  0  0  0  0  0
   -1.8350    2.4509    0.3420 N   0  3  0  0  0  0  0  0  0  0  0  0
   -1.4681    2.1840    1.2600 H   0  0  0  0  0  0  0  0  0  0  0  0
   -2.7113    3.4336    0.0536 C   0  0  0  0  0  0  0  0  0  0  0  0
   -3.2111    4.0658    0.7848 H   0  0  0  0  0  0  0  0  0  0  0  0
   -2.8461    3.5070   -1.2898 N   0  0  0  0  0  0  0  0  0  0  0  0
   -3.4401    4.1589   -1.7954 H   0  0  0  0  0  0  0  0  0  0  0  0
   -2.0317    2.5438   -1.8690 C   0  0  0  0  0  0  0  0  0  0  0  0
   -1.9088    2.3410   -2.9293 H   0  0  0  0  0  0  0  0  0  0  0  0
    0.0470    0.3465    1.5629 C   0  0  0  0  0  0  0  0  0  0  0  0
    1.1854    0.1365    1.9846 O   0  0  0  0  0  0  0  0  0  0  0  0
   -0.8551    1.0750    2.2320 N   0  0  0  0  0  0  0  0  0  0  0  0
   -1.7594    1.2031    1.8040 H   0  0  0  0  0  0  0  0  0  0  0  0
   -0.6356    1.6998    3.5400 C   0  0  0  0  0  0  0  0  0  0  0  0
   -0.4284    2.7647    3.4168 H   0  0  0  0  0  0  0  0  0  0  0  0
   -1.5268    1.5885    4.1601 H   0  0  0  0  0  0  0  0  0  0  0  0
    0.2072    1.2358    4.0566 H   0  0  0  0  0  0  0  0  0  0  0  0
  5  6  2  0  0  0  0
  5  7  1  0  0  0  0
  2  3  1  0  0  0  0
  2  4  1  0  0  0  0
  2  5  1  0  0  0  0
  1  2  1  0  0  0  0
 23 24  2  0  0  0  0
 23 25  1  0  0  0  0
 21 22  1  0  0  0  0
 19 20  1  0  0  0  0
 19 21  1  0  0  0  0
 17 18  1  0  0  0  0
 17 19  1  0  0  0  0
 15 16  1  0  0  0  0
 15 17  2  0  0  0  0
 14 15  1  0  0  0  0
 14 21  2  0  0  0  0
 11 12  1  0  0  0  0
 11 13  1  0  0  0  0
 11 14  1  0  0  0  0
  9 10  1  0  0  0  0
  9 11  1  0  0  0  0
  9 23  1  0  0  0  0
  7  8  1  0  0  0  0
  7  9  1  0  0  0  0
 27 28  1  0  0  0  0
 27 29  1  0  0  0  0
 27 30  1  0  0  0  0
 25 26  1  0  0  0  0
 25 27  1  0  0  0  0
M  CHG  1  15   1
M  END
$$$$
default_name
  -OEChem-02102213163D

 30 30  0     1  0  0  0  0  0999 V2000
   -3.5507   -3.2183    1.8116 H   0  0  0  0  0  0  0  0  0  0  0  0
   -3.4597   -2.3913    1.1076 C   0  0  0  0  0  0  0  0  0  0  0  0
   -4.1577   -1.6043    1.3866 H   0  0  0  0  0  0  0  0  0  0  0  0
   -3.6807   -2.7523    0.1036 H   0  0  0  0  0  0  0  0  0  0  0  0
   -2.0477   -1.8543    1.1546 C   0  0  0  0  0  0  0  0  0  0  0  0
   -1.2227   -2.3443    1.9146 O   0  0  0  0  0  0  0  0  0  0  0  0
   -1.7517   -0.8483    0.3266 N   0  0  0  0  0  0  0  0  0  0  0  0
   -2.4847   -0.5123   -0.2804 H   0  0  0  0  0  0  0  0  0  0  0  0
   -0.4117   -0.2463    0.2186 C   0  0  1  0  0  0  0  0  0  0  0  0
    0.2987   -1.0391   -0.0285 H   0  0  0  0  0  0  0  0  0  0  0  0
   -0.4131    0.7505   -0.9636 C   0  0  0  0  0  0  0  0  0  0  0  0
    0.5912    1.1692   -1.0672 H   0  0  0  0  0  0  0  0  0  0  0  0
   -0.6304    0.2071   -1.8857 H   0  0  0  0  0  0  0  0  0  0  0  0
   -1.4036    1.8893   -0.8441 C   0  0  0  0  0  0  0  0  0  0  0  0
   -1.6187    2.6443    0.2926 N   0  3  0  0  0  0  0  0  0  0  0  0
   -1.0719    2.5399    1.1521 H   0  0  0  0  0  0  0  0  0  0  0  0
   -2.5701    3.5598    0.0218 C   0  0  0  0  0  0  0  0  0  0  0  0
   -2.9426    4.3061    0.7206 H   0  0  0  0  0  0  0  0  0  0  0  0
   -2.9642    3.4014   -1.2620 N   0  0  0  0  0  0  0  0  0  0  0  0
   -3.6684    3.9549   -1.7429 H   0  0  0  0  0  0  0  0  0  0  0  0
   -2.2415    2.3562   -1.8205 C   0  0  0  0  0  0  0  0  0  0  0  0
   -2.3180    1.9752   -2.8351 H   0  0  0  0  0  0  0  0  0  0  0  0
    0.0470    0.3465    1.5629 C   0  0  0  0  0  0  0  0  0  0  0  0
    1.1854    0.1365    1.9846 O   0  0  0  0  0  0  0  0  0  0  0  0
   -0.8551    1.0750    2.2320 N   0  0  0  0  0  0  0  0  0  0  0  0
   -1.7594    1.2031    1.8040 H   0  0  0  0  0  0  0  0  0  0  0  0
   -0.6356    1.6998    3.5400 C   0  0  0  0  0  0  0  0  0  0  0  0
   -0.4284    2.7647    3.4168 H   0  0  0  0  0  0  0  0  0  0  0  0
   -1.5268    1.5885    4.1601 H   0  0  0  0  0  0  0  0  0  0  0  0
    0.2072    1.2358    4.0566 H   0  0  0  0  0  0  0  0  0  0  0  0
  5  6  2  0  0  0  0
  5  7  1  0  0  0  0
  2  3  1  0  0  0  0
  2  4  1  0  0  0  0
  2  5  1  0  0  0  0
  1  2  1  0  0  0  0
 23 24  2  0  0  0  0
 23 25  1  0  0  0  0
 21 22  1  0  0  0  0
 19 20  1  0  0  0  0
 19 21  1  0  0  0  0
 17 18  1  0  0  0  0
 17 19  1  0  0  0  0
 15 16  1  0  0  0  0
 15 17  2  0  0  0  0
 14 15  1  0  0  0  0
 14 21  2  0  0  0  0
 11 12  1  0  0  0  0
 11 13  1  0  0  0  0
 11 14  1  0  0  0  0
  9 10  1  0  0  0  0
  9 11  1  0  0  0  0
  9 23  1  0  0  0  0
  7  8  1  0  0  0  0
  7  9  1  0  0  0  0
 27 28  1  0  0  0  0
 27 29  1  0  0  0  0
 27 30  1  0  0  0  0
 25 26  1  0  0  0  0
 25 27  1  0  0  0  0
M  CHG  1  15   1
M  END
$$$$
default_name
  -OEChem-02102213163D

 30 30  0     1  0  0  0  0  0999 V2000
   -3.5507   -3.2183    1.8116 H   0  0  0  0  0  0  0  0  0  0  0  0
   -3.4597   -2.3913    1.1076 C   0  0  0  0  0  0  0  0  0  0  0  0
   -4.1577   -1.6043    1.3866 H   0  0  0  0  0  0  0  0  0  0  0  0
   -3.6807   -2.7523    0.1036 H   0  0  0  0  0  0  0  0  0  0  0  0
   -2.0477   -1.8543    1.1546 C   0  0  0  0  0  0  0  0  0  0  0  0
   -1.2227   -2.3443    1.9146 O   0  0  0  0  0  0  0  0  0  0  0  0
   -1.7517   -0.8483    0.3266 N   0  0  0  0  0  0  0  0  0  0  0  0
   -2.4847   -0.5123   -0.2804 H   0  0  0  0  0  0  0  0  0  0  0  0
   -0.4117   -0.2463    0.2186 C   0  0  1  0  0  0  0  0  0  0  0  0
    0.2987   -1.0391   -0.0285 H   0  0  0  0  0  0  0  0  0  0  0  0
   -0.4131    0.7505   -0.9636 C   0  0  0  0  0  0  0  0  0  0  0  0
    0.5912    1.1692   -1.0672 H   0  0  0  0  0  0  0  0  0  0  0  0
   -0.6304    0.2071   -1.8857 H   0  0  0  0  0  0  0  0  0  0  0  0
   -1.4036    1.8893   -0.8441 C   0  0  0  0  0  0  0  0  0  0  0  0
   -1.4233    2.8271    0.1701 N   0  3  0  0  0  0  0  0  0  0  0  0
   -0.7175    2.8736    0.9105 H   0  0  0  0  0  0  0  0  0  0  0  0
   -2.4425    3.6792   -0.0579 C   0  0  0  0  0  0  0  0  0  0  0  0
   -2.7006    4.5328    0.5656 H   0  0  0  0  0  0  0  0  0  0  0  0
   -3.0706    3.3017   -1.1943 N   0  0  0  0  0  0  0  0  0  0  0  0
   -3.8745    3.7620   -1.6131 H   0  0  0  0  0  0  0  0  0  0  0  0
   -2.4309    2.1789   -1.7009 C   0  0  0  0  0  0  0  0  0  0  0  0
   -2.6875    1.6294   -2.6024 H   0  0  0  0  0  0  0  0  0  0  0  0
    0.0470    0.3465    1.5629 C   0  0  0  0  0  0  0  0  0  0  0  0
    1.1854    0.1365    1.9846 O   0  0  0  0  0  0  0  0  0  0  0  0
   -0.8551    1.0750    2.2320 N   0  0  0  0  0  0  0  0  0  0  0  0
   -1.7594    1.2031    1.8040 H   0  0  0  0  0  0  0  0  0  0  0  0
   -0.6356    1.6998    3.5400 C   0  0  0  0  0  0  0  0  0  0  0  0
   -0.4284    2.7647    3.4168 H   0  0  0  0  0  0  0  0  0  0  0  0
   -1.5268    1.5885    4.1601 H   0  0  0  0  0  0  0  0  0  0  0  0
    0.2072    1.2358    4.0566 H   0  0  0  0  0  0  0  0  0  0  0  0
  5  6  2  0  0  0  0
  5  7  1  0  0  0  0
  2  3  1  0  0  0  0
  2  4  1  0  0  0  0
  2  5  1  0  0  0  0
  1  2  1  0  0  0  0
 23 24  2  0  0  0  0
 23 25  1  0  0  0  0
 21 22  1  0  0  0  0
 19 20  1  0  0  0  0
 19 21  1  0  0  0  0
 17 18  1  0  0  0  0
 17 19  1  0  0  0  0
 15 16  1  0  0  0  0
 15 17  2  0  0  0  0
 14 15  1  0  0  0  0
 14 21  2  0  0  0  0
 11 12  1  0  0  0  0
 11 13  1  0  0  0  0
 11 14  1  0  0  0  0
  9 10  1  0  0  0  0
  9 11  1  0  0  0  0
  9 23  1  0  0  0  0
  7  8  1  0  0  0  0
  7  9  1  0  0  0  0
 27 28  1  0  0  0  0
 27 29  1  0  0  0  0
 27 30  1  0  0  0  0
 25 26  1  0  0  0  0
 25 27  1  0  0  0  0
M  CHG  1  15   1
M  END
$$$$
default_name
  -OEChem-02102213163D

 30 30  0     1  0  0  0  0  0999 V2000
   -3.5507   -3.2183    1.8116 H   0  0  0  0  0  0  0  0  0  0  0  0
   -3.4597   -2.3913    1.1076 C   0  0  0  0  0  0  0  0  0  0  0  0
   -4.1577   -1.6043    1.3866 H   0  0  0  0  0  0  0  0  0  0  0  0
   -3.6807   -2.7523    0.1036 H   0  0  0  0  0  0  0  0  0  0  0  0
   -2.0477   -1.8543    1.1546 C   0  0  0  0  0  0  0  0  0  0  0  0
   -1.2227   -2.3443    1.9146 O   0  0  0  0  0  0  0  0  0  0  0  0
   -1.7517   -0.8483    0.3266 N   0  0  0  0  0  0  0  0  0  0  0  0
   -2.4847   -0.5123   -0.2804 H   0  0  0  0  0  0  0  0  0  0  0  0
   -0.4117   -0.2463    0.2186 C   0  0  1  0  0  0  0  0  0  0  0  0
    0.2987   -1.0391   -0.0285 H   0  0  0  0  0  0  0  0  0  0  0  0
   -0.4131    0.7505   -0.9636 C   0  0  0  0  0  0  0  0  0  0  0  0
    0.5912    1.1692   -1.0672 H   0  0  0  0  0  0  0  0  0  0  0  0
   -0.6304    0.2071   -1.8857 H   0  0  0  0  0  0  0  0  0  0  0  0
   -1.4036    1.8893   -0.8441 C   0  0  0  0  0  0  0  0  0  0  0  0
   -1.2622    2.9869   -0.0173 N   0  3  0  0  0  0  0  0  0  0  0  0
   -0.4289    3.1622    0.5517 H   0  0  0  0  0  0  0  0  0  0  0  0
   -2.3371    3.7836   -0.1799 C   0  0  0  0  0  0  0  0  0  0  0  0
   -2.5018    4.7305    0.3304 H   0  0  0  0  0  0  0  0  0  0  0  0
   -3.1582    3.2147   -1.0913 N   0  0  0  0  0  0  0  0  0  0  0  0
   -4.0444    3.5935   -1.4150 H   0  0  0  0  0  0  0  0  0  0  0  0
   -2.5870    2.0240   -1.5185 C   0  0  0  0  0  0  0  0  0  0  0  0
   -2.9920    1.3272   -2.2472 H   0  0  0  0  0  0  0  0  0  0  0  0
    0.0470    0.3465    1.5629 C   0  0  0  0  0  0  0  0  0  0  0  0
    1.1854    0.1365    1.9846 O   0  0  0  0  0  0  0  0  0  0  0  0
   -0.8551    1.0750    2.2320 N   0  0  0  0  0  0  0  0  0  0  0  0
   -1.7594    1.2031    1.8040 H   0  0  0  0  0  0  0  0  0  0  0  0
   -0.6356    1.6998    3.5400 C   0  0  0  0  0  0  0  0  0  0  0  0
   -0.4284    2.7647    3.4168 H   0  0  0  0  0  0  0  0  0  0  0  0
   -1.5268    1.5885    4.1601 H   0  0  0  0  0  0  0  0  0  0  0  0
    0.2072    1.2358    4.0566 H   0  0  0  0  0  0  0  0  0  0  0  0
  5  6  2  0  0  0  0
  5  7  1  0  0  0  0
  2  3  1  0  0  0  0
  2  4  1  0  0  0  0
  2  5  1  0  0  0  0
  1  2  1  0  0  0  0
 23 24  2  0  0  0  0
 23 25  1  0  0  0  0
 21 22  1  0  0  0  0
 19 20  1  0  0  0  0
 19 21  1  0  0  0  0
 17 18  1  0  0  0  0
 17 19  1  0  0  0  0
 15 16  1  0  0  0  0
 15 17  2  0  0  0  0
 14 15  1  0  0  0  0
 14 21  2  0  0  0  0
 11 12  1  0  0  0  0
 11 13  1  0  0  0  0
 11 14  1  0  0  0  0
  9 10  1  0  0  0  0
  9 11  1  0  0  0  0
  9 23  1  0  0  0  0
  7  8  1  0  0  0  0
  7  9  1  0  0  0  0
 27 28  1  0  0  0  0
 27 29  1  0  0  0  0
 27 30  1  0  0  0  0
 25 26  1  0  0  0  0
 25 27  1  0  0  0  0
M  CHG  1  15   1
M  END
$$$$
default_name
  -OEChem-02102213163D

 30 30  0     1  0  0  0  0  0999 V2000
   -3.5507   -3.2183    1.8116 H   0  0  0  0  0  0  0  0  0  0  0  0
   -3.4597   -2.3913    1.1076 C   0  0  0  0  0  0  0  0  0  0  0  0
   -4.1577   -1.6043    1.3866 H   0  0  0  0  0  0  0  0  0  0  0  0
   -3.6807   -2.7523    0.1036 H   0  0  0  0  0  0  0  0  0  0  0  0
   -2.0477   -1.8543    1.1546 C   0  0  0  0  0  0  0  0  0  0  0  0
   -1.2227   -2.3443    1.9146 O   0  0  0  0  0  0  0  0  0  0  0  0
   -1.7517   -0.8483    0.3266 N   0  0  0  0  0  0  0  0  0  0  0  0
   -2.4847   -0.5123   -0.2804 H   0  0  0  0  0  0  0  0  0  0  0  0
   -0.4117   -0.2463    0.2186 C   0  0  1  0  0  0  0  0  0  0  0  0
    0.2987   -1.0391   -0.0285 H   0  0  0  0  0  0  0  0  0  0  0  0
   -0.4131    0.7505   -0.9636 C   0  0  0  0  0  0  0  0  0  0  0  0
    0.5912    1.1692   -1.0672 H   0  0  0  0  0  0  0  0  0  0  0  0
   -0.6304    0.2071   -1.8857 H   0  0  0  0  0  0  0  0  0  0  0  0
   -1.4036    1.8893   -0.8441 C   0  0  0  0  0  0  0  0  0  0  0  0
   -1.1463    3.1129   -0.2567 N   0  3  0  0  0  0  0  0  0  0  0  0
   -0.2260    3.3861    0.1000 H   0  0  0  0  0  0  0  0  0  0  0  0
   -2.2613    3.8660   -0.3359 C   0  0  0  0  0  0  0  0  0  0  0  0
   -2.3595    4.8856    0.0310 H   0  0  0  0  0  0  0  0  0  0  0  0
   -3.2210    3.1463   -0.9599 N   0  0  0  0  0  0  0  0  0  0  0  0
   -4.1664    3.4608   -1.1620 H   0  0  0  0  0  0  0  0  0  0  0  0
   -2.6990    1.9021   -1.2858 C   0  0  0  0  0  0  0  0  0  0  0  0
   -3.2108    1.0893   -1.7936 H   0  0  0  0  0  0  0  0  0  0  0  0
    0.0470    0.3465    1.5629 C   0  0  0  0  0  0  0  0  0  0  0  0
    1.1854    0.1365    1.9846 O   0  0  0  0  0  0  0  0  0  0  0  0
   -0.8551    1.0750    2.2320 N   0  0  0  0  0  0  0  0  0  0  0  0
   -1.7594    1.2031    1.8040 H   0  0  0  0  0  0  0  0  0  0  0  0
   -0.6356    1.6998    3.5400 C   0  0  0  0  0  0  0  0  0  0  0  0
   -0.4284    2.7647    3.4168 H   0  0  0  0  0  0  0  0  0  0  0  0
   -1.5268    1.5885    4.1601 H   0  0  0  0  0  0  0  0  0  0  0  0
    0.2072    1.2358    4.0566 H   0  0  0  0  0  0  0  0  0  0  0  0
  5  6  2  0  0  0  0
  5  7  1  0  0  0  0
  2  3  1  0  0  0  0
  2  4  1  0  0  0  0
  2  5  1  0  0  0  0
  1  2  1  0  0  0  0
 23 24  2  0  0  0  0
 23 25  1  0  0  0  0
 21 22  1  0  0  0  0
 19 20  1  0  0  0  0
 19 21  1  0  0  0  0
 17 18  1  0  0  0  0
 17 19  1  0  0  0  0
 15 16  1  0  0  0  0
 15 17  2  0  0  0  0
 14 15  1  0  0  0  0
 14 21  2  0  0  0  0
 11 12  1  0  0  0  0
 11 13  1  0  0  0  0
 11 14  1  0  0  0  0
  9 10  1  0  0  0  0
  9 11  1  0  0  0  0
  9 23  1  0  0  0  0
  7  8  1  0  0  0  0
  7  9  1  0  0  0  0
 27 28  1  0  0  0  0
 27 29  1  0  0  0  0
 27 30  1  0  0  0  0
 25 26  1  0  0  0  0
 25 27  1  0  0  0  0
M  CHG  1  15   1
M  END
$$$$
default_name
  -OEChem-02102213163D

 30 30  0     1  0  0  0  0  0999 V2000
   -3.5507   -3.2183    1.8116 H   0  0  0  0  0  0  0  0  0  0  0  0
   -3.4597   -2.3913    1.1076 C   0  0  0  0  0  0  0  0  0  0  0  0
   -4.1577   -1.6043    1.3866 H   0  0  0  0  0  0  0  0  0  0  0  0
   -3.6807   -2.7523    0.1036 H   0  0  0  0  0  0  0  0  0  0  0  0
   -2.0477   -1.8543    1.1546 C   0  0  0  0  0  0  0  0  0  0  0  0
   -1.2227   -2.3443    1.9146 O   0  0  0  0  0  0  0  0  0  0  0  0
   -1.7517   -0.8483    0.3266 N   0  0  0  0  0  0  0  0  0  0  0  0
   -2.4847   -0.5123   -0.2804 H   0  0  0  0  0  0  0  0  0  0  0  0
   -0.4117   -0.2463    0.2186 C   0  0  1  0  0  0  0  0  0  0  0  0
    0.2987   -1.0391   -0.0285 H   0  0  0  0  0  0  0  0  0  0  0  0
   -0.4131    0.7505   -0.9636 C   0  0  0  0  0  0  0  0  0  0  0  0
    0.5912    1.1692   -1.0672 H   0  0  0  0  0  0  0  0  0  0  0  0
   -0.6304    0.2071   -1.8857 H   0  0  0  0  0  0  0  0  0  0  0  0
   -1.4036    1.8893   -0.8441 C   0  0  0  0  0  0  0  0  0  0  0  0
   -1.0835    3.1964   -0.5318 N   0  3  0  0  0  0  0  0  0  0  0  0
   -0.1225    3.5300   -0.4137 H   0  0  0  0  0  0  0  0  0  0  0  0
   -2.2201    3.9206   -0.5153 C   0  0  0  0  0  0  0  0  0  0  0  0
   -2.2835    4.9878   -0.3122 H   0  0  0  0  0  0  0  0  0  0  0  0
   -3.2547    3.1012   -0.8093 N   0  0  0  0  0  0  0  0  0  0  0  0
   -4.2324    3.3729   -0.8714 H   0  0  0  0  0  0  0  0  0  0  0  0
   -2.7595    1.8215   -1.0185 C   0  0  0  0  0  0  0  0  0  0  0  0
   -3.3290    0.9318   -1.2726 H   0  0  0  0  0  0  0  0  0  0  0  0
    0.0470    0.3465    1.5629 C   0  0  0  0  0  0  0  0  0  0  0  0
    1.1854    0.1365    1.9846 O   0  0  0  0  0  0  0  0  0  0  0  0
   -0.8551    1.0750    2.2320 N   0  0  0  0  0  0  0  0  0  0  0  0
   -1.7594    1.2031    1.8040 H   0  0  0  0  0  0  0  0  0  0  0  0
   -0.6356    1.6998    3.5400 C   0  0  0  0  0  0  0  0  0  0  0  0
   -0.4284    2.7647    3.4168 H   0  0  0  0  0  0  0  0  0  0  0  0
   -1.5268    1.5885    4.1601 H   0  0  0  0  0  0  0  0  0  0  0  0
    0.2072    1.2358    4.0566 H   0  0  0  0  0  0  0  0  0  0  0  0
  5  6  2  0  0  0  0
  5  7  1  0  0  0  0
  2  3  1  0  0  0  0
  2  4  1  0  0  0  0
  2  5  1  0  0  0  0
  1  2  1  0  0  0  0
 23 24  2  0  0  0  0
 23 25  1  0  0  0  0
 21 22  1  0  0  0  0
 19 20  1  0  0  0  0
 19 21  1  0  0  0  0
 17 18  1  0  0  0  0
 17 19  1  0  0  0  0
 15 16  1  0  0  0  0
 15 17  2  0  0  0  0
 14 15  1  0  0  0  0
 14 21  2  0  0  0  0
 11 12  1  0  0  0  0
 11 13  1  0  0  0  0
 11 14  1  0  0  0  0
  9 10  1  0  0  0  0
  9 11  1  0  0  0  0
  9 23  1  0  0  0  0
  7  8  1  0  0  0  0
  7  9  1  0  0  0  0
 27 28  1  0  0  0  0
 27 29  1  0  0  0  0
 27 30  1  0  0  0  0
 25 26  1  0  0  0  0
 25 27  1  0  0  0  0
M  CHG  1  15   1
M  END
$$$$
default_name
  -OEChem-02102213163D

 30 30  0     1  0  0  0  0  0999 V2000
   -3.5507   -3.2183    1.8116 H   0  0  0  0  0  0  0  0  0  0  0  0
   -3.4597   -2.3913    1.1076 C   0  0  0  0  0  0  0  0  0  0  0  0
   -4.1577   -1.6043    1.3866 H   0  0  0  0  0  0  0  0  0  0  0  0
   -3.6807   -2.7523    0.1036 H   0  0  0  0  0  0  0  0  0  0  0  0
   -2.0477   -1.8543    1.1546 C   0  0  0  0  0  0  0  0  0  0  0  0
   -1.2227   -2.3443    1.9146 O   0  0  0  0  0  0  0  0  0  0  0  0
   -1.7517   -0.8483    0.3266 N   0  0  0  0  0  0  0  0  0  0  0  0
   -2.4847   -0.5123   -0.2804 H   0  0  0  0  0  0  0  0  0  0  0  0
   -0.4117   -0.2463    0.2186 C   0  0  1  0  0  0  0  0  0  0  0  0
    0.2987   -1.0391   -0.0285 H   0  0  0  0  0  0  0  0  0  0  0  0
   -0.4131    0.7505   -0.9636 C   0  0  0  0  0  0  0  0  0  0  0  0
    0.5912    1.1692   -1.0672 H   0  0  0  0  0  0  0  0  0  0  0  0
   -0.6304    0.2071   -1.8857 H   0  0  0  0  0  0  0  0  0  0  0  0
   -1.4036    1.8893   -0.8441 C   0  0  0  0  0  0  0  0  0  0  0  0
   -1.0781    3.2317   -0.8240 N   0  3  0  0  0  0  0  0  0  0  0  0
   -0.1255    3.5842   -0.9544 H   0  0  0  0  0  0  0  0  0  0  0  0
   -2.2163    3.9439   -0.7059 C   0  0  0  0  0  0  0  0  0  0  0  0
   -2.2790    5.0298   -0.6757 H   0  0  0  0  0  0  0  0  0  0  0  0
   -3.2570    3.0824   -0.6496 N   0  0  0  0  0  0  0  0  0  0  0  0
   -4.2377    3.3359   -0.5630 H   0  0  0  0  0  0  0  0  0  0  0  0
   -2.7641    1.7877   -0.7349 C   0  0  0  0  0  0  0  0  0  0  0  0
   -3.3385    0.8655   -0.7197 H   0  0  0  0  0  0  0  0  0  0  0  0
    0.0470    0.3465    1.5629 C   0  0  0  0  0  0  0  0  0  0  0  0
    1.1854    0.1365    1.9846 O   0  0  0  0  0  0  0  0  0  0  0  0
   -0.8551    1.0750    2.2320 N   0  0  0  0  0  0  0  0  0  0  0  0
   -1.7594    1.2031    1.8040 H   0  0  0  0  0  0  0  0  0  0  0  0
   -0.6356    1.6998    3.5400 C   0  0  0  0  0  0  0  0  0  0  0  0
   -0.4284    2.7647    3.4168 H   0  0  0  0  0  0  0  0  0  0  0  0
   -1.5268    1.5885    4.1601 H   0  0  0  0  0  0  0  0  0  0  0  0
    0.2072    1.2358    4.0566 H   0  0  0  0  0  0  0  0  0  0  0  0
  5  6  2  0  0  0  0
  5  7  1  0  0  0  0
  2  3  1  0  0  0  0
  2  4  1  0  0  0  0
  2  5  1  0  0  0  0
  1  2  1  0  0  0  0
 23 24  2  0  0  0  0
 23 25  1  0  0  0  0
 21 22  1  0  0  0  0
 19 20  1  0  0  0  0
 19 21  1  0  0  0  0
 17 18  1  0  0  0  0
 17 19  1  0  0  0  0
 15 16  1  0  0  0  0
 15 17  2  0  0  0  0
 14 15  1  0  0  0  0
 14 21  2  0  0  0  0
 11 12  1  0  0  0  0
 11 13  1  0  0  0  0
 11 14  1  0  0  0  0
  9 10  1  0  0  0  0
  9 11  1  0  0  0  0
  9 23  1  0  0  0  0
  7  8  1  0  0  0  0
  7  9  1  0  0  0  0
 27 28  1  0  0  0  0
 27 29  1  0  0  0  0
 27 30  1  0  0  0  0
 25 26  1  0  0  0  0
 25 27  1  0  0  0  0
M  CHG  1  15   1
M  END
$$$$
default_name
  -OEChem-02102213163D

 30 30  0     1  0  0  0  0  0999 V2000
   -3.5507   -3.2183    1.8116 H   0  0  0  0  0  0  0  0  0  0  0  0
   -3.4597   -2.3913    1.1076 C   0  0  0  0  0  0  0  0  0  0  0  0
   -4.1577   -1.6043    1.3866 H   0  0  0  0  0  0  0  0  0  0  0  0
   -3.6807   -2.7523    0.1036 H   0  0  0  0  0  0  0  0  0  0  0  0
   -2.0477   -1.8543    1.1546 C   0  0  0  0  0  0  0  0  0  0  0  0
   -1.2227   -2.3443    1.9146 O   0  0  0  0  0  0  0  0  0  0  0  0
   -1.7517   -0.8483    0.3266 N   0  0  0  0  0  0  0  0  0  0  0  0
   -2.4847   -0.5123   -0.2804 H   0  0  0  0  0  0  0  0  0  0  0  0
   -0.4117   -0.2463    0.2186 C   0  0  1  0  0  0  0  0  0  0  0  0
    0.2987   -1.0391   -0.0285 H   0  0  0  0  0  0  0  0  0  0  0  0
   -0.4131    0.7505   -0.9636 C   0  0  0  0  0  0  0  0  0  0  0  0
    0.5912    1.1692   -1.0672 H   0  0  0  0  0  0  0  0  0  0  0  0
   -0.6304    0.2071   -1.8857 H   0  0  0  0  0  0  0  0  0  0  0  0
   -1.4036    1.8893   -0.8441 C   0  0  0  0  0  0  0  0  0  0  0  0
   -1.1305    3.2165   -1.1132 N   0  3  0  0  0  0  0  0  0  0  0  0
   -0.2347    3.5449   -1.4853 H   0  0  0  0  0  0  0  0  0  0  0  0
   -2.2502    3.9342   -0.8947 C   0  0  0  0  0  0  0  0  0  0  0  0
   -2.3463    5.0090   -1.0348 H   0  0  0  0  0  0  0  0  0  0  0  0
   -3.2277    3.0913   -0.4917 N   0  0  0  0  0  0  0  0  0  0  0  0
   -4.1821    3.3522   -0.2578 H   0  0  0  0  0  0  0  0  0  0  0  0
   -2.7128    1.8029   -0.4543 C   0  0  0  0  0  0  0  0  0  0  0  0
   -3.2387    0.8949   -0.1725 H   0  0  0  0  0  0  0  0  0  0  0  0
    0.0470    0.3465    1.5629 C   0  0  0  0  0  0  0  0  0  0  0  0
    1.1854    0.1365    1.9846 O   0  0  0  0  0  0  0  0  0  0  0  0
   -0.8551    1.0750    2.2320 N   0  0  0  0  0  0  0  0  0  0  0  0
   -1.7594    1.2031    1.8040 H   0  0  0  0  0  0  0  0  0  0  0  0
   -0.6356    1.6998    3.5400 C   0  0  0  0  0  0  0  0  0  0  0  0
   -0.4284    2.7647    3.4168 H   0  0  0  0  0  0  0  0  0  0  0  0
   -1.5268    1.5885    4.1601 H   0  0  0  0  0  0  0  0  0  0  0  0
    0.2072    1.2358    4.0566 H   0  0  0  0  0  0  0  0  0  0  0  0
  5  6  2  0  0  0  0
  5  7  1  0  0  0  0
  2  3  1  0  0  0  0
  2  4  1  0  0  0  0
  2  5  1  0  0  0  0
  1  2  1  0  0  0  0
 23 24  2  0  0  0  0
 23 25  1  0  0  0  0
 21 22  1  0  0  0  0
 19 20  1  0  0  0  0
 19 21  1  0  0  0  0
 17 18  1  0  0  0  0
 17 19  1  0  0  0  0
 15 16  1  0  0  0  0
 15 17  2  0  0  0  0
 14 15  1  0  0  0  0
 14 21  2  0  0  0  0
 11 12  1  0  0  0  0
 11 13  1  0  0  0  0
 11 14  1  0  0  0  0
  9 10  1  0  0  0  0
  9 11  1  0  0  0  0
  9 23  1  0  0  0  0
  7  8  1  0  0  0  0
  7  9  1  0  0  0  0
 27 28  1  0  0  0  0
 27 29  1  0  0  0  0
 27 30  1  0  0  0  0
 25 26  1  0  0  0  0
 25 27  1  0  0  0  0
M  CHG  1  15   1
M  END
$$$$
default_name
  -OEChem-02102213163D

 30 30  0     1  0  0  0  0  0999 V2000
   -3.5507   -3.2183    1.8116 H   0  0  0  0  0  0  0  0  0  0  0  0
   -3.4597   -2.3913    1.1076 C   0  0  0  0  0  0  0  0  0  0  0  0
   -4.1577   -1.6043    1.3866 H   0  0  0  0  0  0  0  0  0  0  0  0
   -3.6807   -2.7523    0.1036 H   0  0  0  0  0  0  0  0  0  0  0  0
   -2.0477   -1.8543    1.1546 C   0  0  0  0  0  0  0  0  0  0  0  0
   -1.2227   -2.3443    1.9146 O   0  0  0  0  0  0  0  0  0  0  0  0
   -1.7517   -0.8483    0.3266 N   0  0  0  0  0  0  0  0  0  0  0  0
   -2.4847   -0.5123   -0.2804 H   0  0  0  0  0  0  0  0  0  0  0  0
   -0.4117   -0.2463    0.2186 C   0  0  1  0  0  0  0  0  0  0  0  0
    0.2987   -1.0391   -0.0285 H   0  0  0  0  0  0  0  0  0  0  0  0
   -0.4131    0.7505   -0.9636 C   0  0  0  0  0  0  0  0  0  0  0  0
    0.5912    1.1692   -1.0672 H   0  0  0  0  0  0  0  0  0  0  0  0
   -0.6304    0.2071   -1.8857 H   0  0  0  0  0  0  0  0  0  0  0  0
   -1.4036    1.8893   -0.8441 C   0  0  0  0  0  0  0  0  0  0  0  0
   -1.2371    3.1517   -1.3797 N   0  3  0  0  0  0  0  0  0  0  0  0
   -0.4428    3.4148   -1.9702 H   0  0  0  0  0  0  0  0  0  0  0  0
   -2.3196    3.8922   -1.0688 C   0  0  0  0  0  0  0  0  0  0  0  0
   -2.4808    4.9267   -1.3651 H   0  0  0  0  0  0  0  0  0  0  0  0
   -3.1689    3.1272   -0.3464 N   0  0  0  0  0  0  0  0  0  0  0  0
   -4.0692    3.4209    0.0233 H   0  0  0  0  0  0  0  0  0  0  0  0
   -2.6089    1.8662   -0.1959 C   0  0  0  0  0  0  0  0  0  0  0  0
   -3.0364    1.0179    0.3316 H   0  0  0  0  0  0  0  0  0  0  0  0
    0.0470    0.3465    1.5629 C   0  0  0  0  0  0  0  0  0  0  0  0
    1.1854    0.1365    1.9846 O   0  0  0  0  0  0  0  0  0  0  0  0
   -0.8551    1.0750    2.2320 N   0  0  0  0  0  0  0  0  0  0  0  0
   -1.7594    1.2031    1.8040 H   0  0  0  0  0  0  0  0  0  0  0  0
   -0.6356    1.6998    3.5400 C   0  0  0  0  0  0  0  0  0  0  0  0
   -0.4284    2.7647    3.4168 H   0  0  0  0  0  0  0  0  0  0  0  0
   -1.5268    1.5885    4.1601 H   0  0  0  0  0  0  0  0  0  0  0  0
    0.2072    1.2358    4.0566 H   0  0  0  0  0  0  0  0  0  0  0  0
  5  6  2  0  0  0  0
  5  7  1  0  0  0  0
  2  3  1  0  0  0  0
  2  4  1  0  0  0  0
  2  5  1  0  0  0  0
  1  2  1  0  0  0  0
 23 24  2  0  0  0  0
 23 25  1  0  0  0  0
 21 22  1  0  0  0  0
 19 20  1  0  0  0  0
 19 21  1  0  0  0  0
 17 18  1  0  0  0  0
 17 19  1  0  0  0  0
 15 16  1  0  0  0  0
 15 17  2  0  0  0  0
 14 15  1  0  0  0  0
 14 21  2  0  0  0  0
 11 12  1  0  0  0  0
 11 13  1  0  0  0  0
 11 14  1  0  0  0  0
  9 10  1  0  0  0  0
  9 11  1  0  0  0  0
  9 23  1  0  0  0  0
  7  8  1  0  0  0  0
  7  9  1  0  0  0  0
 27 28  1  0  0  0  0
 27 29  1  0  0  0  0
 27 30  1  0  0  0  0
 25 26  1  0  0  0  0
 25 27  1  0  0  0  0
M  CHG  1  15   1
M  END
$$$$
default_name
  -OEChem-02102213163D

 30 30  0     1  0  0  0  0  0999 V2000
   -3.5507   -3.2183    1.8116 H   0  0  0  0  0  0  0  0  0  0  0  0
   -3.4597   -2.3913    1.1076 C   0  0  0  0  0  0  0  0  0  0  0  0
   -4.1577   -1.6043    1.3866 H   0  0  0  0  0  0  0  0  0  0  0  0
   -3.6807   -2.7523    0.1036 H   0  0  0  0  0  0  0  0  0  0  0  0
   -2.0477   -1.8543    1.1546 C   0  0  0  0  0  0  0  0  0  0  0  0
   -1.2227   -2.3443    1.9146 O   0  0  0  0  0  0  0  0  0  0  0  0
   -1.7517   -0.8483    0.3266 N   0  0  0  0  0  0  0  0  0  0  0  0
   -2.4847   -0.5123   -0.2804 H   0  0  0  0  0  0  0  0  0  0  0  0
   -0.4117   -0.2463    0.2186 C   0  0  1  0  0  0  0  0  0  0  0  0
    0.2987   -1.0391   -0.0285 H   0  0  0  0  0  0  0  0  0  0  0  0
   -0.4131    0.7505   -0.9636 C   0  0  0  0  0  0  0  0  0  0  0  0
    0.5912    1.1692   -1.0672 H   0  0  0  0  0  0  0  0  0  0  0  0
   -0.6304    0.2071   -1.8857 H   0  0  0  0  0  0  0  0  0  0  0  0
   -1.4036    1.8893   -0.8441 C   0  0  0  0  0  0  0  0  0  0  0  0
   -1.3906    3.0419   -1.6055 N   0  3  0  0  0  0  0  0  0  0  0  0
   -0.7355    3.2028   -2.3760 H   0  0  0  0  0  0  0  0  0  0  0  0
   -2.4196    3.8207   -1.2163 C   0  0  0  0  0  0  0  0  0  0  0  0
   -2.6733    4.7885   -1.6441 H   0  0  0  0  0  0  0  0  0  0  0  0
   -3.0846    3.1877   -0.2236 N   0  0  0  0  0  0  0  0  0  0  0  0
   -3.9069    3.5371    0.2614 H   0  0  0  0  0  0  0  0  0  0  0  0
   -2.4595    1.9731    0.0228 C   0  0  0  0  0  0  0  0  0  0  0  0
   -2.7453    1.2263    0.7583 H   0  0  0  0  0  0  0  0  0  0  0  0
    0.0470    0.3465    1.5629 C   0  0  0  0  0  0  0  0  0  0  0  0
    1.1854    0.1365    1.9846 O   0  0  0  0  0  0  0  0  0  0  0  0
   -0.8551    1.0750    2.2320 N   0  0  0  0  0  0  0  0  0  0  0  0
   -1.7594    1.2031    1.8040 H   0  0  0  0  0  0  0  0  0  0  0  0
   -0.6356    1.6998    3.5400 C   0  0  0  0  0  0  0  0  0  0  0  0
   -0.4284    2.7647    3.4168 H   0  0  0  0  0  0  0  0  0  0  0  0
   -1.5268    1.5885    4.1601 H   0  0  0  0  0  0  0  0  0  0  0  0
    0.2072    1.2358    4.0566 H   0  0  0  0  0  0  0  0  0  0  0  0
  5  6  2  0  0  0  0
  5  7  1  0  0  0  0
  2  3  1  0  0  0  0
  2  4  1  0  0  0  0
  2  5  1  0  0  0  0
  1  2  1  0  0  0  0
 23 24  2  0  0  0  0
 23 25  1  0  0  0  0
 21 22  1  0  0  0  0
 19 20  1  0  0  0  0
 19 21  1  0  0  0  0
 17 18  1  0  0  0  0
 17 19  1  0  0  0  0
 15 16  1  0  0  0  0
 15 17  2  0  0  0  0
 14 15  1  0  0  0  0
 14 21  2  0  0  0  0
 11 12  1  0  0  0  0
 11 13  1  0  0  0  0
 11 14  1  0  0  0  0
  9 10  1  0  0  0  0
  9 11  1  0  0  0  0
  9 23  1  0  0  0  0
  7  8  1  0  0  0  0
  7  9  1  0  0  0  0
 27 28  1  0  0  0  0
 27 29  1  0  0  0  0
 27 30  1  0  0  0  0
 25 26  1  0  0  0  0
 25 27  1  0  0  0  0
M  CHG  1  15   1
M  END
$$$$
default_name
  -OEChem-02102213163D

 30 30  0     1  0  0  0  0  0999 V2000
   -3.5507   -3.2183    1.8116 H   0  0  0  0  0  0  0  0  0  0  0  0
   -3.4597   -2.3913    1.1076 C   0  0  0  0  0  0  0  0  0  0  0  0
   -4.1577   -1.6043    1.3866 H   0  0  0  0  0  0  0  0  0  0  0  0
   -3.6807   -2.7523    0.1036 H   0  0  0  0  0  0  0  0  0  0  0  0
   -2.0477   -1.8543    1.1546 C   0  0  0  0  0  0  0  0  0  0  0  0
   -1.2227   -2.3443    1.9146 O   0  0  0  0  0  0  0  0  0  0  0  0
   -1.7517   -0.8483    0.3266 N   0  0  0  0  0  0  0  0  0  0  0  0
   -2.4847   -0.5123   -0.2804 H   0  0  0  0  0  0  0  0  0  0  0  0
   -0.4117   -0.2463    0.2186 C   0  0  1  0  0  0  0  0  0  0  0  0
    0.2987   -1.0391   -0.0285 H   0  0  0  0  0  0  0  0  0  0  0  0
   -0.4131    0.7505   -0.9636 C   0  0  0  0  0  0  0  0  0  0  0  0
    0.6225    0.9639   -1.2404 H   0  0  0  0  0  0  0  0  0  0  0  0
   -0.8844    0.2762   -1.8271 H   0  0  0  0  0  0  0  0  0  0  0  0
   -1.1245    2.0606   -0.7000 C   0  0  0  0  0  0  0  0  0  0  0  0
   -1.2521    3.0962   -1.6053 N   0  3  0  0  0  0  0  0  0  0  0  0
   -0.9254    3.0430   -2.5744 H   0  0  0  0  0  0  0  0  0  0  0  0
   -1.9431    4.0930   -1.0174 C   0  0  0  0  0  0  0  0  0  0  0  0
   -2.2115    5.0362   -1.4890 H   0  0  0  0  0  0  0  0  0  0  0  0
   -2.2558    3.7128    0.2420 N   0  0  0  0  0  0  0  0  0  0  0  0
   -2.7775    4.2628    0.9193 H   0  0  0  0  0  0  0  0  0  0  0  0
   -1.7491    2.4387    0.4578 C   0  0  0  0  0  0  0  0  0  0  0  0
   -1.8280    1.8472    1.3657 H   0  0  0  0  0  0  0  0  0  0  0  0
    0.0470    0.3465    1.5629 C   0  0  0  0  0  0  0  0  0  0  0  0
    1.1854    0.1365    1.9846 O   0  0  0  0  0  0  0  0  0  0  0  0
   -0.8551    1.0750    2.2320 N   0  0  0  0  0  0  0  0  0  0  0  0
   -1.7594    1.2031    1.8040 H   0  0  0  0  0  0  0  0  0  0  0  0
   -0.6356    1.6998    3.5400 C   0  0  0  0  0  0  0  0  0  0  0  0
   -0.4284    2.7647    3.4168 H   0  0  0  0  0  0  0  0  0  0  0  0
   -1.5268    1.5885    4.1601 H   0  0  0  0  0  0  0  0  0  0  0  0
    0.2072    1.2358    4.0566 H   0  0  0  0  0  0  0  0  0  0  0  0
  5  6  2  0  0  0  0
  5  7  1  0  0  0  0
  2  3  1  0  0  0  0
  2  4  1  0  0  0  0
  2  5  1  0  0  0  0
  1  2  1  0  0  0  0
 23 24  2  0  0  0  0
 23 25  1  0  0  0  0
 21 22  1  0  0  0  0
 19 20  1  0  0  0  0
 19 21  1  0  0  0  0
 17 18  1  0  0  0  0
 17 19  1  0  0  0  0
 15 16  1  0  0  0  0
 15 17  2  0  0  0  0
 14 15  1  0  0  0  0
 14 21  2  0  0  0  0
 11 12  1  0  0  0  0
 11 13  1  0  0  0  0
 11 14  1  0  0  0  0
  9 10  1  0  0  0  0
  9 11  1  0  0  0  0
  9 23  1  0  0  0  0
  7  8  1  0  0  0  0
  7  9  1  0  0  0  0
 27 28  1  0  0  0  0
 27 29  1  0  0  0  0
 27 30  1  0  0  0  0
 25 26  1  0  0  0  0
 25 27  1  0  0  0  0
M  CHG  1  15   1
M  END
$$$$
default_name
  -OEChem-02102213163D

 30 30  0     1  0  0  0  0  0999 V2000
   -3.5507   -3.2183    1.8116 H   0  0  0  0  0  0  0  0  0  0  0  0
   -3.4597   -2.3913    1.1076 C   0  0  0  0  0  0  0  0  0  0  0  0
   -4.1577   -1.6043    1.3866 H   0  0  0  0  0  0  0  0  0  0  0  0
   -3.6807   -2.7523    0.1036 H   0  0  0  0  0  0  0  0  0  0  0  0
   -2.0477   -1.8543    1.1546 C   0  0  0  0  0  0  0  0  0  0  0  0
   -1.2227   -2.3443    1.9146 O   0  0  0  0  0  0  0  0  0  0  0  0
   -1.7517   -0.8483    0.3266 N   0  0  0  0  0  0  0  0  0  0  0  0
   -2.4847   -0.5123   -0.2804 H   0  0  0  0  0  0  0  0  0  0  0  0
   -0.4117   -0.2463    0.2186 C   0  0  1  0  0  0  0  0  0  0  0  0
    0.2987   -1.0391   -0.0285 H   0  0  0  0  0  0  0  0  0  0  0  0
   -0.4131    0.7505   -0.9636 C   0  0  0  0  0  0  0  0  0  0  0  0
    0.6225    0.9639   -1.2404 H   0  0  0  0  0  0  0  0  0  0  0  0
   -0.8844    0.2762   -1.8271 H   0  0  0  0  0  0  0  0  0  0  0  0
   -1.1245    2.0606   -0.7000 C   0  0  0  0  0  0  0  0  0  0  0  0
   -1.5100    2.9686   -1.6671 N   0  3  0  0  0  0  0  0  0  0  0  0
   -1.4032    2.8032   -2.6721 H   0  0  0  0  0  0  0  0  0  0  0  0
   -2.1113    4.0098   -1.0581 C   0  0  0  0  0  0  0  0  0  0  0  0
   -2.5325    4.8767   -1.5631 H   0  0  0  0  0  0  0  0  0  0  0  0
   -2.1148    3.7827    0.2749 N   0  0  0  0  0  0  0  0  0  0  0  0
   -2.5053    4.3976    0.9841 H   0  0  0  0  0  0  0  0  0  0  0  0
   -1.4987    2.5628    0.5171 C   0  0  0  0  0  0  0  0  0  0  0  0
   -1.3399    2.0889    1.4819 H   0  0  0  0  0  0  0  0  0  0  0  0
    0.0470    0.3465    1.5629 C   0  0  0  0  0  0  0  0  0  0  0  0
    1.1854    0.1365    1.9846 O   0  0  0  0  0  0  0  0  0  0  0  0
   -0.8551    1.0750    2.2320 N   0  0  0  0  0  0  0  0  0  0  0  0
   -1.7594    1.2031    1.8040 H   0  0  0  0  0  0  0  0  0  0  0  0
   -0.6356    1.6998    3.5400 C   0  0  0  0  0  0  0  0  0  0  0  0
   -0.4284    2.7647    3.4168 H   0  0  0  0  0  0  0  0  0  0  0  0
   -1.5268    1.5885    4.1601 H   0  0  0  0  0  0  0  0  0  0  0  0
    0.2072    1.2358    4.0566 H   0  0  0  0  0  0  0  0  0  0  0  0
  5  6  2  0  0  0  0
  5  7  1  0  0  0  0
  2  3  1  0  0  0  0
  2  4  1  0  0  0  0
  2  5  1  0  0  0  0
  1  2  1  0  0  0  0
 23 24  2  0  0  0  0
 23 25  1  0  0  0  0
 21 22  1  0  0  0  0
 19 20  1  0  0  0  0
 19 21  1  0  0  0  0
 17 18  1  0  0  0  0
 17 19  1  0  0  0  0
 15 16  1  0  0  0  0
 15 17  2  0  0  0  0
 14 15  1  0  0  0  0
 14 21  2  0  0  0  0
 11 12  1  0  0  0  0
 11 13  1  0  0  0  0
 11 14  1  0  0  0  0
  9 10  1  0  0  0  0
  9 11  1  0  0  0  0
  9 23  1  0  0  0  0
  7  8  1  0  0  0  0
  7  9  1  0  0  0  0
 27 28  1  0  0  0  0
 27 29  1  0  0  0  0
 27 30  1  0  0  0  0
 25 26  1  0  0  0  0
 25 27  1  0  0  0  0
M  CHG  1  15   1
M  END
$$$$
default_name
  -OEChem-02102213163D

 30 30  0     1  0  0  0  0  0999 V2000
   -3.5507   -3.2183    1.8116 H   0  0  0  0  0  0  0  0  0  0  0  0
   -3.4597   -2.3913    1.1076 C   0  0  0  0  0  0  0  0  0  0  0  0
   -4.1577   -1.6043    1.3866 H   0  0  0  0  0  0  0  0  0  0  0  0
   -3.6807   -2.7523    0.1036 H   0  0  0  0  0  0  0  0  0  0  0  0
   -2.0477   -1.8543    1.1546 C   0  0  0  0  0  0  0  0  0  0  0  0
   -1.2227   -2.3443    1.9146 O   0  0  0  0  0  0  0  0  0  0  0  0
   -1.7517   -0.8483    0.3266 N   0  0  0  0  0  0  0  0  0  0  0  0
   -2.4847   -0.5123   -0.2804 H   0  0  0  0  0  0  0  0  0  0  0  0
   -0.4117   -0.2463    0.2186 C   0  0  1  0  0  0  0  0  0  0  0  0
    0.2987   -1.0391   -0.0285 H   0  0  0  0  0  0  0  0  0  0  0  0
   -0.4131    0.7505   -0.9636 C   0  0  0  0  0  0  0  0  0  0  0  0
    0.6225    0.9639   -1.2404 H   0  0  0  0  0  0  0  0  0  0  0  0
   -0.8844    0.2762   -1.8271 H   0  0  0  0  0  0  0  0  0  0  0  0
   -1.1245    2.0606   -0.7000 C   0  0  0  0  0  0  0  0  0  0  0  0
   -1.7672    2.8262   -1.6536 N   0  3  0  0  0  0  0  0  0  0  0  0
   -1.8757    2.5381   -2.6303 H   0  0  0  0  0  0  0  0  0  0  0  0
   -2.2792    3.9169   -1.0495 C   0  0  0  0  0  0  0  0  0  0  0  0
   -2.8520    4.6993   -1.5433 H   0  0  0  0  0  0  0  0  0  0  0  0
   -1.9744    3.8606    0.2667 N   0  0  0  0  0  0  0  0  0  0  0  0
   -2.2338    4.5480    0.9694 H   0  0  0  0  0  0  0  0  0  0  0  0
   -1.2492    2.7011    0.5033 C   0  0  0  0  0  0  0  0  0  0  0  0
   -0.8532    2.3585    1.4553 H   0  0  0  0  0  0  0  0  0  0  0  0
    0.0470    0.3465    1.5629 C   0  0  0  0  0  0  0  0  0  0  0  0
    1.1854    0.1365    1.9846 O   0  0  0  0  0  0  0  0  0  0  0  0
   -0.8551    1.0750    2.2320 N   0  0  0  0  0  0  0  0  0  0  0  0
   -1.7594    1.2031    1.8040 H   0  0  0  0  0  0  0  0  0  0  0  0
   -0.6356    1.6998    3.5400 C   0  0  0  0  0  0  0  0  0  0  0  0
   -0.4284    2.7647    3.4168 H   0  0  0  0  0  0  0  0  0  0  0  0
   -1.5268    1.5885    4.1601 H   0  0  0  0  0  0  0  0  0  0  0  0
    0.2072    1.2358    4.0566 H   0  0  0  0  0  0  0  0  0  0  0  0
  5  6  2  0  0  0  0
  5  7  1  0  0  0  0
  2  3  1  0  0  0  0
  2  4  1  0  0  0  0
  2  5  1  0  0  0  0
  1  2  1  0  0  0  0
 23 24  2  0  0  0  0
 23 25  1  0  0  0  0
 21 22  1  0  0  0  0
 19 20  1  0  0  0  0
 19 21  1  0  0  0  0
 17 18  1  0  0  0  0
 17 19  1  0  0  0  0
 15 16  1  0  0  0  0
 15 17  2  0  0  0  0
 14 15  1  0  0  0  0
 14 21  2  0  0  0  0
 11 12  1  0  0  0  0
 11 13  1  0  0  0  0
 11 14  1  0  0  0  0
  9 10  1  0  0  0  0
  9 11  1  0  0  0  0
  9 23  1  0  0  0  0
  7  8  1  0  0  0  0
  7  9  1  0  0  0  0
 27 28  1  0  0  0  0
 27 29  1  0  0  0  0
 27 30  1  0  0  0  0
 25 26  1  0  0  0  0
 25 27  1  0  0  0  0
M  CHG  1  15   1
M  END
$$$$
default_name
  -OEChem-02102213163D

 30 30  0     1  0  0  0  0  0999 V2000
   -3.5507   -3.2183    1.8116 H   0  0  0  0  0  0  0  0  0  0  0  0
   -3.4597   -2.3913    1.1076 C   0  0  0  0  0  0  0  0  0  0  0  0
   -4.1577   -1.6043    1.3866 H   0  0  0  0  0  0  0  0  0  0  0  0
   -3.6807   -2.7523    0.1036 H   0  0  0  0  0  0  0  0  0  0  0  0
   -2.0477   -1.8543    1.1546 C   0  0  0  0  0  0  0  0  0  0  0  0
   -1.2227   -2.3443    1.9146 O   0  0  0  0  0  0  0  0  0  0  0  0
   -1.7517   -0.8483    0.3266 N   0  0  0  0  0  0  0  0  0  0  0  0
   -2.4847   -0.5123   -0.2804 H   0  0  0  0  0  0  0  0  0  0  0  0
   -0.4117   -0.2463    0.2186 C   0  0  1  0  0  0  0  0  0  0  0  0
    0.2987   -1.0391   -0.0285 H   0  0  0  0  0  0  0  0  0  0  0  0
   -0.4131    0.7505   -0.9636 C   0  0  0  0  0  0  0  0  0  0  0  0
    0.6225    0.9639   -1.2404 H   0  0  0  0  0  0  0  0  0  0  0  0
   -0.8844    0.2762   -1.8271 H   0  0  0  0  0  0  0  0  0  0  0  0
   -1.1245    2.0606   -0.7000 C   0  0  0  0  0  0  0  0  0  0  0  0
   -2.0061    2.6787   -1.5655 N   0  3  0  0  0  0  0  0  0  0  0  0
   -2.3109    2.2659   -2.4518 H   0  0  0  0  0  0  0  0  0  0  0  0
   -2.4352    3.8207   -0.9924 C   0  0  0  0  0  0  0  0  0  0  0  0
   -3.1482    4.5159   -1.4311 H   0  0  0  0  0  0  0  0  0  0  0  0
   -1.8441    3.9412    0.2178 N   0  0  0  0  0  0  0  0  0  0  0  0
   -1.9818    4.7037    0.8760 H   0  0  0  0  0  0  0  0  0  0  0  0
   -1.0175    2.8442    0.4172 C   0  0  0  0  0  0  0  0  0  0  0  0
   -0.4013    2.6377    1.2879 H   0  0  0  0  0  0  0  0  0  0  0  0
    0.0470    0.3465    1.5629 C   0  0  0  0  0  0  0  0  0  0  0  0
    1.1854    0.1365    1.9846 O   0  0  0  0  0  0  0  0  0  0  0  0
   -0.8551    1.0750    2.2320 N   0  0  0  0  0  0  0  0  0  0  0  0
   -1.7594    1.2031    1.8040 H   0  0  0  0  0  0  0  0  0  0  0  0
   -0.6356    1.6998    3.5400 C   0  0  0  0  0  0  0  0  0  0  0  0
   -0.4284    2.7647    3.4168 H   0  0  0  0  0  0  0  0  0  0  0  0
   -1.5268    1.5885    4.1601 H   0  0  0  0  0  0  0  0  0  0  0  0
    0.2072    1.2358    4.0566 H   0  0  0  0  0  0  0  0  0  0  0  0
  5  6  2  0  0  0  0
  5  7  1  0  0  0  0
  2  3  1  0  0  0  0
  2  4  1  0  0  0  0
  2  5  1  0  0  0  0
  1  2  1  0  0  0  0
 23 24  2  0  0  0  0
 23 25  1  0  0  0  0
 21 22  1  0  0  0  0
 19 20  1  0  0  0  0
 19 21  1  0  0  0  0
 17 18  1  0  0  0  0
 17 19  1  0  0  0  0
 15 16  1  0  0  0  0
 15 17  2  0  0  0  0
 14 15  1  0  0  0  0
 14 21  2  0  0  0  0
 11 12  1  0  0  0  0
 11 13  1  0  0  0  0
 11 14  1  0  0  0  0
  9 10  1  0  0  0  0
  9 11  1  0  0  0  0
  9 23  1  0  0  0  0
  7  8  1  0  0  0  0
  7  9  1  0  0  0  0
 27 28  1  0  0  0  0
 27 29  1  0  0  0  0
 27 30  1  0  0  0  0
 25 26  1  0  0  0  0
 25 27  1  0  0  0  0
M  CHG  1  15   1
M  END
$$$$
default_name
  -OEChem-02102213163D

 30 30  0     1  0  0  0  0  0999 V2000
   -3.5507   -3.2183    1.8116 H   0  0  0  0  0  0  0  0  0  0  0  0
   -3.4597   -2.3913    1.1076 C   0  0  0  0  0  0  0  0  0  0  0  0
   -4.1577   -1.6043    1.3866 H   0  0  0  0  0  0  0  0  0  0  0  0
   -3.6807   -2.7523    0.1036 H   0  0  0  0  0  0  0  0  0  0  0  0
   -2.0477   -1.8543    1.1546 C   0  0  0  0  0  0  0  0  0  0  0  0
   -1.2227   -2.3443    1.9146 O   0  0  0  0  0  0  0  0  0  0  0  0
   -1.7517   -0.8483    0.3266 N   0  0  0  0  0  0  0  0  0  0  0  0
   -2.4847   -0.5123   -0.2804 H   0  0  0  0  0  0  0  0  0  0  0  0
   -0.4117   -0.2463    0.2186 C   0  0  1  0  0  0  0  0  0  0  0  0
    0.2987   -1.0391   -0.0285 H   0  0  0  0  0  0  0  0  0  0  0  0
   -0.4131    0.7505   -0.9636 C   0  0  0  0  0  0  0  0  0  0  0  0
    0.6225    0.9639   -1.2404 H   0  0  0  0  0  0  0  0  0  0  0  0
   -0.8844    0.2762   -1.8271 H   0  0  0  0  0  0  0  0  0  0  0  0
   -1.1245    2.0606   -0.7000 C   0  0  0  0  0  0  0  0  0  0  0  0
   -2.2106    2.5362   -1.4090 N   0  3  0  0  0  0  0  0  0  0  0  0
   -2.6789    2.0050   -2.1488 H   0  0  0  0  0  0  0  0  0  0  0  0
   -2.5688    3.7276   -0.8906 C   0  0  0  0  0  0  0  0  0  0  0  0
   -3.4008    4.3390   -1.2341 H   0  0  0  0  0  0  0  0  0  0  0  0
   -1.7329    4.0190    0.1315 N   0  0  0  0  0  0  0  0  0  0  0  0
   -1.7662    4.8540    0.7104 H   0  0  0  0  0  0  0  0  0  0  0  0
   -0.8194    2.9825    0.2647 C   0  0  0  0  0  0  0  0  0  0  0  0
   -0.0148    2.9073    0.9910 H   0  0  0  0  0  0  0  0  0  0  0  0
    0.0470    0.3465    1.5629 C   0  0  0  0  0  0  0  0  0  0  0  0
    1.1854    0.1365    1.9846 O   0  0  0  0  0  0  0  0  0  0  0  0
   -0.8551    1.0750    2.2320 N   0  0  0  0  0  0  0  0  0  0  0  0
   -1.7594    1.2031    1.8040 H   0  0  0  0  0  0  0  0  0  0  0  0
   -0.6356    1.6998    3.5400 C   0  0  0  0  0  0  0  0  0  0  0  0
   -0.4284    2.7647    3.4168 H   0  0  0  0  0  0  0  0  0  0  0  0
   -1.5268    1.5885    4.1601 H   0  0  0  0  0  0  0  0  0  0  0  0
    0.2072    1.2358    4.0566 H   0  0  0  0  0  0  0  0  0  0  0  0
  5  6  2  0  0  0  0
  5  7  1  0  0  0  0
  2  3  1  0  0  0  0
  2  4  1  0  0  0  0
  2  5  1  0  0  0  0
  1  2  1  0  0  0  0
 23 24  2  0  0  0  0
 23 25  1  0  0  0  0
 21 22  1  0  0  0  0
 19 20  1  0  0  0  0
 19 21  1  0  0  0  0
 17 18  1  0  0  0  0
 17 19  1  0  0  0  0
 15 16  1  0  0  0  0
 15 17  2  0  0  0  0
 14 15  1  0  0  0  0
 14 21  2  0  0  0  0
 11 12  1  0  0  0  0
 11 13  1  0  0  0  0
 11 14  1  0  0  0  0
  9 10  1  0  0  0  0
  9 11  1  0  0  0  0
  9 23  1  0  0  0  0
  7  8  1  0  0  0  0
  7  9  1  0  0  0  0
 27 28  1  0  0  0  0
 27 29  1  0  0  0  0
 27 30  1  0  0  0  0
 25 26  1  0  0  0  0
 25 27  1  0  0  0  0
M  CHG  1  15   1
M  END
$$$$
default_name
  -OEChem-02102213163D

 30 30  0     1  0  0  0  0  0999 V2000
   -3.5507   -3.2183    1.8116 H   0  0  0  0  0  0  0  0  0  0  0  0
   -3.4597   -2.3913    1.1076 C   0  0  0  0  0  0  0  0  0  0  0  0
   -4.1577   -1.6043    1.3866 H   0  0  0  0  0  0  0  0  0  0  0  0
   -3.6807   -2.7523    0.1036 H   0  0  0  0  0  0  0  0  0  0  0  0
   -2.0477   -1.8543    1.1546 C   0  0  0  0  0  0  0  0  0  0  0  0
   -1.2227   -2.3443    1.9146 O   0  0  0  0  0  0  0  0  0  0  0  0
   -1.7517   -0.8483    0.3266 N   0  0  0  0  0  0  0  0  0  0  0  0
   -2.4847   -0.5123   -0.2804 H   0  0  0  0  0  0  0  0  0  0  0  0
   -0.4117   -0.2463    0.2186 C   0  0  1  0  0  0  0  0  0  0  0  0
    0.2987   -1.0391   -0.0285 H   0  0  0  0  0  0  0  0  0  0  0  0
   -0.4131    0.7505   -0.9636 C   0  0  0  0  0  0  0  0  0  0  0  0
    0.6225    0.9639   -1.2404 H   0  0  0  0  0  0  0  0  0  0  0  0
   -0.8844    0.2762   -1.8271 H   0  0  0  0  0  0  0  0  0  0  0  0
   -1.1245    2.0606   -0.7000 C   0  0  0  0  0  0  0  0  0  0  0  0
   -2.3666    2.4083   -1.1947 N   0  3  0  0  0  0  0  0  0  0  0  0
   -2.9548    1.7733   -1.7420 H   0  0  0  0  0  0  0  0  0  0  0  0
   -2.6709    3.6441   -0.7509 C   0  0  0  0  0  0  0  0  0  0  0  0
   -3.5928    4.1807   -0.9657 H   0  0  0  0  0  0  0  0  0  0  0  0
   -1.6482    4.0887    0.0139 N   0  0  0  0  0  0  0  0  0  0  0  0
   -1.6018    4.9889    0.4839 H   0  0  0  0  0  0  0  0  0  0  0  0
   -0.6685    3.1064    0.0562 C   0  0  0  0  0  0  0  0  0  0  0  0
    0.2798    3.1490    0.5848 H   0  0  0  0  0  0  0  0  0  0  0  0
    0.0470    0.3465    1.5629 C   0  0  0  0  0  0  0  0  0  0  0  0
    1.1854    0.1365    1.9846 O   0  0  0  0  0  0  0  0  0  0  0  0
   -0.8551    1.0750    2.2320 N   0  0  0  0  0  0  0  0  0  0  0  0
   -1.7594    1.2031    1.8040 H   0  0  0  0  0  0  0  0  0  0  0  0
   -0.6356    1.6998    3.5400 C   0  0  0  0  0  0  0  0  0  0  0  0
   -0.4284    2.7647    3.4168 H   0  0  0  0  0  0  0  0  0  0  0  0
   -1.5268    1.5885    4.1601 H   0  0  0  0  0  0  0  0  0  0  0  0
    0.2072    1.2358    4.0566 H   0  0  0  0  0  0  0  0  0  0  0  0
  5  6  2  0  0  0  0
  5  7  1  0  0  0  0
  2  3  1  0  0  0  0
  2  4  1  0  0  0  0
  2  5  1  0  0  0  0
  1  2  1  0  0  0  0
 23 24  2  0  0  0  0
 23 25  1  0  0  0  0
 21 22  1  0  0  0  0
 19 20  1  0  0  0  0
 19 21  1  0  0  0  0
 17 18  1  0  0  0  0
 17 19  1  0  0  0  0
 15 16  1  0  0  0  0
 15 17  2  0  0  0  0
 14 15  1  0  0  0  0
 14 21  2  0  0  0  0
 11 12  1  0  0  0  0
 11 13  1  0  0  0  0
 11 14  1  0  0  0  0
  9 10  1  0  0  0  0
  9 11  1  0  0  0  0
  9 23  1  0  0  0  0
  7  8  1  0  0  0  0
  7  9  1  0  0  0  0
 27 28  1  0  0  0  0
 27 29  1  0  0  0  0
 27 30  1  0  0  0  0
 25 26  1  0  0  0  0
 25 27  1  0  0  0  0
M  CHG  1  15   1
M  END
$$$$
default_name
  -OEChem-02102213163D

 30 30  0     1  0  0  0  0  0999 V2000
   -3.5507   -3.2183    1.8116 H   0  0  0  0  0  0  0  0  0  0  0  0
   -3.4597   -2.3913    1.1076 C   0  0  0  0  0  0  0  0  0  0  0  0
   -4.1577   -1.6043    1.3866 H   0  0  0  0  0  0  0  0  0  0  0  0
   -3.6807   -2.7523    0.1036 H   0  0  0  0  0  0  0  0  0  0  0  0
   -2.0477   -1.8543    1.1546 C   0  0  0  0  0  0  0  0  0  0  0  0
   -1.2227   -2.3443    1.9146 O   0  0  0  0  0  0  0  0  0  0  0  0
   -1.7517   -0.8483    0.3266 N   0  0  0  0  0  0  0  0  0  0  0  0
   -2.4847   -0.5123   -0.2804 H   0  0  0  0  0  0  0  0  0  0  0  0
   -0.4117   -0.2463    0.2186 C   0  0  1  0  0  0  0  0  0  0  0  0
    0.2987   -1.0391   -0.0285 H   0  0  0  0  0  0  0  0  0  0  0  0
   -0.4131    0.7505   -0.9636 C   0  0  0  0  0  0  0  0  0  0  0  0
    0.6225    0.9639   -1.2404 H   0  0  0  0  0  0  0  0  0  0  0  0
   -0.8844    0.2762   -1.8271 H   0  0  0  0  0  0  0  0  0  0  0  0
   -1.1245    2.0606   -0.7000 C   0  0  0  0  0  0  0  0  0  0  0  0
   -2.4636    2.3039   -0.9372 N   0  3  0  0  0  0  0  0  0  0  0  0
   -3.1198    1.5866   -1.2590 H   0  0  0  0  0  0  0  0  0  0  0  0
   -2.7344    3.5758   -0.5831 C   0  0  0  0  0  0  0  0  0  0  0  0
   -3.7110    4.0518   -0.6442 H   0  0  0  0  0  0  0  0  0  0  0  0
   -1.5959    4.1454   -0.1272 N   0  0  0  0  0  0  0  0  0  0  0  0
   -1.4999    5.0990    0.2119 H   0  0  0  0  0  0  0  0  0  0  0  0
   -0.5749    3.2075   -0.1940 C   0  0  0  0  0  0  0  0  0  0  0  0
    0.4626    3.3464    0.0972 H   0  0  0  0  0  0  0  0  0  0  0  0
    0.0470    0.3465    1.5629 C   0  0  0  0  0  0  0  0  0  0  0  0
    1.1854    0.1365    1.9846 O   0  0  0  0  0  0  0  0  0  0  0  0
   -0.8551    1.0750    2.2320 N   0  0  0  0  0  0  0  0  0  0  0  0
   -1.7594    1.2031    1.8040 H   0  0  0  0  0  0  0  0  0  0  0  0
   -0.6356    1.6998    3.5400 C   0  0  0  0  0  0  0  0  0  0  0  0
   -0.4284    2.7647    3.4168 H   0  0  0  0  0  0  0  0  0  0  0  0
   -1.5268    1.5885    4.1601 H   0  0  0  0  0  0  0  0  0  0  0  0
    0.2072    1.2358    4.0566 H   0  0  0  0  0  0  0  0  0  0  0  0
  5  6  2  0  0  0  0
  5  7  1  0  0  0  0
  2  3  1  0  0  0  0
  2  4  1  0  0  0  0
  2  5  1  0  0  0  0
  1  2  1  0  0  0  0
 23 24  2  0  0  0  0
 23 25  1  0  0  0  0
 21 22  1  0  0  0  0
 19 20  1  0  0  0  0
 19 21  1  0  0  0  0
 17 18  1  0  0  0  0
 17 19  1  0  0  0  0
 15 16  1  0  0  0  0
 15 17  2  0  0  0  0
 14 15  1  0  0  0  0
 14 21  2  0  0  0  0
 11 12  1  0  0  0  0
 11 13  1  0  0  0  0
 11 14  1  0  0  0  0
  9 10  1  0  0  0  0
  9 11  1  0  0  0  0
  9 23  1  0  0  0  0
  7  8  1  0  0  0  0
  7  9  1  0  0  0  0
 27 28  1  0  0  0  0
 27 29  1  0  0  0  0
 27 30  1  0  0  0  0
 25 26  1  0  0  0  0
 25 27  1  0  0  0  0
M  CHG  1  15   1
M  END
$$$$
default_name
  -OEChem-02102213163D

 30 30  0     1  0  0  0  0  0999 V2000
   -3.5507   -3.2183    1.8116 H   0  0  0  0  0  0  0  0  0  0  0  0
   -3.4597   -2.3913    1.1076 C   0  0  0  0  0  0  0  0  0  0  0  0
   -4.1577   -1.6043    1.3866 H   0  0  0  0  0  0  0  0  0  0  0  0
   -3.6807   -2.7523    0.1036 H   0  0  0  0  0  0  0  0  0  0  0  0
   -2.0477   -1.8543    1.1546 C   0  0  0  0  0  0  0  0  0  0  0  0
   -1.2227   -2.3443    1.9146 O   0  0  0  0  0  0  0  0  0  0  0  0
   -1.7517   -0.8483    0.3266 N   0  0  0  0  0  0  0  0  0  0  0  0
   -2.4847   -0.5123   -0.2804 H   0  0  0  0  0  0  0  0  0  0  0  0
   -0.4117   -0.2463    0.2186 C   0  0  1  0  0  0  0  0  0  0  0  0
    0.2987   -1.0391   -0.0285 H   0  0  0  0  0  0  0  0  0  0  0  0
   -0.4131    0.7505   -0.9636 C   0  0  0  0  0  0  0  0  0  0  0  0
    0.6225    0.9639   -1.2404 H   0  0  0  0  0  0  0  0  0  0  0  0
   -0.8844    0.2762   -1.8271 H   0  0  0  0  0  0  0  0  0  0  0  0
   -1.1245    2.0606   -0.7000 C   0  0  0  0  0  0  0  0  0  0  0  0
   -2.4948    2.2299   -0.6541 N   0  3  0  0  0  0  0  0  0  0  0  0
   -3.1625    1.4575   -0.7329 H   0  0  0  0  0  0  0  0  0  0  0  0
   -2.7551    3.5274   -0.3984 C   0  0  0  0  0  0  0  0  0  0  0  0
   -3.7473    3.9611   -0.2915 H   0  0  0  0  0  0  0  0  0  0  0  0
   -1.5796    4.1855   -0.2821 N   0  0  0  0  0  0  0  0  0  0  0  0
   -1.4673    5.1769   -0.0871 H   0  0  0  0  0  0  0  0  0  0  0  0
   -0.5452    3.2790   -0.4689 C   0  0  0  0  0  0  0  0  0  0  0  0
    0.5210    3.4860   -0.4389 H   0  0  0  0  0  0  0  0  0  0  0  0
    0.0470    0.3465    1.5629 C   0  0  0  0  0  0  0  0  0  0  0  0
    1.1854    0.1365    1.9846 O   0  0  0  0  0  0  0  0  0  0  0  0
   -0.8551    1.0750    2.2320 N   0  0  0  0  0  0  0  0  0  0  0  0
   -1.7594    1.2031    1.8040 H   0  0  0  0  0  0  0  0  0  0  0  0
   -0.6356    1.6998    3.5400 C   0  0  0  0  0  0  0  0  0  0  0  0
   -0.4284    2.7647    3.4168 H   0  0  0  0  0  0  0  0  0  0  0  0
   -1.5268    1.5885    4.1601 H   0  0  0  0  0  0  0  0  0  0  0  0
    0.2072    1.2358    4.0566 H   0  0  0  0  0  0  0  0  0  0  0  0
  5  6  2  0  0  0  0
  5  7  1  0  0  0  0
  2  3  1  0  0  0  0
  2  4  1  0  0  0  0
  2  5  1  0  0  0  0
  1  2  1  0  0  0  0
 23 24  2  0  0  0  0
 23 25  1  0  0  0  0
 21 22  1  0  0  0  0
 19 20  1  0  0  0  0
 19 21  1  0  0  0  0
 17 18  1  0  0  0  0
 17 19  1  0  0  0  0
 15 16  1  0  0  0  0
 15 17  2  0  0  0  0
 14 15  1  0  0  0  0
 14 21  2  0  0  0  0
 11 12  1  0  0  0  0
 11 13  1  0  0  0  0
 11 14  1  0  0  0  0
  9 10  1  0  0  0  0
  9 11  1  0  0  0  0
  9 23  1  0  0  0  0
  7  8  1  0  0  0  0
  7  9  1  0  0  0  0
 27 28  1  0  0  0  0
 27 29  1  0  0  0  0
 27 30  1  0  0  0  0
 25 26  1  0  0  0  0
 25 27  1  0  0  0  0
M  CHG  1  15   1
M  END
$$$$
default_name
  -OEChem-02102213163D

 30 30  0     1  0  0  0  0  0999 V2000
   -3.5507   -3.2183    1.8116 H   0  0  0  0  0  0  0  0  0  0  0  0
   -3.4597   -2.3913    1.1076 C   0  0  0  0  0  0  0  0  0  0  0  0
   -4.1577   -1.6043    1.3866 H   0  0  0  0  0  0  0  0  0  0  0  0
   -3.6807   -2.7523    0.1036 H   0  0  0  0  0  0  0  0  0  0  0  0
   -2.0477   -1.8543    1.1546 C   0  0  0  0  0  0  0  0  0  0  0  0
   -1.2227   -2.3443    1.9146 O   0  0  0  0  0  0  0  0  0  0  0  0
   -1.7517   -0.8483    0.3266 N   0  0  0  0  0  0  0  0  0  0  0  0
   -2.4847   -0.5123   -0.2804 H   0  0  0  0  0  0  0  0  0  0  0  0
   -0.4117   -0.2463    0.2186 C   0  0  1  0  0  0  0  0  0  0  0  0
    0.2987   -1.0391   -0.0285 H   0  0  0  0  0  0  0  0  0  0  0  0
   -0.4131    0.7505   -0.9636 C   0  0  0  0  0  0  0  0  0  0  0  0
    0.6225    0.9639   -1.2404 H   0  0  0  0  0  0  0  0  0  0  0  0
   -0.8844    0.2762   -1.8271 H   0  0  0  0  0  0  0  0  0  0  0  0
   -1.1245    2.0606   -0.7000 C   0  0  0  0  0  0  0  0  0  0  0  0
   -2.4583    2.1915   -0.3646 N   0  3  0  0  0  0  0  0  0  0  0  0
   -3.0802    1.3948   -0.1994 H   0  0  0  0  0  0  0  0  0  0  0  0
   -2.7316    3.5022   -0.2095 C   0  0  0  0  0  0  0  0  0  0  0  0
   -3.6994    3.9148    0.0684 H   0  0  0  0  0  0  0  0  0  0  0  0
   -1.6003    4.2061   -0.4403 N   0  0  0  0  0  0  0  0  0  0  0  0
   -1.5062    5.2172   -0.3926 H   0  0  0  0  0  0  0  0  0  0  0  0
   -0.5813    3.3160   -0.7499 C   0  0  0  0  0  0  0  0  0  0  0  0
    0.4510    3.5583   -0.9867 H   0  0  0  0  0  0  0  0  0  0  0  0
    0.0470    0.3465    1.5629 C   0  0  0  0  0  0  0  0  0  0  0  0
    1.1854    0.1365    1.9846 O   0  0  0  0  0  0  0  0  0  0  0  0
   -0.8551    1.0750    2.2320 N   0  0  0  0  0  0  0  0  0  0  0  0
   -1.7594    1.2031    1.8040 H   0  0  0  0  0  0  0  0  0  0  0  0
   -0.6356    1.6998    3.5400 C   0  0  0  0  0  0  0  0  0  0  0  0
   -0.4284    2.7647    3.4168 H   0  0  0  0  0  0  0  0  0  0  0  0
   -1.5268    1.5885    4.1601 H   0  0  0  0  0  0  0  0  0  0  0  0
    0.2072    1.2358    4.0566 H   0  0  0  0  0  0  0  0  0  0  0  0
  5  6  2  0  0  0  0
  5  7  1  0  0  0  0
  2  3  1  0  0  0  0
  2  4  1  0  0  0  0
  2  5  1  0  0  0  0
  1  2  1  0  0  0  0
 23 24  2  0  0  0  0
 23 25  1  0  0  0  0
 21 22  1  0  0  0  0
 19 20  1  0  0  0  0
 19 21  1  0  0  0  0
 17 18  1  0  0  0  0
 17 19  1  0  0  0  0
 15 16  1  0  0  0  0
 15 17  2  0  0  0  0
 14 15  1  0  0  0  0
 14 21  2  0  0  0  0
 11 12  1  0  0  0  0
 11 13  1  0  0  0  0
 11 14  1  0  0  0  0
  9 10  1  0  0  0  0
  9 11  1  0  0  0  0
  9 23  1  0  0  0  0
  7  8  1  0  0  0  0
  7  9  1  0  0  0  0
 27 28  1  0  0  0  0
 27 29  1  0  0  0  0
 27 30  1  0  0  0  0
 25 26  1  0  0  0  0
 25 27  1  0  0  0  0
M  CHG  1  15   1
M  END
$$$$
default_name
  -OEChem-02102213163D

 30 30  0     1  0  0  0  0  0999 V2000
   -3.5507   -3.2183    1.8116 H   0  0  0  0  0  0  0  0  0  0  0  0
   -3.4597   -2.3913    1.1076 C   0  0  0  0  0  0  0  0  0  0  0  0
   -4.1577   -1.6043    1.3866 H   0  0  0  0  0  0  0  0  0  0  0  0
   -3.6807   -2.7523    0.1036 H   0  0  0  0  0  0  0  0  0  0  0  0
   -2.0477   -1.8543    1.1546 C   0  0  0  0  0  0  0  0  0  0  0  0
   -1.2227   -2.3443    1.9146 O   0  0  0  0  0  0  0  0  0  0  0  0
   -1.7517   -0.8483    0.3266 N   0  0  0  0  0  0  0  0  0  0  0  0
   -2.4847   -0.5123   -0.2804 H   0  0  0  0  0  0  0  0  0  0  0  0
   -0.4117   -0.2463    0.2186 C   0  0  1  0  0  0  0  0  0  0  0  0
    0.2987   -1.0391   -0.0285 H   0  0  0  0  0  0  0  0  0  0  0  0
   -0.4131    0.7505   -0.9636 C   0  0  0  0  0  0  0  0  0  0  0  0
    0.6225    0.9639   -1.2404 H   0  0  0  0  0  0  0  0  0  0  0  0
   -0.8844    0.2762   -1.8271 H   0  0  0  0  0  0  0  0  0  0  0  0
   -1.1245    2.0606   -0.7000 C   0  0  0  0  0  0  0  0  0  0  0  0
   -2.3564    2.1913   -0.0885 N   0  3  0  0  0  0  0  0  0  0  0  0
   -2.8783    1.4029    0.3051 H   0  0  0  0  0  0  0  0  0  0  0  0
   -2.6654    3.5019   -0.0292 C   0  0  0  0  0  0  0  0  0  0  0  0
   -3.5703    3.9159    0.4109 H   0  0  0  0  0  0  0  0  0  0  0  0
   -1.6567    4.2058   -0.5909 N   0  0  0  0  0  0  0  0  0  0  0  0
   -1.6142    5.2172   -0.6839 H   0  0  0  0  0  0  0  0  0  0  0  0
   -0.6807    3.3159   -1.0176 C   0  0  0  0  0  0  0  0  0  0  0  0
    0.2575    3.5583   -1.5089 H   0  0  0  0  0  0  0  0  0  0  0  0
    0.0470    0.3465    1.5629 C   0  0  0  0  0  0  0  0  0  0  0  0
    1.1854    0.1365    1.9846 O   0  0  0  0  0  0  0  0  0  0  0  0
   -0.8551    1.0750    2.2320 N   0  0  0  0  0  0  0  0  0  0  0  0
   -1.7594    1.2031    1.8040 H   0  0  0  0  0  0  0  0  0  0  0  0
   -0.6356    1.6998    3.5400 C   0  0  0  0  0  0  0  0  0  0  0  0
   -0.4284    2.7647    3.4168 H   0  0  0  0  0  0  0  0  0  0  0  0
   -1.5268    1.5885    4.1601 H   0  0  0  0  0  0  0  0  0  0  0  0
    0.2072    1.2358    4.0566 H   0  0  0  0  0  0  0  0  0  0  0  0
  5  6  2  0  0  0  0
  5  7  1  0  0  0  0
  2  3  1  0  0  0  0
  2  4  1  0  0  0  0
  2  5  1  0  0  0  0
  1  2  1  0  0  0  0
 23 24  2  0  0  0  0
 23 25  1  0  0  0  0
 21 22  1  0  0  0  0
 19 20  1  0  0  0  0
 19 21  1  0  0  0  0
 17 18  1  0  0  0  0
 17 19  1  0  0  0  0
 15 16  1  0  0  0  0
 15 17  2  0  0  0  0
 14 15  1  0  0  0  0
 14 21  2  0  0  0  0
 11 12  1  0  0  0  0
 11 13  1  0  0  0  0
 11 14  1  0  0  0  0
  9 10  1  0  0  0  0
  9 11  1  0  0  0  0
  9 23  1  0  0  0  0
  7  8  1  0  0  0  0
  7  9  1  0  0  0  0
 27 28  1  0  0  0  0
 27 29  1  0  0  0  0
 27 30  1  0  0  0  0
 25 26  1  0  0  0  0
 25 27  1  0  0  0  0
M  CHG  1  15   1
M  END
$$$$
default_name
  -OEChem-02102213163D

 30 30  0     1  0  0  0  0  0999 V2000
   -3.5507   -3.2183    1.8116 H   0  0  0  0  0  0  0  0  0  0  0  0
   -3.4597   -2.3913    1.1076 C   0  0  0  0  0  0  0  0  0  0  0  0
   -4.1577   -1.6043    1.3866 H   0  0  0  0  0  0  0  0  0  0  0  0
   -3.6807   -2.7523    0.1036 H   0  0  0  0  0  0  0  0  0  0  0  0
   -2.0477   -1.8543    1.1546 C   0  0  0  0  0  0  0  0  0  0  0  0
   -1.2227   -2.3443    1.9146 O   0  0  0  0  0  0  0  0  0  0  0  0
   -1.7517   -0.8483    0.3266 N   0  0  0  0  0  0  0  0  0  0  0  0
   -2.4847   -0.5123   -0.2804 H   0  0  0  0  0  0  0  0  0  0  0  0
   -0.4117   -0.2463    0.2186 C   0  0  1  0  0  0  0  0  0  0  0  0
    0.2987   -1.0391   -0.0285 H   0  0  0  0  0  0  0  0  0  0  0  0
   -0.4131    0.7505   -0.9636 C   0  0  0  0  0  0  0  0  0  0  0  0
    0.6225    0.9639   -1.2404 H   0  0  0  0  0  0  0  0  0  0  0  0
   -0.8844    0.2762   -1.8271 H   0  0  0  0  0  0  0  0  0  0  0  0
   -1.1245    2.0606   -0.7000 C   0  0  0  0  0  0  0  0  0  0  0  0
   -2.1961    2.2292    0.1554 N   0  3  0  0  0  0  0  0  0  0  0  0
   -2.5707    1.4812    0.7462 H   0  0  0  0  0  0  0  0  0  0  0  0
   -2.5610    3.5264    0.1302 C   0  0  0  0  0  0  0  0  0  0  0  0
   -3.3690    3.9645    0.7126 H   0  0  0  0  0  0  0  0  0  0  0  0
   -1.7448    4.1846   -0.7237 N   0  0  0  0  0  0  0  0  0  0  0  0
   -1.7836    5.1770   -0.9411 H   0  0  0  0  0  0  0  0  0  0  0  0
   -0.8367    3.2787   -1.2540 C   0  0  0  0  0  0  0  0  0  0  0  0
   -0.0464    3.4861   -1.9701 H   0  0  0  0  0  0  0  0  0  0  0  0
    0.0470    0.3465    1.5629 C   0  0  0  0  0  0  0  0  0  0  0  0
    1.1854    0.1365    1.9846 O   0  0  0  0  0  0  0  0  0  0  0  0
   -0.8551    1.0750    2.2320 N   0  0  0  0  0  0  0  0  0  0  0  0
   -1.7594    1.2031    1.8040 H   0  0  0  0  0  0  0  0  0  0  0  0
   -0.6356    1.6998    3.5400 C   0  0  0  0  0  0  0  0  0  0  0  0
   -0.4284    2.7647    3.4168 H   0  0  0  0  0  0  0  0  0  0  0  0
   -1.5268    1.5885    4.1601 H   0  0  0  0  0  0  0  0  0  0  0  0
    0.2072    1.2358    4.0566 H   0  0  0  0  0  0  0  0  0  0  0  0
  5  6  2  0  0  0  0
  5  7  1  0  0  0  0
  2  3  1  0  0  0  0
  2  4  1  0  0  0  0
  2  5  1  0  0  0  0
  1  2  1  0  0  0  0
 23 24  2  0  0  0  0
 23 25  1  0  0  0  0
 21 22  1  0  0  0  0
 19 20  1  0  0  0  0
 19 21  1  0  0  0  0
 17 18  1  0  0  0  0
 17 19  1  0  0  0  0
 15 16  1  0  0  0  0
 15 17  2  0  0  0  0
 14 15  1  0  0  0  0
 14 21  2  0  0  0  0
 11 12  1  0  0  0  0
 11 13  1  0  0  0  0
 11 14  1  0  0  0  0
  9 10  1  0  0  0  0
  9 11  1  0  0  0  0
  9 23  1  0  0  0  0
  7  8  1  0  0  0  0
  7  9  1  0  0  0  0
 27 28  1  0  0  0  0
 27 29  1  0  0  0  0
 27 30  1  0  0  0  0
 25 26  1  0  0  0  0
 25 27  1  0  0  0  0
M  CHG  1  15   1
M  END
$$$$
default_name
  -OEChem-02102213163D

 30 30  0     1  0  0  0  0  0999 V2000
   -3.5507   -3.2183    1.8116 H   0  0  0  0  0  0  0  0  0  0  0  0
   -3.4597   -2.3913    1.1076 C   0  0  0  0  0  0  0  0  0  0  0  0
   -4.1577   -1.6043    1.3866 H   0  0  0  0  0  0  0  0  0  0  0  0
   -3.6807   -2.7523    0.1036 H   0  0  0  0  0  0  0  0  0  0  0  0
   -2.0477   -1.8543    1.1546 C   0  0  0  0  0  0  0  0  0  0  0  0
   -1.2227   -2.3443    1.9146 O   0  0  0  0  0  0  0  0  0  0  0  0
   -1.7517   -0.8483    0.3266 N   0  0  0  0  0  0  0  0  0  0  0  0
   -2.4847   -0.5123   -0.2804 H   0  0  0  0  0  0  0  0  0  0  0  0
   -0.4117   -0.2463    0.2186 C   0  0  1  0  0  0  0  0  0  0  0  0
    0.2987   -1.0391   -0.0285 H   0  0  0  0  0  0  0  0  0  0  0  0
   -0.4131    0.7505   -0.9636 C   0  0  0  0  0  0  0  0  0  0  0  0
    0.6225    0.9639   -1.2404 H   0  0  0  0  0  0  0  0  0  0  0  0
   -0.8844    0.2762   -1.8271 H   0  0  0  0  0  0  0  0  0  0  0  0
   -1.1245    2.0606   -0.7000 C   0  0  0  0  0  0  0  0  0  0  0  0
   -1.9884    2.3027    0.3505 N   0  3  0  0  0  0  0  0  0  0  0  0
   -2.1783    1.6243    1.0938 H   0  0  0  0  0  0  0  0  0  0  0  0
   -2.4257    3.5743    0.2577 C   0  0  0  0  0  0  0  0  0  0  0  0
   -3.1092    4.0572    0.9531 H   0  0  0  0  0  0  0  0  0  0  0  0
   -1.8588    4.1441   -0.8297 N   0  0  0  0  0  0  0  0  0  0  0  0
   -2.0031    5.0991   -1.1467 H   0  0  0  0  0  0  0  0  0  0  0  0
   -1.0387    3.2070   -1.4428 C   0  0  0  0  0  0  0  0  0  0  0  0
   -0.4399    3.3466   -2.3386 H   0  0  0  0  0  0  0  0  0  0  0  0
    0.0470    0.3465    1.5629 C   0  0  0  0  0  0  0  0  0  0  0  0
    1.1854    0.1365    1.9846 O   0  0  0  0  0  0  0  0  0  0  0  0
   -0.8551    1.0750    2.2320 N   0  0  0  0  0  0  0  0  0  0  0  0
   -1.7594    1.2031    1.8040 H   0  0  0  0  0  0  0  0  0  0  0  0
   -0.6356    1.6998    3.5400 C   0  0  0  0  0  0  0  0  0  0  0  0
   -0.4284    2.7647    3.4168 H   0  0  0  0  0  0  0  0  0  0  0  0
   -1.5268    1.5885    4.1601 H   0  0  0  0  0  0  0  0  0  0  0  0
    0.2072    1.2358    4.0566 H   0  0  0  0  0  0  0  0  0  0  0  0
  5  6  2  0  0  0  0
  5  7  1  0  0  0  0
  2  3  1  0  0  0  0
  2  4  1  0  0  0  0
  2  5  1  0  0  0  0
  1  2  1  0  0  0  0
 23 24  2  0  0  0  0
 23 25  1  0  0  0  0
 21 22  1  0  0  0  0
 19 20  1  0  0  0  0
 19 21  1  0  0  0  0
 17 18  1  0  0  0  0
 17 19  1  0  0  0  0
 15 16  1  0  0  0  0
 15 17  2  0  0  0  0
 14 15  1  0  0  0  0
 14 21  2  0  0  0  0
 11 12  1  0  0  0  0
 11 13  1  0  0  0  0
 11 14  1  0  0  0  0
  9 10  1  0  0  0  0
  9 11  1  0  0  0  0
  9 23  1  0  0  0  0
  7  8  1  0  0  0  0
  7  9  1  0  0  0  0
 27 28  1  0  0  0  0
 27 29  1  0  0  0  0
 27 30  1  0  0  0  0
 25 26  1  0  0  0  0
 25 27  1  0  0  0  0
M  CHG  1  15   1
M  END
$$$$
default_name
  -OEChem-02102213163D

 30 30  0     1  0  0  0  0  0999 V2000
   -3.5507   -3.2183    1.8116 H   0  0  0  0  0  0  0  0  0  0  0  0
   -3.4597   -2.3913    1.1076 C   0  0  0  0  0  0  0  0  0  0  0  0
   -4.1577   -1.6043    1.3866 H   0  0  0  0  0  0  0  0  0  0  0  0
   -3.6807   -2.7523    0.1036 H   0  0  0  0  0  0  0  0  0  0  0  0
   -2.0477   -1.8543    1.1546 C   0  0  0  0  0  0  0  0  0  0  0  0
   -1.2227   -2.3443    1.9146 O   0  0  0  0  0  0  0  0  0  0  0  0
   -1.7517   -0.8483    0.3266 N   0  0  0  0  0  0  0  0  0  0  0  0
   -2.4847   -0.5123   -0.2804 H   0  0  0  0  0  0  0  0  0  0  0  0
   -0.4117   -0.2463    0.2186 C   0  0  1  0  0  0  0  0  0  0  0  0
    0.2987   -1.0391   -0.0285 H   0  0  0  0  0  0  0  0  0  0  0  0
   -0.4131    0.7505   -0.9636 C   0  0  0  0  0  0  0  0  0  0  0  0
    0.6225    0.9639   -1.2404 H   0  0  0  0  0  0  0  0  0  0  0  0
   -0.8844    0.2762   -1.8271 H   0  0  0  0  0  0  0  0  0  0  0  0
   -1.1245    2.0606   -0.7000 C   0  0  0  0  0  0  0  0  0  0  0  0
   -1.7474    2.4069    0.4835 N   0  3  0  0  0  0  0  0  0  0  0  0
   -1.7278    1.8225    1.3243 H   0  0  0  0  0  0  0  0  0  0  0  0
   -2.2685    3.6421    0.3448 C   0  0  0  0  0  0  0  0  0  0  0  0
   -2.8085    4.1877    1.1160 H   0  0  0  0  0  0  0  0  0  0  0  0
   -1.9908    4.0869   -0.9016 N   0  0  0  0  0  0  0  0  0  0  0  0
   -2.2577    4.9891   -1.2867 H   0  0  0  0  0  0  0  0  0  0  0  0
   -1.2729    3.1057   -1.5713 C   0  0  0  0  0  0  0  0  0  0  0  0
   -0.8963    3.1492   -2.5895 H   0  0  0  0  0  0  0  0  0  0  0  0
    0.0470    0.3465    1.5629 C   0  0  0  0  0  0  0  0  0  0  0  0
    1.1854    0.1365    1.9846 O   0  0  0  0  0  0  0  0  0  0  0  0
   -0.8551    1.0750    2.2320 N   0  0  0  0  0  0  0  0  0  0  0  0
   -1.7594    1.2031    1.8040 H   0  0  0  0  0  0  0  0  0  0  0  0
   -0.6356    1.6998    3.5400 C   0  0  0  0  0  0  0  0  0  0  0  0
   -0.4284    2.7647    3.4168 H   0  0  0  0  0  0  0  0  0  0  0  0
   -1.5268    1.5885    4.1601 H   0  0  0  0  0  0  0  0  0  0  0  0
    0.2072    1.2358    4.0566 H   0  0  0  0  0  0  0  0  0  0  0  0
  5  6  2  0  0  0  0
  5  7  1  0  0  0  0
  2  3  1  0  0  0  0
  2  4  1  0  0  0  0
  2  5  1  0  0  0  0
  1  2  1  0  0  0  0
 23 24  2  0  0  0  0
 23 25  1  0  0  0  0
 21 22  1  0  0  0  0
 19 20  1  0  0  0  0
 19 21  1  0  0  0  0
 17 18  1  0  0  0  0
 17 19  1  0  0  0  0
 15 16  1  0  0  0  0
 15 17  2  0  0  0  0
 14 15  1  0  0  0  0
 14 21  2  0  0  0  0
 11 12  1  0  0  0  0
 11 13  1  0  0  0  0
 11 14  1  0  0  0  0
  9 10  1  0  0  0  0
  9 11  1  0  0  0  0
  9 23  1  0  0  0  0
  7  8  1  0  0  0  0
  7  9  1  0  0  0  0
 27 28  1  0  0  0  0
 27 29  1  0  0  0  0
 27 30  1  0  0  0  0
 25 26  1  0  0  0  0
 25 27  1  0  0  0  0
M  CHG  1  15   1
M  END
$$$$
default_name
  -OEChem-02102213163D

 30 30  0     1  0  0  0  0  0999 V2000
   -3.5507   -3.2183    1.8116 H   0  0  0  0  0  0  0  0  0  0  0  0
   -3.4597   -2.3913    1.1076 C   0  0  0  0  0  0  0  0  0  0  0  0
   -4.1577   -1.6043    1.3866 H   0  0  0  0  0  0  0  0  0  0  0  0
   -3.6807   -2.7523    0.1036 H   0  0  0  0  0  0  0  0  0  0  0  0
   -2.0477   -1.8543    1.1546 C   0  0  0  0  0  0  0  0  0  0  0  0
   -1.2227   -2.3443    1.9146 O   0  0  0  0  0  0  0  0  0  0  0  0
   -1.7517   -0.8483    0.3266 N   0  0  0  0  0  0  0  0  0  0  0  0
   -2.4847   -0.5123   -0.2804 H   0  0  0  0  0  0  0  0  0  0  0  0
   -0.4117   -0.2463    0.2186 C   0  0  1  0  0  0  0  0  0  0  0  0
    0.2987   -1.0391   -0.0285 H   0  0  0  0  0  0  0  0  0  0  0  0
   -0.4131    0.7505   -0.9636 C   0  0  0  0  0  0  0  0  0  0  0  0
    0.6225    0.9639   -1.2404 H   0  0  0  0  0  0  0  0  0  0  0  0
   -0.8844    0.2762   -1.8271 H   0  0  0  0  0  0  0  0  0  0  0  0
   -1.1245    2.0606   -0.7000 C   0  0  0  0  0  0  0  0  0  0  0  0
   -1.4895    2.5345    0.5453 N   0  3  0  0  0  0  0  0  0  0  0  0
   -1.2501    2.0623    1.4220 H   0  0  0  0  0  0  0  0  0  0  0  0
   -2.1003    3.7253    0.3854 C   0  0  0  0  0  0  0  0  0  0  0  0
   -2.4875    4.3471    1.1901 H   0  0  0  0  0  0  0  0  0  0  0  0
   -2.1318    4.0169   -0.9346 N   0  0  0  0  0  0  0  0  0  0  0  0
   -2.5300    4.8543   -1.3515 H   0  0  0  0  0  0  0  0  0  0  0  0
   -1.5232    2.9817   -1.6306 C   0  0  0  0  0  0  0  0  0  0  0  0
   -1.3845    2.9075   -2.7057 H   0  0  0  0  0  0  0  0  0  0  0  0
    0.0470    0.3465    1.5629 C   0  0  0  0  0  0  0  0  0  0  0  0
    1.1854    0.1365    1.9846 O   0  0  0  0  0  0  0  0  0  0  0  0
   -0.8551    1.0750    2.2320 N   0  0  0  0  0  0  0  0  0  0  0  0
   -1.7594    1.2031    1.8040 H   0  0  0  0  0  0  0  0  0  0  0  0
   -0.6356    1.6998    3.5400 C   0  0  0  0  0  0  0  0  0  0  0  0
   -0.4284    2.7647    3.4168 H   0  0  0  0  0  0  0  0  0  0  0  0
   -1.5268    1.5885    4.1601 H   0  0  0  0  0  0  0  0  0  0  0  0
    0.2072    1.2358    4.0566 H   0  0  0  0  0  0  0  0  0  0  0  0
  5  6  2  0  0  0  0
  5  7  1  0  0  0  0
  2  3  1  0  0  0  0
  2  4  1  0  0  0  0
  2  5  1  0  0  0  0
  1  2  1  0  0  0  0
 23 24  2  0  0  0  0
 23 25  1  0  0  0  0
 21 22  1  0  0  0  0
 19 20  1  0  0  0  0
 19 21  1  0  0  0  0
 17 18  1  0  0  0  0
 17 19  1  0  0  0  0
 15 16  1  0  0  0  0
 15 17  2  0  0  0  0
 14 15  1  0  0  0  0
 14 21  2  0  0  0  0
 11 12  1  0  0  0  0
 11 13  1  0  0  0  0
 11 14  1  0  0  0  0
  9 10  1  0  0  0  0
  9 11  1  0  0  0  0
  9 23  1  0  0  0  0
  7  8  1  0  0  0  0
  7  9  1  0  0  0  0
 27 28  1  0  0  0  0
 27 29  1  0  0  0  0
 27 30  1  0  0  0  0
 25 26  1  0  0  0  0
 25 27  1  0  0  0  0
M  CHG  1  15   1
M  END
$$$$
default_name
  -OEChem-02102213163D

 30 30  0     1  0  0  0  0  0999 V2000
   -3.5507   -3.2183    1.8116 H   0  0  0  0  0  0  0  0  0  0  0  0
   -3.4597   -2.3913    1.1076 C   0  0  0  0  0  0  0  0  0  0  0  0
   -4.1577   -1.6043    1.3866 H   0  0  0  0  0  0  0  0  0  0  0  0
   -3.6807   -2.7523    0.1036 H   0  0  0  0  0  0  0  0  0  0  0  0
   -2.0477   -1.8543    1.1546 C   0  0  0  0  0  0  0  0  0  0  0  0
   -1.2227   -2.3443    1.9146 O   0  0  0  0  0  0  0  0  0  0  0  0
   -1.7517   -0.8483    0.3266 N   0  0  0  0  0  0  0  0  0  0  0  0
   -2.4847   -0.5123   -0.2804 H   0  0  0  0  0  0  0  0  0  0  0  0
   -0.4117   -0.2463    0.2186 C   0  0  1  0  0  0  0  0  0  0  0  0
    0.2987   -1.0391   -0.0285 H   0  0  0  0  0  0  0  0  0  0  0  0
   -0.4131    0.7505   -0.9636 C   0  0  0  0  0  0  0  0  0  0  0  0
    0.6225    0.9639   -1.2404 H   0  0  0  0  0  0  0  0  0  0  0  0
   -0.8844    0.2762   -1.8271 H   0  0  0  0  0  0  0  0  0  0  0  0
   -1.1245    2.0606   -0.7000 C   0  0  0  0  0  0  0  0  0  0  0  0
   -1.2323    2.6769    0.5317 N   0  3  0  0  0  0  0  0  0  0  0  0
   -0.7775    2.3274    1.3801 H   0  0  0  0  0  0  0  0  0  0  0  0
   -1.9324    3.8182    0.3769 C   0  0  0  0  0  0  0  0  0  0  0  0
   -2.1680    4.5246    1.1703 H   0  0  0  0  0  0  0  0  0  0  0  0
   -2.2722    3.9390   -0.9263 N   0  0  0  0  0  0  0  0  0  0  0  0
   -2.8014    4.7039   -1.3367 H   0  0  0  0  0  0  0  0  0  0  0  0
   -1.7728    2.8434   -1.6168 C   0  0  0  0  0  0  0  0  0  0  0  0
   -1.8711    2.6379   -2.6791 H   0  0  0  0  0  0  0  0  0  0  0  0
    0.0470    0.3465    1.5629 C   0  0  0  0  0  0  0  0  0  0  0  0
    1.1854    0.1365    1.9846 O   0  0  0  0  0  0  0  0  0  0  0  0
   -0.8551    1.0750    2.2320 N   0  0  0  0  0  0  0  0  0  0  0  0
   -1.7594    1.2031    1.8040 H   0  0  0  0  0  0  0  0  0  0  0  0
   -0.6356    1.6998    3.5400 C   0  0  0  0  0  0  0  0  0  0  0  0
   -0.4284    2.7647    3.4168 H   0  0  0  0  0  0  0  0  0  0  0  0
   -1.5268    1.5885    4.1601 H   0  0  0  0  0  0  0  0  0  0  0  0
    0.2072    1.2358    4.0566 H   0  0  0  0  0  0  0  0  0  0  0  0
  5  6  2  0  0  0  0
  5  7  1  0  0  0  0
  2  3  1  0  0  0  0
  2  4  1  0  0  0  0
  2  5  1  0  0  0  0
  1  2  1  0  0  0  0
 23 24  2  0  0  0  0
 23 25  1  0  0  0  0
 21 22  1  0  0  0  0
 19 20  1  0  0  0  0
 19 21  1  0  0  0  0
 17 18  1  0  0  0  0
 17 19  1  0  0  0  0
 15 16  1  0  0  0  0
 15 17  2  0  0  0  0
 14 15  1  0  0  0  0
 14 21  2  0  0  0  0
 11 12  1  0  0  0  0
 11 13  1  0  0  0  0
 11 14  1  0  0  0  0
  9 10  1  0  0  0  0
  9 11  1  0  0  0  0
  9 23  1  0  0  0  0
  7  8  1  0  0  0  0
  7  9  1  0  0  0  0
 27 28  1  0  0  0  0
 27 29  1  0  0  0  0
 27 30  1  0  0  0  0
 25 26  1  0  0  0  0
 25 27  1  0  0  0  0
M  CHG  1  15   1
M  END
$$$$
default_name
  -OEChem-02102213163D

 30 30  0     1  0  0  0  0  0999 V2000
   -3.5507   -3.2183    1.8116 H   0  0  0  0  0  0  0  0  0  0  0  0
   -3.4597   -2.3913    1.1076 C   0  0  0  0  0  0  0  0  0  0  0  0
   -4.1577   -1.6043    1.3866 H   0  0  0  0  0  0  0  0  0  0  0  0
   -3.6807   -2.7523    0.1036 H   0  0  0  0  0  0  0  0  0  0  0  0
   -2.0477   -1.8543    1.1546 C   0  0  0  0  0  0  0  0  0  0  0  0
   -1.2227   -2.3443    1.9146 O   0  0  0  0  0  0  0  0  0  0  0  0
   -1.7517   -0.8483    0.3266 N   0  0  0  0  0  0  0  0  0  0  0  0
   -2.4847   -0.5123   -0.2804 H   0  0  0  0  0  0  0  0  0  0  0  0
   -0.4117   -0.2463    0.2186 C   0  0  1  0  0  0  0  0  0  0  0  0
    0.2987   -1.0391   -0.0285 H   0  0  0  0  0  0  0  0  0  0  0  0
   -0.4131    0.7505   -0.9636 C   0  0  0  0  0  0  0  0  0  0  0  0
    0.6225    0.9639   -1.2404 H   0  0  0  0  0  0  0  0  0  0  0  0
   -0.8844    0.2762   -1.8271 H   0  0  0  0  0  0  0  0  0  0  0  0
   -1.1245    2.0606   -0.7000 C   0  0  0  0  0  0  0  0  0  0  0  0
   -0.9933    2.8244    0.4437 N   0  3  0  0  0  0  0  0  0  0  0  0
   -0.3424    2.5996    1.2016 H   0  0  0  0  0  0  0  0  0  0  0  0
   -1.7763    3.9144    0.3198 C   0  0  0  0  0  0  0  0  0  0  0  0
   -1.8719    4.7080    1.0581 H   0  0  0  0  0  0  0  0  0  0  0  0
   -2.4025    3.8584   -0.8774 N   0  0  0  0  0  0  0  0  0  0  0  0
   -3.0535    4.5482   -1.2434 H   0  0  0  0  0  0  0  0  0  0  0  0
   -2.0045    2.7002   -1.5307 C   0  0  0  0  0  0  0  0  0  0  0  0
   -2.3230    2.3587   -2.5117 H   0  0  0  0  0  0  0  0  0  0  0  0
    0.0470    0.3465    1.5629 C   0  0  0  0  0  0  0  0  0  0  0  0
    1.1854    0.1365    1.9846 O   0  0  0  0  0  0  0  0  0  0  0  0
   -0.8551    1.0750    2.2320 N   0  0  0  0  0  0  0  0  0  0  0  0
   -1.7594    1.2031    1.8040 H   0  0  0  0  0  0  0  0  0  0  0  0
   -0.6356    1.6998    3.5400 C   0  0  0  0  0  0  0  0  0  0  0  0
   -0.4284    2.7647    3.4168 H   0  0  0  0  0  0  0  0  0  0  0  0
   -1.5268    1.5885    4.1601 H   0  0  0  0  0  0  0  0  0  0  0  0
    0.2072    1.2358    4.0566 H   0  0  0  0  0  0  0  0  0  0  0  0
  5  6  2  0  0  0  0
  5  7  1  0  0  0  0
  2  3  1  0  0  0  0
  2  4  1  0  0  0  0
  2  5  1  0  0  0  0
  1  2  1  0  0  0  0
 23 24  2  0  0  0  0
 23 25  1  0  0  0  0
 21 22  1  0  0  0  0
 19 20  1  0  0  0  0
 19 21  1  0  0  0  0
 17 18  1  0  0  0  0
 17 19  1  0  0  0  0
 15 16  1  0  0  0  0
 15 17  2  0  0  0  0
 14 15  1  0  0  0  0
 14 21  2  0  0  0  0
 11 12  1  0  0  0  0
 11 13  1  0  0  0  0
 11 14  1  0  0  0  0
  9 10  1  0  0  0  0
  9 11  1  0  0  0  0
  9 23  1  0  0  0  0
  7  8  1  0  0  0  0
  7  9  1  0  0  0  0
 27 28  1  0  0  0  0
 27 29  1  0  0  0  0
 27 30  1  0  0  0  0
 25 26  1  0  0  0  0
 25 27  1  0  0  0  0
M  CHG  1  15   1
M  END
$$$$
default_name
  -OEChem-02102213163D

 30 30  0     1  0  0  0  0  0999 V2000
   -3.5507   -3.2183    1.8116 H   0  0  0  0  0  0  0  0  0  0  0  0
   -3.4597   -2.3913    1.1076 C   0  0  0  0  0  0  0  0  0  0  0  0
   -4.1577   -1.6043    1.3866 H   0  0  0  0  0  0  0  0  0  0  0  0
   -3.6807   -2.7523    0.1036 H   0  0  0  0  0  0  0  0  0  0  0  0
   -2.0477   -1.8543    1.1546 C   0  0  0  0  0  0  0  0  0  0  0  0
   -1.2227   -2.3443    1.9146 O   0  0  0  0  0  0  0  0  0  0  0  0
   -1.7517   -0.8483    0.3266 N   0  0  0  0  0  0  0  0  0  0  0  0
   -2.4847   -0.5123   -0.2804 H   0  0  0  0  0  0  0  0  0  0  0  0
   -0.4117   -0.2463    0.2186 C   0  0  1  0  0  0  0  0  0  0  0  0
    0.2987   -1.0391   -0.0285 H   0  0  0  0  0  0  0  0  0  0  0  0
   -0.4131    0.7505   -0.9636 C   0  0  0  0  0  0  0  0  0  0  0  0
    0.6225    0.9639   -1.2404 H   0  0  0  0  0  0  0  0  0  0  0  0
   -0.8844    0.2762   -1.8271 H   0  0  0  0  0  0  0  0  0  0  0  0
   -1.1245    2.0606   -0.7000 C   0  0  0  0  0  0  0  0  0  0  0  0
   -0.7889    2.9669    0.2872 N   0  3  0  0  0  0  0  0  0  0  0  0
    0.0257    2.8605    0.8986 H   0  0  0  0  0  0  0  0  0  0  0  0
   -1.6427    4.0075    0.2179 C   0  0  0  0  0  0  0  0  0  0  0  0
   -1.6192    4.8849    0.8611 H   0  0  0  0  0  0  0  0  0  0  0  0
   -2.5138    3.7806   -0.7912 N   0  0  0  0  0  0  0  0  0  0  0  0
   -3.2690    4.3978   -1.0778 H   0  0  0  0  0  0  0  0  0  0  0  0
   -2.2025    2.5620   -1.3782 C   0  0  0  0  0  0  0  0  0  0  0  0
   -2.7095    2.0891   -2.2148 H   0  0  0  0  0  0  0  0  0  0  0  0
    0.0470    0.3465    1.5629 C   0  0  0  0  0  0  0  0  0  0  0  0
    1.1854    0.1365    1.9846 O   0  0  0  0  0  0  0  0  0  0  0  0
   -0.8551    1.0750    2.2320 N   0  0  0  0  0  0  0  0  0  0  0  0
   -1.7594    1.2031    1.8040 H   0  0  0  0  0  0  0  0  0  0  0  0
   -0.6356    1.6998    3.5400 C   0  0  0  0  0  0  0  0  0  0  0  0
   -0.4284    2.7647    3.4168 H   0  0  0  0  0  0  0  0  0  0  0  0
   -1.5268    1.5885    4.1601 H   0  0  0  0  0  0  0  0  0  0  0  0
    0.2072    1.2358    4.0566 H   0  0  0  0  0  0  0  0  0  0  0  0
  5  6  2  0  0  0  0
  5  7  1  0  0  0  0
  2  3  1  0  0  0  0
  2  4  1  0  0  0  0
  2  5  1  0  0  0  0
  1  2  1  0  0  0  0
 23 24  2  0  0  0  0
 23 25  1  0  0  0  0
 21 22  1  0  0  0  0
 19 20  1  0  0  0  0
 19 21  1  0  0  0  0
 17 18  1  0  0  0  0
 17 19  1  0  0  0  0
 15 16  1  0  0  0  0
 15 17  2  0  0  0  0
 14 15  1  0  0  0  0
 14 21  2  0  0  0  0
 11 12  1  0  0  0  0
 11 13  1  0  0  0  0
 11 14  1  0  0  0  0
  9 10  1  0  0  0  0
  9 11  1  0  0  0  0
  9 23  1  0  0  0  0
  7  8  1  0  0  0  0
  7  9  1  0  0  0  0
 27 28  1  0  0  0  0
 27 29  1  0  0  0  0
 27 30  1  0  0  0  0
 25 26  1  0  0  0  0
 25 27  1  0  0  0  0
M  CHG  1  15   1
M  END
$$$$
default_name
  -OEChem-02102213163D

 30 30  0     1  0  0  0  0  0999 V2000
   -3.5507   -3.2183    1.8116 H   0  0  0  0  0  0  0  0  0  0  0  0
   -3.4597   -2.3913    1.1076 C   0  0  0  0  0  0  0  0  0  0  0  0
   -4.1577   -1.6043    1.3866 H   0  0  0  0  0  0  0  0  0  0  0  0
   -3.6807   -2.7523    0.1036 H   0  0  0  0  0  0  0  0  0  0  0  0
   -2.0477   -1.8543    1.1546 C   0  0  0  0  0  0  0  0  0  0  0  0
   -1.2227   -2.3443    1.9146 O   0  0  0  0  0  0  0  0  0  0  0  0
   -1.7517   -0.8483    0.3266 N   0  0  0  0  0  0  0  0  0  0  0  0
   -2.4847   -0.5123   -0.2804 H   0  0  0  0  0  0  0  0  0  0  0  0
   -0.4117   -0.2463    0.2186 C   0  0  1  0  0  0  0  0  0  0  0  0
    0.2987   -1.0391   -0.0285 H   0  0  0  0  0  0  0  0  0  0  0  0
   -0.4131    0.7505   -0.9636 C   0  0  0  0  0  0  0  0  0  0  0  0
    0.6225    0.9639   -1.2404 H   0  0  0  0  0  0  0  0  0  0  0  0
   -0.8844    0.2762   -1.8271 H   0  0  0  0  0  0  0  0  0  0  0  0
   -1.1245    2.0606   -0.7000 C   0  0  0  0  0  0  0  0  0  0  0  0
   -0.6328    3.0947    0.0729 N   0  3  0  0  0  0  0  0  0  0  0  0
    0.3016    3.0922    0.4918 H   0  0  0  0  0  0  0  0  0  0  0  0
   -1.5407    4.0910    0.0783 C   0  0  0  0  0  0  0  0  0  0  0  0
   -1.4272    5.0431    0.5927 H   0  0  0  0  0  0  0  0  0  0  0  0
   -2.5984    3.7110   -0.6735 N   0  0  0  0  0  0  0  0  0  0  0  0
   -3.4334    4.2630   -0.8513 H   0  0  0  0  0  0  0  0  0  0  0  0
   -2.3535    2.4381   -1.1697 C   0  0  0  0  0  0  0  0  0  0  0  0
   -3.0041    1.8474   -1.8086 H   0  0  0  0  0  0  0  0  0  0  0  0
    0.0470    0.3465    1.5629 C   0  0  0  0  0  0  0  0  0  0  0  0
    1.1854    0.1365    1.9846 O   0  0  0  0  0  0  0  0  0  0  0  0
   -0.8551    1.0750    2.2320 N   0  0  0  0  0  0  0  0  0  0  0  0
   -1.7594    1.2031    1.8040 H   0  0  0  0  0  0  0  0  0  0  0  0
   -0.6356    1.6998    3.5400 C   0  0  0  0  0  0  0  0  0  0  0  0
   -0.4284    2.7647    3.4168 H   0  0  0  0  0  0  0  0  0  0  0  0
   -1.5268    1.5885    4.1601 H   0  0  0  0  0  0  0  0  0  0  0  0
    0.2072    1.2358    4.0566 H   0  0  0  0  0  0  0  0  0  0  0  0
  5  6  2  0  0  0  0
  5  7  1  0  0  0  0
  2  3  1  0  0  0  0
  2  4  1  0  0  0  0
  2  5  1  0  0  0  0
  1  2  1  0  0  0  0
 23 24  2  0  0  0  0
 23 25  1  0  0  0  0
 21 22  1  0  0  0  0
 19 20  1  0  0  0  0
 19 21  1  0  0  0  0
 17 18  1  0  0  0  0
 17 19  1  0  0  0  0
 15 16  1  0  0  0  0
 15 17  2  0  0  0  0
 14 15  1  0  0  0  0
 14 21  2  0  0  0  0
 11 12  1  0  0  0  0
 11 13  1  0  0  0  0
 11 14  1  0  0  0  0
  9 10  1  0  0  0  0
  9 11  1  0  0  0  0
  9 23  1  0  0  0  0
  7  8  1  0  0  0  0
  7  9  1  0  0  0  0
 27 28  1  0  0  0  0
 27 29  1  0  0  0  0
 27 30  1  0  0  0  0
 25 26  1  0  0  0  0
 25 27  1  0  0  0  0
M  CHG  1  15   1
M  END
$$$$
default_name
  -OEChem-02102213163D

 30 30  0     1  0  0  0  0  0999 V2000
   -3.5507   -3.2183    1.8116 H   0  0  0  0  0  0  0  0  0  0  0  0
   -3.4597   -2.3913    1.1076 C   0  0  0  0  0  0  0  0  0  0  0  0
   -4.1577   -1.6043    1.3866 H   0  0  0  0  0  0  0  0  0  0  0  0
   -3.6807   -2.7523    0.1036 H   0  0  0  0  0  0  0  0  0  0  0  0
   -2.0477   -1.8543    1.1546 C   0  0  0  0  0  0  0  0  0  0  0  0
   -1.2227   -2.3443    1.9146 O   0  0  0  0  0  0  0  0  0  0  0  0
   -1.7517   -0.8483    0.3266 N   0  0  0  0  0  0  0  0  0  0  0  0
   -2.4847   -0.5123   -0.2804 H   0  0  0  0  0  0  0  0  0  0  0  0
   -0.4117   -0.2463    0.2186 C   0  0  1  0  0  0  0  0  0  0  0  0
    0.2987   -1.0391   -0.0285 H   0  0  0  0  0  0  0  0  0  0  0  0
   -0.4131    0.7505   -0.9636 C   0  0  0  0  0  0  0  0  0  0  0  0
    0.6225    0.9639   -1.2404 H   0  0  0  0  0  0  0  0  0  0  0  0
   -0.8844    0.2762   -1.8271 H   0  0  0  0  0  0  0  0  0  0  0  0
   -1.1245    2.0606   -0.7000 C   0  0  0  0  0  0  0  0  0  0  0  0
   -0.5359    3.1992   -0.1846 N   0  3  0  0  0  0  0  0  0  0  0  0
    0.4666    3.2789    0.0089 H   0  0  0  0  0  0  0  0  0  0  0  0
   -1.4771    4.1593   -0.0896 C   0  0  0  0  0  0  0  0  0  0  0  0
   -1.3090    5.1720    0.2712 H   0  0  0  0  0  0  0  0  0  0  0  0
   -2.6507    3.6542   -0.5324 N   0  0  0  0  0  0  0  0  0  0  0  0
   -3.5354    4.1528   -0.5793 H   0  0  0  0  0  0  0  0  0  0  0  0
   -2.4470    2.3369   -0.9195 C   0  0  0  0  0  0  0  0  0  0  0  0
   -3.1869    1.6500   -1.3209 H   0  0  0  0  0  0  0  0  0  0  0  0
    0.0470    0.3465    1.5629 C   0  0  0  0  0  0  0  0  0  0  0  0
    1.1854    0.1365    1.9846 O   0  0  0  0  0  0  0  0  0  0  0  0
   -0.8551    1.0750    2.2320 N   0  0  0  0  0  0  0  0  0  0  0  0
   -1.7594    1.2031    1.8040 H   0  0  0  0  0  0  0  0  0  0  0  0
   -0.6356    1.6998    3.5400 C   0  0  0  0  0  0  0  0  0  0  0  0
   -0.4284    2.7647    3.4168 H   0  0  0  0  0  0  0  0  0  0  0  0
   -1.5268    1.5885    4.1601 H   0  0  0  0  0  0  0  0  0  0  0  0
    0.2072    1.2358    4.0566 H   0  0  0  0  0  0  0  0  0  0  0  0
  5  6  2  0  0  0  0
  5  7  1  0  0  0  0
  2  3  1  0  0  0  0
  2  4  1  0  0  0  0
  2  5  1  0  0  0  0
  1  2  1  0  0  0  0
 23 24  2  0  0  0  0
 23 25  1  0  0  0  0
 21 22  1  0  0  0  0
 19 20  1  0  0  0  0
 19 21  1  0  0  0  0
 17 18  1  0  0  0  0
 17 19  1  0  0  0  0
 15 16  1  0  0  0  0
 15 17  2  0  0  0  0
 14 15  1  0  0  0  0
 14 21  2  0  0  0  0
 11 12  1  0  0  0  0
 11 13  1  0  0  0  0
 11 14  1  0  0  0  0
  9 10  1  0  0  0  0
  9 11  1  0  0  0  0
  9 23  1  0  0  0  0
  7  8  1  0  0  0  0
  7  9  1  0  0  0  0
 27 28  1  0  0  0  0
 27 29  1  0  0  0  0
 27 30  1  0  0  0  0
 25 26  1  0  0  0  0
 25 27  1  0  0  0  0
M  CHG  1  15   1
M  END
$$$$
default_name
  -OEChem-02102213163D

 30 30  0     1  0  0  0  0  0999 V2000
   -3.5507   -3.2183    1.8116 H   0  0  0  0  0  0  0  0  0  0  0  0
   -3.4597   -2.3913    1.1076 C   0  0  0  0  0  0  0  0  0  0  0  0
   -4.1577   -1.6043    1.3866 H   0  0  0  0  0  0  0  0  0  0  0  0
   -3.6807   -2.7523    0.1036 H   0  0  0  0  0  0  0  0  0  0  0  0
   -2.0477   -1.8543    1.1546 C   0  0  0  0  0  0  0  0  0  0  0  0
   -1.2227   -2.3443    1.9146 O   0  0  0  0  0  0  0  0  0  0  0  0
   -1.7517   -0.8483    0.3266 N   0  0  0  0  0  0  0  0  0  0  0  0
   -2.4847   -0.5123   -0.2804 H   0  0  0  0  0  0  0  0  0  0  0  0
   -0.4117   -0.2463    0.2186 C   0  0  1  0  0  0  0  0  0  0  0  0
    0.2987   -1.0391   -0.0285 H   0  0  0  0  0  0  0  0  0  0  0  0
   -0.4131    0.7505   -0.9636 C   0  0  0  0  0  0  0  0  0  0  0  0
    0.6225    0.9639   -1.2404 H   0  0  0  0  0  0  0  0  0  0  0  0
   -0.8844    0.2762   -1.8271 H   0  0  0  0  0  0  0  0  0  0  0  0
   -1.1245    2.0606   -0.7000 C   0  0  0  0  0  0  0  0  0  0  0  0
   -0.5046    3.2732   -0.4678 N   0  3  0  0  0  0  0  0  0  0  0  0
    0.5093    3.4080   -0.5172 H   0  0  0  0  0  0  0  0  0  0  0  0
   -1.4564    4.2077   -0.2742 C   0  0  0  0  0  0  0  0  0  0  0  0
   -1.2727    5.2627   -0.0815 H   0  0  0  0  0  0  0  0  0  0  0  0
   -2.6670    3.6142   -0.3775 N   0  0  0  0  0  0  0  0  0  0  0  0
   -3.5680    4.0750   -0.2803 H   0  0  0  0  0  0  0  0  0  0  0  0
   -2.4767    2.2655   -0.6446 C   0  0  0  0  0  0  0  0  0  0  0  0
   -3.2453    1.5104   -0.7849 H   0  0  0  0  0  0  0  0  0  0  0  0
    0.0470    0.3465    1.5629 C   0  0  0  0  0  0  0  0  0  0  0  0
    1.1854    0.1365    1.9846 O   0  0  0  0  0  0  0  0  0  0  0  0
   -0.8551    1.0750    2.2320 N   0  0  0  0  0  0  0  0  0  0  0  0
   -1.7594    1.2031    1.8040 H   0  0  0  0  0  0  0  0  0  0  0  0
   -0.6356    1.6998    3.5400 C   0  0  0  0  0  0  0  0  0  0  0  0
   -0.4284    2.7647    3.4168 H   0  0  0  0  0  0  0  0  0  0  0  0
   -1.5268    1.5885    4.1601 H   0  0  0  0  0  0  0  0  0  0  0  0
    0.2072    1.2358    4.0566 H   0  0  0  0  0  0  0  0  0  0  0  0
  5  6  2  0  0  0  0
  5  7  1  0  0  0  0
  2  3  1  0  0  0  0
  2  4  1  0  0  0  0
  2  5  1  0  0  0  0
  1  2  1  0  0  0  0
 23 24  2  0  0  0  0
 23 25  1  0  0  0  0
 21 22  1  0  0  0  0
 19 20  1  0  0  0  0
 19 21  1  0  0  0  0
 17 18  1  0  0  0  0
 17 19  1  0  0  0  0
 15 16  1  0  0  0  0
 15 17  2  0  0  0  0
 14 15  1  0  0  0  0
 14 21  2  0  0  0  0
 11 12  1  0  0  0  0
 11 13  1  0  0  0  0
 11 14  1  0  0  0  0
  9 10  1  0  0  0  0
  9 11  1  0  0  0  0
  9 23  1  0  0  0  0
  7  8  1  0  0  0  0
  7  9  1  0  0  0  0
 27 28  1  0  0  0  0
 27 29  1  0  0  0  0
 27 30  1  0  0  0  0
 25 26  1  0  0  0  0
 25 27  1  0  0  0  0
M  CHG  1  15   1
M  END
$$$$
default_name
  -OEChem-02102213163D

 30 30  0     1  0  0  0  0  0999 V2000
   -3.5507   -3.2183    1.8116 H   0  0  0  0  0  0  0  0  0  0  0  0
   -3.4597   -2.3913    1.1076 C   0  0  0  0  0  0  0  0  0  0  0  0
   -4.1577   -1.6043    1.3866 H   0  0  0  0  0  0  0  0  0  0  0  0
   -3.6807   -2.7523    0.1036 H   0  0  0  0  0  0  0  0  0  0  0  0
   -2.0477   -1.8543    1.1546 C   0  0  0  0  0  0  0  0  0  0  0  0
   -1.2227   -2.3443    1.9146 O   0  0  0  0  0  0  0  0  0  0  0  0
   -1.7517   -0.8483    0.3266 N   0  0  0  0  0  0  0  0  0  0  0  0
   -2.4847   -0.5123   -0.2804 H   0  0  0  0  0  0  0  0  0  0  0  0
   -0.4117   -0.2463    0.2186 C   0  0  1  0  0  0  0  0  0  0  0  0
    0.2987   -1.0391   -0.0285 H   0  0  0  0  0  0  0  0  0  0  0  0
   -0.4131    0.7505   -0.9636 C   0  0  0  0  0  0  0  0  0  0  0  0
    0.6225    0.9639   -1.2404 H   0  0  0  0  0  0  0  0  0  0  0  0
   -0.8844    0.2762   -1.8271 H   0  0  0  0  0  0  0  0  0  0  0  0
   -1.1245    2.0606   -0.7000 C   0  0  0  0  0  0  0  0  0  0  0  0
   -0.5412    3.3116   -0.7572 N   0  3  0  0  0  0  0  0  0  0  0  0
    0.4269    3.4707   -1.0507 H   0  0  0  0  0  0  0  0  0  0  0  0
   -1.4800    4.2329   -0.4632 C   0  0  0  0  0  0  0  0  0  0  0  0
   -1.3207    5.3091   -0.4414 H   0  0  0  0  0  0  0  0  0  0  0  0
   -2.6463    3.5936   -0.2194 N   0  0  0  0  0  0  0  0  0  0  0  0
   -3.5290    4.0347    0.0252 H   0  0  0  0  0  0  0  0  0  0  0  0
   -2.4407    2.2285   -0.3636 C   0  0  0  0  0  0  0  0  0  0  0  0
   -3.1754    1.4381   -0.2371 H   0  0  0  0  0  0  0  0  0  0  0  0
    0.0470    0.3465    1.5629 C   0  0  0  0  0  0  0  0  0  0  0  0
    1.1854    0.1365    1.9846 O   0  0  0  0  0  0  0  0  0  0  0  0
   -0.8551    1.0750    2.2320 N   0  0  0  0  0  0  0  0  0  0  0  0
   -1.7594    1.2031    1.8040 H   0  0  0  0  0  0  0  0  0  0  0  0
   -0.6356    1.6998    3.5400 C   0  0  0  0  0  0  0  0  0  0  0  0
   -0.4284    2.7647    3.4168 H   0  0  0  0  0  0  0  0  0  0  0  0
   -1.5268    1.5885    4.1601 H   0  0  0  0  0  0  0  0  0  0  0  0
    0.2072    1.2358    4.0566 H   0  0  0  0  0  0  0  0  0  0  0  0
  5  6  2  0  0  0  0
  5  7  1  0  0  0  0
  2  3  1  0  0  0  0
  2  4  1  0  0  0  0
  2  5  1  0  0  0  0
  1  2  1  0  0  0  0
 23 24  2  0  0  0  0
 23 25  1  0  0  0  0
 21 22  1  0  0  0  0
 19 20  1  0  0  0  0
 19 21  1  0  0  0  0
 17 18  1  0  0  0  0
 17 19  1  0  0  0  0
 15 16  1  0  0  0  0
 15 17  2  0  0  0  0
 14 15  1  0  0  0  0
 14 21  2  0  0  0  0
 11 12  1  0  0  0  0
 11 13  1  0  0  0  0
 11 14  1  0  0  0  0
  9 10  1  0  0  0  0
  9 11  1  0  0  0  0
  9 23  1  0  0  0  0
  7  8  1  0  0  0  0
  7  9  1  0  0  0  0
 27 28  1  0  0  0  0
 27 29  1  0  0  0  0
 27 30  1  0  0  0  0
 25 26  1  0  0  0  0
 25 27  1  0  0  0  0
M  CHG  1  15   1
M  END
$$$$
default_name
  -OEChem-02102213163D

 30 30  0     1  0  0  0  0  0999 V2000
   -3.5507   -3.2183    1.8116 H   0  0  0  0  0  0  0  0  0  0  0  0
   -3.4597   -2.3913    1.1076 C   0  0  0  0  0  0  0  0  0  0  0  0
   -4.1577   -1.6043    1.3866 H   0  0  0  0  0  0  0  0  0  0  0  0
   -3.6807   -2.7523    0.1036 H   0  0  0  0  0  0  0  0  0  0  0  0
   -2.0477   -1.8543    1.1546 C   0  0  0  0  0  0  0  0  0  0  0  0
   -1.2227   -2.3443    1.9146 O   0  0  0  0  0  0  0  0  0  0  0  0
   -1.7517   -0.8483    0.3266 N   0  0  0  0  0  0  0  0  0  0  0  0
   -2.4847   -0.5123   -0.2804 H   0  0  0  0  0  0  0  0  0  0  0  0
   -0.4117   -0.2463    0.2186 C   0  0  1  0  0  0  0  0  0  0  0  0
    0.2987   -1.0391   -0.0285 H   0  0  0  0  0  0  0  0  0  0  0  0
   -0.4131    0.7505   -0.9636 C   0  0  0  0  0  0  0  0  0  0  0  0
    0.6225    0.9639   -1.2404 H   0  0  0  0  0  0  0  0  0  0  0  0
   -0.8844    0.2762   -1.8271 H   0  0  0  0  0  0  0  0  0  0  0  0
   -1.1245    2.0606   -0.7000 C   0  0  0  0  0  0  0  0  0  0  0  0
   -0.6431    3.3118   -1.0334 N   0  3  0  0  0  0  0  0  0  0  0  0
    0.2251    3.4626   -1.5552 H   0  0  0  0  0  0  0  0  0  0  0  0
   -1.5462    4.2332   -0.6434 C   0  0  0  0  0  0  0  0  0  0  0  0
   -1.4497    5.3079   -0.7839 H   0  0  0  0  0  0  0  0  0  0  0  0
   -2.5899    3.5939   -0.0688 N   0  0  0  0  0  0  0  0  0  0  0  0
   -3.4211    4.0346    0.3166 H   0  0  0  0  0  0  0  0  0  0  0  0
   -2.3412    2.2286   -0.0959 C   0  0  0  0  0  0  0  0  0  0  0  0
   -2.9818    1.4381    0.2851 H   0  0  0  0  0  0  0  0  0  0  0  0
    0.0470    0.3465    1.5629 C   0  0  0  0  0  0  0  0  0  0  0  0
    1.1854    0.1365    1.9846 O   0  0  0  0  0  0  0  0  0  0  0  0
   -0.8551    1.0750    2.2320 N   0  0  0  0  0  0  0  0  0  0  0  0
   -1.7594    1.2031    1.8040 H   0  0  0  0  0  0  0  0  0  0  0  0
   -0.6356    1.6998    3.5400 C   0  0  0  0  0  0  0  0  0  0  0  0
   -0.4284    2.7647    3.4168 H   0  0  0  0  0  0  0  0  0  0  0  0
   -1.5268    1.5885    4.1601 H   0  0  0  0  0  0  0  0  0  0  0  0
    0.2072    1.2358    4.0566 H   0  0  0  0  0  0  0  0  0  0  0  0
  5  6  2  0  0  0  0
  5  7  1  0  0  0  0
  2  3  1  0  0  0  0
  2  4  1  0  0  0  0
  2  5  1  0  0  0  0
  1  2  1  0  0  0  0
 23 24  2  0  0  0  0
 23 25  1  0  0  0  0
 21 22  1  0  0  0  0
 19 20  1  0  0  0  0
 19 21  1  0  0  0  0
 17 18  1  0  0  0  0
 17 19  1  0  0  0  0
 15 16  1  0  0  0  0
 15 17  2  0  0  0  0
 14 15  1  0  0  0  0
 14 21  2  0  0  0  0
 11 12  1  0  0  0  0
 11 13  1  0  0  0  0
 11 14  1  0  0  0  0
  9 10  1  0  0  0  0
  9 11  1  0  0  0  0
  9 23  1  0  0  0  0
  7  8  1  0  0  0  0
  7  9  1  0  0  0  0
 27 28  1  0  0  0  0
 27 29  1  0  0  0  0
 27 30  1  0  0  0  0
 25 26  1  0  0  0  0
 25 27  1  0  0  0  0
M  CHG  1  15   1
M  END
$$$$
default_name
  -OEChem-02102213163D

 30 30  0     1  0  0  0  0  0999 V2000
   -3.5507   -3.2183    1.8116 H   0  0  0  0  0  0  0  0  0  0  0  0
   -3.4597   -2.3913    1.1076 C   0  0  0  0  0  0  0  0  0  0  0  0
   -4.1577   -1.6043    1.3866 H   0  0  0  0  0  0  0  0  0  0  0  0
   -3.6807   -2.7523    0.1036 H   0  0  0  0  0  0  0  0  0  0  0  0
   -2.0477   -1.8543    1.1546 C   0  0  0  0  0  0  0  0  0  0  0  0
   -1.2227   -2.3443    1.9146 O   0  0  0  0  0  0  0  0  0  0  0  0
   -1.7517   -0.8483    0.3266 N   0  0  0  0  0  0  0  0  0  0  0  0
   -2.4847   -0.5123   -0.2804 H   0  0  0  0  0  0  0  0  0  0  0  0
   -0.4117   -0.2463    0.2186 C   0  0  1  0  0  0  0  0  0  0  0  0
    0.2987   -1.0391   -0.0285 H   0  0  0  0  0  0  0  0  0  0  0  0
   -0.4131    0.7505   -0.9636 C   0  0  0  0  0  0  0  0  0  0  0  0
    0.6225    0.9639   -1.2404 H   0  0  0  0  0  0  0  0  0  0  0  0
   -0.8844    0.2762   -1.8271 H   0  0  0  0  0  0  0  0  0  0  0  0
   -1.1245    2.0606   -0.7000 C   0  0  0  0  0  0  0  0  0  0  0  0
   -0.8033    3.2739   -1.2773 N   0  3  0  0  0  0  0  0  0  0  0  0
   -0.0826    3.3843   -1.9963 H   0  0  0  0  0  0  0  0  0  0  0  0
   -1.6505    4.2086   -0.8028 C   0  0  0  0  0  0  0  0  0  0  0  0
   -1.6510    5.2594   -1.0856 H   0  0  0  0  0  0  0  0  0  0  0  0
   -2.5018    3.6150    0.0641 N   0  0  0  0  0  0  0  0  0  0  0  0
   -3.2516    4.0749    0.5738 H   0  0  0  0  0  0  0  0  0  0  0  0
   -2.1852    2.2658    0.1405 C   0  0  0  0  0  0  0  0  0  0  0  0
   -2.6780    1.5103    0.7463 H   0  0  0  0  0  0  0  0  0  0  0  0
    0.0470    0.3465    1.5629 C   0  0  0  0  0  0  0  0  0  0  0  0
    1.1854    0.1365    1.9846 O   0  0  0  0  0  0  0  0  0  0  0  0
   -0.8551    1.0750    2.2320 N   0  0  0  0  0  0  0  0  0  0  0  0
   -1.7594    1.2031    1.8040 H   0  0  0  0  0  0  0  0  0  0  0  0
   -0.6356    1.6998    3.5400 C   0  0  0  0  0  0  0  0  0  0  0  0
   -0.4284    2.7647    3.4168 H   0  0  0  0  0  0  0  0  0  0  0  0
   -1.5268    1.5885    4.1601 H   0  0  0  0  0  0  0  0  0  0  0  0
    0.2072    1.2358    4.0566 H   0  0  0  0  0  0  0  0  0  0  0  0
  5  6  2  0  0  0  0
  5  7  1  0  0  0  0
  2  3  1  0  0  0  0
  2  4  1  0  0  0  0
  2  5  1  0  0  0  0
  1  2  1  0  0  0  0
 23 24  2  0  0  0  0
 23 25  1  0  0  0  0
 21 22  1  0  0  0  0
 19 20  1  0  0  0  0
 19 21  1  0  0  0  0
 17 18  1  0  0  0  0
 17 19  1  0  0  0  0
 15 16  1  0  0  0  0
 15 17  2  0  0  0  0
 14 15  1  0  0  0  0
 14 21  2  0  0  0  0
 11 12  1  0  0  0  0
 11 13  1  0  0  0  0
 11 14  1  0  0  0  0
  9 10  1  0  0  0  0
  9 11  1  0  0  0  0
  9 23  1  0  0  0  0
  7  8  1  0  0  0  0
  7  9  1  0  0  0  0
 27 28  1  0  0  0  0
 27 29  1  0  0  0  0
 27 30  1  0  0  0  0
 25 26  1  0  0  0  0
 25 27  1  0  0  0  0
M  CHG  1  15   1
M  END
$$$$
default_name
  -OEChem-02102213163D

 30 30  0     1  0  0  0  0  0999 V2000
   -3.5507   -3.2183    1.8116 H   0  0  0  0  0  0  0  0  0  0  0  0
   -3.4597   -2.3913    1.1076 C   0  0  0  0  0  0  0  0  0  0  0  0
   -4.1577   -1.6043    1.3866 H   0  0  0  0  0  0  0  0  0  0  0  0
   -3.6807   -2.7523    0.1036 H   0  0  0  0  0  0  0  0  0  0  0  0
   -2.0477   -1.8543    1.1546 C   0  0  0  0  0  0  0  0  0  0  0  0
   -1.2227   -2.3443    1.9146 O   0  0  0  0  0  0  0  0  0  0  0  0
   -1.7517   -0.8483    0.3266 N   0  0  0  0  0  0  0  0  0  0  0  0
   -2.4847   -0.5123   -0.2804 H   0  0  0  0  0  0  0  0  0  0  0  0
   -0.4117   -0.2463    0.2186 C   0  0  1  0  0  0  0  0  0  0  0  0
    0.2987   -1.0391   -0.0285 H   0  0  0  0  0  0  0  0  0  0  0  0
   -0.4131    0.7505   -0.9636 C   0  0  0  0  0  0  0  0  0  0  0  0
    0.6225    0.9639   -1.2404 H   0  0  0  0  0  0  0  0  0  0  0  0
   -0.8844    0.2762   -1.8271 H   0  0  0  0  0  0  0  0  0  0  0  0
   -1.1245    2.0606   -0.7000 C   0  0  0  0  0  0  0  0  0  0  0  0
   -1.0111    3.2004   -1.4724 N   0  3  0  0  0  0  0  0  0  0  0  0
   -0.4750    3.2412   -2.3439 H   0  0  0  0  0  0  0  0  0  0  0  0
   -1.7859    4.1608   -0.9303 C   0  0  0  0  0  0  0  0  0  0  0  0
   -1.9108    5.1667   -1.3261 H   0  0  0  0  0  0  0  0  0  0  0  0
   -2.3878    3.6556    0.1701 N   0  0  0  0  0  0  0  0  0  0  0  0
   -3.0321    4.1527    0.7794 H   0  0  0  0  0  0  0  0  0  0  0  0
   -1.9832    2.3374    0.3293 C   0  0  0  0  0  0  0  0  0  0  0  0
   -2.2844    1.6499    1.1148 H   0  0  0  0  0  0  0  0  0  0  0  0
    0.0470    0.3465    1.5629 C   0  0  0  0  0  0  0  0  0  0  0  0
    1.1854    0.1365    1.9846 O   0  0  0  0  0  0  0  0  0  0  0  0
   -0.8551    1.0750    2.2320 N   0  0  0  0  0  0  0  0  0  0  0  0
   -1.7594    1.2031    1.8040 H   0  0  0  0  0  0  0  0  0  0  0  0
   -0.6356    1.6998    3.5400 C   0  0  0  0  0  0  0  0  0  0  0  0
   -0.4284    2.7647    3.4168 H   0  0  0  0  0  0  0  0  0  0  0  0
   -1.5268    1.5885    4.1601 H   0  0  0  0  0  0  0  0  0  0  0  0
    0.2072    1.2358    4.0566 H   0  0  0  0  0  0  0  0  0  0  0  0
  5  6  2  0  0  0  0
  5  7  1  0  0  0  0
  2  3  1  0  0  0  0
  2  4  1  0  0  0  0
  2  5  1  0  0  0  0
  1  2  1  0  0  0  0
 23 24  2  0  0  0  0
 23 25  1  0  0  0  0
 21 22  1  0  0  0  0
 19 20  1  0  0  0  0
 19 21  1  0  0  0  0
 17 18  1  0  0  0  0
 17 19  1  0  0  0  0
 15 16  1  0  0  0  0
 15 17  2  0  0  0  0
 14 15  1  0  0  0  0
 14 21  2  0  0  0  0
 11 12  1  0  0  0  0
 11 13  1  0  0  0  0
 11 14  1  0  0  0  0
  9 10  1  0  0  0  0
  9 11  1  0  0  0  0
  9 23  1  0  0  0  0
  7  8  1  0  0  0  0
  7  9  1  0  0  0  0
 27 28  1  0  0  0  0
 27 29  1  0  0  0  0
 27 30  1  0  0  0  0
 25 26  1  0  0  0  0
 25 27  1  0  0  0  0
M  CHG  1  15   1
M  END
$$$$
default_name
  -OEChem-02102213163D

 30 30  0     1  0  0  0  0  0999 V2000
   -3.5507   -3.2183    1.8116 H   0  0  0  0  0  0  0  0  0  0  0  0
   -3.4597   -2.3913    1.1076 C   0  0  0  0  0  0  0  0  0  0  0  0
   -4.1577   -1.6043    1.3866 H   0  0  0  0  0  0  0  0  0  0  0  0
   -3.6807   -2.7523    0.1036 H   0  0  0  0  0  0  0  0  0  0  0  0
   -2.0477   -1.8543    1.1546 C   0  0  0  0  0  0  0  0  0  0  0  0
   -1.2227   -2.3443    1.9146 O   0  0  0  0  0  0  0  0  0  0  0  0
   -1.7517   -0.8483    0.3266 N   0  0  0  0  0  0  0  0  0  0  0  0
   -2.4847   -0.5123   -0.2804 H   0  0  0  0  0  0  0  0  0  0  0  0
   -0.4117   -0.2463    0.2186 C   0  0  1  0  0  0  0  0  0  0  0  0
    0.2987   -1.0391   -0.0285 H   0  0  0  0  0  0  0  0  0  0  0  0
   -0.4131    0.7505   -0.9636 C   0  0  0  0  0  0  0  0  0  0  0  0
    0.5833    0.7593   -1.4128 H   0  0  0  0  0  0  0  0  0  0  0  0
   -1.1062    0.3932   -1.7282 H   0  0  0  0  0  0  0  0  0  0  0  0
   -0.7971    2.1710   -0.6073 C   0  0  0  0  0  0  0  0  0  0  0  0
   -0.8664    3.2262   -1.4962 N   0  3  0  0  0  0  0  0  0  0  0  0
   -0.7231    3.1254   -2.5052 H   0  0  0  0  0  0  0  0  0  0  0  0
   -1.2385    4.3301   -0.8183 C   0  0  0  0  0  0  0  0  0  0  0  0
   -1.3899    5.3154   -1.2545 H   0  0  0  0  0  0  0  0  0  0  0  0
   -1.4058    3.9985    0.4819 N   0  0  0  0  0  0  0  0  0  0  0  0
   -1.6879    4.6296    1.2273 H   0  0  0  0  0  0  0  0  0  0  0  0
   -1.1323    2.6460    0.6318 C   0  0  0  0  0  0  0  0  0  0  0  0
   -1.1741    2.0668    1.5501 H   0  0  0  0  0  0  0  0  0  0  0  0
    0.0470    0.3465    1.5629 C   0  0  0  0  0  0  0  0  0  0  0  0
    1.1854    0.1365    1.9846 O   0  0  0  0  0  0  0  0  0  0  0  0
   -0.8551    1.0750    2.2320 N   0  0  0  0  0  0  0  0  0  0  0  0
   -1.7594    1.2031    1.8040 H   0  0  0  0  0  0  0  0  0  0  0  0
   -0.6356    1.6998    3.5400 C   0  0  0  0  0  0  0  0  0  0  0  0
   -0.4284    2.7647    3.4168 H   0  0  0  0  0  0  0  0  0  0  0  0
   -1.5268    1.5885    4.1601 H   0  0  0  0  0  0  0  0  0  0  0  0
    0.2072    1.2358    4.0566 H   0  0  0  0  0  0  0  0  0  0  0  0
  5  6  2  0  0  0  0
  5  7  1  0  0  0  0
  2  3  1  0  0  0  0
  2  4  1  0  0  0  0
  2  5  1  0  0  0  0
  1  2  1  0  0  0  0
 23 24  2  0  0  0  0
 23 25  1  0  0  0  0
 21 22  1  0  0  0  0
 19 20  1  0  0  0  0
 19 21  1  0  0  0  0
 17 18  1  0  0  0  0
 17 19  1  0  0  0  0
 15 16  1  0  0  0  0
 15 17  2  0  0  0  0
 14 15  1  0  0  0  0
 14 21  2  0  0  0  0
 11 12  1  0  0  0  0
 11 13  1  0  0  0  0
 11 14  1  0  0  0  0
  9 10  1  0  0  0  0
  9 11  1  0  0  0  0
  9 23  1  0  0  0  0
  7  8  1  0  0  0  0
  7  9  1  0  0  0  0
 27 28  1  0  0  0  0
 27 29  1  0  0  0  0
 27 30  1  0  0  0  0
 25 26  1  0  0  0  0
 25 27  1  0  0  0  0
M  CHG  1  15   1
M  END
$$$$
default_name
  -OEChem-02102213163D

 30 30  0     1  0  0  0  0  0999 V2000
   -3.5507   -3.2183    1.8116 H   0  0  0  0  0  0  0  0  0  0  0  0
   -3.4597   -2.3913    1.1076 C   0  0  0  0  0  0  0  0  0  0  0  0
   -4.1577   -1.6043    1.3866 H   0  0  0  0  0  0  0  0  0  0  0  0
   -3.6807   -2.7523    0.1036 H   0  0  0  0  0  0  0  0  0  0  0  0
   -2.0477   -1.8543    1.1546 C   0  0  0  0  0  0  0  0  0  0  0  0
   -1.2227   -2.3443    1.9146 O   0  0  0  0  0  0  0  0  0  0  0  0
   -1.7517   -0.8483    0.3266 N   0  0  0  0  0  0  0  0  0  0  0  0
   -2.4847   -0.5123   -0.2804 H   0  0  0  0  0  0  0  0  0  0  0  0
   -0.4117   -0.2463    0.2186 C   0  0  1  0  0  0  0  0  0  0  0  0
    0.2987   -1.0391   -0.0285 H   0  0  0  0  0  0  0  0  0  0  0  0
   -0.4131    0.7505   -0.9636 C   0  0  0  0  0  0  0  0  0  0  0  0
    0.5833    0.7593   -1.4128 H   0  0  0  0  0  0  0  0  0  0  0  0
   -1.1062    0.3932   -1.7282 H   0  0  0  0  0  0  0  0  0  0  0  0
   -0.7971    2.1710   -0.6073 C   0  0  0  0  0  0  0  0  0  0  0  0
   -1.1511    3.1532   -1.5120 N   0  3  0  0  0  0  0  0  0  0  0  0
   -1.2483    2.9865   -2.5177 H   0  0  0  0  0  0  0  0  0  0  0  0
   -1.4243    4.2825   -0.8289 C   0  0  0  0  0  0  0  0  0  0  0  0
   -1.7439    5.2239   -1.2713 H   0  0  0  0  0  0  0  0  0  0  0  0
   -1.2502    4.0386    0.4896 N   0  0  0  0  0  0  0  0  0  0  0  0
   -1.3874    4.7067    1.2435 H   0  0  0  0  0  0  0  0  0  0  0  0
   -0.8561    2.7170    0.6464 C   0  0  0  0  0  0  0  0  0  0  0  0
   -0.6354    2.2052    1.5791 H   0  0  0  0  0  0  0  0  0  0  0  0
    0.0470    0.3465    1.5629 C   0  0  0  0  0  0  0  0  0  0  0  0
    1.1854    0.1365    1.9846 O   0  0  0  0  0  0  0  0  0  0  0  0
   -0.8551    1.0750    2.2320 N   0  0  0  0  0  0  0  0  0  0  0  0
   -1.7594    1.2031    1.8040 H   0  0  0  0  0  0  0  0  0  0  0  0
   -0.6356    1.6998    3.5400 C   0  0  0  0  0  0  0  0  0  0  0  0
   -0.4284    2.7647    3.4168 H   0  0  0  0  0  0  0  0  0  0  0  0
   -1.5268    1.5885    4.1601 H   0  0  0  0  0  0  0  0  0  0  0  0
    0.2072    1.2358    4.0566 H   0  0  0  0  0  0  0  0  0  0  0  0
  5  6  2  0  0  0  0
  5  7  1  0  0  0  0
  2  3  1  0  0  0  0
  2  4  1  0  0  0  0
  2  5  1  0  0  0  0
  1  2  1  0  0  0  0
 23 24  2  0  0  0  0
 23 25  1  0  0  0  0
 21 22  1  0  0  0  0
 19 20  1  0  0  0  0
 19 21  1  0  0  0  0
 17 18  1  0  0  0  0
 17 19  1  0  0  0  0
 15 16  1  0  0  0  0
 15 17  2  0  0  0  0
 14 15  1  0  0  0  0
 14 21  2  0  0  0  0
 11 12  1  0  0  0  0
 11 13  1  0  0  0  0
 11 14  1  0  0  0  0
  9 10  1  0  0  0  0
  9 11  1  0  0  0  0
  9 23  1  0  0  0  0
  7  8  1  0  0  0  0
  7  9  1  0  0  0  0
 27 28  1  0  0  0  0
 27 29  1  0  0  0  0
 27 30  1  0  0  0  0
 25 26  1  0  0  0  0
 25 27  1  0  0  0  0
M  CHG  1  15   1
M  END
$$$$
default_name
  -OEChem-02102213163D

 30 30  0     1  0  0  0  0  0999 V2000
   -3.5507   -3.2183    1.8116 H   0  0  0  0  0  0  0  0  0  0  0  0
   -3.4597   -2.3913    1.1076 C   0  0  0  0  0  0  0  0  0  0  0  0
   -4.1577   -1.6043    1.3866 H   0  0  0  0  0  0  0  0  0  0  0  0
   -3.6807   -2.7523    0.1036 H   0  0  0  0  0  0  0  0  0  0  0  0
   -2.0477   -1.8543    1.1546 C   0  0  0  0  0  0  0  0  0  0  0  0
   -1.2227   -2.3443    1.9146 O   0  0  0  0  0  0  0  0  0  0  0  0
   -1.7517   -0.8483    0.3266 N   0  0  0  0  0  0  0  0  0  0  0  0
   -2.4847   -0.5123   -0.2804 H   0  0  0  0  0  0  0  0  0  0  0  0
   -0.4117   -0.2463    0.2186 C   0  0  1  0  0  0  0  0  0  0  0  0
    0.2987   -1.0391   -0.0285 H   0  0  0  0  0  0  0  0  0  0  0  0
   -0.4131    0.7505   -0.9636 C   0  0  0  0  0  0  0  0  0  0  0  0
    0.5833    0.7593   -1.4128 H   0  0  0  0  0  0  0  0  0  0  0  0
   -1.1062    0.3932   -1.7282 H   0  0  0  0  0  0  0  0  0  0  0  0
   -0.7971    2.1710   -0.6073 C   0  0  0  0  0  0  0  0  0  0  0  0
   -1.4254    3.0643   -1.4533 N   0  3  0  0  0  0  0  0  0  0  0  0
   -1.7503    2.8196   -2.3931 H   0  0  0  0  0  0  0  0  0  0  0  0
   -1.6034    4.2246   -0.7909 C   0  0  0  0  0  0  0  0  0  0  0  0
   -2.0843    5.1129   -1.1955 H   0  0  0  0  0  0  0  0  0  0  0  0
   -1.1005    4.0873    0.4567 N   0  0  0  0  0  0  0  0  0  0  0  0
   -1.0979    4.8007    1.1811 H   0  0  0  0  0  0  0  0  0  0  0  0
   -0.5900    2.8034    0.5888 C   0  0  0  0  0  0  0  0  0  0  0  0
   -0.1165    2.3736    1.4671 H   0  0  0  0  0  0  0  0  0  0  0  0
    0.0470    0.3465    1.5629 C   0  0  0  0  0  0  0  0  0  0  0  0
    1.1854    0.1365    1.9846 O   0  0  0  0  0  0  0  0  0  0  0  0
   -0.8551    1.0750    2.2320 N   0  0  0  0  0  0  0  0  0  0  0  0
   -1.7594    1.2031    1.8040 H   0  0  0  0  0  0  0  0  0  0  0  0
   -0.6356    1.6998    3.5400 C   0  0  0  0  0  0  0  0  0  0  0  0
   -0.4284    2.7647    3.4168 H   0  0  0  0  0  0  0  0  0  0  0  0
   -1.5268    1.5885    4.1601 H   0  0  0  0  0  0  0  0  0  0  0  0
    0.2072    1.2358    4.0566 H   0  0  0  0  0  0  0  0  0  0  0  0
  5  6  2  0  0  0  0
  5  7  1  0  0  0  0
  2  3  1  0  0  0  0
  2  4  1  0  0  0  0
  2  5  1  0  0  0  0
  1  2  1  0  0  0  0
 23 24  2  0  0  0  0
 23 25  1  0  0  0  0
 21 22  1  0  0  0  0
 19 20  1  0  0  0  0
 19 21  1  0  0  0  0
 17 18  1  0  0  0  0
 17 19  1  0  0  0  0
 15 16  1  0  0  0  0
 15 17  2  0  0  0  0
 14 15  1  0  0  0  0
 14 21  2  0  0  0  0
 11 12  1  0  0  0  0
 11 13  1  0  0  0  0
 11 14  1  0  0  0  0
  9 10  1  0  0  0  0
  9 11  1  0  0  0  0
  9 23  1  0  0  0  0
  7  8  1  0  0  0  0
  7  9  1  0  0  0  0
 27 28  1  0  0  0  0
 27 29  1  0  0  0  0
 27 30  1  0  0  0  0
 25 26  1  0  0  0  0
 25 27  1  0  0  0  0
M  CHG  1  15   1
M  END
$$$$
default_name
  -OEChem-02102213163D

 30 30  0     1  0  0  0  0  0999 V2000
   -3.5507   -3.2183    1.8116 H   0  0  0  0  0  0  0  0  0  0  0  0
   -3.4597   -2.3913    1.1076 C   0  0  0  0  0  0  0  0  0  0  0  0
   -4.1577   -1.6043    1.3866 H   0  0  0  0  0  0  0  0  0  0  0  0
   -3.6807   -2.7523    0.1036 H   0  0  0  0  0  0  0  0  0  0  0  0
   -2.0477   -1.8543    1.1546 C   0  0  0  0  0  0  0  0  0  0  0  0
   -1.2227   -2.3443    1.9146 O   0  0  0  0  0  0  0  0  0  0  0  0
   -1.7517   -0.8483    0.3266 N   0  0  0  0  0  0  0  0  0  0  0  0
   -2.4847   -0.5123   -0.2804 H   0  0  0  0  0  0  0  0  0  0  0  0
   -0.4117   -0.2463    0.2186 C   0  0  1  0  0  0  0  0  0  0  0  0
    0.2987   -1.0391   -0.0285 H   0  0  0  0  0  0  0  0  0  0  0  0
   -0.4131    0.7505   -0.9636 C   0  0  0  0  0  0  0  0  0  0  0  0
    0.5833    0.7593   -1.4128 H   0  0  0  0  0  0  0  0  0  0  0  0
   -1.1062    0.3932   -1.7282 H   0  0  0  0  0  0  0  0  0  0  0  0
   -0.7971    2.1710   -0.6073 C   0  0  0  0  0  0  0  0  0  0  0  0
   -1.6708    2.9655   -1.3241 N   0  3  0  0  0  0  0  0  0  0  0  0
   -2.1947    2.6359   -2.1399 H   0  0  0  0  0  0  0  0  0  0  0  0
   -1.7637    4.1602   -0.7070 C   0  0  0  0  0  0  0  0  0  0  0  0
   -2.3879    4.9899   -1.0324 H   0  0  0  0  0  0  0  0  0  0  0  0
   -0.9669    4.1413    0.3854 N   0  0  0  0  0  0  0  0  0  0  0  0
   -0.8392    4.9049    1.0443 H   0  0  0  0  0  0  0  0  0  0  0  0
   -0.3522    2.8993    0.4628 C   0  0  0  0  0  0  0  0  0  0  0  0
    0.3474    2.5605    1.2219 H   0  0  0  0  0  0  0  0  0  0  0  0
    0.0470    0.3465    1.5629 C   0  0  0  0  0  0  0  0  0  0  0  0
    1.1854    0.1365    1.9846 O   0  0  0  0  0  0  0  0  0  0  0  0
   -0.8551    1.0750    2.2320 N   0  0  0  0  0  0  0  0  0  0  0  0
   -1.7594    1.2031    1.8040 H   0  0  0  0  0  0  0  0  0  0  0  0
   -0.6356    1.6998    3.5400 C   0  0  0  0  0  0  0  0  0  0  0  0
   -0.4284    2.7647    3.4168 H   0  0  0  0  0  0  0  0  0  0  0  0
   -1.5268    1.5885    4.1601 H   0  0  0  0  0  0  0  0  0  0  0  0
    0.2072    1.2358    4.0566 H   0  0  0  0  0  0  0  0  0  0  0  0
  5  6  2  0  0  0  0
  5  7  1  0  0  0  0
  2  3  1  0  0  0  0
  2  4  1  0  0  0  0
  2  5  1  0  0  0  0
  1  2  1  0  0  0  0
 23 24  2  0  0  0  0
 23 25  1  0  0  0  0
 21 22  1  0  0  0  0
 19 20  1  0  0  0  0
 19 21  1  0  0  0  0
 17 18  1  0  0  0  0
 17 19  1  0  0  0  0
 15 16  1  0  0  0  0
 15 17  2  0  0  0  0
 14 15  1  0  0  0  0
 14 21  2  0  0  0  0
 11 12  1  0  0  0  0
 11 13  1  0  0  0  0
 11 14  1  0  0  0  0
  9 10  1  0  0  0  0
  9 11  1  0  0  0  0
  9 23  1  0  0  0  0
  7  8  1  0  0  0  0
  7  9  1  0  0  0  0
 27 28  1  0  0  0  0
 27 29  1  0  0  0  0
 27 30  1  0  0  0  0
 25 26  1  0  0  0  0
 25 27  1  0  0  0  0
M  CHG  1  15   1
M  END
$$$$
default_name
  -OEChem-02102213163D

 30 30  0     1  0  0  0  0  0999 V2000
   -3.5507   -3.2183    1.8116 H   0  0  0  0  0  0  0  0  0  0  0  0
   -3.4597   -2.3913    1.1076 C   0  0  0  0  0  0  0  0  0  0  0  0
   -4.1577   -1.6043    1.3866 H   0  0  0  0  0  0  0  0  0  0  0  0
   -3.6807   -2.7523    0.1036 H   0  0  0  0  0  0  0  0  0  0  0  0
   -2.0477   -1.8543    1.1546 C   0  0  0  0  0  0  0  0  0  0  0  0
   -1.2227   -2.3443    1.9146 O   0  0  0  0  0  0  0  0  0  0  0  0
   -1.7517   -0.8483    0.3266 N   0  0  0  0  0  0  0  0  0  0  0  0
   -2.4847   -0.5123   -0.2804 H   0  0  0  0  0  0  0  0  0  0  0  0
   -0.4117   -0.2463    0.2186 C   0  0  1  0  0  0  0  0  0  0  0  0
    0.2987   -1.0391   -0.0285 H   0  0  0  0  0  0  0  0  0  0  0  0
   -0.4131    0.7505   -0.9636 C   0  0  0  0  0  0  0  0  0  0  0  0
    0.5833    0.7593   -1.4128 H   0  0  0  0  0  0  0  0  0  0  0  0
   -1.1062    0.3932   -1.7282 H   0  0  0  0  0  0  0  0  0  0  0  0
   -0.7971    2.1710   -0.6073 C   0  0  0  0  0  0  0  0  0  0  0  0
   -1.8703    2.8637   -1.1333 N   0  3  0  0  0  0  0  0  0  0  0  0
   -2.5512    2.4481   -1.7754 H   0  0  0  0  0  0  0  0  0  0  0  0
   -1.8941    4.0937   -0.5827 C   0  0  0  0  0  0  0  0  0  0  0  0
   -2.6341    4.8633   -0.7930 H   0  0  0  0  0  0  0  0  0  0  0  0
   -0.8584    4.1970    0.2805 N   0  0  0  0  0  0  0  0  0  0  0  0
   -0.6288    5.0124    0.8426 H   0  0  0  0  0  0  0  0  0  0  0  0
   -0.1590    2.9981    0.2771 C   0  0  0  0  0  0  0  0  0  0  0  0
    0.7245    2.7532    0.8602 H   0  0  0  0  0  0  0  0  0  0  0  0
    0.0470    0.3465    1.5629 C   0  0  0  0  0  0  0  0  0  0  0  0
    1.1854    0.1365    1.9846 O   0  0  0  0  0  0  0  0  0  0  0  0
   -0.8551    1.0750    2.2320 N   0  0  0  0  0  0  0  0  0  0  0  0
   -1.7594    1.2031    1.8040 H   0  0  0  0  0  0  0  0  0  0  0  0
   -0.6356    1.6998    3.5400 C   0  0  0  0  0  0  0  0  0  0  0  0
   -0.4284    2.7647    3.4168 H   0  0  0  0  0  0  0  0  0  0  0  0
   -1.5268    1.5885    4.1601 H   0  0  0  0  0  0  0  0  0  0  0  0
    0.2072    1.2358    4.0566 H   0  0  0  0  0  0  0  0  0  0  0  0
  5  6  2  0  0  0  0
  5  7  1  0  0  0  0
  2  3  1  0  0  0  0
  2  4  1  0  0  0  0
  2  5  1  0  0  0  0
  1  2  1  0  0  0  0
 23 24  2  0  0  0  0
 23 25  1  0  0  0  0
 21 22  1  0  0  0  0
 19 20  1  0  0  0  0
 19 21  1  0  0  0  0
 17 18  1  0  0  0  0
 17 19  1  0  0  0  0
 15 16  1  0  0  0  0
 15 17  2  0  0  0  0
 14 15  1  0  0  0  0
 14 21  2  0  0  0  0
 11 12  1  0  0  0  0
 11 13  1  0  0  0  0
 11 14  1  0  0  0  0
  9 10  1  0  0  0  0
  9 11  1  0  0  0  0
  9 23  1  0  0  0  0
  7  8  1  0  0  0  0
  7  9  1  0  0  0  0
 27 28  1  0  0  0  0
 27 29  1  0  0  0  0
 27 30  1  0  0  0  0
 25 26  1  0  0  0  0
 25 27  1  0  0  0  0
M  CHG  1  15   1
M  END
$$$$
default_name
  -OEChem-02102213163D

 30 30  0     1  0  0  0  0  0999 V2000
   -3.5507   -3.2183    1.8116 H   0  0  0  0  0  0  0  0  0  0  0  0
   -3.4597   -2.3913    1.1076 C   0  0  0  0  0  0  0  0  0  0  0  0
   -4.1577   -1.6043    1.3866 H   0  0  0  0  0  0  0  0  0  0  0  0
   -3.6807   -2.7523    0.1036 H   0  0  0  0  0  0  0  0  0  0  0  0
   -2.0477   -1.8543    1.1546 C   0  0  0  0  0  0  0  0  0  0  0  0
   -1.2227   -2.3443    1.9146 O   0  0  0  0  0  0  0  0  0  0  0  0
   -1.7517   -0.8483    0.3266 N   0  0  0  0  0  0  0  0  0  0  0  0
   -2.4847   -0.5123   -0.2804 H   0  0  0  0  0  0  0  0  0  0  0  0
   -0.4117   -0.2463    0.2186 C   0  0  1  0  0  0  0  0  0  0  0  0
    0.2987   -1.0391   -0.0285 H   0  0  0  0  0  0  0  0  0  0  0  0
   -0.4131    0.7505   -0.9636 C   0  0  0  0  0  0  0  0  0  0  0  0
    0.5833    0.7593   -1.4128 H   0  0  0  0  0  0  0  0  0  0  0  0
   -1.1062    0.3932   -1.7282 H   0  0  0  0  0  0  0  0  0  0  0  0
   -0.7971    2.1710   -0.6073 C   0  0  0  0  0  0  0  0  0  0  0  0
   -2.0106    2.7657   -0.8938 N   0  3  0  0  0  0  0  0  0  0  0  0
   -2.7957    2.2689   -1.3244 H   0  0  0  0  0  0  0  0  0  0  0  0
   -1.9859    4.0298   -0.4266 C   0  0  0  0  0  0  0  0  0  0  0  0
   -2.8061    4.7417   -0.4937 H   0  0  0  0  0  0  0  0  0  0  0  0
   -0.7825    4.2504    0.1492 N   0  0  0  0  0  0  0  0  0  0  0  0
   -0.4812    5.1158    0.5896 H   0  0  0  0  0  0  0  0  0  0  0  0
   -0.0234    3.0931    0.0443 C   0  0  0  0  0  0  0  0  0  0  0  0
    0.9892    2.9385    0.4065 H   0  0  0  0  0  0  0  0  0  0  0  0
    0.0470    0.3465    1.5629 C   0  0  0  0  0  0  0  0  0  0  0  0
    1.1854    0.1365    1.9846 O   0  0  0  0  0  0  0  0  0  0  0  0
   -0.8551    1.0750    2.2320 N   0  0  0  0  0  0  0  0  0  0  0  0
   -1.7594    1.2031    1.8040 H   0  0  0  0  0  0  0  0  0  0  0  0
   -0.6356    1.6998    3.5400 C   0  0  0  0  0  0  0  0  0  0  0  0
   -0.4284    2.7647    3.4168 H   0  0  0  0  0  0  0  0  0  0  0  0
   -1.5268    1.5885    4.1601 H   0  0  0  0  0  0  0  0  0  0  0  0
    0.2072    1.2358    4.0566 H   0  0  0  0  0  0  0  0  0  0  0  0
  5  6  2  0  0  0  0
  5  7  1  0  0  0  0
  2  3  1  0  0  0  0
  2  4  1  0  0  0  0
  2  5  1  0  0  0  0
  1  2  1  0  0  0  0
 23 24  2  0  0  0  0
 23 25  1  0  0  0  0
 21 22  1  0  0  0  0
 19 20  1  0  0  0  0
 19 21  1  0  0  0  0
 17 18  1  0  0  0  0
 17 19  1  0  0  0  0
 15 16  1  0  0  0  0
 15 17  2  0  0  0  0
 14 15  1  0  0  0  0
 14 21  2  0  0  0  0
 11 12  1  0  0  0  0
 11 13  1  0  0  0  0
 11 14  1  0  0  0  0
  9 10  1  0  0  0  0
  9 11  1  0  0  0  0
  9 23  1  0  0  0  0
  7  8  1  0  0  0  0
  7  9  1  0  0  0  0
 27 28  1  0  0  0  0
 27 29  1  0  0  0  0
 27 30  1  0  0  0  0
 25 26  1  0  0  0  0
 25 27  1  0  0  0  0
M  CHG  1  15   1
M  END
$$$$
default_name
  -OEChem-02102213163D

 30 30  0     1  0  0  0  0  0999 V2000
   -3.5507   -3.2183    1.8116 H   0  0  0  0  0  0  0  0  0  0  0  0
   -3.4597   -2.3913    1.1076 C   0  0  0  0  0  0  0  0  0  0  0  0
   -4.1577   -1.6043    1.3866 H   0  0  0  0  0  0  0  0  0  0  0  0
   -3.6807   -2.7523    0.1036 H   0  0  0  0  0  0  0  0  0  0  0  0
   -2.0477   -1.8543    1.1546 C   0  0  0  0  0  0  0  0  0  0  0  0
   -1.2227   -2.3443    1.9146 O   0  0  0  0  0  0  0  0  0  0  0  0
   -1.7517   -0.8483    0.3266 N   0  0  0  0  0  0  0  0  0  0  0  0
   -2.4847   -0.5123   -0.2804 H   0  0  0  0  0  0  0  0  0  0  0  0
   -0.4117   -0.2463    0.2186 C   0  0  1  0  0  0  0  0  0  0  0  0
    0.2987   -1.0391   -0.0285 H   0  0  0  0  0  0  0  0  0  0  0  0
   -0.4131    0.7505   -0.9636 C   0  0  0  0  0  0  0  0  0  0  0  0
    0.5833    0.7593   -1.4128 H   0  0  0  0  0  0  0  0  0  0  0  0
   -1.1062    0.3932   -1.7282 H   0  0  0  0  0  0  0  0  0  0  0  0
   -0.7971    2.1710   -0.6073 C   0  0  0  0  0  0  0  0  0  0  0  0
   -2.0819    2.6783   -0.6220 N   0  3  0  0  0  0  0  0  0  0  0  0
   -2.9114    2.1105   -0.8176 H   0  0  0  0  0  0  0  0  0  0  0  0
   -2.0328    3.9726   -0.2493 C   0  0  0  0  0  0  0  0  0  0  0  0
   -2.8921    4.6335   -0.1548 H   0  0  0  0  0  0  0  0  0  0  0  0
   -0.7443    4.2981    0.0005 N   0  0  0  0  0  0  0  0  0  0  0  0
   -0.4063    5.2080    0.3025 H   0  0  0  0  0  0  0  0  0  0  0  0
    0.0451    3.1779   -0.2197 C   0  0  0  0  0  0  0  0  0  0  0  0
    1.1234    3.1039   -0.1081 H   0  0  0  0  0  0  0  0  0  0  0  0
    0.0470    0.3465    1.5629 C   0  0  0  0  0  0  0  0  0  0  0  0
    1.1854    0.1365    1.9846 O   0  0  0  0  0  0  0  0  0  0  0  0
   -0.8551    1.0750    2.2320 N   0  0  0  0  0  0  0  0  0  0  0  0
   -1.7594    1.2031    1.8040 H   0  0  0  0  0  0  0  0  0  0  0  0
   -0.6356    1.6998    3.5400 C   0  0  0  0  0  0  0  0  0  0  0  0
   -0.4284    2.7647    3.4168 H   0  0  0  0  0  0  0  0  0  0  0  0
   -1.5268    1.5885    4.1601 H   0  0  0  0  0  0  0  0  0  0  0  0
    0.2072    1.2358    4.0566 H   0  0  0  0  0  0  0  0  0  0  0  0
  5  6  2  0  0  0  0
  5  7  1  0  0  0  0
  2  3  1  0  0  0  0
  2  4  1  0  0  0  0
  2  5  1  0  0  0  0
  1  2  1  0  0  0  0
 23 24  2  0  0  0  0
 23 25  1  0  0  0  0
 21 22  1  0  0  0  0
 19 20  1  0  0  0  0
 19 21  1  0  0  0  0
 17 18  1  0  0  0  0
 17 19  1  0  0  0  0
 15 16  1  0  0  0  0
 15 17  2  0  0  0  0
 14 15  1  0  0  0  0
 14 21  2  0  0  0  0
 11 12  1  0  0  0  0
 11 13  1  0  0  0  0
 11 14  1  0  0  0  0
  9 10  1  0  0  0  0
  9 11  1  0  0  0  0
  9 23  1  0  0  0  0
  7  8  1  0  0  0  0
  7  9  1  0  0  0  0
 27 28  1  0  0  0  0
 27 29  1  0  0  0  0
 27 30  1  0  0  0  0
 25 26  1  0  0  0  0
 25 27  1  0  0  0  0
M  CHG  1  15   1
M  END
$$$$
default_name
  -OEChem-02102213163D

 30 30  0     1  0  0  0  0  0999 V2000
   -3.5507   -3.2183    1.8116 H   0  0  0  0  0  0  0  0  0  0  0  0
   -3.4597   -2.3913    1.1076 C   0  0  0  0  0  0  0  0  0  0  0  0
   -4.1577   -1.6043    1.3866 H   0  0  0  0  0  0  0  0  0  0  0  0
   -3.6807   -2.7523    0.1036 H   0  0  0  0  0  0  0  0  0  0  0  0
   -2.0477   -1.8543    1.1546 C   0  0  0  0  0  0  0  0  0  0  0  0
   -1.2227   -2.3443    1.9146 O   0  0  0  0  0  0  0  0  0  0  0  0
   -1.7517   -0.8483    0.3266 N   0  0  0  0  0  0  0  0  0  0  0  0
   -2.4847   -0.5123   -0.2804 H   0  0  0  0  0  0  0  0  0  0  0  0
   -0.4117   -0.2463    0.2186 C   0  0  1  0  0  0  0  0  0  0  0  0
    0.2987   -1.0391   -0.0285 H   0  0  0  0  0  0  0  0  0  0  0  0
   -0.4131    0.7505   -0.9636 C   0  0  0  0  0  0  0  0  0  0  0  0
    0.5833    0.7593   -1.4128 H   0  0  0  0  0  0  0  0  0  0  0  0
   -1.1062    0.3932   -1.7282 H   0  0  0  0  0  0  0  0  0  0  0  0
   -0.7971    2.1710   -0.6073 C   0  0  0  0  0  0  0  0  0  0  0  0
   -2.0795    2.6073   -0.3364 N   0  3  0  0  0  0  0  0  0  0  0  0
   -2.8905    1.9837   -0.2896 H   0  0  0  0  0  0  0  0  0  0  0  0
   -2.0316    3.9262   -0.0630 C   0  0  0  0  0  0  0  0  0  0  0  0
   -2.8863    4.5459    0.2005 H   0  0  0  0  0  0  0  0  0  0  0  0
   -0.7465    4.3366   -0.1557 N   0  0  0  0  0  0  0  0  0  0  0  0
   -0.4093    5.2828    0.0010 H   0  0  0  0  0  0  0  0  0  0  0  0
    0.0421    3.2466   -0.4969 C   0  0  0  0  0  0  0  0  0  0  0  0
    1.1180    3.2380   -0.6487 H   0  0  0  0  0  0  0  0  0  0  0  0
    0.0470    0.3465    1.5629 C   0  0  0  0  0  0  0  0  0  0  0  0
    1.1854    0.1365    1.9846 O   0  0  0  0  0  0  0  0  0  0  0  0
   -0.8551    1.0750    2.2320 N   0  0  0  0  0  0  0  0  0  0  0  0
   -1.7594    1.2031    1.8040 H   0  0  0  0  0  0  0  0  0  0  0  0
   -0.6356    1.6998    3.5400 C   0  0  0  0  0  0  0  0  0  0  0  0
   -0.4284    2.7647    3.4168 H   0  0  0  0  0  0  0  0  0  0  0  0
   -1.5268    1.5885    4.1601 H   0  0  0  0  0  0  0  0  0  0  0  0
    0.2072    1.2358    4.0566 H   0  0  0  0  0  0  0  0  0  0  0  0
  5  6  2  0  0  0  0
  5  7  1  0  0  0  0
  2  3  1  0  0  0  0
  2  4  1  0  0  0  0
  2  5  1  0  0  0  0
  1  2  1  0  0  0  0
 23 24  2  0  0  0  0
 23 25  1  0  0  0  0
 21 22  1  0  0  0  0
 19 20  1  0  0  0  0
 19 21  1  0  0  0  0
 17 18  1  0  0  0  0
 17 19  1  0  0  0  0
 15 16  1  0  0  0  0
 15 17  2  0  0  0  0
 14 15  1  0  0  0  0
 14 21  2  0  0  0  0
 11 12  1  0  0  0  0
 11 13  1  0  0  0  0
 11 14  1  0  0  0  0
  9 10  1  0  0  0  0
  9 11  1  0  0  0  0
  9 23  1  0  0  0  0
  7  8  1  0  0  0  0
  7  9  1  0  0  0  0
 27 28  1  0  0  0  0
 27 29  1  0  0  0  0
 27 30  1  0  0  0  0
 25 26  1  0  0  0  0
 25 27  1  0  0  0  0
M  CHG  1  15   1
M  END
$$$$
default_name
  -OEChem-02102213163D

 30 30  0     1  0  0  0  0  0999 V2000
   -3.5507   -3.2183    1.8116 H   0  0  0  0  0  0  0  0  0  0  0  0
   -3.4597   -2.3913    1.1076 C   0  0  0  0  0  0  0  0  0  0  0  0
   -4.1577   -1.6043    1.3866 H   0  0  0  0  0  0  0  0  0  0  0  0
   -3.6807   -2.7523    0.1036 H   0  0  0  0  0  0  0  0  0  0  0  0
   -2.0477   -1.8543    1.1546 C   0  0  0  0  0  0  0  0  0  0  0  0
   -1.2227   -2.3443    1.9146 O   0  0  0  0  0  0  0  0  0  0  0  0
   -1.7517   -0.8483    0.3266 N   0  0  0  0  0  0  0  0  0  0  0  0
   -2.4847   -0.5123   -0.2804 H   0  0  0  0  0  0  0  0  0  0  0  0
   -0.4117   -0.2463    0.2186 C   0  0  1  0  0  0  0  0  0  0  0  0
    0.2987   -1.0391   -0.0285 H   0  0  0  0  0  0  0  0  0  0  0  0
   -0.4131    0.7505   -0.9636 C   0  0  0  0  0  0  0  0  0  0  0  0
    0.5833    0.7593   -1.4128 H   0  0  0  0  0  0  0  0  0  0  0  0
   -1.1062    0.3932   -1.7282 H   0  0  0  0  0  0  0  0  0  0  0  0
   -0.7971    2.1710   -0.6073 C   0  0  0  0  0  0  0  0  0  0  0  0
   -2.0035    2.5576   -0.0564 N   0  3  0  0  0  0  0  0  0  0  0  0
   -2.7343    1.8972    0.2237 H   0  0  0  0  0  0  0  0  0  0  0  0
   -1.9823    3.8937    0.1197 C   0  0  0  0  0  0  0  0  0  0  0  0
   -2.7891    4.4850    0.5481 H   0  0  0  0  0  0  0  0  0  0  0  0
   -0.7888    4.3635   -0.3085 N   0  0  0  0  0  0  0  0  0  0  0  0
   -0.4899    5.3351   -0.2944 H   0  0  0  0  0  0  0  0  0  0  0  0
   -0.0323    3.2946   -0.7685 C   0  0  0  0  0  0  0  0  0  0  0  0
    0.9733    3.3317   -1.1783 H   0  0  0  0  0  0  0  0  0  0  0  0
    0.0470    0.3465    1.5629 C   0  0  0  0  0  0  0  0  0  0  0  0
    1.1854    0.1365    1.9846 O   0  0  0  0  0  0  0  0  0  0  0  0
   -0.8551    1.0750    2.2320 N   0  0  0  0  0  0  0  0  0  0  0  0
   -1.7594    1.2031    1.8040 H   0  0  0  0  0  0  0  0  0  0  0  0
   -0.6356    1.6998    3.5400 C   0  0  0  0  0  0  0  0  0  0  0  0
   -0.4284    2.7647    3.4168 H   0  0  0  0  0  0  0  0  0  0  0  0
   -1.5268    1.5885    4.1601 H   0  0  0  0  0  0  0  0  0  0  0  0
    0.2072    1.2358    4.0566 H   0  0  0  0  0  0  0  0  0  0  0  0
  5  6  2  0  0  0  0
  5  7  1  0  0  0  0
  2  3  1  0  0  0  0
  2  4  1  0  0  0  0
  2  5  1  0  0  0  0
  1  2  1  0  0  0  0
 23 24  2  0  0  0  0
 23 25  1  0  0  0  0
 21 22  1  0  0  0  0
 19 20  1  0  0  0  0
 19 21  1  0  0  0  0
 17 18  1  0  0  0  0
 17 19  1  0  0  0  0
 15 16  1  0  0  0  0
 15 17  2  0  0  0  0
 14 15  1  0  0  0  0
 14 21  2  0  0  0  0
 11 12  1  0  0  0  0
 11 13  1  0  0  0  0
 11 14  1  0  0  0  0
  9 10  1  0  0  0  0
  9 11  1  0  0  0  0
  9 23  1  0  0  0  0
  7  8  1  0  0  0  0
  7  9  1  0  0  0  0
 27 28  1  0  0  0  0
 27 29  1  0  0  0  0
 27 30  1  0  0  0  0
 25 26  1  0  0  0  0
 25 27  1  0  0  0  0
M  CHG  1  15   1
M  END
$$$$
default_name
  -OEChem-02102213163D

 30 30  0     1  0  0  0  0  0999 V2000
   -3.5507   -3.2183    1.8116 H   0  0  0  0  0  0  0  0  0  0  0  0
   -3.4597   -2.3913    1.1076 C   0  0  0  0  0  0  0  0  0  0  0  0
   -4.1577   -1.6043    1.3866 H   0  0  0  0  0  0  0  0  0  0  0  0
   -3.6807   -2.7523    0.1036 H   0  0  0  0  0  0  0  0  0  0  0  0
   -2.0477   -1.8543    1.1546 C   0  0  0  0  0  0  0  0  0  0  0  0
   -1.2227   -2.3443    1.9146 O   0  0  0  0  0  0  0  0  0  0  0  0
   -1.7517   -0.8483    0.3266 N   0  0  0  0  0  0  0  0  0  0  0  0
   -2.4847   -0.5123   -0.2804 H   0  0  0  0  0  0  0  0  0  0  0  0
   -0.4117   -0.2463    0.2186 C   0  0  1  0  0  0  0  0  0  0  0  0
    0.2987   -1.0391   -0.0285 H   0  0  0  0  0  0  0  0  0  0  0  0
   -0.4131    0.7505   -0.9636 C   0  0  0  0  0  0  0  0  0  0  0  0
    0.5833    0.7593   -1.4128 H   0  0  0  0  0  0  0  0  0  0  0  0
   -1.1062    0.3932   -1.7282 H   0  0  0  0  0  0  0  0  0  0  0  0
   -0.7971    2.1710   -0.6073 C   0  0  0  0  0  0  0  0  0  0  0  0
   -1.8591    2.5326    0.1988 N   0  3  0  0  0  0  0  0  0  0  0  0
   -2.4535    1.8568    0.6872 H   0  0  0  0  0  0  0  0  0  0  0  0
   -1.8883    3.8773    0.2864 C   0  0  0  0  0  0  0  0  0  0  0  0
   -2.6071    4.4549    0.8642 H   0  0  0  0  0  0  0  0  0  0  0  0
   -0.8684    4.3769   -0.4475 N   0  0  0  0  0  0  0  0  0  0  0  0
   -0.6428    5.3613   -0.5636 H   0  0  0  0  0  0  0  0  0  0  0  0
   -0.1730    3.3186   -1.0159 C   0  0  0  0  0  0  0  0  0  0  0  0
    0.6993    3.3787   -1.6609 H   0  0  0  0  0  0  0  0  0  0  0  0
    0.0470    0.3465    1.5629 C   0  0  0  0  0  0  0  0  0  0  0  0
    1.1854    0.1365    1.9846 O   0  0  0  0  0  0  0  0  0  0  0  0
   -0.8551    1.0750    2.2320 N   0  0  0  0  0  0  0  0  0  0  0  0
   -1.7594    1.2031    1.8040 H   0  0  0  0  0  0  0  0  0  0  0  0
   -0.6356    1.6998    3.5400 C   0  0  0  0  0  0  0  0  0  0  0  0
   -0.4284    2.7647    3.4168 H   0  0  0  0  0  0  0  0  0  0  0  0
   -1.5268    1.5885    4.1601 H   0  0  0  0  0  0  0  0  0  0  0  0
    0.2072    1.2358    4.0566 H   0  0  0  0  0  0  0  0  0  0  0  0
  5  6  2  0  0  0  0
  5  7  1  0  0  0  0
  2  3  1  0  0  0  0
  2  4  1  0  0  0  0
  2  5  1  0  0  0  0
  1  2  1  0  0  0  0
 23 24  2  0  0  0  0
 23 25  1  0  0  0  0
 21 22  1  0  0  0  0
 19 20  1  0  0  0  0
 19 21  1  0  0  0  0
 17 18  1  0  0  0  0
 17 19  1  0  0  0  0
 15 16  1  0  0  0  0
 15 17  2  0  0  0  0
 14 15  1  0  0  0  0
 14 21  2  0  0  0  0
 11 12  1  0  0  0  0
 11 13  1  0  0  0  0
 11 14  1  0  0  0  0
  9 10  1  0  0  0  0
  9 11  1  0  0  0  0
  9 23  1  0  0  0  0
  7  8  1  0  0  0  0
  7  9  1  0  0  0  0
 27 28  1  0  0  0  0
 27 29  1  0  0  0  0
 27 30  1  0  0  0  0
 25 26  1  0  0  0  0
 25 27  1  0  0  0  0
M  CHG  1  15   1
M  END
$$$$
default_name
  -OEChem-02102213163D

 30 30  0     1  0  0  0  0  0999 V2000
   -3.5507   -3.2183    1.8116 H   0  0  0  0  0  0  0  0  0  0  0  0
   -3.4597   -2.3913    1.1076 C   0  0  0  0  0  0  0  0  0  0  0  0
   -4.1577   -1.6043    1.3866 H   0  0  0  0  0  0  0  0  0  0  0  0
   -3.6807   -2.7523    0.1036 H   0  0  0  0  0  0  0  0  0  0  0  0
   -2.0477   -1.8543    1.1546 C   0  0  0  0  0  0  0  0  0  0  0  0
   -1.2227   -2.3443    1.9146 O   0  0  0  0  0  0  0  0  0  0  0  0
   -1.7517   -0.8483    0.3266 N   0  0  0  0  0  0  0  0  0  0  0  0
   -2.4847   -0.5123   -0.2804 H   0  0  0  0  0  0  0  0  0  0  0  0
   -0.4117   -0.2463    0.2186 C   0  0  1  0  0  0  0  0  0  0  0  0
    0.2987   -1.0391   -0.0285 H   0  0  0  0  0  0  0  0  0  0  0  0
   -0.4131    0.7505   -0.9636 C   0  0  0  0  0  0  0  0  0  0  0  0
    0.5833    0.7593   -1.4128 H   0  0  0  0  0  0  0  0  0  0  0  0
   -1.1062    0.3932   -1.7282 H   0  0  0  0  0  0  0  0  0  0  0  0
   -0.7971    2.1710   -0.6073 C   0  0  0  0  0  0  0  0  0  0  0  0
   -1.6561    2.5341    0.4118 N   0  3  0  0  0  0  0  0  0  0  0  0
   -2.0673    1.8653    1.0694 H   0  0  0  0  0  0  0  0  0  0  0  0
   -1.7561    3.8781    0.4257 C   0  0  0  0  0  0  0  0  0  0  0  0
   -2.3527    4.4577    1.1273 H   0  0  0  0  0  0  0  0  0  0  0  0
   -0.9799    4.3758   -0.5634 N   0  0  0  0  0  0  0  0  0  0  0  0
   -0.8573    5.3597   -0.7882 H   0  0  0  0  0  0  0  0  0  0  0  0
   -0.3705    3.3170   -1.2223 C   0  0  0  0  0  0  0  0  0  0  0  0
    0.3145    3.3757   -2.0635 H   0  0  0  0  0  0  0  0  0  0  0  0
    0.0470    0.3465    1.5629 C   0  0  0  0  0  0  0  0  0  0  0  0
    1.1854    0.1365    1.9846 O   0  0  0  0  0  0  0  0  0  0  0  0
   -0.8551    1.0750    2.2320 N   0  0  0  0  0  0  0  0  0  0  0  0
   -1.7594    1.2031    1.8040 H   0  0  0  0  0  0  0  0  0  0  0  0
   -0.6356    1.6998    3.5400 C   0  0  0  0  0  0  0  0  0  0  0  0
   -0.4284    2.7647    3.4168 H   0  0  0  0  0  0  0  0  0  0  0  0
   -1.5268    1.5885    4.1601 H   0  0  0  0  0  0  0  0  0  0  0  0
    0.2072    1.2358    4.0566 H   0  0  0  0  0  0  0  0  0  0  0  0
  5  6  2  0  0  0  0
  5  7  1  0  0  0  0
  2  3  1  0  0  0  0
  2  4  1  0  0  0  0
  2  5  1  0  0  0  0
  1  2  1  0  0  0  0
 23 24  2  0  0  0  0
 23 25  1  0  0  0  0
 21 22  1  0  0  0  0
 19 20  1  0  0  0  0
 19 21  1  0  0  0  0
 17 18  1  0  0  0  0
 17 19  1  0  0  0  0
 15 16  1  0  0  0  0
 15 17  2  0  0  0  0
 14 15  1  0  0  0  0
 14 21  2  0  0  0  0
 11 12  1  0  0  0  0
 11 13  1  0  0  0  0
 11 14  1  0  0  0  0
  9 10  1  0  0  0  0
  9 11  1  0  0  0  0
  9 23  1  0  0  0  0
  7  8  1  0  0  0  0
  7  9  1  0  0  0  0
 27 28  1  0  0  0  0
 27 29  1  0  0  0  0
 27 30  1  0  0  0  0
 25 26  1  0  0  0  0
 25 27  1  0  0  0  0
M  CHG  1  15   1
M  END
$$$$
default_name
  -OEChem-02102213163D

 30 30  0     1  0  0  0  0  0999 V2000
   -3.5507   -3.2183    1.8116 H   0  0  0  0  0  0  0  0  0  0  0  0
   -3.4597   -2.3913    1.1076 C   0  0  0  0  0  0  0  0  0  0  0  0
   -4.1577   -1.6043    1.3866 H   0  0  0  0  0  0  0  0  0  0  0  0
   -3.6807   -2.7523    0.1036 H   0  0  0  0  0  0  0  0  0  0  0  0
   -2.0477   -1.8543    1.1546 C   0  0  0  0  0  0  0  0  0  0  0  0
   -1.2227   -2.3443    1.9146 O   0  0  0  0  0  0  0  0  0  0  0  0
   -1.7517   -0.8483    0.3266 N   0  0  0  0  0  0  0  0  0  0  0  0
   -2.4847   -0.5123   -0.2804 H   0  0  0  0  0  0  0  0  0  0  0  0
   -0.4117   -0.2463    0.2186 C   0  0  1  0  0  0  0  0  0  0  0  0
    0.2987   -1.0391   -0.0285 H   0  0  0  0  0  0  0  0  0  0  0  0
   -0.4131    0.7505   -0.9636 C   0  0  0  0  0  0  0  0  0  0  0  0
    0.5833    0.7593   -1.4128 H   0  0  0  0  0  0  0  0  0  0  0  0
   -1.1062    0.3932   -1.7282 H   0  0  0  0  0  0  0  0  0  0  0  0
   -0.7971    2.1710   -0.6073 C   0  0  0  0  0  0  0  0  0  0  0  0
   -1.4083    2.5618    0.5683 N   0  3  0  0  0  0  0  0  0  0  0  0
   -1.6019    1.9222    1.3442 H   0  0  0  0  0  0  0  0  0  0  0  0
   -1.5946    3.8961    0.5281 C   0  0  0  0  0  0  0  0  0  0  0  0
   -2.0432    4.4931    1.3194 H   0  0  0  0  0  0  0  0  0  0  0  0
   -1.1157    4.3604   -0.6482 N   0  0  0  0  0  0  0  0  0  0  0  0
   -1.1191    5.3302   -0.9530 H   0  0  0  0  0  0  0  0  0  0  0  0
   -0.6113    3.2899   -1.3735 C   0  0  0  0  0  0  0  0  0  0  0  0
   -0.1547    3.3229   -2.3589 H   0  0  0  0  0  0  0  0  0  0  0  0
    0.0470    0.3465    1.5629 C   0  0  0  0  0  0  0  0  0  0  0  0
    1.1854    0.1365    1.9846 O   0  0  0  0  0  0  0  0  0  0  0  0
   -0.8551    1.0750    2.2320 N   0  0  0  0  0  0  0  0  0  0  0  0
   -1.7594    1.2031    1.8040 H   0  0  0  0  0  0  0  0  0  0  0  0
   -0.6356    1.6998    3.5400 C   0  0  0  0  0  0  0  0  0  0  0  0
   -0.4284    2.7647    3.4168 H   0  0  0  0  0  0  0  0  0  0  0  0
   -1.5268    1.5885    4.1601 H   0  0  0  0  0  0  0  0  0  0  0  0
    0.2072    1.2358    4.0566 H   0  0  0  0  0  0  0  0  0  0  0  0
  5  6  2  0  0  0  0
  5  7  1  0  0  0  0
  2  3  1  0  0  0  0
  2  4  1  0  0  0  0
  2  5  1  0  0  0  0
  1  2  1  0  0  0  0
 23 24  2  0  0  0  0
 23 25  1  0  0  0  0
 21 22  1  0  0  0  0
 19 20  1  0  0  0  0
 19 21  1  0  0  0  0
 17 18  1  0  0  0  0
 17 19  1  0  0  0  0
 15 16  1  0  0  0  0
 15 17  2  0  0  0  0
 14 15  1  0  0  0  0
 14 21  2  0  0  0  0
 11 12  1  0  0  0  0
 11 13  1  0  0  0  0
 11 14  1  0  0  0  0
  9 10  1  0  0  0  0
  9 11  1  0  0  0  0
  9 23  1  0  0  0  0
  7  8  1  0  0  0  0
  7  9  1  0  0  0  0
 27 28  1  0  0  0  0
 27 29  1  0  0  0  0
 27 30  1  0  0  0  0
 25 26  1  0  0  0  0
 25 27  1  0  0  0  0
M  CHG  1  15   1
M  END
$$$$
default_name
  -OEChem-02102213163D

 30 30  0     1  0  0  0  0  0999 V2000
   -3.5507   -3.2183    1.8116 H   0  0  0  0  0  0  0  0  0  0  0  0
   -3.4597   -2.3913    1.1076 C   0  0  0  0  0  0  0  0  0  0  0  0
   -4.1577   -1.6043    1.3866 H   0  0  0  0  0  0  0  0  0  0  0  0
   -3.6807   -2.7523    0.1036 H   0  0  0  0  0  0  0  0  0  0  0  0
   -2.0477   -1.8543    1.1546 C   0  0  0  0  0  0  0  0  0  0  0  0
   -1.2227   -2.3443    1.9146 O   0  0  0  0  0  0  0  0  0  0  0  0
   -1.7517   -0.8483    0.3266 N   0  0  0  0  0  0  0  0  0  0  0  0
   -2.4847   -0.5123   -0.2804 H   0  0  0  0  0  0  0  0  0  0  0  0
   -0.4117   -0.2463    0.2186 C   0  0  1  0  0  0  0  0  0  0  0  0
    0.2987   -1.0391   -0.0285 H   0  0  0  0  0  0  0  0  0  0  0  0
   -0.4131    0.7505   -0.9636 C   0  0  0  0  0  0  0  0  0  0  0  0
    0.5833    0.7593   -1.4128 H   0  0  0  0  0  0  0  0  0  0  0  0
   -1.1062    0.3932   -1.7282 H   0  0  0  0  0  0  0  0  0  0  0  0
   -0.7971    2.1710   -0.6073 C   0  0  0  0  0  0  0  0  0  0  0  0
   -1.1327    2.6140    0.6574 N   0  3  0  0  0  0  0  0  0  0  0  0
   -1.0892    2.0235    1.4930 H   0  0  0  0  0  0  0  0  0  0  0  0
   -1.4148    3.9300    0.5865 C   0  0  0  0  0  0  0  0  0  0  0  0
   -1.6998    4.5588    1.4276 H   0  0  0  0  0  0  0  0  0  0  0  0
   -1.2665    4.3316   -0.6961 N   0  0  0  0  0  0  0  0  0  0  0  0
   -1.4101    5.2750   -1.0466 H   0  0  0  0  0  0  0  0  0  0  0  0
   -0.8789    3.2390   -1.4594 C   0  0  0  0  0  0  0  0  0  0  0  0
   -0.6765    3.2240   -2.5267 H   0  0  0  0  0  0  0  0  0  0  0  0
    0.0470    0.3465    1.5629 C   0  0  0  0  0  0  0  0  0  0  0  0
    1.1854    0.1365    1.9846 O   0  0  0  0  0  0  0  0  0  0  0  0
   -0.8551    1.0750    2.2320 N   0  0  0  0  0  0  0  0  0  0  0  0
   -1.7594    1.2031    1.8040 H   0  0  0  0  0  0  0  0  0  0  0  0
   -0.6356    1.6998    3.5400 C   0  0  0  0  0  0  0  0  0  0  0  0
   -0.4284    2.7647    3.4168 H   0  0  0  0  0  0  0  0  0  0  0  0
   -1.5268    1.5885    4.1601 H   0  0  0  0  0  0  0  0  0  0  0  0
    0.2072    1.2358    4.0566 H   0  0  0  0  0  0  0  0  0  0  0  0
  5  6  2  0  0  0  0
  5  7  1  0  0  0  0
  2  3  1  0  0  0  0
  2  4  1  0  0  0  0
  2  5  1  0  0  0  0
  1  2  1  0  0  0  0
 23 24  2  0  0  0  0
 23 25  1  0  0  0  0
 21 22  1  0  0  0  0
 19 20  1  0  0  0  0
 19 21  1  0  0  0  0
 17 18  1  0  0  0  0
 17 19  1  0  0  0  0
 15 16  1  0  0  0  0
 15 17  2  0  0  0  0
 14 15  1  0  0  0  0
 14 21  2  0  0  0  0
 11 12  1  0  0  0  0
 11 13  1  0  0  0  0
 11 14  1  0  0  0  0
  9 10  1  0  0  0  0
  9 11  1  0  0  0  0
  9 23  1  0  0  0  0
  7  8  1  0  0  0  0
  7  9  1  0  0  0  0
 27 28  1  0  0  0  0
 27 29  1  0  0  0  0
 27 30  1  0  0  0  0
 25 26  1  0  0  0  0
 25 27  1  0  0  0  0
M  CHG  1  15   1
M  END
$$$$
default_name
  -OEChem-02102213163D

 30 30  0     1  0  0  0  0  0999 V2000
   -3.5507   -3.2183    1.8116 H   0  0  0  0  0  0  0  0  0  0  0  0
   -3.4597   -2.3913    1.1076 C   0  0  0  0  0  0  0  0  0  0  0  0
   -4.1577   -1.6043    1.3866 H   0  0  0  0  0  0  0  0  0  0  0  0
   -3.6807   -2.7523    0.1036 H   0  0  0  0  0  0  0  0  0  0  0  0
   -2.0477   -1.8543    1.1546 C   0  0  0  0  0  0  0  0  0  0  0  0
   -1.2227   -2.3443    1.9146 O   0  0  0  0  0  0  0  0  0  0  0  0
   -1.7517   -0.8483    0.3266 N   0  0  0  0  0  0  0  0  0  0  0  0
   -2.4847   -0.5123   -0.2804 H   0  0  0  0  0  0  0  0  0  0  0  0
   -0.4117   -0.2463    0.2186 C   0  0  1  0  0  0  0  0  0  0  0  0
    0.2987   -1.0391   -0.0285 H   0  0  0  0  0  0  0  0  0  0  0  0
   -0.4131    0.7505   -0.9636 C   0  0  0  0  0  0  0  0  0  0  0  0
    0.5833    0.7593   -1.4128 H   0  0  0  0  0  0  0  0  0  0  0  0
   -1.1062    0.3932   -1.7282 H   0  0  0  0  0  0  0  0  0  0  0  0
   -0.7971    2.1710   -0.6073 C   0  0  0  0  0  0  0  0  0  0  0  0
   -0.8481    2.6870    0.6731 N   0  3  0  0  0  0  0  0  0  0  0  0
   -0.5639    2.1624    1.5055 H   0  0  0  0  0  0  0  0  0  0  0  0
   -1.2291    3.9776    0.5971 C   0  0  0  0  0  0  0  0  0  0  0  0
   -1.3459    4.6503    1.4444 H   0  0  0  0  0  0  0  0  0  0  0  0
   -1.4221    4.2915   -0.7039 N   0  0  0  0  0  0  0  0  0  0  0  0
   -1.7106    5.1979   -1.0628 H   0  0  0  0  0  0  0  0  0  0  0  0
   -1.1552    3.1680   -1.4740 C   0  0  0  0  0  0  0  0  0  0  0  0
   -1.2152    3.0856   -2.5557 H   0  0  0  0  0  0  0  0  0  0  0  0
    0.0470    0.3465    1.5629 C   0  0  0  0  0  0  0  0  0  0  0  0
    1.1854    0.1365    1.9846 O   0  0  0  0  0  0  0  0  0  0  0  0
   -0.8551    1.0750    2.2320 N   0  0  0  0  0  0  0  0  0  0  0  0
   -1.7594    1.2031    1.8040 H   0  0  0  0  0  0  0  0  0  0  0  0
   -0.6356    1.6998    3.5400 C   0  0  0  0  0  0  0  0  0  0  0  0
   -0.4284    2.7647    3.4168 H   0  0  0  0  0  0  0  0  0  0  0  0
   -1.5268    1.5885    4.1601 H   0  0  0  0  0  0  0  0  0  0  0  0
    0.2072    1.2358    4.0566 H   0  0  0  0  0  0  0  0  0  0  0  0
  5  6  2  0  0  0  0
  5  7  1  0  0  0  0
  2  3  1  0  0  0  0
  2  4  1  0  0  0  0
  2  5  1  0  0  0  0
  1  2  1  0  0  0  0
 23 24  2  0  0  0  0
 23 25  1  0  0  0  0
 21 22  1  0  0  0  0
 19 20  1  0  0  0  0
 19 21  1  0  0  0  0
 17 18  1  0  0  0  0
 17 19  1  0  0  0  0
 15 16  1  0  0  0  0
 15 17  2  0  0  0  0
 14 15  1  0  0  0  0
 14 21  2  0  0  0  0
 11 12  1  0  0  0  0
 11 13  1  0  0  0  0
 11 14  1  0  0  0  0
  9 10  1  0  0  0  0
  9 11  1  0  0  0  0
  9 23  1  0  0  0  0
  7  8  1  0  0  0  0
  7  9  1  0  0  0  0
 27 28  1  0  0  0  0
 27 29  1  0  0  0  0
 27 30  1  0  0  0  0
 25 26  1  0  0  0  0
 25 27  1  0  0  0  0
M  CHG  1  15   1
M  END
$$$$
default_name
  -OEChem-02102213163D

 30 30  0     1  0  0  0  0  0999 V2000
   -3.5507   -3.2183    1.8116 H   0  0  0  0  0  0  0  0  0  0  0  0
   -3.4597   -2.3913    1.1076 C   0  0  0  0  0  0  0  0  0  0  0  0
   -4.1577   -1.6043    1.3866 H   0  0  0  0  0  0  0  0  0  0  0  0
   -3.6807   -2.7523    0.1036 H   0  0  0  0  0  0  0  0  0  0  0  0
   -2.0477   -1.8543    1.1546 C   0  0  0  0  0  0  0  0  0  0  0  0
   -1.2227   -2.3443    1.9146 O   0  0  0  0  0  0  0  0  0  0  0  0
   -1.7517   -0.8483    0.3266 N   0  0  0  0  0  0  0  0  0  0  0  0
   -2.4847   -0.5123   -0.2804 H   0  0  0  0  0  0  0  0  0  0  0  0
   -0.4117   -0.2463    0.2186 C   0  0  1  0  0  0  0  0  0  0  0  0
    0.2987   -1.0391   -0.0285 H   0  0  0  0  0  0  0  0  0  0  0  0
   -0.4131    0.7505   -0.9636 C   0  0  0  0  0  0  0  0  0  0  0  0
    0.5833    0.7593   -1.4128 H   0  0  0  0  0  0  0  0  0  0  0  0
   -1.1062    0.3932   -1.7282 H   0  0  0  0  0  0  0  0  0  0  0  0
   -0.7971    2.1710   -0.6073 C   0  0  0  0  0  0  0  0  0  0  0  0
   -0.5737    2.7759    0.6144 N   0  3  0  0  0  0  0  0  0  0  0  0
   -0.0620    2.3293    1.3809 H   0  0  0  0  0  0  0  0  0  0  0  0
   -1.0500    4.0355    0.5591 C   0  0  0  0  0  0  0  0  0  0  0  0
   -1.0054    4.7614    1.3686 H   0  0  0  0  0  0  0  0  0  0  0  0
   -1.5717    4.2428   -0.6710 N   0  0  0  0  0  0  0  0  0  0  0  0
   -2.0000    5.1040   -1.0004 H   0  0  0  0  0  0  0  0  0  0  0  0
   -1.4213    3.0816   -1.4163 C   0  0  0  0  0  0  0  0  0  0  0  0
   -1.7342    2.9172   -2.4437 H   0  0  0  0  0  0  0  0  0  0  0  0
    0.0470    0.3465    1.5629 C   0  0  0  0  0  0  0  0  0  0  0  0
    1.1854    0.1365    1.9846 O   0  0  0  0  0  0  0  0  0  0  0  0
   -0.8551    1.0750    2.2320 N   0  0  0  0  0  0  0  0  0  0  0  0
   -1.7594    1.2031    1.8040 H   0  0  0  0  0  0  0  0  0  0  0  0
   -0.6356    1.6998    3.5400 C   0  0  0  0  0  0  0  0  0  0  0  0
   -0.4284    2.7647    3.4168 H   0  0  0  0  0  0  0  0  0  0  0  0
   -1.5268    1.5885    4.1601 H   0  0  0  0  0  0  0  0  0  0  0  0
    0.2072    1.2358    4.0566 H   0  0  0  0  0  0  0  0  0  0  0  0
  5  6  2  0  0  0  0
  5  7  1  0  0  0  0
  2  3  1  0  0  0  0
  2  4  1  0  0  0  0
  2  5  1  0  0  0  0
  1  2  1  0  0  0  0
 23 24  2  0  0  0  0
 23 25  1  0  0  0  0
 21 22  1  0  0  0  0
 19 20  1  0  0  0  0
 19 21  1  0  0  0  0
 17 18  1  0  0  0  0
 17 19  1  0  0  0  0
 15 16  1  0  0  0  0
 15 17  2  0  0  0  0
 14 15  1  0  0  0  0
 14 21  2  0  0  0  0
 11 12  1  0  0  0  0
 11 13  1  0  0  0  0
 11 14  1  0  0  0  0
  9 10  1  0  0  0  0
  9 11  1  0  0  0  0
  9 23  1  0  0  0  0
  7  8  1  0  0  0  0
  7  9  1  0  0  0  0
 27 28  1  0  0  0  0
 27 29  1  0  0  0  0
 27 30  1  0  0  0  0
 25 26  1  0  0  0  0
 25 27  1  0  0  0  0
M  CHG  1  15   1
M  END
$$$$
default_name
  -OEChem-02102213163D

 30 30  0     1  0  0  0  0  0999 V2000
   -3.5507   -3.2183    1.8116 H   0  0  0  0  0  0  0  0  0  0  0  0
   -3.4597   -2.3913    1.1076 C   0  0  0  0  0  0  0  0  0  0  0  0
   -4.1577   -1.6043    1.3866 H   0  0  0  0  0  0  0  0  0  0  0  0
   -3.6807   -2.7523    0.1036 H   0  0  0  0  0  0  0  0  0  0  0  0
   -2.0477   -1.8543    1.1546 C   0  0  0  0  0  0  0  0  0  0  0  0
   -1.2227   -2.3443    1.9146 O   0  0  0  0  0  0  0  0  0  0  0  0
   -1.7517   -0.8483    0.3266 N   0  0  0  0  0  0  0  0  0  0  0  0
   -2.4847   -0.5123   -0.2804 H   0  0  0  0  0  0  0  0  0  0  0  0
   -0.4117   -0.2463    0.2186 C   0  0  1  0  0  0  0  0  0  0  0  0
    0.2987   -1.0391   -0.0285 H   0  0  0  0  0  0  0  0  0  0  0  0
   -0.4131    0.7505   -0.9636 C   0  0  0  0  0  0  0  0  0  0  0  0
    0.5833    0.7593   -1.4128 H   0  0  0  0  0  0  0  0  0  0  0  0
   -1.1062    0.3932   -1.7282 H   0  0  0  0  0  0  0  0  0  0  0  0
   -0.7971    2.1710   -0.6073 C   0  0  0  0  0  0  0  0  0  0  0  0
   -0.3284    2.8746    0.4853 N   0  3  0  0  0  0  0  0  0  0  0  0
    0.3824    2.5129    1.1277 H   0  0  0  0  0  0  0  0  0  0  0  0
   -0.8897    4.0999    0.4751 C   0  0  0  0  0  0  0  0  0  0  0  0
   -0.7018    4.8844    1.2055 H   0  0  0  0  0  0  0  0  0  0  0  0
   -1.7054    4.1888   -0.5997 N   0  0  0  0  0  0  0  0  0  0  0  0
   -2.2588    4.9997   -0.8636 H   0  0  0  0  0  0  0  0  0  0  0  0
   -1.6591    2.9857   -1.2904 C   0  0  0  0  0  0  0  0  0  0  0  0
   -2.1980    2.7303   -2.1985 H   0  0  0  0  0  0  0  0  0  0  0  0
    0.0470    0.3465    1.5629 C   0  0  0  0  0  0  0  0  0  0  0  0
    1.1854    0.1365    1.9846 O   0  0  0  0  0  0  0  0  0  0  0  0
   -0.8551    1.0750    2.2320 N   0  0  0  0  0  0  0  0  0  0  0  0
   -1.7594    1.2031    1.8040 H   0  0  0  0  0  0  0  0  0  0  0  0
   -0.6356    1.6998    3.5400 C   0  0  0  0  0  0  0  0  0  0  0  0
   -0.4284    2.7647    3.4168 H   0  0  0  0  0  0  0  0  0  0  0  0
   -1.5268    1.5885    4.1601 H   0  0  0  0  0  0  0  0  0  0  0  0
    0.2072    1.2358    4.0566 H   0  0  0  0  0  0  0  0  0  0  0  0
  5  6  2  0  0  0  0
  5  7  1  0  0  0  0
  2  3  1  0  0  0  0
  2  4  1  0  0  0  0
  2  5  1  0  0  0  0
  1  2  1  0  0  0  0
 23 24  2  0  0  0  0
 23 25  1  0  0  0  0
 21 22  1  0  0  0  0
 19 20  1  0  0  0  0
 19 21  1  0  0  0  0
 17 18  1  0  0  0  0
 17 19  1  0  0  0  0
 15 16  1  0  0  0  0
 15 17  2  0  0  0  0
 14 15  1  0  0  0  0
 14 21  2  0  0  0  0
 11 12  1  0  0  0  0
 11 13  1  0  0  0  0
 11 14  1  0  0  0  0
  9 10  1  0  0  0  0
  9 11  1  0  0  0  0
  9 23  1  0  0  0  0
  7  8  1  0  0  0  0
  7  9  1  0  0  0  0
 27 28  1  0  0  0  0
 27 29  1  0  0  0  0
 27 30  1  0  0  0  0
 25 26  1  0  0  0  0
 25 27  1  0  0  0  0
M  CHG  1  15   1
M  END
$$$$
default_name
  -OEChem-02102213163D

 30 30  0     1  0  0  0  0  0999 V2000
   -3.5507   -3.2183    1.8116 H   0  0  0  0  0  0  0  0  0  0  0  0
   -3.4597   -2.3913    1.1076 C   0  0  0  0  0  0  0  0  0  0  0  0
   -4.1577   -1.6043    1.3866 H   0  0  0  0  0  0  0  0  0  0  0  0
   -3.6807   -2.7523    0.1036 H   0  0  0  0  0  0  0  0  0  0  0  0
   -2.0477   -1.8543    1.1546 C   0  0  0  0  0  0  0  0  0  0  0  0
   -1.2227   -2.3443    1.9146 O   0  0  0  0  0  0  0  0  0  0  0  0
   -1.7517   -0.8483    0.3266 N   0  0  0  0  0  0  0  0  0  0  0  0
   -2.4847   -0.5123   -0.2804 H   0  0  0  0  0  0  0  0  0  0  0  0
   -0.4117   -0.2463    0.2186 C   0  0  1  0  0  0  0  0  0  0  0  0
    0.2987   -1.0391   -0.0285 H   0  0  0  0  0  0  0  0  0  0  0  0
   -0.4131    0.7505   -0.9636 C   0  0  0  0  0  0  0  0  0  0  0  0
    0.5833    0.7593   -1.4128 H   0  0  0  0  0  0  0  0  0  0  0  0
   -1.1062    0.3932   -1.7282 H   0  0  0  0  0  0  0  0  0  0  0  0
   -0.7971    2.1710   -0.6073 C   0  0  0  0  0  0  0  0  0  0  0  0
   -0.1288    2.9764    0.2944 N   0  3  0  0  0  0  0  0  0  0  0  0
    0.7390    2.7008    0.7632 H   0  0  0  0  0  0  0  0  0  0  0  0
   -0.7592    4.1664    0.3509 C   0  0  0  0  0  0  0  0  0  0  0  0
   -0.4556    5.0110    0.9661 H   0  0  0  0  0  0  0  0  0  0  0  0
   -1.8139    4.1332   -0.4948 N   0  0  0  0  0  0  0  0  0  0  0  0
   -2.4691    4.8922   -0.6619 H   0  0  0  0  0  0  0  0  0  0  0  0
   -1.8523    2.8869   -1.1047 C   0  0  0  0  0  0  0  0  0  0  0  0
   -2.5751    2.5376   -1.8368 H   0  0  0  0  0  0  0  0  0  0  0  0
    0.0470    0.3465    1.5629 C   0  0  0  0  0  0  0  0  0  0  0  0
    1.1854    0.1365    1.9846 O   0  0  0  0  0  0  0  0  0  0  0  0
   -0.8551    1.0750    2.2320 N   0  0  0  0  0  0  0  0  0  0  0  0
   -1.7594    1.2031    1.8040 H   0  0  0  0  0  0  0  0  0  0  0  0
   -0.6356    1.6998    3.5400 C   0  0  0  0  0  0  0  0  0  0  0  0
   -0.4284    2.7647    3.4168 H   0  0  0  0  0  0  0  0  0  0  0  0
   -1.5268    1.5885    4.1601 H   0  0  0  0  0  0  0  0  0  0  0  0
    0.2072    1.2358    4.0566 H   0  0  0  0  0  0  0  0  0  0  0  0
  5  6  2  0  0  0  0
  5  7  1  0  0  0  0
  2  3  1  0  0  0  0
  2  4  1  0  0  0  0
  2  5  1  0  0  0  0
  1  2  1  0  0  0  0
 23 24  2  0  0  0  0
 23 25  1  0  0  0  0
 21 22  1  0  0  0  0
 19 20  1  0  0  0  0
 19 21  1  0  0  0  0
 17 18  1  0  0  0  0
 17 19  1  0  0  0  0
 15 16  1  0  0  0  0
 15 17  2  0  0  0  0
 14 15  1  0  0  0  0
 14 21  2  0  0  0  0
 11 12  1  0  0  0  0
 11 13  1  0  0  0  0
 11 14  1  0  0  0  0
  9 10  1  0  0  0  0
  9 11  1  0  0  0  0
  9 23  1  0  0  0  0
  7  8  1  0  0  0  0
  7  9  1  0  0  0  0
 27 28  1  0  0  0  0
 27 29  1  0  0  0  0
 27 30  1  0  0  0  0
 25 26  1  0  0  0  0
 25 27  1  0  0  0  0
M  CHG  1  15   1
M  END
$$$$
default_name
  -OEChem-02102213163D

 30 30  0     1  0  0  0  0  0999 V2000
   -3.5507   -3.2183    1.8116 H   0  0  0  0  0  0  0  0  0  0  0  0
   -3.4597   -2.3913    1.1076 C   0  0  0  0  0  0  0  0  0  0  0  0
   -4.1577   -1.6043    1.3866 H   0  0  0  0  0  0  0  0  0  0  0  0
   -3.6807   -2.7523    0.1036 H   0  0  0  0  0  0  0  0  0  0  0  0
   -2.0477   -1.8543    1.1546 C   0  0  0  0  0  0  0  0  0  0  0  0
   -1.2227   -2.3443    1.9146 O   0  0  0  0  0  0  0  0  0  0  0  0
   -1.7517   -0.8483    0.3266 N   0  0  0  0  0  0  0  0  0  0  0  0
   -2.4847   -0.5123   -0.2804 H   0  0  0  0  0  0  0  0  0  0  0  0
   -0.4117   -0.2463    0.2186 C   0  0  1  0  0  0  0  0  0  0  0  0
    0.2987   -1.0391   -0.0285 H   0  0  0  0  0  0  0  0  0  0  0  0
   -0.4131    0.7505   -0.9636 C   0  0  0  0  0  0  0  0  0  0  0  0
    0.5833    0.7593   -1.4128 H   0  0  0  0  0  0  0  0  0  0  0  0
   -1.1062    0.3932   -1.7282 H   0  0  0  0  0  0  0  0  0  0  0  0
   -0.7971    2.1710   -0.6073 C   0  0  0  0  0  0  0  0  0  0  0  0
    0.0114    3.0744    0.0550 N   0  3  0  0  0  0  0  0  0  0  0  0
    0.9834    2.8800    0.3121 H   0  0  0  0  0  0  0  0  0  0  0  0
   -0.6674    4.2303    0.1948 C   0  0  0  0  0  0  0  0  0  0  0  0
   -0.2836    5.1326    0.6667 H   0  0  0  0  0  0  0  0  0  0  0  0
   -1.8898    4.0797   -0.3635 N   0  0  0  0  0  0  0  0  0  0  0  0
   -2.6168    4.7889   -0.4089 H   0  0  0  0  0  0  0  0  0  0  0  0
   -1.9878    2.7919   -0.8719 C   0  0  0  0  0  0  0  0  0  0  0  0
   -2.8398    2.3523   -1.3831 H   0  0  0  0  0  0  0  0  0  0  0  0
    0.0470    0.3465    1.5629 C   0  0  0  0  0  0  0  0  0  0  0  0
    1.1854    0.1365    1.9846 O   0  0  0  0  0  0  0  0  0  0  0  0
   -0.8551    1.0750    2.2320 N   0  0  0  0  0  0  0  0  0  0  0  0
   -1.7594    1.2031    1.8040 H   0  0  0  0  0  0  0  0  0  0  0  0
   -0.6356    1.6998    3.5400 C   0  0  0  0  0  0  0  0  0  0  0  0
   -0.4284    2.7647    3.4168 H   0  0  0  0  0  0  0  0  0  0  0  0
   -1.5268    1.5885    4.1601 H   0  0  0  0  0  0  0  0  0  0  0  0
    0.2072    1.2358    4.0566 H   0  0  0  0  0  0  0  0  0  0  0  0
  5  6  2  0  0  0  0
  5  7  1  0  0  0  0
  2  3  1  0  0  0  0
  2  4  1  0  0  0  0
  2  5  1  0  0  0  0
  1  2  1  0  0  0  0
 23 24  2  0  0  0  0
 23 25  1  0  0  0  0
 21 22  1  0  0  0  0
 19 20  1  0  0  0  0
 19 21  1  0  0  0  0
 17 18  1  0  0  0  0
 17 19  1  0  0  0  0
 15 16  1  0  0  0  0
 15 17  2  0  0  0  0
 14 15  1  0  0  0  0
 14 21  2  0  0  0  0
 11 12  1  0  0  0  0
 11 13  1  0  0  0  0
 11 14  1  0  0  0  0
  9 10  1  0  0  0  0
  9 11  1  0  0  0  0
  9 23  1  0  0  0  0
  7  8  1  0  0  0  0
  7  9  1  0  0  0  0
 27 28  1  0  0  0  0
 27 29  1  0  0  0  0
 27 30  1  0  0  0  0
 25 26  1  0  0  0  0
 25 27  1  0  0  0  0
M  CHG  1  15   1
M  END
$$$$
default_name
  -OEChem-02102213163D

 30 30  0     1  0  0  0  0  0999 V2000
   -3.5507   -3.2183    1.8116 H   0  0  0  0  0  0  0  0  0  0  0  0
   -3.4597   -2.3913    1.1076 C   0  0  0  0  0  0  0  0  0  0  0  0
   -4.1577   -1.6043    1.3866 H   0  0  0  0  0  0  0  0  0  0  0  0
   -3.6807   -2.7523    0.1036 H   0  0  0  0  0  0  0  0  0  0  0  0
   -2.0477   -1.8543    1.1546 C   0  0  0  0  0  0  0  0  0  0  0  0
   -1.2227   -2.3443    1.9146 O   0  0  0  0  0  0  0  0  0  0  0  0
   -1.7517   -0.8483    0.3266 N   0  0  0  0  0  0  0  0  0  0  0  0
   -2.4847   -0.5123   -0.2804 H   0  0  0  0  0  0  0  0  0  0  0  0
   -0.4117   -0.2463    0.2186 C   0  0  1  0  0  0  0  0  0  0  0  0
    0.2987   -1.0391   -0.0285 H   0  0  0  0  0  0  0  0  0  0  0  0
   -0.4131    0.7505   -0.9636 C   0  0  0  0  0  0  0  0  0  0  0  0
    0.5833    0.7593   -1.4128 H   0  0  0  0  0  0  0  0  0  0  0  0
   -1.1062    0.3932   -1.7282 H   0  0  0  0  0  0  0  0  0  0  0  0
   -0.7971    2.1710   -0.6073 C   0  0  0  0  0  0  0  0  0  0  0  0
    0.0828    3.1619   -0.2168 N   0  3  0  0  0  0  0  0  0  0  0  0
    1.0991    3.0384   -0.1946 H   0  0  0  0  0  0  0  0  0  0  0  0
   -0.6206    4.2875    0.0175 C   0  0  0  0  0  0  0  0  0  0  0  0
   -0.1976    5.2408    0.3279 H   0  0  0  0  0  0  0  0  0  0  0  0
   -1.9280    4.0321   -0.2147 N   0  0  0  0  0  0  0  0  0  0  0  0
   -2.6917    4.6966   -0.1218 H   0  0  0  0  0  0  0  0  0  0  0  0
   -2.0564    2.7071   -0.6079 C   0  0  0  0  0  0  0  0  0  0  0  0
   -2.9740    2.1869   -0.8685 H   0  0  0  0  0  0  0  0  0  0  0  0
    0.0470    0.3465    1.5629 C   0  0  0  0  0  0  0  0  0  0  0  0
    1.1854    0.1365    1.9846 O   0  0  0  0  0  0  0  0  0  0  0  0
   -0.8551    1.0750    2.2320 N   0  0  0  0  0  0  0  0  0  0  0  0
   -1.7594    1.2031    1.8040 H   0  0  0  0  0  0  0  0  0  0  0  0
   -0.6356    1.6998    3.5400 C   0  0  0  0  0  0  0  0  0  0  0  0
   -0.4284    2.7647    3.4168 H   0  0  0  0  0  0  0  0  0  0  0  0
   -1.5268    1.5885    4.1601 H   0  0  0  0  0  0  0  0  0  0  0  0
    0.2072    1.2358    4.0566 H   0  0  0  0  0  0  0  0  0  0  0  0
  5  6  2  0  0  0  0
  5  7  1  0  0  0  0
  2  3  1  0  0  0  0
  2  4  1  0  0  0  0
  2  5  1  0  0  0  0
  1  2  1  0  0  0  0
 23 24  2  0  0  0  0
 23 25  1  0  0  0  0
 21 22  1  0  0  0  0
 19 20  1  0  0  0  0
 19 21  1  0  0  0  0
 17 18  1  0  0  0  0
 17 19  1  0  0  0  0
 15 16  1  0  0  0  0
 15 17  2  0  0  0  0
 14 15  1  0  0  0  0
 14 21  2  0  0  0  0
 11 12  1  0  0  0  0
 11 13  1  0  0  0  0
 11 14  1  0  0  0  0
  9 10  1  0  0  0  0
  9 11  1  0  0  0  0
  9 23  1  0  0  0  0
  7  8  1  0  0  0  0
  7  9  1  0  0  0  0
 27 28  1  0  0  0  0
 27 29  1  0  0  0  0
 27 30  1  0  0  0  0
 25 26  1  0  0  0  0
 25 27  1  0  0  0  0
M  CHG  1  15   1
M  END
$$$$
default_name
  -OEChem-02102213163D

 30 30  0     1  0  0  0  0  0999 V2000
   -3.5507   -3.2183    1.8116 H   0  0  0  0  0  0  0  0  0  0  0  0
   -3.4597   -2.3913    1.1076 C   0  0  0  0  0  0  0  0  0  0  0  0
   -4.1577   -1.6043    1.3866 H   0  0  0  0  0  0  0  0  0  0  0  0
   -3.6807   -2.7523    0.1036 H   0  0  0  0  0  0  0  0  0  0  0  0
   -2.0477   -1.8543    1.1546 C   0  0  0  0  0  0  0  0  0  0  0  0
   -1.2227   -2.3443    1.9146 O   0  0  0  0  0  0  0  0  0  0  0  0
   -1.7517   -0.8483    0.3266 N   0  0  0  0  0  0  0  0  0  0  0  0
   -2.4847   -0.5123   -0.2804 H   0  0  0  0  0  0  0  0  0  0  0  0
   -0.4117   -0.2463    0.2186 C   0  0  1  0  0  0  0  0  0  0  0  0
    0.2987   -1.0391   -0.0285 H   0  0  0  0  0  0  0  0  0  0  0  0
   -0.4131    0.7505   -0.9636 C   0  0  0  0  0  0  0  0  0  0  0  0
    0.5833    0.7593   -1.4128 H   0  0  0  0  0  0  0  0  0  0  0  0
   -1.1062    0.3932   -1.7282 H   0  0  0  0  0  0  0  0  0  0  0  0
   -0.7971    2.1710   -0.6073 C   0  0  0  0  0  0  0  0  0  0  0  0
    0.0804    3.2328   -0.5024 N   0  3  0  0  0  0  0  0  0  0  0  0
    1.0782    3.1652   -0.7227 H   0  0  0  0  0  0  0  0  0  0  0  0
   -0.6218    4.3339   -0.1688 C   0  0  0  0  0  0  0  0  0  0  0  0
   -0.2034    5.3284   -0.0274 H   0  0  0  0  0  0  0  0  0  0  0  0
   -1.9258    3.9935   -0.0586 N   0  0  0  0  0  0  0  0  0  0  0  0
   -2.6887    4.6218    0.1797 H   0  0  0  0  0  0  0  0  0  0  0  0
   -2.0534    2.6384   -0.3306 C   0  0  0  0  0  0  0  0  0  0  0  0
   -2.9686    2.0528   -0.3280 H   0  0  0  0  0  0  0  0  0  0  0  0
    0.0470    0.3465    1.5629 C   0  0  0  0  0  0  0  0  0  0  0  0
    1.1854    0.1365    1.9846 O   0  0  0  0  0  0  0  0  0  0  0  0
   -0.8551    1.0750    2.2320 N   0  0  0  0  0  0  0  0  0  0  0  0
   -1.7594    1.2031    1.8040 H   0  0  0  0  0  0  0  0  0  0  0  0
   -0.6356    1.6998    3.5400 C   0  0  0  0  0  0  0  0  0  0  0  0
   -0.4284    2.7647    3.4168 H   0  0  0  0  0  0  0  0  0  0  0  0
   -1.5268    1.5885    4.1601 H   0  0  0  0  0  0  0  0  0  0  0  0
    0.2072    1.2358    4.0566 H   0  0  0  0  0  0  0  0  0  0  0  0
  5  6  2  0  0  0  0
  5  7  1  0  0  0  0
  2  3  1  0  0  0  0
  2  4  1  0  0  0  0
  2  5  1  0  0  0  0
  1  2  1  0  0  0  0
 23 24  2  0  0  0  0
 23 25  1  0  0  0  0
 21 22  1  0  0  0  0
 19 20  1  0  0  0  0
 19 21  1  0  0  0  0
 17 18  1  0  0  0  0
 17 19  1  0  0  0  0
 15 16  1  0  0  0  0
 15 17  2  0  0  0  0
 14 15  1  0  0  0  0
 14 21  2  0  0  0  0
 11 12  1  0  0  0  0
 11 13  1  0  0  0  0
 11 14  1  0  0  0  0
  9 10  1  0  0  0  0
  9 11  1  0  0  0  0
  9 23  1  0  0  0  0
  7  8  1  0  0  0  0
  7  9  1  0  0  0  0
 27 28  1  0  0  0  0
 27 29  1  0  0  0  0
 27 30  1  0  0  0  0
 25 26  1  0  0  0  0
 25 27  1  0  0  0  0
M  CHG  1  15   1
M  END
$$$$
default_name
  -OEChem-02102213163D

 30 30  0     1  0  0  0  0  0999 V2000
   -3.5507   -3.2183    1.8116 H   0  0  0  0  0  0  0  0  0  0  0  0
   -3.4597   -2.3913    1.1076 C   0  0  0  0  0  0  0  0  0  0  0  0
   -4.1577   -1.6043    1.3866 H   0  0  0  0  0  0  0  0  0  0  0  0
   -3.6807   -2.7523    0.1036 H   0  0  0  0  0  0  0  0  0  0  0  0
   -2.0477   -1.8543    1.1546 C   0  0  0  0  0  0  0  0  0  0  0  0
   -1.2227   -2.3443    1.9146 O   0  0  0  0  0  0  0  0  0  0  0  0
   -1.7517   -0.8483    0.3266 N   0  0  0  0  0  0  0  0  0  0  0  0
   -2.4847   -0.5123   -0.2804 H   0  0  0  0  0  0  0  0  0  0  0  0
   -0.4117   -0.2463    0.2186 C   0  0  1  0  0  0  0  0  0  0  0  0
    0.2987   -1.0391   -0.0285 H   0  0  0  0  0  0  0  0  0  0  0  0
   -0.4131    0.7505   -0.9636 C   0  0  0  0  0  0  0  0  0  0  0  0
    0.5833    0.7593   -1.4128 H   0  0  0  0  0  0  0  0  0  0  0  0
   -1.1062    0.3932   -1.7282 H   0  0  0  0  0  0  0  0  0  0  0  0
   -0.7971    2.1710   -0.6073 C   0  0  0  0  0  0  0  0  0  0  0  0
    0.0043    3.2825   -0.7824 N   0  3  0  0  0  0  0  0  0  0  0  0
    0.9220    3.2517   -1.2359 H   0  0  0  0  0  0  0  0  0  0  0  0
   -0.6711    4.3664   -0.3516 C   0  0  0  0  0  0  0  0  0  0  0  0
   -0.3006    5.3893   -0.3750 H   0  0  0  0  0  0  0  0  0  0  0  0
   -1.8835    3.9666    0.0942 N   0  0  0  0  0  0  0  0  0  0  0  0
   -2.6080    4.5695    0.4751 H   0  0  0  0  0  0  0  0  0  0  0  0
   -1.9790    2.5904   -0.0591 C   0  0  0  0  0  0  0  0  0  0  0  0
   -2.8240    1.9591    0.2016 H   0  0  0  0  0  0  0  0  0  0  0  0
    0.0470    0.3465    1.5629 C   0  0  0  0  0  0  0  0  0  0  0  0
    1.1854    0.1365    1.9846 O   0  0  0  0  0  0  0  0  0  0  0  0
   -0.8551    1.0750    2.2320 N   0  0  0  0  0  0  0  0  0  0  0  0
   -1.7594    1.2031    1.8040 H   0  0  0  0  0  0  0  0  0  0  0  0
   -0.6356    1.6998    3.5400 C   0  0  0  0  0  0  0  0  0  0  0  0
   -0.4284    2.7647    3.4168 H   0  0  0  0  0  0  0  0  0  0  0  0
   -1.5268    1.5885    4.1601 H   0  0  0  0  0  0  0  0  0  0  0  0
    0.2072    1.2358    4.0566 H   0  0  0  0  0  0  0  0  0  0  0  0
  5  6  2  0  0  0  0
  5  7  1  0  0  0  0
  2  3  1  0  0  0  0
  2  4  1  0  0  0  0
  2  5  1  0  0  0  0
  1  2  1  0  0  0  0
 23 24  2  0  0  0  0
 23 25  1  0  0  0  0
 21 22  1  0  0  0  0
 19 20  1  0  0  0  0
 19 21  1  0  0  0  0
 17 18  1  0  0  0  0
 17 19  1  0  0  0  0
 15 16  1  0  0  0  0
 15 17  2  0  0  0  0
 14 15  1  0  0  0  0
 14 21  2  0  0  0  0
 11 12  1  0  0  0  0
 11 13  1  0  0  0  0
 11 14  1  0  0  0  0
  9 10  1  0  0  0  0
  9 11  1  0  0  0  0
  9 23  1  0  0  0  0
  7  8  1  0  0  0  0
  7  9  1  0  0  0  0
 27 28  1  0  0  0  0
 27 29  1  0  0  0  0
 27 30  1  0  0  0  0
 25 26  1  0  0  0  0
 25 27  1  0  0  0  0
M  CHG  1  15   1
M  END
$$$$
default_name
  -OEChem-02102213163D

 30 30  0     1  0  0  0  0  0999 V2000
   -3.5507   -3.2183    1.8116 H   0  0  0  0  0  0  0  0  0  0  0  0
   -3.4597   -2.3913    1.1076 C   0  0  0  0  0  0  0  0  0  0  0  0
   -4.1577   -1.6043    1.3866 H   0  0  0  0  0  0  0  0  0  0  0  0
   -3.6807   -2.7523    0.1036 H   0  0  0  0  0  0  0  0  0  0  0  0
   -2.0477   -1.8543    1.1546 C   0  0  0  0  0  0  0  0  0  0  0  0
   -1.2227   -2.3443    1.9146 O   0  0  0  0  0  0  0  0  0  0  0  0
   -1.7517   -0.8483    0.3266 N   0  0  0  0  0  0  0  0  0  0  0  0
   -2.4847   -0.5123   -0.2804 H   0  0  0  0  0  0  0  0  0  0  0  0
   -0.4117   -0.2463    0.2186 C   0  0  1  0  0  0  0  0  0  0  0  0
    0.2987   -1.0391   -0.0285 H   0  0  0  0  0  0  0  0  0  0  0  0
   -0.4131    0.7505   -0.9636 C   0  0  0  0  0  0  0  0  0  0  0  0
    0.5833    0.7593   -1.4128 H   0  0  0  0  0  0  0  0  0  0  0  0
   -1.1062    0.3932   -1.7282 H   0  0  0  0  0  0  0  0  0  0  0  0
   -0.7971    2.1710   -0.6073 C   0  0  0  0  0  0  0  0  0  0  0  0
   -0.1401    3.3075   -1.0376 N   0  3  0  0  0  0  0  0  0  0  0  0
    0.6412    3.2921   -1.6994 H   0  0  0  0  0  0  0  0  0  0  0  0
   -0.7651    4.3828   -0.5182 C   0  0  0  0  0  0  0  0  0  0  0  0
   -0.4826    5.4193   -0.6911 H   0  0  0  0  0  0  0  0  0  0  0  0
   -1.8039    3.9532    0.2333 N   0  0  0  0  0  0  0  0  0  0  0  0
   -2.4552    4.5433    0.7443 H   0  0  0  0  0  0  0  0  0  0  0  0
   -1.8383    2.5664    0.1883 C   0  0  0  0  0  0  0  0  0  0  0  0
   -2.5499    1.9121    0.6842 H   0  0  0  0  0  0  0  0  0  0  0  0
    0.0470    0.3465    1.5629 C   0  0  0  0  0  0  0  0  0  0  0  0
    1.1854    0.1365    1.9846 O   0  0  0  0  0  0  0  0  0  0  0  0
   -0.8551    1.0750    2.2320 N   0  0  0  0  0  0  0  0  0  0  0  0
   -1.7594    1.2031    1.8040 H   0  0  0  0  0  0  0  0  0  0  0  0
   -0.6356    1.6998    3.5400 C   0  0  0  0  0  0  0  0  0  0  0  0
   -0.4284    2.7647    3.4168 H   0  0  0  0  0  0  0  0  0  0  0  0
   -1.5268    1.5885    4.1601 H   0  0  0  0  0  0  0  0  0  0  0  0
    0.2072    1.2358    4.0566 H   0  0  0  0  0  0  0  0  0  0  0  0
  5  6  2  0  0  0  0
  5  7  1  0  0  0  0
  2  3  1  0  0  0  0
  2  4  1  0  0  0  0
  2  5  1  0  0  0  0
  1  2  1  0  0  0  0
 23 24  2  0  0  0  0
 23 25  1  0  0  0  0
 21 22  1  0  0  0  0
 19 20  1  0  0  0  0
 19 21  1  0  0  0  0
 17 18  1  0  0  0  0
 17 19  1  0  0  0  0
 15 16  1  0  0  0  0
 15 17  2  0  0  0  0
 14 15  1  0  0  0  0
 14 21  2  0  0  0  0
 11 12  1  0  0  0  0
 11 13  1  0  0  0  0
 11 14  1  0  0  0  0
  9 10  1  0  0  0  0
  9 11  1  0  0  0  0
  9 23  1  0  0  0  0
  7  8  1  0  0  0  0
  7  9  1  0  0  0  0
 27 28  1  0  0  0  0
 27 29  1  0  0  0  0
 27 30  1  0  0  0  0
 25 26  1  0  0  0  0
 25 27  1  0  0  0  0
M  CHG  1  15   1
M  END
$$$$
default_name
  -OEChem-02102213163D

 30 30  0     1  0  0  0  0  0999 V2000
   -3.5507   -3.2183    1.8116 H   0  0  0  0  0  0  0  0  0  0  0  0
   -3.4597   -2.3913    1.1076 C   0  0  0  0  0  0  0  0  0  0  0  0
   -4.1577   -1.6043    1.3866 H   0  0  0  0  0  0  0  0  0  0  0  0
   -3.6807   -2.7523    0.1036 H   0  0  0  0  0  0  0  0  0  0  0  0
   -2.0477   -1.8543    1.1546 C   0  0  0  0  0  0  0  0  0  0  0  0
   -1.2227   -2.3443    1.9146 O   0  0  0  0  0  0  0  0  0  0  0  0
   -1.7517   -0.8483    0.3266 N   0  0  0  0  0  0  0  0  0  0  0  0
   -2.4847   -0.5123   -0.2804 H   0  0  0  0  0  0  0  0  0  0  0  0
   -0.4117   -0.2463    0.2186 C   0  0  1  0  0  0  0  0  0  0  0  0
    0.2987   -1.0391   -0.0285 H   0  0  0  0  0  0  0  0  0  0  0  0
   -0.4131    0.7505   -0.9636 C   0  0  0  0  0  0  0  0  0  0  0  0
    0.5833    0.7593   -1.4128 H   0  0  0  0  0  0  0  0  0  0  0  0
   -1.1062    0.3932   -1.7282 H   0  0  0  0  0  0  0  0  0  0  0  0
   -0.7971    2.1710   -0.6073 C   0  0  0  0  0  0  0  0  0  0  0  0
   -0.3431    3.3061   -1.2507 N   0  3  0  0  0  0  0  0  0  0  0  0
    0.2550    3.2835   -2.0816 H   0  0  0  0  0  0  0  0  0  0  0  0
   -0.8973    4.3820   -0.6575 C   0  0  0  0  0  0  0  0  0  0  0  0
   -0.7370    5.4166   -0.9542 H   0  0  0  0  0  0  0  0  0  0  0  0
   -1.6924    3.9543    0.3492 N   0  0  0  0  0  0  0  0  0  0  0  0
   -2.2406    4.5450    0.9689 H   0  0  0  0  0  0  0  0  0  0  0  0
   -1.6408    2.5680    0.3947 C   0  0  0  0  0  0  0  0  0  0  0  0
   -2.1652    1.9151    1.0869 H   0  0  0  0  0  0  0  0  0  0  0  0
    0.0470    0.3465    1.5629 C   0  0  0  0  0  0  0  0  0  0  0  0
    1.1854    0.1365    1.9846 O   0  0  0  0  0  0  0  0  0  0  0  0
   -0.8551    1.0750    2.2320 N   0  0  0  0  0  0  0  0  0  0  0  0
   -1.7594    1.2031    1.8040 H   0  0  0  0  0  0  0  0  0  0  0  0
   -0.6356    1.6998    3.5400 C   0  0  0  0  0  0  0  0  0  0  0  0
   -0.4284    2.7647    3.4168 H   0  0  0  0  0  0  0  0  0  0  0  0
   -1.5268    1.5885    4.1601 H   0  0  0  0  0  0  0  0  0  0  0  0
    0.2072    1.2358    4.0566 H   0  0  0  0  0  0  0  0  0  0  0  0
  5  6  2  0  0  0  0
  5  7  1  0  0  0  0
  2  3  1  0  0  0  0
  2  4  1  0  0  0  0
  2  5  1  0  0  0  0
  1  2  1  0  0  0  0
 23 24  2  0  0  0  0
 23 25  1  0  0  0  0
 21 22  1  0  0  0  0
 19 20  1  0  0  0  0
 19 21  1  0  0  0  0
 17 18  1  0  0  0  0
 17 19  1  0  0  0  0
 15 16  1  0  0  0  0
 15 17  2  0  0  0  0
 14 15  1  0  0  0  0
 14 21  2  0  0  0  0
 11 12  1  0  0  0  0
 11 13  1  0  0  0  0
 11 14  1  0  0  0  0
  9 10  1  0  0  0  0
  9 11  1  0  0  0  0
  9 23  1  0  0  0  0
  7  8  1  0  0  0  0
  7  9  1  0  0  0  0
 27 28  1  0  0  0  0
 27 29  1  0  0  0  0
 27 30  1  0  0  0  0
 25 26  1  0  0  0  0
 25 27  1  0  0  0  0
M  CHG  1  15   1
M  END
$$$$
default_name
  -OEChem-02102213163D

 30 30  0     1  0  0  0  0  0999 V2000
   -3.5507   -3.2183    1.8116 H   0  0  0  0  0  0  0  0  0  0  0  0
   -3.4597   -2.3913    1.1076 C   0  0  0  0  0  0  0  0  0  0  0  0
   -4.1577   -1.6043    1.3866 H   0  0  0  0  0  0  0  0  0  0  0  0
   -3.6807   -2.7523    0.1036 H   0  0  0  0  0  0  0  0  0  0  0  0
   -2.0477   -1.8543    1.1546 C   0  0  0  0  0  0  0  0  0  0  0  0
   -1.2227   -2.3443    1.9146 O   0  0  0  0  0  0  0  0  0  0  0  0
   -1.7517   -0.8483    0.3266 N   0  0  0  0  0  0  0  0  0  0  0  0
   -2.4847   -0.5123   -0.2804 H   0  0  0  0  0  0  0  0  0  0  0  0
   -0.4117   -0.2463    0.2186 C   0  0  1  0  0  0  0  0  0  0  0  0
    0.2987   -1.0391   -0.0285 H   0  0  0  0  0  0  0  0  0  0  0  0
   -0.4131    0.7505   -0.9636 C   0  0  0  0  0  0  0  0  0  0  0  0
    0.5833    0.7593   -1.4128 H   0  0  0  0  0  0  0  0  0  0  0  0
   -1.1062    0.3932   -1.7282 H   0  0  0  0  0  0  0  0  0  0  0  0
   -0.7971    2.1710   -0.6073 C   0  0  0  0  0  0  0  0  0  0  0  0
   -0.5908    3.2783   -1.4071 N   0  3  0  0  0  0  0  0  0  0  0  0
   -0.2103    3.2267   -2.3565 H   0  0  0  0  0  0  0  0  0  0  0  0
   -1.0588    4.3640   -0.7599 C   0  0  0  0  0  0  0  0  0  0  0  0
   -1.0465    5.3811   -1.1464 H   0  0  0  0  0  0  0  0  0  0  0  0
   -1.5566    3.9698    0.4339 N   0  0  0  0  0  0  0  0  0  0  0  0
   -1.9789    4.5744    1.1336 H   0  0  0  0  0  0  0  0  0  0  0  0
   -1.4000    2.5952    0.5459 C   0  0  0  0  0  0  0  0  0  0  0  0
   -1.6959    1.9679    1.3823 H   0  0  0  0  0  0  0  0  0  0  0  0
    0.0470    0.3465    1.5629 C   0  0  0  0  0  0  0  0  0  0  0  0
    1.1854    0.1365    1.9846 O   0  0  0  0  0  0  0  0  0  0  0  0
   -0.8551    1.0750    2.2320 N   0  0  0  0  0  0  0  0  0  0  0  0
   -1.7594    1.2031    1.8040 H   0  0  0  0  0  0  0  0  0  0  0  0
   -0.6356    1.6998    3.5400 C   0  0  0  0  0  0  0  0  0  0  0  0
   -0.4284    2.7647    3.4168 H   0  0  0  0  0  0  0  0  0  0  0  0
   -1.5268    1.5885    4.1601 H   0  0  0  0  0  0  0  0  0  0  0  0
    0.2072    1.2358    4.0566 H   0  0  0  0  0  0  0  0  0  0  0  0
  5  6  2  0  0  0  0
  5  7  1  0  0  0  0
  2  3  1  0  0  0  0
  2  4  1  0  0  0  0
  2  5  1  0  0  0  0
  1  2  1  0  0  0  0
 23 24  2  0  0  0  0
 23 25  1  0  0  0  0
 21 22  1  0  0  0  0
 19 20  1  0  0  0  0
 19 21  1  0  0  0  0
 17 18  1  0  0  0  0
 17 19  1  0  0  0  0
 15 16  1  0  0  0  0
 15 17  2  0  0  0  0
 14 15  1  0  0  0  0
 14 21  2  0  0  0  0
 11 12  1  0  0  0  0
 11 13  1  0  0  0  0
 11 14  1  0  0  0  0
  9 10  1  0  0  0  0
  9 11  1  0  0  0  0
  9 23  1  0  0  0  0
  7  8  1  0  0  0  0
  7  9  1  0  0  0  0
 27 28  1  0  0  0  0
 27 29  1  0  0  0  0
 27 30  1  0  0  0  0
 25 26  1  0  0  0  0
 25 27  1  0  0  0  0
M  CHG  1  15   1
M  END
$$$$
default_name
  -OEChem-02102213163D

 30 30  0     1  0  0  0  0  0999 V2000
   -3.5507   -3.2183    1.8116 H   0  0  0  0  0  0  0  0  0  0  0  0
   -3.4597   -2.3913    1.1076 C   0  0  0  0  0  0  0  0  0  0  0  0
   -4.1577   -1.6043    1.3866 H   0  0  0  0  0  0  0  0  0  0  0  0
   -3.6807   -2.7523    0.1036 H   0  0  0  0  0  0  0  0  0  0  0  0
   -2.0477   -1.8543    1.1546 C   0  0  0  0  0  0  0  0  0  0  0  0
   -1.2227   -2.3443    1.9146 O   0  0  0  0  0  0  0  0  0  0  0  0
   -1.7517   -0.8483    0.3266 N   0  0  0  0  0  0  0  0  0  0  0  0
   -2.4847   -0.5123   -0.2804 H   0  0  0  0  0  0  0  0  0  0  0  0
   -0.4117   -0.2463    0.2186 C   0  0  1  0  0  0  0  0  0  0  0  0
    0.2987   -1.0391   -0.0285 H   0  0  0  0  0  0  0  0  0  0  0  0
   -0.4131    0.7505   -0.9636 C   0  0  0  0  0  0  0  0  0  0  0  0
    0.4761    0.5694   -1.5728 H   0  0  0  0  0  0  0  0  0  0  0  0
   -1.2809    0.5502   -1.5957 H   0  0  0  0  0  0  0  0  0  0  0  0
   -0.4435    2.2128   -0.5725 C   0  0  0  0  0  0  0  0  0  0  0  0
   -0.4500    3.2754   -1.4552 N   0  3  0  0  0  0  0  0  0  0  0  0
   -0.4998    3.1649   -2.4721 H   0  0  0  0  0  0  0  0  0  0  0  0
   -0.4779    4.4197   -0.7436 C   0  0  0  0  0  0  0  0  0  0  0  0
   -0.5019    5.4226   -1.1652 H   0  0  0  0  0  0  0  0  0  0  0  0
   -0.4881    4.1063    0.5717 N   0  0  0  0  0  0  0  0  0  0  0  0
   -0.5113    4.7683    1.3429 H   0  0  0  0  0  0  0  0  0  0  0  0
   -0.4666    2.7242    0.6969 C   0  0  0  0  0  0  0  0  0  0  0  0
   -0.4683    2.1496    1.6191 H   0  0  0  0  0  0  0  0  0  0  0  0
    0.0470    0.3465    1.5629 C   0  0  0  0  0  0  0  0  0  0  0  0
    1.1854    0.1365    1.9846 O   0  0  0  0  0  0  0  0  0  0  0  0
   -0.8551    1.0750    2.2320 N   0  0  0  0  0  0  0  0  0  0  0  0
   -1.7594    1.2031    1.8040 H   0  0  0  0  0  0  0  0  0  0  0  0
   -0.6356    1.6998    3.5400 C   0  0  0  0  0  0  0  0  0  0  0  0
   -0.4284    2.7647    3.4168 H   0  0  0  0  0  0  0  0  0  0  0  0
   -1.5268    1.5885    4.1601 H   0  0  0  0  0  0  0  0  0  0  0  0
    0.2072    1.2358    4.0566 H   0  0  0  0  0  0  0  0  0  0  0  0
  5  6  2  0  0  0  0
  5  7  1  0  0  0  0
  2  3  1  0  0  0  0
  2  4  1  0  0  0  0
  2  5  1  0  0  0  0
  1  2  1  0  0  0  0
 23 24  2  0  0  0  0
 23 25  1  0  0  0  0
 21 22  1  0  0  0  0
 19 20  1  0  0  0  0
 19 21  1  0  0  0  0
 17 18  1  0  0  0  0
 17 19  1  0  0  0  0
 15 16  1  0  0  0  0
 15 17  2  0  0  0  0
 14 15  1  0  0  0  0
 14 21  2  0  0  0  0
 11 12  1  0  0  0  0
 11 13  1  0  0  0  0
 11 14  1  0  0  0  0
  9 10  1  0  0  0  0
  9 11  1  0  0  0  0
  9 23  1  0  0  0  0
  7  8  1  0  0  0  0
  7  9  1  0  0  0  0
 27 28  1  0  0  0  0
 27 29  1  0  0  0  0
 27 30  1  0  0  0  0
 25 26  1  0  0  0  0
 25 27  1  0  0  0  0
M  CHG  1  15   1
M  END
$$$$
default_name
  -OEChem-02102213163D

 30 30  0     1  0  0  0  0  0999 V2000
   -3.5507   -3.2183    1.8116 H   0  0  0  0  0  0  0  0  0  0  0  0
   -3.4597   -2.3913    1.1076 C   0  0  0  0  0  0  0  0  0  0  0  0
   -4.1577   -1.6043    1.3866 H   0  0  0  0  0  0  0  0  0  0  0  0
   -3.6807   -2.7523    0.1036 H   0  0  0  0  0  0  0  0  0  0  0  0
   -2.0477   -1.8543    1.1546 C   0  0  0  0  0  0  0  0  0  0  0  0
   -1.2227   -2.3443    1.9146 O   0  0  0  0  0  0  0  0  0  0  0  0
   -1.7517   -0.8483    0.3266 N   0  0  0  0  0  0  0  0  0  0  0  0
   -2.4847   -0.5123   -0.2804 H   0  0  0  0  0  0  0  0  0  0  0  0
   -0.4117   -0.2463    0.2186 C   0  0  1  0  0  0  0  0  0  0  0  0
    0.2987   -1.0391   -0.0285 H   0  0  0  0  0  0  0  0  0  0  0  0
   -0.4131    0.7505   -0.9636 C   0  0  0  0  0  0  0  0  0  0  0  0
    0.4761    0.5694   -1.5728 H   0  0  0  0  0  0  0  0  0  0  0  0
   -1.2809    0.5502   -1.5957 H   0  0  0  0  0  0  0  0  0  0  0  0
   -0.4435    2.2128   -0.5725 C   0  0  0  0  0  0  0  0  0  0  0  0
   -0.7420    3.2604   -1.4220 N   0  3  0  0  0  0  0  0  0  0  0  0
   -1.0368    3.1330   -2.3944 H   0  0  0  0  0  0  0  0  0  0  0  0
   -0.6685    4.4101   -0.7223 C   0  0  0  0  0  0  0  0  0  0  0  0
   -0.8648    5.4033   -1.1211 H   0  0  0  0  0  0  0  0  0  0  0  0
   -0.3286    4.1147    0.5527 N   0  0  0  0  0  0  0  0  0  0  0  0
   -0.2031    4.7842    1.3074 H   0  0  0  0  0  0  0  0  0  0  0  0
   -0.1832    2.7388    0.6640 C   0  0  0  0  0  0  0  0  0  0  0  0
    0.0842    2.1781    1.5554 H   0  0  0  0  0  0  0  0  0  0  0  0
    0.0470    0.3465    1.5629 C   0  0  0  0  0  0  0  0  0  0  0  0
    1.1854    0.1365    1.9846 O   0  0  0  0  0  0  0  0  0  0  0  0
   -0.8551    1.0750    2.2320 N   0  0  0  0  0  0  0  0  0  0  0  0
   -1.7594    1.2031    1.8040 H   0  0  0  0  0  0  0  0  0  0  0  0
   -0.6356    1.6998    3.5400 C   0  0  0  0  0  0  0  0  0  0  0  0
   -0.4284    2.7647    3.4168 H   0  0  0  0  0  0  0  0  0  0  0  0
   -1.5268    1.5885    4.1601 H   0  0  0  0  0  0  0  0  0  0  0  0
    0.2072    1.2358    4.0566 H   0  0  0  0  0  0  0  0  0  0  0  0
  5  6  2  0  0  0  0
  5  7  1  0  0  0  0
  2  3  1  0  0  0  0
  2  4  1  0  0  0  0
  2  5  1  0  0  0  0
  1  2  1  0  0  0  0
 23 24  2  0  0  0  0
 23 25  1  0  0  0  0
 21 22  1  0  0  0  0
 19 20  1  0  0  0  0
 19 21  1  0  0  0  0
 17 18  1  0  0  0  0
 17 19  1  0  0  0  0
 15 16  1  0  0  0  0
 15 17  2  0  0  0  0
 14 15  1  0  0  0  0
 14 21  2  0  0  0  0
 11 12  1  0  0  0  0
 11 13  1  0  0  0  0
 11 14  1  0  0  0  0
  9 10  1  0  0  0  0
  9 11  1  0  0  0  0
  9 23  1  0  0  0  0
  7  8  1  0  0  0  0
  7  9  1  0  0  0  0
 27 28  1  0  0  0  0
 27 29  1  0  0  0  0
 27 30  1  0  0  0  0
 25 26  1  0  0  0  0
 25 27  1  0  0  0  0
M  CHG  1  15   1
M  END
$$$$
default_name
  -OEChem-02102213163D

 30 30  0     1  0  0  0  0  0999 V2000
   -3.5507   -3.2183    1.8116 H   0  0  0  0  0  0  0  0  0  0  0  0
   -3.4597   -2.3913    1.1076 C   0  0  0  0  0  0  0  0  0  0  0  0
   -4.1577   -1.6043    1.3866 H   0  0  0  0  0  0  0  0  0  0  0  0
   -3.6807   -2.7523    0.1036 H   0  0  0  0  0  0  0  0  0  0  0  0
   -2.0477   -1.8543    1.1546 C   0  0  0  0  0  0  0  0  0  0  0  0
   -1.2227   -2.3443    1.9146 O   0  0  0  0  0  0  0  0  0  0  0  0
   -1.7517   -0.8483    0.3266 N   0  0  0  0  0  0  0  0  0  0  0  0
   -2.4847   -0.5123   -0.2804 H   0  0  0  0  0  0  0  0  0  0  0  0
   -0.4117   -0.2463    0.2186 C   0  0  1  0  0  0  0  0  0  0  0  0
    0.2987   -1.0391   -0.0285 H   0  0  0  0  0  0  0  0  0  0  0  0
   -0.4131    0.7505   -0.9636 C   0  0  0  0  0  0  0  0  0  0  0  0
    0.4761    0.5694   -1.5728 H   0  0  0  0  0  0  0  0  0  0  0  0
   -1.2809    0.5502   -1.5957 H   0  0  0  0  0  0  0  0  0  0  0  0
   -0.4435    2.2128   -0.5725 C   0  0  0  0  0  0  0  0  0  0  0  0
   -1.0148    3.2266   -1.3169 N   0  3  0  0  0  0  0  0  0  0  0  0
   -1.5338    3.0667   -2.1851 H   0  0  0  0  0  0  0  0  0  0  0  0
   -0.8466    4.3881   -0.6540 C   0  0  0  0  0  0  0  0  0  0  0  0
   -1.2029    5.3606   -0.9877 H   0  0  0  0  0  0  0  0  0  0  0  0
   -0.1799    4.1334    0.4945 N   0  0  0  0  0  0  0  0  0  0  0  0
    0.0846    4.8200    1.1960 H   0  0  0  0  0  0  0  0  0  0  0  0
    0.0813    2.7718    0.5614 C   0  0  0  0  0  0  0  0  0  0  0  0
    0.6001    2.2423    1.3556 H   0  0  0  0  0  0  0  0  0  0  0  0
    0.0470    0.3465    1.5629 C   0  0  0  0  0  0  0  0  0  0  0  0
    1.1854    0.1365    1.9846 O   0  0  0  0  0  0  0  0  0  0  0  0
   -0.8551    1.0750    2.2320 N   0  0  0  0  0  0  0  0  0  0  0  0
   -1.7594    1.2031    1.8040 H   0  0  0  0  0  0  0  0  0  0  0  0
   -0.6356    1.6998    3.5400 C   0  0  0  0  0  0  0  0  0  0  0  0
   -0.4284    2.7647    3.4168 H   0  0  0  0  0  0  0  0  0  0  0  0
   -1.5268    1.5885    4.1601 H   0  0  0  0  0  0  0  0  0  0  0  0
    0.2072    1.2358    4.0566 H   0  0  0  0  0  0  0  0  0  0  0  0
  5  6  2  0  0  0  0
  5  7  1  0  0  0  0
  2  3  1  0  0  0  0
  2  4  1  0  0  0  0
  2  5  1  0  0  0  0
  1  2  1  0  0  0  0
 23 24  2  0  0  0  0
 23 25  1  0  0  0  0
 21 22  1  0  0  0  0
 19 20  1  0  0  0  0
 19 21  1  0  0  0  0
 17 18  1  0  0  0  0
 17 19  1  0  0  0  0
 15 16  1  0  0  0  0
 15 17  2  0  0  0  0
 14 15  1  0  0  0  0
 14 21  2  0  0  0  0
 11 12  1  0  0  0  0
 11 13  1  0  0  0  0
 11 14  1  0  0  0  0
  9 10  1  0  0  0  0
  9 11  1  0  0  0  0
  9 23  1  0  0  0  0
  7  8  1  0  0  0  0
  7  9  1  0  0  0  0
 27 28  1  0  0  0  0
 27 29  1  0  0  0  0
 27 30  1  0  0  0  0
 25 26  1  0  0  0  0
 25 27  1  0  0  0  0
M  CHG  1  15   1
M  END
$$$$
default_name
  -OEChem-02102213163D

 30 30  0     1  0  0  0  0  0999 V2000
   -3.5507   -3.2183    1.8116 H   0  0  0  0  0  0  0  0  0  0  0  0
   -3.4597   -2.3913    1.1076 C   0  0  0  0  0  0  0  0  0  0  0  0
   -4.1577   -1.6043    1.3866 H   0  0  0  0  0  0  0  0  0  0  0  0
   -3.6807   -2.7523    0.1036 H   0  0  0  0  0  0  0  0  0  0  0  0
   -2.0477   -1.8543    1.1546 C   0  0  0  0  0  0  0  0  0  0  0  0
   -1.2227   -2.3443    1.9146 O   0  0  0  0  0  0  0  0  0  0  0  0
   -1.7517   -0.8483    0.3266 N   0  0  0  0  0  0  0  0  0  0  0  0
   -2.4847   -0.5123   -0.2804 H   0  0  0  0  0  0  0  0  0  0  0  0
   -0.4117   -0.2463    0.2186 C   0  0  1  0  0  0  0  0  0  0  0  0
    0.2987   -1.0391   -0.0285 H   0  0  0  0  0  0  0  0  0  0  0  0
   -0.4131    0.7505   -0.9636 C   0  0  0  0  0  0  0  0  0  0  0  0
    0.4761    0.5694   -1.5728 H   0  0  0  0  0  0  0  0  0  0  0  0
   -1.2809    0.5502   -1.5957 H   0  0  0  0  0  0  0  0  0  0  0  0
   -0.4435    2.2128   -0.5725 C   0  0  0  0  0  0  0  0  0  0  0  0
   -1.2498    3.1763   -1.1469 N   0  3  0  0  0  0  0  0  0  0  0  0
   -1.9572    2.9704   -1.8582 H   0  0  0  0  0  0  0  0  0  0  0  0
   -1.0002    4.3553   -0.5433 C   0  0  0  0  0  0  0  0  0  0  0  0
   -1.4933    5.2974   -0.7742 H   0  0  0  0  0  0  0  0  0  0  0  0
   -0.0520    4.1611    0.4010 N   0  0  0  0  0  0  0  0  0  0  0  0
    0.3324    4.8732    1.0163 H   0  0  0  0  0  0  0  0  0  0  0  0
    0.3089    2.8208    0.3959 C   0  0  0  0  0  0  0  0  0  0  0  0
    1.0442    2.3377    1.0333 H   0  0  0  0  0  0  0  0  0  0  0  0
    0.0470    0.3465    1.5629 C   0  0  0  0  0  0  0  0  0  0  0  0
    1.1854    0.1365    1.9846 O   0  0  0  0  0  0  0  0  0  0  0  0
   -0.8551    1.0750    2.2320 N   0  0  0  0  0  0  0  0  0  0  0  0
   -1.7594    1.2031    1.8040 H   0  0  0  0  0  0  0  0  0  0  0  0
   -0.6356    1.6998    3.5400 C   0  0  0  0  0  0  0  0  0  0  0  0
   -0.4284    2.7647    3.4168 H   0  0  0  0  0  0  0  0  0  0  0  0
   -1.5268    1.5885    4.1601 H   0  0  0  0  0  0  0  0  0  0  0  0
    0.2072    1.2358    4.0566 H   0  0  0  0  0  0  0  0  0  0  0  0
  5  6  2  0  0  0  0
  5  7  1  0  0  0  0
  2  3  1  0  0  0  0
  2  4  1  0  0  0  0
  2  5  1  0  0  0  0
  1  2  1  0  0  0  0
 23 24  2  0  0  0  0
 23 25  1  0  0  0  0
 21 22  1  0  0  0  0
 19 20  1  0  0  0  0
 19 21  1  0  0  0  0
 17 18  1  0  0  0  0
 17 19  1  0  0  0  0
 15 16  1  0  0  0  0
 15 17  2  0  0  0  0
 14 15  1  0  0  0  0
 14 21  2  0  0  0  0
 11 12  1  0  0  0  0
 11 13  1  0  0  0  0
 11 14  1  0  0  0  0
  9 10  1  0  0  0  0
  9 11  1  0  0  0  0
  9 23  1  0  0  0  0
  7  8  1  0  0  0  0
  7  9  1  0  0  0  0
 27 28  1  0  0  0  0
 27 29  1  0  0  0  0
 27 30  1  0  0  0  0
 25 26  1  0  0  0  0
 25 27  1  0  0  0  0
M  CHG  1  15   1
M  END
$$$$
default_name
  -OEChem-02102213163D

 30 30  0     1  0  0  0  0  0999 V2000
   -3.5507   -3.2183    1.8116 H   0  0  0  0  0  0  0  0  0  0  0  0
   -3.4597   -2.3913    1.1076 C   0  0  0  0  0  0  0  0  0  0  0  0
   -4.1577   -1.6043    1.3866 H   0  0  0  0  0  0  0  0  0  0  0  0
   -3.6807   -2.7523    0.1036 H   0  0  0  0  0  0  0  0  0  0  0  0
   -2.0477   -1.8543    1.1546 C   0  0  0  0  0  0  0  0  0  0  0  0
   -1.2227   -2.3443    1.9146 O   0  0  0  0  0  0  0  0  0  0  0  0
   -1.7517   -0.8483    0.3266 N   0  0  0  0  0  0  0  0  0  0  0  0
   -2.4847   -0.5123   -0.2804 H   0  0  0  0  0  0  0  0  0  0  0  0
   -0.4117   -0.2463    0.2186 C   0  0  1  0  0  0  0  0  0  0  0  0
    0.2987   -1.0391   -0.0285 H   0  0  0  0  0  0  0  0  0  0  0  0
   -0.4131    0.7505   -0.9636 C   0  0  0  0  0  0  0  0  0  0  0  0
    0.4761    0.5694   -1.5728 H   0  0  0  0  0  0  0  0  0  0  0  0
   -1.2809    0.5502   -1.5957 H   0  0  0  0  0  0  0  0  0  0  0  0
   -0.4435    2.2128   -0.5725 C   0  0  0  0  0  0  0  0  0  0  0  0
   -1.4309    3.1128   -0.9238 N   0  3  0  0  0  0  0  0  0  0  0  0
   -2.2779    2.8509   -1.4362 H   0  0  0  0  0  0  0  0  0  0  0  0
   -1.1186    4.3139   -0.3979 C   0  0  0  0  0  0  0  0  0  0  0  0
   -1.7162    5.2181   -0.4949 H   0  0  0  0  0  0  0  0  0  0  0  0
    0.0462    4.1959    0.2785 N   0  0  0  0  0  0  0  0  0  0  0  0
    0.5232    4.9403    0.7804 H   0  0  0  0  0  0  0  0  0  0  0  0
    0.4841    2.8825    0.1789 C   0  0  0  0  0  0  0  0  0  0  0  0
    1.3863    2.4579    0.6105 H   0  0  0  0  0  0  0  0  0  0  0  0
    0.0470    0.3465    1.5629 C   0  0  0  0  0  0  0  0  0  0  0  0
    1.1854    0.1365    1.9846 O   0  0  0  0  0  0  0  0  0  0  0  0
   -0.8551    1.0750    2.2320 N   0  0  0  0  0  0  0  0  0  0  0  0
   -1.7594    1.2031    1.8040 H   0  0  0  0  0  0  0  0  0  0  0  0
   -0.6356    1.6998    3.5400 C   0  0  0  0  0  0  0  0  0  0  0  0
   -0.4284    2.7647    3.4168 H   0  0  0  0  0  0  0  0  0  0  0  0
   -1.5268    1.5885    4.1601 H   0  0  0  0  0  0  0  0  0  0  0  0
    0.2072    1.2358    4.0566 H   0  0  0  0  0  0  0  0  0  0  0  0
  5  6  2  0  0  0  0
  5  7  1  0  0  0  0
  2  3  1  0  0  0  0
  2  4  1  0  0  0  0
  2  5  1  0  0  0  0
  1  2  1  0  0  0  0
 23 24  2  0  0  0  0
 23 25  1  0  0  0  0
 21 22  1  0  0  0  0
 19 20  1  0  0  0  0
 19 21  1  0  0  0  0
 17 18  1  0  0  0  0
 17 19  1  0  0  0  0
 15 16  1  0  0  0  0
 15 17  2  0  0  0  0
 14 15  1  0  0  0  0
 14 21  2  0  0  0  0
 11 12  1  0  0  0  0
 11 13  1  0  0  0  0
 11 14  1  0  0  0  0
  9 10  1  0  0  0  0
  9 11  1  0  0  0  0
  9 23  1  0  0  0  0
  7  8  1  0  0  0  0
  7  9  1  0  0  0  0
 27 28  1  0  0  0  0
 27 29  1  0  0  0  0
 27 30  1  0  0  0  0
 25 26  1  0  0  0  0
 25 27  1  0  0  0  0
M  CHG  1  15   1
M  END
$$$$
default_name
  -OEChem-02102213163D

 30 30  0     1  0  0  0  0  0999 V2000
   -3.5507   -3.2183    1.8116 H   0  0  0  0  0  0  0  0  0  0  0  0
   -3.4597   -2.3913    1.1076 C   0  0  0  0  0  0  0  0  0  0  0  0
   -4.1577   -1.6043    1.3866 H   0  0  0  0  0  0  0  0  0  0  0  0
   -3.6807   -2.7523    0.1036 H   0  0  0  0  0  0  0  0  0  0  0  0
   -2.0477   -1.8543    1.1546 C   0  0  0  0  0  0  0  0  0  0  0  0
   -1.2227   -2.3443    1.9146 O   0  0  0  0  0  0  0  0  0  0  0  0
   -1.7517   -0.8483    0.3266 N   0  0  0  0  0  0  0  0  0  0  0  0
   -2.4847   -0.5123   -0.2804 H   0  0  0  0  0  0  0  0  0  0  0  0
   -0.4117   -0.2463    0.2186 C   0  0  1  0  0  0  0  0  0  0  0  0
    0.2987   -1.0391   -0.0285 H   0  0  0  0  0  0  0  0  0  0  0  0
   -0.4131    0.7505   -0.9636 C   0  0  0  0  0  0  0  0  0  0  0  0
    0.4761    0.5694   -1.5728 H   0  0  0  0  0  0  0  0  0  0  0  0
   -1.2809    0.5502   -1.5957 H   0  0  0  0  0  0  0  0  0  0  0  0
   -0.4435    2.2128   -0.5725 C   0  0  0  0  0  0  0  0  0  0  0  0
   -1.5458    3.0406   -0.6626 N   0  3  0  0  0  0  0  0  0  0  0  0
   -2.4743    2.7161   -0.9477 H   0  0  0  0  0  0  0  0  0  0  0  0
   -1.1939    4.2668   -0.2277 C   0  0  0  0  0  0  0  0  0  0  0  0
   -1.8564    5.1280   -0.1691 H   0  0  0  0  0  0  0  0  0  0  0  0
    0.1082    4.2354    0.1355 N   0  0  0  0  0  0  0  0  0  0  0  0
    0.6440    5.0166    0.5046 H   0  0  0  0  0  0  0  0  0  0  0  0
    0.5950    2.9527   -0.0748 C   0  0  0  0  0  0  0  0  0  0  0  0
    1.6029    2.5947    0.1160 H   0  0  0  0  0  0  0  0  0  0  0  0
    0.0470    0.3465    1.5629 C   0  0  0  0  0  0  0  0  0  0  0  0
    1.1854    0.1365    1.9846 O   0  0  0  0  0  0  0  0  0  0  0  0
   -0.8551    1.0750    2.2320 N   0  0  0  0  0  0  0  0  0  0  0  0
   -1.7594    1.2031    1.8040 H   0  0  0  0  0  0  0  0  0  0  0  0
   -0.6356    1.6998    3.5400 C   0  0  0  0  0  0  0  0  0  0  0  0
   -0.4284    2.7647    3.4168 H   0  0  0  0  0  0  0  0  0  0  0  0
   -1.5268    1.5885    4.1601 H   0  0  0  0  0  0  0  0  0  0  0  0
    0.2072    1.2358    4.0566 H   0  0  0  0  0  0  0  0  0  0  0  0
  5  6  2  0  0  0  0
  5  7  1  0  0  0  0
  2  3  1  0  0  0  0
  2  4  1  0  0  0  0
  2  5  1  0  0  0  0
  1  2  1  0  0  0  0
 23 24  2  0  0  0  0
 23 25  1  0  0  0  0
 21 22  1  0  0  0  0
 19 20  1  0  0  0  0
 19 21  1  0  0  0  0
 17 18  1  0  0  0  0
 17 19  1  0  0  0  0
 15 16  1  0  0  0  0
 15 17  2  0  0  0  0
 14 15  1  0  0  0  0
 14 21  2  0  0  0  0
 11 12  1  0  0  0  0
 11 13  1  0  0  0  0
 11 14  1  0  0  0  0
  9 10  1  0  0  0  0
  9 11  1  0  0  0  0
  9 23  1  0  0  0  0
  7  8  1  0  0  0  0
  7  9  1  0  0  0  0
 27 28  1  0  0  0  0
 27 29  1  0  0  0  0
 27 30  1  0  0  0  0
 25 26  1  0  0  0  0
 25 27  1  0  0  0  0
M  CHG  1  15   1
M  END
$$$$
default_name
  -OEChem-02102213163D

 30 30  0     1  0  0  0  0  0999 V2000
   -3.5507   -3.2183    1.8116 H   0  0  0  0  0  0  0  0  0  0  0  0
   -3.4597   -2.3913    1.1076 C   0  0  0  0  0  0  0  0  0  0  0  0
   -4.1577   -1.6043    1.3866 H   0  0  0  0  0  0  0  0  0  0  0  0
   -3.6807   -2.7523    0.1036 H   0  0  0  0  0  0  0  0  0  0  0  0
   -2.0477   -1.8543    1.1546 C   0  0  0  0  0  0  0  0  0  0  0  0
   -1.2227   -2.3443    1.9146 O   0  0  0  0  0  0  0  0  0  0  0  0
   -1.7517   -0.8483    0.3266 N   0  0  0  0  0  0  0  0  0  0  0  0
   -2.4847   -0.5123   -0.2804 H   0  0  0  0  0  0  0  0  0  0  0  0
   -0.4117   -0.2463    0.2186 C   0  0  1  0  0  0  0  0  0  0  0  0
    0.2987   -1.0391   -0.0285 H   0  0  0  0  0  0  0  0  0  0  0  0
   -0.4131    0.7505   -0.9636 C   0  0  0  0  0  0  0  0  0  0  0  0
    0.4761    0.5694   -1.5728 H   0  0  0  0  0  0  0  0  0  0  0  0
   -1.2809    0.5502   -1.5957 H   0  0  0  0  0  0  0  0  0  0  0  0
   -0.4435    2.2128   -0.5725 C   0  0  0  0  0  0  0  0  0  0  0  0
   -1.5866    2.9645   -0.3813 N   0  3  0  0  0  0  0  0  0  0  0  0
   -2.5328    2.5754   -0.4261 H   0  0  0  0  0  0  0  0  0  0  0  0
   -1.2209    4.2172   -0.0441 C   0  0  0  0  0  0  0  0  0  0  0  0
   -1.9044    5.0333    0.1812 H   0  0  0  0  0  0  0  0  0  0  0  0
    0.1297    4.2770   -0.0183 N   0  0  0  0  0  0  0  0  0  0  0  0
    0.6867    5.0969    0.2076 H   0  0  0  0  0  0  0  0  0  0  0  0
    0.6340    3.0265   -0.3480 C   0  0  0  0  0  0  0  0  0  0  0  0
    1.6794    2.7388   -0.4166 H   0  0  0  0  0  0  0  0  0  0  0  0
    0.0470    0.3465    1.5629 C   0  0  0  0  0  0  0  0  0  0  0  0
    1.1854    0.1365    1.9846 O   0  0  0  0  0  0  0  0  0  0  0  0
   -0.8551    1.0750    2.2320 N   0  0  0  0  0  0  0  0  0  0  0  0
   -1.7594    1.2031    1.8040 H   0  0  0  0  0  0  0  0  0  0  0  0
   -0.6356    1.6998    3.5400 C   0  0  0  0  0  0  0  0  0  0  0  0
   -0.4284    2.7647    3.4168 H   0  0  0  0  0  0  0  0  0  0  0  0
   -1.5268    1.5885    4.1601 H   0  0  0  0  0  0  0  0  0  0  0  0
    0.2072    1.2358    4.0566 H   0  0  0  0  0  0  0  0  0  0  0  0
  5  6  2  0  0  0  0
  5  7  1  0  0  0  0
  2  3  1  0  0  0  0
  2  4  1  0  0  0  0
  2  5  1  0  0  0  0
  1  2  1  0  0  0  0
 23 24  2  0  0  0  0
 23 25  1  0  0  0  0
 21 22  1  0  0  0  0
 19 20  1  0  0  0  0
 19 21  1  0  0  0  0
 17 18  1  0  0  0  0
 17 19  1  0  0  0  0
 15 16  1  0  0  0  0
 15 17  2  0  0  0  0
 14 15  1  0  0  0  0
 14 21  2  0  0  0  0
 11 12  1  0  0  0  0
 11 13  1  0  0  0  0
 11 14  1  0  0  0  0
  9 10  1  0  0  0  0
  9 11  1  0  0  0  0
  9 23  1  0  0  0  0
  7  8  1  0  0  0  0
  7  9  1  0  0  0  0
 27 28  1  0  0  0  0
 27 29  1  0  0  0  0
 27 30  1  0  0  0  0
 25 26  1  0  0  0  0
 25 27  1  0  0  0  0
M  CHG  1  15   1
M  END
$$$$
default_name
  -OEChem-02102213163D

 30 30  0     1  0  0  0  0  0999 V2000
   -3.5507   -3.2183    1.8116 H   0  0  0  0  0  0  0  0  0  0  0  0
   -3.4597   -2.3913    1.1076 C   0  0  0  0  0  0  0  0  0  0  0  0
   -4.1577   -1.6043    1.3866 H   0  0  0  0  0  0  0  0  0  0  0  0
   -3.6807   -2.7523    0.1036 H   0  0  0  0  0  0  0  0  0  0  0  0
   -2.0477   -1.8543    1.1546 C   0  0  0  0  0  0  0  0  0  0  0  0
   -1.2227   -2.3443    1.9146 O   0  0  0  0  0  0  0  0  0  0  0  0
   -1.7517   -0.8483    0.3266 N   0  0  0  0  0  0  0  0  0  0  0  0
   -2.4847   -0.5123   -0.2804 H   0  0  0  0  0  0  0  0  0  0  0  0
   -0.4117   -0.2463    0.2186 C   0  0  1  0  0  0  0  0  0  0  0  0
    0.2987   -1.0391   -0.0285 H   0  0  0  0  0  0  0  0  0  0  0  0
   -0.4131    0.7505   -0.9636 C   0  0  0  0  0  0  0  0  0  0  0  0
    0.4761    0.5694   -1.5728 H   0  0  0  0  0  0  0  0  0  0  0  0
   -1.2809    0.5502   -1.5957 H   0  0  0  0  0  0  0  0  0  0  0  0
   -0.4435    2.2128   -0.5725 C   0  0  0  0  0  0  0  0  0  0  0  0
   -1.5507    2.8897   -0.0989 N   0  3  0  0  0  0  0  0  0  0  0  0
   -2.4496    2.4382    0.0931 H   0  0  0  0  0  0  0  0  0  0  0  0
   -1.1978    4.1684    0.1402 C   0  0  0  0  0  0  0  0  0  0  0  0
   -1.8568    4.9405    0.5320 H   0  0  0  0  0  0  0  0  0  0  0  0
    0.1092    4.3178   -0.1725 N   0  0  0  0  0  0  0  0  0  0  0  0
    0.6483    5.1758   -0.0904 H   0  0  0  0  0  0  0  0  0  0  0  0
    0.5984    3.0991   -0.6220 C   0  0  0  0  0  0  0  0  0  0  0  0
    1.6105    2.8802   -0.9508 H   0  0  0  0  0  0  0  0  0  0  0  0
    0.0470    0.3465    1.5629 C   0  0  0  0  0  0  0  0  0  0  0  0
    1.1854    0.1365    1.9846 O   0  0  0  0  0  0  0  0  0  0  0  0
   -0.8551    1.0750    2.2320 N   0  0  0  0  0  0  0  0  0  0  0  0
   -1.7594    1.2031    1.8040 H   0  0  0  0  0  0  0  0  0  0  0  0
   -0.6356    1.6998    3.5400 C   0  0  0  0  0  0  0  0  0  0  0  0
   -0.4284    2.7647    3.4168 H   0  0  0  0  0  0  0  0  0  0  0  0
   -1.5268    1.5885    4.1601 H   0  0  0  0  0  0  0  0  0  0  0  0
    0.2072    1.2358    4.0566 H   0  0  0  0  0  0  0  0  0  0  0  0
  5  6  2  0  0  0  0
  5  7  1  0  0  0  0
  2  3  1  0  0  0  0
  2  4  1  0  0  0  0
  2  5  1  0  0  0  0
  1  2  1  0  0  0  0
 23 24  2  0  0  0  0
 23 25  1  0  0  0  0
 21 22  1  0  0  0  0
 19 20  1  0  0  0  0
 19 21  1  0  0  0  0
 17 18  1  0  0  0  0
 17 19  1  0  0  0  0
 15 16  1  0  0  0  0
 15 17  2  0  0  0  0
 14 15  1  0  0  0  0
 14 21  2  0  0  0  0
 11 12  1  0  0  0  0
 11 13  1  0  0  0  0
 11 14  1  0  0  0  0
  9 10  1  0  0  0  0
  9 11  1  0  0  0  0
  9 23  1  0  0  0  0
  7  8  1  0  0  0  0
  7  9  1  0  0  0  0
 27 28  1  0  0  0  0
 27 29  1  0  0  0  0
 27 30  1  0  0  0  0
 25 26  1  0  0  0  0
 25 27  1  0  0  0  0
M  CHG  1  15   1
M  END
$$$$
default_name
  -OEChem-02102213163D

 30 30  0     1  0  0  0  0  0999 V2000
   -3.5507   -3.2183    1.8116 H   0  0  0  0  0  0  0  0  0  0  0  0
   -3.4597   -2.3913    1.1076 C   0  0  0  0  0  0  0  0  0  0  0  0
   -4.1577   -1.6043    1.3866 H   0  0  0  0  0  0  0  0  0  0  0  0
   -3.6807   -2.7523    0.1036 H   0  0  0  0  0  0  0  0  0  0  0  0
   -2.0477   -1.8543    1.1546 C   0  0  0  0  0  0  0  0  0  0  0  0
   -1.2227   -2.3443    1.9146 O   0  0  0  0  0  0  0  0  0  0  0  0
   -1.7517   -0.8483    0.3266 N   0  0  0  0  0  0  0  0  0  0  0  0
   -2.4847   -0.5123   -0.2804 H   0  0  0  0  0  0  0  0  0  0  0  0
   -0.4117   -0.2463    0.2186 C   0  0  1  0  0  0  0  0  0  0  0  0
    0.2987   -1.0391   -0.0285 H   0  0  0  0  0  0  0  0  0  0  0  0
   -0.4131    0.7505   -0.9636 C   0  0  0  0  0  0  0  0  0  0  0  0
    0.4761    0.5694   -1.5728 H   0  0  0  0  0  0  0  0  0  0  0  0
   -1.2809    0.5502   -1.5957 H   0  0  0  0  0  0  0  0  0  0  0  0
   -0.4435    2.2128   -0.5725 C   0  0  0  0  0  0  0  0  0  0  0  0
   -1.4404    2.8214    0.1652 N   0  3  0  0  0  0  0  0  0  0  0  0
   -2.2302    2.3140    0.5745 H   0  0  0  0  0  0  0  0  0  0  0  0
   -1.1261    4.1237    0.3127 C   0  0  0  0  0  0  0  0  0  0  0  0
   -1.7170    4.8558    0.8594 H   0  0  0  0  0  0  0  0  0  0  0  0
    0.0482    4.3551   -0.3166 N   0  0  0  0  0  0  0  0  0  0  0  0
    0.5315    5.2479   -0.3691 H   0  0  0  0  0  0  0  0  0  0  0  0
    0.4907    3.1654   -0.8781 C   0  0  0  0  0  0  0  0  0  0  0  0
    1.4010    3.0095   -1.4504 H   0  0  0  0  0  0  0  0  0  0  0  0
    0.0470    0.3465    1.5629 C   0  0  0  0  0  0  0  0  0  0  0  0
    1.1854    0.1365    1.9846 O   0  0  0  0  0  0  0  0  0  0  0  0
   -0.8551    1.0750    2.2320 N   0  0  0  0  0  0  0  0  0  0  0  0
   -1.7594    1.2031    1.8040 H   0  0  0  0  0  0  0  0  0  0  0  0
   -0.6356    1.6998    3.5400 C   0  0  0  0  0  0  0  0  0  0  0  0
   -0.4284    2.7647    3.4168 H   0  0  0  0  0  0  0  0  0  0  0  0
   -1.5268    1.5885    4.1601 H   0  0  0  0  0  0  0  0  0  0  0  0
    0.2072    1.2358    4.0566 H   0  0  0  0  0  0  0  0  0  0  0  0
  5  6  2  0  0  0  0
  5  7  1  0  0  0  0
  2  3  1  0  0  0  0
  2  4  1  0  0  0  0
  2  5  1  0  0  0  0
  1  2  1  0  0  0  0
 23 24  2  0  0  0  0
 23 25  1  0  0  0  0
 21 22  1  0  0  0  0
 19 20  1  0  0  0  0
 19 21  1  0  0  0  0
 17 18  1  0  0  0  0
 17 19  1  0  0  0  0
 15 16  1  0  0  0  0
 15 17  2  0  0  0  0
 14 15  1  0  0  0  0
 14 21  2  0  0  0  0
 11 12  1  0  0  0  0
 11 13  1  0  0  0  0
 11 14  1  0  0  0  0
  9 10  1  0  0  0  0
  9 11  1  0  0  0  0
  9 23  1  0  0  0  0
  7  8  1  0  0  0  0
  7  9  1  0  0  0  0
 27 28  1  0  0  0  0
 27 29  1  0  0  0  0
 27 30  1  0  0  0  0
 25 26  1  0  0  0  0
 25 27  1  0  0  0  0
M  CHG  1  15   1
M  END
$$$$
default_name
  -OEChem-02102213163D

 30 30  0     1  0  0  0  0  0999 V2000
   -3.5507   -3.2183    1.8116 H   0  0  0  0  0  0  0  0  0  0  0  0
   -3.4597   -2.3913    1.1076 C   0  0  0  0  0  0  0  0  0  0  0  0
   -4.1577   -1.6043    1.3866 H   0  0  0  0  0  0  0  0  0  0  0  0
   -3.6807   -2.7523    0.1036 H   0  0  0  0  0  0  0  0  0  0  0  0
   -2.0477   -1.8543    1.1546 C   0  0  0  0  0  0  0  0  0  0  0  0
   -1.2227   -2.3443    1.9146 O   0  0  0  0  0  0  0  0  0  0  0  0
   -1.7517   -0.8483    0.3266 N   0  0  0  0  0  0  0  0  0  0  0  0
   -2.4847   -0.5123   -0.2804 H   0  0  0  0  0  0  0  0  0  0  0  0
   -0.4117   -0.2463    0.2186 C   0  0  1  0  0  0  0  0  0  0  0  0
    0.2987   -1.0391   -0.0285 H   0  0  0  0  0  0  0  0  0  0  0  0
   -0.4131    0.7505   -0.9636 C   0  0  0  0  0  0  0  0  0  0  0  0
    0.4761    0.5694   -1.5728 H   0  0  0  0  0  0  0  0  0  0  0  0
   -1.2809    0.5502   -1.5957 H   0  0  0  0  0  0  0  0  0  0  0  0
   -0.4435    2.2128   -0.5725 C   0  0  0  0  0  0  0  0  0  0  0  0
   -1.2632    2.7641    0.3932 N   0  3  0  0  0  0  0  0  0  0  0  0
   -1.8896    2.2112    0.9854 H   0  0  0  0  0  0  0  0  0  0  0  0
   -1.0108    4.0863    0.4616 C   0  0  0  0  0  0  0  0  0  0  0  0
   -1.4944    4.7851    1.1412 H   0  0  0  0  0  0  0  0  0  0  0  0
   -0.0493    4.3862   -0.4406 N   0  0  0  0  0  0  0  0  0  0  0  0
    0.3441    5.3083   -0.6094 H   0  0  0  0  0  0  0  0  0  0  0  0
    0.3182    3.2208   -1.0989 C   0  0  0  0  0  0  0  0  0  0  0  0
    1.0650    3.1178   -1.8813 H   0  0  0  0  0  0  0  0  0  0  0  0
    0.0470    0.3465    1.5629 C   0  0  0  0  0  0  0  0  0  0  0  0
    1.1854    0.1365    1.9846 O   0  0  0  0  0  0  0  0  0  0  0  0
   -0.8551    1.0750    2.2320 N   0  0  0  0  0  0  0  0  0  0  0  0
   -1.7594    1.2031    1.8040 H   0  0  0  0  0  0  0  0  0  0  0  0
   -0.6356    1.6998    3.5400 C   0  0  0  0  0  0  0  0  0  0  0  0
   -0.4284    2.7647    3.4168 H   0  0  0  0  0  0  0  0  0  0  0  0
   -1.5268    1.5885    4.1601 H   0  0  0  0  0  0  0  0  0  0  0  0
    0.2072    1.2358    4.0566 H   0  0  0  0  0  0  0  0  0  0  0  0
  5  6  2  0  0  0  0
  5  7  1  0  0  0  0
  2  3  1  0  0  0  0
  2  4  1  0  0  0  0
  2  5  1  0  0  0  0
  1  2  1  0  0  0  0
 23 24  2  0  0  0  0
 23 25  1  0  0  0  0
 21 22  1  0  0  0  0
 19 20  1  0  0  0  0
 19 21  1  0  0  0  0
 17 18  1  0  0  0  0
 17 19  1  0  0  0  0
 15 16  1  0  0  0  0
 15 17  2  0  0  0  0
 14 15  1  0  0  0  0
 14 21  2  0  0  0  0
 11 12  1  0  0  0  0
 11 13  1  0  0  0  0
 11 14  1  0  0  0  0
  9 10  1  0  0  0  0
  9 11  1  0  0  0  0
  9 23  1  0  0  0  0
  7  8  1  0  0  0  0
  7  9  1  0  0  0  0
 27 28  1  0  0  0  0
 27 29  1  0  0  0  0
 27 30  1  0  0  0  0
 25 26  1  0  0  0  0
 25 27  1  0  0  0  0
M  CHG  1  15   1
M  END
$$$$
default_name
  -OEChem-02102213163D

 30 30  0     1  0  0  0  0  0999 V2000
   -3.5507   -3.2183    1.8116 H   0  0  0  0  0  0  0  0  0  0  0  0
   -3.4597   -2.3913    1.1076 C   0  0  0  0  0  0  0  0  0  0  0  0
   -4.1577   -1.6043    1.3866 H   0  0  0  0  0  0  0  0  0  0  0  0
   -3.6807   -2.7523    0.1036 H   0  0  0  0  0  0  0  0  0  0  0  0
   -2.0477   -1.8543    1.1546 C   0  0  0  0  0  0  0  0  0  0  0  0
   -1.2227   -2.3443    1.9146 O   0  0  0  0  0  0  0  0  0  0  0  0
   -1.7517   -0.8483    0.3266 N   0  0  0  0  0  0  0  0  0  0  0  0
   -2.4847   -0.5123   -0.2804 H   0  0  0  0  0  0  0  0  0  0  0  0
   -0.4117   -0.2463    0.2186 C   0  0  1  0  0  0  0  0  0  0  0  0
    0.2987   -1.0391   -0.0285 H   0  0  0  0  0  0  0  0  0  0  0  0
   -0.4131    0.7505   -0.9636 C   0  0  0  0  0  0  0  0  0  0  0  0
    0.4761    0.5694   -1.5728 H   0  0  0  0  0  0  0  0  0  0  0  0
   -1.2809    0.5502   -1.5957 H   0  0  0  0  0  0  0  0  0  0  0  0
   -0.4435    2.2128   -0.5725 C   0  0  0  0  0  0  0  0  0  0  0  0
   -1.0313    2.7218    0.5694 N   0  3  0  0  0  0  0  0  0  0  0  0
   -1.4511    2.1368    1.2976 H   0  0  0  0  0  0  0  0  0  0  0  0
   -0.8597    4.0586    0.5768 C   0  0  0  0  0  0  0  0  0  0  0  0
   -1.2042    4.7331    1.3581 H   0  0  0  0  0  0  0  0  0  0  0  0
   -0.1765    4.4092   -0.5362 N   0  0  0  0  0  0  0  0  0  0  0  0
    0.0990    5.3529   -0.7950 H   0  0  0  0  0  0  0  0  0  0  0  0
    0.0927    3.2617   -1.2694 C   0  0  0  0  0  0  0  0  0  0  0  0
    0.6256    3.1976   -2.2140 H   0  0  0  0  0  0  0  0  0  0  0  0
    0.0470    0.3465    1.5629 C   0  0  0  0  0  0  0  0  0  0  0  0
    1.1854    0.1365    1.9846 O   0  0  0  0  0  0  0  0  0  0  0  0
   -0.8551    1.0750    2.2320 N   0  0  0  0  0  0  0  0  0  0  0  0
   -1.7594    1.2031    1.8040 H   0  0  0  0  0  0  0  0  0  0  0  0
   -0.6356    1.6998    3.5400 C   0  0  0  0  0  0  0  0  0  0  0  0
   -0.4284    2.7647    3.4168 H   0  0  0  0  0  0  0  0  0  0  0  0
   -1.5268    1.5885    4.1601 H   0  0  0  0  0  0  0  0  0  0  0  0
    0.2072    1.2358    4.0566 H   0  0  0  0  0  0  0  0  0  0  0  0
  5  6  2  0  0  0  0
  5  7  1  0  0  0  0
  2  3  1  0  0  0  0
  2  4  1  0  0  0  0
  2  5  1  0  0  0  0
  1  2  1  0  0  0  0
 23 24  2  0  0  0  0
 23 25  1  0  0  0  0
 21 22  1  0  0  0  0
 19 20  1  0  0  0  0
 19 21  1  0  0  0  0
 17 18  1  0  0  0  0
 17 19  1  0  0  0  0
 15 16  1  0  0  0  0
 15 17  2  0  0  0  0
 14 15  1  0  0  0  0
 14 21  2  0  0  0  0
 11 12  1  0  0  0  0
 11 13  1  0  0  0  0
 11 14  1  0  0  0  0
  9 10  1  0  0  0  0
  9 11  1  0  0  0  0
  9 23  1  0  0  0  0
  7  8  1  0  0  0  0
  7  9  1  0  0  0  0
 27 28  1  0  0  0  0
 27 29  1  0  0  0  0
 27 30  1  0  0  0  0
 25 26  1  0  0  0  0
 25 27  1  0  0  0  0
M  CHG  1  15   1
M  END
$$$$
default_name
  -OEChem-02102213163D

 30 30  0     1  0  0  0  0  0999 V2000
   -3.5507   -3.2183    1.8116 H   0  0  0  0  0  0  0  0  0  0  0  0
   -3.4597   -2.3913    1.1076 C   0  0  0  0  0  0  0  0  0  0  0  0
   -4.1577   -1.6043    1.3866 H   0  0  0  0  0  0  0  0  0  0  0  0
   -3.6807   -2.7523    0.1036 H   0  0  0  0  0  0  0  0  0  0  0  0
   -2.0477   -1.8543    1.1546 C   0  0  0  0  0  0  0  0  0  0  0  0
   -1.2227   -2.3443    1.9146 O   0  0  0  0  0  0  0  0  0  0  0  0
   -1.7517   -0.8483    0.3266 N   0  0  0  0  0  0  0  0  0  0  0  0
   -2.4847   -0.5123   -0.2804 H   0  0  0  0  0  0  0  0  0  0  0  0
   -0.4117   -0.2463    0.2186 C   0  0  1  0  0  0  0  0  0  0  0  0
    0.2987   -1.0391   -0.0285 H   0  0  0  0  0  0  0  0  0  0  0  0
   -0.4131    0.7505   -0.9636 C   0  0  0  0  0  0  0  0  0  0  0  0
    0.4761    0.5694   -1.5728 H   0  0  0  0  0  0  0  0  0  0  0  0
   -1.2809    0.5502   -1.5957 H   0  0  0  0  0  0  0  0  0  0  0  0
   -0.4435    2.2128   -0.5725 C   0  0  0  0  0  0  0  0  0  0  0  0
   -0.7604    2.6973    0.6818 N   0  3  0  0  0  0  0  0  0  0  0  0
   -0.9445    2.0959    1.4899 H   0  0  0  0  0  0  0  0  0  0  0  0
   -0.6830    4.0426    0.6505 C   0  0  0  0  0  0  0  0  0  0  0  0
   -0.8662    4.7034    1.4953 H   0  0  0  0  0  0  0  0  0  0  0  0
   -0.3249    4.4223   -0.5969 N   0  0  0  0  0  0  0  0  0  0  0  0
   -0.1871    5.3786   -0.9133 H   0  0  0  0  0  0  0  0  0  0  0  0
   -0.1705    3.2853   -1.3779 C   0  0  0  0  0  0  0  0  0  0  0  0
    0.1126    3.2437   -2.4260 H   0  0  0  0  0  0  0  0  0  0  0  0
    0.0470    0.3465    1.5629 C   0  0  0  0  0  0  0  0  0  0  0  0
    1.1854    0.1365    1.9846 O   0  0  0  0  0  0  0  0  0  0  0  0
   -0.8551    1.0750    2.2320 N   0  0  0  0  0  0  0  0  0  0  0  0
   -1.7594    1.2031    1.8040 H   0  0  0  0  0  0  0  0  0  0  0  0
   -0.6356    1.6998    3.5400 C   0  0  0  0  0  0  0  0  0  0  0  0
   -0.4284    2.7647    3.4168 H   0  0  0  0  0  0  0  0  0  0  0  0
   -1.5268    1.5885    4.1601 H   0  0  0  0  0  0  0  0  0  0  0  0
    0.2072    1.2358    4.0566 H   0  0  0  0  0  0  0  0  0  0  0  0
  5  6  2  0  0  0  0
  5  7  1  0  0  0  0
  2  3  1  0  0  0  0
  2  4  1  0  0  0  0
  2  5  1  0  0  0  0
  1  2  1  0  0  0  0
 23 24  2  0  0  0  0
 23 25  1  0  0  0  0
 21 22  1  0  0  0  0
 19 20  1  0  0  0  0
 19 21  1  0  0  0  0
 17 18  1  0  0  0  0
 17 19  1  0  0  0  0
 15 16  1  0  0  0  0
 15 17  2  0  0  0  0
 14 15  1  0  0  0  0
 14 21  2  0  0  0  0
 11 12  1  0  0  0  0
 11 13  1  0  0  0  0
 11 14  1  0  0  0  0
  9 10  1  0  0  0  0
  9 11  1  0  0  0  0
  9 23  1  0  0  0  0
  7  8  1  0  0  0  0
  7  9  1  0  0  0  0
 27 28  1  0  0  0  0
 27 29  1  0  0  0  0
 27 30  1  0  0  0  0
 25 26  1  0  0  0  0
 25 27  1  0  0  0  0
M  CHG  1  15   1
M  END
$$$$
default_name
  -OEChem-02102213163D

 30 30  0     1  0  0  0  0  0999 V2000
   -3.5507   -3.2183    1.8116 H   0  0  0  0  0  0  0  0  0  0  0  0
   -3.4597   -2.3913    1.1076 C   0  0  0  0  0  0  0  0  0  0  0  0
   -4.1577   -1.6043    1.3866 H   0  0  0  0  0  0  0  0  0  0  0  0
   -3.6807   -2.7523    0.1036 H   0  0  0  0  0  0  0  0  0  0  0  0
   -2.0477   -1.8543    1.1546 C   0  0  0  0  0  0  0  0  0  0  0  0
   -1.2227   -2.3443    1.9146 O   0  0  0  0  0  0  0  0  0  0  0  0
   -1.7517   -0.8483    0.3266 N   0  0  0  0  0  0  0  0  0  0  0  0
   -2.4847   -0.5123   -0.2804 H   0  0  0  0  0  0  0  0  0  0  0  0
   -0.4117   -0.2463    0.2186 C   0  0  1  0  0  0  0  0  0  0  0  0
    0.2987   -1.0391   -0.0285 H   0  0  0  0  0  0  0  0  0  0  0  0
   -0.4131    0.7505   -0.9636 C   0  0  0  0  0  0  0  0  0  0  0  0
    0.4761    0.5694   -1.5728 H   0  0  0  0  0  0  0  0  0  0  0  0
   -1.2809    0.5502   -1.5957 H   0  0  0  0  0  0  0  0  0  0  0  0
   -0.4435    2.2128   -0.5725 C   0  0  0  0  0  0  0  0  0  0  0  0
   -0.4690    2.6924    0.7228 N   0  3  0  0  0  0  0  0  0  0  0  0
   -0.4044    2.0913    1.5493 H   0  0  0  0  0  0  0  0  0  0  0  0
   -0.4929    4.0393    0.6776 C   0  0  0  0  0  0  0  0  0  0  0  0
   -0.5035    4.6980    1.5436 H   0  0  0  0  0  0  0  0  0  0  0  0
   -0.4842    4.4248   -0.6185 N   0  0  0  0  0  0  0  0  0  0  0  0
   -0.4947    5.3836   -0.9562 H   0  0  0  0  0  0  0  0  0  0  0  0
   -0.4534    3.2899   -1.4170 C   0  0  0  0  0  0  0  0  0  0  0  0
   -0.4389    3.2527   -2.5028 H   0  0  0  0  0  0  0  0  0  0  0  0
    0.0470    0.3465    1.5629 C   0  0  0  0  0  0  0  0  0  0  0  0
    1.1854    0.1365    1.9846 O   0  0  0  0  0  0  0  0  0  0  0  0
   -0.8551    1.0750    2.2320 N   0  0  0  0  0  0  0  0  0  0  0  0
   -1.7594    1.2031    1.8040 H   0  0  0  0  0  0  0  0  0  0  0  0
   -0.6356    1.6998    3.5400 C   0  0  0  0  0  0  0  0  0  0  0  0
   -0.4284    2.7647    3.4168 H   0  0  0  0  0  0  0  0  0  0  0  0
   -1.5268    1.5885    4.1601 H   0  0  0  0  0  0  0  0  0  0  0  0
    0.2072    1.2358    4.0566 H   0  0  0  0  0  0  0  0  0  0  0  0
  5  6  2  0  0  0  0
  5  7  1  0  0  0  0
  2  3  1  0  0  0  0
  2  4  1  0  0  0  0
  2  5  1  0  0  0  0
  1  2  1  0  0  0  0
 23 24  2  0  0  0  0
 23 25  1  0  0  0  0
 21 22  1  0  0  0  0
 19 20  1  0  0  0  0
 19 21  1  0  0  0  0
 17 18  1  0  0  0  0
 17 19  1  0  0  0  0
 15 16  1  0  0  0  0
 15 17  2  0  0  0  0
 14 15  1  0  0  0  0
 14 21  2  0  0  0  0
 11 12  1  0  0  0  0
 11 13  1  0  0  0  0
 11 14  1  0  0  0  0
  9 10  1  0  0  0  0
  9 11  1  0  0  0  0
  9 23  1  0  0  0  0
  7  8  1  0  0  0  0
  7  9  1  0  0  0  0
 27 28  1  0  0  0  0
 27 29  1  0  0  0  0
 27 30  1  0  0  0  0
 25 26  1  0  0  0  0
 25 27  1  0  0  0  0
M  CHG  1  15   1
M  END
$$$$
default_name
  -OEChem-02102213163D

 30 30  0     1  0  0  0  0  0999 V2000
   -3.5507   -3.2183    1.8116 H   0  0  0  0  0  0  0  0  0  0  0  0
   -3.4597   -2.3913    1.1076 C   0  0  0  0  0  0  0  0  0  0  0  0
   -4.1577   -1.6043    1.3866 H   0  0  0  0  0  0  0  0  0  0  0  0
   -3.6807   -2.7523    0.1036 H   0  0  0  0  0  0  0  0  0  0  0  0
   -2.0477   -1.8543    1.1546 C   0  0  0  0  0  0  0  0  0  0  0  0
   -1.2227   -2.3443    1.9146 O   0  0  0  0  0  0  0  0  0  0  0  0
   -1.7517   -0.8483    0.3266 N   0  0  0  0  0  0  0  0  0  0  0  0
   -2.4847   -0.5123   -0.2804 H   0  0  0  0  0  0  0  0  0  0  0  0
   -0.4117   -0.2463    0.2186 C   0  0  1  0  0  0  0  0  0  0  0  0
    0.2987   -1.0391   -0.0285 H   0  0  0  0  0  0  0  0  0  0  0  0
   -0.4131    0.7505   -0.9636 C   0  0  0  0  0  0  0  0  0  0  0  0
    0.4761    0.5694   -1.5728 H   0  0  0  0  0  0  0  0  0  0  0  0
   -1.2809    0.5502   -1.5957 H   0  0  0  0  0  0  0  0  0  0  0  0
   -0.4435    2.2128   -0.5725 C   0  0  0  0  0  0  0  0  0  0  0  0
   -0.1770    2.7074    0.6896 N   0  3  0  0  0  0  0  0  0  0  0  0
    0.1325    2.1232    1.4717 H   0  0  0  0  0  0  0  0  0  0  0  0
   -0.3023    4.0490    0.6562 C   0  0  0  0  0  0  0  0  0  0  0  0
   -0.1407    4.7174    1.4995 H   0  0  0  0  0  0  0  0  0  0  0  0
   -0.6437    4.4164   -0.5995 N   0  0  0  0  0  0  0  0  0  0  0  0
   -0.8029    5.3677   -0.9207 H   0  0  0  0  0  0  0  0  0  0  0  0
   -0.7368    3.2752   -1.3841 C   0  0  0  0  0  0  0  0  0  0  0  0
   -0.9915    3.2242   -2.4391 H   0  0  0  0  0  0  0  0  0  0  0  0
    0.0470    0.3465    1.5629 C   0  0  0  0  0  0  0  0  0  0  0  0
    1.1854    0.1365    1.9846 O   0  0  0  0  0  0  0  0  0  0  0  0
   -0.8551    1.0750    2.2320 N   0  0  0  0  0  0  0  0  0  0  0  0
   -1.7594    1.2031    1.8040 H   0  0  0  0  0  0  0  0  0  0  0  0
   -0.6356    1.6998    3.5400 C   0  0  0  0  0  0  0  0  0  0  0  0
   -0.4284    2.7647    3.4168 H   0  0  0  0  0  0  0  0  0  0  0  0
   -1.5268    1.5885    4.1601 H   0  0  0  0  0  0  0  0  0  0  0  0
    0.2072    1.2358    4.0566 H   0  0  0  0  0  0  0  0  0  0  0  0
  5  6  2  0  0  0  0
  5  7  1  0  0  0  0
  2  3  1  0  0  0  0
  2  4  1  0  0  0  0
  2  5  1  0  0  0  0
  1  2  1  0  0  0  0
 23 24  2  0  0  0  0
 23 25  1  0  0  0  0
 21 22  1  0  0  0  0
 19 20  1  0  0  0  0
 19 21  1  0  0  0  0
 17 18  1  0  0  0  0
 17 19  1  0  0  0  0
 15 16  1  0  0  0  0
 15 17  2  0  0  0  0
 14 15  1  0  0  0  0
 14 21  2  0  0  0  0
 11 12  1  0  0  0  0
 11 13  1  0  0  0  0
 11 14  1  0  0  0  0
  9 10  1  0  0  0  0
  9 11  1  0  0  0  0
  9 23  1  0  0  0  0
  7  8  1  0  0  0  0
  7  9  1  0  0  0  0
 27 28  1  0  0  0  0
 27 29  1  0  0  0  0
 27 30  1  0  0  0  0
 25 26  1  0  0  0  0
 25 27  1  0  0  0  0
M  CHG  1  15   1
M  END
$$$$
default_name
  -OEChem-02102213163D

 30 30  0     1  0  0  0  0  0999 V2000
   -3.5507   -3.2183    1.8116 H   0  0  0  0  0  0  0  0  0  0  0  0
   -3.4597   -2.3913    1.1076 C   0  0  0  0  0  0  0  0  0  0  0  0
   -4.1577   -1.6043    1.3866 H   0  0  0  0  0  0  0  0  0  0  0  0
   -3.6807   -2.7523    0.1036 H   0  0  0  0  0  0  0  0  0  0  0  0
   -2.0477   -1.8543    1.1546 C   0  0  0  0  0  0  0  0  0  0  0  0
   -1.2227   -2.3443    1.9146 O   0  0  0  0  0  0  0  0  0  0  0  0
   -1.7517   -0.8483    0.3266 N   0  0  0  0  0  0  0  0  0  0  0  0
   -2.4847   -0.5123   -0.2804 H   0  0  0  0  0  0  0  0  0  0  0  0
   -0.4117   -0.2463    0.2186 C   0  0  1  0  0  0  0  0  0  0  0  0
    0.2987   -1.0391   -0.0285 H   0  0  0  0  0  0  0  0  0  0  0  0
   -0.4131    0.7505   -0.9636 C   0  0  0  0  0  0  0  0  0  0  0  0
    0.4761    0.5694   -1.5728 H   0  0  0  0  0  0  0  0  0  0  0  0
   -1.2809    0.5502   -1.5957 H   0  0  0  0  0  0  0  0  0  0  0  0
   -0.4435    2.2128   -0.5725 C   0  0  0  0  0  0  0  0  0  0  0  0
    0.0958    2.7412    0.5844 N   0  3  0  0  0  0  0  0  0  0  0  0
    0.6296    2.1896    1.2623 H   0  0  0  0  0  0  0  0  0  0  0  0
   -0.1242    4.0709    0.5879 C   0  0  0  0  0  0  0  0  0  0  0  0
    0.1975    4.7601    1.3661 H   0  0  0  0  0  0  0  0  0  0  0  0
   -0.7924    4.3977   -0.5413 N   0  0  0  0  0  0  0  0  0  0  0  0
   -1.0907    5.3319   -0.8093 H   0  0  0  0  0  0  0  0  0  0  0  0
   -1.0013    3.2422   -1.2814 C   0  0  0  0  0  0  0  0  0  0  0  0
   -1.5074    3.1600   -2.2393 H   0  0  0  0  0  0  0  0  0  0  0  0
    0.0470    0.3465    1.5629 C   0  0  0  0  0  0  0  0  0  0  0  0
    1.1854    0.1365    1.9846 O   0  0  0  0  0  0  0  0  0  0  0  0
   -0.8551    1.0750    2.2320 N   0  0  0  0  0  0  0  0  0  0  0  0
   -1.7594    1.2031    1.8040 H   0  0  0  0  0  0  0  0  0  0  0  0
   -0.6356    1.6998    3.5400 C   0  0  0  0  0  0  0  0  0  0  0  0
   -0.4284    2.7647    3.4168 H   0  0  0  0  0  0  0  0  0  0  0  0
   -1.5268    1.5885    4.1601 H   0  0  0  0  0  0  0  0  0  0  0  0
    0.2072    1.2358    4.0566 H   0  0  0  0  0  0  0  0  0  0  0  0
  5  6  2  0  0  0  0
  5  7  1  0  0  0  0
  2  3  1  0  0  0  0
  2  4  1  0  0  0  0
  2  5  1  0  0  0  0
  1  2  1  0  0  0  0
 23 24  2  0  0  0  0
 23 25  1  0  0  0  0
 21 22  1  0  0  0  0
 19 20  1  0  0  0  0
 19 21  1  0  0  0  0
 17 18  1  0  0  0  0
 17 19  1  0  0  0  0
 15 16  1  0  0  0  0
 15 17  2  0  0  0  0
 14 15  1  0  0  0  0
 14 21  2  0  0  0  0
 11 12  1  0  0  0  0
 11 13  1  0  0  0  0
 11 14  1  0  0  0  0
  9 10  1  0  0  0  0
  9 11  1  0  0  0  0
  9 23  1  0  0  0  0
  7  8  1  0  0  0  0
  7  9  1  0  0  0  0
 27 28  1  0  0  0  0
 27 29  1  0  0  0  0
 27 30  1  0  0  0  0
 25 26  1  0  0  0  0
 25 27  1  0  0  0  0
M  CHG  1  15   1
M  END
$$$$
default_name
  -OEChem-02102213163D

 30 30  0     1  0  0  0  0  0999 V2000
   -3.5507   -3.2183    1.8116 H   0  0  0  0  0  0  0  0  0  0  0  0
   -3.4597   -2.3913    1.1076 C   0  0  0  0  0  0  0  0  0  0  0  0
   -4.1577   -1.6043    1.3866 H   0  0  0  0  0  0  0  0  0  0  0  0
   -3.6807   -2.7523    0.1036 H   0  0  0  0  0  0  0  0  0  0  0  0
   -2.0477   -1.8543    1.1546 C   0  0  0  0  0  0  0  0  0  0  0  0
   -1.2227   -2.3443    1.9146 O   0  0  0  0  0  0  0  0  0  0  0  0
   -1.7517   -0.8483    0.3266 N   0  0  0  0  0  0  0  0  0  0  0  0
   -2.4847   -0.5123   -0.2804 H   0  0  0  0  0  0  0  0  0  0  0  0
   -0.4117   -0.2463    0.2186 C   0  0  1  0  0  0  0  0  0  0  0  0
    0.2987   -1.0391   -0.0285 H   0  0  0  0  0  0  0  0  0  0  0  0
   -0.4131    0.7505   -0.9636 C   0  0  0  0  0  0  0  0  0  0  0  0
    0.4761    0.5694   -1.5728 H   0  0  0  0  0  0  0  0  0  0  0  0
   -1.2809    0.5502   -1.5957 H   0  0  0  0  0  0  0  0  0  0  0  0
   -0.4435    2.2128   -0.5725 C   0  0  0  0  0  0  0  0  0  0  0  0
    0.3307    2.7915    0.4145 N   0  3  0  0  0  0  0  0  0  0  0  0
    1.0529    2.2858    0.9354 H   0  0  0  0  0  0  0  0  0  0  0  0
    0.0293    4.1037    0.4773 C   0  0  0  0  0  0  0  0  0  0  0  0
    0.4879    4.8233    1.1525 H   0  0  0  0  0  0  0  0  0  0  0  0
   -0.9203    4.3700   -0.4478 N   0  0  0  0  0  0  0  0  0  0  0  0
   -1.3384    5.2787   -0.6295 H   0  0  0  0  0  0  0  0  0  0  0  0
   -1.2289    3.1932   -1.1160 C   0  0  0  0  0  0  0  0  0  0  0  0
   -1.9515    3.0646   -1.9170 H   0  0  0  0  0  0  0  0  0  0  0  0
    0.0470    0.3465    1.5629 C   0  0  0  0  0  0  0  0  0  0  0  0
    1.1854    0.1365    1.9846 O   0  0  0  0  0  0  0  0  0  0  0  0
   -0.8551    1.0750    2.2320 N   0  0  0  0  0  0  0  0  0  0  0  0
   -1.7594    1.2031    1.8040 H   0  0  0  0  0  0  0  0  0  0  0  0
   -0.6356    1.6998    3.5400 C   0  0  0  0  0  0  0  0  0  0  0  0
   -0.4284    2.7647    3.4168 H   0  0  0  0  0  0  0  0  0  0  0  0
   -1.5268    1.5885    4.1601 H   0  0  0  0  0  0  0  0  0  0  0  0
    0.2072    1.2358    4.0566 H   0  0  0  0  0  0  0  0  0  0  0  0
  5  6  2  0  0  0  0
  5  7  1  0  0  0  0
  2  3  1  0  0  0  0
  2  4  1  0  0  0  0
  2  5  1  0  0  0  0
  1  2  1  0  0  0  0
 23 24  2  0  0  0  0
 23 25  1  0  0  0  0
 21 22  1  0  0  0  0
 19 20  1  0  0  0  0
 19 21  1  0  0  0  0
 17 18  1  0  0  0  0
 17 19  1  0  0  0  0
 15 16  1  0  0  0  0
 15 17  2  0  0  0  0
 14 15  1  0  0  0  0
 14 21  2  0  0  0  0
 11 12  1  0  0  0  0
 11 13  1  0  0  0  0
 11 14  1  0  0  0  0
  9 10  1  0  0  0  0
  9 11  1  0  0  0  0
  9 23  1  0  0  0  0
  7  8  1  0  0  0  0
  7  9  1  0  0  0  0
 27 28  1  0  0  0  0
 27 29  1  0  0  0  0
 27 30  1  0  0  0  0
 25 26  1  0  0  0  0
 25 27  1  0  0  0  0
M  CHG  1  15   1
M  END
$$$$
default_name
  -OEChem-02102213163D

 30 30  0     1  0  0  0  0  0999 V2000
   -3.5507   -3.2183    1.8116 H   0  0  0  0  0  0  0  0  0  0  0  0
   -3.4597   -2.3913    1.1076 C   0  0  0  0  0  0  0  0  0  0  0  0
   -4.1577   -1.6043    1.3866 H   0  0  0  0  0  0  0  0  0  0  0  0
   -3.6807   -2.7523    0.1036 H   0  0  0  0  0  0  0  0  0  0  0  0
   -2.0477   -1.8543    1.1546 C   0  0  0  0  0  0  0  0  0  0  0  0
   -1.2227   -2.3443    1.9146 O   0  0  0  0  0  0  0  0  0  0  0  0
   -1.7517   -0.8483    0.3266 N   0  0  0  0  0  0  0  0  0  0  0  0
   -2.4847   -0.5123   -0.2804 H   0  0  0  0  0  0  0  0  0  0  0  0
   -0.4117   -0.2463    0.2186 C   0  0  1  0  0  0  0  0  0  0  0  0
    0.2987   -1.0391   -0.0285 H   0  0  0  0  0  0  0  0  0  0  0  0
   -0.4131    0.7505   -0.9636 C   0  0  0  0  0  0  0  0  0  0  0  0
    0.4761    0.5694   -1.5728 H   0  0  0  0  0  0  0  0  0  0  0  0
   -1.2809    0.5502   -1.5957 H   0  0  0  0  0  0  0  0  0  0  0  0
   -0.4435    2.2128   -0.5725 C   0  0  0  0  0  0  0  0  0  0  0  0
    0.5118    2.8550    0.1913 N   0  3  0  0  0  0  0  0  0  0  0  0
    1.3737    2.4054    0.5134 H   0  0  0  0  0  0  0  0  0  0  0  0
    0.1477    4.1451    0.3319 C   0  0  0  0  0  0  0  0  0  0  0  0
    0.7108    4.9026    0.8733 H   0  0  0  0  0  0  0  0  0  0  0  0
   -1.0186    4.3352   -0.3253 N   0  0  0  0  0  0  0  0  0  0  0  0
   -1.5292    5.2116   -0.3937 H   0  0  0  0  0  0  0  0  0  0  0  0
   -1.4041    3.1315   -0.8990 C   0  0  0  0  0  0  0  0  0  0  0  0
   -2.2935    2.9444   -1.4942 H   0  0  0  0  0  0  0  0  0  0  0  0
    0.0470    0.3465    1.5629 C   0  0  0  0  0  0  0  0  0  0  0  0
    1.1854    0.1365    1.9846 O   0  0  0  0  0  0  0  0  0  0  0  0
   -0.8551    1.0750    2.2320 N   0  0  0  0  0  0  0  0  0  0  0  0
   -1.7594    1.2031    1.8040 H   0  0  0  0  0  0  0  0  0  0  0  0
   -0.6356    1.6998    3.5400 C   0  0  0  0  0  0  0  0  0  0  0  0
   -0.4284    2.7647    3.4168 H   0  0  0  0  0  0  0  0  0  0  0  0
   -1.5268    1.5885    4.1601 H   0  0  0  0  0  0  0  0  0  0  0  0
    0.2072    1.2358    4.0566 H   0  0  0  0  0  0  0  0  0  0  0  0
  5  6  2  0  0  0  0
  5  7  1  0  0  0  0
  2  3  1  0  0  0  0
  2  4  1  0  0  0  0
  2  5  1  0  0  0  0
  1  2  1  0  0  0  0
 23 24  2  0  0  0  0
 23 25  1  0  0  0  0
 21 22  1  0  0  0  0
 19 20  1  0  0  0  0
 19 21  1  0  0  0  0
 17 18  1  0  0  0  0
 17 19  1  0  0  0  0
 15 16  1  0  0  0  0
 15 17  2  0  0  0  0
 14 15  1  0  0  0  0
 14 21  2  0  0  0  0
 11 12  1  0  0  0  0
 11 13  1  0  0  0  0
 11 14  1  0  0  0  0
  9 10  1  0  0  0  0
  9 11  1  0  0  0  0
  9 23  1  0  0  0  0
  7  8  1  0  0  0  0
  7  9  1  0  0  0  0
 27 28  1  0  0  0  0
 27 29  1  0  0  0  0
 27 30  1  0  0  0  0
 25 26  1  0  0  0  0
 25 27  1  0  0  0  0
M  CHG  1  15   1
M  END
$$$$
default_name
  -OEChem-02102213163D

 30 30  0     1  0  0  0  0  0999 V2000
   -3.5507   -3.2183    1.8116 H   0  0  0  0  0  0  0  0  0  0  0  0
   -3.4597   -2.3913    1.1076 C   0  0  0  0  0  0  0  0  0  0  0  0
   -4.1577   -1.6043    1.3866 H   0  0  0  0  0  0  0  0  0  0  0  0
   -3.6807   -2.7523    0.1036 H   0  0  0  0  0  0  0  0  0  0  0  0
   -2.0477   -1.8543    1.1546 C   0  0  0  0  0  0  0  0  0  0  0  0
   -1.2227   -2.3443    1.9146 O   0  0  0  0  0  0  0  0  0  0  0  0
   -1.7517   -0.8483    0.3266 N   0  0  0  0  0  0  0  0  0  0  0  0
   -2.4847   -0.5123   -0.2804 H   0  0  0  0  0  0  0  0  0  0  0  0
   -0.4117   -0.2463    0.2186 C   0  0  1  0  0  0  0  0  0  0  0  0
    0.2987   -1.0391   -0.0285 H   0  0  0  0  0  0  0  0  0  0  0  0
   -0.4131    0.7505   -0.9636 C   0  0  0  0  0  0  0  0  0  0  0  0
    0.4761    0.5694   -1.5728 H   0  0  0  0  0  0  0  0  0  0  0  0
   -1.2809    0.5502   -1.5957 H   0  0  0  0  0  0  0  0  0  0  0  0
   -0.4435    2.2128   -0.5725 C   0  0  0  0  0  0  0  0  0  0  0  0
    0.6267    2.9272   -0.0698 N   0  3  0  0  0  0  0  0  0  0  0  0
    1.5701    2.5401    0.0249 H   0  0  0  0  0  0  0  0  0  0  0  0
    0.2230    4.1922    0.1616 C   0  0  0  0  0  0  0  0  0  0  0  0
    0.8510    4.9927    0.5475 H   0  0  0  0  0  0  0  0  0  0  0  0
   -1.0806    4.2957   -0.1823 N   0  0  0  0  0  0  0  0  0  0  0  0
   -1.6501    5.1354   -0.1179 H   0  0  0  0  0  0  0  0  0  0  0  0
   -1.5150    3.0614   -0.6453 C   0  0  0  0  0  0  0  0  0  0  0  0
   -2.5102    2.8076   -0.9997 H   0  0  0  0  0  0  0  0  0  0  0  0
    0.0470    0.3465    1.5629 C   0  0  0  0  0  0  0  0  0  0  0  0
    1.1854    0.1365    1.9846 O   0  0  0  0  0  0  0  0  0  0  0  0
   -0.8551    1.0750    2.2320 N   0  0  0  0  0  0  0  0  0  0  0  0
   -1.7594    1.2031    1.8040 H   0  0  0  0  0  0  0  0  0  0  0  0
   -0.6356    1.6998    3.5400 C   0  0  0  0  0  0  0  0  0  0  0  0
   -0.4284    2.7647    3.4168 H   0  0  0  0  0  0  0  0  0  0  0  0
   -1.5268    1.5885    4.1601 H   0  0  0  0  0  0  0  0  0  0  0  0
    0.2072    1.2358    4.0566 H   0  0  0  0  0  0  0  0  0  0  0  0
  5  6  2  0  0  0  0
  5  7  1  0  0  0  0
  2  3  1  0  0  0  0
  2  4  1  0  0  0  0
  2  5  1  0  0  0  0
  1  2  1  0  0  0  0
 23 24  2  0  0  0  0
 23 25  1  0  0  0  0
 21 22  1  0  0  0  0
 19 20  1  0  0  0  0
 19 21  1  0  0  0  0
 17 18  1  0  0  0  0
 17 19  1  0  0  0  0
 15 16  1  0  0  0  0
 15 17  2  0  0  0  0
 14 15  1  0  0  0  0
 14 21  2  0  0  0  0
 11 12  1  0  0  0  0
 11 13  1  0  0  0  0
 11 14  1  0  0  0  0
  9 10  1  0  0  0  0
  9 11  1  0  0  0  0
  9 23  1  0  0  0  0
  7  8  1  0  0  0  0
  7  9  1  0  0  0  0
 27 28  1  0  0  0  0
 27 29  1  0  0  0  0
 27 30  1  0  0  0  0
 25 26  1  0  0  0  0
 25 27  1  0  0  0  0
M  CHG  1  15   1
M  END
$$$$
default_name
  -OEChem-02102213163D

 30 30  0     1  0  0  0  0  0999 V2000
   -3.5507   -3.2183    1.8116 H   0  0  0  0  0  0  0  0  0  0  0  0
   -3.4597   -2.3913    1.1076 C   0  0  0  0  0  0  0  0  0  0  0  0
   -4.1577   -1.6043    1.3866 H   0  0  0  0  0  0  0  0  0  0  0  0
   -3.6807   -2.7523    0.1036 H   0  0  0  0  0  0  0  0  0  0  0  0
   -2.0477   -1.8543    1.1546 C   0  0  0  0  0  0  0  0  0  0  0  0
   -1.2227   -2.3443    1.9146 O   0  0  0  0  0  0  0  0  0  0  0  0
   -1.7517   -0.8483    0.3266 N   0  0  0  0  0  0  0  0  0  0  0  0
   -2.4847   -0.5123   -0.2804 H   0  0  0  0  0  0  0  0  0  0  0  0
   -0.4117   -0.2463    0.2186 C   0  0  1  0  0  0  0  0  0  0  0  0
    0.2987   -1.0391   -0.0285 H   0  0  0  0  0  0  0  0  0  0  0  0
   -0.4131    0.7505   -0.9636 C   0  0  0  0  0  0  0  0  0  0  0  0
    0.4761    0.5694   -1.5728 H   0  0  0  0  0  0  0  0  0  0  0  0
   -1.2809    0.5502   -1.5957 H   0  0  0  0  0  0  0  0  0  0  0  0
   -0.4435    2.2128   -0.5725 C   0  0  0  0  0  0  0  0  0  0  0  0
    0.6676    3.0033   -0.3512 N   0  3  0  0  0  0  0  0  0  0  0  0
    1.6286    2.6808   -0.4967 H   0  0  0  0  0  0  0  0  0  0  0  0
    0.2500    4.2419   -0.0220 C   0  0  0  0  0  0  0  0  0  0  0  0
    0.8990    5.0874    0.1972 H   0  0  0  0  0  0  0  0  0  0  0  0
   -1.1021    4.2541   -0.0285 N   0  0  0  0  0  0  0  0  0  0  0  0
   -1.6928    5.0550    0.1792 H   0  0  0  0  0  0  0  0  0  0  0  0
   -1.5539    2.9875   -0.3721 C   0  0  0  0  0  0  0  0  0  0  0  0
   -2.5867    2.6636   -0.4671 H   0  0  0  0  0  0  0  0  0  0  0  0
    0.0470    0.3465    1.5629 C   0  0  0  0  0  0  0  0  0  0  0  0
    1.1854    0.1365    1.9846 O   0  0  0  0  0  0  0  0  0  0  0  0
   -0.8551    1.0750    2.2320 N   0  0  0  0  0  0  0  0  0  0  0  0
   -1.7594    1.2031    1.8040 H   0  0  0  0  0  0  0  0  0  0  0  0
   -0.6356    1.6998    3.5400 C   0  0  0  0  0  0  0  0  0  0  0  0
   -0.4284    2.7647    3.4168 H   0  0  0  0  0  0  0  0  0  0  0  0
   -1.5268    1.5885    4.1601 H   0  0  0  0  0  0  0  0  0  0  0  0
    0.2072    1.2358    4.0566 H   0  0  0  0  0  0  0  0  0  0  0  0
  5  6  2  0  0  0  0
  5  7  1  0  0  0  0
  2  3  1  0  0  0  0
  2  4  1  0  0  0  0
  2  5  1  0  0  0  0
  1  2  1  0  0  0  0
 23 24  2  0  0  0  0
 23 25  1  0  0  0  0
 21 22  1  0  0  0  0
 19 20  1  0  0  0  0
 19 21  1  0  0  0  0
 17 18  1  0  0  0  0
 17 19  1  0  0  0  0
 15 16  1  0  0  0  0
 15 17  2  0  0  0  0
 14 15  1  0  0  0  0
 14 21  2  0  0  0  0
 11 12  1  0  0  0  0
 11 13  1  0  0  0  0
 11 14  1  0  0  0  0
  9 10  1  0  0  0  0
  9 11  1  0  0  0  0
  9 23  1  0  0  0  0
  7  8  1  0  0  0  0
  7  9  1  0  0  0  0
 27 28  1  0  0  0  0
 27 29  1  0  0  0  0
 27 30  1  0  0  0  0
 25 26  1  0  0  0  0
 25 27  1  0  0  0  0
M  CHG  1  15   1
M  END
$$$$
default_name
  -OEChem-02102213163D

 30 30  0     1  0  0  0  0  0999 V2000
   -3.5507   -3.2183    1.8116 H   0  0  0  0  0  0  0  0  0  0  0  0
   -3.4597   -2.3913    1.1076 C   0  0  0  0  0  0  0  0  0  0  0  0
   -4.1577   -1.6043    1.3866 H   0  0  0  0  0  0  0  0  0  0  0  0
   -3.6807   -2.7523    0.1036 H   0  0  0  0  0  0  0  0  0  0  0  0
   -2.0477   -1.8543    1.1546 C   0  0  0  0  0  0  0  0  0  0  0  0
   -1.2227   -2.3443    1.9146 O   0  0  0  0  0  0  0  0  0  0  0  0
   -1.7517   -0.8483    0.3266 N   0  0  0  0  0  0  0  0  0  0  0  0
   -2.4847   -0.5123   -0.2804 H   0  0  0  0  0  0  0  0  0  0  0  0
   -0.4117   -0.2463    0.2186 C   0  0  1  0  0  0  0  0  0  0  0  0
    0.2987   -1.0391   -0.0285 H   0  0  0  0  0  0  0  0  0  0  0  0
   -0.4131    0.7505   -0.9636 C   0  0  0  0  0  0  0  0  0  0  0  0
    0.4761    0.5694   -1.5728 H   0  0  0  0  0  0  0  0  0  0  0  0
   -1.2809    0.5502   -1.5957 H   0  0  0  0  0  0  0  0  0  0  0  0
   -0.4435    2.2128   -0.5725 C   0  0  0  0  0  0  0  0  0  0  0  0
    0.6317    3.0781   -0.6335 N   0  3  0  0  0  0  0  0  0  0  0  0
    1.5453    2.8180   -1.0159 H   0  0  0  0  0  0  0  0  0  0  0  0
    0.2269    4.2907   -0.2062 C   0  0  0  0  0  0  0  0  0  0  0  0
    0.8514    5.1802   -0.1536 H   0  0  0  0  0  0  0  0  0  0  0  0
   -1.0816    4.2133    0.1257 N   0  0  0  0  0  0  0  0  0  0  0  0
   -1.6544    4.9761    0.4772 H   0  0  0  0  0  0  0  0  0  0  0  0
   -1.5184    2.9149   -0.0981 C   0  0  0  0  0  0  0  0  0  0  0  0
   -2.5178    2.5221    0.0671 H   0  0  0  0  0  0  0  0  0  0  0  0
    0.0470    0.3465    1.5629 C   0  0  0  0  0  0  0  0  0  0  0  0
    1.1854    0.1365    1.9846 O   0  0  0  0  0  0  0  0  0  0  0  0
   -0.8551    1.0750    2.2320 N   0  0  0  0  0  0  0  0  0  0  0  0
   -1.7594    1.2031    1.8040 H   0  0  0  0  0  0  0  0  0  0  0  0
   -0.6356    1.6998    3.5400 C   0  0  0  0  0  0  0  0  0  0  0  0
   -0.4284    2.7647    3.4168 H   0  0  0  0  0  0  0  0  0  0  0  0
   -1.5268    1.5885    4.1601 H   0  0  0  0  0  0  0  0  0  0  0  0
    0.2072    1.2358    4.0566 H   0  0  0  0  0  0  0  0  0  0  0  0
  5  6  2  0  0  0  0
  5  7  1  0  0  0  0
  2  3  1  0  0  0  0
  2  4  1  0  0  0  0
  2  5  1  0  0  0  0
  1  2  1  0  0  0  0
 23 24  2  0  0  0  0
 23 25  1  0  0  0  0
 21 22  1  0  0  0  0
 19 20  1  0  0  0  0
 19 21  1  0  0  0  0
 17 18  1  0  0  0  0
 17 19  1  0  0  0  0
 15 16  1  0  0  0  0
 15 17  2  0  0  0  0
 14 15  1  0  0  0  0
 14 21  2  0  0  0  0
 11 12  1  0  0  0  0
 11 13  1  0  0  0  0
 11 14  1  0  0  0  0
  9 10  1  0  0  0  0
  9 11  1  0  0  0  0
  9 23  1  0  0  0  0
  7  8  1  0  0  0  0
  7  9  1  0  0  0  0
 27 28  1  0  0  0  0
 27 29  1  0  0  0  0
 27 30  1  0  0  0  0
 25 26  1  0  0  0  0
 25 27  1  0  0  0  0
M  CHG  1  15   1
M  END
$$$$
default_name
  -OEChem-02102213163D

 30 30  0     1  0  0  0  0  0999 V2000
   -3.5507   -3.2183    1.8116 H   0  0  0  0  0  0  0  0  0  0  0  0
   -3.4597   -2.3913    1.1076 C   0  0  0  0  0  0  0  0  0  0  0  0
   -4.1577   -1.6043    1.3866 H   0  0  0  0  0  0  0  0  0  0  0  0
   -3.6807   -2.7523    0.1036 H   0  0  0  0  0  0  0  0  0  0  0  0
   -2.0477   -1.8543    1.1546 C   0  0  0  0  0  0  0  0  0  0  0  0
   -1.2227   -2.3443    1.9146 O   0  0  0  0  0  0  0  0  0  0  0  0
   -1.7517   -0.8483    0.3266 N   0  0  0  0  0  0  0  0  0  0  0  0
   -2.4847   -0.5123   -0.2804 H   0  0  0  0  0  0  0  0  0  0  0  0
   -0.4117   -0.2463    0.2186 C   0  0  1  0  0  0  0  0  0  0  0  0
    0.2987   -1.0391   -0.0285 H   0  0  0  0  0  0  0  0  0  0  0  0
   -0.4131    0.7505   -0.9636 C   0  0  0  0  0  0  0  0  0  0  0  0
    0.4761    0.5694   -1.5728 H   0  0  0  0  0  0  0  0  0  0  0  0
   -1.2809    0.5502   -1.5957 H   0  0  0  0  0  0  0  0  0  0  0  0
   -0.4435    2.2128   -0.5725 C   0  0  0  0  0  0  0  0  0  0  0  0
    0.5214    3.1465   -0.8977 N   0  3  0  0  0  0  0  0  0  0  0  0
    1.3260    2.9422   -1.4973 H   0  0  0  0  0  0  0  0  0  0  0  0
    0.1553    4.3353   -0.3787 C   0  0  0  0  0  0  0  0  0  0  0  0
    0.7116    5.2649   -0.4810 H   0  0  0  0  0  0  0  0  0  0  0  0
   -1.0205    4.1760    0.2697 N   0  0  0  0  0  0  0  0  0  0  0  0
   -1.5375    4.9040    0.7558 H   0  0  0  0  0  0  0  0  0  0  0  0
   -1.4107    2.8487    0.1580 C   0  0  0  0  0  0  0  0  0  0  0  0
   -2.3082    2.3928    0.5667 H   0  0  0  0  0  0  0  0  0  0  0  0
    0.0470    0.3465    1.5629 C   0  0  0  0  0  0  0  0  0  0  0  0
    1.1854    0.1365    1.9846 O   0  0  0  0  0  0  0  0  0  0  0  0
   -0.8551    1.0750    2.2320 N   0  0  0  0  0  0  0  0  0  0  0  0
   -1.7594    1.2031    1.8040 H   0  0  0  0  0  0  0  0  0  0  0  0
   -0.6356    1.6998    3.5400 C   0  0  0  0  0  0  0  0  0  0  0  0
   -0.4284    2.7647    3.4168 H   0  0  0  0  0  0  0  0  0  0  0  0
   -1.5268    1.5885    4.1601 H   0  0  0  0  0  0  0  0  0  0  0  0
    0.2072    1.2358    4.0566 H   0  0  0  0  0  0  0  0  0  0  0  0
  5  6  2  0  0  0  0
  5  7  1  0  0  0  0
  2  3  1  0  0  0  0
  2  4  1  0  0  0  0
  2  5  1  0  0  0  0
  1  2  1  0  0  0  0
 23 24  2  0  0  0  0
 23 25  1  0  0  0  0
 21 22  1  0  0  0  0
 19 20  1  0  0  0  0
 19 21  1  0  0  0  0
 17 18  1  0  0  0  0
 17 19  1  0  0  0  0
 15 16  1  0  0  0  0
 15 17  2  0  0  0  0
 14 15  1  0  0  0  0
 14 21  2  0  0  0  0
 11 12  1  0  0  0  0
 11 13  1  0  0  0  0
 11 14  1  0  0  0  0
  9 10  1  0  0  0  0
  9 11  1  0  0  0  0
  9 23  1  0  0  0  0
  7  8  1  0  0  0  0
  7  9  1  0  0  0  0
 27 28  1  0  0  0  0
 27 29  1  0  0  0  0
 27 30  1  0  0  0  0
 25 26  1  0  0  0  0
 25 27  1  0  0  0  0
M  CHG  1  15   1
M  END
$$$$
default_name
  -OEChem-02102213163D

 30 30  0     1  0  0  0  0  0999 V2000
   -3.5507   -3.2183    1.8116 H   0  0  0  0  0  0  0  0  0  0  0  0
   -3.4597   -2.3913    1.1076 C   0  0  0  0  0  0  0  0  0  0  0  0
   -4.1577   -1.6043    1.3866 H   0  0  0  0  0  0  0  0  0  0  0  0
   -3.6807   -2.7523    0.1036 H   0  0  0  0  0  0  0  0  0  0  0  0
   -2.0477   -1.8543    1.1546 C   0  0  0  0  0  0  0  0  0  0  0  0
   -1.2227   -2.3443    1.9146 O   0  0  0  0  0  0  0  0  0  0  0  0
   -1.7517   -0.8483    0.3266 N   0  0  0  0  0  0  0  0  0  0  0  0
   -2.4847   -0.5123   -0.2804 H   0  0  0  0  0  0  0  0  0  0  0  0
   -0.4117   -0.2463    0.2186 C   0  0  1  0  0  0  0  0  0  0  0  0
    0.2987   -1.0391   -0.0285 H   0  0  0  0  0  0  0  0  0  0  0  0
   -0.4131    0.7505   -0.9636 C   0  0  0  0  0  0  0  0  0  0  0  0
    0.4761    0.5694   -1.5728 H   0  0  0  0  0  0  0  0  0  0  0  0
   -1.2809    0.5502   -1.5957 H   0  0  0  0  0  0  0  0  0  0  0  0
   -0.4435    2.2128   -0.5725 C   0  0  0  0  0  0  0  0  0  0  0  0
    0.3442    3.2038   -1.1256 N   0  3  0  0  0  0  0  0  0  0  0  0
    0.9854    3.0450   -1.9081 H   0  0  0  0  0  0  0  0  0  0  0  0
    0.0399    4.3728   -0.5277 C   0  0  0  0  0  0  0  0  0  0  0  0
    0.4890    5.3356   -0.7628 H   0  0  0  0  0  0  0  0  0  0  0  0
   -0.9231    4.1449    0.3938 N   0  0  0  0  0  0  0  0  0  0  0  0
   -1.3502    4.8436    0.9962 H   0  0  0  0  0  0  0  0  0  0  0  0
   -1.2382    2.7932    0.3788 C   0  0  0  0  0  0  0  0  0  0  0  0
   -1.9723    2.2845    0.9976 H   0  0  0  0  0  0  0  0  0  0  0  0
    0.0470    0.3465    1.5629 C   0  0  0  0  0  0  0  0  0  0  0  0
    1.1854    0.1365    1.9846 O   0  0  0  0  0  0  0  0  0  0  0  0
   -0.8551    1.0750    2.2320 N   0  0  0  0  0  0  0  0  0  0  0  0
   -1.7594    1.2031    1.8040 H   0  0  0  0  0  0  0  0  0  0  0  0
   -0.6356    1.6998    3.5400 C   0  0  0  0  0  0  0  0  0  0  0  0
   -0.4284    2.7647    3.4168 H   0  0  0  0  0  0  0  0  0  0  0  0
   -1.5268    1.5885    4.1601 H   0  0  0  0  0  0  0  0  0  0  0  0
    0.2072    1.2358    4.0566 H   0  0  0  0  0  0  0  0  0  0  0  0
  5  6  2  0  0  0  0
  5  7  1  0  0  0  0
  2  3  1  0  0  0  0
  2  4  1  0  0  0  0
  2  5  1  0  0  0  0
  1  2  1  0  0  0  0
 23 24  2  0  0  0  0
 23 25  1  0  0  0  0
 21 22  1  0  0  0  0
 19 20  1  0  0  0  0
 19 21  1  0  0  0  0
 17 18  1  0  0  0  0
 17 19  1  0  0  0  0
 15 16  1  0  0  0  0
 15 17  2  0  0  0  0
 14 15  1  0  0  0  0
 14 21  2  0  0  0  0
 11 12  1  0  0  0  0
 11 13  1  0  0  0  0
 11 14  1  0  0  0  0
  9 10  1  0  0  0  0
  9 11  1  0  0  0  0
  9 23  1  0  0  0  0
  7  8  1  0  0  0  0
  7  9  1  0  0  0  0
 27 28  1  0  0  0  0
 27 29  1  0  0  0  0
 27 30  1  0  0  0  0
 25 26  1  0  0  0  0
 25 27  1  0  0  0  0
M  CHG  1  15   1
M  END
$$$$
default_name
  -OEChem-02102213163D

 30 30  0     1  0  0  0  0  0999 V2000
   -3.5507   -3.2183    1.8116 H   0  0  0  0  0  0  0  0  0  0  0  0
   -3.4597   -2.3913    1.1076 C   0  0  0  0  0  0  0  0  0  0  0  0
   -4.1577   -1.6043    1.3866 H   0  0  0  0  0  0  0  0  0  0  0  0
   -3.6807   -2.7523    0.1036 H   0  0  0  0  0  0  0  0  0  0  0  0
   -2.0477   -1.8543    1.1546 C   0  0  0  0  0  0  0  0  0  0  0  0
   -1.2227   -2.3443    1.9146 O   0  0  0  0  0  0  0  0  0  0  0  0
   -1.7517   -0.8483    0.3266 N   0  0  0  0  0  0  0  0  0  0  0  0
   -2.4847   -0.5123   -0.2804 H   0  0  0  0  0  0  0  0  0  0  0  0
   -0.4117   -0.2463    0.2186 C   0  0  1  0  0  0  0  0  0  0  0  0
    0.2987   -1.0391   -0.0285 H   0  0  0  0  0  0  0  0  0  0  0  0
   -0.4131    0.7505   -0.9636 C   0  0  0  0  0  0  0  0  0  0  0  0
    0.4761    0.5694   -1.5728 H   0  0  0  0  0  0  0  0  0  0  0  0
   -1.2809    0.5502   -1.5957 H   0  0  0  0  0  0  0  0  0  0  0  0
   -0.4435    2.2128   -0.5725 C   0  0  0  0  0  0  0  0  0  0  0  0
    0.1123    3.2461   -1.3018 N   0  3  0  0  0  0  0  0  0  0  0  0
    0.5469    3.1194   -2.2204 H   0  0  0  0  0  0  0  0  0  0  0  0
   -0.1112    4.4004   -0.6429 C   0  0  0  0  0  0  0  0  0  0  0  0
    0.1988    5.3876   -0.9797 H   0  0  0  0  0  0  0  0  0  0  0  0
   -0.7958    4.1219    0.4894 N   0  0  0  0  0  0  0  0  0  0  0  0
   -1.1051    4.7991    1.1818 H   0  0  0  0  0  0  0  0  0  0  0  0
   -1.0127    2.7523    0.5493 C   0  0  0  0  0  0  0  0  0  0  0  0
   -1.5329    2.2047    1.3303 H   0  0  0  0  0  0  0  0  0  0  0  0
    0.0470    0.3465    1.5629 C   0  0  0  0  0  0  0  0  0  0  0  0
    1.1854    0.1365    1.9846 O   0  0  0  0  0  0  0  0  0  0  0  0
   -0.8551    1.0750    2.2320 N   0  0  0  0  0  0  0  0  0  0  0  0
   -1.7594    1.2031    1.8040 H   0  0  0  0  0  0  0  0  0  0  0  0
   -0.6356    1.6998    3.5400 C   0  0  0  0  0  0  0  0  0  0  0  0
   -0.4284    2.7647    3.4168 H   0  0  0  0  0  0  0  0  0  0  0  0
   -1.5268    1.5885    4.1601 H   0  0  0  0  0  0  0  0  0  0  0  0
    0.2072    1.2358    4.0566 H   0  0  0  0  0  0  0  0  0  0  0  0
  5  6  2  0  0  0  0
  5  7  1  0  0  0  0
  2  3  1  0  0  0  0
  2  4  1  0  0  0  0
  2  5  1  0  0  0  0
  1  2  1  0  0  0  0
 23 24  2  0  0  0  0
 23 25  1  0  0  0  0
 21 22  1  0  0  0  0
 19 20  1  0  0  0  0
 19 21  1  0  0  0  0
 17 18  1  0  0  0  0
 17 19  1  0  0  0  0
 15 16  1  0  0  0  0
 15 17  2  0  0  0  0
 14 15  1  0  0  0  0
 14 21  2  0  0  0  0
 11 12  1  0  0  0  0
 11 13  1  0  0  0  0
 11 14  1  0  0  0  0
  9 10  1  0  0  0  0
  9 11  1  0  0  0  0
  9 23  1  0  0  0  0
  7  8  1  0  0  0  0
  7  9  1  0  0  0  0
 27 28  1  0  0  0  0
 27 29  1  0  0  0  0
 27 30  1  0  0  0  0
 25 26  1  0  0  0  0
 25 27  1  0  0  0  0
M  CHG  1  15   1
M  END
$$$$
default_name
  -OEChem-02102213163D

 30 30  0     1  0  0  0  0  0999 V2000
   -3.5507   -3.2183    1.8116 H   0  0  0  0  0  0  0  0  0  0  0  0
   -3.4597   -2.3913    1.1076 C   0  0  0  0  0  0  0  0  0  0  0  0
   -4.1577   -1.6043    1.3866 H   0  0  0  0  0  0  0  0  0  0  0  0
   -3.6807   -2.7523    0.1036 H   0  0  0  0  0  0  0  0  0  0  0  0
   -2.0477   -1.8543    1.1546 C   0  0  0  0  0  0  0  0  0  0  0  0
   -1.2227   -2.3443    1.9146 O   0  0  0  0  0  0  0  0  0  0  0  0
   -1.7517   -0.8483    0.3266 N   0  0  0  0  0  0  0  0  0  0  0  0
   -2.4847   -0.5123   -0.2804 H   0  0  0  0  0  0  0  0  0  0  0  0
   -0.4117   -0.2463    0.2186 C   0  0  1  0  0  0  0  0  0  0  0  0
    0.2987   -1.0391   -0.0285 H   0  0  0  0  0  0  0  0  0  0  0  0
   -0.4131    0.7505   -0.9636 C   0  0  0  0  0  0  0  0  0  0  0  0
    0.4761    0.5694   -1.5728 H   0  0  0  0  0  0  0  0  0  0  0  0
   -1.2809    0.5502   -1.5957 H   0  0  0  0  0  0  0  0  0  0  0  0
   -0.4435    2.2128   -0.5725 C   0  0  0  0  0  0  0  0  0  0  0  0
   -0.1586    3.2705   -1.4142 N   0  3  0  0  0  0  0  0  0  0  0  0
    0.0403    3.1603   -2.4127 H   0  0  0  0  0  0  0  0  0  0  0  0
   -0.2878    4.4165   -0.7166 C   0  0  0  0  0  0  0  0  0  0  0  0
   -0.1392    5.4173   -1.1169 H   0  0  0  0  0  0  0  0  0  0  0  0
   -0.6475    4.1088    0.5501 N   0  0  0  0  0  0  0  0  0  0  0  0
   -0.8190    4.7734    1.3000 H   0  0  0  0  0  0  0  0  0  0  0  0
   -0.7495    2.7287    0.6578 C   0  0  0  0  0  0  0  0  0  0  0  0
   -1.0199    2.1586    1.5423 H   0  0  0  0  0  0  0  0  0  0  0  0
    0.0470    0.3465    1.5629 C   0  0  0  0  0  0  0  0  0  0  0  0
    1.1854    0.1365    1.9846 O   0  0  0  0  0  0  0  0  0  0  0  0
   -0.8551    1.0750    2.2320 N   0  0  0  0  0  0  0  0  0  0  0  0
   -1.7594    1.2031    1.8040 H   0  0  0  0  0  0  0  0  0  0  0  0
   -0.6356    1.6998    3.5400 C   0  0  0  0  0  0  0  0  0  0  0  0
   -0.4284    2.7647    3.4168 H   0  0  0  0  0  0  0  0  0  0  0  0
   -1.5268    1.5885    4.1601 H   0  0  0  0  0  0  0  0  0  0  0  0
    0.2072    1.2358    4.0566 H   0  0  0  0  0  0  0  0  0  0  0  0
  5  6  2  0  0  0  0
  5  7  1  0  0  0  0
  2  3  1  0  0  0  0
  2  4  1  0  0  0  0
  2  5  1  0  0  0  0
  1  2  1  0  0  0  0
 23 24  2  0  0  0  0
 23 25  1  0  0  0  0
 21 22  1  0  0  0  0
 19 20  1  0  0  0  0
 19 21  1  0  0  0  0
 17 18  1  0  0  0  0
 17 19  1  0  0  0  0
 15 16  1  0  0  0  0
 15 17  2  0  0  0  0
 14 15  1  0  0  0  0
 14 21  2  0  0  0  0
 11 12  1  0  0  0  0
 11 13  1  0  0  0  0
 11 14  1  0  0  0  0
  9 10  1  0  0  0  0
  9 11  1  0  0  0  0
  9 23  1  0  0  0  0
  7  8  1  0  0  0  0
  7  9  1  0  0  0  0
 27 28  1  0  0  0  0
 27 29  1  0  0  0  0
 27 30  1  0  0  0  0
 25 26  1  0  0  0  0
 25 27  1  0  0  0  0
M  CHG  1  15   1
M  END
$$$$
default_name
  -OEChem-02102213163D

 30 30  0     1  0  0  0  0  0999 V2000
   -3.5507   -3.2183    1.8116 H   0  0  0  0  0  0  0  0  0  0  0  0
   -3.4597   -2.3913    1.1076 C   0  0  0  0  0  0  0  0  0  0  0  0
   -4.1577   -1.6043    1.3866 H   0  0  0  0  0  0  0  0  0  0  0  0
   -3.6807   -2.7523    0.1036 H   0  0  0  0  0  0  0  0  0  0  0  0
   -2.0477   -1.8543    1.1546 C   0  0  0  0  0  0  0  0  0  0  0  0
   -1.2227   -2.3443    1.9146 O   0  0  0  0  0  0  0  0  0  0  0  0
   -1.7517   -0.8483    0.3266 N   0  0  0  0  0  0  0  0  0  0  0  0
   -2.4847   -0.5123   -0.2804 H   0  0  0  0  0  0  0  0  0  0  0  0
   -0.4117   -0.2463    0.2186 C   0  0  1  0  0  0  0  0  0  0  0  0
    0.2987   -1.0391   -0.0285 H   0  0  0  0  0  0  0  0  0  0  0  0
   -0.4131    0.7505   -0.9636 C   0  0  0  0  0  0  0  0  0  0  0  0
    0.3084    0.4071   -1.7094 H   0  0  0  0  0  0  0  0  0  0  0  0
   -1.3964    0.7364   -1.4386 H   0  0  0  0  0  0  0  0  0  0  0  0
   -0.0878    2.1832   -0.5978 C   0  0  0  0  0  0  0  0  0  0  0  0
   -0.0312    3.2406   -1.4851 N   0  3  0  0  0  0  0  0  0  0  0  0
   -0.2708    3.1590   -2.4774 H   0  0  0  0  0  0  0  0  0  0  0  0
    0.2870    4.3559   -0.7984 C   0  0  0  0  0  0  0  0  0  0  0  0
    0.3919    5.3505   -1.2270 H   0  0  0  0  0  0  0  0  0  0  0  0
    0.4346    4.0289    0.5054 N   0  0  0  0  0  0  0  0  0  0  0  0
    0.6718    4.6695    1.2582 H   0  0  0  0  0  0  0  0  0  0  0  0
    0.2028    2.6679    0.6488 C   0  0  0  0  0  0  0  0  0  0  0  0
    0.2413    2.0899    1.5679 H   0  0  0  0  0  0  0  0  0  0  0  0
    0.0470    0.3465    1.5629 C   0  0  0  0  0  0  0  0  0  0  0  0
    1.1854    0.1365    1.9846 O   0  0  0  0  0  0  0  0  0  0  0  0
   -0.8551    1.0750    2.2320 N   0  0  0  0  0  0  0  0  0  0  0  0
   -1.7594    1.2031    1.8040 H   0  0  0  0  0  0  0  0  0  0  0  0
   -0.6356    1.6998    3.5400 C   0  0  0  0  0  0  0  0  0  0  0  0
   -0.4284    2.7647    3.4168 H   0  0  0  0  0  0  0  0  0  0  0  0
   -1.5268    1.5885    4.1601 H   0  0  0  0  0  0  0  0  0  0  0  0
    0.2072    1.2358    4.0566 H   0  0  0  0  0  0  0  0  0  0  0  0
  5  6  2  0  0  0  0
  5  7  1  0  0  0  0
  2  3  1  0  0  0  0
  2  4  1  0  0  0  0
  2  5  1  0  0  0  0
  1  2  1  0  0  0  0
 23 24  2  0  0  0  0
 23 25  1  0  0  0  0
 21 22  1  0  0  0  0
 19 20  1  0  0  0  0
 19 21  1  0  0  0  0
 17 18  1  0  0  0  0
 17 19  1  0  0  0  0
 15 16  1  0  0  0  0
 15 17  2  0  0  0  0
 14 15  1  0  0  0  0
 14 21  2  0  0  0  0
 11 12  1  0  0  0  0
 11 13  1  0  0  0  0
 11 14  1  0  0  0  0
  9 10  1  0  0  0  0
  9 11  1  0  0  0  0
  9 23  1  0  0  0  0
  7  8  1  0  0  0  0
  7  9  1  0  0  0  0
 27 28  1  0  0  0  0
 27 29  1  0  0  0  0
 27 30  1  0  0  0  0
 25 26  1  0  0  0  0
 25 27  1  0  0  0  0
M  CHG  1  15   1
M  END
$$$$
default_name
  -OEChem-02102213163D

 30 30  0     1  0  0  0  0  0999 V2000
   -3.5507   -3.2183    1.8116 H   0  0  0  0  0  0  0  0  0  0  0  0
   -3.4597   -2.3913    1.1076 C   0  0  0  0  0  0  0  0  0  0  0  0
   -4.1577   -1.6043    1.3866 H   0  0  0  0  0  0  0  0  0  0  0  0
   -3.6807   -2.7523    0.1036 H   0  0  0  0  0  0  0  0  0  0  0  0
   -2.0477   -1.8543    1.1546 C   0  0  0  0  0  0  0  0  0  0  0  0
   -1.2227   -2.3443    1.9146 O   0  0  0  0  0  0  0  0  0  0  0  0
   -1.7517   -0.8483    0.3266 N   0  0  0  0  0  0  0  0  0  0  0  0
   -2.4847   -0.5123   -0.2804 H   0  0  0  0  0  0  0  0  0  0  0  0
   -0.4117   -0.2463    0.2186 C   0  0  1  0  0  0  0  0  0  0  0  0
    0.2987   -1.0391   -0.0285 H   0  0  0  0  0  0  0  0  0  0  0  0
   -0.4131    0.7505   -0.9636 C   0  0  0  0  0  0  0  0  0  0  0  0
    0.3084    0.4071   -1.7094 H   0  0  0  0  0  0  0  0  0  0  0  0
   -1.3964    0.7364   -1.4386 H   0  0  0  0  0  0  0  0  0  0  0  0
   -0.0878    2.1832   -0.5978 C   0  0  0  0  0  0  0  0  0  0  0  0
   -0.3107    3.2831   -1.4034 N   0  3  0  0  0  0  0  0  0  0  0  0
   -0.7828    3.2327   -2.3107 H   0  0  0  0  0  0  0  0  0  0  0  0
    0.1045    4.3837   -0.7454 C   0  0  0  0  0  0  0  0  0  0  0  0
    0.0450    5.4026   -1.1227 H   0  0  0  0  0  0  0  0  0  0  0  0
    0.5871    4.0059    0.4599 N   0  0  0  0  0  0  0  0  0  0  0  0
    0.9667    4.6247    1.1716 H   0  0  0  0  0  0  0  0  0  0  0  0
    0.4739    2.6268    0.5688 C   0  0  0  0  0  0  0  0  0  0  0  0
    0.7701    2.0096    1.4125 H   0  0  0  0  0  0  0  0  0  0  0  0
    0.0470    0.3465    1.5629 C   0  0  0  0  0  0  0  0  0  0  0  0
    1.1854    0.1365    1.9846 O   0  0  0  0  0  0  0  0  0  0  0  0
   -0.8551    1.0750    2.2320 N   0  0  0  0  0  0  0  0  0  0  0  0
   -1.7594    1.2031    1.8040 H   0  0  0  0  0  0  0  0  0  0  0  0
   -0.6356    1.6998    3.5400 C   0  0  0  0  0  0  0  0  0  0  0  0
   -0.4284    2.7647    3.4168 H   0  0  0  0  0  0  0  0  0  0  0  0
   -1.5268    1.5885    4.1601 H   0  0  0  0  0  0  0  0  0  0  0  0
    0.2072    1.2358    4.0566 H   0  0  0  0  0  0  0  0  0  0  0  0
  5  6  2  0  0  0  0
  5  7  1  0  0  0  0
  2  3  1  0  0  0  0
  2  4  1  0  0  0  0
  2  5  1  0  0  0  0
  1  2  1  0  0  0  0
 23 24  2  0  0  0  0
 23 25  1  0  0  0  0
 21 22  1  0  0  0  0
 19 20  1  0  0  0  0
 19 21  1  0  0  0  0
 17 18  1  0  0  0  0
 17 19  1  0  0  0  0
 15 16  1  0  0  0  0
 15 17  2  0  0  0  0
 14 15  1  0  0  0  0
 14 21  2  0  0  0  0
 11 12  1  0  0  0  0
 11 13  1  0  0  0  0
 11 14  1  0  0  0  0
  9 10  1  0  0  0  0
  9 11  1  0  0  0  0
  9 23  1  0  0  0  0
  7  8  1  0  0  0  0
  7  9  1  0  0  0  0
 27 28  1  0  0  0  0
 27 29  1  0  0  0  0
 27 30  1  0  0  0  0
 25 26  1  0  0  0  0
 25 27  1  0  0  0  0
M  CHG  1  15   1
M  END
$$$$
default_name
  -OEChem-02102213163D

 30 30  0     1  0  0  0  0  0999 V2000
   -3.5507   -3.2183    1.8116 H   0  0  0  0  0  0  0  0  0  0  0  0
   -3.4597   -2.3913    1.1076 C   0  0  0  0  0  0  0  0  0  0  0  0
   -4.1577   -1.6043    1.3866 H   0  0  0  0  0  0  0  0  0  0  0  0
   -3.6807   -2.7523    0.1036 H   0  0  0  0  0  0  0  0  0  0  0  0
   -2.0477   -1.8543    1.1546 C   0  0  0  0  0  0  0  0  0  0  0  0
   -1.2227   -2.3443    1.9146 O   0  0  0  0  0  0  0  0  0  0  0  0
   -1.7517   -0.8483    0.3266 N   0  0  0  0  0  0  0  0  0  0  0  0
   -2.4847   -0.5123   -0.2804 H   0  0  0  0  0  0  0  0  0  0  0  0
   -0.4117   -0.2463    0.2186 C   0  0  1  0  0  0  0  0  0  0  0  0
    0.2987   -1.0391   -0.0285 H   0  0  0  0  0  0  0  0  0  0  0  0
   -0.4131    0.7505   -0.9636 C   0  0  0  0  0  0  0  0  0  0  0  0
    0.3084    0.4071   -1.7094 H   0  0  0  0  0  0  0  0  0  0  0  0
   -1.3964    0.7364   -1.4386 H   0  0  0  0  0  0  0  0  0  0  0  0
   -0.0878    2.1832   -0.5978 C   0  0  0  0  0  0  0  0  0  0  0  0
   -0.5633    3.3023   -1.2536 N   0  3  0  0  0  0  0  0  0  0  0  0
   -1.2411    3.2626   -2.0202 H   0  0  0  0  0  0  0  0  0  0  0  0
   -0.0605    4.3963   -0.6480 C   0  0  0  0  0  0  0  0  0  0  0  0
   -0.2678    5.4255   -0.9341 H   0  0  0  0  0  0  0  0  0  0  0  0
    0.7248    3.9957    0.3774 N   0  0  0  0  0  0  0  0  0  0  0  0
    1.2332    4.6047    1.0131 H   0  0  0  0  0  0  0  0  0  0  0  0
    0.7188    2.6085    0.4229 C   0  0  0  0  0  0  0  0  0  0  0  0
    1.2478    1.9737    1.1284 H   0  0  0  0  0  0  0  0  0  0  0  0
    0.0470    0.3465    1.5629 C   0  0  0  0  0  0  0  0  0  0  0  0
    1.1854    0.1365    1.9846 O   0  0  0  0  0  0  0  0  0  0  0  0
   -0.8551    1.0750    2.2320 N   0  0  0  0  0  0  0  0  0  0  0  0
   -1.7594    1.2031    1.8040 H   0  0  0  0  0  0  0  0  0  0  0  0
   -0.6356    1.6998    3.5400 C   0  0  0  0  0  0  0  0  0  0  0  0
   -0.4284    2.7647    3.4168 H   0  0  0  0  0  0  0  0  0  0  0  0
   -1.5268    1.5885    4.1601 H   0  0  0  0  0  0  0  0  0  0  0  0
    0.2072    1.2358    4.0566 H   0  0  0  0  0  0  0  0  0  0  0  0
  5  6  2  0  0  0  0
  5  7  1  0  0  0  0
  2  3  1  0  0  0  0
  2  4  1  0  0  0  0
  2  5  1  0  0  0  0
  1  2  1  0  0  0  0
 23 24  2  0  0  0  0
 23 25  1  0  0  0  0
 21 22  1  0  0  0  0
 19 20  1  0  0  0  0
 19 21  1  0  0  0  0
 17 18  1  0  0  0  0
 17 19  1  0  0  0  0
 15 16  1  0  0  0  0
 15 17  2  0  0  0  0
 14 15  1  0  0  0  0
 14 21  2  0  0  0  0
 11 12  1  0  0  0  0
 11 13  1  0  0  0  0
 11 14  1  0  0  0  0
  9 10  1  0  0  0  0
  9 11  1  0  0  0  0
  9 23  1  0  0  0  0
  7  8  1  0  0  0  0
  7  9  1  0  0  0  0
 27 28  1  0  0  0  0
 27 29  1  0  0  0  0
 27 30  1  0  0  0  0
 25 26  1  0  0  0  0
 25 27  1  0  0  0  0
M  CHG  1  15   1
M  END
$$$$
default_name
  -OEChem-02102213163D

 30 30  0     1  0  0  0  0  0999 V2000
   -3.5507   -3.2183    1.8116 H   0  0  0  0  0  0  0  0  0  0  0  0
   -3.4597   -2.3913    1.1076 C   0  0  0  0  0  0  0  0  0  0  0  0
   -4.1577   -1.6043    1.3866 H   0  0  0  0  0  0  0  0  0  0  0  0
   -3.6807   -2.7523    0.1036 H   0  0  0  0  0  0  0  0  0  0  0  0
   -2.0477   -1.8543    1.1546 C   0  0  0  0  0  0  0  0  0  0  0  0
   -1.2227   -2.3443    1.9146 O   0  0  0  0  0  0  0  0  0  0  0  0
   -1.7517   -0.8483    0.3266 N   0  0  0  0  0  0  0  0  0  0  0  0
   -2.4847   -0.5123   -0.2804 H   0  0  0  0  0  0  0  0  0  0  0  0
   -0.4117   -0.2463    0.2186 C   0  0  1  0  0  0  0  0  0  0  0  0
    0.2987   -1.0391   -0.0285 H   0  0  0  0  0  0  0  0  0  0  0  0
   -0.4131    0.7505   -0.9636 C   0  0  0  0  0  0  0  0  0  0  0  0
    0.3084    0.4071   -1.7094 H   0  0  0  0  0  0  0  0  0  0  0  0
   -1.3964    0.7364   -1.4386 H   0  0  0  0  0  0  0  0  0  0  0  0
   -0.0878    2.1832   -0.5978 C   0  0  0  0  0  0  0  0  0  0  0  0
   -0.7719    3.2966   -1.0460 N   0  3  0  0  0  0  0  0  0  0  0  0
   -1.6146    3.2466   -1.6258 H   0  0  0  0  0  0  0  0  0  0  0  0
   -0.1968    4.3927   -0.5127 C   0  0  0  0  0  0  0  0  0  0  0  0
   -0.5252    5.4175   -0.6741 H   0  0  0  0  0  0  0  0  0  0  0  0
    0.8382    3.9991    0.2634 N   0  0  0  0  0  0  0  0  0  0  0  0
    1.4530    4.6108    0.7937 H   0  0  0  0  0  0  0  0  0  0  0  0
    0.9207    2.6142    0.2210 C   0  0  0  0  0  0  0  0  0  0  0  0
    1.6418    1.9847    0.7350 H   0  0  0  0  0  0  0  0  0  0  0  0
    0.0470    0.3465    1.5629 C   0  0  0  0  0  0  0  0  0  0  0  0
    1.1854    0.1365    1.9846 O   0  0  0  0  0  0  0  0  0  0  0  0
   -0.8551    1.0750    2.2320 N   0  0  0  0  0  0  0  0  0  0  0  0
   -1.7594    1.2031    1.8040 H   0  0  0  0  0  0  0  0  0  0  0  0
   -0.6356    1.6998    3.5400 C   0  0  0  0  0  0  0  0  0  0  0  0
   -0.4284    2.7647    3.4168 H   0  0  0  0  0  0  0  0  0  0  0  0
   -1.5268    1.5885    4.1601 H   0  0  0  0  0  0  0  0  0  0  0  0
    0.2072    1.2358    4.0566 H   0  0  0  0  0  0  0  0  0  0  0  0
  5  6  2  0  0  0  0
  5  7  1  0  0  0  0
  2  3  1  0  0  0  0
  2  4  1  0  0  0  0
  2  5  1  0  0  0  0
  1  2  1  0  0  0  0
 23 24  2  0  0  0  0
 23 25  1  0  0  0  0
 21 22  1  0  0  0  0
 19 20  1  0  0  0  0
 19 21  1  0  0  0  0
 17 18  1  0  0  0  0
 17 19  1  0  0  0  0
 15 16  1  0  0  0  0
 15 17  2  0  0  0  0
 14 15  1  0  0  0  0
 14 21  2  0  0  0  0
 11 12  1  0  0  0  0
 11 13  1  0  0  0  0
 11 14  1  0  0  0  0
  9 10  1  0  0  0  0
  9 11  1  0  0  0  0
  9 23  1  0  0  0  0
  7  8  1  0  0  0  0
  7  9  1  0  0  0  0
 27 28  1  0  0  0  0
 27 29  1  0  0  0  0
 27 30  1  0  0  0  0
 25 26  1  0  0  0  0
 25 27  1  0  0  0  0
M  CHG  1  15   1
M  END
$$$$
default_name
  -OEChem-02102213163D

 30 30  0     1  0  0  0  0  0999 V2000
   -3.5507   -3.2183    1.8116 H   0  0  0  0  0  0  0  0  0  0  0  0
   -3.4597   -2.3913    1.1076 C   0  0  0  0  0  0  0  0  0  0  0  0
   -4.1577   -1.6043    1.3866 H   0  0  0  0  0  0  0  0  0  0  0  0
   -3.6807   -2.7523    0.1036 H   0  0  0  0  0  0  0  0  0  0  0  0
   -2.0477   -1.8543    1.1546 C   0  0  0  0  0  0  0  0  0  0  0  0
   -1.2227   -2.3443    1.9146 O   0  0  0  0  0  0  0  0  0  0  0  0
   -1.7517   -0.8483    0.3266 N   0  0  0  0  0  0  0  0  0  0  0  0
   -2.4847   -0.5123   -0.2804 H   0  0  0  0  0  0  0  0  0  0  0  0
   -0.4117   -0.2463    0.2186 C   0  0  1  0  0  0  0  0  0  0  0  0
    0.2987   -1.0391   -0.0285 H   0  0  0  0  0  0  0  0  0  0  0  0
   -0.4131    0.7505   -0.9636 C   0  0  0  0  0  0  0  0  0  0  0  0
    0.3084    0.4071   -1.7094 H   0  0  0  0  0  0  0  0  0  0  0  0
   -1.3964    0.7364   -1.4386 H   0  0  0  0  0  0  0  0  0  0  0  0
   -0.0878    2.1832   -0.5978 C   0  0  0  0  0  0  0  0  0  0  0  0
   -0.9221    3.2666   -0.7948 N   0  3  0  0  0  0  0  0  0  0  0  0
   -1.8776    3.1859   -1.1542 H   0  0  0  0  0  0  0  0  0  0  0  0
   -0.2951    4.3732   -0.3489 C   0  0  0  0  0  0  0  0  0  0  0  0
   -0.7097    5.3792   -0.3603 H   0  0  0  0  0  0  0  0  0  0  0  0
    0.9196    4.0158    0.1257 N   0  0  0  0  0  0  0  0  0  0  0  0
    1.6112    4.6427    0.5283 H   0  0  0  0  0  0  0  0  0  0  0  0
    1.0660    2.6436   -0.0232 C   0  0  0  0  0  0  0  0  0  0  0  0
    1.9254    2.0418    0.2590 H   0  0  0  0  0  0  0  0  0  0  0  0
    0.0470    0.3465    1.5629 C   0  0  0  0  0  0  0  0  0  0  0  0
    1.1854    0.1365    1.9846 O   0  0  0  0  0  0  0  0  0  0  0  0
   -0.8551    1.0750    2.2320 N   0  0  0  0  0  0  0  0  0  0  0  0
   -1.7594    1.2031    1.8040 H   0  0  0  0  0  0  0  0  0  0  0  0
   -0.6356    1.6998    3.5400 C   0  0  0  0  0  0  0  0  0  0  0  0
   -0.4284    2.7647    3.4168 H   0  0  0  0  0  0  0  0  0  0  0  0
   -1.5268    1.5885    4.1601 H   0  0  0  0  0  0  0  0  0  0  0  0
    0.2072    1.2358    4.0566 H   0  0  0  0  0  0  0  0  0  0  0  0
  5  6  2  0  0  0  0
  5  7  1  0  0  0  0
  2  3  1  0  0  0  0
  2  4  1  0  0  0  0
  2  5  1  0  0  0  0
  1  2  1  0  0  0  0
 23 24  2  0  0  0  0
 23 25  1  0  0  0  0
 21 22  1  0  0  0  0
 19 20  1  0  0  0  0
 19 21  1  0  0  0  0
 17 18  1  0  0  0  0
 17 19  1  0  0  0  0
 15 16  1  0  0  0  0
 15 17  2  0  0  0  0
 14 15  1  0  0  0  0
 14 21  2  0  0  0  0
 11 12  1  0  0  0  0
 11 13  1  0  0  0  0
 11 14  1  0  0  0  0
  9 10  1  0  0  0  0
  9 11  1  0  0  0  0
  9 23  1  0  0  0  0
  7  8  1  0  0  0  0
  7  9  1  0  0  0  0
 27 28  1  0  0  0  0
 27 29  1  0  0  0  0
 27 30  1  0  0  0  0
 25 26  1  0  0  0  0
 25 27  1  0  0  0  0
M  CHG  1  15   1
M  END
$$$$
default_name
  -OEChem-02102213163D

 30 30  0     1  0  0  0  0  0999 V2000
   -3.5507   -3.2183    1.8116 H   0  0  0  0  0  0  0  0  0  0  0  0
   -3.4597   -2.3913    1.1076 C   0  0  0  0  0  0  0  0  0  0  0  0
   -4.1577   -1.6043    1.3866 H   0  0  0  0  0  0  0  0  0  0  0  0
   -3.6807   -2.7523    0.1036 H   0  0  0  0  0  0  0  0  0  0  0  0
   -2.0477   -1.8543    1.1546 C   0  0  0  0  0  0  0  0  0  0  0  0
   -1.2227   -2.3443    1.9146 O   0  0  0  0  0  0  0  0  0  0  0  0
   -1.7517   -0.8483    0.3266 N   0  0  0  0  0  0  0  0  0  0  0  0
   -2.4847   -0.5123   -0.2804 H   0  0  0  0  0  0  0  0  0  0  0  0
   -0.4117   -0.2463    0.2186 C   0  0  1  0  0  0  0  0  0  0  0  0
    0.2987   -1.0391   -0.0285 H   0  0  0  0  0  0  0  0  0  0  0  0
   -0.4131    0.7505   -0.9636 C   0  0  0  0  0  0  0  0  0  0  0  0
    0.3084    0.4071   -1.7094 H   0  0  0  0  0  0  0  0  0  0  0  0
   -1.3964    0.7364   -1.4386 H   0  0  0  0  0  0  0  0  0  0  0  0
   -0.0878    2.1832   -0.5978 C   0  0  0  0  0  0  0  0  0  0  0  0
   -1.0038    3.2142   -0.5169 N   0  3  0  0  0  0  0  0  0  0  0  0
   -2.0125    3.0846   -0.6376 H   0  0  0  0  0  0  0  0  0  0  0  0
   -0.3487    4.3391   -0.1677 C   0  0  0  0  0  0  0  0  0  0  0  0
   -0.8086    5.3133   -0.0141 H   0  0  0  0  0  0  0  0  0  0  0  0
    0.9634    4.0446   -0.0263 N   0  0  0  0  0  0  0  0  0  0  0  0
    1.6971    4.6981    0.2349 H   0  0  0  0  0  0  0  0  0  0  0  0
    1.1446    2.6946   -0.2930 C   0  0  0  0  0  0  0  0  0  0  0  0
    2.0793    2.1412   -0.2670 H   0  0  0  0  0  0  0  0  0  0  0  0
    0.0470    0.3465    1.5629 C   0  0  0  0  0  0  0  0  0  0  0  0
    1.1854    0.1365    1.9846 O   0  0  0  0  0  0  0  0  0  0  0  0
   -0.8551    1.0750    2.2320 N   0  0  0  0  0  0  0  0  0  0  0  0
   -1.7594    1.2031    1.8040 H   0  0  0  0  0  0  0  0  0  0  0  0
   -0.6356    1.6998    3.5400 C   0  0  0  0  0  0  0  0  0  0  0  0
   -0.4284    2.7647    3.4168 H   0  0  0  0  0  0  0  0  0  0  0  0
   -1.5268    1.5885    4.1601 H   0  0  0  0  0  0  0  0  0  0  0  0
    0.2072    1.2358    4.0566 H   0  0  0  0  0  0  0  0  0  0  0  0
  5  6  2  0  0  0  0
  5  7  1  0  0  0  0
  2  3  1  0  0  0  0
  2  4  1  0  0  0  0
  2  5  1  0  0  0  0
  1  2  1  0  0  0  0
 23 24  2  0  0  0  0
 23 25  1  0  0  0  0
 21 22  1  0  0  0  0
 19 20  1  0  0  0  0
 19 21  1  0  0  0  0
 17 18  1  0  0  0  0
 17 19  1  0  0  0  0
 15 16  1  0  0  0  0
 15 17  2  0  0  0  0
 14 15  1  0  0  0  0
 14 21  2  0  0  0  0
 11 12  1  0  0  0  0
 11 13  1  0  0  0  0
 11 14  1  0  0  0  0
  9 10  1  0  0  0  0
  9 11  1  0  0  0  0
  9 23  1  0  0  0  0
  7  8  1  0  0  0  0
  7  9  1  0  0  0  0
 27 28  1  0  0  0  0
 27 29  1  0  0  0  0
 27 30  1  0  0  0  0
 25 26  1  0  0  0  0
 25 27  1  0  0  0  0
M  CHG  1  15   1
M  END
$$$$
default_name
  -OEChem-02102213163D

 30 30  0     1  0  0  0  0  0999 V2000
   -3.5507   -3.2183    1.8116 H   0  0  0  0  0  0  0  0  0  0  0  0
   -3.4597   -2.3913    1.1076 C   0  0  0  0  0  0  0  0  0  0  0  0
   -4.1577   -1.6043    1.3866 H   0  0  0  0  0  0  0  0  0  0  0  0
   -3.6807   -2.7523    0.1036 H   0  0  0  0  0  0  0  0  0  0  0  0
   -2.0477   -1.8543    1.1546 C   0  0  0  0  0  0  0  0  0  0  0  0
   -1.2227   -2.3443    1.9146 O   0  0  0  0  0  0  0  0  0  0  0  0
   -1.7517   -0.8483    0.3266 N   0  0  0  0  0  0  0  0  0  0  0  0
   -2.4847   -0.5123   -0.2804 H   0  0  0  0  0  0  0  0  0  0  0  0
   -0.4117   -0.2463    0.2186 C   0  0  1  0  0  0  0  0  0  0  0  0
    0.2987   -1.0391   -0.0285 H   0  0  0  0  0  0  0  0  0  0  0  0
   -0.4131    0.7505   -0.9636 C   0  0  0  0  0  0  0  0  0  0  0  0
    0.3084    0.4071   -1.7094 H   0  0  0  0  0  0  0  0  0  0  0  0
   -1.3964    0.7364   -1.4386 H   0  0  0  0  0  0  0  0  0  0  0  0
   -0.0878    2.1832   -0.5978 C   0  0  0  0  0  0  0  0  0  0  0  0
   -1.0114    3.1430   -0.2315 N   0  3  0  0  0  0  0  0  0  0  0  0
   -2.0098    2.9496   -0.1112 H   0  0  0  0  0  0  0  0  0  0  0  0
   -0.3540    4.2928    0.0186 C   0  0  0  0  0  0  0  0  0  0  0  0
   -0.8152    5.2242    0.3408 H   0  0  0  0  0  0  0  0  0  0  0  0
    0.9667    4.0837   -0.1823 N   0  0  0  0  0  0  0  0  0  0  0  0
    1.7046    4.7733   -0.0664 H   0  0  0  0  0  0  0  0  0  0  0  0
    1.1513    2.7638   -0.5701 C   0  0  0  0  0  0  0  0  0  0  0  0
    2.0928    2.2760   -0.8072 H   0  0  0  0  0  0  0  0  0  0  0  0
    0.0470    0.3465    1.5629 C   0  0  0  0  0  0  0  0  0  0  0  0
    1.1854    0.1365    1.9846 O   0  0  0  0  0  0  0  0  0  0  0  0
   -0.8551    1.0750    2.2320 N   0  0  0  0  0  0  0  0  0  0  0  0
   -1.7594    1.2031    1.8040 H   0  0  0  0  0  0  0  0  0  0  0  0
   -0.6356    1.6998    3.5400 C   0  0  0  0  0  0  0  0  0  0  0  0
   -0.4284    2.7647    3.4168 H   0  0  0  0  0  0  0  0  0  0  0  0
   -1.5268    1.5885    4.1601 H   0  0  0  0  0  0  0  0  0  0  0  0
    0.2072    1.2358    4.0566 H   0  0  0  0  0  0  0  0  0  0  0  0
  5  6  2  0  0  0  0
  5  7  1  0  0  0  0
  2  3  1  0  0  0  0
  2  4  1  0  0  0  0
  2  5  1  0  0  0  0
  1  2  1  0  0  0  0
 23 24  2  0  0  0  0
 23 25  1  0  0  0  0
 21 22  1  0  0  0  0
 19 20  1  0  0  0  0
 19 21  1  0  0  0  0
 17 18  1  0  0  0  0
 17 19  1  0  0  0  0
 15 16  1  0  0  0  0
 15 17  2  0  0  0  0
 14 15  1  0  0  0  0
 14 21  2  0  0  0  0
 11 12  1  0  0  0  0
 11 13  1  0  0  0  0
 11 14  1  0  0  0  0
  9 10  1  0  0  0  0
  9 11  1  0  0  0  0
  9 23  1  0  0  0  0
  7  8  1  0  0  0  0
  7  9  1  0  0  0  0
 27 28  1  0  0  0  0
 27 29  1  0  0  0  0
 27 30  1  0  0  0  0
 25 26  1  0  0  0  0
 25 27  1  0  0  0  0
M  CHG  1  15   1
M  END
$$$$
default_name
  -OEChem-02102213163D

 30 30  0     1  0  0  0  0  0999 V2000
   -3.5507   -3.2183    1.8116 H   0  0  0  0  0  0  0  0  0  0  0  0
   -3.4597   -2.3913    1.1076 C   0  0  0  0  0  0  0  0  0  0  0  0
   -4.1577   -1.6043    1.3866 H   0  0  0  0  0  0  0  0  0  0  0  0
   -3.6807   -2.7523    0.1036 H   0  0  0  0  0  0  0  0  0  0  0  0
   -2.0477   -1.8543    1.1546 C   0  0  0  0  0  0  0  0  0  0  0  0
   -1.2227   -2.3443    1.9146 O   0  0  0  0  0  0  0  0  0  0  0  0
   -1.7517   -0.8483    0.3266 N   0  0  0  0  0  0  0  0  0  0  0  0
   -2.4847   -0.5123   -0.2804 H   0  0  0  0  0  0  0  0  0  0  0  0
   -0.4117   -0.2463    0.2186 C   0  0  1  0  0  0  0  0  0  0  0  0
    0.2987   -1.0391   -0.0285 H   0  0  0  0  0  0  0  0  0  0  0  0
   -0.4131    0.7505   -0.9636 C   0  0  0  0  0  0  0  0  0  0  0  0
    0.3084    0.4071   -1.7094 H   0  0  0  0  0  0  0  0  0  0  0  0
   -1.3964    0.7364   -1.4386 H   0  0  0  0  0  0  0  0  0  0  0  0
   -0.0878    2.1832   -0.5978 C   0  0  0  0  0  0  0  0  0  0  0  0
   -0.9444    3.0579    0.0422 N   0  3  0  0  0  0  0  0  0  0  0  0
   -1.8699    2.7901    0.3891 H   0  0  0  0  0  0  0  0  0  0  0  0
   -0.3106    4.2373    0.1972 C   0  0  0  0  0  0  0  0  0  0  0  0
   -0.7291    5.1180    0.6803 H   0  0  0  0  0  0  0  0  0  0  0  0
    0.9293    4.1303   -0.3316 N   0  0  0  0  0  0  0  0  0  0  0  0
    1.6334    4.8632   -0.3552 H   0  0  0  0  0  0  0  0  0  0  0  0
    1.0856    2.8465   -0.8355 C   0  0  0  0  0  0  0  0  0  0  0  0
    1.9651    2.4372   -1.3248 H   0  0  0  0  0  0  0  0  0  0  0  0
    0.0470    0.3465    1.5629 C   0  0  0  0  0  0  0  0  0  0  0  0
    1.1854    0.1365    1.9846 O   0  0  0  0  0  0  0  0  0  0  0  0
   -0.8551    1.0750    2.2320 N   0  0  0  0  0  0  0  0  0  0  0  0
   -1.7594    1.2031    1.8040 H   0  0  0  0  0  0  0  0  0  0  0  0
   -0.6356    1.6998    3.5400 C   0  0  0  0  0  0  0  0  0  0  0  0
   -0.4284    2.7647    3.4168 H   0  0  0  0  0  0  0  0  0  0  0  0
   -1.5268    1.5885    4.1601 H   0  0  0  0  0  0  0  0  0  0  0  0
    0.2072    1.2358    4.0566 H   0  0  0  0  0  0  0  0  0  0  0  0
  5  6  2  0  0  0  0
  5  7  1  0  0  0  0
  2  3  1  0  0  0  0
  2  4  1  0  0  0  0
  2  5  1  0  0  0  0
  1  2  1  0  0  0  0
 23 24  2  0  0  0  0
 23 25  1  0  0  0  0
 21 22  1  0  0  0  0
 19 20  1  0  0  0  0
 19 21  1  0  0  0  0
 17 18  1  0  0  0  0
 17 19  1  0  0  0  0
 15 16  1  0  0  0  0
 15 17  2  0  0  0  0
 14 15  1  0  0  0  0
 14 21  2  0  0  0  0
 11 12  1  0  0  0  0
 11 13  1  0  0  0  0
 11 14  1  0  0  0  0
  9 10  1  0  0  0  0
  9 11  1  0  0  0  0
  9 23  1  0  0  0  0
  7  8  1  0  0  0  0
  7  9  1  0  0  0  0
 27 28  1  0  0  0  0
 27 29  1  0  0  0  0
 27 30  1  0  0  0  0
 25 26  1  0  0  0  0
 25 27  1  0  0  0  0
M  CHG  1  15   1
M  END
$$$$
default_name
  -OEChem-02102213163D

 30 30  0     1  0  0  0  0  0999 V2000
   -3.5507   -3.2183    1.8116 H   0  0  0  0  0  0  0  0  0  0  0  0
   -3.4597   -2.3913    1.1076 C   0  0  0  0  0  0  0  0  0  0  0  0
   -4.1577   -1.6043    1.3866 H   0  0  0  0  0  0  0  0  0  0  0  0
   -3.6807   -2.7523    0.1036 H   0  0  0  0  0  0  0  0  0  0  0  0
   -2.0477   -1.8543    1.1546 C   0  0  0  0  0  0  0  0  0  0  0  0
   -1.2227   -2.3443    1.9146 O   0  0  0  0  0  0  0  0  0  0  0  0
   -1.7517   -0.8483    0.3266 N   0  0  0  0  0  0  0  0  0  0  0  0
   -2.4847   -0.5123   -0.2804 H   0  0  0  0  0  0  0  0  0  0  0  0
   -0.4117   -0.2463    0.2186 C   0  0  1  0  0  0  0  0  0  0  0  0
    0.2987   -1.0391   -0.0285 H   0  0  0  0  0  0  0  0  0  0  0  0
   -0.4131    0.7505   -0.9636 C   0  0  0  0  0  0  0  0  0  0  0  0
    0.3084    0.4071   -1.7094 H   0  0  0  0  0  0  0  0  0  0  0  0
   -1.3964    0.7364   -1.4386 H   0  0  0  0  0  0  0  0  0  0  0  0
   -0.0878    2.1832   -0.5978 C   0  0  0  0  0  0  0  0  0  0  0  0
   -0.8073    2.9647    0.2854 N   0  3  0  0  0  0  0  0  0  0  0  0
   -1.6023    2.6170    0.8293 H   0  0  0  0  0  0  0  0  0  0  0  0
   -0.2214    4.1765    0.3561 C   0  0  0  0  0  0  0  0  0  0  0  0
   -0.5561    5.0019    0.9812 H   0  0  0  0  0  0  0  0  0  0  0  0
    0.8536    4.1813   -0.4640 N   0  0  0  0  0  0  0  0  0  0  0  0
    1.4883    4.9616   -0.6116 H   0  0  0  0  0  0  0  0  0  0  0  0
    0.9520    2.9370   -1.0712 C   0  0  0  0  0  0  0  0  0  0  0  0
    1.7049    2.6136   -1.7846 H   0  0  0  0  0  0  0  0  0  0  0  0
    0.0470    0.3465    1.5629 C   0  0  0  0  0  0  0  0  0  0  0  0
    1.1854    0.1365    1.9846 O   0  0  0  0  0  0  0  0  0  0  0  0
   -0.8551    1.0750    2.2320 N   0  0  0  0  0  0  0  0  0  0  0  0
   -1.7594    1.2031    1.8040 H   0  0  0  0  0  0  0  0  0  0  0  0
   -0.6356    1.6998    3.5400 C   0  0  0  0  0  0  0  0  0  0  0  0
   -0.4284    2.7647    3.4168 H   0  0  0  0  0  0  0  0  0  0  0  0
   -1.5268    1.5885    4.1601 H   0  0  0  0  0  0  0  0  0  0  0  0
    0.2072    1.2358    4.0566 H   0  0  0  0  0  0  0  0  0  0  0  0
  5  6  2  0  0  0  0
  5  7  1  0  0  0  0
  2  3  1  0  0  0  0
  2  4  1  0  0  0  0
  2  5  1  0  0  0  0
  1  2  1  0  0  0  0
 23 24  2  0  0  0  0
 23 25  1  0  0  0  0
 21 22  1  0  0  0  0
 19 20  1  0  0  0  0
 19 21  1  0  0  0  0
 17 18  1  0  0  0  0
 17 19  1  0  0  0  0
 15 16  1  0  0  0  0
 15 17  2  0  0  0  0
 14 15  1  0  0  0  0
 14 21  2  0  0  0  0
 11 12  1  0  0  0  0
 11 13  1  0  0  0  0
 11 14  1  0  0  0  0
  9 10  1  0  0  0  0
  9 11  1  0  0  0  0
  9 23  1  0  0  0  0
  7  8  1  0  0  0  0
  7  9  1  0  0  0  0
 27 28  1  0  0  0  0
 27 29  1  0  0  0  0
 27 30  1  0  0  0  0
 25 26  1  0  0  0  0
 25 27  1  0  0  0  0
M  CHG  1  15   1
M  END
$$$$
default_name
  -OEChem-02102213163D

 30 30  0     1  0  0  0  0  0999 V2000
   -3.5507   -3.2183    1.8116 H   0  0  0  0  0  0  0  0  0  0  0  0
   -3.4597   -2.3913    1.1076 C   0  0  0  0  0  0  0  0  0  0  0  0
   -4.1577   -1.6043    1.3866 H   0  0  0  0  0  0  0  0  0  0  0  0
   -3.6807   -2.7523    0.1036 H   0  0  0  0  0  0  0  0  0  0  0  0
   -2.0477   -1.8543    1.1546 C   0  0  0  0  0  0  0  0  0  0  0  0
   -1.2227   -2.3443    1.9146 O   0  0  0  0  0  0  0  0  0  0  0  0
   -1.7517   -0.8483    0.3266 N   0  0  0  0  0  0  0  0  0  0  0  0
   -2.4847   -0.5123   -0.2804 H   0  0  0  0  0  0  0  0  0  0  0  0
   -0.4117   -0.2463    0.2186 C   0  0  1  0  0  0  0  0  0  0  0  0
    0.2987   -1.0391   -0.0285 H   0  0  0  0  0  0  0  0  0  0  0  0
   -0.4131    0.7505   -0.9636 C   0  0  0  0  0  0  0  0  0  0  0  0
    0.3084    0.4071   -1.7094 H   0  0  0  0  0  0  0  0  0  0  0  0
   -1.3964    0.7364   -1.4386 H   0  0  0  0  0  0  0  0  0  0  0  0
   -0.0878    2.1832   -0.5978 C   0  0  0  0  0  0  0  0  0  0  0  0
   -0.6095    2.8697    0.4815 N   0  3  0  0  0  0  0  0  0  0  0  0
   -1.2251    2.4421    1.1792 H   0  0  0  0  0  0  0  0  0  0  0  0
   -0.0926    4.1145    0.4843 C   0  0  0  0  0  0  0  0  0  0  0  0
   -0.3081    4.8838    1.2231 H   0  0  0  0  0  0  0  0  0  0  0  0
    0.7450    4.2332   -0.5706 N   0  0  0  0  0  0  0  0  0  0  0  0
    1.2792    5.0618   -0.8183 H   0  0  0  0  0  0  0  0  0  0  0  0
    0.7595    3.0292   -1.2610 C   0  0  0  0  0  0  0  0  0  0  0  0
    1.3300    2.7933   -2.1551 H   0  0  0  0  0  0  0  0  0  0  0  0
    0.0470    0.3465    1.5629 C   0  0  0  0  0  0  0  0  0  0  0  0
    1.1854    0.1365    1.9846 O   0  0  0  0  0  0  0  0  0  0  0  0
   -0.8551    1.0750    2.2320 N   0  0  0  0  0  0  0  0  0  0  0  0
   -1.7594    1.2031    1.8040 H   0  0  0  0  0  0  0  0  0  0  0  0
   -0.6356    1.6998    3.5400 C   0  0  0  0  0  0  0  0  0  0  0  0
   -0.4284    2.7647    3.4168 H   0  0  0  0  0  0  0  0  0  0  0  0
   -1.5268    1.5885    4.1601 H   0  0  0  0  0  0  0  0  0  0  0  0
    0.2072    1.2358    4.0566 H   0  0  0  0  0  0  0  0  0  0  0  0
  5  6  2  0  0  0  0
  5  7  1  0  0  0  0
  2  3  1  0  0  0  0
  2  4  1  0  0  0  0
  2  5  1  0  0  0  0
  1  2  1  0  0  0  0
 23 24  2  0  0  0  0
 23 25  1  0  0  0  0
 21 22  1  0  0  0  0
 19 20  1  0  0  0  0
 19 21  1  0  0  0  0
 17 18  1  0  0  0  0
 17 19  1  0  0  0  0
 15 16  1  0  0  0  0
 15 17  2  0  0  0  0
 14 15  1  0  0  0  0
 14 21  2  0  0  0  0
 11 12  1  0  0  0  0
 11 13  1  0  0  0  0
 11 14  1  0  0  0  0
  9 10  1  0  0  0  0
  9 11  1  0  0  0  0
  9 23  1  0  0  0  0
  7  8  1  0  0  0  0
  7  9  1  0  0  0  0
 27 28  1  0  0  0  0
 27 29  1  0  0  0  0
 27 30  1  0  0  0  0
 25 26  1  0  0  0  0
 25 27  1  0  0  0  0
M  CHG  1  15   1
M  END
$$$$
default_name
  -OEChem-02102213163D

 30 30  0     1  0  0  0  0  0999 V2000
   -3.5507   -3.2183    1.8116 H   0  0  0  0  0  0  0  0  0  0  0  0
   -3.4597   -2.3913    1.1076 C   0  0  0  0  0  0  0  0  0  0  0  0
   -4.1577   -1.6043    1.3866 H   0  0  0  0  0  0  0  0  0  0  0  0
   -3.6807   -2.7523    0.1036 H   0  0  0  0  0  0  0  0  0  0  0  0
   -2.0477   -1.8543    1.1546 C   0  0  0  0  0  0  0  0  0  0  0  0
   -1.2227   -2.3443    1.9146 O   0  0  0  0  0  0  0  0  0  0  0  0
   -1.7517   -0.8483    0.3266 N   0  0  0  0  0  0  0  0  0  0  0  0
   -2.4847   -0.5123   -0.2804 H   0  0  0  0  0  0  0  0  0  0  0  0
   -0.4117   -0.2463    0.2186 C   0  0  1  0  0  0  0  0  0  0  0  0
    0.2987   -1.0391   -0.0285 H   0  0  0  0  0  0  0  0  0  0  0  0
   -0.4131    0.7505   -0.9636 C   0  0  0  0  0  0  0  0  0  0  0  0
    0.3084    0.4071   -1.7094 H   0  0  0  0  0  0  0  0  0  0  0  0
   -1.3964    0.7364   -1.4386 H   0  0  0  0  0  0  0  0  0  0  0  0
   -0.0878    2.1832   -0.5978 C   0  0  0  0  0  0  0  0  0  0  0  0
   -0.3644    2.7795    0.6172 N   0  3  0  0  0  0  0  0  0  0  0  0
   -0.7642    2.2772    1.4151 H   0  0  0  0  0  0  0  0  0  0  0  0
    0.0671    4.0556    0.5732 C   0  0  0  0  0  0  0  0  0  0  0  0
   -0.0019    4.7719    1.3894 H   0  0  0  0  0  0  0  0  0  0  0  0
    0.6106    4.2824   -0.6440 N   0  0  0  0  0  0  0  0  0  0  0  0
    1.0203    5.1571   -0.9612 H   0  0  0  0  0  0  0  0  0  0  0  0
    0.5213    3.1167   -1.3922 C   0  0  0  0  0  0  0  0  0  0  0  0
    0.8658    2.9641   -2.4112 H   0  0  0  0  0  0  0  0  0  0  0  0
    0.0470    0.3465    1.5629 C   0  0  0  0  0  0  0  0  0  0  0  0
    1.1854    0.1365    1.9846 O   0  0  0  0  0  0  0  0  0  0  0  0
   -0.8551    1.0750    2.2320 N   0  0  0  0  0  0  0  0  0  0  0  0
   -1.7594    1.2031    1.8040 H   0  0  0  0  0  0  0  0  0  0  0  0
   -0.6356    1.6998    3.5400 C   0  0  0  0  0  0  0  0  0  0  0  0
   -0.4284    2.7647    3.4168 H   0  0  0  0  0  0  0  0  0  0  0  0
   -1.5268    1.5885    4.1601 H   0  0  0  0  0  0  0  0  0  0  0  0
    0.2072    1.2358    4.0566 H   0  0  0  0  0  0  0  0  0  0  0  0
  5  6  2  0  0  0  0
  5  7  1  0  0  0  0
  2  3  1  0  0  0  0
  2  4  1  0  0  0  0
  2  5  1  0  0  0  0
  1  2  1  0  0  0  0
 23 24  2  0  0  0  0
 23 25  1  0  0  0  0
 21 22  1  0  0  0  0
 19 20  1  0  0  0  0
 19 21  1  0  0  0  0
 17 18  1  0  0  0  0
 17 19  1  0  0  0  0
 15 16  1  0  0  0  0
 15 17  2  0  0  0  0
 14 15  1  0  0  0  0
 14 21  2  0  0  0  0
 11 12  1  0  0  0  0
 11 13  1  0  0  0  0
 11 14  1  0  0  0  0
  9 10  1  0  0  0  0
  9 11  1  0  0  0  0
  9 23  1  0  0  0  0
  7  8  1  0  0  0  0
  7  9  1  0  0  0  0
 27 28  1  0  0  0  0
 27 29  1  0  0  0  0
 27 30  1  0  0  0  0
 25 26  1  0  0  0  0
 25 27  1  0  0  0  0
M  CHG  1  15   1
M  END
$$$$
default_name
  -OEChem-02102213163D

 30 30  0     1  0  0  0  0  0999 V2000
   -3.5507   -3.2183    1.8116 H   0  0  0  0  0  0  0  0  0  0  0  0
   -3.4597   -2.3913    1.1076 C   0  0  0  0  0  0  0  0  0  0  0  0
   -4.1577   -1.6043    1.3866 H   0  0  0  0  0  0  0  0  0  0  0  0
   -3.6807   -2.7523    0.1036 H   0  0  0  0  0  0  0  0  0  0  0  0
   -2.0477   -1.8543    1.1546 C   0  0  0  0  0  0  0  0  0  0  0  0
   -1.2227   -2.3443    1.9146 O   0  0  0  0  0  0  0  0  0  0  0  0
   -1.7517   -0.8483    0.3266 N   0  0  0  0  0  0  0  0  0  0  0  0
   -2.4847   -0.5123   -0.2804 H   0  0  0  0  0  0  0  0  0  0  0  0
   -0.4117   -0.2463    0.2186 C   0  0  1  0  0  0  0  0  0  0  0  0
    0.2987   -1.0391   -0.0285 H   0  0  0  0  0  0  0  0  0  0  0  0
   -0.4131    0.7505   -0.9636 C   0  0  0  0  0  0  0  0  0  0  0  0
    0.3084    0.4071   -1.7094 H   0  0  0  0  0  0  0  0  0  0  0  0
   -1.3964    0.7364   -1.4386 H   0  0  0  0  0  0  0  0  0  0  0  0
   -0.0878    2.1832   -0.5978 C   0  0  0  0  0  0  0  0  0  0  0  0
   -0.0889    2.7001    0.6833 N   0  3  0  0  0  0  0  0  0  0  0  0
   -0.2508    2.1337    1.5209 H   0  0  0  0  0  0  0  0  0  0  0  0
    0.2468    4.0037    0.6166 C   0  0  0  0  0  0  0  0  0  0  0  0
    0.3416    4.6736    1.4688 H   0  0  0  0  0  0  0  0  0  0  0  0
    0.4598    4.3257   -0.6793 N   0  0  0  0  0  0  0  0  0  0  0  0
    0.7293    5.2408   -1.0305 H   0  0  0  0  0  0  0  0  0  0  0  0
    0.2537    3.1937   -1.4556 C   0  0  0  0  0  0  0  0  0  0  0  0
    0.3440    3.1142   -2.5354 H   0  0  0  0  0  0  0  0  0  0  0  0
    0.0470    0.3465    1.5629 C   0  0  0  0  0  0  0  0  0  0  0  0
    1.1854    0.1365    1.9846 O   0  0  0  0  0  0  0  0  0  0  0  0
   -0.8551    1.0750    2.2320 N   0  0  0  0  0  0  0  0  0  0  0  0
   -1.7594    1.2031    1.8040 H   0  0  0  0  0  0  0  0  0  0  0  0
   -0.6356    1.6998    3.5400 C   0  0  0  0  0  0  0  0  0  0  0  0
   -0.4284    2.7647    3.4168 H   0  0  0  0  0  0  0  0  0  0  0  0
   -1.5268    1.5885    4.1601 H   0  0  0  0  0  0  0  0  0  0  0  0
    0.2072    1.2358    4.0566 H   0  0  0  0  0  0  0  0  0  0  0  0
  5  6  2  0  0  0  0
  5  7  1  0  0  0  0
  2  3  1  0  0  0  0
  2  4  1  0  0  0  0
  2  5  1  0  0  0  0
  1  2  1  0  0  0  0
 23 24  2  0  0  0  0
 23 25  1  0  0  0  0
 21 22  1  0  0  0  0
 19 20  1  0  0  0  0
 19 21  1  0  0  0  0
 17 18  1  0  0  0  0
 17 19  1  0  0  0  0
 15 16  1  0  0  0  0
 15 17  2  0  0  0  0
 14 15  1  0  0  0  0
 14 21  2  0  0  0  0
 11 12  1  0  0  0  0
 11 13  1  0  0  0  0
 11 14  1  0  0  0  0
  9 10  1  0  0  0  0
  9 11  1  0  0  0  0
  9 23  1  0  0  0  0
  7  8  1  0  0  0  0
  7  9  1  0  0  0  0
 27 28  1  0  0  0  0
 27 29  1  0  0  0  0
 27 30  1  0  0  0  0
 25 26  1  0  0  0  0
 25 27  1  0  0  0  0
M  CHG  1  15   1
M  END
$$$$
default_name
  -OEChem-02102213163D

 30 30  0     1  0  0  0  0  0999 V2000
   -3.5507   -3.2183    1.8116 H   0  0  0  0  0  0  0  0  0  0  0  0
   -3.4597   -2.3913    1.1076 C   0  0  0  0  0  0  0  0  0  0  0  0
   -4.1577   -1.6043    1.3866 H   0  0  0  0  0  0  0  0  0  0  0  0
   -3.6807   -2.7523    0.1036 H   0  0  0  0  0  0  0  0  0  0  0  0
   -2.0477   -1.8543    1.1546 C   0  0  0  0  0  0  0  0  0  0  0  0
   -1.2227   -2.3443    1.9146 O   0  0  0  0  0  0  0  0  0  0  0  0
   -1.7517   -0.8483    0.3266 N   0  0  0  0  0  0  0  0  0  0  0  0
   -2.4847   -0.5123   -0.2804 H   0  0  0  0  0  0  0  0  0  0  0  0
   -0.4117   -0.2463    0.2186 C   0  0  1  0  0  0  0  0  0  0  0  0
    0.2987   -1.0391   -0.0285 H   0  0  0  0  0  0  0  0  0  0  0  0
   -0.4131    0.7505   -0.9636 C   0  0  0  0  0  0  0  0  0  0  0  0
    0.3084    0.4071   -1.7094 H   0  0  0  0  0  0  0  0  0  0  0  0
   -1.3964    0.7364   -1.4386 H   0  0  0  0  0  0  0  0  0  0  0  0
   -0.0878    2.1832   -0.5978 C   0  0  0  0  0  0  0  0  0  0  0  0
    0.1985    2.6369    0.6752 N   0  3  0  0  0  0  0  0  0  0  0  0
    0.2799    2.0212    1.4895 H   0  0  0  0  0  0  0  0  0  0  0  0
    0.4343    3.9624    0.6117 C   0  0  0  0  0  0  0  0  0  0  0  0
    0.6990    4.5958    1.4559 H   0  0  0  0  0  0  0  0  0  0  0  0
    0.3028    4.3600   -0.6741 N   0  0  0  0  0  0  0  0  0  0  0  0
    0.4260    5.3074   -1.0215 H   0  0  0  0  0  0  0  0  0  0  0  0
   -0.0252    3.2548   -1.4471 C   0  0  0  0  0  0  0  0  0  0  0  0
   -0.1998    3.2335   -2.5193 H   0  0  0  0  0  0  0  0  0  0  0  0
    0.0470    0.3465    1.5629 C   0  0  0  0  0  0  0  0  0  0  0  0
    1.1854    0.1365    1.9846 O   0  0  0  0  0  0  0  0  0  0  0  0
   -0.8551    1.0750    2.2320 N   0  0  0  0  0  0  0  0  0  0  0  0
   -1.7594    1.2031    1.8040 H   0  0  0  0  0  0  0  0  0  0  0  0
   -0.6356    1.6998    3.5400 C   0  0  0  0  0  0  0  0  0  0  0  0
   -0.4284    2.7647    3.4168 H   0  0  0  0  0  0  0  0  0  0  0  0
   -1.5268    1.5885    4.1601 H   0  0  0  0  0  0  0  0  0  0  0  0
    0.2072    1.2358    4.0566 H   0  0  0  0  0  0  0  0  0  0  0  0
  5  6  2  0  0  0  0
  5  7  1  0  0  0  0
  2  3  1  0  0  0  0
  2  4  1  0  0  0  0
  2  5  1  0  0  0  0
  1  2  1  0  0  0  0
 23 24  2  0  0  0  0
 23 25  1  0  0  0  0
 21 22  1  0  0  0  0
 19 20  1  0  0  0  0
 19 21  1  0  0  0  0
 17 18  1  0  0  0  0
 17 19  1  0  0  0  0
 15 16  1  0  0  0  0
 15 17  2  0  0  0  0
 14 15  1  0  0  0  0
 14 21  2  0  0  0  0
 11 12  1  0  0  0  0
 11 13  1  0  0  0  0
 11 14  1  0  0  0  0
  9 10  1  0  0  0  0
  9 11  1  0  0  0  0
  9 23  1  0  0  0  0
  7  8  1  0  0  0  0
  7  9  1  0  0  0  0
 27 28  1  0  0  0  0
 27 29  1  0  0  0  0
 27 30  1  0  0  0  0
 25 26  1  0  0  0  0
 25 27  1  0  0  0  0
M  CHG  1  15   1
M  END
$$$$
default_name
  -OEChem-02102213163D

 30 30  0     1  0  0  0  0  0999 V2000
   -3.5507   -3.2183    1.8116 H   0  0  0  0  0  0  0  0  0  0  0  0
   -3.4597   -2.3913    1.1076 C   0  0  0  0  0  0  0  0  0  0  0  0
   -4.1577   -1.6043    1.3866 H   0  0  0  0  0  0  0  0  0  0  0  0
   -3.6807   -2.7523    0.1036 H   0  0  0  0  0  0  0  0  0  0  0  0
   -2.0477   -1.8543    1.1546 C   0  0  0  0  0  0  0  0  0  0  0  0
   -1.2227   -2.3443    1.9146 O   0  0  0  0  0  0  0  0  0  0  0  0
   -1.7517   -0.8483    0.3266 N   0  0  0  0  0  0  0  0  0  0  0  0
   -2.4847   -0.5123   -0.2804 H   0  0  0  0  0  0  0  0  0  0  0  0
   -0.4117   -0.2463    0.2186 C   0  0  1  0  0  0  0  0  0  0  0  0
    0.2987   -1.0391   -0.0285 H   0  0  0  0  0  0  0  0  0  0  0  0
   -0.4131    0.7505   -0.9636 C   0  0  0  0  0  0  0  0  0  0  0  0
    0.3084    0.4071   -1.7094 H   0  0  0  0  0  0  0  0  0  0  0  0
   -1.3964    0.7364   -1.4386 H   0  0  0  0  0  0  0  0  0  0  0  0
   -0.0878    2.1832   -0.5978 C   0  0  0  0  0  0  0  0  0  0  0  0
    0.4780    2.5943    0.5935 N   0  3  0  0  0  0  0  0  0  0  0  0
    0.7919    1.9476    1.3228 H   0  0  0  0  0  0  0  0  0  0  0  0
    0.6168    3.9345    0.5587 C   0  0  0  0  0  0  0  0  0  0  0  0
    1.0459    4.5437    1.3516 H   0  0  0  0  0  0  0  0  0  0  0  0
    0.1502    4.3830   -0.6286 N   0  0  0  0  0  0  0  0  0  0  0  0
    0.1311    5.3522   -0.9348 H   0  0  0  0  0  0  0  0  0  0  0  0
   -0.2963    3.2959   -1.3672 C   0  0  0  0  0  0  0  0  0  0  0  0
   -0.7285    3.3138   -2.3638 H   0  0  0  0  0  0  0  0  0  0  0  0
    0.0470    0.3465    1.5629 C   0  0  0  0  0  0  0  0  0  0  0  0
    1.1854    0.1365    1.9846 O   0  0  0  0  0  0  0  0  0  0  0  0
   -0.8551    1.0750    2.2320 N   0  0  0  0  0  0  0  0  0  0  0  0
   -1.7594    1.2031    1.8040 H   0  0  0  0  0  0  0  0  0  0  0  0
   -0.6356    1.6998    3.5400 C   0  0  0  0  0  0  0  0  0  0  0  0
   -0.4284    2.7647    3.4168 H   0  0  0  0  0  0  0  0  0  0  0  0
   -1.5268    1.5885    4.1601 H   0  0  0  0  0  0  0  0  0  0  0  0
    0.2072    1.2358    4.0566 H   0  0  0  0  0  0  0  0  0  0  0  0
  5  6  2  0  0  0  0
  5  7  1  0  0  0  0
  2  3  1  0  0  0  0
  2  4  1  0  0  0  0
  2  5  1  0  0  0  0
  1  2  1  0  0  0  0
 23 24  2  0  0  0  0
 23 25  1  0  0  0  0
 21 22  1  0  0  0  0
 19 20  1  0  0  0  0
 19 21  1  0  0  0  0
 17 18  1  0  0  0  0
 17 19  1  0  0  0  0
 15 16  1  0  0  0  0
 15 17  2  0  0  0  0
 14 15  1  0  0  0  0
 14 21  2  0  0  0  0
 11 12  1  0  0  0  0
 11 13  1  0  0  0  0
 11 14  1  0  0  0  0
  9 10  1  0  0  0  0
  9 11  1  0  0  0  0
  9 23  1  0  0  0  0
  7  8  1  0  0  0  0
  7  9  1  0  0  0  0
 27 28  1  0  0  0  0
 27 29  1  0  0  0  0
 27 30  1  0  0  0  0
 25 26  1  0  0  0  0
 25 27  1  0  0  0  0
M  CHG  1  15   1
M  END
$$$$
default_name
  -OEChem-02102213163D

 30 30  0     1  0  0  0  0  0999 V2000
   -3.5507   -3.2183    1.8116 H   0  0  0  0  0  0  0  0  0  0  0  0
   -3.4597   -2.3913    1.1076 C   0  0  0  0  0  0  0  0  0  0  0  0
   -4.1577   -1.6043    1.3866 H   0  0  0  0  0  0  0  0  0  0  0  0
   -3.6807   -2.7523    0.1036 H   0  0  0  0  0  0  0  0  0  0  0  0
   -2.0477   -1.8543    1.1546 C   0  0  0  0  0  0  0  0  0  0  0  0
   -1.2227   -2.3443    1.9146 O   0  0  0  0  0  0  0  0  0  0  0  0
   -1.7517   -0.8483    0.3266 N   0  0  0  0  0  0  0  0  0  0  0  0
   -2.4847   -0.5123   -0.2804 H   0  0  0  0  0  0  0  0  0  0  0  0
   -0.4117   -0.2463    0.2186 C   0  0  1  0  0  0  0  0  0  0  0  0
    0.2987   -1.0391   -0.0285 H   0  0  0  0  0  0  0  0  0  0  0  0
   -0.4131    0.7505   -0.9636 C   0  0  0  0  0  0  0  0  0  0  0  0
    0.3084    0.4071   -1.7094 H   0  0  0  0  0  0  0  0  0  0  0  0
   -1.3964    0.7364   -1.4386 H   0  0  0  0  0  0  0  0  0  0  0  0
   -0.0878    2.1832   -0.5978 C   0  0  0  0  0  0  0  0  0  0  0  0
    0.7306    2.5752    0.4437 N   0  3  0  0  0  0  0  0  0  0  0  0
    1.2502    1.9177    1.0323 H   0  0  0  0  0  0  0  0  0  0  0  0
    0.7818    3.9219    0.4612 C   0  0  0  0  0  0  0  0  0  0  0  0
    1.3587    4.5208    1.1630 H   0  0  0  0  0  0  0  0  0  0  0  0
    0.0126    4.3932   -0.5461 N   0  0  0  0  0  0  0  0  0  0  0  0
   -0.1354    5.3722   -0.7764 H   0  0  0  0  0  0  0  0  0  0  0  0
   -0.5412    3.3143   -1.2212 C   0  0  0  0  0  0  0  0  0  0  0  0
   -1.2062    3.3497   -2.0797 H   0  0  0  0  0  0  0  0  0  0  0  0
    0.0470    0.3465    1.5629 C   0  0  0  0  0  0  0  0  0  0  0  0
    1.1854    0.1365    1.9846 O   0  0  0  0  0  0  0  0  0  0  0  0
   -0.8551    1.0750    2.2320 N   0  0  0  0  0  0  0  0  0  0  0  0
   -1.7594    1.2031    1.8040 H   0  0  0  0  0  0  0  0  0  0  0  0
   -0.6356    1.6998    3.5400 C   0  0  0  0  0  0  0  0  0  0  0  0
   -0.4284    2.7647    3.4168 H   0  0  0  0  0  0  0  0  0  0  0  0
   -1.5268    1.5885    4.1601 H   0  0  0  0  0  0  0  0  0  0  0  0
    0.2072    1.2358    4.0566 H   0  0  0  0  0  0  0  0  0  0  0  0
  5  6  2  0  0  0  0
  5  7  1  0  0  0  0
  2  3  1  0  0  0  0
  2  4  1  0  0  0  0
  2  5  1  0  0  0  0
  1  2  1  0  0  0  0
 23 24  2  0  0  0  0
 23 25  1  0  0  0  0
 21 22  1  0  0  0  0
 19 20  1  0  0  0  0
 19 21  1  0  0  0  0
 17 18  1  0  0  0  0
 17 19  1  0  0  0  0
 15 16  1  0  0  0  0
 15 17  2  0  0  0  0
 14 15  1  0  0  0  0
 14 21  2  0  0  0  0
 11 12  1  0  0  0  0
 11 13  1  0  0  0  0
 11 14  1  0  0  0  0
  9 10  1  0  0  0  0
  9 11  1  0  0  0  0
  9 23  1  0  0  0  0
  7  8  1  0  0  0  0
  7  9  1  0  0  0  0
 27 28  1  0  0  0  0
 27 29  1  0  0  0  0
 27 30  1  0  0  0  0
 25 26  1  0  0  0  0
 25 27  1  0  0  0  0
M  CHG  1  15   1
M  END
$$$$
default_name
  -OEChem-02102213163D

 30 30  0     1  0  0  0  0  0999 V2000
   -3.5507   -3.2183    1.8116 H   0  0  0  0  0  0  0  0  0  0  0  0
   -3.4597   -2.3913    1.1076 C   0  0  0  0  0  0  0  0  0  0  0  0
   -4.1577   -1.6043    1.3866 H   0  0  0  0  0  0  0  0  0  0  0  0
   -3.6807   -2.7523    0.1036 H   0  0  0  0  0  0  0  0  0  0  0  0
   -2.0477   -1.8543    1.1546 C   0  0  0  0  0  0  0  0  0  0  0  0
   -1.2227   -2.3443    1.9146 O   0  0  0  0  0  0  0  0  0  0  0  0
   -1.7517   -0.8483    0.3266 N   0  0  0  0  0  0  0  0  0  0  0  0
   -2.4847   -0.5123   -0.2804 H   0  0  0  0  0  0  0  0  0  0  0  0
   -0.4117   -0.2463    0.2186 C   0  0  1  0  0  0  0  0  0  0  0  0
    0.2987   -1.0391   -0.0285 H   0  0  0  0  0  0  0  0  0  0  0  0
   -0.4131    0.7505   -0.9636 C   0  0  0  0  0  0  0  0  0  0  0  0
    0.3084    0.4071   -1.7094 H   0  0  0  0  0  0  0  0  0  0  0  0
   -1.3964    0.7364   -1.4386 H   0  0  0  0  0  0  0  0  0  0  0  0
   -0.0878    2.1832   -0.5978 C   0  0  0  0  0  0  0  0  0  0  0  0
    0.9392    2.5809    0.2361 N   0  3  0  0  0  0  0  0  0  0  0  0
    1.6236    1.9337    0.6379 H   0  0  0  0  0  0  0  0  0  0  0  0
    0.9181    3.9255    0.3260 C   0  0  0  0  0  0  0  0  0  0  0  0
    1.6161    4.5288    0.9030 H   0  0  0  0  0  0  0  0  0  0  0  0
   -0.1008    4.3898   -0.4321 N   0  0  0  0  0  0  0  0  0  0  0  0
   -0.3552    5.3661   -0.5570 H   0  0  0  0  0  0  0  0  0  0  0  0
   -0.7432    3.3085   -1.0193 C   0  0  0  0  0  0  0  0  0  0  0  0
   -1.6003    3.3387   -1.6863 H   0  0  0  0  0  0  0  0  0  0  0  0
    0.0470    0.3465    1.5629 C   0  0  0  0  0  0  0  0  0  0  0  0
    1.1854    0.1365    1.9846 O   0  0  0  0  0  0  0  0  0  0  0  0
   -0.8551    1.0750    2.2320 N   0  0  0  0  0  0  0  0  0  0  0  0
   -1.7594    1.2031    1.8040 H   0  0  0  0  0  0  0  0  0  0  0  0
   -0.6356    1.6998    3.5400 C   0  0  0  0  0  0  0  0  0  0  0  0
   -0.4284    2.7647    3.4168 H   0  0  0  0  0  0  0  0  0  0  0  0
   -1.5268    1.5885    4.1601 H   0  0  0  0  0  0  0  0  0  0  0  0
    0.2072    1.2358    4.0566 H   0  0  0  0  0  0  0  0  0  0  0  0
  5  6  2  0  0  0  0
  5  7  1  0  0  0  0
  2  3  1  0  0  0  0
  2  4  1  0  0  0  0
  2  5  1  0  0  0  0
  1  2  1  0  0  0  0
 23 24  2  0  0  0  0
 23 25  1  0  0  0  0
 21 22  1  0  0  0  0
 19 20  1  0  0  0  0
 19 21  1  0  0  0  0
 17 18  1  0  0  0  0
 17 19  1  0  0  0  0
 15 16  1  0  0  0  0
 15 17  2  0  0  0  0
 14 15  1  0  0  0  0
 14 21  2  0  0  0  0
 11 12  1  0  0  0  0
 11 13  1  0  0  0  0
 11 14  1  0  0  0  0
  9 10  1  0  0  0  0
  9 11  1  0  0  0  0
  9 23  1  0  0  0  0
  7  8  1  0  0  0  0
  7  9  1  0  0  0  0
 27 28  1  0  0  0  0
 27 29  1  0  0  0  0
 27 30  1  0  0  0  0
 25 26  1  0  0  0  0
 25 27  1  0  0  0  0
M  CHG  1  15   1
M  END
$$$$
default_name
  -OEChem-02102213163D

 30 30  0     1  0  0  0  0  0999 V2000
   -3.5507   -3.2183    1.8116 H   0  0  0  0  0  0  0  0  0  0  0  0
   -3.4597   -2.3913    1.1076 C   0  0  0  0  0  0  0  0  0  0  0  0
   -4.1577   -1.6043    1.3866 H   0  0  0  0  0  0  0  0  0  0  0  0
   -3.6807   -2.7523    0.1036 H   0  0  0  0  0  0  0  0  0  0  0  0
   -2.0477   -1.8543    1.1546 C   0  0  0  0  0  0  0  0  0  0  0  0
   -1.2227   -2.3443    1.9146 O   0  0  0  0  0  0  0  0  0  0  0  0
   -1.7517   -0.8483    0.3266 N   0  0  0  0  0  0  0  0  0  0  0  0
   -2.4847   -0.5123   -0.2804 H   0  0  0  0  0  0  0  0  0  0  0  0
   -0.4117   -0.2463    0.2186 C   0  0  1  0  0  0  0  0  0  0  0  0
    0.2987   -1.0391   -0.0285 H   0  0  0  0  0  0  0  0  0  0  0  0
   -0.4131    0.7505   -0.9636 C   0  0  0  0  0  0  0  0  0  0  0  0
    0.3084    0.4071   -1.7094 H   0  0  0  0  0  0  0  0  0  0  0  0
   -1.3964    0.7364   -1.4386 H   0  0  0  0  0  0  0  0  0  0  0  0
   -0.0878    2.1832   -0.5978 C   0  0  0  0  0  0  0  0  0  0  0  0
    1.0894    2.6109   -0.0151 N   0  3  0  0  0  0  0  0  0  0  0  0
    1.8867    1.9943    0.1662 H   0  0  0  0  0  0  0  0  0  0  0  0
    1.0164    3.9450    0.1622 C   0  0  0  0  0  0  0  0  0  0  0  0
    1.8005    4.5671    0.5892 H   0  0  0  0  0  0  0  0  0  0  0  0
   -0.1822    4.3731   -0.2944 N   0  0  0  0  0  0  0  0  0  0  0  0
   -0.5134    5.3342   -0.2915 H   0  0  0  0  0  0  0  0  0  0  0  0
   -0.8884    3.2792   -0.7751 C   0  0  0  0  0  0  0  0  0  0  0  0
   -1.8839    3.2816   -1.2104 H   0  0  0  0  0  0  0  0  0  0  0  0
    0.0470    0.3465    1.5629 C   0  0  0  0  0  0  0  0  0  0  0  0
    1.1854    0.1365    1.9846 O   0  0  0  0  0  0  0  0  0  0  0  0
   -0.8551    1.0750    2.2320 N   0  0  0  0  0  0  0  0  0  0  0  0
   -1.7594    1.2031    1.8040 H   0  0  0  0  0  0  0  0  0  0  0  0
   -0.6356    1.6998    3.5400 C   0  0  0  0  0  0  0  0  0  0  0  0
   -0.4284    2.7647    3.4168 H   0  0  0  0  0  0  0  0  0  0  0  0
   -1.5268    1.5885    4.1601 H   0  0  0  0  0  0  0  0  0  0  0  0
    0.2072    1.2358    4.0566 H   0  0  0  0  0  0  0  0  0  0  0  0
  5  6  2  0  0  0  0
  5  7  1  0  0  0  0
  2  3  1  0  0  0  0
  2  4  1  0  0  0  0
  2  5  1  0  0  0  0
  1  2  1  0  0  0  0
 23 24  2  0  0  0  0
 23 25  1  0  0  0  0
 21 22  1  0  0  0  0
 19 20  1  0  0  0  0
 19 21  1  0  0  0  0
 17 18  1  0  0  0  0
 17 19  1  0  0  0  0
 15 16  1  0  0  0  0
 15 17  2  0  0  0  0
 14 15  1  0  0  0  0
 14 21  2  0  0  0  0
 11 12  1  0  0  0  0
 11 13  1  0  0  0  0
 11 14  1  0  0  0  0
  9 10  1  0  0  0  0
  9 11  1  0  0  0  0
  9 23  1  0  0  0  0
  7  8  1  0  0  0  0
  7  9  1  0  0  0  0
 27 28  1  0  0  0  0
 27 29  1  0  0  0  0
 27 30  1  0  0  0  0
 25 26  1  0  0  0  0
 25 27  1  0  0  0  0
M  CHG  1  15   1
M  END
$$$$
default_name
  -OEChem-02102213163D

 30 30  0     1  0  0  0  0  0999 V2000
   -3.5507   -3.2183    1.8116 H   0  0  0  0  0  0  0  0  0  0  0  0
   -3.4597   -2.3913    1.1076 C   0  0  0  0  0  0  0  0  0  0  0  0
   -4.1577   -1.6043    1.3866 H   0  0  0  0  0  0  0  0  0  0  0  0
   -3.6807   -2.7523    0.1036 H   0  0  0  0  0  0  0  0  0  0  0  0
   -2.0477   -1.8543    1.1546 C   0  0  0  0  0  0  0  0  0  0  0  0
   -1.2227   -2.3443    1.9146 O   0  0  0  0  0  0  0  0  0  0  0  0
   -1.7517   -0.8483    0.3266 N   0  0  0  0  0  0  0  0  0  0  0  0
   -2.4847   -0.5123   -0.2804 H   0  0  0  0  0  0  0  0  0  0  0  0
   -0.4117   -0.2463    0.2186 C   0  0  1  0  0  0  0  0  0  0  0  0
    0.2987   -1.0391   -0.0285 H   0  0  0  0  0  0  0  0  0  0  0  0
   -0.4131    0.7505   -0.9636 C   0  0  0  0  0  0  0  0  0  0  0  0
    0.3084    0.4071   -1.7094 H   0  0  0  0  0  0  0  0  0  0  0  0
   -1.3964    0.7364   -1.4386 H   0  0  0  0  0  0  0  0  0  0  0  0
   -0.0878    2.1832   -0.5978 C   0  0  0  0  0  0  0  0  0  0  0  0
    1.1711    2.6633   -0.2930 N   0  3  0  0  0  0  0  0  0  0  0  0
    2.0215    2.0956   -0.3504 H   0  0  0  0  0  0  0  0  0  0  0  0
    1.0701    3.9791   -0.0190 C   0  0  0  0  0  0  0  0  0  0  0  0
    1.8994    4.6330    0.2430 H   0  0  0  0  0  0  0  0  0  0  0  0
   -0.2260    4.3442   -0.1424 N   0  0  0  0  0  0  0  0  0  0  0  0
   -0.5992    5.2788    0.0018 H   0  0  0  0  0  0  0  0  0  0  0  0
   -0.9671    3.2281   -0.5053 C   0  0  0  0  0  0  0  0  0  0  0  0
   -2.0377    3.1822   -0.6844 H   0  0  0  0  0  0  0  0  0  0  0  0
    0.0470    0.3465    1.5629 C   0  0  0  0  0  0  0  0  0  0  0  0
    1.1854    0.1365    1.9846 O   0  0  0  0  0  0  0  0  0  0  0  0
   -0.8551    1.0750    2.2320 N   0  0  0  0  0  0  0  0  0  0  0  0
   -1.7594    1.2031    1.8040 H   0  0  0  0  0  0  0  0  0  0  0  0
   -0.6356    1.6998    3.5400 C   0  0  0  0  0  0  0  0  0  0  0  0
   -0.4284    2.7647    3.4168 H   0  0  0  0  0  0  0  0  0  0  0  0
   -1.5268    1.5885    4.1601 H   0  0  0  0  0  0  0  0  0  0  0  0
    0.2072    1.2358    4.0566 H   0  0  0  0  0  0  0  0  0  0  0  0
  5  6  2  0  0  0  0
  5  7  1  0  0  0  0
  2  3  1  0  0  0  0
  2  4  1  0  0  0  0
  2  5  1  0  0  0  0
  1  2  1  0  0  0  0
 23 24  2  0  0  0  0
 23 25  1  0  0  0  0
 21 22  1  0  0  0  0
 19 20  1  0  0  0  0
 19 21  1  0  0  0  0
 17 18  1  0  0  0  0
 17 19  1  0  0  0  0
 15 16  1  0  0  0  0
 15 17  2  0  0  0  0
 14 15  1  0  0  0  0
 14 21  2  0  0  0  0
 11 12  1  0  0  0  0
 11 13  1  0  0  0  0
 11 14  1  0  0  0  0
  9 10  1  0  0  0  0
  9 11  1  0  0  0  0
  9 23  1  0  0  0  0
  7  8  1  0  0  0  0
  7  9  1  0  0  0  0
 27 28  1  0  0  0  0
 27 29  1  0  0  0  0
 27 30  1  0  0  0  0
 25 26  1  0  0  0  0
 25 27  1  0  0  0  0
M  CHG  1  15   1
M  END
$$$$
default_name
  -OEChem-02102213163D

 30 30  0     1  0  0  0  0  0999 V2000
   -3.5507   -3.2183    1.8116 H   0  0  0  0  0  0  0  0  0  0  0  0
   -3.4597   -2.3913    1.1076 C   0  0  0  0  0  0  0  0  0  0  0  0
   -4.1577   -1.6043    1.3866 H   0  0  0  0  0  0  0  0  0  0  0  0
   -3.6807   -2.7523    0.1036 H   0  0  0  0  0  0  0  0  0  0  0  0
   -2.0477   -1.8543    1.1546 C   0  0  0  0  0  0  0  0  0  0  0  0
   -1.2227   -2.3443    1.9146 O   0  0  0  0  0  0  0  0  0  0  0  0
   -1.7517   -0.8483    0.3266 N   0  0  0  0  0  0  0  0  0  0  0  0
   -2.4847   -0.5123   -0.2804 H   0  0  0  0  0  0  0  0  0  0  0  0
   -0.4117   -0.2463    0.2186 C   0  0  1  0  0  0  0  0  0  0  0  0
    0.2987   -1.0391   -0.0285 H   0  0  0  0  0  0  0  0  0  0  0  0
   -0.4131    0.7505   -0.9636 C   0  0  0  0  0  0  0  0  0  0  0  0
    0.3084    0.4071   -1.7094 H   0  0  0  0  0  0  0  0  0  0  0  0
   -1.3964    0.7364   -1.4386 H   0  0  0  0  0  0  0  0  0  0  0  0
   -0.0878    2.1832   -0.5978 C   0  0  0  0  0  0  0  0  0  0  0  0
    1.1787    2.7345   -0.5784 N   0  3  0  0  0  0  0  0  0  0  0  0
    2.0189    2.2306   -0.8767 H   0  0  0  0  0  0  0  0  0  0  0  0
    1.0754    4.0255   -0.2053 C   0  0  0  0  0  0  0  0  0  0  0  0
    1.9061    4.7221   -0.1119 H   0  0  0  0  0  0  0  0  0  0  0  0
   -0.2293    4.3052    0.0136 N   0  0  0  0  0  0  0  0  0  0  0  0
   -0.6068    5.2036    0.3032 H   0  0  0  0  0  0  0  0  0  0  0  0
   -0.9738    3.1589   -0.2283 C   0  0  0  0  0  0  0  0  0  0  0  0
   -2.0512    3.0474   -0.1442 H   0  0  0  0  0  0  0  0  0  0  0  0
    0.0470    0.3465    1.5629 C   0  0  0  0  0  0  0  0  0  0  0  0
    1.1854    0.1365    1.9846 O   0  0  0  0  0  0  0  0  0  0  0  0
   -0.8551    1.0750    2.2320 N   0  0  0  0  0  0  0  0  0  0  0  0
   -1.7594    1.2031    1.8040 H   0  0  0  0  0  0  0  0  0  0  0  0
   -0.6356    1.6998    3.5400 C   0  0  0  0  0  0  0  0  0  0  0  0
   -0.4284    2.7647    3.4168 H   0  0  0  0  0  0  0  0  0  0  0  0
   -1.5268    1.5885    4.1601 H   0  0  0  0  0  0  0  0  0  0  0  0
    0.2072    1.2358    4.0566 H   0  0  0  0  0  0  0  0  0  0  0  0
  5  6  2  0  0  0  0
  5  7  1  0  0  0  0
  2  3  1  0  0  0  0
  2  4  1  0  0  0  0
  2  5  1  0  0  0  0
  1  2  1  0  0  0  0
 23 24  2  0  0  0  0
 23 25  1  0  0  0  0
 21 22  1  0  0  0  0
 19 20  1  0  0  0  0
 19 21  1  0  0  0  0
 17 18  1  0  0  0  0
 17 19  1  0  0  0  0
 15 16  1  0  0  0  0
 15 17  2  0  0  0  0
 14 15  1  0  0  0  0
 14 21  2  0  0  0  0
 11 12  1  0  0  0  0
 11 13  1  0  0  0  0
 11 14  1  0  0  0  0
  9 10  1  0  0  0  0
  9 11  1  0  0  0  0
  9 23  1  0  0  0  0
  7  8  1  0  0  0  0
  7  9  1  0  0  0  0
 27 28  1  0  0  0  0
 27 29  1  0  0  0  0
 27 30  1  0  0  0  0
 25 26  1  0  0  0  0
 25 27  1  0  0  0  0
M  CHG  1  15   1
M  END
$$$$
default_name
  -OEChem-02102213163D

 30 30  0     1  0  0  0  0  0999 V2000
   -3.5507   -3.2183    1.8116 H   0  0  0  0  0  0  0  0  0  0  0  0
   -3.4597   -2.3913    1.1076 C   0  0  0  0  0  0  0  0  0  0  0  0
   -4.1577   -1.6043    1.3866 H   0  0  0  0  0  0  0  0  0  0  0  0
   -3.6807   -2.7523    0.1036 H   0  0  0  0  0  0  0  0  0  0  0  0
   -2.0477   -1.8543    1.1546 C   0  0  0  0  0  0  0  0  0  0  0  0
   -1.2227   -2.3443    1.9146 O   0  0  0  0  0  0  0  0  0  0  0  0
   -1.7517   -0.8483    0.3266 N   0  0  0  0  0  0  0  0  0  0  0  0
   -2.4847   -0.5123   -0.2804 H   0  0  0  0  0  0  0  0  0  0  0  0
   -0.4117   -0.2463    0.2186 C   0  0  1  0  0  0  0  0  0  0  0  0
    0.2987   -1.0391   -0.0285 H   0  0  0  0  0  0  0  0  0  0  0  0
   -0.4131    0.7505   -0.9636 C   0  0  0  0  0  0  0  0  0  0  0  0
    0.3084    0.4071   -1.7094 H   0  0  0  0  0  0  0  0  0  0  0  0
   -1.3964    0.7364   -1.4386 H   0  0  0  0  0  0  0  0  0  0  0  0
   -0.0878    2.1832   -0.5978 C   0  0  0  0  0  0  0  0  0  0  0  0
    1.1117    2.8195   -0.8521 N   0  3  0  0  0  0  0  0  0  0  0  0
    1.8790    2.3901   -1.3770 H   0  0  0  0  0  0  0  0  0  0  0  0
    1.0320    4.0810   -0.3840 C   0  0  0  0  0  0  0  0  0  0  0  0
    1.8200    4.8283   -0.4514 H   0  0  0  0  0  0  0  0  0  0  0  0
   -0.1919    4.2586    0.1629 N   0  0  0  0  0  0  0  0  0  0  0  0
   -0.5356    5.1137    0.5919 H   0  0  0  0  0  0  0  0  0  0  0  0
   -0.9080    3.0762    0.0371 C   0  0  0  0  0  0  0  0  0  0  0  0
   -1.9236    2.8862    0.3735 H   0  0  0  0  0  0  0  0  0  0  0  0
    0.0470    0.3465    1.5629 C   0  0  0  0  0  0  0  0  0  0  0  0
    1.1854    0.1365    1.9846 O   0  0  0  0  0  0  0  0  0  0  0  0
   -0.8551    1.0750    2.2320 N   0  0  0  0  0  0  0  0  0  0  0  0
   -1.7594    1.2031    1.8040 H   0  0  0  0  0  0  0  0  0  0  0  0
   -0.6356    1.6998    3.5400 C   0  0  0  0  0  0  0  0  0  0  0  0
   -0.4284    2.7647    3.4168 H   0  0  0  0  0  0  0  0  0  0  0  0
   -1.5268    1.5885    4.1601 H   0  0  0  0  0  0  0  0  0  0  0  0
    0.2072    1.2358    4.0566 H   0  0  0  0  0  0  0  0  0  0  0  0
  5  6  2  0  0  0  0
  5  7  1  0  0  0  0
  2  3  1  0  0  0  0
  2  4  1  0  0  0  0
  2  5  1  0  0  0  0
  1  2  1  0  0  0  0
 23 24  2  0  0  0  0
 23 25  1  0  0  0  0
 21 22  1  0  0  0  0
 19 20  1  0  0  0  0
 19 21  1  0  0  0  0
 17 18  1  0  0  0  0
 17 19  1  0  0  0  0
 15 16  1  0  0  0  0
 15 17  2  0  0  0  0
 14 15  1  0  0  0  0
 14 21  2  0  0  0  0
 11 12  1  0  0  0  0
 11 13  1  0  0  0  0
 11 14  1  0  0  0  0
  9 10  1  0  0  0  0
  9 11  1  0  0  0  0
  9 23  1  0  0  0  0
  7  8  1  0  0  0  0
  7  9  1  0  0  0  0
 27 28  1  0  0  0  0
 27 29  1  0  0  0  0
 27 30  1  0  0  0  0
 25 26  1  0  0  0  0
 25 27  1  0  0  0  0
M  CHG  1  15   1
M  END
$$$$
default_name
  -OEChem-02102213163D

 30 30  0     1  0  0  0  0  0999 V2000
   -3.5507   -3.2183    1.8116 H   0  0  0  0  0  0  0  0  0  0  0  0
   -3.4597   -2.3913    1.1076 C   0  0  0  0  0  0  0  0  0  0  0  0
   -4.1577   -1.6043    1.3866 H   0  0  0  0  0  0  0  0  0  0  0  0
   -3.6807   -2.7523    0.1036 H   0  0  0  0  0  0  0  0  0  0  0  0
   -2.0477   -1.8543    1.1546 C   0  0  0  0  0  0  0  0  0  0  0  0
   -1.2227   -2.3443    1.9146 O   0  0  0  0  0  0  0  0  0  0  0  0
   -1.7517   -0.8483    0.3266 N   0  0  0  0  0  0  0  0  0  0  0  0
   -2.4847   -0.5123   -0.2804 H   0  0  0  0  0  0  0  0  0  0  0  0
   -0.4117   -0.2463    0.2186 C   0  0  1  0  0  0  0  0  0  0  0  0
    0.2987   -1.0391   -0.0285 H   0  0  0  0  0  0  0  0  0  0  0  0
   -0.4131    0.7505   -0.9636 C   0  0  0  0  0  0  0  0  0  0  0  0
    0.3084    0.4071   -1.7094 H   0  0  0  0  0  0  0  0  0  0  0  0
   -1.3964    0.7364   -1.4386 H   0  0  0  0  0  0  0  0  0  0  0  0
   -0.0878    2.1832   -0.5978 C   0  0  0  0  0  0  0  0  0  0  0  0
    0.9746    2.9127   -1.0953 N   0  3  0  0  0  0  0  0  0  0  0  0
    1.6113    2.5632   -1.8172 H   0  0  0  0  0  0  0  0  0  0  0  0
    0.9428    4.1418   -0.5428 C   0  0  0  0  0  0  0  0  0  0  0  0
    1.6470    4.9444   -0.7523 H   0  0  0  0  0  0  0  0  0  0  0  0
   -0.1163    4.2076    0.2953 N   0  0  0  0  0  0  0  0  0  0  0  0
   -0.3905    5.0153    0.8483 H   0  0  0  0  0  0  0  0  0  0  0  0
   -0.7744    2.9857    0.2728 C   0  0  0  0  0  0  0  0  0  0  0  0
   -1.6634    2.7098    0.8332 H   0  0  0  0  0  0  0  0  0  0  0  0
    0.0470    0.3465    1.5629 C   0  0  0  0  0  0  0  0  0  0  0  0
    1.1854    0.1365    1.9846 O   0  0  0  0  0  0  0  0  0  0  0  0
   -0.8551    1.0750    2.2320 N   0  0  0  0  0  0  0  0  0  0  0  0
   -1.7594    1.2031    1.8040 H   0  0  0  0  0  0  0  0  0  0  0  0
   -0.6356    1.6998    3.5400 C   0  0  0  0  0  0  0  0  0  0  0  0
   -0.4284    2.7647    3.4168 H   0  0  0  0  0  0  0  0  0  0  0  0
   -1.5268    1.5885    4.1601 H   0  0  0  0  0  0  0  0  0  0  0  0
    0.2072    1.2358    4.0566 H   0  0  0  0  0  0  0  0  0  0  0  0
  5  6  2  0  0  0  0
  5  7  1  0  0  0  0
  2  3  1  0  0  0  0
  2  4  1  0  0  0  0
  2  5  1  0  0  0  0
  1  2  1  0  0  0  0
 23 24  2  0  0  0  0
 23 25  1  0  0  0  0
 21 22  1  0  0  0  0
 19 20  1  0  0  0  0
 19 21  1  0  0  0  0
 17 18  1  0  0  0  0
 17 19  1  0  0  0  0
 15 16  1  0  0  0  0
 15 17  2  0  0  0  0
 14 15  1  0  0  0  0
 14 21  2  0  0  0  0
 11 12  1  0  0  0  0
 11 13  1  0  0  0  0
 11 14  1  0  0  0  0
  9 10  1  0  0  0  0
  9 11  1  0  0  0  0
  9 23  1  0  0  0  0
  7  8  1  0  0  0  0
  7  9  1  0  0  0  0
 27 28  1  0  0  0  0
 27 29  1  0  0  0  0
 27 30  1  0  0  0  0
 25 26  1  0  0  0  0
 25 27  1  0  0  0  0
M  CHG  1  15   1
M  END
$$$$
default_name
  -OEChem-02102213163D

 30 30  0     1  0  0  0  0  0999 V2000
   -3.5507   -3.2183    1.8116 H   0  0  0  0  0  0  0  0  0  0  0  0
   -3.4597   -2.3913    1.1076 C   0  0  0  0  0  0  0  0  0  0  0  0
   -4.1577   -1.6043    1.3866 H   0  0  0  0  0  0  0  0  0  0  0  0
   -3.6807   -2.7523    0.1036 H   0  0  0  0  0  0  0  0  0  0  0  0
   -2.0477   -1.8543    1.1546 C   0  0  0  0  0  0  0  0  0  0  0  0
   -1.2227   -2.3443    1.9146 O   0  0  0  0  0  0  0  0  0  0  0  0
   -1.7517   -0.8483    0.3266 N   0  0  0  0  0  0  0  0  0  0  0  0
   -2.4847   -0.5123   -0.2804 H   0  0  0  0  0  0  0  0  0  0  0  0
   -0.4117   -0.2463    0.2186 C   0  0  1  0  0  0  0  0  0  0  0  0
    0.2987   -1.0391   -0.0285 H   0  0  0  0  0  0  0  0  0  0  0  0
   -0.4131    0.7505   -0.9636 C   0  0  0  0  0  0  0  0  0  0  0  0
    0.3084    0.4071   -1.7094 H   0  0  0  0  0  0  0  0  0  0  0  0
   -1.3964    0.7364   -1.4386 H   0  0  0  0  0  0  0  0  0  0  0  0
   -0.0878    2.1832   -0.5978 C   0  0  0  0  0  0  0  0  0  0  0  0
    0.7768    3.0077   -1.2914 N   0  3  0  0  0  0  0  0  0  0  0  0
    1.2342    2.7382   -2.1671 H   0  0  0  0  0  0  0  0  0  0  0  0
    0.8140    4.2037   -0.6711 C   0  0  0  0  0  0  0  0  0  0  0  0
    1.3990    5.0625   -0.9942 H   0  0  0  0  0  0  0  0  0  0  0  0
   -0.0076    4.1557    0.4019 N   0  0  0  0  0  0  0  0  0  0  0  0
   -0.1814    4.9151    1.0550 H   0  0  0  0  0  0  0  0  0  0  0  0
   -0.5819    2.8936    0.4627 C   0  0  0  0  0  0  0  0  0  0  0  0
   -1.2884    2.5301    1.2038 H   0  0  0  0  0  0  0  0  0  0  0  0
    0.0470    0.3465    1.5629 C   0  0  0  0  0  0  0  0  0  0  0  0
    1.1854    0.1365    1.9846 O   0  0  0  0  0  0  0  0  0  0  0  0
   -0.8551    1.0750    2.2320 N   0  0  0  0  0  0  0  0  0  0  0  0
   -1.7594    1.2031    1.8040 H   0  0  0  0  0  0  0  0  0  0  0  0
   -0.6356    1.6998    3.5400 C   0  0  0  0  0  0  0  0  0  0  0  0
   -0.4284    2.7647    3.4168 H   0  0  0  0  0  0  0  0  0  0  0  0
   -1.5268    1.5885    4.1601 H   0  0  0  0  0  0  0  0  0  0  0  0
    0.2072    1.2358    4.0566 H   0  0  0  0  0  0  0  0  0  0  0  0
  5  6  2  0  0  0  0
  5  7  1  0  0  0  0
  2  3  1  0  0  0  0
  2  4  1  0  0  0  0
  2  5  1  0  0  0  0
  1  2  1  0  0  0  0
 23 24  2  0  0  0  0
 23 25  1  0  0  0  0
 21 22  1  0  0  0  0
 19 20  1  0  0  0  0
 19 21  1  0  0  0  0
 17 18  1  0  0  0  0
 17 19  1  0  0  0  0
 15 16  1  0  0  0  0
 15 17  2  0  0  0  0
 14 15  1  0  0  0  0
 14 21  2  0  0  0  0
 11 12  1  0  0  0  0
 11 13  1  0  0  0  0
 11 14  1  0  0  0  0
  9 10  1  0  0  0  0
  9 11  1  0  0  0  0
  9 23  1  0  0  0  0
  7  8  1  0  0  0  0
  7  9  1  0  0  0  0
 27 28  1  0  0  0  0
 27 29  1  0  0  0  0
 27 30  1  0  0  0  0
 25 26  1  0  0  0  0
 25 27  1  0  0  0  0
M  CHG  1  15   1
M  END
$$$$
default_name
  -OEChem-02102213163D

 30 30  0     1  0  0  0  0  0999 V2000
   -3.5507   -3.2183    1.8116 H   0  0  0  0  0  0  0  0  0  0  0  0
   -3.4597   -2.3913    1.1076 C   0  0  0  0  0  0  0  0  0  0  0  0
   -4.1577   -1.6043    1.3866 H   0  0  0  0  0  0  0  0  0  0  0  0
   -3.6807   -2.7523    0.1036 H   0  0  0  0  0  0  0  0  0  0  0  0
   -2.0477   -1.8543    1.1546 C   0  0  0  0  0  0  0  0  0  0  0  0
   -1.2227   -2.3443    1.9146 O   0  0  0  0  0  0  0  0  0  0  0  0
   -1.7517   -0.8483    0.3266 N   0  0  0  0  0  0  0  0  0  0  0  0
   -2.4847   -0.5123   -0.2804 H   0  0  0  0  0  0  0  0  0  0  0  0
   -0.4117   -0.2463    0.2186 C   0  0  1  0  0  0  0  0  0  0  0  0
    0.2987   -1.0391   -0.0285 H   0  0  0  0  0  0  0  0  0  0  0  0
   -0.4131    0.7505   -0.9636 C   0  0  0  0  0  0  0  0  0  0  0  0
    0.3084    0.4071   -1.7094 H   0  0  0  0  0  0  0  0  0  0  0  0
   -1.3964    0.7364   -1.4386 H   0  0  0  0  0  0  0  0  0  0  0  0
   -0.0878    2.1832   -0.5978 C   0  0  0  0  0  0  0  0  0  0  0  0
    0.5317    3.0980   -1.4271 N   0  3  0  0  0  0  0  0  0  0  0  0
    0.7732    2.9030   -2.4030 H   0  0  0  0  0  0  0  0  0  0  0  0
    0.6542    4.2627   -0.7599 C   0  0  0  0  0  0  0  0  0  0  0  0
    1.0928    5.1744   -1.1605 H   0  0  0  0  0  0  0  0  0  0  0  0
    0.1267    4.1065    0.4753 N   0  0  0  0  0  0  0  0  0  0  0  0
    0.0775    4.8198    1.1979 H   0  0  0  0  0  0  0  0  0  0  0  0
   -0.3437    2.8060    0.5938 C   0  0  0  0  0  0  0  0  0  0  0  0
   -0.8243    2.3593    1.4599 H   0  0  0  0  0  0  0  0  0  0  0  0
    0.0470    0.3465    1.5629 C   0  0  0  0  0  0  0  0  0  0  0  0
    1.1854    0.1365    1.9846 O   0  0  0  0  0  0  0  0  0  0  0  0
   -0.8551    1.0750    2.2320 N   0  0  0  0  0  0  0  0  0  0  0  0
   -1.7594    1.2031    1.8040 H   0  0  0  0  0  0  0  0  0  0  0  0
   -0.6356    1.6998    3.5400 C   0  0  0  0  0  0  0  0  0  0  0  0
   -0.4284    2.7647    3.4168 H   0  0  0  0  0  0  0  0  0  0  0  0
   -1.5268    1.5885    4.1601 H   0  0  0  0  0  0  0  0  0  0  0  0
    0.2072    1.2358    4.0566 H   0  0  0  0  0  0  0  0  0  0  0  0
  5  6  2  0  0  0  0
  5  7  1  0  0  0  0
  2  3  1  0  0  0  0
  2  4  1  0  0  0  0
  2  5  1  0  0  0  0
  1  2  1  0  0  0  0
 23 24  2  0  0  0  0
 23 25  1  0  0  0  0
 21 22  1  0  0  0  0
 19 20  1  0  0  0  0
 19 21  1  0  0  0  0
 17 18  1  0  0  0  0
 17 19  1  0  0  0  0
 15 16  1  0  0  0  0
 15 17  2  0  0  0  0
 14 15  1  0  0  0  0
 14 21  2  0  0  0  0
 11 12  1  0  0  0  0
 11 13  1  0  0  0  0
 11 14  1  0  0  0  0
  9 10  1  0  0  0  0
  9 11  1  0  0  0  0
  9 23  1  0  0  0  0
  7  8  1  0  0  0  0
  7  9  1  0  0  0  0
 27 28  1  0  0  0  0
 27 29  1  0  0  0  0
 27 30  1  0  0  0  0
 25 26  1  0  0  0  0
 25 27  1  0  0  0  0
M  CHG  1  15   1
M  END
$$$$
default_name
  -OEChem-02102213163D

 30 30  0     1  0  0  0  0  0999 V2000
   -3.5507   -3.2183    1.8116 H   0  0  0  0  0  0  0  0  0  0  0  0
   -3.4597   -2.3913    1.1076 C   0  0  0  0  0  0  0  0  0  0  0  0
   -4.1577   -1.6043    1.3866 H   0  0  0  0  0  0  0  0  0  0  0  0
   -3.6807   -2.7523    0.1036 H   0  0  0  0  0  0  0  0  0  0  0  0
   -2.0477   -1.8543    1.1546 C   0  0  0  0  0  0  0  0  0  0  0  0
   -1.2227   -2.3443    1.9146 O   0  0  0  0  0  0  0  0  0  0  0  0
   -1.7517   -0.8483    0.3266 N   0  0  0  0  0  0  0  0  0  0  0  0
   -2.4847   -0.5123   -0.2804 H   0  0  0  0  0  0  0  0  0  0  0  0
   -0.4117   -0.2463    0.2186 C   0  0  1  0  0  0  0  0  0  0  0  0
    0.2987   -1.0391   -0.0285 H   0  0  0  0  0  0  0  0  0  0  0  0
   -0.4131    0.7505   -0.9636 C   0  0  0  0  0  0  0  0  0  0  0  0
    0.3084    0.4071   -1.7094 H   0  0  0  0  0  0  0  0  0  0  0  0
   -1.3964    0.7364   -1.4386 H   0  0  0  0  0  0  0  0  0  0  0  0
   -0.0878    2.1832   -0.5978 C   0  0  0  0  0  0  0  0  0  0  0  0
    0.2562    3.1774   -1.4932 N   0  3  0  0  0  0  0  0  0  0  0  0
    0.2599    3.0466   -2.5089 H   0  0  0  0  0  0  0  0  0  0  0  0
    0.4745    4.3146   -0.8034 C   0  0  0  0  0  0  0  0  0  0  0  0
    0.7493    5.2727   -1.2399 H   0  0  0  0  0  0  0  0  0  0  0  0
    0.2776    4.0632    0.5106 N   0  0  0  0  0  0  0  0  0  0  0  0
    0.3685    4.7361    1.2672 H   0  0  0  0  0  0  0  0  0  0  0  0
   -0.0761    2.7291    0.6573 C   0  0  0  0  0  0  0  0  0  0  0  0
   -0.3025    2.2092    1.5841 H   0  0  0  0  0  0  0  0  0  0  0  0
    0.0470    0.3465    1.5629 C   0  0  0  0  0  0  0  0  0  0  0  0
    1.1854    0.1365    1.9846 O   0  0  0  0  0  0  0  0  0  0  0  0
   -0.8551    1.0750    2.2320 N   0  0  0  0  0  0  0  0  0  0  0  0
   -1.7594    1.2031    1.8040 H   0  0  0  0  0  0  0  0  0  0  0  0
   -0.6356    1.6998    3.5400 C   0  0  0  0  0  0  0  0  0  0  0  0
   -0.4284    2.7647    3.4168 H   0  0  0  0  0  0  0  0  0  0  0  0
   -1.5268    1.5885    4.1601 H   0  0  0  0  0  0  0  0  0  0  0  0
    0.2072    1.2358    4.0566 H   0  0  0  0  0  0  0  0  0  0  0  0
  5  6  2  0  0  0  0
  5  7  1  0  0  0  0
  2  3  1  0  0  0  0
  2  4  1  0  0  0  0
  2  5  1  0  0  0  0
  1  2  1  0  0  0  0
 23 24  2  0  0  0  0
 23 25  1  0  0  0  0
 21 22  1  0  0  0  0
 19 20  1  0  0  0  0
 19 21  1  0  0  0  0
 17 18  1  0  0  0  0
 17 19  1  0  0  0  0
 15 16  1  0  0  0  0
 15 17  2  0  0  0  0
 14 15  1  0  0  0  0
 14 21  2  0  0  0  0
 11 12  1  0  0  0  0
 11 13  1  0  0  0  0
 11 14  1  0  0  0  0
  9 10  1  0  0  0  0
  9 11  1  0  0  0  0
  9 23  1  0  0  0  0
  7  8  1  0  0  0  0
  7  9  1  0  0  0  0
 27 28  1  0  0  0  0
 27 29  1  0  0  0  0
 27 30  1  0  0  0  0
 25 26  1  0  0  0  0
 25 27  1  0  0  0  0
M  CHG  1  15   1
M  END
$$$$
default_name
  -OEChem-02102213163D

 30 30  0     1  0  0  0  0  0999 V2000
   -3.5507   -3.2183    1.8116 H   0  0  0  0  0  0  0  0  0  0  0  0
   -3.4597   -2.3913    1.1076 C   0  0  0  0  0  0  0  0  0  0  0  0
   -4.1577   -1.6043    1.3866 H   0  0  0  0  0  0  0  0  0  0  0  0
   -3.6807   -2.7523    0.1036 H   0  0  0  0  0  0  0  0  0  0  0  0
   -2.0477   -1.8543    1.1546 C   0  0  0  0  0  0  0  0  0  0  0  0
   -1.2227   -2.3443    1.9146 O   0  0  0  0  0  0  0  0  0  0  0  0
   -1.7517   -0.8483    0.3266 N   0  0  0  0  0  0  0  0  0  0  0  0
   -2.4847   -0.5123   -0.2804 H   0  0  0  0  0  0  0  0  0  0  0  0
   -0.4117   -0.2463    0.2186 C   0  0  1  0  0  0  0  0  0  0  0  0
    0.2987   -1.0391   -0.0285 H   0  0  0  0  0  0  0  0  0  0  0  0
   -0.4131    0.7505   -0.9636 C   0  0  0  0  0  0  0  0  0  0  0  0
    0.0914    0.2835   -1.8133 H   0  0  0  0  0  0  0  0  0  0  0  0
   -1.4449    0.9391   -1.2676 H   0  0  0  0  0  0  0  0  0  0  0  0
    0.2456    2.0843   -0.6817 C   0  0  0  0  0  0  0  0  0  0  0  0
    0.3615    3.1240   -1.5838 N   0  3  0  0  0  0  0  0  0  0  0  0
   -0.0517    3.1080   -2.5207 H   0  0  0  0  0  0  0  0  0  0  0  0
    1.0041    4.1428   -0.9789 C   0  0  0  0  0  0  0  0  0  0  0  0
    1.2307    5.1039   -1.4359 H   0  0  0  0  0  0  0  0  0  0  0  0
    1.2995    3.7715    0.2874 N   0  0  0  0  0  0  0  0  0  0  0  0
    1.7810    4.3400    0.9791 H   0  0  0  0  0  0  0  0  0  0  0  0
    0.8302    2.4812    0.4906 C   0  0  0  0  0  0  0  0  0  0  0  0
    0.9064    1.8918    1.4001 H   0  0  0  0  0  0  0  0  0  0  0  0
    0.0470    0.3465    1.5629 C   0  0  0  0  0  0  0  0  0  0  0  0
    1.1854    0.1365    1.9846 O   0  0  0  0  0  0  0  0  0  0  0  0
   -0.8551    1.0750    2.2320 N   0  0  0  0  0  0  0  0  0  0  0  0
   -1.7594    1.2031    1.8040 H   0  0  0  0  0  0  0  0  0  0  0  0
   -0.6356    1.6998    3.5400 C   0  0  0  0  0  0  0  0  0  0  0  0
   -0.4284    2.7647    3.4168 H   0  0  0  0  0  0  0  0  0  0  0  0
   -1.5268    1.5885    4.1601 H   0  0  0  0  0  0  0  0  0  0  0  0
    0.2072    1.2358    4.0566 H   0  0  0  0  0  0  0  0  0  0  0  0
  5  6  2  0  0  0  0
  5  7  1  0  0  0  0
  2  3  1  0  0  0  0
  2  4  1  0  0  0  0
  2  5  1  0  0  0  0
  1  2  1  0  0  0  0
 23 24  2  0  0  0  0
 23 25  1  0  0  0  0
 21 22  1  0  0  0  0
 19 20  1  0  0  0  0
 19 21  1  0  0  0  0
 17 18  1  0  0  0  0
 17 19  1  0  0  0  0
 15 16  1  0  0  0  0
 15 17  2  0  0  0  0
 14 15  1  0  0  0  0
 14 21  2  0  0  0  0
 11 12  1  0  0  0  0
 11 13  1  0  0  0  0
 11 14  1  0  0  0  0
  9 10  1  0  0  0  0
  9 11  1  0  0  0  0
  9 23  1  0  0  0  0
  7  8  1  0  0  0  0
  7  9  1  0  0  0  0
 27 28  1  0  0  0  0
 27 29  1  0  0  0  0
 27 30  1  0  0  0  0
 25 26  1  0  0  0  0
 25 27  1  0  0  0  0
M  CHG  1  15   1
M  END
$$$$
default_name
  -OEChem-02102213163D

 30 30  0     1  0  0  0  0  0999 V2000
   -3.5507   -3.2183    1.8116 H   0  0  0  0  0  0  0  0  0  0  0  0
   -3.4597   -2.3913    1.1076 C   0  0  0  0  0  0  0  0  0  0  0  0
   -4.1577   -1.6043    1.3866 H   0  0  0  0  0  0  0  0  0  0  0  0
   -3.6807   -2.7523    0.1036 H   0  0  0  0  0  0  0  0  0  0  0  0
   -2.0477   -1.8543    1.1546 C   0  0  0  0  0  0  0  0  0  0  0  0
   -1.2227   -2.3443    1.9146 O   0  0  0  0  0  0  0  0  0  0  0  0
   -1.7517   -0.8483    0.3266 N   0  0  0  0  0  0  0  0  0  0  0  0
   -2.4847   -0.5123   -0.2804 H   0  0  0  0  0  0  0  0  0  0  0  0
   -0.4117   -0.2463    0.2186 C   0  0  1  0  0  0  0  0  0  0  0  0
    0.2987   -1.0391   -0.0285 H   0  0  0  0  0  0  0  0  0  0  0  0
   -0.4131    0.7505   -0.9636 C   0  0  0  0  0  0  0  0  0  0  0  0
    0.0914    0.2835   -1.8133 H   0  0  0  0  0  0  0  0  0  0  0  0
   -1.4449    0.9391   -1.2676 H   0  0  0  0  0  0  0  0  0  0  0  0
    0.2456    2.0843   -0.6817 C   0  0  0  0  0  0  0  0  0  0  0  0
    0.1136    3.2197   -1.4573 N   0  3  0  0  0  0  0  0  0  0  0  0
   -0.5038    3.2787   -2.2722 H   0  0  0  0  0  0  0  0  0  0  0  0
    0.8422    4.2053   -0.8967 C   0  0  0  0  0  0  0  0  0  0  0  0
    0.9233    5.2220   -1.2761 H   0  0  0  0  0  0  0  0  0  0  0  0
    1.4347    3.7195    0.2175 N   0  0  0  0  0  0  0  0  0  0  0  0
    2.0425    4.2391    0.8452 H   0  0  0  0  0  0  0  0  0  0  0  0
    1.0706    2.3885    0.3672 C   0  0  0  0  0  0  0  0  0  0  0  0
    1.3753    1.7110    1.1601 H   0  0  0  0  0  0  0  0  0  0  0  0
    0.0470    0.3465    1.5629 C   0  0  0  0  0  0  0  0  0  0  0  0
    1.1854    0.1365    1.9846 O   0  0  0  0  0  0  0  0  0  0  0  0
   -0.8551    1.0750    2.2320 N   0  0  0  0  0  0  0  0  0  0  0  0
   -1.7594    1.2031    1.8040 H   0  0  0  0  0  0  0  0  0  0  0  0
   -0.6356    1.6998    3.5400 C   0  0  0  0  0  0  0  0  0  0  0  0
   -0.4284    2.7647    3.4168 H   0  0  0  0  0  0  0  0  0  0  0  0
   -1.5268    1.5885    4.1601 H   0  0  0  0  0  0  0  0  0  0  0  0
    0.2072    1.2358    4.0566 H   0  0  0  0  0  0  0  0  0  0  0  0
  5  6  2  0  0  0  0
  5  7  1  0  0  0  0
  2  3  1  0  0  0  0
  2  4  1  0  0  0  0
  2  5  1  0  0  0  0
  1  2  1  0  0  0  0
 23 24  2  0  0  0  0
 23 25  1  0  0  0  0
 21 22  1  0  0  0  0
 19 20  1  0  0  0  0
 19 21  1  0  0  0  0
 17 18  1  0  0  0  0
 17 19  1  0  0  0  0
 15 16  1  0  0  0  0
 15 17  2  0  0  0  0
 14 15  1  0  0  0  0
 14 21  2  0  0  0  0
 11 12  1  0  0  0  0
 11 13  1  0  0  0  0
 11 14  1  0  0  0  0
  9 10  1  0  0  0  0
  9 11  1  0  0  0  0
  9 23  1  0  0  0  0
  7  8  1  0  0  0  0
  7  9  1  0  0  0  0
 27 28  1  0  0  0  0
 27 29  1  0  0  0  0
 27 30  1  0  0  0  0
 25 26  1  0  0  0  0
 25 27  1  0  0  0  0
M  CHG  1  15   1
M  END
$$$$
default_name
  -OEChem-02102213163D

 30 30  0     1  0  0  0  0  0999 V2000
   -3.5507   -3.2183    1.8116 H   0  0  0  0  0  0  0  0  0  0  0  0
   -3.4597   -2.3913    1.1076 C   0  0  0  0  0  0  0  0  0  0  0  0
   -4.1577   -1.6043    1.3866 H   0  0  0  0  0  0  0  0  0  0  0  0
   -3.6807   -2.7523    0.1036 H   0  0  0  0  0  0  0  0  0  0  0  0
   -2.0477   -1.8543    1.1546 C   0  0  0  0  0  0  0  0  0  0  0  0
   -1.2227   -2.3443    1.9146 O   0  0  0  0  0  0  0  0  0  0  0  0
   -1.7517   -0.8483    0.3266 N   0  0  0  0  0  0  0  0  0  0  0  0
   -2.4847   -0.5123   -0.2804 H   0  0  0  0  0  0  0  0  0  0  0  0
   -0.4117   -0.2463    0.2186 C   0  0  1  0  0  0  0  0  0  0  0  0
    0.2987   -1.0391   -0.0285 H   0  0  0  0  0  0  0  0  0  0  0  0
   -0.4131    0.7505   -0.9636 C   0  0  0  0  0  0  0  0  0  0  0  0
    0.0914    0.2835   -1.8133 H   0  0  0  0  0  0  0  0  0  0  0  0
   -1.4449    0.9391   -1.2676 H   0  0  0  0  0  0  0  0  0  0  0  0
    0.2456    2.0843   -0.6817 C   0  0  0  0  0  0  0  0  0  0  0  0
   -0.1017    3.2860   -1.2679 N   0  3  0  0  0  0  0  0  0  0  0  0
   -0.8922    3.3939   -1.9099 H   0  0  0  0  0  0  0  0  0  0  0  0
    0.7016    4.2487   -0.7733 C   0  0  0  0  0  0  0  0  0  0  0  0
    0.6571    5.3031   -1.0384 H   0  0  0  0  0  0  0  0  0  0  0  0
    1.5519    3.6837    0.1134 N   0  0  0  0  0  0  0  0  0  0  0  0
    2.2695    4.1694    0.6449 H   0  0  0  0  0  0  0  0  0  0  0  0
    1.2792    2.3245    0.1828 C   0  0  0  0  0  0  0  0  0  0  0  0
    1.7822    1.5860    0.8009 H   0  0  0  0  0  0  0  0  0  0  0  0
    0.0470    0.3465    1.5629 C   0  0  0  0  0  0  0  0  0  0  0  0
    1.1854    0.1365    1.9846 O   0  0  0  0  0  0  0  0  0  0  0  0
   -0.8551    1.0750    2.2320 N   0  0  0  0  0  0  0  0  0  0  0  0
   -1.7594    1.2031    1.8040 H   0  0  0  0  0  0  0  0  0  0  0  0
   -0.6356    1.6998    3.5400 C   0  0  0  0  0  0  0  0  0  0  0  0
   -0.4284    2.7647    3.4168 H   0  0  0  0  0  0  0  0  0  0  0  0
   -1.5268    1.5885    4.1601 H   0  0  0  0  0  0  0  0  0  0  0  0
    0.2072    1.2358    4.0566 H   0  0  0  0  0  0  0  0  0  0  0  0
  5  6  2  0  0  0  0
  5  7  1  0  0  0  0
  2  3  1  0  0  0  0
  2  4  1  0  0  0  0
  2  5  1  0  0  0  0
  1  2  1  0  0  0  0
 23 24  2  0  0  0  0
 23 25  1  0  0  0  0
 21 22  1  0  0  0  0
 19 20  1  0  0  0  0
 19 21  1  0  0  0  0
 17 18  1  0  0  0  0
 17 19  1  0  0  0  0
 15 16  1  0  0  0  0
 15 17  2  0  0  0  0
 14 15  1  0  0  0  0
 14 21  2  0  0  0  0
 11 12  1  0  0  0  0
 11 13  1  0  0  0  0
 11 14  1  0  0  0  0
  9 10  1  0  0  0  0
  9 11  1  0  0  0  0
  9 23  1  0  0  0  0
  7  8  1  0  0  0  0
  7  9  1  0  0  0  0
 27 28  1  0  0  0  0
 27 29  1  0  0  0  0
 27 30  1  0  0  0  0
 25 26  1  0  0  0  0
 25 27  1  0  0  0  0
M  CHG  1  15   1
M  END
$$$$
default_name
  -OEChem-02102213163D

 30 30  0     1  0  0  0  0  0999 V2000
   -3.5507   -3.2183    1.8116 H   0  0  0  0  0  0  0  0  0  0  0  0
   -3.4597   -2.3913    1.1076 C   0  0  0  0  0  0  0  0  0  0  0  0
   -4.1577   -1.6043    1.3866 H   0  0  0  0  0  0  0  0  0  0  0  0
   -3.6807   -2.7523    0.1036 H   0  0  0  0  0  0  0  0  0  0  0  0
   -2.0477   -1.8543    1.1546 C   0  0  0  0  0  0  0  0  0  0  0  0
   -1.2227   -2.3443    1.9146 O   0  0  0  0  0  0  0  0  0  0  0  0
   -1.7517   -0.8483    0.3266 N   0  0  0  0  0  0  0  0  0  0  0  0
   -2.4847   -0.5123   -0.2804 H   0  0  0  0  0  0  0  0  0  0  0  0
   -0.4117   -0.2463    0.2186 C   0  0  1  0  0  0  0  0  0  0  0  0
    0.2987   -1.0391   -0.0285 H   0  0  0  0  0  0  0  0  0  0  0  0
   -0.4131    0.7505   -0.9636 C   0  0  0  0  0  0  0  0  0  0  0  0
    0.0914    0.2835   -1.8133 H   0  0  0  0  0  0  0  0  0  0  0  0
   -1.4449    0.9391   -1.2676 H   0  0  0  0  0  0  0  0  0  0  0  0
    0.2456    2.0843   -0.6817 C   0  0  0  0  0  0  0  0  0  0  0  0
   -0.2696    3.3183   -1.0284 N   0  3  0  0  0  0  0  0  0  0  0  0
   -1.1902    3.4456   -1.4585 H   0  0  0  0  0  0  0  0  0  0  0  0
    0.5917    4.2699   -0.6172 C   0  0  0  0  0  0  0  0  0  0  0  0
    0.4503    5.3419   -0.7389 H   0  0  0  0  0  0  0  0  0  0  0  0
    1.6430    3.6665   -0.0180 N   0  0  0  0  0  0  0  0  0  0  0  0
    2.4465    4.1355    0.3918 H   0  0  0  0  0  0  0  0  0  0  0  0
    1.4417    2.2935   -0.0500 C   0  0  0  0  0  0  0  0  0  0  0  0
    2.0994    1.5253    0.3471 H   0  0  0  0  0  0  0  0  0  0  0  0
    0.0470    0.3465    1.5629 C   0  0  0  0  0  0  0  0  0  0  0  0
    1.1854    0.1365    1.9846 O   0  0  0  0  0  0  0  0  0  0  0  0
   -0.8551    1.0750    2.2320 N   0  0  0  0  0  0  0  0  0  0  0  0
   -1.7594    1.2031    1.8040 H   0  0  0  0  0  0  0  0  0  0  0  0
   -0.6356    1.6998    3.5400 C   0  0  0  0  0  0  0  0  0  0  0  0
   -0.4284    2.7647    3.4168 H   0  0  0  0  0  0  0  0  0  0  0  0
   -1.5268    1.5885    4.1601 H   0  0  0  0  0  0  0  0  0  0  0  0
    0.2072    1.2358    4.0566 H   0  0  0  0  0  0  0  0  0  0  0  0
  5  6  2  0  0  0  0
  5  7  1  0  0  0  0
  2  3  1  0  0  0  0
  2  4  1  0  0  0  0
  2  5  1  0  0  0  0
  1  2  1  0  0  0  0
 23 24  2  0  0  0  0
 23 25  1  0  0  0  0
 21 22  1  0  0  0  0
 19 20  1  0  0  0  0
 19 21  1  0  0  0  0
 17 18  1  0  0  0  0
 17 19  1  0  0  0  0
 15 16  1  0  0  0  0
 15 17  2  0  0  0  0
 14 15  1  0  0  0  0
 14 21  2  0  0  0  0
 11 12  1  0  0  0  0
 11 13  1  0  0  0  0
 11 14  1  0  0  0  0
  9 10  1  0  0  0  0
  9 11  1  0  0  0  0
  9 23  1  0  0  0  0
  7  8  1  0  0  0  0
  7  9  1  0  0  0  0
 27 28  1  0  0  0  0
 27 29  1  0  0  0  0
 27 30  1  0  0  0  0
 25 26  1  0  0  0  0
 25 27  1  0  0  0  0
M  CHG  1  15   1
M  END
$$$$
default_name
  -OEChem-02102213163D

 30 30  0     1  0  0  0  0  0999 V2000
   -3.5507   -3.2183    1.8116 H   0  0  0  0  0  0  0  0  0  0  0  0
   -3.4597   -2.3913    1.1076 C   0  0  0  0  0  0  0  0  0  0  0  0
   -4.1577   -1.6043    1.3866 H   0  0  0  0  0  0  0  0  0  0  0  0
   -3.6807   -2.7523    0.1036 H   0  0  0  0  0  0  0  0  0  0  0  0
   -2.0477   -1.8543    1.1546 C   0  0  0  0  0  0  0  0  0  0  0  0
   -1.2227   -2.3443    1.9146 O   0  0  0  0  0  0  0  0  0  0  0  0
   -1.7517   -0.8483    0.3266 N   0  0  0  0  0  0  0  0  0  0  0  0
   -2.4847   -0.5123   -0.2804 H   0  0  0  0  0  0  0  0  0  0  0  0
   -0.4117   -0.2463    0.2186 C   0  0  1  0  0  0  0  0  0  0  0  0
    0.2987   -1.0391   -0.0285 H   0  0  0  0  0  0  0  0  0  0  0  0
   -0.4131    0.7505   -0.9636 C   0  0  0  0  0  0  0  0  0  0  0  0
    0.0914    0.2835   -1.8133 H   0  0  0  0  0  0  0  0  0  0  0  0
   -1.4449    0.9391   -1.2676 H   0  0  0  0  0  0  0  0  0  0  0  0
    0.2456    2.0843   -0.6817 C   0  0  0  0  0  0  0  0  0  0  0  0
   -0.3788    3.3144   -0.7551 N   0  3  0  0  0  0  0  0  0  0  0  0
   -1.3777    3.4304   -0.9486 H   0  0  0  0  0  0  0  0  0  0  0  0
    0.5202    4.2676   -0.4390 C   0  0  0  0  0  0  0  0  0  0  0  0
    0.3170    5.3358   -0.3981 H   0  0  0  0  0  0  0  0  0  0  0  0
    1.7020    3.6690   -0.1676 N   0  0  0  0  0  0  0  0  0  0  0  0
    2.5613    4.1398    0.1032 H   0  0  0  0  0  0  0  0  0  0  0  0
    1.5471    2.2976   -0.3155 C   0  0  0  0  0  0  0  0  0  0  0  0
    2.3053    1.5330   -0.1703 H   0  0  0  0  0  0  0  0  0  0  0  0
    0.0470    0.3465    1.5629 C   0  0  0  0  0  0  0  0  0  0  0  0
    1.1854    0.1365    1.9846 O   0  0  0  0  0  0  0  0  0  0  0  0
   -0.8551    1.0750    2.2320 N   0  0  0  0  0  0  0  0  0  0  0  0
   -1.7594    1.2031    1.8040 H   0  0  0  0  0  0  0  0  0  0  0  0
   -0.6356    1.6998    3.5400 C   0  0  0  0  0  0  0  0  0  0  0  0
   -0.4284    2.7647    3.4168 H   0  0  0  0  0  0  0  0  0  0  0  0
   -1.5268    1.5885    4.1601 H   0  0  0  0  0  0  0  0  0  0  0  0
    0.2072    1.2358    4.0566 H   0  0  0  0  0  0  0  0  0  0  0  0
  5  6  2  0  0  0  0
  5  7  1  0  0  0  0
  2  3  1  0  0  0  0
  2  4  1  0  0  0  0
  2  5  1  0  0  0  0
  1  2  1  0  0  0  0
 23 24  2  0  0  0  0
 23 25  1  0  0  0  0
 21 22  1  0  0  0  0
 19 20  1  0  0  0  0
 19 21  1  0  0  0  0
 17 18  1  0  0  0  0
 17 19  1  0  0  0  0
 15 16  1  0  0  0  0
 15 17  2  0  0  0  0
 14 15  1  0  0  0  0
 14 21  2  0  0  0  0
 11 12  1  0  0  0  0
 11 13  1  0  0  0  0
 11 14  1  0  0  0  0
  9 10  1  0  0  0  0
  9 11  1  0  0  0  0
  9 23  1  0  0  0  0
  7  8  1  0  0  0  0
  7  9  1  0  0  0  0
 27 28  1  0  0  0  0
 27 29  1  0  0  0  0
 27 30  1  0  0  0  0
 25 26  1  0  0  0  0
 25 27  1  0  0  0  0
M  CHG  1  15   1
M  END
$$$$
default_name
  -OEChem-02102213163D

 30 30  0     1  0  0  0  0  0999 V2000
   -3.5507   -3.2183    1.8116 H   0  0  0  0  0  0  0  0  0  0  0  0
   -3.4597   -2.3913    1.1076 C   0  0  0  0  0  0  0  0  0  0  0  0
   -4.1577   -1.6043    1.3866 H   0  0  0  0  0  0  0  0  0  0  0  0
   -3.6807   -2.7523    0.1036 H   0  0  0  0  0  0  0  0  0  0  0  0
   -2.0477   -1.8543    1.1546 C   0  0  0  0  0  0  0  0  0  0  0  0
   -1.2227   -2.3443    1.9146 O   0  0  0  0  0  0  0  0  0  0  0  0
   -1.7517   -0.8483    0.3266 N   0  0  0  0  0  0  0  0  0  0  0  0
   -2.4847   -0.5123   -0.2804 H   0  0  0  0  0  0  0  0  0  0  0  0
   -0.4117   -0.2463    0.2186 C   0  0  1  0  0  0  0  0  0  0  0  0
    0.2987   -1.0391   -0.0285 H   0  0  0  0  0  0  0  0  0  0  0  0
   -0.4131    0.7505   -0.9636 C   0  0  0  0  0  0  0  0  0  0  0  0
    0.0914    0.2835   -1.8133 H   0  0  0  0  0  0  0  0  0  0  0  0
   -1.4449    0.9391   -1.2676 H   0  0  0  0  0  0  0  0  0  0  0  0
    0.2456    2.0843   -0.6817 C   0  0  0  0  0  0  0  0  0  0  0  0
   -0.4217    3.2746   -0.4667 N   0  3  0  0  0  0  0  0  0  0  0  0
   -1.4417    3.3492   -0.4151 H   0  0  0  0  0  0  0  0  0  0  0  0
    0.4919    4.2418   -0.2508 C   0  0  0  0  0  0  0  0  0  0  0  0
    0.2661    5.2850   -0.0393 H   0  0  0  0  0  0  0  0  0  0  0  0
    1.7247    3.6911   -0.3253 N   0  0  0  0  0  0  0  0  0  0  0  0
    2.6062    4.1820   -0.2013 H   0  0  0  0  0  0  0  0  0  0  0  0
    1.5881    2.3365   -0.5955 C   0  0  0  0  0  0  0  0  0  0  0  0
    2.3857    1.6087   -0.7162 H   0  0  0  0  0  0  0  0  0  0  0  0
    0.0470    0.3465    1.5629 C   0  0  0  0  0  0  0  0  0  0  0  0
    1.1854    0.1365    1.9846 O   0  0  0  0  0  0  0  0  0  0  0  0
   -0.8551    1.0750    2.2320 N   0  0  0  0  0  0  0  0  0  0  0  0
   -1.7594    1.2031    1.8040 H   0  0  0  0  0  0  0  0  0  0  0  0
   -0.6356    1.6998    3.5400 C   0  0  0  0  0  0  0  0  0  0  0  0
   -0.4284    2.7647    3.4168 H   0  0  0  0  0  0  0  0  0  0  0  0
   -1.5268    1.5885    4.1601 H   0  0  0  0  0  0  0  0  0  0  0  0
    0.2072    1.2358    4.0566 H   0  0  0  0  0  0  0  0  0  0  0  0
  5  6  2  0  0  0  0
  5  7  1  0  0  0  0
  2  3  1  0  0  0  0
  2  4  1  0  0  0  0
  2  5  1  0  0  0  0
  1  2  1  0  0  0  0
 23 24  2  0  0  0  0
 23 25  1  0  0  0  0
 21 22  1  0  0  0  0
 19 20  1  0  0  0  0
 19 21  1  0  0  0  0
 17 18  1  0  0  0  0
 17 19  1  0  0  0  0
 15 16  1  0  0  0  0
 15 17  2  0  0  0  0
 14 15  1  0  0  0  0
 14 21  2  0  0  0  0
 11 12  1  0  0  0  0
 11 13  1  0  0  0  0
 11 14  1  0  0  0  0
  9 10  1  0  0  0  0
  9 11  1  0  0  0  0
  9 23  1  0  0  0  0
  7  8  1  0  0  0  0
  7  9  1  0  0  0  0
 27 28  1  0  0  0  0
 27 29  1  0  0  0  0
 27 30  1  0  0  0  0
 25 26  1  0  0  0  0
 25 27  1  0  0  0  0
M  CHG  1  15   1
M  END
$$$$
default_name
  -OEChem-02102213163D

 30 30  0     1  0  0  0  0  0999 V2000
   -3.5507   -3.2183    1.8116 H   0  0  0  0  0  0  0  0  0  0  0  0
   -3.4597   -2.3913    1.1076 C   0  0  0  0  0  0  0  0  0  0  0  0
   -4.1577   -1.6043    1.3866 H   0  0  0  0  0  0  0  0  0  0  0  0
   -3.6807   -2.7523    0.1036 H   0  0  0  0  0  0  0  0  0  0  0  0
   -2.0477   -1.8543    1.1546 C   0  0  0  0  0  0  0  0  0  0  0  0
   -1.2227   -2.3443    1.9146 O   0  0  0  0  0  0  0  0  0  0  0  0
   -1.7517   -0.8483    0.3266 N   0  0  0  0  0  0  0  0  0  0  0  0
   -2.4847   -0.5123   -0.2804 H   0  0  0  0  0  0  0  0  0  0  0  0
   -0.4117   -0.2463    0.2186 C   0  0  1  0  0  0  0  0  0  0  0  0
    0.2987   -1.0391   -0.0285 H   0  0  0  0  0  0  0  0  0  0  0  0
   -0.4131    0.7505   -0.9636 C   0  0  0  0  0  0  0  0  0  0  0  0
    0.0914    0.2835   -1.8133 H   0  0  0  0  0  0  0  0  0  0  0  0
   -1.4449    0.9391   -1.2676 H   0  0  0  0  0  0  0  0  0  0  0  0
    0.2456    2.0843   -0.6817 C   0  0  0  0  0  0  0  0  0  0  0  0
   -0.3955    3.2016   -0.1827 N   0  3  0  0  0  0  0  0  0  0  0  0
   -1.3781    3.2077    0.1057 H   0  0  0  0  0  0  0  0  0  0  0  0
    0.5087    4.1943   -0.0655 C   0  0  0  0  0  0  0  0  0  0  0  0
    0.3013    5.1931    0.3133 H   0  0  0  0  0  0  0  0  0  0  0  0
    1.7096    3.7313   -0.4802 N   0  0  0  0  0  0  0  0  0  0  0  0
    2.5781    4.2592   -0.5009 H   0  0  0  0  0  0  0  0  0  0  0  0
    1.5621    2.4076   -0.8709 C   0  0  0  0  0  0  0  0  0  0  0  0
    2.3353    1.7471   -1.2534 H   0  0  0  0  0  0  0  0  0  0  0  0
    0.0470    0.3465    1.5629 C   0  0  0  0  0  0  0  0  0  0  0  0
    1.1854    0.1365    1.9846 O   0  0  0  0  0  0  0  0  0  0  0  0
   -0.8551    1.0750    2.2320 N   0  0  0  0  0  0  0  0  0  0  0  0
   -1.7594    1.2031    1.8040 H   0  0  0  0  0  0  0  0  0  0  0  0
   -0.6356    1.6998    3.5400 C   0  0  0  0  0  0  0  0  0  0  0  0
   -0.4284    2.7647    3.4168 H   0  0  0  0  0  0  0  0  0  0  0  0
   -1.5268    1.5885    4.1601 H   0  0  0  0  0  0  0  0  0  0  0  0
    0.2072    1.2358    4.0566 H   0  0  0  0  0  0  0  0  0  0  0  0
  5  6  2  0  0  0  0
  5  7  1  0  0  0  0
  2  3  1  0  0  0  0
  2  4  1  0  0  0  0
  2  5  1  0  0  0  0
  1  2  1  0  0  0  0
 23 24  2  0  0  0  0
 23 25  1  0  0  0  0
 21 22  1  0  0  0  0
 19 20  1  0  0  0  0
 19 21  1  0  0  0  0
 17 18  1  0  0  0  0
 17 19  1  0  0  0  0
 15 16  1  0  0  0  0
 15 17  2  0  0  0  0
 14 15  1  0  0  0  0
 14 21  2  0  0  0  0
 11 12  1  0  0  0  0
 11 13  1  0  0  0  0
 11 14  1  0  0  0  0
  9 10  1  0  0  0  0
  9 11  1  0  0  0  0
  9 23  1  0  0  0  0
  7  8  1  0  0  0  0
  7  9  1  0  0  0  0
 27 28  1  0  0  0  0
 27 29  1  0  0  0  0
 27 30  1  0  0  0  0
 25 26  1  0  0  0  0
 25 27  1  0  0  0  0
M  CHG  1  15   1
M  END
$$$$
default_name
  -OEChem-02102213163D

 30 30  0     1  0  0  0  0  0999 V2000
   -3.5507   -3.2183    1.8116 H   0  0  0  0  0  0  0  0  0  0  0  0
   -3.4597   -2.3913    1.1076 C   0  0  0  0  0  0  0  0  0  0  0  0
   -4.1577   -1.6043    1.3866 H   0  0  0  0  0  0  0  0  0  0  0  0
   -3.6807   -2.7523    0.1036 H   0  0  0  0  0  0  0  0  0  0  0  0
   -2.0477   -1.8543    1.1546 C   0  0  0  0  0  0  0  0  0  0  0  0
   -1.2227   -2.3443    1.9146 O   0  0  0  0  0  0  0  0  0  0  0  0
   -1.7517   -0.8483    0.3266 N   0  0  0  0  0  0  0  0  0  0  0  0
   -2.4847   -0.5123   -0.2804 H   0  0  0  0  0  0  0  0  0  0  0  0
   -0.4117   -0.2463    0.2186 C   0  0  1  0  0  0  0  0  0  0  0  0
    0.2987   -1.0391   -0.0285 H   0  0  0  0  0  0  0  0  0  0  0  0
   -0.4131    0.7505   -0.9636 C   0  0  0  0  0  0  0  0  0  0  0  0
    0.0914    0.2835   -1.8133 H   0  0  0  0  0  0  0  0  0  0  0  0
   -1.4449    0.9391   -1.2676 H   0  0  0  0  0  0  0  0  0  0  0  0
    0.2456    2.0843   -0.6817 C   0  0  0  0  0  0  0  0  0  0  0  0
   -0.3019    3.1005    0.0773 N   0  3  0  0  0  0  0  0  0  0  0  0
   -1.1910    3.0154    0.5783 H   0  0  0  0  0  0  0  0  0  0  0  0
    0.5695    4.1284    0.1044 C   0  0  0  0  0  0  0  0  0  0  0  0
    0.4201    5.0663    0.6354 H   0  0  0  0  0  0  0  0  0  0  0  0
    1.6577    3.7869   -0.6220 N   0  0  0  0  0  0  0  0  0  0  0  0
    2.4790    4.3662   -0.7751 H   0  0  0  0  0  0  0  0  0  0  0  0
    1.4707    2.5060   -1.1230 C   0  0  0  0  0  0  0  0  0  0  0  0
    2.1575    1.9389   -1.7451 H   0  0  0  0  0  0  0  0  0  0  0  0
    0.0470    0.3465    1.5629 C   0  0  0  0  0  0  0  0  0  0  0  0
    1.1854    0.1365    1.9846 O   0  0  0  0  0  0  0  0  0  0  0  0
   -0.8551    1.0750    2.2320 N   0  0  0  0  0  0  0  0  0  0  0  0
   -1.7594    1.2031    1.8040 H   0  0  0  0  0  0  0  0  0  0  0  0
   -0.6356    1.6998    3.5400 C   0  0  0  0  0  0  0  0  0  0  0  0
   -0.4284    2.7647    3.4168 H   0  0  0  0  0  0  0  0  0  0  0  0
   -1.5268    1.5885    4.1601 H   0  0  0  0  0  0  0  0  0  0  0  0
    0.2072    1.2358    4.0566 H   0  0  0  0  0  0  0  0  0  0  0  0
  5  6  2  0  0  0  0
  5  7  1  0  0  0  0
  2  3  1  0  0  0  0
  2  4  1  0  0  0  0
  2  5  1  0  0  0  0
  1  2  1  0  0  0  0
 23 24  2  0  0  0  0
 23 25  1  0  0  0  0
 21 22  1  0  0  0  0
 19 20  1  0  0  0  0
 19 21  1  0  0  0  0
 17 18  1  0  0  0  0
 17 19  1  0  0  0  0
 15 16  1  0  0  0  0
 15 17  2  0  0  0  0
 14 15  1  0  0  0  0
 14 21  2  0  0  0  0
 11 12  1  0  0  0  0
 11 13  1  0  0  0  0
 11 14  1  0  0  0  0
  9 10  1  0  0  0  0
  9 11  1  0  0  0  0
  9 23  1  0  0  0  0
  7  8  1  0  0  0  0
  7  9  1  0  0  0  0
 27 28  1  0  0  0  0
 27 29  1  0  0  0  0
 27 30  1  0  0  0  0
 25 26  1  0  0  0  0
 25 27  1  0  0  0  0
M  CHG  1  15   1
M  END
$$$$
default_name
  -OEChem-02102213163D

 30 30  0     1  0  0  0  0  0999 V2000
   -3.5507   -3.2183    1.8116 H   0  0  0  0  0  0  0  0  0  0  0  0
   -3.4597   -2.3913    1.1076 C   0  0  0  0  0  0  0  0  0  0  0  0
   -4.1577   -1.6043    1.3866 H   0  0  0  0  0  0  0  0  0  0  0  0
   -3.6807   -2.7523    0.1036 H   0  0  0  0  0  0  0  0  0  0  0  0
   -2.0477   -1.8543    1.1546 C   0  0  0  0  0  0  0  0  0  0  0  0
   -1.2227   -2.3443    1.9146 O   0  0  0  0  0  0  0  0  0  0  0  0
   -1.7517   -0.8483    0.3266 N   0  0  0  0  0  0  0  0  0  0  0  0
   -2.4847   -0.5123   -0.2804 H   0  0  0  0  0  0  0  0  0  0  0  0
   -0.4117   -0.2463    0.2186 C   0  0  1  0  0  0  0  0  0  0  0  0
    0.2987   -1.0391   -0.0285 H   0  0  0  0  0  0  0  0  0  0  0  0
   -0.4131    0.7505   -0.9636 C   0  0  0  0  0  0  0  0  0  0  0  0
    0.0914    0.2835   -1.8133 H   0  0  0  0  0  0  0  0  0  0  0  0
   -1.4449    0.9391   -1.2676 H   0  0  0  0  0  0  0  0  0  0  0  0
    0.2456    2.0843   -0.6817 C   0  0  0  0  0  0  0  0  0  0  0  0
   -0.1473    2.9779    0.2958 N   0  3  0  0  0  0  0  0  0  0  0  0
   -0.8933    2.7855    0.9705 H   0  0  0  0  0  0  0  0  0  0  0  0
    0.6701    4.0485    0.2471 C   0  0  0  0  0  0  0  0  0  0  0  0
    0.6144    4.9133    0.9052 H   0  0  0  0  0  0  0  0  0  0  0  0
    1.5727    3.8540   -0.7408 N   0  0  0  0  0  0  0  0  0  0  0  0
    2.3155    4.4956   -1.0054 H   0  0  0  0  0  0  0  0  0  0  0  0
    1.3202    2.6251   -1.3345 C   0  0  0  0  0  0  0  0  0  0  0  0
    1.8644    2.1709   -2.1579 H   0  0  0  0  0  0  0  0  0  0  0  0
    0.0470    0.3465    1.5629 C   0  0  0  0  0  0  0  0  0  0  0  0
    1.1854    0.1365    1.9846 O   0  0  0  0  0  0  0  0  0  0  0  0
   -0.8551    1.0750    2.2320 N   0  0  0  0  0  0  0  0  0  0  0  0
   -1.7594    1.2031    1.8040 H   0  0  0  0  0  0  0  0  0  0  0  0
   -0.6356    1.6998    3.5400 C   0  0  0  0  0  0  0  0  0  0  0  0
   -0.4284    2.7647    3.4168 H   0  0  0  0  0  0  0  0  0  0  0  0
   -1.5268    1.5885    4.1601 H   0  0  0  0  0  0  0  0  0  0  0  0
    0.2072    1.2358    4.0566 H   0  0  0  0  0  0  0  0  0  0  0  0
  5  6  2  0  0  0  0
  5  7  1  0  0  0  0
  2  3  1  0  0  0  0
  2  4  1  0  0  0  0
  2  5  1  0  0  0  0
  1  2  1  0  0  0  0
 23 24  2  0  0  0  0
 23 25  1  0  0  0  0
 21 22  1  0  0  0  0
 19 20  1  0  0  0  0
 19 21  1  0  0  0  0
 17 18  1  0  0  0  0
 17 19  1  0  0  0  0
 15 16  1  0  0  0  0
 15 17  2  0  0  0  0
 14 15  1  0  0  0  0
 14 21  2  0  0  0  0
 11 12  1  0  0  0  0
 11 13  1  0  0  0  0
 11 14  1  0  0  0  0
  9 10  1  0  0  0  0
  9 11  1  0  0  0  0
  9 23  1  0  0  0  0
  7  8  1  0  0  0  0
  7  9  1  0  0  0  0
 27 28  1  0  0  0  0
 27 29  1  0  0  0  0
 27 30  1  0  0  0  0
 25 26  1  0  0  0  0
 25 27  1  0  0  0  0
M  CHG  1  15   1
M  END
$$$$
default_name
  -OEChem-02102213163D

 30 30  0     1  0  0  0  0  0999 V2000
   -3.5507   -3.2183    1.8116 H   0  0  0  0  0  0  0  0  0  0  0  0
   -3.4597   -2.3913    1.1076 C   0  0  0  0  0  0  0  0  0  0  0  0
   -4.1577   -1.6043    1.3866 H   0  0  0  0  0  0  0  0  0  0  0  0
   -3.6807   -2.7523    0.1036 H   0  0  0  0  0  0  0  0  0  0  0  0
   -2.0477   -1.8543    1.1546 C   0  0  0  0  0  0  0  0  0  0  0  0
   -1.2227   -2.3443    1.9146 O   0  0  0  0  0  0  0  0  0  0  0  0
   -1.7517   -0.8483    0.3266 N   0  0  0  0  0  0  0  0  0  0  0  0
   -2.4847   -0.5123   -0.2804 H   0  0  0  0  0  0  0  0  0  0  0  0
   -0.4117   -0.2463    0.2186 C   0  0  1  0  0  0  0  0  0  0  0  0
    0.2987   -1.0391   -0.0285 H   0  0  0  0  0  0  0  0  0  0  0  0
   -0.4131    0.7505   -0.9636 C   0  0  0  0  0  0  0  0  0  0  0  0
    0.0914    0.2835   -1.8133 H   0  0  0  0  0  0  0  0  0  0  0  0
   -1.4449    0.9391   -1.2676 H   0  0  0  0  0  0  0  0  0  0  0  0
    0.2456    2.0843   -0.6817 C   0  0  0  0  0  0  0  0  0  0  0  0
    0.0577    2.8425    0.4577 N   0  3  0  0  0  0  0  0  0  0  0  0
   -0.5052    2.5336    1.2555 H   0  0  0  0  0  0  0  0  0  0  0  0
    0.8037    3.9601    0.3531 C   0  0  0  0  0  0  0  0  0  0  0  0
    0.8710    4.7445    1.1043 H   0  0  0  0  0  0  0  0  0  0  0  0
    1.4602    3.9281   -0.8286 N   0  0  0  0  0  0  0  0  0  0  0  0
    2.0989    4.6386   -1.1760 H   0  0  0  0  0  0  0  0  0  0  0  0
    1.1208    2.7566   -1.4912 C   0  0  0  0  0  0  0  0  0  0  0  0
    1.4760    2.4274   -2.4638 H   0  0  0  0  0  0  0  0  0  0  0  0
    0.0470    0.3465    1.5629 C   0  0  0  0  0  0  0  0  0  0  0  0
    1.1854    0.1365    1.9846 O   0  0  0  0  0  0  0  0  0  0  0  0
   -0.8551    1.0750    2.2320 N   0  0  0  0  0  0  0  0  0  0  0  0
   -1.7594    1.2031    1.8040 H   0  0  0  0  0  0  0  0  0  0  0  0
   -0.6356    1.6998    3.5400 C   0  0  0  0  0  0  0  0  0  0  0  0
   -0.4284    2.7647    3.4168 H   0  0  0  0  0  0  0  0  0  0  0  0
   -1.5268    1.5885    4.1601 H   0  0  0  0  0  0  0  0  0  0  0  0
    0.2072    1.2358    4.0566 H   0  0  0  0  0  0  0  0  0  0  0  0
  5  6  2  0  0  0  0
  5  7  1  0  0  0  0
  2  3  1  0  0  0  0
  2  4  1  0  0  0  0
  2  5  1  0  0  0  0
  1  2  1  0  0  0  0
 23 24  2  0  0  0  0
 23 25  1  0  0  0  0
 21 22  1  0  0  0  0
 19 20  1  0  0  0  0
 19 21  1  0  0  0  0
 17 18  1  0  0  0  0
 17 19  1  0  0  0  0
 15 16  1  0  0  0  0
 15 17  2  0  0  0  0
 14 15  1  0  0  0  0
 14 21  2  0  0  0  0
 11 12  1  0  0  0  0
 11 13  1  0  0  0  0
 11 14  1  0  0  0  0
  9 10  1  0  0  0  0
  9 11  1  0  0  0  0
  9 23  1  0  0  0  0
  7  8  1  0  0  0  0
  7  9  1  0  0  0  0
 27 28  1  0  0  0  0
 27 29  1  0  0  0  0
 27 30  1  0  0  0  0
 25 26  1  0  0  0  0
 25 27  1  0  0  0  0
M  CHG  1  15   1
M  END
$$$$
default_name
  -OEChem-02102213163D

 30 30  0     1  0  0  0  0  0999 V2000
   -3.5507   -3.2183    1.8116 H   0  0  0  0  0  0  0  0  0  0  0  0
   -3.4597   -2.3913    1.1076 C   0  0  0  0  0  0  0  0  0  0  0  0
   -4.1577   -1.6043    1.3866 H   0  0  0  0  0  0  0  0  0  0  0  0
   -3.6807   -2.7523    0.1036 H   0  0  0  0  0  0  0  0  0  0  0  0
   -2.0477   -1.8543    1.1546 C   0  0  0  0  0  0  0  0  0  0  0  0
   -1.2227   -2.3443    1.9146 O   0  0  0  0  0  0  0  0  0  0  0  0
   -1.7517   -0.8483    0.3266 N   0  0  0  0  0  0  0  0  0  0  0  0
   -2.4847   -0.5123   -0.2804 H   0  0  0  0  0  0  0  0  0  0  0  0
   -0.4117   -0.2463    0.2186 C   0  0  1  0  0  0  0  0  0  0  0  0
    0.2987   -1.0391   -0.0285 H   0  0  0  0  0  0  0  0  0  0  0  0
   -0.4131    0.7505   -0.9636 C   0  0  0  0  0  0  0  0  0  0  0  0
    0.0914    0.2835   -1.8133 H   0  0  0  0  0  0  0  0  0  0  0  0
   -1.4449    0.9391   -1.2676 H   0  0  0  0  0  0  0  0  0  0  0  0
    0.2456    2.0843   -0.6817 C   0  0  0  0  0  0  0  0  0  0  0  0
    0.2991    2.7033    0.5522 N   0  3  0  0  0  0  0  0  0  0  0  0
   -0.0532    2.2769    1.4140 H   0  0  0  0  0  0  0  0  0  0  0  0
    0.9611    3.8693    0.4151 C   0  0  0  0  0  0  0  0  0  0  0  0
    1.1724    4.5715    1.2190 H   0  0  0  0  0  0  0  0  0  0  0  0
    1.3279    4.0042   -0.8794 N   0  0  0  0  0  0  0  0  0  0  0  0
    1.8438    4.7856   -1.2753 H   0  0  0  0  0  0  0  0  0  0  0  0
    0.8862    2.8918   -1.5822 C   0  0  0  0  0  0  0  0  0  0  0  0
    1.0187    2.6909   -2.6417 H   0  0  0  0  0  0  0  0  0  0  0  0
    0.0470    0.3465    1.5629 C   0  0  0  0  0  0  0  0  0  0  0  0
    1.1854    0.1365    1.9846 O   0  0  0  0  0  0  0  0  0  0  0  0
   -0.8551    1.0750    2.2320 N   0  0  0  0  0  0  0  0  0  0  0  0
   -1.7594    1.2031    1.8040 H   0  0  0  0  0  0  0  0  0  0  0  0
   -0.6356    1.6998    3.5400 C   0  0  0  0  0  0  0  0  0  0  0  0
   -0.4284    2.7647    3.4168 H   0  0  0  0  0  0  0  0  0  0  0  0
   -1.5268    1.5885    4.1601 H   0  0  0  0  0  0  0  0  0  0  0  0
    0.2072    1.2358    4.0566 H   0  0  0  0  0  0  0  0  0  0  0  0
  5  6  2  0  0  0  0
  5  7  1  0  0  0  0
  2  3  1  0  0  0  0
  2  4  1  0  0  0  0
  2  5  1  0  0  0  0
  1  2  1  0  0  0  0
 23 24  2  0  0  0  0
 23 25  1  0  0  0  0
 21 22  1  0  0  0  0
 19 20  1  0  0  0  0
 19 21  1  0  0  0  0
 17 18  1  0  0  0  0
 17 19  1  0  0  0  0
 15 16  1  0  0  0  0
 15 17  2  0  0  0  0
 14 15  1  0  0  0  0
 14 21  2  0  0  0  0
 11 12  1  0  0  0  0
 11 13  1  0  0  0  0
 11 14  1  0  0  0  0
  9 10  1  0  0  0  0
  9 11  1  0  0  0  0
  9 23  1  0  0  0  0
  7  8  1  0  0  0  0
  7  9  1  0  0  0  0
 27 28  1  0  0  0  0
 27 29  1  0  0  0  0
 27 30  1  0  0  0  0
 25 26  1  0  0  0  0
 25 27  1  0  0  0  0
M  CHG  1  15   1
M  END
$$$$
default_name
  -OEChem-02102213163D

 30 30  0     1  0  0  0  0  0999 V2000
   -3.5507   -3.2183    1.8116 H   0  0  0  0  0  0  0  0  0  0  0  0
   -3.4597   -2.3913    1.1076 C   0  0  0  0  0  0  0  0  0  0  0  0
   -4.1577   -1.6043    1.3866 H   0  0  0  0  0  0  0  0  0  0  0  0
   -3.6807   -2.7523    0.1036 H   0  0  0  0  0  0  0  0  0  0  0  0
   -2.0477   -1.8543    1.1546 C   0  0  0  0  0  0  0  0  0  0  0  0
   -1.2227   -2.3443    1.9146 O   0  0  0  0  0  0  0  0  0  0  0  0
   -1.7517   -0.8483    0.3266 N   0  0  0  0  0  0  0  0  0  0  0  0
   -2.4847   -0.5123   -0.2804 H   0  0  0  0  0  0  0  0  0  0  0  0
   -0.4117   -0.2463    0.2186 C   0  0  1  0  0  0  0  0  0  0  0  0
    0.2987   -1.0391   -0.0285 H   0  0  0  0  0  0  0  0  0  0  0  0
   -0.4131    0.7505   -0.9636 C   0  0  0  0  0  0  0  0  0  0  0  0
    0.0914    0.2835   -1.8133 H   0  0  0  0  0  0  0  0  0  0  0  0
   -1.4449    0.9391   -1.2676 H   0  0  0  0  0  0  0  0  0  0  0  0
    0.2456    2.0843   -0.6817 C   0  0  0  0  0  0  0  0  0  0  0  0
    0.5606    2.5698    0.5727 N   0  3  0  0  0  0  0  0  0  0  0  0
    0.4319    2.0329    1.4352 H   0  0  0  0  0  0  0  0  0  0  0  0
    1.1317    3.7822    0.4288 C   0  0  0  0  0  0  0  0  0  0  0  0
    1.4980    4.4059    1.2417 H   0  0  0  0  0  0  0  0  0  0  0  0
    1.1849    4.0770   -0.8898 N   0  0  0  0  0  0  0  0  0  0  0  0
    1.5677    4.9264   -1.2965 H   0  0  0  0  0  0  0  0  0  0  0  0
    0.6323    3.0212   -1.6015 C   0  0  0  0  0  0  0  0  0  0  0  0
    0.5237    2.9433   -2.6797 H   0  0  0  0  0  0  0  0  0  0  0  0
    0.0470    0.3465    1.5629 C   0  0  0  0  0  0  0  0  0  0  0  0
    1.1854    0.1365    1.9846 O   0  0  0  0  0  0  0  0  0  0  0  0
   -0.8551    1.0750    2.2320 N   0  0  0  0  0  0  0  0  0  0  0  0
   -1.7594    1.2031    1.8040 H   0  0  0  0  0  0  0  0  0  0  0  0
   -0.6356    1.6998    3.5400 C   0  0  0  0  0  0  0  0  0  0  0  0
   -0.4284    2.7647    3.4168 H   0  0  0  0  0  0  0  0  0  0  0  0
   -1.5268    1.5885    4.1601 H   0  0  0  0  0  0  0  0  0  0  0  0
    0.2072    1.2358    4.0566 H   0  0  0  0  0  0  0  0  0  0  0  0
  5  6  2  0  0  0  0
  5  7  1  0  0  0  0
  2  3  1  0  0  0  0
  2  4  1  0  0  0  0
  2  5  1  0  0  0  0
  1  2  1  0  0  0  0
 23 24  2  0  0  0  0
 23 25  1  0  0  0  0
 21 22  1  0  0  0  0
 19 20  1  0  0  0  0
 19 21  1  0  0  0  0
 17 18  1  0  0  0  0
 17 19  1  0  0  0  0
 15 16  1  0  0  0  0
 15 17  2  0  0  0  0
 14 15  1  0  0  0  0
 14 21  2  0  0  0  0
 11 12  1  0  0  0  0
 11 13  1  0  0  0  0
 11 14  1  0  0  0  0
  9 10  1  0  0  0  0
  9 11  1  0  0  0  0
  9 23  1  0  0  0  0
  7  8  1  0  0  0  0
  7  9  1  0  0  0  0
 27 28  1  0  0  0  0
 27 29  1  0  0  0  0
 27 30  1  0  0  0  0
 25 26  1  0  0  0  0
 25 27  1  0  0  0  0
M  CHG  1  15   1
M  END
$$$$
default_name
  -OEChem-02102213163D

 30 30  0     1  0  0  0  0  0999 V2000
   -3.5507   -3.2183    1.8116 H   0  0  0  0  0  0  0  0  0  0  0  0
   -3.4597   -2.3913    1.1076 C   0  0  0  0  0  0  0  0  0  0  0  0
   -4.1577   -1.6043    1.3866 H   0  0  0  0  0  0  0  0  0  0  0  0
   -3.6807   -2.7523    0.1036 H   0  0  0  0  0  0  0  0  0  0  0  0
   -2.0477   -1.8543    1.1546 C   0  0  0  0  0  0  0  0  0  0  0  0
   -1.2227   -2.3443    1.9146 O   0  0  0  0  0  0  0  0  0  0  0  0
   -1.7517   -0.8483    0.3266 N   0  0  0  0  0  0  0  0  0  0  0  0
   -2.4847   -0.5123   -0.2804 H   0  0  0  0  0  0  0  0  0  0  0  0
   -0.4117   -0.2463    0.2186 C   0  0  1  0  0  0  0  0  0  0  0  0
    0.2987   -1.0391   -0.0285 H   0  0  0  0  0  0  0  0  0  0  0  0
   -0.4131    0.7505   -0.9636 C   0  0  0  0  0  0  0  0  0  0  0  0
    0.0914    0.2835   -1.8133 H   0  0  0  0  0  0  0  0  0  0  0  0
   -1.4449    0.9391   -1.2676 H   0  0  0  0  0  0  0  0  0  0  0  0
    0.2456    2.0843   -0.6817 C   0  0  0  0  0  0  0  0  0  0  0  0
    0.8243    2.4512    0.5179 N   0  3  0  0  0  0  0  0  0  0  0  0
    0.9170    1.8182    1.3175 H   0  0  0  0  0  0  0  0  0  0  0  0
    1.3038    3.7047    0.3933 C   0  0  0  0  0  0  0  0  0  0  0  0
    1.8256    4.2591    1.1707 H   0  0  0  0  0  0  0  0  0  0  0  0
    1.0409    4.1416   -0.8590 N   0  0  0  0  0  0  0  0  0  0  0  0
    1.2894    5.0515   -1.2382 H   0  0  0  0  0  0  0  0  0  0  0  0
    0.3764    3.1362   -1.5476 C   0  0  0  0  0  0  0  0  0  0  0  0
    0.0247    3.1676   -2.5751 H   0  0  0  0  0  0  0  0  0  0  0  0
    0.0470    0.3465    1.5629 C   0  0  0  0  0  0  0  0  0  0  0  0
    1.1854    0.1365    1.9846 O   0  0  0  0  0  0  0  0  0  0  0  0
   -0.8551    1.0750    2.2320 N   0  0  0  0  0  0  0  0  0  0  0  0
   -1.7594    1.2031    1.8040 H   0  0  0  0  0  0  0  0  0  0  0  0
   -0.6356    1.6998    3.5400 C   0  0  0  0  0  0  0  0  0  0  0  0
   -0.4284    2.7647    3.4168 H   0  0  0  0  0  0  0  0  0  0  0  0
   -1.5268    1.5885    4.1601 H   0  0  0  0  0  0  0  0  0  0  0  0
    0.2072    1.2358    4.0566 H   0  0  0  0  0  0  0  0  0  0  0  0
  5  6  2  0  0  0  0
  5  7  1  0  0  0  0
  2  3  1  0  0  0  0
  2  4  1  0  0  0  0
  2  5  1  0  0  0  0
  1  2  1  0  0  0  0
 23 24  2  0  0  0  0
 23 25  1  0  0  0  0
 21 22  1  0  0  0  0
 19 20  1  0  0  0  0
 19 21  1  0  0  0  0
 17 18  1  0  0  0  0
 17 19  1  0  0  0  0
 15 16  1  0  0  0  0
 15 17  2  0  0  0  0
 14 15  1  0  0  0  0
 14 21  2  0  0  0  0
 11 12  1  0  0  0  0
 11 13  1  0  0  0  0
 11 14  1  0  0  0  0
  9 10  1  0  0  0  0
  9 11  1  0  0  0  0
  9 23  1  0  0  0  0
  7  8  1  0  0  0  0
  7  9  1  0  0  0  0
 27 28  1  0  0  0  0
 27 29  1  0  0  0  0
 27 30  1  0  0  0  0
 25 26  1  0  0  0  0
 25 27  1  0  0  0  0
M  CHG  1  15   1
M  END
$$$$
default_name
  -OEChem-02102213163D

 30 30  0     1  0  0  0  0  0999 V2000
   -3.5507   -3.2183    1.8116 H   0  0  0  0  0  0  0  0  0  0  0  0
   -3.4597   -2.3913    1.1076 C   0  0  0  0  0  0  0  0  0  0  0  0
   -4.1577   -1.6043    1.3866 H   0  0  0  0  0  0  0  0  0  0  0  0
   -3.6807   -2.7523    0.1036 H   0  0  0  0  0  0  0  0  0  0  0  0
   -2.0477   -1.8543    1.1546 C   0  0  0  0  0  0  0  0  0  0  0  0
   -1.2227   -2.3443    1.9146 O   0  0  0  0  0  0  0  0  0  0  0  0
   -1.7517   -0.8483    0.3266 N   0  0  0  0  0  0  0  0  0  0  0  0
   -2.4847   -0.5123   -0.2804 H   0  0  0  0  0  0  0  0  0  0  0  0
   -0.4117   -0.2463    0.2186 C   0  0  1  0  0  0  0  0  0  0  0  0
    0.2987   -1.0391   -0.0285 H   0  0  0  0  0  0  0  0  0  0  0  0
   -0.4131    0.7505   -0.9636 C   0  0  0  0  0  0  0  0  0  0  0  0
    0.0914    0.2835   -1.8133 H   0  0  0  0  0  0  0  0  0  0  0  0
   -1.4449    0.9391   -1.2676 H   0  0  0  0  0  0  0  0  0  0  0  0
    0.2456    2.0843   -0.6817 C   0  0  0  0  0  0  0  0  0  0  0  0
    1.0723    2.3555    0.3914 N   0  3  0  0  0  0  0  0  0  0  0  0
    1.3692    1.6474    1.0691 H   0  0  0  0  0  0  0  0  0  0  0  0
    1.4657    3.6421    0.3111 C   0  0  0  0  0  0  0  0  0  0  0  0
    2.1330    4.1411    1.0109 H   0  0  0  0  0  0  0  0  0  0  0  0
    0.9057    4.1936   -0.7892 N   0  0  0  0  0  0  0  0  0  0  0  0
    1.0278    5.1524   -1.1043 H   0  0  0  0  0  0  0  0  0  0  0  0
    0.1360    3.2288   -1.4242 C   0  0  0  0  0  0  0  0  0  0  0  0
   -0.4442    3.3484   -2.3350 H   0  0  0  0  0  0  0  0  0  0  0  0
    0.0470    0.3465    1.5629 C   0  0  0  0  0  0  0  0  0  0  0  0
    1.1854    0.1365    1.9846 O   0  0  0  0  0  0  0  0  0  0  0  0
   -0.8551    1.0750    2.2320 N   0  0  0  0  0  0  0  0  0  0  0  0
   -1.7594    1.2031    1.8040 H   0  0  0  0  0  0  0  0  0  0  0  0
   -0.6356    1.6998    3.5400 C   0  0  0  0  0  0  0  0  0  0  0  0
   -0.4284    2.7647    3.4168 H   0  0  0  0  0  0  0  0  0  0  0  0
   -1.5268    1.5885    4.1601 H   0  0  0  0  0  0  0  0  0  0  0  0
    0.2072    1.2358    4.0566 H   0  0  0  0  0  0  0  0  0  0  0  0
  5  6  2  0  0  0  0
  5  7  1  0  0  0  0
  2  3  1  0  0  0  0
  2  4  1  0  0  0  0
  2  5  1  0  0  0  0
  1  2  1  0  0  0  0
 23 24  2  0  0  0  0
 23 25  1  0  0  0  0
 21 22  1  0  0  0  0
 19 20  1  0  0  0  0
 19 21  1  0  0  0  0
 17 18  1  0  0  0  0
 17 19  1  0  0  0  0
 15 16  1  0  0  0  0
 15 17  2  0  0  0  0
 14 15  1  0  0  0  0
 14 21  2  0  0  0  0
 11 12  1  0  0  0  0
 11 13  1  0  0  0  0
 11 14  1  0  0  0  0
  9 10  1  0  0  0  0
  9 11  1  0  0  0  0
  9 23  1  0  0  0  0
  7  8  1  0  0  0  0
  7  9  1  0  0  0  0
 27 28  1  0  0  0  0
 27 29  1  0  0  0  0
 27 30  1  0  0  0  0
 25 26  1  0  0  0  0
 25 27  1  0  0  0  0
M  CHG  1  15   1
M  END
$$$$
default_name
  -OEChem-02102213163D

 30 30  0     1  0  0  0  0  0999 V2000
   -3.5507   -3.2183    1.8116 H   0  0  0  0  0  0  0  0  0  0  0  0
   -3.4597   -2.3913    1.1076 C   0  0  0  0  0  0  0  0  0  0  0  0
   -4.1577   -1.6043    1.3866 H   0  0  0  0  0  0  0  0  0  0  0  0
   -3.6807   -2.7523    0.1036 H   0  0  0  0  0  0  0  0  0  0  0  0
   -2.0477   -1.8543    1.1546 C   0  0  0  0  0  0  0  0  0  0  0  0
   -1.2227   -2.3443    1.9146 O   0  0  0  0  0  0  0  0  0  0  0  0
   -1.7517   -0.8483    0.3266 N   0  0  0  0  0  0  0  0  0  0  0  0
   -2.4847   -0.5123   -0.2804 H   0  0  0  0  0  0  0  0  0  0  0  0
   -0.4117   -0.2463    0.2186 C   0  0  1  0  0  0  0  0  0  0  0  0
    0.2987   -1.0391   -0.0285 H   0  0  0  0  0  0  0  0  0  0  0  0
   -0.4131    0.7505   -0.9636 C   0  0  0  0  0  0  0  0  0  0  0  0
    0.0914    0.2835   -1.8133 H   0  0  0  0  0  0  0  0  0  0  0  0
   -1.4449    0.9391   -1.2676 H   0  0  0  0  0  0  0  0  0  0  0  0
    0.2456    2.0843   -0.6817 C   0  0  0  0  0  0  0  0  0  0  0  0
    1.2875    2.2892    0.2020 N   0  3  0  0  0  0  0  0  0  0  0  0
    1.7575    1.5322    0.7068 H   0  0  0  0  0  0  0  0  0  0  0  0
    1.6063    3.5987    0.1878 C   0  0  0  0  0  0  0  0  0  0  0  0
    2.3992    4.0599    0.7732 H   0  0  0  0  0  0  0  0  0  0  0  0
    0.7885    4.2295   -0.6850 N   0  0  0  0  0  0  0  0  0  0  0  0
    0.8009    5.2221   -0.9040 H   0  0  0  0  0  0  0  0  0  0  0  0
   -0.0726    3.2928   -1.2399 C   0  0  0  0  0  0  0  0  0  0  0  0
   -0.8511    3.4734   -1.9759 H   0  0  0  0  0  0  0  0  0  0  0  0
    0.0470    0.3465    1.5629 C   0  0  0  0  0  0  0  0  0  0  0  0
    1.1854    0.1365    1.9846 O   0  0  0  0  0  0  0  0  0  0  0  0
   -0.8551    1.0750    2.2320 N   0  0  0  0  0  0  0  0  0  0  0  0
   -1.7594    1.2031    1.8040 H   0  0  0  0  0  0  0  0  0  0  0  0
   -0.6356    1.6998    3.5400 C   0  0  0  0  0  0  0  0  0  0  0  0
   -0.4284    2.7647    3.4168 H   0  0  0  0  0  0  0  0  0  0  0  0
   -1.5268    1.5885    4.1601 H   0  0  0  0  0  0  0  0  0  0  0  0
    0.2072    1.2358    4.0566 H   0  0  0  0  0  0  0  0  0  0  0  0
  5  6  2  0  0  0  0
  5  7  1  0  0  0  0
  2  3  1  0  0  0  0
  2  4  1  0  0  0  0
  2  5  1  0  0  0  0
  1  2  1  0  0  0  0
 23 24  2  0  0  0  0
 23 25  1  0  0  0  0
 21 22  1  0  0  0  0
 19 20  1  0  0  0  0
 19 21  1  0  0  0  0
 17 18  1  0  0  0  0
 17 19  1  0  0  0  0
 15 16  1  0  0  0  0
 15 17  2  0  0  0  0
 14 15  1  0  0  0  0
 14 21  2  0  0  0  0
 11 12  1  0  0  0  0
 11 13  1  0  0  0  0
 11 14  1  0  0  0  0
  9 10  1  0  0  0  0
  9 11  1  0  0  0  0
  9 23  1  0  0  0  0
  7  8  1  0  0  0  0
  7  9  1  0  0  0  0
 27 28  1  0  0  0  0
 27 29  1  0  0  0  0
 27 30  1  0  0  0  0
 25 26  1  0  0  0  0
 25 27  1  0  0  0  0
M  CHG  1  15   1
M  END
$$$$
default_name
  -OEChem-02102213163D

 30 30  0     1  0  0  0  0  0999 V2000
   -3.5507   -3.2183    1.8116 H   0  0  0  0  0  0  0  0  0  0  0  0
   -3.4597   -2.3913    1.1076 C   0  0  0  0  0  0  0  0  0  0  0  0
   -4.1577   -1.6043    1.3866 H   0  0  0  0  0  0  0  0  0  0  0  0
   -3.6807   -2.7523    0.1036 H   0  0  0  0  0  0  0  0  0  0  0  0
   -2.0477   -1.8543    1.1546 C   0  0  0  0  0  0  0  0  0  0  0  0
   -1.2227   -2.3443    1.9146 O   0  0  0  0  0  0  0  0  0  0  0  0
   -1.7517   -0.8483    0.3266 N   0  0  0  0  0  0  0  0  0  0  0  0
   -2.4847   -0.5123   -0.2804 H   0  0  0  0  0  0  0  0  0  0  0  0
   -0.4117   -0.2463    0.2186 C   0  0  1  0  0  0  0  0  0  0  0  0
    0.2987   -1.0391   -0.0285 H   0  0  0  0  0  0  0  0  0  0  0  0
   -0.4131    0.7505   -0.9636 C   0  0  0  0  0  0  0  0  0  0  0  0
    0.0914    0.2835   -1.8133 H   0  0  0  0  0  0  0  0  0  0  0  0
   -1.4449    0.9391   -1.2676 H   0  0  0  0  0  0  0  0  0  0  0  0
    0.2456    2.0843   -0.6817 C   0  0  0  0  0  0  0  0  0  0  0  0
    1.4554    2.2569   -0.0376 N   0  3  0  0  0  0  0  0  0  0  0  0
    2.0555    1.4805    0.2553 H   0  0  0  0  0  0  0  0  0  0  0  0
    1.7162    3.5775    0.0316 C   0  0  0  0  0  0  0  0  0  0  0  0
    2.6060    4.0211    0.4738 H   0  0  0  0  0  0  0  0  0  0  0  0
    0.6973    4.2467   -0.5537 N   0  0  0  0  0  0  0  0  0  0  0  0
    0.6239    5.2560   -0.6510 H   0  0  0  0  0  0  0  0  0  0  0  0
   -0.2351    3.3238   -1.0070 C   0  0  0  0  0  0  0  0  0  0  0  0
   -1.1683    3.5341   -1.5221 H   0  0  0  0  0  0  0  0  0  0  0  0
    0.0470    0.3465    1.5629 C   0  0  0  0  0  0  0  0  0  0  0  0
    1.1854    0.1365    1.9846 O   0  0  0  0  0  0  0  0  0  0  0  0
   -0.8551    1.0750    2.2320 N   0  0  0  0  0  0  0  0  0  0  0  0
   -1.7594    1.2031    1.8040 H   0  0  0  0  0  0  0  0  0  0  0  0
   -0.6356    1.6998    3.5400 C   0  0  0  0  0  0  0  0  0  0  0  0
   -0.4284    2.7647    3.4168 H   0  0  0  0  0  0  0  0  0  0  0  0
   -1.5268    1.5885    4.1601 H   0  0  0  0  0  0  0  0  0  0  0  0
    0.2072    1.2358    4.0566 H   0  0  0  0  0  0  0  0  0  0  0  0
  5  6  2  0  0  0  0
  5  7  1  0  0  0  0
  2  3  1  0  0  0  0
  2  4  1  0  0  0  0
  2  5  1  0  0  0  0
  1  2  1  0  0  0  0
 23 24  2  0  0  0  0
 23 25  1  0  0  0  0
 21 22  1  0  0  0  0
 19 20  1  0  0  0  0
 19 21  1  0  0  0  0
 17 18  1  0  0  0  0
 17 19  1  0  0  0  0
 15 16  1  0  0  0  0
 15 17  2  0  0  0  0
 14 15  1  0  0  0  0
 14 21  2  0  0  0  0
 11 12  1  0  0  0  0
 11 13  1  0  0  0  0
 11 14  1  0  0  0  0
  9 10  1  0  0  0  0
  9 11  1  0  0  0  0
  9 23  1  0  0  0  0
  7  8  1  0  0  0  0
  7  9  1  0  0  0  0
 27 28  1  0  0  0  0
 27 29  1  0  0  0  0
 27 30  1  0  0  0  0
 25 26  1  0  0  0  0
 25 27  1  0  0  0  0
M  CHG  1  15   1
M  END
$$$$
default_name
  -OEChem-02102213163D

 30 30  0     1  0  0  0  0  0999 V2000
   -3.5507   -3.2183    1.8116 H   0  0  0  0  0  0  0  0  0  0  0  0
   -3.4597   -2.3913    1.1076 C   0  0  0  0  0  0  0  0  0  0  0  0
   -4.1577   -1.6043    1.3866 H   0  0  0  0  0  0  0  0  0  0  0  0
   -3.6807   -2.7523    0.1036 H   0  0  0  0  0  0  0  0  0  0  0  0
   -2.0477   -1.8543    1.1546 C   0  0  0  0  0  0  0  0  0  0  0  0
   -1.2227   -2.3443    1.9146 O   0  0  0  0  0  0  0  0  0  0  0  0
   -1.7517   -0.8483    0.3266 N   0  0  0  0  0  0  0  0  0  0  0  0
   -2.4847   -0.5123   -0.2804 H   0  0  0  0  0  0  0  0  0  0  0  0
   -0.4117   -0.2463    0.2186 C   0  0  1  0  0  0  0  0  0  0  0  0
    0.2987   -1.0391   -0.0285 H   0  0  0  0  0  0  0  0  0  0  0  0
   -0.4131    0.7505   -0.9636 C   0  0  0  0  0  0  0  0  0  0  0  0
    0.0914    0.2835   -1.8133 H   0  0  0  0  0  0  0  0  0  0  0  0
   -1.4449    0.9391   -1.2676 H   0  0  0  0  0  0  0  0  0  0  0  0
    0.2456    2.0843   -0.6817 C   0  0  0  0  0  0  0  0  0  0  0  0
    1.5646    2.2608   -0.3109 N   0  3  0  0  0  0  0  0  0  0  0  0
    2.2430    1.4957   -0.2545 H   0  0  0  0  0  0  0  0  0  0  0  0
    1.7877    3.5799   -0.1466 C   0  0  0  0  0  0  0  0  0  0  0  0
    2.7394    4.0273    0.1330 H   0  0  0  0  0  0  0  0  0  0  0  0
    0.6384    4.2442   -0.4041 N   0  0  0  0  0  0  0  0  0  0  0  0
    0.5091    5.2517   -0.3623 H   0  0  0  0  0  0  0  0  0  0  0  0
   -0.3404    3.3197   -0.7415 C   0  0  0  0  0  0  0  0  0  0  0  0
   -1.3741    3.5264   -1.0046 H   0  0  0  0  0  0  0  0  0  0  0  0
    0.0470    0.3465    1.5629 C   0  0  0  0  0  0  0  0  0  0  0  0
    1.1854    0.1365    1.9846 O   0  0  0  0  0  0  0  0  0  0  0  0
   -0.8551    1.0750    2.2320 N   0  0  0  0  0  0  0  0  0  0  0  0
   -1.7594    1.2031    1.8040 H   0  0  0  0  0  0  0  0  0  0  0  0
   -0.6356    1.6998    3.5400 C   0  0  0  0  0  0  0  0  0  0  0  0
   -0.4284    2.7647    3.4168 H   0  0  0  0  0  0  0  0  0  0  0  0
   -1.5268    1.5885    4.1601 H   0  0  0  0  0  0  0  0  0  0  0  0
    0.2072    1.2358    4.0566 H   0  0  0  0  0  0  0  0  0  0  0  0
  5  6  2  0  0  0  0
  5  7  1  0  0  0  0
  2  3  1  0  0  0  0
  2  4  1  0  0  0  0
  2  5  1  0  0  0  0
  1  2  1  0  0  0  0
 23 24  2  0  0  0  0
 23 25  1  0  0  0  0
 21 22  1  0  0  0  0
 19 20  1  0  0  0  0
 19 21  1  0  0  0  0
 17 18  1  0  0  0  0
 17 19  1  0  0  0  0
 15 16  1  0  0  0  0
 15 17  2  0  0  0  0
 14 15  1  0  0  0  0
 14 21  2  0  0  0  0
 11 12  1  0  0  0  0
 11 13  1  0  0  0  0
 11 14  1  0  0  0  0
  9 10  1  0  0  0  0
  9 11  1  0  0  0  0
  9 23  1  0  0  0  0
  7  8  1  0  0  0  0
  7  9  1  0  0  0  0
 27 28  1  0  0  0  0
 27 29  1  0  0  0  0
 27 30  1  0  0  0  0
 25 26  1  0  0  0  0
 25 27  1  0  0  0  0
M  CHG  1  15   1
M  END
$$$$
default_name
  -OEChem-02102213163D

 30 30  0     1  0  0  0  0  0999 V2000
   -3.5507   -3.2183    1.8116 H   0  0  0  0  0  0  0  0  0  0  0  0
   -3.4597   -2.3913    1.1076 C   0  0  0  0  0  0  0  0  0  0  0  0
   -4.1577   -1.6043    1.3866 H   0  0  0  0  0  0  0  0  0  0  0  0
   -3.6807   -2.7523    0.1036 H   0  0  0  0  0  0  0  0  0  0  0  0
   -2.0477   -1.8543    1.1546 C   0  0  0  0  0  0  0  0  0  0  0  0
   -1.2227   -2.3443    1.9146 O   0  0  0  0  0  0  0  0  0  0  0  0
   -1.7517   -0.8483    0.3266 N   0  0  0  0  0  0  0  0  0  0  0  0
   -2.4847   -0.5123   -0.2804 H   0  0  0  0  0  0  0  0  0  0  0  0
   -0.4117   -0.2463    0.2186 C   0  0  1  0  0  0  0  0  0  0  0  0
    0.2987   -1.0391   -0.0285 H   0  0  0  0  0  0  0  0  0  0  0  0
   -0.4131    0.7505   -0.9636 C   0  0  0  0  0  0  0  0  0  0  0  0
    0.0914    0.2835   -1.8133 H   0  0  0  0  0  0  0  0  0  0  0  0
   -1.4449    0.9391   -1.2676 H   0  0  0  0  0  0  0  0  0  0  0  0
    0.2456    2.0843   -0.6817 C   0  0  0  0  0  0  0  0  0  0  0  0
    1.6075    2.3006   -0.5993 N   0  3  0  0  0  0  0  0  0  0  0  0
    2.3070    1.5769   -0.7880 H   0  0  0  0  0  0  0  0  0  0  0  0
    1.8160    3.6057   -0.3348 C   0  0  0  0  0  0  0  0  0  0  0  0
    2.7902    4.0780   -0.2259 H   0  0  0  0  0  0  0  0  0  0  0  0
    0.6157    4.2221   -0.2464 N   0  0  0  0  0  0  0  0  0  0  0  0
    0.4642    5.2095   -0.0579 H   0  0  0  0  0  0  0  0  0  0  0  0
   -0.3815    3.2808   -0.4616 C   0  0  0  0  0  0  0  0  0  0  0  0
   -1.4546    3.4507   -0.4587 H   0  0  0  0  0  0  0  0  0  0  0  0
    0.0470    0.3465    1.5629 C   0  0  0  0  0  0  0  0  0  0  0  0
    1.1854    0.1365    1.9846 O   0  0  0  0  0  0  0  0  0  0  0  0
   -0.8551    1.0750    2.2320 N   0  0  0  0  0  0  0  0  0  0  0  0
   -1.7594    1.2031    1.8040 H   0  0  0  0  0  0  0  0  0  0  0  0
   -0.6356    1.6998    3.5400 C   0  0  0  0  0  0  0  0  0  0  0  0
   -0.4284    2.7647    3.4168 H   0  0  0  0  0  0  0  0  0  0  0  0
   -1.5268    1.5885    4.1601 H   0  0  0  0  0  0  0  0  0  0  0  0
    0.2072    1.2358    4.0566 H   0  0  0  0  0  0  0  0  0  0  0  0
  5  6  2  0  0  0  0
  5  7  1  0  0  0  0
  2  3  1  0  0  0  0
  2  4  1  0  0  0  0
  2  5  1  0  0  0  0
  1  2  1  0  0  0  0
 23 24  2  0  0  0  0
 23 25  1  0  0  0  0
 21 22  1  0  0  0  0
 19 20  1  0  0  0  0
 19 21  1  0  0  0  0
 17 18  1  0  0  0  0
 17 19  1  0  0  0  0
 15 16  1  0  0  0  0
 15 17  2  0  0  0  0
 14 15  1  0  0  0  0
 14 21  2  0  0  0  0
 11 12  1  0  0  0  0
 11 13  1  0  0  0  0
 11 14  1  0  0  0  0
  9 10  1  0  0  0  0
  9 11  1  0  0  0  0
  9 23  1  0  0  0  0
  7  8  1  0  0  0  0
  7  9  1  0  0  0  0
 27 28  1  0  0  0  0
 27 29  1  0  0  0  0
 27 30  1  0  0  0  0
 25 26  1  0  0  0  0
 25 27  1  0  0  0  0
M  CHG  1  15   1
M  END
$$$$
default_name
  -OEChem-02102213163D

 30 30  0     1  0  0  0  0  0999 V2000
   -3.5507   -3.2183    1.8116 H   0  0  0  0  0  0  0  0  0  0  0  0
   -3.4597   -2.3913    1.1076 C   0  0  0  0  0  0  0  0  0  0  0  0
   -4.1577   -1.6043    1.3866 H   0  0  0  0  0  0  0  0  0  0  0  0
   -3.6807   -2.7523    0.1036 H   0  0  0  0  0  0  0  0  0  0  0  0
   -2.0477   -1.8543    1.1546 C   0  0  0  0  0  0  0  0  0  0  0  0
   -1.2227   -2.3443    1.9146 O   0  0  0  0  0  0  0  0  0  0  0  0
   -1.7517   -0.8483    0.3266 N   0  0  0  0  0  0  0  0  0  0  0  0
   -2.4847   -0.5123   -0.2804 H   0  0  0  0  0  0  0  0  0  0  0  0
   -0.4117   -0.2463    0.2186 C   0  0  1  0  0  0  0  0  0  0  0  0
    0.2987   -1.0391   -0.0285 H   0  0  0  0  0  0  0  0  0  0  0  0
   -0.4131    0.7505   -0.9636 C   0  0  0  0  0  0  0  0  0  0  0  0
    0.0914    0.2835   -1.8133 H   0  0  0  0  0  0  0  0  0  0  0  0
   -1.4449    0.9391   -1.2676 H   0  0  0  0  0  0  0  0  0  0  0  0
    0.2456    2.0843   -0.6817 C   0  0  0  0  0  0  0  0  0  0  0  0
    1.5813    2.3736   -0.8832 N   0  3  0  0  0  0  0  0  0  0  0  0
    2.2434    1.7184   -1.3088 H   0  0  0  0  0  0  0  0  0  0  0  0
    1.7992    3.6531   -0.5201 C   0  0  0  0  0  0  0  0  0  0  0  0
    2.7550    4.1699   -0.5784 H   0  0  0  0  0  0  0  0  0  0  0  0
    0.6308    4.1818   -0.0914 N   0  0  0  0  0  0  0  0  0  0  0  0
    0.4923    5.1323    0.2417 H   0  0  0  0  0  0  0  0  0  0  0  0
   -0.3554    3.2097   -0.1861 C   0  0  0  0  0  0  0  0  0  0  0  0
   -1.4042    3.3123    0.0784 H   0  0  0  0  0  0  0  0  0  0  0  0
    0.0470    0.3465    1.5629 C   0  0  0  0  0  0  0  0  0  0  0  0
    1.1854    0.1365    1.9846 O   0  0  0  0  0  0  0  0  0  0  0  0
   -0.8551    1.0750    2.2320 N   0  0  0  0  0  0  0  0  0  0  0  0
   -1.7594    1.2031    1.8040 H   0  0  0  0  0  0  0  0  0  0  0  0
   -0.6356    1.6998    3.5400 C   0  0  0  0  0  0  0  0  0  0  0  0
   -0.4284    2.7647    3.4168 H   0  0  0  0  0  0  0  0  0  0  0  0
   -1.5268    1.5885    4.1601 H   0  0  0  0  0  0  0  0  0  0  0  0
    0.2072    1.2358    4.0566 H   0  0  0  0  0  0  0  0  0  0  0  0
  5  6  2  0  0  0  0
  5  7  1  0  0  0  0
  2  3  1  0  0  0  0
  2  4  1  0  0  0  0
  2  5  1  0  0  0  0
  1  2  1  0  0  0  0
 23 24  2  0  0  0  0
 23 25  1  0  0  0  0
 21 22  1  0  0  0  0
 19 20  1  0  0  0  0
 19 21  1  0  0  0  0
 17 18  1  0  0  0  0
 17 19  1  0  0  0  0
 15 16  1  0  0  0  0
 15 17  2  0  0  0  0
 14 15  1  0  0  0  0
 14 21  2  0  0  0  0
 11 12  1  0  0  0  0
 11 13  1  0  0  0  0
 11 14  1  0  0  0  0
  9 10  1  0  0  0  0
  9 11  1  0  0  0  0
  9 23  1  0  0  0  0
  7  8  1  0  0  0  0
  7  9  1  0  0  0  0
 27 28  1  0  0  0  0
 27 29  1  0  0  0  0
 27 30  1  0  0  0  0
 25 26  1  0  0  0  0
 25 27  1  0  0  0  0
M  CHG  1  15   1
M  END
$$$$
default_name
  -OEChem-02102213163D

 30 30  0     1  0  0  0  0  0999 V2000
   -3.5507   -3.2183    1.8116 H   0  0  0  0  0  0  0  0  0  0  0  0
   -3.4597   -2.3913    1.1076 C   0  0  0  0  0  0  0  0  0  0  0  0
   -4.1577   -1.6043    1.3866 H   0  0  0  0  0  0  0  0  0  0  0  0
   -3.6807   -2.7523    0.1036 H   0  0  0  0  0  0  0  0  0  0  0  0
   -2.0477   -1.8543    1.1546 C   0  0  0  0  0  0  0  0  0  0  0  0
   -1.2227   -2.3443    1.9146 O   0  0  0  0  0  0  0  0  0  0  0  0
   -1.7517   -0.8483    0.3266 N   0  0  0  0  0  0  0  0  0  0  0  0
   -2.4847   -0.5123   -0.2804 H   0  0  0  0  0  0  0  0  0  0  0  0
   -0.4117   -0.2463    0.2186 C   0  0  1  0  0  0  0  0  0  0  0  0
    0.2987   -1.0391   -0.0285 H   0  0  0  0  0  0  0  0  0  0  0  0
   -0.4131    0.7505   -0.9636 C   0  0  0  0  0  0  0  0  0  0  0  0
    0.0914    0.2835   -1.8133 H   0  0  0  0  0  0  0  0  0  0  0  0
   -1.4449    0.9391   -1.2676 H   0  0  0  0  0  0  0  0  0  0  0  0
    0.2456    2.0843   -0.6817 C   0  0  0  0  0  0  0  0  0  0  0  0
    1.4877    2.4747   -1.1432 N   0  3  0  0  0  0  0  0  0  0  0  0
    2.0563    1.9107   -1.7814 H   0  0  0  0  0  0  0  0  0  0  0  0
    1.7384    3.7191   -0.6899 C   0  0  0  0  0  0  0  0  0  0  0  0
    2.6362    4.2967   -0.9005 H   0  0  0  0  0  0  0  0  0  0  0  0
    0.6826    4.1263    0.0503 N   0  0  0  0  0  0  0  0  0  0  0  0
    0.5914    5.0253    0.5160 H   0  0  0  0  0  0  0  0  0  0  0  0
   -0.2640    3.1113    0.0659 C   0  0  0  0  0  0  0  0  0  0  0  0
   -1.2264    3.1205    0.5701 H   0  0  0  0  0  0  0  0  0  0  0  0
    0.0470    0.3465    1.5629 C   0  0  0  0  0  0  0  0  0  0  0  0
    1.1854    0.1365    1.9846 O   0  0  0  0  0  0  0  0  0  0  0  0
   -0.8551    1.0750    2.2320 N   0  0  0  0  0  0  0  0  0  0  0  0
   -1.7594    1.2031    1.8040 H   0  0  0  0  0  0  0  0  0  0  0  0
   -0.6356    1.6998    3.5400 C   0  0  0  0  0  0  0  0  0  0  0  0
   -0.4284    2.7647    3.4168 H   0  0  0  0  0  0  0  0  0  0  0  0
   -1.5268    1.5885    4.1601 H   0  0  0  0  0  0  0  0  0  0  0  0
    0.2072    1.2358    4.0566 H   0  0  0  0  0  0  0  0  0  0  0  0
  5  6  2  0  0  0  0
  5  7  1  0  0  0  0
  2  3  1  0  0  0  0
  2  4  1  0  0  0  0
  2  5  1  0  0  0  0
  1  2  1  0  0  0  0
 23 24  2  0  0  0  0
 23 25  1  0  0  0  0
 21 22  1  0  0  0  0
 19 20  1  0  0  0  0
 19 21  1  0  0  0  0
 17 18  1  0  0  0  0
 17 19  1  0  0  0  0
 15 16  1  0  0  0  0
 15 17  2  0  0  0  0
 14 15  1  0  0  0  0
 14 21  2  0  0  0  0
 11 12  1  0  0  0  0
 11 13  1  0  0  0  0
 11 14  1  0  0  0  0
  9 10  1  0  0  0  0
  9 11  1  0  0  0  0
  9 23  1  0  0  0  0
  7  8  1  0  0  0  0
  7  9  1  0  0  0  0
 27 28  1  0  0  0  0
 27 29  1  0  0  0  0
 27 30  1  0  0  0  0
 25 26  1  0  0  0  0
 25 27  1  0  0  0  0
M  CHG  1  15   1
M  END
$$$$
default_name
  -OEChem-02102213163D

 30 30  0     1  0  0  0  0  0999 V2000
   -3.5507   -3.2183    1.8116 H   0  0  0  0  0  0  0  0  0  0  0  0
   -3.4597   -2.3913    1.1076 C   0  0  0  0  0  0  0  0  0  0  0  0
   -4.1577   -1.6043    1.3866 H   0  0  0  0  0  0  0  0  0  0  0  0
   -3.6807   -2.7523    0.1036 H   0  0  0  0  0  0  0  0  0  0  0  0
   -2.0477   -1.8543    1.1546 C   0  0  0  0  0  0  0  0  0  0  0  0
   -1.2227   -2.3443    1.9146 O   0  0  0  0  0  0  0  0  0  0  0  0
   -1.7517   -0.8483    0.3266 N   0  0  0  0  0  0  0  0  0  0  0  0
   -2.4847   -0.5123   -0.2804 H   0  0  0  0  0  0  0  0  0  0  0  0
   -0.4117   -0.2463    0.2186 C   0  0  1  0  0  0  0  0  0  0  0  0
    0.2987   -1.0391   -0.0285 H   0  0  0  0  0  0  0  0  0  0  0  0
   -0.4131    0.7505   -0.9636 C   0  0  0  0  0  0  0  0  0  0  0  0
    0.0914    0.2835   -1.8133 H   0  0  0  0  0  0  0  0  0  0  0  0
   -1.4449    0.9391   -1.2676 H   0  0  0  0  0  0  0  0  0  0  0  0
    0.2456    2.0843   -0.6817 C   0  0  0  0  0  0  0  0  0  0  0  0
    1.3332    2.5972   -1.3617 N   0  3  0  0  0  0  0  0  0  0  0  0
    1.7586    2.1406   -2.1736 H   0  0  0  0  0  0  0  0  0  0  0  0
    1.6378    3.7989   -0.8327 C   0  0  0  0  0  0  0  0  0  0  0  0
    2.4419    4.4497   -1.1703 H   0  0  0  0  0  0  0  0  0  0  0  0
    0.7677    4.0591    0.1691 N   0  0  0  0  0  0  0  0  0  0  0  0
    0.7549    4.8959    0.7463 H   0  0  0  0  0  0  0  0  0  0  0  0
   -0.1135    2.9922    0.2775 C   0  0  0  0  0  0  0  0  0  0  0  0
   -0.9333    2.8885    0.9830 H   0  0  0  0  0  0  0  0  0  0  0  0
    0.0470    0.3465    1.5629 C   0  0  0  0  0  0  0  0  0  0  0  0
    1.1854    0.1365    1.9846 O   0  0  0  0  0  0  0  0  0  0  0  0
   -0.8551    1.0750    2.2320 N   0  0  0  0  0  0  0  0  0  0  0  0
   -1.7594    1.2031    1.8040 H   0  0  0  0  0  0  0  0  0  0  0  0
   -0.6356    1.6998    3.5400 C   0  0  0  0  0  0  0  0  0  0  0  0
   -0.4284    2.7647    3.4168 H   0  0  0  0  0  0  0  0  0  0  0  0
   -1.5268    1.5885    4.1601 H   0  0  0  0  0  0  0  0  0  0  0  0
    0.2072    1.2358    4.0566 H   0  0  0  0  0  0  0  0  0  0  0  0
  5  6  2  0  0  0  0
  5  7  1  0  0  0  0
  2  3  1  0  0  0  0
  2  4  1  0  0  0  0
  2  5  1  0  0  0  0
  1  2  1  0  0  0  0
 23 24  2  0  0  0  0
 23 25  1  0  0  0  0
 21 22  1  0  0  0  0
 19 20  1  0  0  0  0
 19 21  1  0  0  0  0
 17 18  1  0  0  0  0
 17 19  1  0  0  0  0
 15 16  1  0  0  0  0
 15 17  2  0  0  0  0
 14 15  1  0  0  0  0
 14 21  2  0  0  0  0
 11 12  1  0  0  0  0
 11 13  1  0  0  0  0
 11 14  1  0  0  0  0
  9 10  1  0  0  0  0
  9 11  1  0  0  0  0
  9 23  1  0  0  0  0
  7  8  1  0  0  0  0
  7  9  1  0  0  0  0
 27 28  1  0  0  0  0
 27 29  1  0  0  0  0
 27 30  1  0  0  0  0
 25 26  1  0  0  0  0
 25 27  1  0  0  0  0
M  CHG  1  15   1
M  END
$$$$
default_name
  -OEChem-02102213163D

 30 30  0     1  0  0  0  0  0999 V2000
   -3.5507   -3.2183    1.8116 H   0  0  0  0  0  0  0  0  0  0  0  0
   -3.4597   -2.3913    1.1076 C   0  0  0  0  0  0  0  0  0  0  0  0
   -4.1577   -1.6043    1.3866 H   0  0  0  0  0  0  0  0  0  0  0  0
   -3.6807   -2.7523    0.1036 H   0  0  0  0  0  0  0  0  0  0  0  0
   -2.0477   -1.8543    1.1546 C   0  0  0  0  0  0  0  0  0  0  0  0
   -1.2227   -2.3443    1.9146 O   0  0  0  0  0  0  0  0  0  0  0  0
   -1.7517   -0.8483    0.3266 N   0  0  0  0  0  0  0  0  0  0  0  0
   -2.4847   -0.5123   -0.2804 H   0  0  0  0  0  0  0  0  0  0  0  0
   -0.4117   -0.2463    0.2186 C   0  0  1  0  0  0  0  0  0  0  0  0
    0.2987   -1.0391   -0.0285 H   0  0  0  0  0  0  0  0  0  0  0  0
   -0.4131    0.7505   -0.9636 C   0  0  0  0  0  0  0  0  0  0  0  0
    0.0914    0.2835   -1.8133 H   0  0  0  0  0  0  0  0  0  0  0  0
   -1.4449    0.9391   -1.2676 H   0  0  0  0  0  0  0  0  0  0  0  0
    0.2456    2.0843   -0.6817 C   0  0  0  0  0  0  0  0  0  0  0  0
    1.1282    2.7327   -1.5237 N   0  3  0  0  0  0  0  0  0  0  0  0
    1.3705    2.3925   -2.4587 H   0  0  0  0  0  0  0  0  0  0  0  0
    1.5042    3.8873   -0.9387 C   0  0  0  0  0  0  0  0  0  0  0  0
    2.1853    4.6185   -1.3694 H   0  0  0  0  0  0  0  0  0  0  0  0
    0.8802    3.9850    0.2569 N   0  0  0  0  0  0  0  0  0  0  0  0
    0.9715    4.7529    0.9169 H   0  0  0  0  0  0  0  0  0  0  0  0
    0.0858    2.8607    0.4342 C   0  0  0  0  0  0  0  0  0  0  0  0
   -0.5449    2.6320    1.2888 H   0  0  0  0  0  0  0  0  0  0  0  0
    0.0470    0.3465    1.5629 C   0  0  0  0  0  0  0  0  0  0  0  0
    1.1854    0.1365    1.9846 O   0  0  0  0  0  0  0  0  0  0  0  0
   -0.8551    1.0750    2.2320 N   0  0  0  0  0  0  0  0  0  0  0  0
   -1.7594    1.2031    1.8040 H   0  0  0  0  0  0  0  0  0  0  0  0
   -0.6356    1.6998    3.5400 C   0  0  0  0  0  0  0  0  0  0  0  0
   -0.4284    2.7647    3.4168 H   0  0  0  0  0  0  0  0  0  0  0  0
   -1.5268    1.5885    4.1601 H   0  0  0  0  0  0  0  0  0  0  0  0
    0.2072    1.2358    4.0566 H   0  0  0  0  0  0  0  0  0  0  0  0
  5  6  2  0  0  0  0
  5  7  1  0  0  0  0
  2  3  1  0  0  0  0
  2  4  1  0  0  0  0
  2  5  1  0  0  0  0
  1  2  1  0  0  0  0
 23 24  2  0  0  0  0
 23 25  1  0  0  0  0
 21 22  1  0  0  0  0
 19 20  1  0  0  0  0
 19 21  1  0  0  0  0
 17 18  1  0  0  0  0
 17 19  1  0  0  0  0
 15 16  1  0  0  0  0
 15 17  2  0  0  0  0
 14 15  1  0  0  0  0
 14 21  2  0  0  0  0
 11 12  1  0  0  0  0
 11 13  1  0  0  0  0
 11 14  1  0  0  0  0
  9 10  1  0  0  0  0
  9 11  1  0  0  0  0
  9 23  1  0  0  0  0
  7  8  1  0  0  0  0
  7  9  1  0  0  0  0
 27 28  1  0  0  0  0
 27 29  1  0  0  0  0
 27 30  1  0  0  0  0
 25 26  1  0  0  0  0
 25 27  1  0  0  0  0
M  CHG  1  15   1
M  END
$$$$
default_name
  -OEChem-02102213163D

 30 30  0     1  0  0  0  0  0999 V2000
   -3.5507   -3.2183    1.8116 H   0  0  0  0  0  0  0  0  0  0  0  0
   -3.4597   -2.3913    1.1076 C   0  0  0  0  0  0  0  0  0  0  0  0
   -4.1577   -1.6043    1.3866 H   0  0  0  0  0  0  0  0  0  0  0  0
   -3.6807   -2.7523    0.1036 H   0  0  0  0  0  0  0  0  0  0  0  0
   -2.0477   -1.8543    1.1546 C   0  0  0  0  0  0  0  0  0  0  0  0
   -1.2227   -2.3443    1.9146 O   0  0  0  0  0  0  0  0  0  0  0  0
   -1.7517   -0.8483    0.3266 N   0  0  0  0  0  0  0  0  0  0  0  0
   -2.4847   -0.5123   -0.2804 H   0  0  0  0  0  0  0  0  0  0  0  0
   -0.4117   -0.2463    0.2186 C   0  0  1  0  0  0  0  0  0  0  0  0
    0.2987   -1.0391   -0.0285 H   0  0  0  0  0  0  0  0  0  0  0  0
   -0.4131    0.7505   -0.9636 C   0  0  0  0  0  0  0  0  0  0  0  0
    0.0914    0.2835   -1.8133 H   0  0  0  0  0  0  0  0  0  0  0  0
   -1.4449    0.9391   -1.2676 H   0  0  0  0  0  0  0  0  0  0  0  0
    0.2456    2.0843   -0.6817 C   0  0  0  0  0  0  0  0  0  0  0  0
    0.8867    2.8719   -1.6181 N   0  3  0  0  0  0  0  0  0  0  0  0
    0.9185    2.6492   -2.6172 H   0  0  0  0  0  0  0  0  0  0  0  0
    1.3468    3.9781   -1.0006 C   0  0  0  0  0  0  0  0  0  0  0  0
    1.8839    4.7916   -1.4842 H   0  0  0  0  0  0  0  0  0  0  0  0
    1.0125    3.9090    0.3078 N   0  0  0  0  0  0  0  0  0  0  0  0
    1.2266    4.6059    1.0162 H   0  0  0  0  0  0  0  0  0  0  0  0
    0.3205    2.7256    0.5252 C   0  0  0  0  0  0  0  0  0  0  0  0
   -0.0875    2.3685    1.4668 H   0  0  0  0  0  0  0  0  0  0  0  0
    0.0470    0.3465    1.5629 C   0  0  0  0  0  0  0  0  0  0  0  0
    1.1854    0.1365    1.9846 O   0  0  0  0  0  0  0  0  0  0  0  0
   -0.8551    1.0750    2.2320 N   0  0  0  0  0  0  0  0  0  0  0  0
   -1.7594    1.2031    1.8040 H   0  0  0  0  0  0  0  0  0  0  0  0
   -0.6356    1.6998    3.5400 C   0  0  0  0  0  0  0  0  0  0  0  0
   -0.4284    2.7647    3.4168 H   0  0  0  0  0  0  0  0  0  0  0  0
   -1.5268    1.5885    4.1601 H   0  0  0  0  0  0  0  0  0  0  0  0
    0.2072    1.2358    4.0566 H   0  0  0  0  0  0  0  0  0  0  0  0
  5  6  2  0  0  0  0
  5  7  1  0  0  0  0
  2  3  1  0  0  0  0
  2  4  1  0  0  0  0
  2  5  1  0  0  0  0
  1  2  1  0  0  0  0
 23 24  2  0  0  0  0
 23 25  1  0  0  0  0
 21 22  1  0  0  0  0
 19 20  1  0  0  0  0
 19 21  1  0  0  0  0
 17 18  1  0  0  0  0
 17 19  1  0  0  0  0
 15 16  1  0  0  0  0
 15 17  2  0  0  0  0
 14 15  1  0  0  0  0
 14 21  2  0  0  0  0
 11 12  1  0  0  0  0
 11 13  1  0  0  0  0
 11 14  1  0  0  0  0
  9 10  1  0  0  0  0
  9 11  1  0  0  0  0
  9 23  1  0  0  0  0
  7  8  1  0  0  0  0
  7  9  1  0  0  0  0
 27 28  1  0  0  0  0
 27 29  1  0  0  0  0
 27 30  1  0  0  0  0
 25 26  1  0  0  0  0
 25 27  1  0  0  0  0
M  CHG  1  15   1
M  END
$$$$
default_name
  -OEChem-02102213163D

 30 30  0     1  0  0  0  0  0999 V2000
   -3.5507   -3.2183    1.8116 H   0  0  0  0  0  0  0  0  0  0  0  0
   -3.4597   -2.3913    1.1076 C   0  0  0  0  0  0  0  0  0  0  0  0
   -4.1577   -1.6043    1.3866 H   0  0  0  0  0  0  0  0  0  0  0  0
   -3.6807   -2.7523    0.1036 H   0  0  0  0  0  0  0  0  0  0  0  0
   -2.0477   -1.8543    1.1546 C   0  0  0  0  0  0  0  0  0  0  0  0
   -1.2227   -2.3443    1.9146 O   0  0  0  0  0  0  0  0  0  0  0  0
   -1.7517   -0.8483    0.3266 N   0  0  0  0  0  0  0  0  0  0  0  0
   -2.4847   -0.5123   -0.2804 H   0  0  0  0  0  0  0  0  0  0  0  0
   -0.4117   -0.2463    0.2186 C   0  0  1  0  0  0  0  0  0  0  0  0
    0.2987   -1.0391   -0.0285 H   0  0  0  0  0  0  0  0  0  0  0  0
   -0.4131    0.7505   -0.9636 C   0  0  0  0  0  0  0  0  0  0  0  0
    0.0914    0.2835   -1.8133 H   0  0  0  0  0  0  0  0  0  0  0  0
   -1.4449    0.9391   -1.2676 H   0  0  0  0  0  0  0  0  0  0  0  0
    0.2456    2.0843   -0.6817 C   0  0  0  0  0  0  0  0  0  0  0  0
    0.6252    3.0054   -1.6386 N   0  3  0  0  0  0  0  0  0  0  0  0
    0.4334    2.8933   -2.6383 H   0  0  0  0  0  0  0  0  0  0  0  0
    1.1762    4.0653   -1.0143 C   0  0  0  0  0  0  0  0  0  0  0  0
    1.5583    4.9571   -1.5069 H   0  0  0  0  0  0  0  0  0  0  0  0
    1.1555    3.8362    0.3181 N   0  0  0  0  0  0  0  0  0  0  0  0
    1.5027    4.4651    1.0374 H   0  0  0  0  0  0  0  0  0  0  0  0
    0.5744    2.5961    0.5444 C   0  0  0  0  0  0  0  0  0  0  0  0
    0.4074    2.1161    1.5047 H   0  0  0  0  0  0  0  0  0  0  0  0
    0.0470    0.3465    1.5629 C   0  0  0  0  0  0  0  0  0  0  0  0
    1.1854    0.1365    1.9846 O   0  0  0  0  0  0  0  0  0  0  0  0
   -0.8551    1.0750    2.2320 N   0  0  0  0  0  0  0  0  0  0  0  0
   -1.7594    1.2031    1.8040 H   0  0  0  0  0  0  0  0  0  0  0  0
   -0.6356    1.6998    3.5400 C   0  0  0  0  0  0  0  0  0  0  0  0
   -0.4284    2.7647    3.4168 H   0  0  0  0  0  0  0  0  0  0  0  0
   -1.5268    1.5885    4.1601 H   0  0  0  0  0  0  0  0  0  0  0  0
    0.2072    1.2358    4.0566 H   0  0  0  0  0  0  0  0  0  0  0  0
  5  6  2  0  0  0  0
  5  7  1  0  0  0  0
  2  3  1  0  0  0  0
  2  4  1  0  0  0  0
  2  5  1  0  0  0  0
  1  2  1  0  0  0  0
 23 24  2  0  0  0  0
 23 25  1  0  0  0  0
 21 22  1  0  0  0  0
 19 20  1  0  0  0  0
 19 21  1  0  0  0  0
 17 18  1  0  0  0  0
 17 19  1  0  0  0  0
 15 16  1  0  0  0  0
 15 17  2  0  0  0  0
 14 15  1  0  0  0  0
 14 21  2  0  0  0  0
 11 12  1  0  0  0  0
 11 13  1  0  0  0  0
 11 14  1  0  0  0  0
  9 10  1  0  0  0  0
  9 11  1  0  0  0  0
  9 23  1  0  0  0  0
  7  8  1  0  0  0  0
  7  9  1  0  0  0  0
 27 28  1  0  0  0  0
 27 29  1  0  0  0  0
 27 30  1  0  0  0  0
 25 26  1  0  0  0  0
 25 27  1  0  0  0  0
M  CHG  1  15   1
M  END
$$$$
default_name
  -OEChem-02102213163D

 30 30  0     1  0  0  0  0  0999 V2000
   -3.5507   -3.2183    1.8116 H   0  0  0  0  0  0  0  0  0  0  0  0
   -3.4597   -2.3913    1.1076 C   0  0  0  0  0  0  0  0  0  0  0  0
   -4.1577   -1.6043    1.3866 H   0  0  0  0  0  0  0  0  0  0  0  0
   -3.6807   -2.7523    0.1036 H   0  0  0  0  0  0  0  0  0  0  0  0
   -2.0477   -1.8543    1.1546 C   0  0  0  0  0  0  0  0  0  0  0  0
   -1.2227   -2.3443    1.9146 O   0  0  0  0  0  0  0  0  0  0  0  0
   -1.7517   -0.8483    0.3266 N   0  0  0  0  0  0  0  0  0  0  0  0
   -2.4847   -0.5123   -0.2804 H   0  0  0  0  0  0  0  0  0  0  0  0
   -0.4117   -0.2463    0.2186 C   0  0  1  0  0  0  0  0  0  0  0  0
    0.2987   -1.0391   -0.0285 H   0  0  0  0  0  0  0  0  0  0  0  0
   -0.4131    0.7505   -0.9636 C   0  0  0  0  0  0  0  0  0  0  0  0
   -0.1599    0.2070   -1.8775 H   0  0  0  0  0  0  0  0  0  0  0  0
   -1.4231    1.1446   -1.0944 H   0  0  0  0  0  0  0  0  0  0  0  0
    0.5341    1.9227   -0.8182 C   0  0  0  0  0  0  0  0  0  0  0  0
    0.7013    2.9337   -1.7446 N   0  3  0  0  0  0  0  0  0  0  0  0
    0.1426    3.0153   -2.5990 H   0  0  0  0  0  0  0  0  0  0  0  0
    1.6245    3.7950   -1.2728 C   0  0  0  0  0  0  0  0  0  0  0  0
    1.9573    4.6998   -1.7775 H   0  0  0  0  0  0  0  0  0  0  0  0
    2.0476    3.3517   -0.0674 N   0  0  0  0  0  0  0  0  0  0  0  0
    2.7406    3.8021    0.5245 H   0  0  0  0  0  0  0  0  0  0  0  0
    1.3729    2.1766    0.2331 C   0  0  0  0  0  0  0  0  0  0  0  0
    1.4817    1.5688    1.1271 H   0  0  0  0  0  0  0  0  0  0  0  0
    0.0470    0.3465    1.5629 C   0  0  0  0  0  0  0  0  0  0  0  0
    1.1854    0.1365    1.9846 O   0  0  0  0  0  0  0  0  0  0  0  0
   -0.8551    1.0750    2.2320 N   0  0  0  0  0  0  0  0  0  0  0  0
   -1.7594    1.2031    1.8040 H   0  0  0  0  0  0  0  0  0  0  0  0
   -0.6356    1.6998    3.5400 C   0  0  0  0  0  0  0  0  0  0  0  0
   -0.4284    2.7647    3.4168 H   0  0  0  0  0  0  0  0  0  0  0  0
   -1.5268    1.5885    4.1601 H   0  0  0  0  0  0  0  0  0  0  0  0
    0.2072    1.2358    4.0566 H   0  0  0  0  0  0  0  0  0  0  0  0
  5  6  2  0  0  0  0
  5  7  1  0  0  0  0
  2  3  1  0  0  0  0
  2  4  1  0  0  0  0
  2  5  1  0  0  0  0
  1  2  1  0  0  0  0
 23 24  2  0  0  0  0
 23 25  1  0  0  0  0
 21 22  1  0  0  0  0
 19 20  1  0  0  0  0
 19 21  1  0  0  0  0
 17 18  1  0  0  0  0
 17 19  1  0  0  0  0
 15 16  1  0  0  0  0
 15 17  2  0  0  0  0
 14 15  1  0  0  0  0
 14 21  2  0  0  0  0
 11 12  1  0  0  0  0
 11 13  1  0  0  0  0
 11 14  1  0  0  0  0
  9 10  1  0  0  0  0
  9 11  1  0  0  0  0
  9 23  1  0  0  0  0
  7  8  1  0  0  0  0
  7  9  1  0  0  0  0
 27 28  1  0  0  0  0
 27 29  1  0  0  0  0
 27 30  1  0  0  0  0
 25 26  1  0  0  0  0
 25 27  1  0  0  0  0
M  CHG  1  15   1
M  END
$$$$
default_name
  -OEChem-02102213163D

 30 30  0     1  0  0  0  0  0999 V2000
   -3.5507   -3.2183    1.8116 H   0  0  0  0  0  0  0  0  0  0  0  0
   -3.4597   -2.3913    1.1076 C   0  0  0  0  0  0  0  0  0  0  0  0
   -4.1577   -1.6043    1.3866 H   0  0  0  0  0  0  0  0  0  0  0  0
   -3.6807   -2.7523    0.1036 H   0  0  0  0  0  0  0  0  0  0  0  0
   -2.0477   -1.8543    1.1546 C   0  0  0  0  0  0  0  0  0  0  0  0
   -1.2227   -2.3443    1.9146 O   0  0  0  0  0  0  0  0  0  0  0  0
   -1.7517   -0.8483    0.3266 N   0  0  0  0  0  0  0  0  0  0  0  0
   -2.4847   -0.5123   -0.2804 H   0  0  0  0  0  0  0  0  0  0  0  0
   -0.4117   -0.2463    0.2186 C   0  0  1  0  0  0  0  0  0  0  0  0
    0.2987   -1.0391   -0.0285 H   0  0  0  0  0  0  0  0  0  0  0  0
   -0.4131    0.7505   -0.9636 C   0  0  0  0  0  0  0  0  0  0  0  0
   -0.1599    0.2070   -1.8775 H   0  0  0  0  0  0  0  0  0  0  0  0
   -1.4231    1.1446   -1.0944 H   0  0  0  0  0  0  0  0  0  0  0  0
    0.5341    1.9227   -0.8182 C   0  0  0  0  0  0  0  0  0  0  0  0
    0.5018    3.0745   -1.5802 N   0  3  0  0  0  0  0  0  0  0  0  0
   -0.2189    3.2680   -2.2816 H   0  0  0  0  0  0  0  0  0  0  0  0
    1.4942    3.8870   -1.1658 C   0  0  0  0  0  0  0  0  0  0  0  0
    1.7104    4.8736   -1.5707 H   0  0  0  0  0  0  0  0  0  0  0  0
    2.1563    3.2752   -0.1580 N   0  0  0  0  0  0  0  0  0  0  0  0
    2.9509    3.6537    0.3506 H   0  0  0  0  0  0  0  0  0  0  0  0
    1.5662    2.0402    0.0730 C   0  0  0  0  0  0  0  0  0  0  0  0
    1.8588    1.3028    0.8153 H   0  0  0  0  0  0  0  0  0  0  0  0
    0.0470    0.3465    1.5629 C   0  0  0  0  0  0  0  0  0  0  0  0
    1.1854    0.1365    1.9846 O   0  0  0  0  0  0  0  0  0  0  0  0
   -0.8551    1.0750    2.2320 N   0  0  0  0  0  0  0  0  0  0  0  0
   -1.7594    1.2031    1.8040 H   0  0  0  0  0  0  0  0  0  0  0  0
   -0.6356    1.6998    3.5400 C   0  0  0  0  0  0  0  0  0  0  0  0
   -0.4284    2.7647    3.4168 H   0  0  0  0  0  0  0  0  0  0  0  0
   -1.5268    1.5885    4.1601 H   0  0  0  0  0  0  0  0  0  0  0  0
    0.2072    1.2358    4.0566 H   0  0  0  0  0  0  0  0  0  0  0  0
  5  6  2  0  0  0  0
  5  7  1  0  0  0  0
  2  3  1  0  0  0  0
  2  4  1  0  0  0  0
  2  5  1  0  0  0  0
  1  2  1  0  0  0  0
 23 24  2  0  0  0  0
 23 25  1  0  0  0  0
 21 22  1  0  0  0  0
 19 20  1  0  0  0  0
 19 21  1  0  0  0  0
 17 18  1  0  0  0  0
 17 19  1  0  0  0  0
 15 16  1  0  0  0  0
 15 17  2  0  0  0  0
 14 15  1  0  0  0  0
 14 21  2  0  0  0  0
 11 12  1  0  0  0  0
 11 13  1  0  0  0  0
 11 14  1  0  0  0  0
  9 10  1  0  0  0  0
  9 11  1  0  0  0  0
  9 23  1  0  0  0  0
  7  8  1  0  0  0  0
  7  9  1  0  0  0  0
 27 28  1  0  0  0  0
 27 29  1  0  0  0  0
 27 30  1  0  0  0  0
 25 26  1  0  0  0  0
 25 27  1  0  0  0  0
M  CHG  1  15   1
M  END
$$$$
default_name
  -OEChem-02102213163D

 30 30  0     1  0  0  0  0  0999 V2000
   -3.5507   -3.2183    1.8116 H   0  0  0  0  0  0  0  0  0  0  0  0
   -3.4597   -2.3913    1.1076 C   0  0  0  0  0  0  0  0  0  0  0  0
   -4.1577   -1.6043    1.3866 H   0  0  0  0  0  0  0  0  0  0  0  0
   -3.6807   -2.7523    0.1036 H   0  0  0  0  0  0  0  0  0  0  0  0
   -2.0477   -1.8543    1.1546 C   0  0  0  0  0  0  0  0  0  0  0  0
   -1.2227   -2.3443    1.9146 O   0  0  0  0  0  0  0  0  0  0  0  0
   -1.7517   -0.8483    0.3266 N   0  0  0  0  0  0  0  0  0  0  0  0
   -2.4847   -0.5123   -0.2804 H   0  0  0  0  0  0  0  0  0  0  0  0
   -0.4117   -0.2463    0.2186 C   0  0  1  0  0  0  0  0  0  0  0  0
    0.2987   -1.0391   -0.0285 H   0  0  0  0  0  0  0  0  0  0  0  0
   -0.4131    0.7505   -0.9636 C   0  0  0  0  0  0  0  0  0  0  0  0
   -0.1599    0.2070   -1.8775 H   0  0  0  0  0  0  0  0  0  0  0  0
   -1.4231    1.1446   -1.0944 H   0  0  0  0  0  0  0  0  0  0  0  0
    0.5341    1.9227   -0.8182 C   0  0  0  0  0  0  0  0  0  0  0  0
    0.3386    3.1789   -1.3587 N   0  3  0  0  0  0  0  0  0  0  0  0
   -0.5107    3.4517   -1.8616 H   0  0  0  0  0  0  0  0  0  0  0  0
    1.3875    3.9553   -1.0215 C   0  0  0  0  0  0  0  0  0  0  0  0
    1.5090    5.0019   -1.2933 H   0  0  0  0  0  0  0  0  0  0  0  0
    2.2450    3.2186   -0.2796 N   0  0  0  0  0  0  0  0  0  0  0  0
    3.1230    3.5438    0.1165 H   0  0  0  0  0  0  0  0  0  0  0  0
    1.7243    1.9393   -0.1425 C   0  0  0  0  0  0  0  0  0  0  0  0
    2.1672    1.1057    0.3955 H   0  0  0  0  0  0  0  0  0  0  0  0
    0.0470    0.3465    1.5629 C   0  0  0  0  0  0  0  0  0  0  0  0
    1.1854    0.1365    1.9846 O   0  0  0  0  0  0  0  0  0  0  0  0
   -0.8551    1.0750    2.2320 N   0  0  0  0  0  0  0  0  0  0  0  0
   -1.7594    1.2031    1.8040 H   0  0  0  0  0  0  0  0  0  0  0  0
   -0.6356    1.6998    3.5400 C   0  0  0  0  0  0  0  0  0  0  0  0
   -0.4284    2.7647    3.4168 H   0  0  0  0  0  0  0  0  0  0  0  0
   -1.5268    1.5885    4.1601 H   0  0  0  0  0  0  0  0  0  0  0  0
    0.2072    1.2358    4.0566 H   0  0  0  0  0  0  0  0  0  0  0  0
  5  6  2  0  0  0  0
  5  7  1  0  0  0  0
  2  3  1  0  0  0  0
  2  4  1  0  0  0  0
  2  5  1  0  0  0  0
  1  2  1  0  0  0  0
 23 24  2  0  0  0  0
 23 25  1  0  0  0  0
 21 22  1  0  0  0  0
 19 20  1  0  0  0  0
 19 21  1  0  0  0  0
 17 18  1  0  0  0  0
 17 19  1  0  0  0  0
 15 16  1  0  0  0  0
 15 17  2  0  0  0  0
 14 15  1  0  0  0  0
 14 21  2  0  0  0  0
 11 12  1  0  0  0  0
 11 13  1  0  0  0  0
 11 14  1  0  0  0  0
  9 10  1  0  0  0  0
  9 11  1  0  0  0  0
  9 23  1  0  0  0  0
  7  8  1  0  0  0  0
  7  9  1  0  0  0  0
 27 28  1  0  0  0  0
 27 29  1  0  0  0  0
 27 30  1  0  0  0  0
 25 26  1  0  0  0  0
 25 27  1  0  0  0  0
M  CHG  1  15   1
M  END
$$$$
default_name
  -OEChem-02102213163D

 30 30  0     1  0  0  0  0  0999 V2000
   -3.5507   -3.2183    1.8116 H   0  0  0  0  0  0  0  0  0  0  0  0
   -3.4597   -2.3913    1.1076 C   0  0  0  0  0  0  0  0  0  0  0  0
   -4.1577   -1.6043    1.3866 H   0  0  0  0  0  0  0  0  0  0  0  0
   -3.6807   -2.7523    0.1036 H   0  0  0  0  0  0  0  0  0  0  0  0
   -2.0477   -1.8543    1.1546 C   0  0  0  0  0  0  0  0  0  0  0  0
   -1.2227   -2.3443    1.9146 O   0  0  0  0  0  0  0  0  0  0  0  0
   -1.7517   -0.8483    0.3266 N   0  0  0  0  0  0  0  0  0  0  0  0
   -2.4847   -0.5123   -0.2804 H   0  0  0  0  0  0  0  0  0  0  0  0
   -0.4117   -0.2463    0.2186 C   0  0  1  0  0  0  0  0  0  0  0  0
    0.2987   -1.0391   -0.0285 H   0  0  0  0  0  0  0  0  0  0  0  0
   -0.4131    0.7505   -0.9636 C   0  0  0  0  0  0  0  0  0  0  0  0
   -0.1599    0.2070   -1.8775 H   0  0  0  0  0  0  0  0  0  0  0  0
   -1.4231    1.1446   -1.0944 H   0  0  0  0  0  0  0  0  0  0  0  0
    0.5341    1.9227   -0.8182 C   0  0  0  0  0  0  0  0  0  0  0  0
    0.2228    3.2398   -1.0951 N   0  3  0  0  0  0  0  0  0  0  0  0
   -0.7130    3.5539   -1.3677 H   0  0  0  0  0  0  0  0  0  0  0  0
    1.3117    3.9952   -0.8496 C   0  0  0  0  0  0  0  0  0  0  0  0
    1.3669    5.0759   -0.9643 H   0  0  0  0  0  0  0  0  0  0  0  0
    2.3077    3.1858   -0.4240 N   0  0  0  0  0  0  0  0  0  0  0  0
    3.2450    3.4798   -0.1620 H   0  0  0  0  0  0  0  0  0  0  0  0
    1.8362    1.8806   -0.3986 C   0  0  0  0  0  0  0  0  0  0  0  0
    2.3858    0.9909   -0.1037 H   0  0  0  0  0  0  0  0  0  0  0  0
    0.0470    0.3465    1.5629 C   0  0  0  0  0  0  0  0  0  0  0  0
    1.1854    0.1365    1.9846 O   0  0  0  0  0  0  0  0  0  0  0  0
   -0.8551    1.0750    2.2320 N   0  0  0  0  0  0  0  0  0  0  0  0
   -1.7594    1.2031    1.8040 H   0  0  0  0  0  0  0  0  0  0  0  0
   -0.6356    1.6998    3.5400 C   0  0  0  0  0  0  0  0  0  0  0  0
   -0.4284    2.7647    3.4168 H   0  0  0  0  0  0  0  0  0  0  0  0
   -1.5268    1.5885    4.1601 H   0  0  0  0  0  0  0  0  0  0  0  0
    0.2072    1.2358    4.0566 H   0  0  0  0  0  0  0  0  0  0  0  0
  5  6  2  0  0  0  0
  5  7  1  0  0  0  0
  2  3  1  0  0  0  0
  2  4  1  0  0  0  0
  2  5  1  0  0  0  0
  1  2  1  0  0  0  0
 23 24  2  0  0  0  0
 23 25  1  0  0  0  0
 21 22  1  0  0  0  0
 19 20  1  0  0  0  0
 19 21  1  0  0  0  0
 17 18  1  0  0  0  0
 17 19  1  0  0  0  0
 15 16  1  0  0  0  0
 15 17  2  0  0  0  0
 14 15  1  0  0  0  0
 14 21  2  0  0  0  0
 11 12  1  0  0  0  0
 11 13  1  0  0  0  0
 11 14  1  0  0  0  0
  9 10  1  0  0  0  0
  9 11  1  0  0  0  0
  9 23  1  0  0  0  0
  7  8  1  0  0  0  0
  7  9  1  0  0  0  0
 27 28  1  0  0  0  0
 27 29  1  0  0  0  0
 27 30  1  0  0  0  0
 25 26  1  0  0  0  0
 25 27  1  0  0  0  0
M  CHG  1  15   1
M  END
$$$$
default_name
  -OEChem-02102213163D

 30 30  0     1  0  0  0  0  0999 V2000
   -3.5507   -3.2183    1.8116 H   0  0  0  0  0  0  0  0  0  0  0  0
   -3.4597   -2.3913    1.1076 C   0  0  0  0  0  0  0  0  0  0  0  0
   -4.1577   -1.6043    1.3866 H   0  0  0  0  0  0  0  0  0  0  0  0
   -3.6807   -2.7523    0.1036 H   0  0  0  0  0  0  0  0  0  0  0  0
   -2.0477   -1.8543    1.1546 C   0  0  0  0  0  0  0  0  0  0  0  0
   -1.2227   -2.3443    1.9146 O   0  0  0  0  0  0  0  0  0  0  0  0
   -1.7517   -0.8483    0.3266 N   0  0  0  0  0  0  0  0  0  0  0  0
   -2.4847   -0.5123   -0.2804 H   0  0  0  0  0  0  0  0  0  0  0  0
   -0.4117   -0.2463    0.2186 C   0  0  1  0  0  0  0  0  0  0  0  0
    0.2987   -1.0391   -0.0285 H   0  0  0  0  0  0  0  0  0  0  0  0
   -0.4131    0.7505   -0.9636 C   0  0  0  0  0  0  0  0  0  0  0  0
   -0.1599    0.2070   -1.8775 H   0  0  0  0  0  0  0  0  0  0  0  0
   -1.4231    1.1446   -1.0944 H   0  0  0  0  0  0  0  0  0  0  0  0
    0.5341    1.9227   -0.8182 C   0  0  0  0  0  0  0  0  0  0  0  0
    0.1622    3.2531   -0.8074 N   0  3  0  0  0  0  0  0  0  0  0  0
   -0.8120    3.5677   -0.8336 H   0  0  0  0  0  0  0  0  0  0  0  0
    1.2719    4.0041   -0.6619 C   0  0  0  0  0  0  0  0  0  0  0  0
    1.2937    5.0906   -0.6060 H   0  0  0  0  0  0  0  0  0  0  0  0
    2.3402    3.1791   -0.5813 N   0  0  0  0  0  0  0  0  0  0  0  0
    3.3086    3.4660   -0.4657 H   0  0  0  0  0  0  0  0  0  0  0  0
    1.8945    1.8681   -0.6779 C   0  0  0  0  0  0  0  0  0  0  0  0
    2.4998    0.9664   -0.6483 H   0  0  0  0  0  0  0  0  0  0  0  0
    0.0470    0.3465    1.5629 C   0  0  0  0  0  0  0  0  0  0  0  0
    1.1854    0.1365    1.9846 O   0  0  0  0  0  0  0  0  0  0  0  0
   -0.8551    1.0750    2.2320 N   0  0  0  0  0  0  0  0  0  0  0  0
   -1.7594    1.2031    1.8040 H   0  0  0  0  0  0  0  0  0  0  0  0
   -0.6356    1.6998    3.5400 C   0  0  0  0  0  0  0  0  0  0  0  0
   -0.4284    2.7647    3.4168 H   0  0  0  0  0  0  0  0  0  0  0  0
   -1.5268    1.5885    4.1601 H   0  0  0  0  0  0  0  0  0  0  0  0
    0.2072    1.2358    4.0566 H   0  0  0  0  0  0  0  0  0  0  0  0
  5  6  2  0  0  0  0
  5  7  1  0  0  0  0
  2  3  1  0  0  0  0
  2  4  1  0  0  0  0
  2  5  1  0  0  0  0
  1  2  1  0  0  0  0
 23 24  2  0  0  0  0
 23 25  1  0  0  0  0
 21 22  1  0  0  0  0
 19 20  1  0  0  0  0
 19 21  1  0  0  0  0
 17 18  1  0  0  0  0
 17 19  1  0  0  0  0
 15 16  1  0  0  0  0
 15 17  2  0  0  0  0
 14 15  1  0  0  0  0
 14 21  2  0  0  0  0
 11 12  1  0  0  0  0
 11 13  1  0  0  0  0
 11 14  1  0  0  0  0
  9 10  1  0  0  0  0
  9 11  1  0  0  0  0
  9 23  1  0  0  0  0
  7  8  1  0  0  0  0
  7  9  1  0  0  0  0
 27 28  1  0  0  0  0
 27 29  1  0  0  0  0
 27 30  1  0  0  0  0
 25 26  1  0  0  0  0
 25 27  1  0  0  0  0
M  CHG  1  15   1
M  END
$$$$
default_name
  -OEChem-02102213163D

 30 30  0     1  0  0  0  0  0999 V2000
   -3.5507   -3.2183    1.8116 H   0  0  0  0  0  0  0  0  0  0  0  0
   -3.4597   -2.3913    1.1076 C   0  0  0  0  0  0  0  0  0  0  0  0
   -4.1577   -1.6043    1.3866 H   0  0  0  0  0  0  0  0  0  0  0  0
   -3.6807   -2.7523    0.1036 H   0  0  0  0  0  0  0  0  0  0  0  0
   -2.0477   -1.8543    1.1546 C   0  0  0  0  0  0  0  0  0  0  0  0
   -1.2227   -2.3443    1.9146 O   0  0  0  0  0  0  0  0  0  0  0  0
   -1.7517   -0.8483    0.3266 N   0  0  0  0  0  0  0  0  0  0  0  0
   -2.4847   -0.5123   -0.2804 H   0  0  0  0  0  0  0  0  0  0  0  0
   -0.4117   -0.2463    0.2186 C   0  0  1  0  0  0  0  0  0  0  0  0
    0.2987   -1.0391   -0.0285 H   0  0  0  0  0  0  0  0  0  0  0  0
   -0.4131    0.7505   -0.9636 C   0  0  0  0  0  0  0  0  0  0  0  0
   -0.1599    0.2070   -1.8775 H   0  0  0  0  0  0  0  0  0  0  0  0
   -1.4231    1.1446   -1.0944 H   0  0  0  0  0  0  0  0  0  0  0  0
    0.5341    1.9227   -0.8182 C   0  0  0  0  0  0  0  0  0  0  0  0
    0.1610    3.2178   -0.5152 N   0  3  0  0  0  0  0  0  0  0  0  0
   -0.8010    3.4920   -0.2955 H   0  0  0  0  0  0  0  0  0  0  0  0
    1.2708    3.9813   -0.4713 C   0  0  0  0  0  0  0  0  0  0  0  0
    1.2944    5.0449   -0.2428 H   0  0  0  0  0  0  0  0  0  0  0  0
    2.3402    3.1989   -0.7409 N   0  0  0  0  0  0  0  0  0  0  0  0
    3.3095    3.5035   -0.7741 H   0  0  0  0  0  0  0  0  0  0  0  0
    1.8952    1.9028   -0.9615 C   0  0  0  0  0  0  0  0  0  0  0  0
    2.5015    1.0336   -1.2012 H   0  0  0  0  0  0  0  0  0  0  0  0
    0.0470    0.3465    1.5629 C   0  0  0  0  0  0  0  0  0  0  0  0
    1.1854    0.1365    1.9846 O   0  0  0  0  0  0  0  0  0  0  0  0
   -0.8551    1.0750    2.2320 N   0  0  0  0  0  0  0  0  0  0  0  0
   -1.7594    1.2031    1.8040 H   0  0  0  0  0  0  0  0  0  0  0  0
   -0.6356    1.6998    3.5400 C   0  0  0  0  0  0  0  0  0  0  0  0
   -0.4284    2.7647    3.4168 H   0  0  0  0  0  0  0  0  0  0  0  0
   -1.5268    1.5885    4.1601 H   0  0  0  0  0  0  0  0  0  0  0  0
    0.2072    1.2358    4.0566 H   0  0  0  0  0  0  0  0  0  0  0  0
  5  6  2  0  0  0  0
  5  7  1  0  0  0  0
  2  3  1  0  0  0  0
  2  4  1  0  0  0  0
  2  5  1  0  0  0  0
  1  2  1  0  0  0  0
 23 24  2  0  0  0  0
 23 25  1  0  0  0  0
 21 22  1  0  0  0  0
 19 20  1  0  0  0  0
 19 21  1  0  0  0  0
 17 18  1  0  0  0  0
 17 19  1  0  0  0  0
 15 16  1  0  0  0  0
 15 17  2  0  0  0  0
 14 15  1  0  0  0  0
 14 21  2  0  0  0  0
 11 12  1  0  0  0  0
 11 13  1  0  0  0  0
 11 14  1  0  0  0  0
  9 10  1  0  0  0  0
  9 11  1  0  0  0  0
  9 23  1  0  0  0  0
  7  8  1  0  0  0  0
  7  9  1  0  0  0  0
 27 28  1  0  0  0  0
 27 29  1  0  0  0  0
 27 30  1  0  0  0  0
 25 26  1  0  0  0  0
 25 27  1  0  0  0  0
M  CHG  1  15   1
M  END
$$$$
default_name
  -OEChem-02102213163D

 30 30  0     1  0  0  0  0  0999 V2000
   -3.5507   -3.2183    1.8116 H   0  0  0  0  0  0  0  0  0  0  0  0
   -3.4597   -2.3913    1.1076 C   0  0  0  0  0  0  0  0  0  0  0  0
   -4.1577   -1.6043    1.3866 H   0  0  0  0  0  0  0  0  0  0  0  0
   -3.6807   -2.7523    0.1036 H   0  0  0  0  0  0  0  0  0  0  0  0
   -2.0477   -1.8543    1.1546 C   0  0  0  0  0  0  0  0  0  0  0  0
   -1.2227   -2.3443    1.9146 O   0  0  0  0  0  0  0  0  0  0  0  0
   -1.7517   -0.8483    0.3266 N   0  0  0  0  0  0  0  0  0  0  0  0
   -2.4847   -0.5123   -0.2804 H   0  0  0  0  0  0  0  0  0  0  0  0
   -0.4117   -0.2463    0.2186 C   0  0  1  0  0  0  0  0  0  0  0  0
    0.2987   -1.0391   -0.0285 H   0  0  0  0  0  0  0  0  0  0  0  0
   -0.4131    0.7505   -0.9636 C   0  0  0  0  0  0  0  0  0  0  0  0
   -0.1599    0.2070   -1.8775 H   0  0  0  0  0  0  0  0  0  0  0  0
   -1.4231    1.1446   -1.0944 H   0  0  0  0  0  0  0  0  0  0  0  0
    0.5341    1.9227   -0.8182 C   0  0  0  0  0  0  0  0  0  0  0  0
    0.2192    3.1364   -0.2385 N   0  3  0  0  0  0  0  0  0  0  0  0
   -0.6806    3.3320    0.2097 H   0  0  0  0  0  0  0  0  0  0  0  0
    1.3086    3.9284   -0.2906 C   0  0  0  0  0  0  0  0  0  0  0  0
    1.3691    4.9421    0.1004 H   0  0  0  0  0  0  0  0  0  0  0  0
    2.3077    3.2439   -0.8919 N   0  0  0  0  0  0  0  0  0  0  0  0
    3.2477    3.5897   -1.0661 H   0  0  0  0  0  0  0  0  0  0  0  0
    1.8381    1.9822   -1.2299 C   0  0  0  0  0  0  0  0  0  0  0  0
    2.3906    1.1882   -1.7247 H   0  0  0  0  0  0  0  0  0  0  0  0
    0.0470    0.3465    1.5629 C   0  0  0  0  0  0  0  0  0  0  0  0
    1.1854    0.1365    1.9846 O   0  0  0  0  0  0  0  0  0  0  0  0
   -0.8551    1.0750    2.2320 N   0  0  0  0  0  0  0  0  0  0  0  0
   -1.7594    1.2031    1.8040 H   0  0  0  0  0  0  0  0  0  0  0  0
   -0.6356    1.6998    3.5400 C   0  0  0  0  0  0  0  0  0  0  0  0
   -0.4284    2.7647    3.4168 H   0  0  0  0  0  0  0  0  0  0  0  0
   -1.5268    1.5885    4.1601 H   0  0  0  0  0  0  0  0  0  0  0  0
    0.2072    1.2358    4.0566 H   0  0  0  0  0  0  0  0  0  0  0  0
  5  6  2  0  0  0  0
  5  7  1  0  0  0  0
  2  3  1  0  0  0  0
  2  4  1  0  0  0  0
  2  5  1  0  0  0  0
  1  2  1  0  0  0  0
 23 24  2  0  0  0  0
 23 25  1  0  0  0  0
 21 22  1  0  0  0  0
 19 20  1  0  0  0  0
 19 21  1  0  0  0  0
 17 18  1  0  0  0  0
 17 19  1  0  0  0  0
 15 16  1  0  0  0  0
 15 17  2  0  0  0  0
 14 15  1  0  0  0  0
 14 21  2  0  0  0  0
 11 12  1  0  0  0  0
 11 13  1  0  0  0  0
 11 14  1  0  0  0  0
  9 10  1  0  0  0  0
  9 11  1  0  0  0  0
  9 23  1  0  0  0  0
  7  8  1  0  0  0  0
  7  9  1  0  0  0  0
 27 28  1  0  0  0  0
 27 29  1  0  0  0  0
 27 30  1  0  0  0  0
 25 26  1  0  0  0  0
 25 27  1  0  0  0  0
M  CHG  1  15   1
M  END
$$$$
default_name
  -OEChem-02102213163D

 30 30  0     1  0  0  0  0  0999 V2000
   -3.5507   -3.2183    1.8116 H   0  0  0  0  0  0  0  0  0  0  0  0
   -3.4597   -2.3913    1.1076 C   0  0  0  0  0  0  0  0  0  0  0  0
   -4.1577   -1.6043    1.3866 H   0  0  0  0  0  0  0  0  0  0  0  0
   -3.6807   -2.7523    0.1036 H   0  0  0  0  0  0  0  0  0  0  0  0
   -2.0477   -1.8543    1.1546 C   0  0  0  0  0  0  0  0  0  0  0  0
   -1.2227   -2.3443    1.9146 O   0  0  0  0  0  0  0  0  0  0  0  0
   -1.7517   -0.8483    0.3266 N   0  0  0  0  0  0  0  0  0  0  0  0
   -2.4847   -0.5123   -0.2804 H   0  0  0  0  0  0  0  0  0  0  0  0
   -0.4117   -0.2463    0.2186 C   0  0  1  0  0  0  0  0  0  0  0  0
    0.2987   -1.0391   -0.0285 H   0  0  0  0  0  0  0  0  0  0  0  0
   -0.4131    0.7505   -0.9636 C   0  0  0  0  0  0  0  0  0  0  0  0
   -0.1599    0.2070   -1.8775 H   0  0  0  0  0  0  0  0  0  0  0  0
   -1.4231    1.1446   -1.0944 H   0  0  0  0  0  0  0  0  0  0  0  0
    0.5341    1.9227   -0.8182 C   0  0  0  0  0  0  0  0  0  0  0  0
    0.3330    3.0144    0.0040 N   0  3  0  0  0  0  0  0  0  0  0  0
   -0.4591    3.0987    0.6476 H   0  0  0  0  0  0  0  0  0  0  0  0
    1.3826    3.8490   -0.1321 C   0  0  0  0  0  0  0  0  0  0  0  0
    1.5125    4.7890    0.4003 H   0  0  0  0  0  0  0  0  0  0  0  0
    2.2450    3.3109   -1.0239 N   0  0  0  0  0  0  0  0  0  0  0  0
    3.1273    3.7187   -1.3218 H   0  0  0  0  0  0  0  0  0  0  0  0
    1.7272    2.1009   -1.4648 C   0  0  0  0  0  0  0  0  0  0  0  0
    2.1747    1.4195   -2.1830 H   0  0  0  0  0  0  0  0  0  0  0  0
    0.0470    0.3465    1.5629 C   0  0  0  0  0  0  0  0  0  0  0  0
    1.1854    0.1365    1.9846 O   0  0  0  0  0  0  0  0  0  0  0  0
   -0.8551    1.0750    2.2320 N   0  0  0  0  0  0  0  0  0  0  0  0
   -1.7594    1.2031    1.8040 H   0  0  0  0  0  0  0  0  0  0  0  0
   -0.6356    1.6998    3.5400 C   0  0  0  0  0  0  0  0  0  0  0  0
   -0.4284    2.7647    3.4168 H   0  0  0  0  0  0  0  0  0  0  0  0
   -1.5268    1.5885    4.1601 H   0  0  0  0  0  0  0  0  0  0  0  0
    0.2072    1.2358    4.0566 H   0  0  0  0  0  0  0  0  0  0  0  0
  5  6  2  0  0  0  0
  5  7  1  0  0  0  0
  2  3  1  0  0  0  0
  2  4  1  0  0  0  0
  2  5  1  0  0  0  0
  1  2  1  0  0  0  0
 23 24  2  0  0  0  0
 23 25  1  0  0  0  0
 21 22  1  0  0  0  0
 19 20  1  0  0  0  0
 19 21  1  0  0  0  0
 17 18  1  0  0  0  0
 17 19  1  0  0  0  0
 15 16  1  0  0  0  0
 15 17  2  0  0  0  0
 14 15  1  0  0  0  0
 14 21  2  0  0  0  0
 11 12  1  0  0  0  0
 11 13  1  0  0  0  0
 11 14  1  0  0  0  0
  9 10  1  0  0  0  0
  9 11  1  0  0  0  0
  9 23  1  0  0  0  0
  7  8  1  0  0  0  0
  7  9  1  0  0  0  0
 27 28  1  0  0  0  0
 27 29  1  0  0  0  0
 27 30  1  0  0  0  0
 25 26  1  0  0  0  0
 25 27  1  0  0  0  0
M  CHG  1  15   1
M  END
$$$$
default_name
  -OEChem-02102213163D

 30 30  0     1  0  0  0  0  0999 V2000
   -3.5507   -3.2183    1.8116 H   0  0  0  0  0  0  0  0  0  0  0  0
   -3.4597   -2.3913    1.1076 C   0  0  0  0  0  0  0  0  0  0  0  0
   -4.1577   -1.6043    1.3866 H   0  0  0  0  0  0  0  0  0  0  0  0
   -3.6807   -2.7523    0.1036 H   0  0  0  0  0  0  0  0  0  0  0  0
   -2.0477   -1.8543    1.1546 C   0  0  0  0  0  0  0  0  0  0  0  0
   -1.2227   -2.3443    1.9146 O   0  0  0  0  0  0  0  0  0  0  0  0
   -1.7517   -0.8483    0.3266 N   0  0  0  0  0  0  0  0  0  0  0  0
   -2.4847   -0.5123   -0.2804 H   0  0  0  0  0  0  0  0  0  0  0  0
   -0.4117   -0.2463    0.2186 C   0  0  1  0  0  0  0  0  0  0  0  0
    0.2987   -1.0391   -0.0285 H   0  0  0  0  0  0  0  0  0  0  0  0
   -0.4131    0.7505   -0.9636 C   0  0  0  0  0  0  0  0  0  0  0  0
   -0.1599    0.2070   -1.8775 H   0  0  0  0  0  0  0  0  0  0  0  0
   -1.4231    1.1446   -1.0944 H   0  0  0  0  0  0  0  0  0  0  0  0
    0.5341    1.9227   -0.8182 C   0  0  0  0  0  0  0  0  0  0  0  0
    0.4945    2.8601    0.1957 N   0  3  0  0  0  0  0  0  0  0  0  0
   -0.1516    2.8080    0.9885 H   0  0  0  0  0  0  0  0  0  0  0  0
    1.4878    3.7484   -0.0068 C   0  0  0  0  0  0  0  0  0  0  0  0
    1.7149    4.5961    0.6365 H   0  0  0  0  0  0  0  0  0  0  0  0
    2.1562    3.3955   -1.1280 N   0  0  0  0  0  0  0  0  0  0  0  0
    2.9566    3.8817   -1.5237 H   0  0  0  0  0  0  0  0  0  0  0  0
    1.5701    2.2509   -1.6503 C   0  0  0  0  0  0  0  0  0  0  0  0
    1.8686    1.7117   -2.5451 H   0  0  0  0  0  0  0  0  0  0  0  0
    0.0470    0.3465    1.5629 C   0  0  0  0  0  0  0  0  0  0  0  0
    1.1854    0.1365    1.9846 O   0  0  0  0  0  0  0  0  0  0  0  0
   -0.8551    1.0750    2.2320 N   0  0  0  0  0  0  0  0  0  0  0  0
   -1.7594    1.2031    1.8040 H   0  0  0  0  0  0  0  0  0  0  0  0
   -0.6356    1.6998    3.5400 C   0  0  0  0  0  0  0  0  0  0  0  0
   -0.4284    2.7647    3.4168 H   0  0  0  0  0  0  0  0  0  0  0  0
   -1.5268    1.5885    4.1601 H   0  0  0  0  0  0  0  0  0  0  0  0
    0.2072    1.2358    4.0566 H   0  0  0  0  0  0  0  0  0  0  0  0
  5  6  2  0  0  0  0
  5  7  1  0  0  0  0
  2  3  1  0  0  0  0
  2  4  1  0  0  0  0
  2  5  1  0  0  0  0
  1  2  1  0  0  0  0
 23 24  2  0  0  0  0
 23 25  1  0  0  0  0
 21 22  1  0  0  0  0
 19 20  1  0  0  0  0
 19 21  1  0  0  0  0
 17 18  1  0  0  0  0
 17 19  1  0  0  0  0
 15 16  1  0  0  0  0
 15 17  2  0  0  0  0
 14 15  1  0  0  0  0
 14 21  2  0  0  0  0
 11 12  1  0  0  0  0
 11 13  1  0  0  0  0
 11 14  1  0  0  0  0
  9 10  1  0  0  0  0
  9 11  1  0  0  0  0
  9 23  1  0  0  0  0
  7  8  1  0  0  0  0
  7  9  1  0  0  0  0
 27 28  1  0  0  0  0
 27 29  1  0  0  0  0
 27 30  1  0  0  0  0
 25 26  1  0  0  0  0
 25 27  1  0  0  0  0
M  CHG  1  15   1
M  END
$$$$
default_name
  -OEChem-02102213163D

 30 30  0     1  0  0  0  0  0999 V2000
   -3.5507   -3.2183    1.8116 H   0  0  0  0  0  0  0  0  0  0  0  0
   -3.4597   -2.3913    1.1076 C   0  0  0  0  0  0  0  0  0  0  0  0
   -4.1577   -1.6043    1.3866 H   0  0  0  0  0  0  0  0  0  0  0  0
   -3.6807   -2.7523    0.1036 H   0  0  0  0  0  0  0  0  0  0  0  0
   -2.0477   -1.8543    1.1546 C   0  0  0  0  0  0  0  0  0  0  0  0
   -1.2227   -2.3443    1.9146 O   0  0  0  0  0  0  0  0  0  0  0  0
   -1.7517   -0.8483    0.3266 N   0  0  0  0  0  0  0  0  0  0  0  0
   -2.4847   -0.5123   -0.2804 H   0  0  0  0  0  0  0  0  0  0  0  0
   -0.4117   -0.2463    0.2186 C   0  0  1  0  0  0  0  0  0  0  0  0
    0.2987   -1.0391   -0.0285 H   0  0  0  0  0  0  0  0  0  0  0  0
   -0.4131    0.7505   -0.9636 C   0  0  0  0  0  0  0  0  0  0  0  0
   -0.1599    0.2070   -1.8775 H   0  0  0  0  0  0  0  0  0  0  0  0
   -1.4231    1.1446   -1.0944 H   0  0  0  0  0  0  0  0  0  0  0  0
    0.5341    1.9227   -0.8182 C   0  0  0  0  0  0  0  0  0  0  0  0
    0.6927    2.6841    0.3235 N   0  3  0  0  0  0  0  0  0  0  0  0
    0.2210    2.4796    1.2091 H   0  0  0  0  0  0  0  0  0  0  0  0
    1.6170    3.6336    0.0769 C   0  0  0  0  0  0  0  0  0  0  0  0
    1.9626    4.3766    0.7928 H   0  0  0  0  0  0  0  0  0  0  0  0
    2.0476    3.4919   -1.1971 N   0  0  0  0  0  0  0  0  0  0  0  0
    2.7471    4.0676   -1.6582 H   0  0  0  0  0  0  0  0  0  0  0  0
    1.3775    2.4219   -1.7737 C   0  0  0  0  0  0  0  0  0  0  0  0
    1.4931    2.0450   -2.7862 H   0  0  0  0  0  0  0  0  0  0  0  0
    0.0470    0.3465    1.5629 C   0  0  0  0  0  0  0  0  0  0  0  0
    1.1854    0.1365    1.9846 O   0  0  0  0  0  0  0  0  0  0  0  0
   -0.8551    1.0750    2.2320 N   0  0  0  0  0  0  0  0  0  0  0  0
   -1.7594    1.2031    1.8040 H   0  0  0  0  0  0  0  0  0  0  0  0
   -0.6356    1.6998    3.5400 C   0  0  0  0  0  0  0  0  0  0  0  0
   -0.4284    2.7647    3.4168 H   0  0  0  0  0  0  0  0  0  0  0  0
   -1.5268    1.5885    4.1601 H   0  0  0  0  0  0  0  0  0  0  0  0
    0.2072    1.2358    4.0566 H   0  0  0  0  0  0  0  0  0  0  0  0
  5  6  2  0  0  0  0
  5  7  1  0  0  0  0
  2  3  1  0  0  0  0
  2  4  1  0  0  0  0
  2  5  1  0  0  0  0
  1  2  1  0  0  0  0
 23 24  2  0  0  0  0
 23 25  1  0  0  0  0
 21 22  1  0  0  0  0
 19 20  1  0  0  0  0
 19 21  1  0  0  0  0
 17 18  1  0  0  0  0
 17 19  1  0  0  0  0
 15 16  1  0  0  0  0
 15 17  2  0  0  0  0
 14 15  1  0  0  0  0
 14 21  2  0  0  0  0
 11 12  1  0  0  0  0
 11 13  1  0  0  0  0
 11 14  1  0  0  0  0
  9 10  1  0  0  0  0
  9 11  1  0  0  0  0
  9 23  1  0  0  0  0
  7  8  1  0  0  0  0
  7  9  1  0  0  0  0
 27 28  1  0  0  0  0
 27 29  1  0  0  0  0
 27 30  1  0  0  0  0
 25 26  1  0  0  0  0
 25 27  1  0  0  0  0
M  CHG  1  15   1
M  END
$$$$
default_name
  -OEChem-02102213163D

 30 30  0     1  0  0  0  0  0999 V2000
   -3.5507   -3.2183    1.8116 H   0  0  0  0  0  0  0  0  0  0  0  0
   -3.4597   -2.3913    1.1076 C   0  0  0  0  0  0  0  0  0  0  0  0
   -4.1577   -1.6043    1.3866 H   0  0  0  0  0  0  0  0  0  0  0  0
   -3.6807   -2.7523    0.1036 H   0  0  0  0  0  0  0  0  0  0  0  0
   -2.0477   -1.8543    1.1546 C   0  0  0  0  0  0  0  0  0  0  0  0
   -1.2227   -2.3443    1.9146 O   0  0  0  0  0  0  0  0  0  0  0  0
   -1.7517   -0.8483    0.3266 N   0  0  0  0  0  0  0  0  0  0  0  0
   -2.4847   -0.5123   -0.2804 H   0  0  0  0  0  0  0  0  0  0  0  0
   -0.4117   -0.2463    0.2186 C   0  0  1  0  0  0  0  0  0  0  0  0
    0.2987   -1.0391   -0.0285 H   0  0  0  0  0  0  0  0  0  0  0  0
   -0.4131    0.7505   -0.9636 C   0  0  0  0  0  0  0  0  0  0  0  0
   -0.1599    0.2070   -1.8775 H   0  0  0  0  0  0  0  0  0  0  0  0
   -1.4231    1.1446   -1.0944 H   0  0  0  0  0  0  0  0  0  0  0  0
    0.5341    1.9227   -0.8182 C   0  0  0  0  0  0  0  0  0  0  0  0
    0.9142    2.4983    0.3787 N   0  3  0  0  0  0  0  0  0  0  0  0
    0.6332    2.1359    1.2944 H   0  0  0  0  0  0  0  0  0  0  0  0
    1.7614    3.5124    0.1132 C   0  0  0  0  0  0  0  0  0  0  0  0
    2.2385    4.1454    0.8586 H   0  0  0  0  0  0  0  0  0  0  0  0
    1.9264    3.5935   -1.2264 N   0  0  0  0  0  0  0  0  0  0  0  0
    2.5133    4.2638   -1.7161 H   0  0  0  0  0  0  0  0  0  0  0  0
    1.1624    2.6022   -1.8266 C   0  0  0  0  0  0  0  0  0  0  0  0
    1.0738    2.3967   -2.8898 H   0  0  0  0  0  0  0  0  0  0  0  0
    0.0470    0.3465    1.5629 C   0  0  0  0  0  0  0  0  0  0  0  0
    1.1854    0.1365    1.9846 O   0  0  0  0  0  0  0  0  0  0  0  0
   -0.8551    1.0750    2.2320 N   0  0  0  0  0  0  0  0  0  0  0  0
   -1.7594    1.2031    1.8040 H   0  0  0  0  0  0  0  0  0  0  0  0
   -0.6356    1.6998    3.5400 C   0  0  0  0  0  0  0  0  0  0  0  0
   -0.4284    2.7647    3.4168 H   0  0  0  0  0  0  0  0  0  0  0  0
   -1.5268    1.5885    4.1601 H   0  0  0  0  0  0  0  0  0  0  0  0
    0.2072    1.2358    4.0566 H   0  0  0  0  0  0  0  0  0  0  0  0
  5  6  2  0  0  0  0
  5  7  1  0  0  0  0
  2  3  1  0  0  0  0
  2  4  1  0  0  0  0
  2  5  1  0  0  0  0
  1  2  1  0  0  0  0
 23 24  2  0  0  0  0
 23 25  1  0  0  0  0
 21 22  1  0  0  0  0
 19 20  1  0  0  0  0
 19 21  1  0  0  0  0
 17 18  1  0  0  0  0
 17 19  1  0  0  0  0
 15 16  1  0  0  0  0
 15 17  2  0  0  0  0
 14 15  1  0  0  0  0
 14 21  2  0  0  0  0
 11 12  1  0  0  0  0
 11 13  1  0  0  0  0
 11 14  1  0  0  0  0
  9 10  1  0  0  0  0
  9 11  1  0  0  0  0
  9 23  1  0  0  0  0
  7  8  1  0  0  0  0
  7  9  1  0  0  0  0
 27 28  1  0  0  0  0
 27 29  1  0  0  0  0
 27 30  1  0  0  0  0
 25 26  1  0  0  0  0
 25 27  1  0  0  0  0
M  CHG  1  15   1
M  END
$$$$
default_name
  -OEChem-02102213163D

 30 30  0     1  0  0  0  0  0999 V2000
   -3.5507   -3.2183    1.8116 H   0  0  0  0  0  0  0  0  0  0  0  0
   -3.4597   -2.3913    1.1076 C   0  0  0  0  0  0  0  0  0  0  0  0
   -4.1577   -1.6043    1.3866 H   0  0  0  0  0  0  0  0  0  0  0  0
   -3.6807   -2.7523    0.1036 H   0  0  0  0  0  0  0  0  0  0  0  0
   -2.0477   -1.8543    1.1546 C   0  0  0  0  0  0  0  0  0  0  0  0
   -1.2227   -2.3443    1.9146 O   0  0  0  0  0  0  0  0  0  0  0  0
   -1.7517   -0.8483    0.3266 N   0  0  0  0  0  0  0  0  0  0  0  0
   -2.4847   -0.5123   -0.2804 H   0  0  0  0  0  0  0  0  0  0  0  0
   -0.4117   -0.2463    0.2186 C   0  0  1  0  0  0  0  0  0  0  0  0
    0.2987   -1.0391   -0.0285 H   0  0  0  0  0  0  0  0  0  0  0  0
   -0.4131    0.7505   -0.9636 C   0  0  0  0  0  0  0  0  0  0  0  0
   -0.1599    0.2070   -1.8775 H   0  0  0  0  0  0  0  0  0  0  0  0
   -1.4231    1.1446   -1.0944 H   0  0  0  0  0  0  0  0  0  0  0  0
    0.5341    1.9227   -0.8182 C   0  0  0  0  0  0  0  0  0  0  0  0
    1.1438    2.3154    0.3576 N   0  3  0  0  0  0  0  0  0  0  0  0
    1.0571    1.8004    1.2384 H   0  0  0  0  0  0  0  0  0  0  0  0
    1.9112    3.3930    0.0998 C   0  0  0  0  0  0  0  0  0  0  0  0
    2.5241    3.9184    0.8295 H   0  0  0  0  0  0  0  0  0  0  0  0
    1.8009    3.6933   -1.2140 N   0  0  0  0  0  0  0  0  0  0  0  0
    2.2709    4.4568   -1.6933 H   0  0  0  0  0  0  0  0  0  0  0  0
    0.9395    2.7797   -1.8055 C   0  0  0  0  0  0  0  0  0  0  0  0
    0.6393    2.7427   -2.8490 H   0  0  0  0  0  0  0  0  0  0  0  0
    0.0470    0.3465    1.5629 C   0  0  0  0  0  0  0  0  0  0  0  0
    1.1854    0.1365    1.9846 O   0  0  0  0  0  0  0  0  0  0  0  0
   -0.8551    1.0750    2.2320 N   0  0  0  0  0  0  0  0  0  0  0  0
   -1.7594    1.2031    1.8040 H   0  0  0  0  0  0  0  0  0  0  0  0
   -0.6356    1.6998    3.5400 C   0  0  0  0  0  0  0  0  0  0  0  0
   -0.4284    2.7647    3.4168 H   0  0  0  0  0  0  0  0  0  0  0  0
   -1.5268    1.5885    4.1601 H   0  0  0  0  0  0  0  0  0  0  0  0
    0.2072    1.2358    4.0566 H   0  0  0  0  0  0  0  0  0  0  0  0
  5  6  2  0  0  0  0
  5  7  1  0  0  0  0
  2  3  1  0  0  0  0
  2  4  1  0  0  0  0
  2  5  1  0  0  0  0
  1  2  1  0  0  0  0
 23 24  2  0  0  0  0
 23 25  1  0  0  0  0
 21 22  1  0  0  0  0
 19 20  1  0  0  0  0
 19 21  1  0  0  0  0
 17 18  1  0  0  0  0
 17 19  1  0  0  0  0
 15 16  1  0  0  0  0
 15 17  2  0  0  0  0
 14 15  1  0  0  0  0
 14 21  2  0  0  0  0
 11 12  1  0  0  0  0
 11 13  1  0  0  0  0
 11 14  1  0  0  0  0
  9 10  1  0  0  0  0
  9 11  1  0  0  0  0
  9 23  1  0  0  0  0
  7  8  1  0  0  0  0
  7  9  1  0  0  0  0
 27 28  1  0  0  0  0
 27 29  1  0  0  0  0
 27 30  1  0  0  0  0
 25 26  1  0  0  0  0
 25 27  1  0  0  0  0
M  CHG  1  15   1
M  END
$$$$
default_name
  -OEChem-02102213163D

 30 30  0     1  0  0  0  0  0999 V2000
   -3.5507   -3.2183    1.8116 H   0  0  0  0  0  0  0  0  0  0  0  0
   -3.4597   -2.3913    1.1076 C   0  0  0  0  0  0  0  0  0  0  0  0
   -4.1577   -1.6043    1.3866 H   0  0  0  0  0  0  0  0  0  0  0  0
   -3.6807   -2.7523    0.1036 H   0  0  0  0  0  0  0  0  0  0  0  0
   -2.0477   -1.8543    1.1546 C   0  0  0  0  0  0  0  0  0  0  0  0
   -1.2227   -2.3443    1.9146 O   0  0  0  0  0  0  0  0  0  0  0  0
   -1.7517   -0.8483    0.3266 N   0  0  0  0  0  0  0  0  0  0  0  0
   -2.4847   -0.5123   -0.2804 H   0  0  0  0  0  0  0  0  0  0  0  0
   -0.4117   -0.2463    0.2186 C   0  0  1  0  0  0  0  0  0  0  0  0
    0.2987   -1.0391   -0.0285 H   0  0  0  0  0  0  0  0  0  0  0  0
   -0.4131    0.7505   -0.9636 C   0  0  0  0  0  0  0  0  0  0  0  0
   -0.1599    0.2070   -1.8775 H   0  0  0  0  0  0  0  0  0  0  0  0
   -1.4231    1.1446   -1.0944 H   0  0  0  0  0  0  0  0  0  0  0  0
    0.5341    1.9227   -0.8182 C   0  0  0  0  0  0  0  0  0  0  0  0
    1.3659    2.1479    0.2615 N   0  3  0  0  0  0  0  0  0  0  0  0
    1.4636    1.4959    1.0452 H   0  0  0  0  0  0  0  0  0  0  0  0
    2.0562    3.2836    0.0375 C   0  0  0  0  0  0  0  0  0  0  0  0
    2.7997    3.7108    0.7074 H   0  0  0  0  0  0  0  0  0  0  0  0
    1.6798    3.7846   -1.1607 N   0  0  0  0  0  0  0  0  0  0  0  0
    2.0366    4.6335   -1.5915 H   0  0  0  0  0  0  0  0  0  0  0  0
    0.7241    2.9421   -1.7116 C   0  0  0  0  0  0  0  0  0  0  0  0
    0.2192    3.0595   -2.6665 H   0  0  0  0  0  0  0  0  0  0  0  0
    0.0470    0.3465    1.5629 C   0  0  0  0  0  0  0  0  0  0  0  0
    1.1854    0.1365    1.9846 O   0  0  0  0  0  0  0  0  0  0  0  0
   -0.8551    1.0750    2.2320 N   0  0  0  0  0  0  0  0  0  0  0  0
   -1.7594    1.2031    1.8040 H   0  0  0  0  0  0  0  0  0  0  0  0
   -0.6356    1.6998    3.5400 C   0  0  0  0  0  0  0  0  0  0  0  0
   -0.4284    2.7647    3.4168 H   0  0  0  0  0  0  0  0  0  0  0  0
   -1.5268    1.5885    4.1601 H   0  0  0  0  0  0  0  0  0  0  0  0
    0.2072    1.2358    4.0566 H   0  0  0  0  0  0  0  0  0  0  0  0
  5  6  2  0  0  0  0
  5  7  1  0  0  0  0
  2  3  1  0  0  0  0
  2  4  1  0  0  0  0
  2  5  1  0  0  0  0
  1  2  1  0  0  0  0
 23 24  2  0  0  0  0
 23 25  1  0  0  0  0
 21 22  1  0  0  0  0
 19 20  1  0  0  0  0
 19 21  1  0  0  0  0
 17 18  1  0  0  0  0
 17 19  1  0  0  0  0
 15 16  1  0  0  0  0
 15 17  2  0  0  0  0
 14 15  1  0  0  0  0
 14 21  2  0  0  0  0
 11 12  1  0  0  0  0
 11 13  1  0  0  0  0
 11 14  1  0  0  0  0
  9 10  1  0  0  0  0
  9 11  1  0  0  0  0
  9 23  1  0  0  0  0
  7  8  1  0  0  0  0
  7  9  1  0  0  0  0
 27 28  1  0  0  0  0
 27 29  1  0  0  0  0
 27 30  1  0  0  0  0
 25 26  1  0  0  0  0
 25 27  1  0  0  0  0
M  CHG  1  15   1
M  END
$$$$
default_name
  -OEChem-02102213163D

 30 30  0     1  0  0  0  0  0999 V2000
   -3.5507   -3.2183    1.8116 H   0  0  0  0  0  0  0  0  0  0  0  0
   -3.4597   -2.3913    1.1076 C   0  0  0  0  0  0  0  0  0  0  0  0
   -4.1577   -1.6043    1.3866 H   0  0  0  0  0  0  0  0  0  0  0  0
   -3.6807   -2.7523    0.1036 H   0  0  0  0  0  0  0  0  0  0  0  0
   -2.0477   -1.8543    1.1546 C   0  0  0  0  0  0  0  0  0  0  0  0
   -1.2227   -2.3443    1.9146 O   0  0  0  0  0  0  0  0  0  0  0  0
   -1.7517   -0.8483    0.3266 N   0  0  0  0  0  0  0  0  0  0  0  0
   -2.4847   -0.5123   -0.2804 H   0  0  0  0  0  0  0  0  0  0  0  0
   -0.4117   -0.2463    0.2186 C   0  0  1  0  0  0  0  0  0  0  0  0
    0.2987   -1.0391   -0.0285 H   0  0  0  0  0  0  0  0  0  0  0  0
   -0.4131    0.7505   -0.9636 C   0  0  0  0  0  0  0  0  0  0  0  0
   -0.1599    0.2070   -1.8775 H   0  0  0  0  0  0  0  0  0  0  0  0
   -1.4231    1.1446   -1.0944 H   0  0  0  0  0  0  0  0  0  0  0  0
    0.5341    1.9227   -0.8182 C   0  0  0  0  0  0  0  0  0  0  0  0
    1.5653    2.0071    0.0972 N   0  3  0  0  0  0  0  0  0  0  0  0
    1.8251    1.2432    0.7277 H   0  0  0  0  0  0  0  0  0  0  0  0
    2.1865    3.1916   -0.0695 C   0  0  0  0  0  0  0  0  0  0  0  0
    3.0466    3.5370    0.5006 H   0  0  0  0  0  0  0  0  0  0  0  0
    1.5711    3.8612   -1.0702 N   0  0  0  0  0  0  0  0  0  0  0  0
    1.8262    4.7819   -1.4176 H   0  0  0  0  0  0  0  0  0  0  0  0
    0.5308    3.0784   -1.5515 C   0  0  0  0  0  0  0  0  0  0  0  0
   -0.1579    3.3255   -2.3547 H   0  0  0  0  0  0  0  0  0  0  0  0
    0.0470    0.3465    1.5629 C   0  0  0  0  0  0  0  0  0  0  0  0
    1.1854    0.1365    1.9846 O   0  0  0  0  0  0  0  0  0  0  0  0
   -0.8551    1.0750    2.2320 N   0  0  0  0  0  0  0  0  0  0  0  0
   -1.7594    1.2031    1.8040 H   0  0  0  0  0  0  0  0  0  0  0  0
   -0.6356    1.6998    3.5400 C   0  0  0  0  0  0  0  0  0  0  0  0
   -0.4284    2.7647    3.4168 H   0  0  0  0  0  0  0  0  0  0  0  0
   -1.5268    1.5885    4.1601 H   0  0  0  0  0  0  0  0  0  0  0  0
    0.2072    1.2358    4.0566 H   0  0  0  0  0  0  0  0  0  0  0  0
  5  6  2  0  0  0  0
  5  7  1  0  0  0  0
  2  3  1  0  0  0  0
  2  4  1  0  0  0  0
  2  5  1  0  0  0  0
  1  2  1  0  0  0  0
 23 24  2  0  0  0  0
 23 25  1  0  0  0  0
 21 22  1  0  0  0  0
 19 20  1  0  0  0  0
 19 21  1  0  0  0  0
 17 18  1  0  0  0  0
 17 19  1  0  0  0  0
 15 16  1  0  0  0  0
 15 17  2  0  0  0  0
 14 15  1  0  0  0  0
 14 21  2  0  0  0  0
 11 12  1  0  0  0  0
 11 13  1  0  0  0  0
 11 14  1  0  0  0  0
  9 10  1  0  0  0  0
  9 11  1  0  0  0  0
  9 23  1  0  0  0  0
  7  8  1  0  0  0  0
  7  9  1  0  0  0  0
 27 28  1  0  0  0  0
 27 29  1  0  0  0  0
 27 30  1  0  0  0  0
 25 26  1  0  0  0  0
 25 27  1  0  0  0  0
M  CHG  1  15   1
M  END
$$$$
default_name
  -OEChem-02102213163D

 30 30  0     1  0  0  0  0  0999 V2000
   -3.5507   -3.2183    1.8116 H   0  0  0  0  0  0  0  0  0  0  0  0
   -3.4597   -2.3913    1.1076 C   0  0  0  0  0  0  0  0  0  0  0  0
   -4.1577   -1.6043    1.3866 H   0  0  0  0  0  0  0  0  0  0  0  0
   -3.6807   -2.7523    0.1036 H   0  0  0  0  0  0  0  0  0  0  0  0
   -2.0477   -1.8543    1.1546 C   0  0  0  0  0  0  0  0  0  0  0  0
   -1.2227   -2.3443    1.9146 O   0  0  0  0  0  0  0  0  0  0  0  0
   -1.7517   -0.8483    0.3266 N   0  0  0  0  0  0  0  0  0  0  0  0
   -2.4847   -0.5123   -0.2804 H   0  0  0  0  0  0  0  0  0  0  0  0
   -0.4117   -0.2463    0.2186 C   0  0  1  0  0  0  0  0  0  0  0  0
    0.2987   -1.0391   -0.0285 H   0  0  0  0  0  0  0  0  0  0  0  0
   -0.4131    0.7505   -0.9636 C   0  0  0  0  0  0  0  0  0  0  0  0
   -0.1599    0.2070   -1.8775 H   0  0  0  0  0  0  0  0  0  0  0  0
   -1.4231    1.1446   -1.0944 H   0  0  0  0  0  0  0  0  0  0  0  0
    0.5341    1.9227   -0.8182 C   0  0  0  0  0  0  0  0  0  0  0  0
    1.7285    1.9027   -0.1244 N   0  3  0  0  0  0  0  0  0  0  0  0
    2.1169    1.0595    0.3078 H   0  0  0  0  0  0  0  0  0  0  0  0
    2.2932    3.1233   -0.2139 C   0  0  0  0  0  0  0  0  0  0  0  0
    3.2480    3.4087    0.2232 H   0  0  0  0  0  0  0  0  0  0  0  0
    1.4824    3.9178   -0.9486 N   0  0  0  0  0  0  0  0  0  0  0  0
    1.6542    4.8918   -1.1835 H   0  0  0  0  0  0  0  0  0  0  0  0
    0.3728    3.1794   -1.3360 C   0  0  0  0  0  0  0  0  0  0  0  0
   -0.4663    3.5226   -1.9348 H   0  0  0  0  0  0  0  0  0  0  0  0
    0.0470    0.3465    1.5629 C   0  0  0  0  0  0  0  0  0  0  0  0
    1.1854    0.1365    1.9846 O   0  0  0  0  0  0  0  0  0  0  0  0
   -0.8551    1.0750    2.2320 N   0  0  0  0  0  0  0  0  0  0  0  0
   -1.7594    1.2031    1.8040 H   0  0  0  0  0  0  0  0  0  0  0  0
   -0.6356    1.6998    3.5400 C   0  0  0  0  0  0  0  0  0  0  0  0
   -0.4284    2.7647    3.4168 H   0  0  0  0  0  0  0  0  0  0  0  0
   -1.5268    1.5885    4.1601 H   0  0  0  0  0  0  0  0  0  0  0  0
    0.2072    1.2358    4.0566 H   0  0  0  0  0  0  0  0  0  0  0  0
  5  6  2  0  0  0  0
  5  7  1  0  0  0  0
  2  3  1  0  0  0  0
  2  4  1  0  0  0  0
  2  5  1  0  0  0  0
  1  2  1  0  0  0  0
 23 24  2  0  0  0  0
 23 25  1  0  0  0  0
 21 22  1  0  0  0  0
 19 20  1  0  0  0  0
 19 21  1  0  0  0  0
 17 18  1  0  0  0  0
 17 19  1  0  0  0  0
 15 16  1  0  0  0  0
 15 17  2  0  0  0  0
 14 15  1  0  0  0  0
 14 21  2  0  0  0  0
 11 12  1  0  0  0  0
 11 13  1  0  0  0  0
 11 14  1  0  0  0  0
  9 10  1  0  0  0  0
  9 11  1  0  0  0  0
  9 23  1  0  0  0  0
  7  8  1  0  0  0  0
  7  9  1  0  0  0  0
 27 28  1  0  0  0  0
 27 29  1  0  0  0  0
 27 30  1  0  0  0  0
 25 26  1  0  0  0  0
 25 27  1  0  0  0  0
M  CHG  1  15   1
M  END
$$$$
default_name
  -OEChem-02102213163D

 30 30  0     1  0  0  0  0  0999 V2000
   -3.5507   -3.2183    1.8116 H   0  0  0  0  0  0  0  0  0  0  0  0
   -3.4597   -2.3913    1.1076 C   0  0  0  0  0  0  0  0  0  0  0  0
   -4.1577   -1.6043    1.3866 H   0  0  0  0  0  0  0  0  0  0  0  0
   -3.6807   -2.7523    0.1036 H   0  0  0  0  0  0  0  0  0  0  0  0
   -2.0477   -1.8543    1.1546 C   0  0  0  0  0  0  0  0  0  0  0  0
   -1.2227   -2.3443    1.9146 O   0  0  0  0  0  0  0  0  0  0  0  0
   -1.7517   -0.8483    0.3266 N   0  0  0  0  0  0  0  0  0  0  0  0
   -2.4847   -0.5123   -0.2804 H   0  0  0  0  0  0  0  0  0  0  0  0
   -0.4117   -0.2463    0.2186 C   0  0  1  0  0  0  0  0  0  0  0  0
    0.2987   -1.0391   -0.0285 H   0  0  0  0  0  0  0  0  0  0  0  0
   -0.4131    0.7505   -0.9636 C   0  0  0  0  0  0  0  0  0  0  0  0
   -0.1599    0.2070   -1.8775 H   0  0  0  0  0  0  0  0  0  0  0  0
   -1.4231    1.1446   -1.0944 H   0  0  0  0  0  0  0  0  0  0  0  0
    0.5341    1.9227   -0.8182 C   0  0  0  0  0  0  0  0  0  0  0  0
    1.8444    1.8418   -0.3880 N   0  3  0  0  0  0  0  0  0  0  0  0
    2.3192    0.9573   -0.1861 H   0  0  0  0  0  0  0  0  0  0  0  0
    2.3690    3.0833   -0.3857 C   0  0  0  0  0  0  0  0  0  0  0  0
    3.3901    3.3347   -0.1059 H   0  0  0  0  0  0  0  0  0  0  0  0
    1.4197    3.9505   -0.8042 N   0  0  0  0  0  0  0  0  0  0  0  0
    1.5322    4.9559   -0.9051 H   0  0  0  0  0  0  0  0  0  0  0  0
    0.2608    3.2381   -1.0799 C   0  0  0  0  0  0  0  0  0  0  0  0
   -0.6850    3.6374   -1.4356 H   0  0  0  0  0  0  0  0  0  0  0  0
    0.0470    0.3465    1.5629 C   0  0  0  0  0  0  0  0  0  0  0  0
    1.1854    0.1365    1.9846 O   0  0  0  0  0  0  0  0  0  0  0  0
   -0.8551    1.0750    2.2320 N   0  0  0  0  0  0  0  0  0  0  0  0
   -1.7594    1.2031    1.8040 H   0  0  0  0  0  0  0  0  0  0  0  0
   -0.6356    1.6998    3.5400 C   0  0  0  0  0  0  0  0  0  0  0  0
   -0.4284    2.7647    3.4168 H   0  0  0  0  0  0  0  0  0  0  0  0
   -1.5268    1.5885    4.1601 H   0  0  0  0  0  0  0  0  0  0  0  0
    0.2072    1.2358    4.0566 H   0  0  0  0  0  0  0  0  0  0  0  0
  5  6  2  0  0  0  0
  5  7  1  0  0  0  0
  2  3  1  0  0  0  0
  2  4  1  0  0  0  0
  2  5  1  0  0  0  0
  1  2  1  0  0  0  0
 23 24  2  0  0  0  0
 23 25  1  0  0  0  0
 21 22  1  0  0  0  0
 19 20  1  0  0  0  0
 19 21  1  0  0  0  0
 17 18  1  0  0  0  0
 17 19  1  0  0  0  0
 15 16  1  0  0  0  0
 15 17  2  0  0  0  0
 14 15  1  0  0  0  0
 14 21  2  0  0  0  0
 11 12  1  0  0  0  0
 11 13  1  0  0  0  0
 11 14  1  0  0  0  0
  9 10  1  0  0  0  0
  9 11  1  0  0  0  0
  9 23  1  0  0  0  0
  7  8  1  0  0  0  0
  7  9  1  0  0  0  0
 27 28  1  0  0  0  0
 27 29  1  0  0  0  0
 27 30  1  0  0  0  0
 25 26  1  0  0  0  0
 25 27  1  0  0  0  0
M  CHG  1  15   1
M  END
$$$$
default_name
  -OEChem-02102213163D

 30 30  0     1  0  0  0  0  0999 V2000
   -3.5507   -3.2183    1.8116 H   0  0  0  0  0  0  0  0  0  0  0  0
   -3.4597   -2.3913    1.1076 C   0  0  0  0  0  0  0  0  0  0  0  0
   -4.1577   -1.6043    1.3866 H   0  0  0  0  0  0  0  0  0  0  0  0
   -3.6807   -2.7523    0.1036 H   0  0  0  0  0  0  0  0  0  0  0  0
   -2.0477   -1.8543    1.1546 C   0  0  0  0  0  0  0  0  0  0  0  0
   -1.2227   -2.3443    1.9146 O   0  0  0  0  0  0  0  0  0  0  0  0
   -1.7517   -0.8483    0.3266 N   0  0  0  0  0  0  0  0  0  0  0  0
   -2.4847   -0.5123   -0.2804 H   0  0  0  0  0  0  0  0  0  0  0  0
   -0.4117   -0.2463    0.2186 C   0  0  1  0  0  0  0  0  0  0  0  0
    0.2987   -1.0391   -0.0285 H   0  0  0  0  0  0  0  0  0  0  0  0
   -0.4131    0.7505   -0.9636 C   0  0  0  0  0  0  0  0  0  0  0  0
   -0.1599    0.2070   -1.8775 H   0  0  0  0  0  0  0  0  0  0  0  0
   -1.4231    1.1446   -1.0944 H   0  0  0  0  0  0  0  0  0  0  0  0
    0.5341    1.9227   -0.8182 C   0  0  0  0  0  0  0  0  0  0  0  0
    1.9050    1.8285   -0.6757 N   0  3  0  0  0  0  0  0  0  0  0  0
    2.4182    0.9435   -0.7203 H   0  0  0  0  0  0  0  0  0  0  0  0
    2.4088    3.0745   -0.5734 C   0  0  0  0  0  0  0  0  0  0  0  0
    3.4633    3.3200   -0.4642 H   0  0  0  0  0  0  0  0  0  0  0  0
    1.3872    3.9572   -0.6468 N   0  0  0  0  0  0  0  0  0  0  0  0
    1.4686    4.9696   -0.6013 H   0  0  0  0  0  0  0  0  0  0  0  0
    0.2025    3.2505   -0.8005 C   0  0  0  0  0  0  0  0  0  0  0  0
   -0.7990    3.6620   -0.8910 H   0  0  0  0  0  0  0  0  0  0  0  0
    0.0470    0.3465    1.5629 C   0  0  0  0  0  0  0  0  0  0  0  0
    1.1854    0.1365    1.9846 O   0  0  0  0  0  0  0  0  0  0  0  0
   -0.8551    1.0750    2.2320 N   0  0  0  0  0  0  0  0  0  0  0  0
   -1.7594    1.2031    1.8040 H   0  0  0  0  0  0  0  0  0  0  0  0
   -0.6356    1.6998    3.5400 C   0  0  0  0  0  0  0  0  0  0  0  0
   -0.4284    2.7647    3.4168 H   0  0  0  0  0  0  0  0  0  0  0  0
   -1.5268    1.5885    4.1601 H   0  0  0  0  0  0  0  0  0  0  0  0
    0.2072    1.2358    4.0566 H   0  0  0  0  0  0  0  0  0  0  0  0
  5  6  2  0  0  0  0
  5  7  1  0  0  0  0
  2  3  1  0  0  0  0
  2  4  1  0  0  0  0
  2  5  1  0  0  0  0
  1  2  1  0  0  0  0
 23 24  2  0  0  0  0
 23 25  1  0  0  0  0
 21 22  1  0  0  0  0
 19 20  1  0  0  0  0
 19 21  1  0  0  0  0
 17 18  1  0  0  0  0
 17 19  1  0  0  0  0
 15 16  1  0  0  0  0
 15 17  2  0  0  0  0
 14 15  1  0  0  0  0
 14 21  2  0  0  0  0
 11 12  1  0  0  0  0
 11 13  1  0  0  0  0
 11 14  1  0  0  0  0
  9 10  1  0  0  0  0
  9 11  1  0  0  0  0
  9 23  1  0  0  0  0
  7  8  1  0  0  0  0
  7  9  1  0  0  0  0
 27 28  1  0  0  0  0
 27 29  1  0  0  0  0
 27 30  1  0  0  0  0
 25 26  1  0  0  0  0
 25 27  1  0  0  0  0
M  CHG  1  15   1
M  END
$$$$
default_name
  -OEChem-02102213163D

 30 30  0     1  0  0  0  0  0999 V2000
   -3.5507   -3.2183    1.8116 H   0  0  0  0  0  0  0  0  0  0  0  0
   -3.4597   -2.3913    1.1076 C   0  0  0  0  0  0  0  0  0  0  0  0
   -4.1577   -1.6043    1.3866 H   0  0  0  0  0  0  0  0  0  0  0  0
   -3.6807   -2.7523    0.1036 H   0  0  0  0  0  0  0  0  0  0  0  0
   -2.0477   -1.8543    1.1546 C   0  0  0  0  0  0  0  0  0  0  0  0
   -1.2227   -2.3443    1.9146 O   0  0  0  0  0  0  0  0  0  0  0  0
   -1.7517   -0.8483    0.3266 N   0  0  0  0  0  0  0  0  0  0  0  0
   -2.4847   -0.5123   -0.2804 H   0  0  0  0  0  0  0  0  0  0  0  0
   -0.4117   -0.2463    0.2186 C   0  0  1  0  0  0  0  0  0  0  0  0
    0.2987   -1.0391   -0.0285 H   0  0  0  0  0  0  0  0  0  0  0  0
   -0.4131    0.7505   -0.9636 C   0  0  0  0  0  0  0  0  0  0  0  0
   -0.1599    0.2070   -1.8775 H   0  0  0  0  0  0  0  0  0  0  0  0
   -1.4231    1.1446   -1.0944 H   0  0  0  0  0  0  0  0  0  0  0  0
    0.5341    1.9227   -0.8182 C   0  0  0  0  0  0  0  0  0  0  0  0
    1.9062    1.8638   -0.9679 N   0  3  0  0  0  0  0  0  0  0  0  0
    2.4072    1.0192   -1.2583 H   0  0  0  0  0  0  0  0  0  0  0  0
    2.4099    3.0973   -0.7641 C   0  0  0  0  0  0  0  0  0  0  0  0
    3.4625    3.3656   -0.8273 H   0  0  0  0  0  0  0  0  0  0  0  0
    1.3872    3.9374   -0.4872 N   0  0  0  0  0  0  0  0  0  0  0  0
    1.4677    4.9321   -0.2929 H   0  0  0  0  0  0  0  0  0  0  0  0
    0.2019    3.2159   -0.5170 C   0  0  0  0  0  0  0  0  0  0  0  0
   -0.8006    3.5947   -0.3381 H   0  0  0  0  0  0  0  0  0  0  0  0
    0.0470    0.3465    1.5629 C   0  0  0  0  0  0  0  0  0  0  0  0
    1.1854    0.1365    1.9846 O   0  0  0  0  0  0  0  0  0  0  0  0
   -0.8551    1.0750    2.2320 N   0  0  0  0  0  0  0  0  0  0  0  0
   -1.7594    1.2031    1.8040 H   0  0  0  0  0  0  0  0  0  0  0  0
   -0.6356    1.6998    3.5400 C   0  0  0  0  0  0  0  0  0  0  0  0
   -0.4284    2.7647    3.4168 H   0  0  0  0  0  0  0  0  0  0  0  0
   -1.5268    1.5885    4.1601 H   0  0  0  0  0  0  0  0  0  0  0  0
    0.2072    1.2358    4.0566 H   0  0  0  0  0  0  0  0  0  0  0  0
  5  6  2  0  0  0  0
  5  7  1  0  0  0  0
  2  3  1  0  0  0  0
  2  4  1  0  0  0  0
  2  5  1  0  0  0  0
  1  2  1  0  0  0  0
 23 24  2  0  0  0  0
 23 25  1  0  0  0  0
 21 22  1  0  0  0  0
 19 20  1  0  0  0  0
 19 21  1  0  0  0  0
 17 18  1  0  0  0  0
 17 19  1  0  0  0  0
 15 16  1  0  0  0  0
 15 17  2  0  0  0  0
 14 15  1  0  0  0  0
 14 21  2  0  0  0  0
 11 12  1  0  0  0  0
 11 13  1  0  0  0  0
 11 14  1  0  0  0  0
  9 10  1  0  0  0  0
  9 11  1  0  0  0  0
  9 23  1  0  0  0  0
  7  8  1  0  0  0  0
  7  9  1  0  0  0  0
 27 28  1  0  0  0  0
 27 29  1  0  0  0  0
 27 30  1  0  0  0  0
 25 26  1  0  0  0  0
 25 27  1  0  0  0  0
M  CHG  1  15   1
M  END
$$$$
default_name
  -OEChem-02102213163D

 30 30  0     1  0  0  0  0  0999 V2000
   -3.5507   -3.2183    1.8116 H   0  0  0  0  0  0  0  0  0  0  0  0
   -3.4597   -2.3913    1.1076 C   0  0  0  0  0  0  0  0  0  0  0  0
   -4.1577   -1.6043    1.3866 H   0  0  0  0  0  0  0  0  0  0  0  0
   -3.6807   -2.7523    0.1036 H   0  0  0  0  0  0  0  0  0  0  0  0
   -2.0477   -1.8543    1.1546 C   0  0  0  0  0  0  0  0  0  0  0  0
   -1.2227   -2.3443    1.9146 O   0  0  0  0  0  0  0  0  0  0  0  0
   -1.7517   -0.8483    0.3266 N   0  0  0  0  0  0  0  0  0  0  0  0
   -2.4847   -0.5123   -0.2804 H   0  0  0  0  0  0  0  0  0  0  0  0
   -0.4117   -0.2463    0.2186 C   0  0  1  0  0  0  0  0  0  0  0  0
    0.2987   -1.0391   -0.0285 H   0  0  0  0  0  0  0  0  0  0  0  0
   -0.4131    0.7505   -0.9636 C   0  0  0  0  0  0  0  0  0  0  0  0
   -0.1599    0.2070   -1.8775 H   0  0  0  0  0  0  0  0  0  0  0  0
   -1.4231    1.1446   -1.0944 H   0  0  0  0  0  0  0  0  0  0  0  0
    0.5341    1.9227   -0.8182 C   0  0  0  0  0  0  0  0  0  0  0  0
    1.8479    1.9452   -1.2446 N   0  3  0  0  0  0  0  0  0  0  0  0
    2.2868    1.1792   -1.7635 H   0  0  0  0  0  0  0  0  0  0  0  0
    2.3721    3.1502   -0.9448 C   0  0  0  0  0  0  0  0  0  0  0  0
    3.3879    3.4685   -1.1705 H   0  0  0  0  0  0  0  0  0  0  0  0
    1.4197    3.8925   -0.3363 N   0  0  0  0  0  0  0  0  0  0  0  0
    1.5295    4.8459   -0.0009 H   0  0  0  0  0  0  0  0  0  0  0  0
    0.2589    3.1365   -0.2486 C   0  0  0  0  0  0  0  0  0  0  0  0
   -0.6897    3.4401    0.1853 H   0  0  0  0  0  0  0  0  0  0  0  0
    0.0470    0.3465    1.5629 C   0  0  0  0  0  0  0  0  0  0  0  0
    1.1854    0.1365    1.9846 O   0  0  0  0  0  0  0  0  0  0  0  0
   -0.8551    1.0750    2.2320 N   0  0  0  0  0  0  0  0  0  0  0  0
   -1.7594    1.2031    1.8040 H   0  0  0  0  0  0  0  0  0  0  0  0
   -0.6356    1.6998    3.5400 C   0  0  0  0  0  0  0  0  0  0  0  0
   -0.4284    2.7647    3.4168 H   0  0  0  0  0  0  0  0  0  0  0  0
   -1.5268    1.5885    4.1601 H   0  0  0  0  0  0  0  0  0  0  0  0
    0.2072    1.2358    4.0566 H   0  0  0  0  0  0  0  0  0  0  0  0
  5  6  2  0  0  0  0
  5  7  1  0  0  0  0
  2  3  1  0  0  0  0
  2  4  1  0  0  0  0
  2  5  1  0  0  0  0
  1  2  1  0  0  0  0
 23 24  2  0  0  0  0
 23 25  1  0  0  0  0
 21 22  1  0  0  0  0
 19 20  1  0  0  0  0
 19 21  1  0  0  0  0
 17 18  1  0  0  0  0
 17 19  1  0  0  0  0
 15 16  1  0  0  0  0
 15 17  2  0  0  0  0
 14 15  1  0  0  0  0
 14 21  2  0  0  0  0
 11 12  1  0  0  0  0
 11 13  1  0  0  0  0
 11 14  1  0  0  0  0
  9 10  1  0  0  0  0
  9 11  1  0  0  0  0
  9 23  1  0  0  0  0
  7  8  1  0  0  0  0
  7  9  1  0  0  0  0
 27 28  1  0  0  0  0
 27 29  1  0  0  0  0
 27 30  1  0  0  0  0
 25 26  1  0  0  0  0
 25 27  1  0  0  0  0
M  CHG  1  15   1
M  END
$$$$
default_name
  -OEChem-02102213163D

 30 30  0     1  0  0  0  0  0999 V2000
   -3.5507   -3.2183    1.8116 H   0  0  0  0  0  0  0  0  0  0  0  0
   -3.4597   -2.3913    1.1076 C   0  0  0  0  0  0  0  0  0  0  0  0
   -4.1577   -1.6043    1.3866 H   0  0  0  0  0  0  0  0  0  0  0  0
   -3.6807   -2.7523    0.1036 H   0  0  0  0  0  0  0  0  0  0  0  0
   -2.0477   -1.8543    1.1546 C   0  0  0  0  0  0  0  0  0  0  0  0
   -1.2227   -2.3443    1.9146 O   0  0  0  0  0  0  0  0  0  0  0  0
   -1.7517   -0.8483    0.3266 N   0  0  0  0  0  0  0  0  0  0  0  0
   -2.4847   -0.5123   -0.2804 H   0  0  0  0  0  0  0  0  0  0  0  0
   -0.4117   -0.2463    0.2186 C   0  0  1  0  0  0  0  0  0  0  0  0
    0.2987   -1.0391   -0.0285 H   0  0  0  0  0  0  0  0  0  0  0  0
   -0.4131    0.7505   -0.9636 C   0  0  0  0  0  0  0  0  0  0  0  0
   -0.1599    0.2070   -1.8775 H   0  0  0  0  0  0  0  0  0  0  0  0
   -1.4231    1.1446   -1.0944 H   0  0  0  0  0  0  0  0  0  0  0  0
    0.5341    1.9227   -0.8182 C   0  0  0  0  0  0  0  0  0  0  0  0
    1.7342    2.0672   -1.4871 N   0  3  0  0  0  0  0  0  0  0  0  0
    2.0653    1.4125   -2.2015 H   0  0  0  0  0  0  0  0  0  0  0  0
    2.2981    3.2296   -1.1032 C   0  0  0  0  0  0  0  0  0  0  0  0
    3.2445    3.6216   -1.4704 H   0  0  0  0  0  0  0  0  0  0  0  0
    1.4824    3.8254   -0.2043 N   0  0  0  0  0  0  0  0  0  0  0  0
    1.6499    4.7169    0.2548 H   0  0  0  0  0  0  0  0  0  0  0  0
    0.3698    3.0177   -0.0137 C   0  0  0  0  0  0  0  0  0  0  0  0
   -0.4739    3.2089    0.6437 H   0  0  0  0  0  0  0  0  0  0  0  0
    0.0470    0.3465    1.5629 C   0  0  0  0  0  0  0  0  0  0  0  0
    1.1854    0.1365    1.9846 O   0  0  0  0  0  0  0  0  0  0  0  0
   -0.8551    1.0750    2.2320 N   0  0  0  0  0  0  0  0  0  0  0  0
   -1.7594    1.2031    1.8040 H   0  0  0  0  0  0  0  0  0  0  0  0
   -0.6356    1.6998    3.5400 C   0  0  0  0  0  0  0  0  0  0  0  0
   -0.4284    2.7647    3.4168 H   0  0  0  0  0  0  0  0  0  0  0  0
   -1.5268    1.5885    4.1601 H   0  0  0  0  0  0  0  0  0  0  0  0
    0.2072    1.2358    4.0566 H   0  0  0  0  0  0  0  0  0  0  0  0
  5  6  2  0  0  0  0
  5  7  1  0  0  0  0
  2  3  1  0  0  0  0
  2  4  1  0  0  0  0
  2  5  1  0  0  0  0
  1  2  1  0  0  0  0
 23 24  2  0  0  0  0
 23 25  1  0  0  0  0
 21 22  1  0  0  0  0
 19 20  1  0  0  0  0
 19 21  1  0  0  0  0
 17 18  1  0  0  0  0
 17 19  1  0  0  0  0
 15 16  1  0  0  0  0
 15 17  2  0  0  0  0
 14 15  1  0  0  0  0
 14 21  2  0  0  0  0
 11 12  1  0  0  0  0
 11 13  1  0  0  0  0
 11 14  1  0  0  0  0
  9 10  1  0  0  0  0
  9 11  1  0  0  0  0
  9 23  1  0  0  0  0
  7  8  1  0  0  0  0
  7  9  1  0  0  0  0
 27 28  1  0  0  0  0
 27 29  1  0  0  0  0
 27 30  1  0  0  0  0
 25 26  1  0  0  0  0
 25 27  1  0  0  0  0
M  CHG  1  15   1
M  END
$$$$
default_name
  -OEChem-02102213163D

 30 30  0     1  0  0  0  0  0999 V2000
   -3.5507   -3.2183    1.8116 H   0  0  0  0  0  0  0  0  0  0  0  0
   -3.4597   -2.3913    1.1076 C   0  0  0  0  0  0  0  0  0  0  0  0
   -4.1577   -1.6043    1.3866 H   0  0  0  0  0  0  0  0  0  0  0  0
   -3.6807   -2.7523    0.1036 H   0  0  0  0  0  0  0  0  0  0  0  0
   -2.0477   -1.8543    1.1546 C   0  0  0  0  0  0  0  0  0  0  0  0
   -1.2227   -2.3443    1.9146 O   0  0  0  0  0  0  0  0  0  0  0  0
   -1.7517   -0.8483    0.3266 N   0  0  0  0  0  0  0  0  0  0  0  0
   -2.4847   -0.5123   -0.2804 H   0  0  0  0  0  0  0  0  0  0  0  0
   -0.4117   -0.2463    0.2186 C   0  0  1  0  0  0  0  0  0  0  0  0
    0.2987   -1.0391   -0.0285 H   0  0  0  0  0  0  0  0  0  0  0  0
   -0.4131    0.7505   -0.9636 C   0  0  0  0  0  0  0  0  0  0  0  0
   -0.1599    0.2070   -1.8775 H   0  0  0  0  0  0  0  0  0  0  0  0
   -1.4231    1.1446   -1.0944 H   0  0  0  0  0  0  0  0  0  0  0  0
    0.5341    1.9227   -0.8182 C   0  0  0  0  0  0  0  0  0  0  0  0
    1.5727    2.2215   -1.6788 N   0  3  0  0  0  0  0  0  0  0  0  0
    1.7578    1.7032   -2.5424 H   0  0  0  0  0  0  0  0  0  0  0  0
    2.1929    3.3302   -1.2285 C   0  0  0  0  0  0  0  0  0  0  0  0
    3.0420    3.8144   -1.7066 H   0  0  0  0  0  0  0  0  0  0  0  0
    1.5711    3.7408   -0.1002 N   0  0  0  0  0  0  0  0  0  0  0  0
    1.8206    4.5539    0.4567 H   0  0  0  0  0  0  0  0  0  0  0  0
    0.5269    2.8678    0.1718 C   0  0  0  0  0  0  0  0  0  0  0  0
   -0.1678    2.9166    1.0058 H   0  0  0  0  0  0  0  0  0  0  0  0
    0.0470    0.3465    1.5629 C   0  0  0  0  0  0  0  0  0  0  0  0
    1.1854    0.1365    1.9846 O   0  0  0  0  0  0  0  0  0  0  0  0
   -0.8551    1.0750    2.2320 N   0  0  0  0  0  0  0  0  0  0  0  0
   -1.7594    1.2031    1.8040 H   0  0  0  0  0  0  0  0  0  0  0  0
   -0.6356    1.6998    3.5400 C   0  0  0  0  0  0  0  0  0  0  0  0
   -0.4284    2.7647    3.4168 H   0  0  0  0  0  0  0  0  0  0  0  0
   -1.5268    1.5885    4.1601 H   0  0  0  0  0  0  0  0  0  0  0  0
    0.2072    1.2358    4.0566 H   0  0  0  0  0  0  0  0  0  0  0  0
  5  6  2  0  0  0  0
  5  7  1  0  0  0  0
  2  3  1  0  0  0  0
  2  4  1  0  0  0  0
  2  5  1  0  0  0  0
  1  2  1  0  0  0  0
 23 24  2  0  0  0  0
 23 25  1  0  0  0  0
 21 22  1  0  0  0  0
 19 20  1  0  0  0  0
 19 21  1  0  0  0  0
 17 18  1  0  0  0  0
 17 19  1  0  0  0  0
 15 16  1  0  0  0  0
 15 17  2  0  0  0  0
 14 15  1  0  0  0  0
 14 21  2  0  0  0  0
 11 12  1  0  0  0  0
 11 13  1  0  0  0  0
 11 14  1  0  0  0  0
  9 10  1  0  0  0  0
  9 11  1  0  0  0  0
  9 23  1  0  0  0  0
  7  8  1  0  0  0  0
  7  9  1  0  0  0  0
 27 28  1  0  0  0  0
 27 29  1  0  0  0  0
 27 30  1  0  0  0  0
 25 26  1  0  0  0  0
 25 27  1  0  0  0  0
M  CHG  1  15   1
M  END
$$$$
default_name
  -OEChem-02102213163D

 30 30  0     1  0  0  0  0  0999 V2000
   -3.5507   -3.2183    1.8116 H   0  0  0  0  0  0  0  0  0  0  0  0
   -3.4597   -2.3913    1.1076 C   0  0  0  0  0  0  0  0  0  0  0  0
   -4.1577   -1.6043    1.3866 H   0  0  0  0  0  0  0  0  0  0  0  0
   -3.6807   -2.7523    0.1036 H   0  0  0  0  0  0  0  0  0  0  0  0
   -2.0477   -1.8543    1.1546 C   0  0  0  0  0  0  0  0  0  0  0  0
   -1.2227   -2.3443    1.9146 O   0  0  0  0  0  0  0  0  0  0  0  0
   -1.7517   -0.8483    0.3266 N   0  0  0  0  0  0  0  0  0  0  0  0
   -2.4847   -0.5123   -0.2804 H   0  0  0  0  0  0  0  0  0  0  0  0
   -0.4117   -0.2463    0.2186 C   0  0  1  0  0  0  0  0  0  0  0  0
    0.2987   -1.0391   -0.0285 H   0  0  0  0  0  0  0  0  0  0  0  0
   -0.4131    0.7505   -0.9636 C   0  0  0  0  0  0  0  0  0  0  0  0
   -0.1599    0.2070   -1.8775 H   0  0  0  0  0  0  0  0  0  0  0  0
   -1.4231    1.1446   -1.0944 H   0  0  0  0  0  0  0  0  0  0  0  0
    0.5341    1.9227   -0.8182 C   0  0  0  0  0  0  0  0  0  0  0  0
    1.3744    2.3975   -1.8066 N   0  3  0  0  0  0  0  0  0  0  0  0
    1.3852    2.0316   -2.7630 H   0  0  0  0  0  0  0  0  0  0  0  0
    2.0637    3.4450   -1.3122 C   0  0  0  0  0  0  0  0  0  0  0  0
    2.7944    4.0339   -1.8629 H   0  0  0  0  0  0  0  0  0  0  0  0
    1.6798    3.6445   -0.0311 N   0  0  0  0  0  0  0  0  0  0  0  0
    2.0300    4.3680    0.5912 H   0  0  0  0  0  0  0  0  0  0  0  0
    0.7196    2.6968    0.2952 C   0  0  0  0  0  0  0  0  0  0  0  0
    0.2077    2.5833    1.2469 H   0  0  0  0  0  0  0  0  0  0  0  0
    0.0470    0.3465    1.5629 C   0  0  0  0  0  0  0  0  0  0  0  0
    1.1854    0.1365    1.9846 O   0  0  0  0  0  0  0  0  0  0  0  0
   -0.8551    1.0750    2.2320 N   0  0  0  0  0  0  0  0  0  0  0  0
   -1.7594    1.2031    1.8040 H   0  0  0  0  0  0  0  0  0  0  0  0
   -0.6356    1.6998    3.5400 C   0  0  0  0  0  0  0  0  0  0  0  0
   -0.4284    2.7647    3.4168 H   0  0  0  0  0  0  0  0  0  0  0  0
   -1.5268    1.5885    4.1601 H   0  0  0  0  0  0  0  0  0  0  0  0
    0.2072    1.2358    4.0566 H   0  0  0  0  0  0  0  0  0  0  0  0
  5  6  2  0  0  0  0
  5  7  1  0  0  0  0
  2  3  1  0  0  0  0
  2  4  1  0  0  0  0
  2  5  1  0  0  0  0
  1  2  1  0  0  0  0
 23 24  2  0  0  0  0
 23 25  1  0  0  0  0
 21 22  1  0  0  0  0
 19 20  1  0  0  0  0
 19 21  1  0  0  0  0
 17 18  1  0  0  0  0
 17 19  1  0  0  0  0
 15 16  1  0  0  0  0
 15 17  2  0  0  0  0
 14 15  1  0  0  0  0
 14 21  2  0  0  0  0
 11 12  1  0  0  0  0
 11 13  1  0  0  0  0
 11 14  1  0  0  0  0
  9 10  1  0  0  0  0
  9 11  1  0  0  0  0
  9 23  1  0  0  0  0
  7  8  1  0  0  0  0
  7  9  1  0  0  0  0
 27 28  1  0  0  0  0
 27 29  1  0  0  0  0
 27 30  1  0  0  0  0
 25 26  1  0  0  0  0
 25 27  1  0  0  0  0
M  CHG  1  15   1
M  END
$$$$
default_name
  -OEChem-02102213163D

 30 30  0     1  0  0  0  0  0999 V2000
   -3.5507   -3.2183    1.8116 H   0  0  0  0  0  0  0  0  0  0  0  0
   -3.4597   -2.3913    1.1076 C   0  0  0  0  0  0  0  0  0  0  0  0
   -4.1577   -1.6043    1.3866 H   0  0  0  0  0  0  0  0  0  0  0  0
   -3.6807   -2.7523    0.1036 H   0  0  0  0  0  0  0  0  0  0  0  0
   -2.0477   -1.8543    1.1546 C   0  0  0  0  0  0  0  0  0  0  0  0
   -1.2227   -2.3443    1.9146 O   0  0  0  0  0  0  0  0  0  0  0  0
   -1.7517   -0.8483    0.3266 N   0  0  0  0  0  0  0  0  0  0  0  0
   -2.4847   -0.5123   -0.2804 H   0  0  0  0  0  0  0  0  0  0  0  0
   -0.4117   -0.2463    0.2186 C   0  0  1  0  0  0  0  0  0  0  0  0
    0.2987   -1.0391   -0.0285 H   0  0  0  0  0  0  0  0  0  0  0  0
   -0.4131    0.7505   -0.9636 C   0  0  0  0  0  0  0  0  0  0  0  0
   -0.1599    0.2070   -1.8775 H   0  0  0  0  0  0  0  0  0  0  0  0
   -1.4231    1.1446   -1.0944 H   0  0  0  0  0  0  0  0  0  0  0  0
    0.5341    1.9227   -0.8182 C   0  0  0  0  0  0  0  0  0  0  0  0
    1.1530    2.5833   -1.8618 N   0  3  0  0  0  0  0  0  0  0  0  0
    0.9730    2.3753   -2.8482 H   0  0  0  0  0  0  0  0  0  0  0  0
    1.9193    3.5662   -1.3486 C   0  0  0  0  0  0  0  0  0  0  0  0
    2.5184    4.2651   -1.9288 H   0  0  0  0  0  0  0  0  0  0  0  0
    1.8010    3.5429   -0.0018 N   0  0  0  0  0  0  0  0  0  0  0  0
    2.2639    4.1719    0.6491 H   0  0  0  0  0  0  0  0  0  0  0  0
    0.9347    2.5164    0.3482 C   0  0  0  0  0  0  0  0  0  0  0  0
    0.6270    2.2316    1.3505 H   0  0  0  0  0  0  0  0  0  0  0  0
    0.0470    0.3465    1.5629 C   0  0  0  0  0  0  0  0  0  0  0  0
    1.1854    0.1365    1.9846 O   0  0  0  0  0  0  0  0  0  0  0  0
   -0.8551    1.0750    2.2320 N   0  0  0  0  0  0  0  0  0  0  0  0
   -1.7594    1.2031    1.8040 H   0  0  0  0  0  0  0  0  0  0  0  0
   -0.6356    1.6998    3.5400 C   0  0  0  0  0  0  0  0  0  0  0  0
   -0.4284    2.7647    3.4168 H   0  0  0  0  0  0  0  0  0  0  0  0
   -1.5268    1.5885    4.1601 H   0  0  0  0  0  0  0  0  0  0  0  0
    0.2072    1.2358    4.0566 H   0  0  0  0  0  0  0  0  0  0  0  0
  5  6  2  0  0  0  0
  5  7  1  0  0  0  0
  2  3  1  0  0  0  0
  2  4  1  0  0  0  0
  2  5  1  0  0  0  0
  1  2  1  0  0  0  0
 23 24  2  0  0  0  0
 23 25  1  0  0  0  0
 21 22  1  0  0  0  0
 19 20  1  0  0  0  0
 19 21  1  0  0  0  0
 17 18  1  0  0  0  0
 17 19  1  0  0  0  0
 15 16  1  0  0  0  0
 15 17  2  0  0  0  0
 14 15  1  0  0  0  0
 14 21  2  0  0  0  0
 11 12  1  0  0  0  0
 11 13  1  0  0  0  0
 11 14  1  0  0  0  0
  9 10  1  0  0  0  0
  9 11  1  0  0  0  0
  9 23  1  0  0  0  0
  7  8  1  0  0  0  0
  7  9  1  0  0  0  0
 27 28  1  0  0  0  0
 27 29  1  0  0  0  0
 27 30  1  0  0  0  0
 25 26  1  0  0  0  0
 25 27  1  0  0  0  0
M  CHG  1  15   1
M  END
$$$$
default_name
  -OEChem-02102213163D

 30 30  0     1  0  0  0  0  0999 V2000
   -3.5507   -3.2183    1.8116 H   0  0  0  0  0  0  0  0  0  0  0  0
   -3.4597   -2.3913    1.1076 C   0  0  0  0  0  0  0  0  0  0  0  0
   -4.1577   -1.6043    1.3866 H   0  0  0  0  0  0  0  0  0  0  0  0
   -3.6807   -2.7523    0.1036 H   0  0  0  0  0  0  0  0  0  0  0  0
   -2.0477   -1.8543    1.1546 C   0  0  0  0  0  0  0  0  0  0  0  0
   -1.2227   -2.3443    1.9146 O   0  0  0  0  0  0  0  0  0  0  0  0
   -1.7517   -0.8483    0.3266 N   0  0  0  0  0  0  0  0  0  0  0  0
   -2.4847   -0.5123   -0.2804 H   0  0  0  0  0  0  0  0  0  0  0  0
   -0.4117   -0.2463    0.2186 C   0  0  1  0  0  0  0  0  0  0  0  0
    0.2987   -1.0391   -0.0285 H   0  0  0  0  0  0  0  0  0  0  0  0
   -0.4131    0.7505   -0.9636 C   0  0  0  0  0  0  0  0  0  0  0  0
   -0.1599    0.2070   -1.8775 H   0  0  0  0  0  0  0  0  0  0  0  0
   -1.4231    1.1446   -1.0944 H   0  0  0  0  0  0  0  0  0  0  0  0
    0.5341    1.9227   -0.8182 C   0  0  0  0  0  0  0  0  0  0  0  0
    0.9234    2.7662   -1.8406 N   0  3  0  0  0  0  0  0  0  0  0  0
    0.5492    2.7108   -2.7923 H   0  0  0  0  0  0  0  0  0  0  0  0
    1.7694    3.6856   -1.3351 C   0  0  0  0  0  0  0  0  0  0  0  0
    2.2329    4.4922   -1.8996 H   0  0  0  0  0  0  0  0  0  0  0  0
    1.9264    3.4431   -0.0142 N   0  0  0  0  0  0  0  0  0  0  0  0
    2.5063    3.9789    0.6263 H   0  0  0  0  0  0  0  0  0  0  0  0
    1.1575    2.3390    0.3270 C   0  0  0  0  0  0  0  0  0  0  0  0
    1.0615    1.8856    1.3097 H   0  0  0  0  0  0  0  0  0  0  0  0
    0.0470    0.3465    1.5629 C   0  0  0  0  0  0  0  0  0  0  0  0
    1.1854    0.1365    1.9846 O   0  0  0  0  0  0  0  0  0  0  0  0
   -0.8551    1.0750    2.2320 N   0  0  0  0  0  0  0  0  0  0  0  0
   -1.7594    1.2031    1.8040 H   0  0  0  0  0  0  0  0  0  0  0  0
   -0.6356    1.6998    3.5400 C   0  0  0  0  0  0  0  0  0  0  0  0
   -0.4284    2.7647    3.4168 H   0  0  0  0  0  0  0  0  0  0  0  0
   -1.5268    1.5885    4.1601 H   0  0  0  0  0  0  0  0  0  0  0  0
    0.2072    1.2358    4.0566 H   0  0  0  0  0  0  0  0  0  0  0  0
  5  6  2  0  0  0  0
  5  7  1  0  0  0  0
  2  3  1  0  0  0  0
  2  4  1  0  0  0  0
  2  5  1  0  0  0  0
  1  2  1  0  0  0  0
 23 24  2  0  0  0  0
 23 25  1  0  0  0  0
 21 22  1  0  0  0  0
 19 20  1  0  0  0  0
 19 21  1  0  0  0  0
 17 18  1  0  0  0  0
 17 19  1  0  0  0  0
 15 16  1  0  0  0  0
 15 17  2  0  0  0  0
 14 15  1  0  0  0  0
 14 21  2  0  0  0  0
 11 12  1  0  0  0  0
 11 13  1  0  0  0  0
 11 14  1  0  0  0  0
  9 10  1  0  0  0  0
  9 11  1  0  0  0  0
  9 23  1  0  0  0  0
  7  8  1  0  0  0  0
  7  9  1  0  0  0  0
 27 28  1  0  0  0  0
 27 29  1  0  0  0  0
 27 30  1  0  0  0  0
 25 26  1  0  0  0  0
 25 27  1  0  0  0  0
M  CHG  1  15   1
M  END
$$$$
default_name
  -OEChem-02102213163D

 30 30  0     1  0  0  0  0  0999 V2000
   -3.5507   -3.2183    1.8116 H   0  0  0  0  0  0  0  0  0  0  0  0
   -3.4597   -2.3913    1.1076 C   0  0  0  0  0  0  0  0  0  0  0  0
   -4.1577   -1.6043    1.3866 H   0  0  0  0  0  0  0  0  0  0  0  0
   -3.6807   -2.7523    0.1036 H   0  0  0  0  0  0  0  0  0  0  0  0
   -2.0477   -1.8543    1.1546 C   0  0  0  0  0  0  0  0  0  0  0  0
   -1.2227   -2.3443    1.9146 O   0  0  0  0  0  0  0  0  0  0  0  0
   -1.7517   -0.8483    0.3266 N   0  0  0  0  0  0  0  0  0  0  0  0
   -2.4847   -0.5123   -0.2804 H   0  0  0  0  0  0  0  0  0  0  0  0
   -0.4117   -0.2463    0.2186 C   0  0  1  0  0  0  0  0  0  0  0  0
    0.2987   -1.0391   -0.0285 H   0  0  0  0  0  0  0  0  0  0  0  0
   -0.4131    0.7505   -0.9636 C   0  0  0  0  0  0  0  0  0  0  0  0
   -0.4286    0.1829   -1.8975 H   0  0  0  0  0  0  0  0  0  0  0  0
   -1.3325    1.3388   -0.9307 H   0  0  0  0  0  0  0  0  0  0  0  0
    0.7580    1.7095   -0.9982 C   0  0  0  0  0  0  0  0  0  0  0  0
    0.9650    2.6827   -1.9566 N   0  3  0  0  0  0  0  0  0  0  0  0
    0.2990    2.8873   -2.7071 H   0  0  0  0  0  0  0  0  0  0  0  0
    2.1058    3.3363   -1.6601 C   0  0  0  0  0  0  0  0  0  0  0  0
    2.5221    4.1655   -2.2286 H   0  0  0  0  0  0  0  0  0  0  0  0
    2.6280    2.7981   -0.5349 N   0  0  0  0  0  0  0  0  0  0  0  0
    3.4852    3.0926   -0.0745 H   0  0  0  0  0  0  0  0  0  0  0  0
    1.7939    1.7749   -0.1060 C   0  0  0  0  0  0  0  0  0  0  0  0
    1.9279    1.1429    0.7676 H   0  0  0  0  0  0  0  0  0  0  0  0
    0.0470    0.3465    1.5629 C   0  0  0  0  0  0  0  0  0  0  0  0
    1.1854    0.1365    1.9846 O   0  0  0  0  0  0  0  0  0  0  0  0
   -0.8551    1.0750    2.2320 N   0  0  0  0  0  0  0  0  0  0  0  0
   -1.7594    1.2031    1.8040 H   0  0  0  0  0  0  0  0  0  0  0  0
   -0.6356    1.6998    3.5400 C   0  0  0  0  0  0  0  0  0  0  0  0
   -0.4284    2.7647    3.4168 H   0  0  0  0  0  0  0  0  0  0  0  0
   -1.5268    1.5885    4.1601 H   0  0  0  0  0  0  0  0  0  0  0  0
    0.2072    1.2358    4.0566 H   0  0  0  0  0  0  0  0  0  0  0  0
  5  6  2  0  0  0  0
  5  7  1  0  0  0  0
  2  3  1  0  0  0  0
  2  4  1  0  0  0  0
  2  5  1  0  0  0  0
  1  2  1  0  0  0  0
 23 24  2  0  0  0  0
 23 25  1  0  0  0  0
 21 22  1  0  0  0  0
 19 20  1  0  0  0  0
 19 21  1  0  0  0  0
 17 18  1  0  0  0  0
 17 19  1  0  0  0  0
 15 16  1  0  0  0  0
 15 17  2  0  0  0  0
 14 15  1  0  0  0  0
 14 21  2  0  0  0  0
 11 12  1  0  0  0  0
 11 13  1  0  0  0  0
 11 14  1  0  0  0  0
  9 10  1  0  0  0  0
  9 11  1  0  0  0  0
  9 23  1  0  0  0  0
  7  8  1  0  0  0  0
  7  9  1  0  0  0  0
 27 28  1  0  0  0  0
 27 29  1  0  0  0  0
 27 30  1  0  0  0  0
 25 26  1  0  0  0  0
 25 27  1  0  0  0  0
M  CHG  1  15   1
M  END
$$$$
default_name
  -OEChem-02102213163D

 30 30  0     1  0  0  0  0  0999 V2000
   -3.5507   -3.2183    1.8116 H   0  0  0  0  0  0  0  0  0  0  0  0
   -3.4597   -2.3913    1.1076 C   0  0  0  0  0  0  0  0  0  0  0  0
   -4.1577   -1.6043    1.3866 H   0  0  0  0  0  0  0  0  0  0  0  0
   -3.6807   -2.7523    0.1036 H   0  0  0  0  0  0  0  0  0  0  0  0
   -2.0477   -1.8543    1.1546 C   0  0  0  0  0  0  0  0  0  0  0  0
   -1.2227   -2.3443    1.9146 O   0  0  0  0  0  0  0  0  0  0  0  0
   -1.7517   -0.8483    0.3266 N   0  0  0  0  0  0  0  0  0  0  0  0
   -2.4847   -0.5123   -0.2804 H   0  0  0  0  0  0  0  0  0  0  0  0
   -0.4117   -0.2463    0.2186 C   0  0  1  0  0  0  0  0  0  0  0  0
    0.2987   -1.0391   -0.0285 H   0  0  0  0  0  0  0  0  0  0  0  0
   -0.4131    0.7505   -0.9636 C   0  0  0  0  0  0  0  0  0  0  0  0
   -0.4286    0.1829   -1.8975 H   0  0  0  0  0  0  0  0  0  0  0  0
   -1.3325    1.3388   -0.9307 H   0  0  0  0  0  0  0  0  0  0  0  0
    0.7580    1.7095   -0.9982 C   0  0  0  0  0  0  0  0  0  0  0  0
    0.8276    2.8574   -1.7637 N   0  3  0  0  0  0  0  0  0  0  0  0
    0.0527    3.2013   -2.3382 H   0  0  0  0  0  0  0  0  0  0  0  0
    2.0160    3.4504   -1.5345 C   0  0  0  0  0  0  0  0  0  0  0  0
    2.3525    4.3813   -1.9865 H   0  0  0  0  0  0  0  0  0  0  0  0
    2.7027    2.7031   -0.6409 N   0  0  0  0  0  0  0  0  0  0  0  0
    3.6300    2.9084   -0.2785 H   0  0  0  0  0  0  0  0  0  0  0  0
    1.9270    1.6057   -0.2938 C   0  0  0  0  0  0  0  0  0  0  0  0
    2.1875    0.8127    0.4018 H   0  0  0  0  0  0  0  0  0  0  0  0
    0.0470    0.3465    1.5629 C   0  0  0  0  0  0  0  0  0  0  0  0
    1.1854    0.1365    1.9846 O   0  0  0  0  0  0  0  0  0  0  0  0
   -0.8551    1.0750    2.2320 N   0  0  0  0  0  0  0  0  0  0  0  0
   -1.7594    1.2031    1.8040 H   0  0  0  0  0  0  0  0  0  0  0  0
   -0.6356    1.6998    3.5400 C   0  0  0  0  0  0  0  0  0  0  0  0
   -0.4284    2.7647    3.4168 H   0  0  0  0  0  0  0  0  0  0  0  0
   -1.5268    1.5885    4.1601 H   0  0  0  0  0  0  0  0  0  0  0  0
    0.2072    1.2358    4.0566 H   0  0  0  0  0  0  0  0  0  0  0  0
  5  6  2  0  0  0  0
  5  7  1  0  0  0  0
  2  3  1  0  0  0  0
  2  4  1  0  0  0  0
  2  5  1  0  0  0  0
  1  2  1  0  0  0  0
 23 24  2  0  0  0  0
 23 25  1  0  0  0  0
 21 22  1  0  0  0  0
 19 20  1  0  0  0  0
 19 21  1  0  0  0  0
 17 18  1  0  0  0  0
 17 19  1  0  0  0  0
 15 16  1  0  0  0  0
 15 17  2  0  0  0  0
 14 15  1  0  0  0  0
 14 21  2  0  0  0  0
 11 12  1  0  0  0  0
 11 13  1  0  0  0  0
 11 14  1  0  0  0  0
  9 10  1  0  0  0  0
  9 11  1  0  0  0  0
  9 23  1  0  0  0  0
  7  8  1  0  0  0  0
  7  9  1  0  0  0  0
 27 28  1  0  0  0  0
 27 29  1  0  0  0  0
 27 30  1  0  0  0  0
 25 26  1  0  0  0  0
 25 27  1  0  0  0  0
M  CHG  1  15   1
M  END
$$$$
default_name
  -OEChem-02102213163D

 30 30  0     1  0  0  0  0  0999 V2000
   -3.5507   -3.2183    1.8116 H   0  0  0  0  0  0  0  0  0  0  0  0
   -3.4597   -2.3913    1.1076 C   0  0  0  0  0  0  0  0  0  0  0  0
   -4.1577   -1.6043    1.3866 H   0  0  0  0  0  0  0  0  0  0  0  0
   -3.6807   -2.7523    0.1036 H   0  0  0  0  0  0  0  0  0  0  0  0
   -2.0477   -1.8543    1.1546 C   0  0  0  0  0  0  0  0  0  0  0  0
   -1.2227   -2.3443    1.9146 O   0  0  0  0  0  0  0  0  0  0  0  0
   -1.7517   -0.8483    0.3266 N   0  0  0  0  0  0  0  0  0  0  0  0
   -2.4847   -0.5123   -0.2804 H   0  0  0  0  0  0  0  0  0  0  0  0
   -0.4117   -0.2463    0.2186 C   0  0  1  0  0  0  0  0  0  0  0  0
    0.2987   -1.0391   -0.0285 H   0  0  0  0  0  0  0  0  0  0  0  0
   -0.4131    0.7505   -0.9636 C   0  0  0  0  0  0  0  0  0  0  0  0
   -0.4286    0.1829   -1.8975 H   0  0  0  0  0  0  0  0  0  0  0  0
   -1.3325    1.3388   -0.9307 H   0  0  0  0  0  0  0  0  0  0  0  0
    0.7580    1.7095   -0.9982 C   0  0  0  0  0  0  0  0  0  0  0  0
    0.7276    2.9883   -1.5198 N   0  3  0  0  0  0  0  0  0  0  0  0
   -0.1227    3.4321   -1.8786 H   0  0  0  0  0  0  0  0  0  0  0  0
    1.9506    3.5361   -1.3755 C   0  0  0  0  0  0  0  0  0  0  0  0
    2.2297    4.5423   -1.6816 H   0  0  0  0  0  0  0  0  0  0  0  0
    2.7569    2.6321   -0.7746 N   0  0  0  0  0  0  0  0  0  0  0  0
    3.7354    2.7705   -0.5362 H   0  0  0  0  0  0  0  0  0  0  0  0
    2.0237    1.4790   -0.5308 C   0  0  0  0  0  0  0  0  0  0  0  0
    2.3763    0.5655   -0.0602 H   0  0  0  0  0  0  0  0  0  0  0  0
    0.0470    0.3465    1.5629 C   0  0  0  0  0  0  0  0  0  0  0  0
    1.1854    0.1365    1.9846 O   0  0  0  0  0  0  0  0  0  0  0  0
   -0.8551    1.0750    2.2320 N   0  0  0  0  0  0  0  0  0  0  0  0
   -1.7594    1.2031    1.8040 H   0  0  0  0  0  0  0  0  0  0  0  0
   -0.6356    1.6998    3.5400 C   0  0  0  0  0  0  0  0  0  0  0  0
   -0.4284    2.7647    3.4168 H   0  0  0  0  0  0  0  0  0  0  0  0
   -1.5268    1.5885    4.1601 H   0  0  0  0  0  0  0  0  0  0  0  0
    0.2072    1.2358    4.0566 H   0  0  0  0  0  0  0  0  0  0  0  0
  5  6  2  0  0  0  0
  5  7  1  0  0  0  0
  2  3  1  0  0  0  0
  2  4  1  0  0  0  0
  2  5  1  0  0  0  0
  1  2  1  0  0  0  0
 23 24  2  0  0  0  0
 23 25  1  0  0  0  0
 21 22  1  0  0  0  0
 19 20  1  0  0  0  0
 19 21  1  0  0  0  0
 17 18  1  0  0  0  0
 17 19  1  0  0  0  0
 15 16  1  0  0  0  0
 15 17  2  0  0  0  0
 14 15  1  0  0  0  0
 14 21  2  0  0  0  0
 11 12  1  0  0  0  0
 11 13  1  0  0  0  0
 11 14  1  0  0  0  0
  9 10  1  0  0  0  0
  9 11  1  0  0  0  0
  9 23  1  0  0  0  0
  7  8  1  0  0  0  0
  7  9  1  0  0  0  0
 27 28  1  0  0  0  0
 27 29  1  0  0  0  0
 27 30  1  0  0  0  0
 25 26  1  0  0  0  0
 25 27  1  0  0  0  0
M  CHG  1  15   1
M  END
$$$$
default_name
  -OEChem-02102213163D

 30 30  0     1  0  0  0  0  0999 V2000
   -3.5507   -3.2183    1.8116 H   0  0  0  0  0  0  0  0  0  0  0  0
   -3.4597   -2.3913    1.1076 C   0  0  0  0  0  0  0  0  0  0  0  0
   -4.1577   -1.6043    1.3866 H   0  0  0  0  0  0  0  0  0  0  0  0
   -3.6807   -2.7523    0.1036 H   0  0  0  0  0  0  0  0  0  0  0  0
   -2.0477   -1.8543    1.1546 C   0  0  0  0  0  0  0  0  0  0  0  0
   -1.2227   -2.3443    1.9146 O   0  0  0  0  0  0  0  0  0  0  0  0
   -1.7517   -0.8483    0.3266 N   0  0  0  0  0  0  0  0  0  0  0  0
   -2.4847   -0.5123   -0.2804 H   0  0  0  0  0  0  0  0  0  0  0  0
   -0.4117   -0.2463    0.2186 C   0  0  1  0  0  0  0  0  0  0  0  0
    0.2987   -1.0391   -0.0285 H   0  0  0  0  0  0  0  0  0  0  0  0
   -0.4131    0.7505   -0.9636 C   0  0  0  0  0  0  0  0  0  0  0  0
   -0.4286    0.1829   -1.8975 H   0  0  0  0  0  0  0  0  0  0  0  0
   -1.3325    1.3388   -0.9307 H   0  0  0  0  0  0  0  0  0  0  0  0
    0.7580    1.7095   -0.9982 C   0  0  0  0  0  0  0  0  0  0  0  0
    0.6717    3.0666   -1.2417 N   0  3  0  0  0  0  0  0  0  0  0  0
   -0.2155    3.5642   -1.3597 H   0  0  0  0  0  0  0  0  0  0  0  0
    1.9139    3.5874   -1.1942 C   0  0  0  0  0  0  0  0  0  0  0  0
    2.1619    4.6375   -1.3348 H   0  0  0  0  0  0  0  0  0  0  0  0
    2.7869    2.5899   -0.9269 N   0  0  0  0  0  0  0  0  0  0  0  0
    3.7941    2.6882   -0.8299 H   0  0  0  0  0  0  0  0  0  0  0  0
    2.0775    1.4036   -0.8010 C   0  0  0  0  0  0  0  0  0  0  0  0
    2.4815    0.4180   -0.5868 H   0  0  0  0  0  0  0  0  0  0  0  0
    0.0470    0.3465    1.5629 C   0  0  0  0  0  0  0  0  0  0  0  0
    1.1854    0.1365    1.9846 O   0  0  0  0  0  0  0  0  0  0  0  0
   -0.8551    1.0750    2.2320 N   0  0  0  0  0  0  0  0  0  0  0  0
   -1.7594    1.2031    1.8040 H   0  0  0  0  0  0  0  0  0  0  0  0
   -0.6356    1.6998    3.5400 C   0  0  0  0  0  0  0  0  0  0  0  0
   -0.4284    2.7647    3.4168 H   0  0  0  0  0  0  0  0  0  0  0  0
   -1.5268    1.5885    4.1601 H   0  0  0  0  0  0  0  0  0  0  0  0
    0.2072    1.2358    4.0566 H   0  0  0  0  0  0  0  0  0  0  0  0
  5  6  2  0  0  0  0
  5  7  1  0  0  0  0
  2  3  1  0  0  0  0
  2  4  1  0  0  0  0
  2  5  1  0  0  0  0
  1  2  1  0  0  0  0
 23 24  2  0  0  0  0
 23 25  1  0  0  0  0
 21 22  1  0  0  0  0
 19 20  1  0  0  0  0
 19 21  1  0  0  0  0
 17 18  1  0  0  0  0
 17 19  1  0  0  0  0
 15 16  1  0  0  0  0
 15 17  2  0  0  0  0
 14 15  1  0  0  0  0
 14 21  2  0  0  0  0
 11 12  1  0  0  0  0
 11 13  1  0  0  0  0
 11 14  1  0  0  0  0
  9 10  1  0  0  0  0
  9 11  1  0  0  0  0
  9 23  1  0  0  0  0
  7  8  1  0  0  0  0
  7  9  1  0  0  0  0
 27 28  1  0  0  0  0
 27 29  1  0  0  0  0
 27 30  1  0  0  0  0
 25 26  1  0  0  0  0
 25 27  1  0  0  0  0
M  CHG  1  15   1
M  END
$$$$
default_name
  -OEChem-02102213163D

 30 30  0     1  0  0  0  0  0999 V2000
   -3.5507   -3.2183    1.8116 H   0  0  0  0  0  0  0  0  0  0  0  0
   -3.4597   -2.3913    1.1076 C   0  0  0  0  0  0  0  0  0  0  0  0
   -4.1577   -1.6043    1.3866 H   0  0  0  0  0  0  0  0  0  0  0  0
   -3.6807   -2.7523    0.1036 H   0  0  0  0  0  0  0  0  0  0  0  0
   -2.0477   -1.8543    1.1546 C   0  0  0  0  0  0  0  0  0  0  0  0
   -1.2227   -2.3443    1.9146 O   0  0  0  0  0  0  0  0  0  0  0  0
   -1.7517   -0.8483    0.3266 N   0  0  0  0  0  0  0  0  0  0  0  0
   -2.4847   -0.5123   -0.2804 H   0  0  0  0  0  0  0  0  0  0  0  0
   -0.4117   -0.2463    0.2186 C   0  0  1  0  0  0  0  0  0  0  0  0
    0.2987   -1.0391   -0.0285 H   0  0  0  0  0  0  0  0  0  0  0  0
   -0.4131    0.7505   -0.9636 C   0  0  0  0  0  0  0  0  0  0  0  0
   -0.4286    0.1829   -1.8975 H   0  0  0  0  0  0  0  0  0  0  0  0
   -1.3325    1.3388   -0.9307 H   0  0  0  0  0  0  0  0  0  0  0  0
    0.7580    1.7095   -0.9982 C   0  0  0  0  0  0  0  0  0  0  0  0
    0.6638    3.0868   -0.9482 N   0  3  0  0  0  0  0  0  0  0  0  0
   -0.2193    3.5884   -0.8168 H   0  0  0  0  0  0  0  0  0  0  0  0
    1.9086    3.6009   -1.0027 C   0  0  0  0  0  0  0  0  0  0  0  0
    2.1539    4.6605   -0.9696 H   0  0  0  0  0  0  0  0  0  0  0  0
    2.7907    2.5795   -1.0873 N   0  0  0  0  0  0  0  0  0  0  0  0
    3.8021    2.6672   -1.1398 H   0  0  0  0  0  0  0  0  0  0  0  0
    2.0847    1.3845   -1.0859 C   0  0  0  0  0  0  0  0  0  0  0  0
    2.4959    0.3804   -1.1423 H   0  0  0  0  0  0  0  0  0  0  0  0
    0.0470    0.3465    1.5629 C   0  0  0  0  0  0  0  0  0  0  0  0
    1.1854    0.1365    1.9846 O   0  0  0  0  0  0  0  0  0  0  0  0
   -0.8551    1.0750    2.2320 N   0  0  0  0  0  0  0  0  0  0  0  0
   -1.7594    1.2031    1.8040 H   0  0  0  0  0  0  0  0  0  0  0  0
   -0.6356    1.6998    3.5400 C   0  0  0  0  0  0  0  0  0  0  0  0
   -0.4284    2.7647    3.4168 H   0  0  0  0  0  0  0  0  0  0  0  0
   -1.5268    1.5885    4.1601 H   0  0  0  0  0  0  0  0  0  0  0  0
    0.2072    1.2358    4.0566 H   0  0  0  0  0  0  0  0  0  0  0  0
  5  6  2  0  0  0  0
  5  7  1  0  0  0  0
  2  3  1  0  0  0  0
  2  4  1  0  0  0  0
  2  5  1  0  0  0  0
  1  2  1  0  0  0  0
 23 24  2  0  0  0  0
 23 25  1  0  0  0  0
 21 22  1  0  0  0  0
 19 20  1  0  0  0  0
 19 21  1  0  0  0  0
 17 18  1  0  0  0  0
 17 19  1  0  0  0  0
 15 16  1  0  0  0  0
 15 17  2  0  0  0  0
 14 15  1  0  0  0  0
 14 21  2  0  0  0  0
 11 12  1  0  0  0  0
 11 13  1  0  0  0  0
 11 14  1  0  0  0  0
  9 10  1  0  0  0  0
  9 11  1  0  0  0  0
  9 23  1  0  0  0  0
  7  8  1  0  0  0  0
  7  9  1  0  0  0  0
 27 28  1  0  0  0  0
 27 29  1  0  0  0  0
 27 30  1  0  0  0  0
 25 26  1  0  0  0  0
 25 27  1  0  0  0  0
M  CHG  1  15   1
M  END
$$$$
default_name
  -OEChem-02102213163D

 30 30  0     1  0  0  0  0  0999 V2000
   -3.5507   -3.2183    1.8116 H   0  0  0  0  0  0  0  0  0  0  0  0
   -3.4597   -2.3913    1.1076 C   0  0  0  0  0  0  0  0  0  0  0  0
   -4.1577   -1.6043    1.3866 H   0  0  0  0  0  0  0  0  0  0  0  0
   -3.6807   -2.7523    0.1036 H   0  0  0  0  0  0  0  0  0  0  0  0
   -2.0477   -1.8543    1.1546 C   0  0  0  0  0  0  0  0  0  0  0  0
   -1.2227   -2.3443    1.9146 O   0  0  0  0  0  0  0  0  0  0  0  0
   -1.7517   -0.8483    0.3266 N   0  0  0  0  0  0  0  0  0  0  0  0
   -2.4847   -0.5123   -0.2804 H   0  0  0  0  0  0  0  0  0  0  0  0
   -0.4117   -0.2463    0.2186 C   0  0  1  0  0  0  0  0  0  0  0  0
    0.2987   -1.0391   -0.0285 H   0  0  0  0  0  0  0  0  0  0  0  0
   -0.4131    0.7505   -0.9636 C   0  0  0  0  0  0  0  0  0  0  0  0
   -0.4286    0.1829   -1.8975 H   0  0  0  0  0  0  0  0  0  0  0  0
   -1.3325    1.3388   -0.9307 H   0  0  0  0  0  0  0  0  0  0  0  0
    0.7580    1.7095   -0.9982 C   0  0  0  0  0  0  0  0  0  0  0  0
    0.7044    3.0476   -0.6593 N   0  3  0  0  0  0  0  0  0  0  0  0
   -0.1338    3.5031   -0.2870 H   0  0  0  0  0  0  0  0  0  0  0  0
    1.9348    3.5756   -0.8141 C   0  0  0  0  0  0  0  0  0  0  0  0
    2.2062    4.6096   -0.6109 H   0  0  0  0  0  0  0  0  0  0  0  0
    2.7680    2.6016   -1.2450 N   0  0  0  0  0  0  0  0  0  0  0  0
    3.7590    2.7089   -1.4446 H   0  0  0  0  0  0  0  0  0  0  0  0
    2.0449    1.4230   -1.3661 C   0  0  0  0  0  0  0  0  0  0  0  0
    2.4185    0.4552   -1.6888 H   0  0  0  0  0  0  0  0  0  0  0  0
    0.0470    0.3465    1.5629 C   0  0  0  0  0  0  0  0  0  0  0  0
    1.1854    0.1365    1.9846 O   0  0  0  0  0  0  0  0  0  0  0  0
   -0.8551    1.0750    2.2320 N   0  0  0  0  0  0  0  0  0  0  0  0
   -1.7594    1.2031    1.8040 H   0  0  0  0  0  0  0  0  0  0  0  0
   -0.6356    1.6998    3.5400 C   0  0  0  0  0  0  0  0  0  0  0  0
   -0.4284    2.7647    3.4168 H   0  0  0  0  0  0  0  0  0  0  0  0
   -1.5268    1.5885    4.1601 H   0  0  0  0  0  0  0  0  0  0  0  0
    0.2072    1.2358    4.0566 H   0  0  0  0  0  0  0  0  0  0  0  0
  5  6  2  0  0  0  0
  5  7  1  0  0  0  0
  2  3  1  0  0  0  0
  2  4  1  0  0  0  0
  2  5  1  0  0  0  0
  1  2  1  0  0  0  0
 23 24  2  0  0  0  0
 23 25  1  0  0  0  0
 21 22  1  0  0  0  0
 19 20  1  0  0  0  0
 19 21  1  0  0  0  0
 17 18  1  0  0  0  0
 17 19  1  0  0  0  0
 15 16  1  0  0  0  0
 15 17  2  0  0  0  0
 14 15  1  0  0  0  0
 14 21  2  0  0  0  0
 11 12  1  0  0  0  0
 11 13  1  0  0  0  0
 11 14  1  0  0  0  0
  9 10  1  0  0  0  0
  9 11  1  0  0  0  0
  9 23  1  0  0  0  0
  7  8  1  0  0  0  0
  7  9  1  0  0  0  0
 27 28  1  0  0  0  0
 27 29  1  0  0  0  0
 27 30  1  0  0  0  0
 25 26  1  0  0  0  0
 25 27  1  0  0  0  0
M  CHG  1  15   1
M  END
$$$$
default_name
  -OEChem-02102213163D

 30 30  0     1  0  0  0  0  0999 V2000
   -3.5507   -3.2183    1.8116 H   0  0  0  0  0  0  0  0  0  0  0  0
   -3.4597   -2.3913    1.1076 C   0  0  0  0  0  0  0  0  0  0  0  0
   -4.1577   -1.6043    1.3866 H   0  0  0  0  0  0  0  0  0  0  0  0
   -3.6807   -2.7523    0.1036 H   0  0  0  0  0  0  0  0  0  0  0  0
   -2.0477   -1.8543    1.1546 C   0  0  0  0  0  0  0  0  0  0  0  0
   -1.2227   -2.3443    1.9146 O   0  0  0  0  0  0  0  0  0  0  0  0
   -1.7517   -0.8483    0.3266 N   0  0  0  0  0  0  0  0  0  0  0  0
   -2.4847   -0.5123   -0.2804 H   0  0  0  0  0  0  0  0  0  0  0  0
   -0.4117   -0.2463    0.2186 C   0  0  1  0  0  0  0  0  0  0  0  0
    0.2987   -1.0391   -0.0285 H   0  0  0  0  0  0  0  0  0  0  0  0
   -0.4131    0.7505   -0.9636 C   0  0  0  0  0  0  0  0  0  0  0  0
   -0.4286    0.1829   -1.8975 H   0  0  0  0  0  0  0  0  0  0  0  0
   -1.3325    1.3388   -0.9307 H   0  0  0  0  0  0  0  0  0  0  0  0
    0.7580    1.7095   -0.9982 C   0  0  0  0  0  0  0  0  0  0  0  0
    0.7907    2.9517   -0.3948 N   0  3  0  0  0  0  0  0  0  0  0  0
    0.0351    3.3141    0.1937 H   0  0  0  0  0  0  0  0  0  0  0  0
    1.9910    3.5132   -0.6414 C   0  0  0  0  0  0  0  0  0  0  0  0
    2.3152    4.4883   -0.2833 H   0  0  0  0  0  0  0  0  0  0  0  0
    2.7203    2.6546   -1.3892 N   0  0  0  0  0  0  0  0  0  0  0  0
    3.6676    2.8104   -1.7236 H   0  0  0  0  0  0  0  0  0  0  0  0
    1.9607    1.5166   -1.6226 C   0  0  0  0  0  0  0  0  0  0  0  0
    2.2547    0.6372   -2.1890 H   0  0  0  0  0  0  0  0  0  0  0  0
    0.0470    0.3465    1.5629 C   0  0  0  0  0  0  0  0  0  0  0  0
    1.1854    0.1365    1.9846 O   0  0  0  0  0  0  0  0  0  0  0  0
   -0.8551    1.0750    2.2320 N   0  0  0  0  0  0  0  0  0  0  0  0
   -1.7594    1.2031    1.8040 H   0  0  0  0  0  0  0  0  0  0  0  0
   -0.6356    1.6998    3.5400 C   0  0  0  0  0  0  0  0  0  0  0  0
   -0.4284    2.7647    3.4168 H   0  0  0  0  0  0  0  0  0  0  0  0
   -1.5268    1.5885    4.1601 H   0  0  0  0  0  0  0  0  0  0  0  0
    0.2072    1.2358    4.0566 H   0  0  0  0  0  0  0  0  0  0  0  0
  5  6  2  0  0  0  0
  5  7  1  0  0  0  0
  2  3  1  0  0  0  0
  2  4  1  0  0  0  0
  2  5  1  0  0  0  0
  1  2  1  0  0  0  0
 23 24  2  0  0  0  0
 23 25  1  0  0  0  0
 21 22  1  0  0  0  0
 19 20  1  0  0  0  0
 19 21  1  0  0  0  0
 17 18  1  0  0  0  0
 17 19  1  0  0  0  0
 15 16  1  0  0  0  0
 15 17  2  0  0  0  0
 14 15  1  0  0  0  0
 14 21  2  0  0  0  0
 11 12  1  0  0  0  0
 11 13  1  0  0  0  0
 11 14  1  0  0  0  0
  9 10  1  0  0  0  0
  9 11  1  0  0  0  0
  9 23  1  0  0  0  0
  7  8  1  0  0  0  0
  7  9  1  0  0  0  0
 27 28  1  0  0  0  0
 27 29  1  0  0  0  0
 27 30  1  0  0  0  0
 25 26  1  0  0  0  0
 25 27  1  0  0  0  0
M  CHG  1  15   1
M  END
$$$$
default_name
  -OEChem-02102213163D

 30 30  0     1  0  0  0  0  0999 V2000
   -3.5507   -3.2183    1.8116 H   0  0  0  0  0  0  0  0  0  0  0  0
   -3.4597   -2.3913    1.1076 C   0  0  0  0  0  0  0  0  0  0  0  0
   -4.1577   -1.6043    1.3866 H   0  0  0  0  0  0  0  0  0  0  0  0
   -3.6807   -2.7523    0.1036 H   0  0  0  0  0  0  0  0  0  0  0  0
   -2.0477   -1.8543    1.1546 C   0  0  0  0  0  0  0  0  0  0  0  0
   -1.2227   -2.3443    1.9146 O   0  0  0  0  0  0  0  0  0  0  0  0
   -1.7517   -0.8483    0.3266 N   0  0  0  0  0  0  0  0  0  0  0  0
   -2.4847   -0.5123   -0.2804 H   0  0  0  0  0  0  0  0  0  0  0  0
   -0.4117   -0.2463    0.2186 C   0  0  1  0  0  0  0  0  0  0  0  0
    0.2987   -1.0391   -0.0285 H   0  0  0  0  0  0  0  0  0  0  0  0
   -0.4131    0.7505   -0.9636 C   0  0  0  0  0  0  0  0  0  0  0  0
   -0.4286    0.1829   -1.8975 H   0  0  0  0  0  0  0  0  0  0  0  0
   -1.3325    1.3388   -0.9307 H   0  0  0  0  0  0  0  0  0  0  0  0
    0.7580    1.7095   -0.9982 C   0  0  0  0  0  0  0  0  0  0  0  0
    0.9169    2.8057   -0.1727 N   0  3  0  0  0  0  0  0  0  0  0  0
    0.2760    3.0344    0.5925 H   0  0  0  0  0  0  0  0  0  0  0  0
    2.0732    3.4181   -0.4962 C   0  0  0  0  0  0  0  0  0  0  0  0
    2.4735    4.3049   -0.0089 H   0  0  0  0  0  0  0  0  0  0  0  0
    2.6510    2.7349   -1.5100 N   0  0  0  0  0  0  0  0  0  0  0  0
    3.5342    2.9649   -1.9578 H   0  0  0  0  0  0  0  0  0  0  0  0
    1.8379    1.6588   -1.8377 C   0  0  0  0  0  0  0  0  0  0  0  0
    2.0154    0.9142   -2.6088 H   0  0  0  0  0  0  0  0  0  0  0  0
    0.0470    0.3465    1.5629 C   0  0  0  0  0  0  0  0  0  0  0  0
    1.1854    0.1365    1.9846 O   0  0  0  0  0  0  0  0  0  0  0  0
   -0.8551    1.0750    2.2320 N   0  0  0  0  0  0  0  0  0  0  0  0
   -1.7594    1.2031    1.8040 H   0  0  0  0  0  0  0  0  0  0  0  0
   -0.6356    1.6998    3.5400 C   0  0  0  0  0  0  0  0  0  0  0  0
   -0.4284    2.7647    3.4168 H   0  0  0  0  0  0  0  0  0  0  0  0
   -1.5268    1.5885    4.1601 H   0  0  0  0  0  0  0  0  0  0  0  0
    0.2072    1.2358    4.0566 H   0  0  0  0  0  0  0  0  0  0  0  0
  5  6  2  0  0  0  0
  5  7  1  0  0  0  0
  2  3  1  0  0  0  0
  2  4  1  0  0  0  0
  2  5  1  0  0  0  0
  1  2  1  0  0  0  0
 23 24  2  0  0  0  0
 23 25  1  0  0  0  0
 21 22  1  0  0  0  0
 19 20  1  0  0  0  0
 19 21  1  0  0  0  0
 17 18  1  0  0  0  0
 17 19  1  0  0  0  0
 15 16  1  0  0  0  0
 15 17  2  0  0  0  0
 14 15  1  0  0  0  0
 14 21  2  0  0  0  0
 11 12  1  0  0  0  0
 11 13  1  0  0  0  0
 11 14  1  0  0  0  0
  9 10  1  0  0  0  0
  9 11  1  0  0  0  0
  9 23  1  0  0  0  0
  7  8  1  0  0  0  0
  7  9  1  0  0  0  0
 27 28  1  0  0  0  0
 27 29  1  0  0  0  0
 27 30  1  0  0  0  0
 25 26  1  0  0  0  0
 25 27  1  0  0  0  0
M  CHG  1  15   1
M  END
$$$$
default_name
  -OEChem-02102213163D

 30 30  0     1  0  0  0  0  0999 V2000
   -3.5507   -3.2183    1.8116 H   0  0  0  0  0  0  0  0  0  0  0  0
   -3.4597   -2.3913    1.1076 C   0  0  0  0  0  0  0  0  0  0  0  0
   -4.1577   -1.6043    1.3866 H   0  0  0  0  0  0  0  0  0  0  0  0
   -3.6807   -2.7523    0.1036 H   0  0  0  0  0  0  0  0  0  0  0  0
   -2.0477   -1.8543    1.1546 C   0  0  0  0  0  0  0  0  0  0  0  0
   -1.2227   -2.3443    1.9146 O   0  0  0  0  0  0  0  0  0  0  0  0
   -1.7517   -0.8483    0.3266 N   0  0  0  0  0  0  0  0  0  0  0  0
   -2.4847   -0.5123   -0.2804 H   0  0  0  0  0  0  0  0  0  0  0  0
   -0.4117   -0.2463    0.2186 C   0  0  1  0  0  0  0  0  0  0  0  0
    0.2987   -1.0391   -0.0285 H   0  0  0  0  0  0  0  0  0  0  0  0
   -0.4131    0.7505   -0.9636 C   0  0  0  0  0  0  0  0  0  0  0  0
   -0.4286    0.1829   -1.8975 H   0  0  0  0  0  0  0  0  0  0  0  0
   -1.3325    1.3388   -0.9307 H   0  0  0  0  0  0  0  0  0  0  0  0
    0.7580    1.7095   -0.9982 C   0  0  0  0  0  0  0  0  0  0  0  0
    1.0744    2.6193   -0.0080 N   0  3  0  0  0  0  0  0  0  0  0  0
    0.5723    2.6829    0.8823 H   0  0  0  0  0  0  0  0  0  0  0  0
    2.1758    3.2967   -0.3885 C   0  0  0  0  0  0  0  0  0  0  0  0
    2.6703    4.0719    0.1934 H   0  0  0  0  0  0  0  0  0  0  0  0
    2.5646    2.8371   -1.5993 N   0  0  0  0  0  0  0  0  0  0  0  0
    3.3678    3.1618   -2.1312 H   0  0  0  0  0  0  0  0  0  0  0  0
    1.6848    1.8399   -1.9969 C   0  0  0  0  0  0  0  0  0  0  0  0
    1.7172    1.2672   -2.9197 H   0  0  0  0  0  0  0  0  0  0  0  0
    0.0470    0.3465    1.5629 C   0  0  0  0  0  0  0  0  0  0  0  0
    1.1854    0.1365    1.9846 O   0  0  0  0  0  0  0  0  0  0  0  0
   -0.8551    1.0750    2.2320 N   0  0  0  0  0  0  0  0  0  0  0  0
   -1.7594    1.2031    1.8040 H   0  0  0  0  0  0  0  0  0  0  0  0
   -0.6356    1.6998    3.5400 C   0  0  0  0  0  0  0  0  0  0  0  0
   -0.4284    2.7647    3.4168 H   0  0  0  0  0  0  0  0  0  0  0  0
   -1.5268    1.5885    4.1601 H   0  0  0  0  0  0  0  0  0  0  0  0
    0.2072    1.2358    4.0566 H   0  0  0  0  0  0  0  0  0  0  0  0
  5  6  2  0  0  0  0
  5  7  1  0  0  0  0
  2  3  1  0  0  0  0
  2  4  1  0  0  0  0
  2  5  1  0  0  0  0
  1  2  1  0  0  0  0
 23 24  2  0  0  0  0
 23 25  1  0  0  0  0
 21 22  1  0  0  0  0
 19 20  1  0  0  0  0
 19 21  1  0  0  0  0
 17 18  1  0  0  0  0
 17 19  1  0  0  0  0
 15 16  1  0  0  0  0
 15 17  2  0  0  0  0
 14 15  1  0  0  0  0
 14 21  2  0  0  0  0
 11 12  1  0  0  0  0
 11 13  1  0  0  0  0
 11 14  1  0  0  0  0
  9 10  1  0  0  0  0
  9 11  1  0  0  0  0
  9 23  1  0  0  0  0
  7  8  1  0  0  0  0
  7  9  1  0  0  0  0
 27 28  1  0  0  0  0
 27 29  1  0  0  0  0
 27 30  1  0  0  0  0
 25 26  1  0  0  0  0
 25 27  1  0  0  0  0
M  CHG  1  15   1
M  END
$$$$
default_name
  -OEChem-02102213163D

 30 30  0     1  0  0  0  0  0999 V2000
   -3.5507   -3.2183    1.8116 H   0  0  0  0  0  0  0  0  0  0  0  0
   -3.4597   -2.3913    1.1076 C   0  0  0  0  0  0  0  0  0  0  0  0
   -4.1577   -1.6043    1.3866 H   0  0  0  0  0  0  0  0  0  0  0  0
   -3.6807   -2.7523    0.1036 H   0  0  0  0  0  0  0  0  0  0  0  0
   -2.0477   -1.8543    1.1546 C   0  0  0  0  0  0  0  0  0  0  0  0
   -1.2227   -2.3443    1.9146 O   0  0  0  0  0  0  0  0  0  0  0  0
   -1.7517   -0.8483    0.3266 N   0  0  0  0  0  0  0  0  0  0  0  0
   -2.4847   -0.5123   -0.2804 H   0  0  0  0  0  0  0  0  0  0  0  0
   -0.4117   -0.2463    0.2186 C   0  0  1  0  0  0  0  0  0  0  0  0
    0.2987   -1.0391   -0.0285 H   0  0  0  0  0  0  0  0  0  0  0  0
   -0.4131    0.7505   -0.9636 C   0  0  0  0  0  0  0  0  0  0  0  0
   -0.4286    0.1829   -1.8975 H   0  0  0  0  0  0  0  0  0  0  0  0
   -1.3325    1.3388   -0.9307 H   0  0  0  0  0  0  0  0  0  0  0  0
    0.7580    1.7095   -0.9982 C   0  0  0  0  0  0  0  0  0  0  0  0
    1.2524    2.4055    0.0879 N   0  3  0  0  0  0  0  0  0  0  0  0
    0.9040    2.2837    1.0432 H   0  0  0  0  0  0  0  0  0  0  0  0
    2.2919    3.1572   -0.3256 C   0  0  0  0  0  0  0  0  0  0  0  0
    2.8921    3.8052    0.3100 H   0  0  0  0  0  0  0  0  0  0  0  0
    2.4672    2.9542   -1.6509 N   0  0  0  0  0  0  0  0  0  0  0  0
    3.1799    3.3877   -2.2320 H   0  0  0  0  0  0  0  0  0  0  0  0
    1.5120    2.0477   -2.0894 C   0  0  0  0  0  0  0  0  0  0  0  0
    1.3802    1.6722   -3.1004 H   0  0  0  0  0  0  0  0  0  0  0  0
    0.0470    0.3465    1.5629 C   0  0  0  0  0  0  0  0  0  0  0  0
    1.1854    0.1365    1.9846 O   0  0  0  0  0  0  0  0  0  0  0  0
   -0.8551    1.0750    2.2320 N   0  0  0  0  0  0  0  0  0  0  0  0
   -1.7594    1.2031    1.8040 H   0  0  0  0  0  0  0  0  0  0  0  0
   -0.6356    1.6998    3.5400 C   0  0  0  0  0  0  0  0  0  0  0  0
   -0.4284    2.7647    3.4168 H   0  0  0  0  0  0  0  0  0  0  0  0
   -1.5268    1.5885    4.1601 H   0  0  0  0  0  0  0  0  0  0  0  0
    0.2072    1.2358    4.0566 H   0  0  0  0  0  0  0  0  0  0  0  0
  5  6  2  0  0  0  0
  5  7  1  0  0  0  0
  2  3  1  0  0  0  0
  2  4  1  0  0  0  0
  2  5  1  0  0  0  0
  1  2  1  0  0  0  0
 23 24  2  0  0  0  0
 23 25  1  0  0  0  0
 21 22  1  0  0  0  0
 19 20  1  0  0  0  0
 19 21  1  0  0  0  0
 17 18  1  0  0  0  0
 17 19  1  0  0  0  0
 15 16  1  0  0  0  0
 15 17  2  0  0  0  0
 14 15  1  0  0  0  0
 14 21  2  0  0  0  0
 11 12  1  0  0  0  0
 11 13  1  0  0  0  0
 11 14  1  0  0  0  0
  9 10  1  0  0  0  0
  9 11  1  0  0  0  0
  9 23  1  0  0  0  0
  7  8  1  0  0  0  0
  7  9  1  0  0  0  0
 27 28  1  0  0  0  0
 27 29  1  0  0  0  0
 27 30  1  0  0  0  0
 25 26  1  0  0  0  0
 25 27  1  0  0  0  0
M  CHG  1  15   1
M  END
$$$$
default_name
  -OEChem-02102213163D

 30 30  0     1  0  0  0  0  0999 V2000
   -3.5507   -3.2183    1.8116 H   0  0  0  0  0  0  0  0  0  0  0  0
   -3.4597   -2.3913    1.1076 C   0  0  0  0  0  0  0  0  0  0  0  0
   -4.1577   -1.6043    1.3866 H   0  0  0  0  0  0  0  0  0  0  0  0
   -3.6807   -2.7523    0.1036 H   0  0  0  0  0  0  0  0  0  0  0  0
   -2.0477   -1.8543    1.1546 C   0  0  0  0  0  0  0  0  0  0  0  0
   -1.2227   -2.3443    1.9146 O   0  0  0  0  0  0  0  0  0  0  0  0
   -1.7517   -0.8483    0.3266 N   0  0  0  0  0  0  0  0  0  0  0  0
   -2.4847   -0.5123   -0.2804 H   0  0  0  0  0  0  0  0  0  0  0  0
   -0.4117   -0.2463    0.2186 C   0  0  1  0  0  0  0  0  0  0  0  0
    0.2987   -1.0391   -0.0285 H   0  0  0  0  0  0  0  0  0  0  0  0
   -0.4131    0.7505   -0.9636 C   0  0  0  0  0  0  0  0  0  0  0  0
   -0.4286    0.1829   -1.8975 H   0  0  0  0  0  0  0  0  0  0  0  0
   -1.3325    1.3388   -0.9307 H   0  0  0  0  0  0  0  0  0  0  0  0
    0.7580    1.7095   -0.9982 C   0  0  0  0  0  0  0  0  0  0  0  0
    1.4387    2.1786    0.1086 N   0  3  0  0  0  0  0  0  0  0  0  0
    1.2485    1.8639    1.0643 H   0  0  0  0  0  0  0  0  0  0  0  0
    2.4135    3.0092   -0.3117 C   0  0  0  0  0  0  0  0  0  0  0  0
    3.1240    3.5229    0.3328 H   0  0  0  0  0  0  0  0  0  0  0  0
    2.3654    3.0782   -1.6613 N   0  0  0  0  0  0  0  0  0  0  0  0
    2.9832    3.6271   -2.2533 H   0  0  0  0  0  0  0  0  0  0  0  0
    1.3311    2.2679   -2.1087 C   0  0  0  0  0  0  0  0  0  0  0  0
    1.0275    2.1015   -3.1386 H   0  0  0  0  0  0  0  0  0  0  0  0
    0.0470    0.3465    1.5629 C   0  0  0  0  0  0  0  0  0  0  0  0
    1.1854    0.1365    1.9846 O   0  0  0  0  0  0  0  0  0  0  0  0
   -0.8551    1.0750    2.2320 N   0  0  0  0  0  0  0  0  0  0  0  0
   -1.7594    1.2031    1.8040 H   0  0  0  0  0  0  0  0  0  0  0  0
   -0.6356    1.6998    3.5400 C   0  0  0  0  0  0  0  0  0  0  0  0
   -0.4284    2.7647    3.4168 H   0  0  0  0  0  0  0  0  0  0  0  0
   -1.5268    1.5885    4.1601 H   0  0  0  0  0  0  0  0  0  0  0  0
    0.2072    1.2358    4.0566 H   0  0  0  0  0  0  0  0  0  0  0  0
  5  6  2  0  0  0  0
  5  7  1  0  0  0  0
  2  3  1  0  0  0  0
  2  4  1  0  0  0  0
  2  5  1  0  0  0  0
  1  2  1  0  0  0  0
 23 24  2  0  0  0  0
 23 25  1  0  0  0  0
 21 22  1  0  0  0  0
 19 20  1  0  0  0  0
 19 21  1  0  0  0  0
 17 18  1  0  0  0  0
 17 19  1  0  0  0  0
 15 16  1  0  0  0  0
 15 17  2  0  0  0  0
 14 15  1  0  0  0  0
 14 21  2  0  0  0  0
 11 12  1  0  0  0  0
 11 13  1  0  0  0  0
 11 14  1  0  0  0  0
  9 10  1  0  0  0  0
  9 11  1  0  0  0  0
  9 23  1  0  0  0  0
  7  8  1  0  0  0  0
  7  9  1  0  0  0  0
 27 28  1  0  0  0  0
 27 29  1  0  0  0  0
 27 30  1  0  0  0  0
 25 26  1  0  0  0  0
 25 27  1  0  0  0  0
M  CHG  1  15   1
M  END
$$$$
default_name
  -OEChem-02102213163D

 30 30  0     1  0  0  0  0  0999 V2000
   -3.5507   -3.2183    1.8116 H   0  0  0  0  0  0  0  0  0  0  0  0
   -3.4597   -2.3913    1.1076 C   0  0  0  0  0  0  0  0  0  0  0  0
   -4.1577   -1.6043    1.3866 H   0  0  0  0  0  0  0  0  0  0  0  0
   -3.6807   -2.7523    0.1036 H   0  0  0  0  0  0  0  0  0  0  0  0
   -2.0477   -1.8543    1.1546 C   0  0  0  0  0  0  0  0  0  0  0  0
   -1.2227   -2.3443    1.9146 O   0  0  0  0  0  0  0  0  0  0  0  0
   -1.7517   -0.8483    0.3266 N   0  0  0  0  0  0  0  0  0  0  0  0
   -2.4847   -0.5123   -0.2804 H   0  0  0  0  0  0  0  0  0  0  0  0
   -0.4117   -0.2463    0.2186 C   0  0  1  0  0  0  0  0  0  0  0  0
    0.2987   -1.0391   -0.0285 H   0  0  0  0  0  0  0  0  0  0  0  0
   -0.4131    0.7505   -0.9636 C   0  0  0  0  0  0  0  0  0  0  0  0
   -0.4286    0.1829   -1.8975 H   0  0  0  0  0  0  0  0  0  0  0  0
   -1.3325    1.3388   -0.9307 H   0  0  0  0  0  0  0  0  0  0  0  0
    0.7580    1.7095   -0.9982 C   0  0  0  0  0  0  0  0  0  0  0  0
    1.6208    1.9543    0.0525 N   0  3  0  0  0  0  0  0  0  0  0  0
    1.5821    1.4521    0.9442 H   0  0  0  0  0  0  0  0  0  0  0  0
    2.5323    2.8628   -0.3479 C   0  0  0  0  0  0  0  0  0  0  0  0
    3.3500    3.2443    0.2603 H   0  0  0  0  0  0  0  0  0  0  0  0
    2.2660    3.2007   -1.6299 N   0  0  0  0  0  0  0  0  0  0  0  0
    2.7910    3.8639   -2.1938 H   0  0  0  0  0  0  0  0  0  0  0  0
    1.1545    2.4855   -2.0537 C   0  0  0  0  0  0  0  0  0  0  0  0
    0.6831    2.5260   -3.0318 H   0  0  0  0  0  0  0  0  0  0  0  0
    0.0470    0.3465    1.5629 C   0  0  0  0  0  0  0  0  0  0  0  0
    1.1854    0.1365    1.9846 O   0  0  0  0  0  0  0  0  0  0  0  0
   -0.8551    1.0750    2.2320 N   0  0  0  0  0  0  0  0  0  0  0  0
   -1.7594    1.2031    1.8040 H   0  0  0  0  0  0  0  0  0  0  0  0
   -0.6356    1.6998    3.5400 C   0  0  0  0  0  0  0  0  0  0  0  0
   -0.4284    2.7647    3.4168 H   0  0  0  0  0  0  0  0  0  0  0  0
   -1.5268    1.5885    4.1601 H   0  0  0  0  0  0  0  0  0  0  0  0
    0.2072    1.2358    4.0566 H   0  0  0  0  0  0  0  0  0  0  0  0
  5  6  2  0  0  0  0
  5  7  1  0  0  0  0
  2  3  1  0  0  0  0
  2  4  1  0  0  0  0
  2  5  1  0  0  0  0
  1  2  1  0  0  0  0
 23 24  2  0  0  0  0
 23 25  1  0  0  0  0
 21 22  1  0  0  0  0
 19 20  1  0  0  0  0
 19 21  1  0  0  0  0
 17 18  1  0  0  0  0
 17 19  1  0  0  0  0
 15 16  1  0  0  0  0
 15 17  2  0  0  0  0
 14 15  1  0  0  0  0
 14 21  2  0  0  0  0
 11 12  1  0  0  0  0
 11 13  1  0  0  0  0
 11 14  1  0  0  0  0
  9 10  1  0  0  0  0
  9 11  1  0  0  0  0
  9 23  1  0  0  0  0
  7  8  1  0  0  0  0
  7  9  1  0  0  0  0
 27 28  1  0  0  0  0
 27 29  1  0  0  0  0
 27 30  1  0  0  0  0
 25 26  1  0  0  0  0
 25 27  1  0  0  0  0
M  CHG  1  15   1
M  END
$$$$
default_name
  -OEChem-02102213163D

 30 30  0     1  0  0  0  0  0999 V2000
   -3.5507   -3.2183    1.8116 H   0  0  0  0  0  0  0  0  0  0  0  0
   -3.4597   -2.3913    1.1076 C   0  0  0  0  0  0  0  0  0  0  0  0
   -4.1577   -1.6043    1.3866 H   0  0  0  0  0  0  0  0  0  0  0  0
   -3.6807   -2.7523    0.1036 H   0  0  0  0  0  0  0  0  0  0  0  0
   -2.0477   -1.8543    1.1546 C   0  0  0  0  0  0  0  0  0  0  0  0
   -1.2227   -2.3443    1.9146 O   0  0  0  0  0  0  0  0  0  0  0  0
   -1.7517   -0.8483    0.3266 N   0  0  0  0  0  0  0  0  0  0  0  0
   -2.4847   -0.5123   -0.2804 H   0  0  0  0  0  0  0  0  0  0  0  0
   -0.4117   -0.2463    0.2186 C   0  0  1  0  0  0  0  0  0  0  0  0
    0.2987   -1.0391   -0.0285 H   0  0  0  0  0  0  0  0  0  0  0  0
   -0.4131    0.7505   -0.9636 C   0  0  0  0  0  0  0  0  0  0  0  0
   -0.4286    0.1829   -1.8975 H   0  0  0  0  0  0  0  0  0  0  0  0
   -1.3325    1.3388   -0.9307 H   0  0  0  0  0  0  0  0  0  0  0  0
    0.7580    1.7095   -0.9982 C   0  0  0  0  0  0  0  0  0  0  0  0
    1.7862    1.7477   -0.0763 N   0  3  0  0  0  0  0  0  0  0  0  0
    1.8823    1.0764    0.6910 H   0  0  0  0  0  0  0  0  0  0  0  0
    2.6403    2.7279   -0.4317 C   0  0  0  0  0  0  0  0  0  0  0  0
    3.5548    2.9884    0.0974 H   0  0  0  0  0  0  0  0  0  0  0  0
    2.1759    3.3133   -1.5587 N   0  0  0  0  0  0  0  0  0  0  0  0
    2.6166    4.0818   -2.0573 H   0  0  0  0  0  0  0  0  0  0  0  0
    0.9942    2.6858   -1.9280 C   0  0  0  0  0  0  0  0  0  0  0  0
    0.3704    2.9166   -2.7871 H   0  0  0  0  0  0  0  0  0  0  0  0
    0.0470    0.3465    1.5629 C   0  0  0  0  0  0  0  0  0  0  0  0
    1.1854    0.1365    1.9846 O   0  0  0  0  0  0  0  0  0  0  0  0
   -0.8551    1.0750    2.2320 N   0  0  0  0  0  0  0  0  0  0  0  0
   -1.7594    1.2031    1.8040 H   0  0  0  0  0  0  0  0  0  0  0  0
   -0.6356    1.6998    3.5400 C   0  0  0  0  0  0  0  0  0  0  0  0
   -0.4284    2.7647    3.4168 H   0  0  0  0  0  0  0  0  0  0  0  0
   -1.5268    1.5885    4.1601 H   0  0  0  0  0  0  0  0  0  0  0  0
    0.2072    1.2358    4.0566 H   0  0  0  0  0  0  0  0  0  0  0  0
  5  6  2  0  0  0  0
  5  7  1  0  0  0  0
  2  3  1  0  0  0  0
  2  4  1  0  0  0  0
  2  5  1  0  0  0  0
  1  2  1  0  0  0  0
 23 24  2  0  0  0  0
 23 25  1  0  0  0  0
 21 22  1  0  0  0  0
 19 20  1  0  0  0  0
 19 21  1  0  0  0  0
 17 18  1  0  0  0  0
 17 19  1  0  0  0  0
 15 16  1  0  0  0  0
 15 17  2  0  0  0  0
 14 15  1  0  0  0  0
 14 21  2  0  0  0  0
 11 12  1  0  0  0  0
 11 13  1  0  0  0  0
 11 14  1  0  0  0  0
  9 10  1  0  0  0  0
  9 11  1  0  0  0  0
  9 23  1  0  0  0  0
  7  8  1  0  0  0  0
  7  9  1  0  0  0  0
 27 28  1  0  0  0  0
 27 29  1  0  0  0  0
 27 30  1  0  0  0  0
 25 26  1  0  0  0  0
 25 27  1  0  0  0  0
M  CHG  1  15   1
M  END
$$$$
default_name
  -OEChem-02102213163D

 30 30  0     1  0  0  0  0  0999 V2000
   -3.5507   -3.2183    1.8116 H   0  0  0  0  0  0  0  0  0  0  0  0
   -3.4597   -2.3913    1.1076 C   0  0  0  0  0  0  0  0  0  0  0  0
   -4.1577   -1.6043    1.3866 H   0  0  0  0  0  0  0  0  0  0  0  0
   -3.6807   -2.7523    0.1036 H   0  0  0  0  0  0  0  0  0  0  0  0
   -2.0477   -1.8543    1.1546 C   0  0  0  0  0  0  0  0  0  0  0  0
   -1.2227   -2.3443    1.9146 O   0  0  0  0  0  0  0  0  0  0  0  0
   -1.7517   -0.8483    0.3266 N   0  0  0  0  0  0  0  0  0  0  0  0
   -2.4847   -0.5123   -0.2804 H   0  0  0  0  0  0  0  0  0  0  0  0
   -0.4117   -0.2463    0.2186 C   0  0  1  0  0  0  0  0  0  0  0  0
    0.2987   -1.0391   -0.0285 H   0  0  0  0  0  0  0  0  0  0  0  0
   -0.4131    0.7505   -0.9636 C   0  0  0  0  0  0  0  0  0  0  0  0
   -0.4286    0.1829   -1.8975 H   0  0  0  0  0  0  0  0  0  0  0  0
   -1.3325    1.3388   -0.9307 H   0  0  0  0  0  0  0  0  0  0  0  0
    0.7580    1.7095   -0.9982 C   0  0  0  0  0  0  0  0  0  0  0  0
    1.9235    1.5730   -0.2693 N   0  3  0  0  0  0  0  0  0  0  0  0
    2.1285    0.7624    0.3221 H   0  0  0  0  0  0  0  0  0  0  0  0
    2.7301    2.6137   -0.5574 C   0  0  0  0  0  0  0  0  0  0  0  0
    3.7243    2.7726   -0.1447 H   0  0  0  0  0  0  0  0  0  0  0  0
    2.1012    3.4083   -1.4526 N   0  0  0  0  0  0  0  0  0  0  0  0
    2.4718    4.2659   -1.8534 H   0  0  0  0  0  0  0  0  0  0  0  0
    0.8612    2.8550   -1.7402 C   0  0  0  0  0  0  0  0  0  0  0  0
    0.1108    3.2468   -2.4214 H   0  0  0  0  0  0  0  0  0  0  0  0
    0.0470    0.3465    1.5629 C   0  0  0  0  0  0  0  0  0  0  0  0
    1.1854    0.1365    1.9846 O   0  0  0  0  0  0  0  0  0  0  0  0
   -0.8551    1.0750    2.2320 N   0  0  0  0  0  0  0  0  0  0  0  0
   -1.7594    1.2031    1.8040 H   0  0  0  0  0  0  0  0  0  0  0  0
   -0.6356    1.6998    3.5400 C   0  0  0  0  0  0  0  0  0  0  0  0
   -0.4284    2.7647    3.4168 H   0  0  0  0  0  0  0  0  0  0  0  0
   -1.5268    1.5885    4.1601 H   0  0  0  0  0  0  0  0  0  0  0  0
    0.2072    1.2358    4.0566 H   0  0  0  0  0  0  0  0  0  0  0  0
  5  6  2  0  0  0  0
  5  7  1  0  0  0  0
  2  3  1  0  0  0  0
  2  4  1  0  0  0  0
  2  5  1  0  0  0  0
  1  2  1  0  0  0  0
 23 24  2  0  0  0  0
 23 25  1  0  0  0  0
 21 22  1  0  0  0  0
 19 20  1  0  0  0  0
 19 21  1  0  0  0  0
 17 18  1  0  0  0  0
 17 19  1  0  0  0  0
 15 16  1  0  0  0  0
 15 17  2  0  0  0  0
 14 15  1  0  0  0  0
 14 21  2  0  0  0  0
 11 12  1  0  0  0  0
 11 13  1  0  0  0  0
 11 14  1  0  0  0  0
  9 10  1  0  0  0  0
  9 11  1  0  0  0  0
  9 23  1  0  0  0  0
  7  8  1  0  0  0  0
  7  9  1  0  0  0  0
 27 28  1  0  0  0  0
 27 29  1  0  0  0  0
 27 30  1  0  0  0  0
 25 26  1  0  0  0  0
 25 27  1  0  0  0  0
M  CHG  1  15   1
M  END
$$$$
default_name
  -OEChem-02102213163D

 30 30  0     1  0  0  0  0  0999 V2000
   -3.5507   -3.2183    1.8116 H   0  0  0  0  0  0  0  0  0  0  0  0
   -3.4597   -2.3913    1.1076 C   0  0  0  0  0  0  0  0  0  0  0  0
   -4.1577   -1.6043    1.3866 H   0  0  0  0  0  0  0  0  0  0  0  0
   -3.6807   -2.7523    0.1036 H   0  0  0  0  0  0  0  0  0  0  0  0
   -2.0477   -1.8543    1.1546 C   0  0  0  0  0  0  0  0  0  0  0  0
   -1.2227   -2.3443    1.9146 O   0  0  0  0  0  0  0  0  0  0  0  0
   -1.7517   -0.8483    0.3266 N   0  0  0  0  0  0  0  0  0  0  0  0
   -2.4847   -0.5123   -0.2804 H   0  0  0  0  0  0  0  0  0  0  0  0
   -0.4117   -0.2463    0.2186 C   0  0  1  0  0  0  0  0  0  0  0  0
    0.2987   -1.0391   -0.0285 H   0  0  0  0  0  0  0  0  0  0  0  0
   -0.4131    0.7505   -0.9636 C   0  0  0  0  0  0  0  0  0  0  0  0
   -0.4286    0.1829   -1.8975 H   0  0  0  0  0  0  0  0  0  0  0  0
   -1.3325    1.3388   -0.9307 H   0  0  0  0  0  0  0  0  0  0  0  0
    0.7580    1.7095   -0.9982 C   0  0  0  0  0  0  0  0  0  0  0  0
    2.0236    1.4421   -0.5131 N   0  3  0  0  0  0  0  0  0  0  0  0
    2.3040    0.5316   -0.1375 H   0  0  0  0  0  0  0  0  0  0  0  0
    2.7956    2.5281   -0.7163 C   0  0  0  0  0  0  0  0  0  0  0  0
    3.8472    2.6116   -0.4495 H   0  0  0  0  0  0  0  0  0  0  0  0
    2.0470    3.4793   -1.3189 N   0  0  0  0  0  0  0  0  0  0  0  0
    2.3665    4.4039   -1.5957 H   0  0  0  0  0  0  0  0  0  0  0  0
    0.7644    2.9816   -1.5032 C   0  0  0  0  0  0  0  0  0  0  0  0
   -0.0780    3.4940   -1.9594 H   0  0  0  0  0  0  0  0  0  0  0  0
    0.0470    0.3465    1.5629 C   0  0  0  0  0  0  0  0  0  0  0  0
    1.1854    0.1365    1.9846 O   0  0  0  0  0  0  0  0  0  0  0  0
   -0.8551    1.0750    2.2320 N   0  0  0  0  0  0  0  0  0  0  0  0
   -1.7594    1.2031    1.8040 H   0  0  0  0  0  0  0  0  0  0  0  0
   -0.6356    1.6998    3.5400 C   0  0  0  0  0  0  0  0  0  0  0  0
   -0.4284    2.7647    3.4168 H   0  0  0  0  0  0  0  0  0  0  0  0
   -1.5268    1.5885    4.1601 H   0  0  0  0  0  0  0  0  0  0  0  0
    0.2072    1.2358    4.0566 H   0  0  0  0  0  0  0  0  0  0  0  0
  5  6  2  0  0  0  0
  5  7  1  0  0  0  0
  2  3  1  0  0  0  0
  2  4  1  0  0  0  0
  2  5  1  0  0  0  0
  1  2  1  0  0  0  0
 23 24  2  0  0  0  0
 23 25  1  0  0  0  0
 21 22  1  0  0  0  0
 19 20  1  0  0  0  0
 19 21  1  0  0  0  0
 17 18  1  0  0  0  0
 17 19  1  0  0  0  0
 15 16  1  0  0  0  0
 15 17  2  0  0  0  0
 14 15  1  0  0  0  0
 14 21  2  0  0  0  0
 11 12  1  0  0  0  0
 11 13  1  0  0  0  0
 11 14  1  0  0  0  0
  9 10  1  0  0  0  0
  9 11  1  0  0  0  0
  9 23  1  0  0  0  0
  7  8  1  0  0  0  0
  7  9  1  0  0  0  0
 27 28  1  0  0  0  0
 27 29  1  0  0  0  0
 27 30  1  0  0  0  0
 25 26  1  0  0  0  0
 25 27  1  0  0  0  0
M  CHG  1  15   1
M  END
$$$$
default_name
  -OEChem-02102213163D

 30 30  0     1  0  0  0  0  0999 V2000
   -3.5507   -3.2183    1.8116 H   0  0  0  0  0  0  0  0  0  0  0  0
   -3.4597   -2.3913    1.1076 C   0  0  0  0  0  0  0  0  0  0  0  0
   -4.1577   -1.6043    1.3866 H   0  0  0  0  0  0  0  0  0  0  0  0
   -3.6807   -2.7523    0.1036 H   0  0  0  0  0  0  0  0  0  0  0  0
   -2.0477   -1.8543    1.1546 C   0  0  0  0  0  0  0  0  0  0  0  0
   -1.2227   -2.3443    1.9146 O   0  0  0  0  0  0  0  0  0  0  0  0
   -1.7517   -0.8483    0.3266 N   0  0  0  0  0  0  0  0  0  0  0  0
   -2.4847   -0.5123   -0.2804 H   0  0  0  0  0  0  0  0  0  0  0  0
   -0.4117   -0.2463    0.2186 C   0  0  1  0  0  0  0  0  0  0  0  0
    0.2987   -1.0391   -0.0285 H   0  0  0  0  0  0  0  0  0  0  0  0
   -0.4131    0.7505   -0.9636 C   0  0  0  0  0  0  0  0  0  0  0  0
   -0.4286    0.1829   -1.8975 H   0  0  0  0  0  0  0  0  0  0  0  0
   -1.3325    1.3388   -0.9307 H   0  0  0  0  0  0  0  0  0  0  0  0
    0.7580    1.7095   -0.9982 C   0  0  0  0  0  0  0  0  0  0  0  0
    2.0794    1.3638   -0.7913 N   0  3  0  0  0  0  0  0  0  0  0  0
    2.3968    0.3995   -0.6564 H   0  0  0  0  0  0  0  0  0  0  0  0
    2.8322    2.4767   -0.8977 C   0  0  0  0  0  0  0  0  0  0  0  0
    3.9149    2.5163   -0.7964 H   0  0  0  0  0  0  0  0  0  0  0  0
    2.0170    3.5215   -1.1666 N   0  0  0  0  0  0  0  0  0  0  0  0
    2.3078    4.4862   -1.3020 H   0  0  0  0  0  0  0  0  0  0  0  0
    0.7106    3.0571   -1.2330 C   0  0  0  0  0  0  0  0  0  0  0  0
   -0.1833    3.6415   -1.4327 H   0  0  0  0  0  0  0  0  0  0  0  0
    0.0470    0.3465    1.5629 C   0  0  0  0  0  0  0  0  0  0  0  0
    1.1854    0.1365    1.9846 O   0  0  0  0  0  0  0  0  0  0  0  0
   -0.8551    1.0750    2.2320 N   0  0  0  0  0  0  0  0  0  0  0  0
   -1.7594    1.2031    1.8040 H   0  0  0  0  0  0  0  0  0  0  0  0
   -0.6356    1.6998    3.5400 C   0  0  0  0  0  0  0  0  0  0  0  0
   -0.4284    2.7647    3.4168 H   0  0  0  0  0  0  0  0  0  0  0  0
   -1.5268    1.5885    4.1601 H   0  0  0  0  0  0  0  0  0  0  0  0
    0.2072    1.2358    4.0566 H   0  0  0  0  0  0  0  0  0  0  0  0
  5  6  2  0  0  0  0
  5  7  1  0  0  0  0
  2  3  1  0  0  0  0
  2  4  1  0  0  0  0
  2  5  1  0  0  0  0
  1  2  1  0  0  0  0
 23 24  2  0  0  0  0
 23 25  1  0  0  0  0
 21 22  1  0  0  0  0
 19 20  1  0  0  0  0
 19 21  1  0  0  0  0
 17 18  1  0  0  0  0
 17 19  1  0  0  0  0
 15 16  1  0  0  0  0
 15 17  2  0  0  0  0
 14 15  1  0  0  0  0
 14 21  2  0  0  0  0
 11 12  1  0  0  0  0
 11 13  1  0  0  0  0
 11 14  1  0  0  0  0
  9 10  1  0  0  0  0
  9 11  1  0  0  0  0
  9 23  1  0  0  0  0
  7  8  1  0  0  0  0
  7  9  1  0  0  0  0
 27 28  1  0  0  0  0
 27 29  1  0  0  0  0
 27 30  1  0  0  0  0
 25 26  1  0  0  0  0
 25 27  1  0  0  0  0
M  CHG  1  15   1
M  END
$$$$
default_name
  -OEChem-02102213163D

 30 30  0     1  0  0  0  0  0999 V2000
   -3.5507   -3.2183    1.8116 H   0  0  0  0  0  0  0  0  0  0  0  0
   -3.4597   -2.3913    1.1076 C   0  0  0  0  0  0  0  0  0  0  0  0
   -4.1577   -1.6043    1.3866 H   0  0  0  0  0  0  0  0  0  0  0  0
   -3.6807   -2.7523    0.1036 H   0  0  0  0  0  0  0  0  0  0  0  0
   -2.0477   -1.8543    1.1546 C   0  0  0  0  0  0  0  0  0  0  0  0
   -1.2227   -2.3443    1.9146 O   0  0  0  0  0  0  0  0  0  0  0  0
   -1.7517   -0.8483    0.3266 N   0  0  0  0  0  0  0  0  0  0  0  0
   -2.4847   -0.5123   -0.2804 H   0  0  0  0  0  0  0  0  0  0  0  0
   -0.4117   -0.2463    0.2186 C   0  0  1  0  0  0  0  0  0  0  0  0
    0.2987   -1.0391   -0.0285 H   0  0  0  0  0  0  0  0  0  0  0  0
   -0.4131    0.7505   -0.9636 C   0  0  0  0  0  0  0  0  0  0  0  0
   -0.4286    0.1829   -1.8975 H   0  0  0  0  0  0  0  0  0  0  0  0
   -1.3325    1.3388   -0.9307 H   0  0  0  0  0  0  0  0  0  0  0  0
    0.7580    1.7095   -0.9982 C   0  0  0  0  0  0  0  0  0  0  0  0
    2.0873    1.3436   -1.0848 N   0  3  0  0  0  0  0  0  0  0  0  0
    2.4006    0.3753   -1.1993 H   0  0  0  0  0  0  0  0  0  0  0  0
    2.8376    2.4633   -1.0892 C   0  0  0  0  0  0  0  0  0  0  0  0
    3.9229    2.4934   -1.1615 H   0  0  0  0  0  0  0  0  0  0  0  0
    2.0132    3.5319   -1.0062 N   0  0  0  0  0  0  0  0  0  0  0  0
    2.2997    4.5072   -0.9921 H   0  0  0  0  0  0  0  0  0  0  0  0
    0.7034    3.0762   -0.9481 C   0  0  0  0  0  0  0  0  0  0  0  0
   -0.1977    3.6791   -0.8772 H   0  0  0  0  0  0  0  0  0  0  0  0
    0.0470    0.3465    1.5629 C   0  0  0  0  0  0  0  0  0  0  0  0
    1.1854    0.1365    1.9846 O   0  0  0  0  0  0  0  0  0  0  0  0
   -0.8551    1.0750    2.2320 N   0  0  0  0  0  0  0  0  0  0  0  0
   -1.7594    1.2031    1.8040 H   0  0  0  0  0  0  0  0  0  0  0  0
   -0.6356    1.6998    3.5400 C   0  0  0  0  0  0  0  0  0  0  0  0
   -0.4284    2.7647    3.4168 H   0  0  0  0  0  0  0  0  0  0  0  0
   -1.5268    1.5885    4.1601 H   0  0  0  0  0  0  0  0  0  0  0  0
    0.2072    1.2358    4.0566 H   0  0  0  0  0  0  0  0  0  0  0  0
  5  6  2  0  0  0  0
  5  7  1  0  0  0  0
  2  3  1  0  0  0  0
  2  4  1  0  0  0  0
  2  5  1  0  0  0  0
  1  2  1  0  0  0  0
 23 24  2  0  0  0  0
 23 25  1  0  0  0  0
 21 22  1  0  0  0  0
 19 20  1  0  0  0  0
 19 21  1  0  0  0  0
 17 18  1  0  0  0  0
 17 19  1  0  0  0  0
 15 16  1  0  0  0  0
 15 17  2  0  0  0  0
 14 15  1  0  0  0  0
 14 21  2  0  0  0  0
 11 12  1  0  0  0  0
 11 13  1  0  0  0  0
 11 14  1  0  0  0  0
  9 10  1  0  0  0  0
  9 11  1  0  0  0  0
  9 23  1  0  0  0  0
  7  8  1  0  0  0  0
  7  9  1  0  0  0  0
 27 28  1  0  0  0  0
 27 29  1  0  0  0  0
 27 30  1  0  0  0  0
 25 26  1  0  0  0  0
 25 27  1  0  0  0  0
M  CHG  1  15   1
M  END
$$$$
default_name
  -OEChem-02102213163D

 30 30  0     1  0  0  0  0  0999 V2000
   -3.5507   -3.2183    1.8116 H   0  0  0  0  0  0  0  0  0  0  0  0
   -3.4597   -2.3913    1.1076 C   0  0  0  0  0  0  0  0  0  0  0  0
   -4.1577   -1.6043    1.3866 H   0  0  0  0  0  0  0  0  0  0  0  0
   -3.6807   -2.7523    0.1036 H   0  0  0  0  0  0  0  0  0  0  0  0
   -2.0477   -1.8543    1.1546 C   0  0  0  0  0  0  0  0  0  0  0  0
   -1.2227   -2.3443    1.9146 O   0  0  0  0  0  0  0  0  0  0  0  0
   -1.7517   -0.8483    0.3266 N   0  0  0  0  0  0  0  0  0  0  0  0
   -2.4847   -0.5123   -0.2804 H   0  0  0  0  0  0  0  0  0  0  0  0
   -0.4117   -0.2463    0.2186 C   0  0  1  0  0  0  0  0  0  0  0  0
    0.2987   -1.0391   -0.0285 H   0  0  0  0  0  0  0  0  0  0  0  0
   -0.4131    0.7505   -0.9636 C   0  0  0  0  0  0  0  0  0  0  0  0
   -0.4286    0.1829   -1.8975 H   0  0  0  0  0  0  0  0  0  0  0  0
   -1.3325    1.3388   -0.9307 H   0  0  0  0  0  0  0  0  0  0  0  0
    0.7580    1.7095   -0.9982 C   0  0  0  0  0  0  0  0  0  0  0  0
    2.0467    1.3827   -1.3736 N   0  3  0  0  0  0  0  0  0  0  0  0
    2.3151    0.4606   -1.7291 H   0  0  0  0  0  0  0  0  0  0  0  0
    2.8113    2.4886   -1.2777 C   0  0  0  0  0  0  0  0  0  0  0  0
    3.8706    2.5443   -1.5202 H   0  0  0  0  0  0  0  0  0  0  0  0
    2.0359    3.5098   -0.8485 N   0  0  0  0  0  0  0  0  0  0  0  0
    2.3429    4.4655   -0.6873 H   0  0  0  0  0  0  0  0  0  0  0  0
    0.7432    3.0377   -0.6679 C   0  0  0  0  0  0  0  0  0  0  0  0
   -0.1203    3.6044   -0.3308 H   0  0  0  0  0  0  0  0  0  0  0  0
    0.0470    0.3465    1.5629 C   0  0  0  0  0  0  0  0  0  0  0  0
    1.1854    0.1365    1.9846 O   0  0  0  0  0  0  0  0  0  0  0  0
   -0.8551    1.0750    2.2320 N   0  0  0  0  0  0  0  0  0  0  0  0
   -1.7594    1.2031    1.8040 H   0  0  0  0  0  0  0  0  0  0  0  0
   -0.6356    1.6998    3.5400 C   0  0  0  0  0  0  0  0  0  0  0  0
   -0.4284    2.7647    3.4168 H   0  0  0  0  0  0  0  0  0  0  0  0
   -1.5268    1.5885    4.1601 H   0  0  0  0  0  0  0  0  0  0  0  0
    0.2072    1.2358    4.0566 H   0  0  0  0  0  0  0  0  0  0  0  0
  5  6  2  0  0  0  0
  5  7  1  0  0  0  0
  2  3  1  0  0  0  0
  2  4  1  0  0  0  0
  2  5  1  0  0  0  0
  1  2  1  0  0  0  0
 23 24  2  0  0  0  0
 23 25  1  0  0  0  0
 21 22  1  0  0  0  0
 19 20  1  0  0  0  0
 19 21  1  0  0  0  0
 17 18  1  0  0  0  0
 17 19  1  0  0  0  0
 15 16  1  0  0  0  0
 15 17  2  0  0  0  0
 14 15  1  0  0  0  0
 14 21  2  0  0  0  0
 11 12  1  0  0  0  0
 11 13  1  0  0  0  0
 11 14  1  0  0  0  0
  9 10  1  0  0  0  0
  9 11  1  0  0  0  0
  9 23  1  0  0  0  0
  7  8  1  0  0  0  0
  7  9  1  0  0  0  0
 27 28  1  0  0  0  0
 27 29  1  0  0  0  0
 27 30  1  0  0  0  0
 25 26  1  0  0  0  0
 25 27  1  0  0  0  0
M  CHG  1  15   1
M  END
$$$$
default_name
  -OEChem-02102213163D

 30 30  0     1  0  0  0  0  0999 V2000
   -3.5507   -3.2183    1.8116 H   0  0  0  0  0  0  0  0  0  0  0  0
   -3.4597   -2.3913    1.1076 C   0  0  0  0  0  0  0  0  0  0  0  0
   -4.1577   -1.6043    1.3866 H   0  0  0  0  0  0  0  0  0  0  0  0
   -3.6807   -2.7523    0.1036 H   0  0  0  0  0  0  0  0  0  0  0  0
   -2.0477   -1.8543    1.1546 C   0  0  0  0  0  0  0  0  0  0  0  0
   -1.2227   -2.3443    1.9146 O   0  0  0  0  0  0  0  0  0  0  0  0
   -1.7517   -0.8483    0.3266 N   0  0  0  0  0  0  0  0  0  0  0  0
   -2.4847   -0.5123   -0.2804 H   0  0  0  0  0  0  0  0  0  0  0  0
   -0.4117   -0.2463    0.2186 C   0  0  1  0  0  0  0  0  0  0  0  0
    0.2987   -1.0391   -0.0285 H   0  0  0  0  0  0  0  0  0  0  0  0
   -0.4131    0.7505   -0.9636 C   0  0  0  0  0  0  0  0  0  0  0  0
   -0.4286    0.1829   -1.8975 H   0  0  0  0  0  0  0  0  0  0  0  0
   -1.3325    1.3388   -0.9307 H   0  0  0  0  0  0  0  0  0  0  0  0
    0.7580    1.7095   -0.9982 C   0  0  0  0  0  0  0  0  0  0  0  0
    1.9604    1.4786   -1.6381 N   0  3  0  0  0  0  0  0  0  0  0  0
    2.1462    0.6496   -2.2098 H   0  0  0  0  0  0  0  0  0  0  0  0
    2.7552    2.5509   -1.4505 C   0  0  0  0  0  0  0  0  0  0  0  0
    3.7616    2.6656   -1.8479 H   0  0  0  0  0  0  0  0  0  0  0  0
    2.0836    3.4568   -0.7044 N   0  0  0  0  0  0  0  0  0  0  0  0
    2.4343    4.3639   -0.4083 H   0  0  0  0  0  0  0  0  0  0  0  0
    0.8274    2.9441   -0.4115 C   0  0  0  0  0  0  0  0  0  0  0  0
    0.0436    3.4223    0.1694 H   0  0  0  0  0  0  0  0  0  0  0  0
    0.0470    0.3465    1.5629 C   0  0  0  0  0  0  0  0  0  0  0  0
    1.1854    0.1365    1.9846 O   0  0  0  0  0  0  0  0  0  0  0  0
   -0.8551    1.0750    2.2320 N   0  0  0  0  0  0  0  0  0  0  0  0
   -1.7594    1.2031    1.8040 H   0  0  0  0  0  0  0  0  0  0  0  0
   -0.6356    1.6998    3.5400 C   0  0  0  0  0  0  0  0  0  0  0  0
   -0.4284    2.7647    3.4168 H   0  0  0  0  0  0  0  0  0  0  0  0
   -1.5268    1.5885    4.1601 H   0  0  0  0  0  0  0  0  0  0  0  0
    0.2072    1.2358    4.0566 H   0  0  0  0  0  0  0  0  0  0  0  0
  5  6  2  0  0  0  0
  5  7  1  0  0  0  0
  2  3  1  0  0  0  0
  2  4  1  0  0  0  0
  2  5  1  0  0  0  0
  1  2  1  0  0  0  0
 23 24  2  0  0  0  0
 23 25  1  0  0  0  0
 21 22  1  0  0  0  0
 19 20  1  0  0  0  0
 19 21  1  0  0  0  0
 17 18  1  0  0  0  0
 17 19  1  0  0  0  0
 15 16  1  0  0  0  0
 15 17  2  0  0  0  0
 14 15  1  0  0  0  0
 14 21  2  0  0  0  0
 11 12  1  0  0  0  0
 11 13  1  0  0  0  0
 11 14  1  0  0  0  0
  9 10  1  0  0  0  0
  9 11  1  0  0  0  0
  9 23  1  0  0  0  0
  7  8  1  0  0  0  0
  7  9  1  0  0  0  0
 27 28  1  0  0  0  0
 27 29  1  0  0  0  0
 27 30  1  0  0  0  0
 25 26  1  0  0  0  0
 25 27  1  0  0  0  0
M  CHG  1  15   1
M  END
$$$$
default_name
  -OEChem-02102213163D

 30 30  0     1  0  0  0  0  0999 V2000
   -3.5507   -3.2183    1.8116 H   0  0  0  0  0  0  0  0  0  0  0  0
   -3.4597   -2.3913    1.1076 C   0  0  0  0  0  0  0  0  0  0  0  0
   -4.1577   -1.6043    1.3866 H   0  0  0  0  0  0  0  0  0  0  0  0
   -3.6807   -2.7523    0.1036 H   0  0  0  0  0  0  0  0  0  0  0  0
   -2.0477   -1.8543    1.1546 C   0  0  0  0  0  0  0  0  0  0  0  0
   -1.2227   -2.3443    1.9146 O   0  0  0  0  0  0  0  0  0  0  0  0
   -1.7517   -0.8483    0.3266 N   0  0  0  0  0  0  0  0  0  0  0  0
   -2.4847   -0.5123   -0.2804 H   0  0  0  0  0  0  0  0  0  0  0  0
   -0.4117   -0.2463    0.2186 C   0  0  1  0  0  0  0  0  0  0  0  0
    0.2987   -1.0391   -0.0285 H   0  0  0  0  0  0  0  0  0  0  0  0
   -0.4131    0.7505   -0.9636 C   0  0  0  0  0  0  0  0  0  0  0  0
   -0.4286    0.1829   -1.8975 H   0  0  0  0  0  0  0  0  0  0  0  0
   -1.3325    1.3388   -0.9307 H   0  0  0  0  0  0  0  0  0  0  0  0
    0.7580    1.7095   -0.9982 C   0  0  0  0  0  0  0  0  0  0  0  0
    1.8342    1.6247   -1.8603 N   0  3  0  0  0  0  0  0  0  0  0  0
    1.9053    0.9293   -2.6086 H   0  0  0  0  0  0  0  0  0  0  0  0
    2.6730    2.6460   -1.5957 C   0  0  0  0  0  0  0  0  0  0  0  0
    3.6034    2.8490   -2.1222 H   0  0  0  0  0  0  0  0  0  0  0  0
    2.1529    3.3765   -0.5835 N   0  0  0  0  0  0  0  0  0  0  0  0
    2.5677    4.2095   -0.1741 H   0  0  0  0  0  0  0  0  0  0  0  0
    0.9502    2.8019   -0.1963 C   0  0  0  0  0  0  0  0  0  0  0  0
    0.2828    3.1453    0.5893 H   0  0  0  0  0  0  0  0  0  0  0  0
    0.0470    0.3465    1.5629 C   0  0  0  0  0  0  0  0  0  0  0  0
    1.1854    0.1365    1.9846 O   0  0  0  0  0  0  0  0  0  0  0  0
   -0.8551    1.0750    2.2320 N   0  0  0  0  0  0  0  0  0  0  0  0
   -1.7594    1.2031    1.8040 H   0  0  0  0  0  0  0  0  0  0  0  0
   -0.6356    1.6998    3.5400 C   0  0  0  0  0  0  0  0  0  0  0  0
   -0.4284    2.7647    3.4168 H   0  0  0  0  0  0  0  0  0  0  0  0
   -1.5268    1.5885    4.1601 H   0  0  0  0  0  0  0  0  0  0  0  0
    0.2072    1.2358    4.0566 H   0  0  0  0  0  0  0  0  0  0  0  0
  5  6  2  0  0  0  0
  5  7  1  0  0  0  0
  2  3  1  0  0  0  0
  2  4  1  0  0  0  0
  2  5  1  0  0  0  0
  1  2  1  0  0  0  0
 23 24  2  0  0  0  0
 23 25  1  0  0  0  0
 21 22  1  0  0  0  0
 19 20  1  0  0  0  0
 19 21  1  0  0  0  0
 17 18  1  0  0  0  0
 17 19  1  0  0  0  0
 15 16  1  0  0  0  0
 15 17  2  0  0  0  0
 14 15  1  0  0  0  0
 14 21  2  0  0  0  0
 11 12  1  0  0  0  0
 11 13  1  0  0  0  0
 11 14  1  0  0  0  0
  9 10  1  0  0  0  0
  9 11  1  0  0  0  0
  9 23  1  0  0  0  0
  7  8  1  0  0  0  0
  7  9  1  0  0  0  0
 27 28  1  0  0  0  0
 27 29  1  0  0  0  0
 27 30  1  0  0  0  0
 25 26  1  0  0  0  0
 25 27  1  0  0  0  0
M  CHG  1  15   1
M  END
$$$$
default_name
  -OEChem-02102213163D

 30 30  0     1  0  0  0  0  0999 V2000
   -3.5507   -3.2183    1.8116 H   0  0  0  0  0  0  0  0  0  0  0  0
   -3.4597   -2.3913    1.1076 C   0  0  0  0  0  0  0  0  0  0  0  0
   -4.1577   -1.6043    1.3866 H   0  0  0  0  0  0  0  0  0  0  0  0
   -3.6807   -2.7523    0.1036 H   0  0  0  0  0  0  0  0  0  0  0  0
   -2.0477   -1.8543    1.1546 C   0  0  0  0  0  0  0  0  0  0  0  0
   -1.2227   -2.3443    1.9146 O   0  0  0  0  0  0  0  0  0  0  0  0
   -1.7517   -0.8483    0.3266 N   0  0  0  0  0  0  0  0  0  0  0  0
   -2.4847   -0.5123   -0.2804 H   0  0  0  0  0  0  0  0  0  0  0  0
   -0.4117   -0.2463    0.2186 C   0  0  1  0  0  0  0  0  0  0  0  0
    0.2987   -1.0391   -0.0285 H   0  0  0  0  0  0  0  0  0  0  0  0
   -0.4131    0.7505   -0.9636 C   0  0  0  0  0  0  0  0  0  0  0  0
   -0.4286    0.1829   -1.8975 H   0  0  0  0  0  0  0  0  0  0  0  0
   -1.3325    1.3388   -0.9307 H   0  0  0  0  0  0  0  0  0  0  0  0
    0.7580    1.7095   -0.9982 C   0  0  0  0  0  0  0  0  0  0  0  0
    1.6767    1.8111   -2.0249 N   0  3  0  0  0  0  0  0  0  0  0  0
    1.6089    1.2808   -2.8984 H   0  0  0  0  0  0  0  0  0  0  0  0
    2.5704    2.7675   -1.7034 C   0  0  0  0  0  0  0  0  0  0  0  0
    3.4066    3.0820   -2.3245 H   0  0  0  0  0  0  0  0  0  0  0  0
    2.2392    3.2743   -0.4943 N   0  0  0  0  0  0  0  0  0  0  0  0
    2.7340    4.0126   -0.0007 H   0  0  0  0  0  0  0  0  0  0  0  0
    1.1033    2.6208   -0.0371 C   0  0  0  0  0  0  0  0  0  0  0  0
    0.5811    2.7923    0.9001 H   0  0  0  0  0  0  0  0  0  0  0  0
    0.0470    0.3465    1.5629 C   0  0  0  0  0  0  0  0  0  0  0  0
    1.1854    0.1365    1.9846 O   0  0  0  0  0  0  0  0  0  0  0  0
   -0.8551    1.0750    2.2320 N   0  0  0  0  0  0  0  0  0  0  0  0
   -1.7594    1.2031    1.8040 H   0  0  0  0  0  0  0  0  0  0  0  0
   -0.6356    1.6998    3.5400 C   0  0  0  0  0  0  0  0  0  0  0  0
   -0.4284    2.7647    3.4168 H   0  0  0  0  0  0  0  0  0  0  0  0
   -1.5268    1.5885    4.1601 H   0  0  0  0  0  0  0  0  0  0  0  0
    0.2072    1.2358    4.0566 H   0  0  0  0  0  0  0  0  0  0  0  0
  5  6  2  0  0  0  0
  5  7  1  0  0  0  0
  2  3  1  0  0  0  0
  2  4  1  0  0  0  0
  2  5  1  0  0  0  0
  1  2  1  0  0  0  0
 23 24  2  0  0  0  0
 23 25  1  0  0  0  0
 21 22  1  0  0  0  0
 19 20  1  0  0  0  0
 19 21  1  0  0  0  0
 17 18  1  0  0  0  0
 17 19  1  0  0  0  0
 15 16  1  0  0  0  0
 15 17  2  0  0  0  0
 14 15  1  0  0  0  0
 14 21  2  0  0  0  0
 11 12  1  0  0  0  0
 11 13  1  0  0  0  0
 11 14  1  0  0  0  0
  9 10  1  0  0  0  0
  9 11  1  0  0  0  0
  9 23  1  0  0  0  0
  7  8  1  0  0  0  0
  7  9  1  0  0  0  0
 27 28  1  0  0  0  0
 27 29  1  0  0  0  0
 27 30  1  0  0  0  0
 25 26  1  0  0  0  0
 25 27  1  0  0  0  0
M  CHG  1  15   1
M  END
$$$$
default_name
  -OEChem-02102213163D

 30 30  0     1  0  0  0  0  0999 V2000
   -3.5507   -3.2183    1.8116 H   0  0  0  0  0  0  0  0  0  0  0  0
   -3.4597   -2.3913    1.1076 C   0  0  0  0  0  0  0  0  0  0  0  0
   -4.1577   -1.6043    1.3866 H   0  0  0  0  0  0  0  0  0  0  0  0
   -3.6807   -2.7523    0.1036 H   0  0  0  0  0  0  0  0  0  0  0  0
   -2.0477   -1.8543    1.1546 C   0  0  0  0  0  0  0  0  0  0  0  0
   -1.2227   -2.3443    1.9146 O   0  0  0  0  0  0  0  0  0  0  0  0
   -1.7517   -0.8483    0.3266 N   0  0  0  0  0  0  0  0  0  0  0  0
   -2.4847   -0.5123   -0.2804 H   0  0  0  0  0  0  0  0  0  0  0  0
   -0.4117   -0.2463    0.2186 C   0  0  1  0  0  0  0  0  0  0  0  0
    0.2987   -1.0391   -0.0285 H   0  0  0  0  0  0  0  0  0  0  0  0
   -0.4131    0.7505   -0.9636 C   0  0  0  0  0  0  0  0  0  0  0  0
   -0.4286    0.1829   -1.8975 H   0  0  0  0  0  0  0  0  0  0  0  0
   -1.3325    1.3388   -0.9307 H   0  0  0  0  0  0  0  0  0  0  0  0
    0.7580    1.7095   -0.9982 C   0  0  0  0  0  0  0  0  0  0  0  0
    1.4988    2.0249   -2.1208 N   0  3  0  0  0  0  0  0  0  0  0  0
    1.2772    1.6800   -3.0593 H   0  0  0  0  0  0  0  0  0  0  0  0
    2.4543    2.9069   -1.7663 C   0  0  0  0  0  0  0  0  0  0  0  0
    3.1847    3.3487   -2.4411 H   0  0  0  0  0  0  0  0  0  0  0  0
    2.3367    3.1572   -0.4427 N   0  0  0  0  0  0  0  0  0  0  0  0
    2.9220    3.7867    0.1001 H   0  0  0  0  0  0  0  0  0  0  0  0
    1.2761    2.4130    0.0554 C   0  0  0  0  0  0  0  0  0  0  0  0
    0.9180    2.3873    1.0808 H   0  0  0  0  0  0  0  0  0  0  0  0
    0.0470    0.3465    1.5629 C   0  0  0  0  0  0  0  0  0  0  0  0
    1.1854    0.1365    1.9846 O   0  0  0  0  0  0  0  0  0  0  0  0
   -0.8551    1.0750    2.2320 N   0  0  0  0  0  0  0  0  0  0  0  0
   -1.7594    1.2031    1.8040 H   0  0  0  0  0  0  0  0  0  0  0  0
   -0.6356    1.6998    3.5400 C   0  0  0  0  0  0  0  0  0  0  0  0
   -0.4284    2.7647    3.4168 H   0  0  0  0  0  0  0  0  0  0  0  0
   -1.5268    1.5885    4.1601 H   0  0  0  0  0  0  0  0  0  0  0  0
    0.2072    1.2358    4.0566 H   0  0  0  0  0  0  0  0  0  0  0  0
  5  6  2  0  0  0  0
  5  7  1  0  0  0  0
  2  3  1  0  0  0  0
  2  4  1  0  0  0  0
  2  5  1  0  0  0  0
  1  2  1  0  0  0  0
 23 24  2  0  0  0  0
 23 25  1  0  0  0  0
 21 22  1  0  0  0  0
 19 20  1  0  0  0  0
 19 21  1  0  0  0  0
 17 18  1  0  0  0  0
 17 19  1  0  0  0  0
 15 16  1  0  0  0  0
 15 17  2  0  0  0  0
 14 15  1  0  0  0  0
 14 21  2  0  0  0  0
 11 12  1  0  0  0  0
 11 13  1  0  0  0  0
 11 14  1  0  0  0  0
  9 10  1  0  0  0  0
  9 11  1  0  0  0  0
  9 23  1  0  0  0  0
  7  8  1  0  0  0  0
  7  9  1  0  0  0  0
 27 28  1  0  0  0  0
 27 29  1  0  0  0  0
 27 30  1  0  0  0  0
 25 26  1  0  0  0  0
 25 27  1  0  0  0  0
M  CHG  1  15   1
M  END
$$$$
default_name
  -OEChem-02102213163D

 30 30  0     1  0  0  0  0  0999 V2000
   -3.5507   -3.2183    1.8116 H   0  0  0  0  0  0  0  0  0  0  0  0
   -3.4597   -2.3913    1.1076 C   0  0  0  0  0  0  0  0  0  0  0  0
   -4.1577   -1.6043    1.3866 H   0  0  0  0  0  0  0  0  0  0  0  0
   -3.6807   -2.7523    0.1036 H   0  0  0  0  0  0  0  0  0  0  0  0
   -2.0477   -1.8543    1.1546 C   0  0  0  0  0  0  0  0  0  0  0  0
   -1.2227   -2.3443    1.9146 O   0  0  0  0  0  0  0  0  0  0  0  0
   -1.7517   -0.8483    0.3266 N   0  0  0  0  0  0  0  0  0  0  0  0
   -2.4847   -0.5123   -0.2804 H   0  0  0  0  0  0  0  0  0  0  0  0
   -0.4117   -0.2463    0.2186 C   0  0  1  0  0  0  0  0  0  0  0  0
    0.2987   -1.0391   -0.0285 H   0  0  0  0  0  0  0  0  0  0  0  0
   -0.4131    0.7505   -0.9636 C   0  0  0  0  0  0  0  0  0  0  0  0
   -0.4286    0.1829   -1.8975 H   0  0  0  0  0  0  0  0  0  0  0  0
   -1.3325    1.3388   -0.9307 H   0  0  0  0  0  0  0  0  0  0  0  0
    0.7580    1.7095   -0.9982 C   0  0  0  0  0  0  0  0  0  0  0  0
    1.3124    2.2518   -2.1415 N   0  3  0  0  0  0  0  0  0  0  0  0
    0.9328    2.0998   -3.0804 H   0  0  0  0  0  0  0  0  0  0  0  0
    2.3327    3.0549   -1.7801 C   0  0  0  0  0  0  0  0  0  0  0  0
    2.9529    3.6310   -2.4639 H   0  0  0  0  0  0  0  0  0  0  0  0
    2.4385    3.0332   -0.4322 N   0  0  0  0  0  0  0  0  0  0  0  0
    3.1187    3.5472    0.1215 H   0  0  0  0  0  0  0  0  0  0  0  0
    1.4570    2.1928    0.0747 C   0  0  0  0  0  0  0  0  0  0  0  0
    1.2708    1.9580    1.1191 H   0  0  0  0  0  0  0  0  0  0  0  0
    0.0470    0.3465    1.5629 C   0  0  0  0  0  0  0  0  0  0  0  0
    1.1854    0.1365    1.9846 O   0  0  0  0  0  0  0  0  0  0  0  0
   -0.8551    1.0750    2.2320 N   0  0  0  0  0  0  0  0  0  0  0  0
   -1.7594    1.2031    1.8040 H   0  0  0  0  0  0  0  0  0  0  0  0
   -0.6356    1.6998    3.5400 C   0  0  0  0  0  0  0  0  0  0  0  0
   -0.4284    2.7647    3.4168 H   0  0  0  0  0  0  0  0  0  0  0  0
   -1.5268    1.5885    4.1601 H   0  0  0  0  0  0  0  0  0  0  0  0
    0.2072    1.2358    4.0566 H   0  0  0  0  0  0  0  0  0  0  0  0
  5  6  2  0  0  0  0
  5  7  1  0  0  0  0
  2  3  1  0  0  0  0
  2  4  1  0  0  0  0
  2  5  1  0  0  0  0
  1  2  1  0  0  0  0
 23 24  2  0  0  0  0
 23 25  1  0  0  0  0
 21 22  1  0  0  0  0
 19 20  1  0  0  0  0
 19 21  1  0  0  0  0
 17 18  1  0  0  0  0
 17 19  1  0  0  0  0
 15 16  1  0  0  0  0
 15 17  2  0  0  0  0
 14 15  1  0  0  0  0
 14 21  2  0  0  0  0
 11 12  1  0  0  0  0
 11 13  1  0  0  0  0
 11 14  1  0  0  0  0
  9 10  1  0  0  0  0
  9 11  1  0  0  0  0
  9 23  1  0  0  0  0
  7  8  1  0  0  0  0
  7  9  1  0  0  0  0
 27 28  1  0  0  0  0
 27 29  1  0  0  0  0
 27 30  1  0  0  0  0
 25 26  1  0  0  0  0
 25 27  1  0  0  0  0
M  CHG  1  15   1
M  END
$$$$
default_name
  -OEChem-02102213163D

 30 30  0     1  0  0  0  0  0999 V2000
   -3.5507   -3.2183    1.8116 H   0  0  0  0  0  0  0  0  0  0  0  0
   -3.4597   -2.3913    1.1076 C   0  0  0  0  0  0  0  0  0  0  0  0
   -4.1577   -1.6043    1.3866 H   0  0  0  0  0  0  0  0  0  0  0  0
   -3.6807   -2.7523    0.1036 H   0  0  0  0  0  0  0  0  0  0  0  0
   -2.0477   -1.8543    1.1546 C   0  0  0  0  0  0  0  0  0  0  0  0
   -1.2227   -2.3443    1.9146 O   0  0  0  0  0  0  0  0  0  0  0  0
   -1.7517   -0.8483    0.3266 N   0  0  0  0  0  0  0  0  0  0  0  0
   -2.4847   -0.5123   -0.2804 H   0  0  0  0  0  0  0  0  0  0  0  0
   -0.4117   -0.2463    0.2186 C   0  0  1  0  0  0  0  0  0  0  0  0
    0.2987   -1.0391   -0.0285 H   0  0  0  0  0  0  0  0  0  0  0  0
   -0.4131    0.7505   -0.9636 C   0  0  0  0  0  0  0  0  0  0  0  0
   -0.4286    0.1829   -1.8975 H   0  0  0  0  0  0  0  0  0  0  0  0
   -1.3325    1.3388   -0.9307 H   0  0  0  0  0  0  0  0  0  0  0  0
    0.7580    1.7095   -0.9982 C   0  0  0  0  0  0  0  0  0  0  0  0
    1.1303    2.4761   -2.0855 N   0  3  0  0  0  0  0  0  0  0  0  0
    0.5991    2.5116   -2.9603 H   0  0  0  0  0  0  0  0  0  0  0  0
    2.2138    3.2014   -1.7439 C   0  0  0  0  0  0  0  0  0  0  0  0
    2.7269    3.9096   -2.3914 H   0  0  0  0  0  0  0  0  0  0  0  0
    2.5379    2.9107   -0.4637 N   0  0  0  0  0  0  0  0  0  0  0  0
    3.3108    3.3105    0.0619 H   0  0  0  0  0  0  0  0  0  0  0  0
    1.6336    1.9752    0.0197 C   0  0  0  0  0  0  0  0  0  0  0  0
    1.6152    1.5335    1.0122 H   0  0  0  0  0  0  0  0  0  0  0  0
    0.0470    0.3465    1.5629 C   0  0  0  0  0  0  0  0  0  0  0  0
    1.1854    0.1365    1.9846 O   0  0  0  0  0  0  0  0  0  0  0  0
   -0.8551    1.0750    2.2320 N   0  0  0  0  0  0  0  0  0  0  0  0
   -1.7594    1.2031    1.8040 H   0  0  0  0  0  0  0  0  0  0  0  0
   -0.6356    1.6998    3.5400 C   0  0  0  0  0  0  0  0  0  0  0  0
   -0.4284    2.7647    3.4168 H   0  0  0  0  0  0  0  0  0  0  0  0
   -1.5268    1.5885    4.1601 H   0  0  0  0  0  0  0  0  0  0  0  0
    0.2072    1.2358    4.0566 H   0  0  0  0  0  0  0  0  0  0  0  0
  5  6  2  0  0  0  0
  5  7  1  0  0  0  0
  2  3  1  0  0  0  0
  2  4  1  0  0  0  0
  2  5  1  0  0  0  0
  1  2  1  0  0  0  0
 23 24  2  0  0  0  0
 23 25  1  0  0  0  0
 21 22  1  0  0  0  0
 19 20  1  0  0  0  0
 19 21  1  0  0  0  0
 17 18  1  0  0  0  0
 17 19  1  0  0  0  0
 15 16  1  0  0  0  0
 15 17  2  0  0  0  0
 14 15  1  0  0  0  0
 14 21  2  0  0  0  0
 11 12  1  0  0  0  0
 11 13  1  0  0  0  0
 11 14  1  0  0  0  0
  9 10  1  0  0  0  0
  9 11  1  0  0  0  0
  9 23  1  0  0  0  0
  7  8  1  0  0  0  0
  7  9  1  0  0  0  0
 27 28  1  0  0  0  0
 27 29  1  0  0  0  0
 27 30  1  0  0  0  0
 25 26  1  0  0  0  0
 25 27  1  0  0  0  0
M  CHG  1  15   1
M  END
$$$$
