default_name
  -OEChem-02102213163D

 30 30  0     1  0  0  0  0  0999 V2000
   -3.5507   -3.2183    1.8116 H   0  0  0  0  0  0  0  0  0  0  0  0
   -3.4597   -2.3913    1.1076 C   0  0  0  0  0  0  0  0  0  0  0  0
   -4.1577   -1.6043    1.3866 H   0  0  0  0  0  0  0  0  0  0  0  0
   -3.6807   -2.7523    0.1036 H   0  0  0  0  0  0  0  0  0  0  0  0
   -2.0477   -1.8543    1.1546 C   0  0  0  0  0  0  0  0  0  0  0  0
   -1.2227   -2.3443    1.9146 O   0  0  0  0  0  0  0  0  0  0  0  0
   -1.7517   -0.8483    0.3266 N   0  0  0  0  0  0  0  0  0  0  0  0
   -2.4847   -0.5123   -0.2804 H   0  0  0  0  0  0  0  0  0  0  0  0
   -0.4117   -0.2463    0.2186 C   0  0  1  0  0  0  0  0  0  0  0  0
    0.1554   -0.5152    1.1133 H   0  0  0  0  0  0  0  0  0  0  0  0
    0.3164   -0.8780   -0.9905 C   0  0  0  0  0  0  0  0  0  0  0  0
    0.3629   -1.9599   -0.8426 H   0  0  0  0  0  0  0  0  0  0  0  0
   -0.2749   -0.7028   -1.8919 H   0  0  0  0  0  0  0  0  0  0  0  0
    1.7177   -0.3618   -1.2395 C   0  0  0  0  0  0  0  0  0  0  0  0
    2.5531   -0.7789   -2.2576 N   0  3  0  0  0  0  0  0  0  0  0  0
    2.2696   -1.4407   -2.9858 H   0  0  0  0  0  0  0  0  0  0  0  0
    3.7138   -0.1006   -2.1607 C   0  0  0  0  0  0  0  0  0  0  0  0
    4.5624   -0.2058   -2.8337 H   0  0  0  0  0  0  0  0  0  0  0  0
    3.6335    0.7372   -1.1024 N   0  0  0  0  0  0  0  0  0  0  0  0
    4.3605    1.3754   -0.7897 H   0  0  0  0  0  0  0  0  0  0  0  0
    2.3863    0.5858   -0.5124 C   0  0  0  0  0  0  0  0  0  0  0  0
    2.0046    1.1128    0.3577 H   0  0  0  0  0  0  0  0  0  0  0  0
   -0.4874    1.2908    0.1962 C   0  0  0  0  0  0  0  0  0  0  0  0
   -1.3116    1.8673   -0.5151 O   0  0  0  0  0  0  0  0  0  0  0  0
    0.3889    1.9422    0.9708 N   0  0  0  0  0  0  0  0  0  0  0  0
    1.0197    1.3866    1.5283 H   0  0  0  0  0  0  0  0  0  0  0  0
    0.5081    3.3999    1.0720 C   0  0  0  0  0  0  0  0  0  0  0  0
    0.0188    3.7538    1.9817 H   0  0  0  0  0  0  0  0  0  0  0  0
    1.5607    3.6858    1.1098 H   0  0  0  0  0  0  0  0  0  0  0  0
    0.0459    3.8890    0.2119 H   0  0  0  0  0  0  0  0  0  0  0  0
  5  6  2  0  0  0  0
  5  7  1  0  0  0  0
  2  3  1  0  0  0  0
  2  4  1  0  0  0  0
  2  5  1  0  0  0  0
  1  2  1  0  0  0  0
 23 24  2  0  0  0  0
 23 25  1  0  0  0  0
 21 22  1  0  0  0  0
 19 20  1  0  0  0  0
 19 21  1  0  0  0  0
 17 18  1  0  0  0  0
 17 19  1  0  0  0  0
 15 16  1  0  0  0  0
 15 17  2  0  0  0  0
 14 15  1  0  0  0  0
 14 21  2  0  0  0  0
 11 12  1  0  0  0  0
 11 13  1  0  0  0  0
 11 14  1  0  0  0  0
  9 10  1  0  0  0  0
  9 11  1  0  0  0  0
  9 23  1  0  0  0  0
  7  8  1  0  0  0  0
  7  9  1  0  0  0  0
 27 28  1  0  0  0  0
 27 29  1  0  0  0  0
 27 30  1  0  0  0  0
 25 26  1  0  0  0  0
 25 27  1  0  0  0  0
M  CHG  1  15   1
M  END
$$$$
default_name
  -OEChem-02102213163D

 30 30  0     1  0  0  0  0  0999 V2000
   -3.5507   -3.2183    1.8116 H   0  0  0  0  0  0  0  0  0  0  0  0
   -3.4597   -2.3913    1.1076 C   0  0  0  0  0  0  0  0  0  0  0  0
   -4.1577   -1.6043    1.3866 H   0  0  0  0  0  0  0  0  0  0  0  0
   -3.6807   -2.7523    0.1036 H   0  0  0  0  0  0  0  0  0  0  0  0
   -2.0477   -1.8543    1.1546 C   0  0  0  0  0  0  0  0  0  0  0  0
   -1.2227   -2.3443    1.9146 O   0  0  0  0  0  0  0  0  0  0  0  0
   -1.7517   -0.8483    0.3266 N   0  0  0  0  0  0  0  0  0  0  0  0
   -2.4847   -0.5123   -0.2804 H   0  0  0  0  0  0  0  0  0  0  0  0
   -0.4117   -0.2463    0.2186 C   0  0  1  0  0  0  0  0  0  0  0  0
    0.1554   -0.5152    1.1133 H   0  0  0  0  0  0  0  0  0  0  0  0
    0.3164   -0.8780   -0.9905 C   0  0  0  0  0  0  0  0  0  0  0  0
    0.3629   -1.9599   -0.8426 H   0  0  0  0  0  0  0  0  0  0  0  0
   -0.2749   -0.7028   -1.8919 H   0  0  0  0  0  0  0  0  0  0  0  0
    1.7177   -0.3618   -1.2395 C   0  0  0  0  0  0  0  0  0  0  0  0
    2.4422   -0.5470   -2.4010 N   0  3  0  0  0  0  0  0  0  0  0  0
    2.0643   -1.0041   -3.2359 H   0  0  0  0  0  0  0  0  0  0  0  0
    3.6414    0.0506   -2.2546 C   0  0  0  0  0  0  0  0  0  0  0  0
    4.4244    0.0840   -3.0095 H   0  0  0  0  0  0  0  0  0  0  0  0
    3.6941    0.6101   -1.0248 N   0  0  0  0  0  0  0  0  0  0  0  0
    4.4775    1.1304   -0.6387 H   0  0  0  0  0  0  0  0  0  0  0  0
    2.4939    0.3604   -0.3738 C   0  0  0  0  0  0  0  0  0  0  0  0
    2.2144    0.6736    0.6284 H   0  0  0  0  0  0  0  0  0  0  0  0
   -0.4874    1.2908    0.1962 C   0  0  0  0  0  0  0  0  0  0  0  0
   -1.3116    1.8673   -0.5151 O   0  0  0  0  0  0  0  0  0  0  0  0
    0.3889    1.9422    0.9708 N   0  0  0  0  0  0  0  0  0  0  0  0
    1.0197    1.3866    1.5283 H   0  0  0  0  0  0  0  0  0  0  0  0
    0.5081    3.3999    1.0720 C   0  0  0  0  0  0  0  0  0  0  0  0
    0.0188    3.7538    1.9817 H   0  0  0  0  0  0  0  0  0  0  0  0
    1.5607    3.6858    1.1098 H   0  0  0  0  0  0  0  0  0  0  0  0
    0.0459    3.8890    0.2119 H   0  0  0  0  0  0  0  0  0  0  0  0
  5  6  2  0  0  0  0
  5  7  1  0  0  0  0
  2  3  1  0  0  0  0
  2  4  1  0  0  0  0
  2  5  1  0  0  0  0
  1  2  1  0  0  0  0
 23 24  2  0  0  0  0
 23 25  1  0  0  0  0
 21 22  1  0  0  0  0
 19 20  1  0  0  0  0
 19 21  1  0  0  0  0
 17 18  1  0  0  0  0
 17 19  1  0  0  0  0
 15 16  1  0  0  0  0
 15 17  2  0  0  0  0
 14 15  1  0  0  0  0
 14 21  2  0  0  0  0
 11 12  1  0  0  0  0
 11 13  1  0  0  0  0
 11 14  1  0  0  0  0
  9 10  1  0  0  0  0
  9 11  1  0  0  0  0
  9 23  1  0  0  0  0
  7  8  1  0  0  0  0
  7  9  1  0  0  0  0
 27 28  1  0  0  0  0
 27 29  1  0  0  0  0
 27 30  1  0  0  0  0
 25 26  1  0  0  0  0
 25 27  1  0  0  0  0
M  CHG  1  15   1
M  END
$$$$
default_name
  -OEChem-02102213163D

 30 30  0     1  0  0  0  0  0999 V2000
   -3.5507   -3.2183    1.8116 H   0  0  0  0  0  0  0  0  0  0  0  0
   -3.4597   -2.3913    1.1076 C   0  0  0  0  0  0  0  0  0  0  0  0
   -4.1577   -1.6043    1.3866 H   0  0  0  0  0  0  0  0  0  0  0  0
   -3.6807   -2.7523    0.1036 H   0  0  0  0  0  0  0  0  0  0  0  0
   -2.0477   -1.8543    1.1546 C   0  0  0  0  0  0  0  0  0  0  0  0
   -1.2227   -2.3443    1.9146 O   0  0  0  0  0  0  0  0  0  0  0  0
   -1.7517   -0.8483    0.3266 N   0  0  0  0  0  0  0  0  0  0  0  0
   -2.4847   -0.5123   -0.2804 H   0  0  0  0  0  0  0  0  0  0  0  0
   -0.4117   -0.2463    0.2186 C   0  0  1  0  0  0  0  0  0  0  0  0
    0.1554   -0.5152    1.1133 H   0  0  0  0  0  0  0  0  0  0  0  0
    0.3164   -0.8780   -0.9905 C   0  0  0  0  0  0  0  0  0  0  0  0
    0.3629   -1.9599   -0.8426 H   0  0  0  0  0  0  0  0  0  0  0  0
   -0.2749   -0.7028   -1.8919 H   0  0  0  0  0  0  0  0  0  0  0  0
    1.7177   -0.3618   -1.2395 C   0  0  0  0  0  0  0  0  0  0  0  0
    2.3323   -0.2840   -2.4742 N   0  3  0  0  0  0  0  0  0  0  0  0
    1.8625   -0.5137   -3.3547 H   0  0  0  0  0  0  0  0  0  0  0  0
    3.5697    0.2221   -2.3027 C   0  0  0  0  0  0  0  0  0  0  0  0
    4.2879    0.4119   -3.0978 H   0  0  0  0  0  0  0  0  0  0  0  0
    3.7541    0.4661   -0.9856 N   0  0  0  0  0  0  0  0  0  0  0  0
    4.5935    0.8527   -0.5619 H   0  0  0  0  0  0  0  0  0  0  0  0
    2.6005    0.1049   -0.3034 C   0  0  0  0  0  0  0  0  0  0  0  0
    2.4224    0.1756    0.7661 H   0  0  0  0  0  0  0  0  0  0  0  0
   -0.4874    1.2908    0.1962 C   0  0  0  0  0  0  0  0  0  0  0  0
   -1.3116    1.8673   -0.5151 O   0  0  0  0  0  0  0  0  0  0  0  0
    0.3889    1.9422    0.9708 N   0  0  0  0  0  0  0  0  0  0  0  0
    1.0197    1.3866    1.5283 H   0  0  0  0  0  0  0  0  0  0  0  0
    0.5081    3.3999    1.0720 C   0  0  0  0  0  0  0  0  0  0  0  0
    0.0188    3.7538    1.9817 H   0  0  0  0  0  0  0  0  0  0  0  0
    1.5607    3.6858    1.1098 H   0  0  0  0  0  0  0  0  0  0  0  0
    0.0459    3.8890    0.2119 H   0  0  0  0  0  0  0  0  0  0  0  0
  5  6  2  0  0  0  0
  5  7  1  0  0  0  0
  2  3  1  0  0  0  0
  2  4  1  0  0  0  0
  2  5  1  0  0  0  0
  1  2  1  0  0  0  0
 23 24  2  0  0  0  0
 23 25  1  0  0  0  0
 21 22  1  0  0  0  0
 19 20  1  0  0  0  0
 19 21  1  0  0  0  0
 17 18  1  0  0  0  0
 17 19  1  0  0  0  0
 15 16  1  0  0  0  0
 15 17  2  0  0  0  0
 14 15  1  0  0  0  0
 14 21  2  0  0  0  0
 11 12  1  0  0  0  0
 11 13  1  0  0  0  0
 11 14  1  0  0  0  0
  9 10  1  0  0  0  0
  9 11  1  0  0  0  0
  9 23  1  0  0  0  0
  7  8  1  0  0  0  0
  7  9  1  0  0  0  0
 27 28  1  0  0  0  0
 27 29  1  0  0  0  0
 27 30  1  0  0  0  0
 25 26  1  0  0  0  0
 25 27  1  0  0  0  0
M  CHG  1  15   1
M  END
$$$$
default_name
  -OEChem-02102213163D

 30 30  0     1  0  0  0  0  0999 V2000
   -3.5507   -3.2183    1.8116 H   0  0  0  0  0  0  0  0  0  0  0  0
   -3.4597   -2.3913    1.1076 C   0  0  0  0  0  0  0  0  0  0  0  0
   -4.1577   -1.6043    1.3866 H   0  0  0  0  0  0  0  0  0  0  0  0
   -3.6807   -2.7523    0.1036 H   0  0  0  0  0  0  0  0  0  0  0  0
   -2.0477   -1.8543    1.1546 C   0  0  0  0  0  0  0  0  0  0  0  0
   -1.2227   -2.3443    1.9146 O   0  0  0  0  0  0  0  0  0  0  0  0
   -1.7517   -0.8483    0.3266 N   0  0  0  0  0  0  0  0  0  0  0  0
   -2.4847   -0.5123   -0.2804 H   0  0  0  0  0  0  0  0  0  0  0  0
   -0.4117   -0.2463    0.2186 C   0  0  1  0  0  0  0  0  0  0  0  0
    0.1554   -0.5152    1.1133 H   0  0  0  0  0  0  0  0  0  0  0  0
    0.3164   -0.8780   -0.9905 C   0  0  0  0  0  0  0  0  0  0  0  0
    0.3629   -1.9599   -0.8426 H   0  0  0  0  0  0  0  0  0  0  0  0
   -0.2749   -0.7028   -1.8919 H   0  0  0  0  0  0  0  0  0  0  0  0
    1.7177   -0.3618   -1.2395 C   0  0  0  0  0  0  0  0  0  0  0  0
    2.2309   -0.0077   -2.4723 N   0  3  0  0  0  0  0  0  0  0  0  0
    1.6780   -0.0029   -3.3342 H   0  0  0  0  0  0  0  0  0  0  0  0
    3.5035    0.4023   -2.3017 C   0  0  0  0  0  0  0  0  0  0  0  0
    4.1622    0.7556   -3.0925 H   0  0  0  0  0  0  0  0  0  0  0  0
    3.8094    0.3151   -0.9875 N   0  0  0  0  0  0  0  0  0  0  0  0
    4.7005    0.5610   -0.5644 H   0  0  0  0  0  0  0  0  0  0  0  0
    2.6989   -0.1633   -0.3060 C   0  0  0  0  0  0  0  0  0  0  0  0
    2.6142   -0.3473    0.7615 H   0  0  0  0  0  0  0  0  0  0  0  0
   -0.4874    1.2908    0.1962 C   0  0  0  0  0  0  0  0  0  0  0  0
   -1.3116    1.8673   -0.5151 O   0  0  0  0  0  0  0  0  0  0  0  0
    0.3889    1.9422    0.9708 N   0  0  0  0  0  0  0  0  0  0  0  0
    1.0197    1.3866    1.5283 H   0  0  0  0  0  0  0  0  0  0  0  0
    0.5081    3.3999    1.0720 C   0  0  0  0  0  0  0  0  0  0  0  0
    0.0188    3.7538    1.9817 H   0  0  0  0  0  0  0  0  0  0  0  0
    1.5607    3.6858    1.1098 H   0  0  0  0  0  0  0  0  0  0  0  0
    0.0459    3.8890    0.2119 H   0  0  0  0  0  0  0  0  0  0  0  0
  5  6  2  0  0  0  0
  5  7  1  0  0  0  0
  2  3  1  0  0  0  0
  2  4  1  0  0  0  0
  2  5  1  0  0  0  0
  1  2  1  0  0  0  0
 23 24  2  0  0  0  0
 23 25  1  0  0  0  0
 21 22  1  0  0  0  0
 19 20  1  0  0  0  0
 19 21  1  0  0  0  0
 17 18  1  0  0  0  0
 17 19  1  0  0  0  0
 15 16  1  0  0  0  0
 15 17  2  0  0  0  0
 14 15  1  0  0  0  0
 14 21  2  0  0  0  0
 11 12  1  0  0  0  0
 11 13  1  0  0  0  0
 11 14  1  0  0  0  0
  9 10  1  0  0  0  0
  9 11  1  0  0  0  0
  9 23  1  0  0  0  0
  7  8  1  0  0  0  0
  7  9  1  0  0  0  0
 27 28  1  0  0  0  0
 27 29  1  0  0  0  0
 27 30  1  0  0  0  0
 25 26  1  0  0  0  0
 25 27  1  0  0  0  0
M  CHG  1  15   1
M  END
$$$$
default_name
  -OEChem-02102213163D

 30 30  0     1  0  0  0  0  0999 V2000
   -3.5507   -3.2183    1.8116 H   0  0  0  0  0  0  0  0  0  0  0  0
   -3.4597   -2.3913    1.1076 C   0  0  0  0  0  0  0  0  0  0  0  0
   -4.1577   -1.6043    1.3866 H   0  0  0  0  0  0  0  0  0  0  0  0
   -3.6807   -2.7523    0.1036 H   0  0  0  0  0  0  0  0  0  0  0  0
   -2.0477   -1.8543    1.1546 C   0  0  0  0  0  0  0  0  0  0  0  0
   -1.2227   -2.3443    1.9146 O   0  0  0  0  0  0  0  0  0  0  0  0
   -1.7517   -0.8483    0.3266 N   0  0  0  0  0  0  0  0  0  0  0  0
   -2.4847   -0.5123   -0.2804 H   0  0  0  0  0  0  0  0  0  0  0  0
   -0.4117   -0.2463    0.2186 C   0  0  1  0  0  0  0  0  0  0  0  0
    0.1554   -0.5152    1.1133 H   0  0  0  0  0  0  0  0  0  0  0  0
    0.3164   -0.8780   -0.9905 C   0  0  0  0  0  0  0  0  0  0  0  0
    0.3629   -1.9599   -0.8426 H   0  0  0  0  0  0  0  0  0  0  0  0
   -0.2749   -0.7028   -1.8919 H   0  0  0  0  0  0  0  0  0  0  0  0
    1.7177   -0.3618   -1.2395 C   0  0  0  0  0  0  0  0  0  0  0  0
    2.1449    0.2630   -2.3952 N   0  3  0  0  0  0  0  0  0  0  0  0
    1.5234    0.4933   -3.1758 H   0  0  0  0  0  0  0  0  0  0  0  0
    3.4473    0.5790   -2.2518 C   0  0  0  0  0  0  0  0  0  0  0  0
    4.0560    1.0916   -2.9939 H   0  0  0  0  0  0  0  0  0  0  0  0
    3.8562    0.1674   -1.0304 N   0  0  0  0  0  0  0  0  0  0  0  0
    4.7912    0.2754   -0.6462 H   0  0  0  0  0  0  0  0  0  0  0  0
    2.7822   -0.4259   -0.3814 C   0  0  0  0  0  0  0  0  0  0  0  0
    2.7768   -0.8594    0.6148 H   0  0  0  0  0  0  0  0  0  0  0  0
   -0.4874    1.2908    0.1962 C   0  0  0  0  0  0  0  0  0  0  0  0
   -1.3116    1.8673   -0.5151 O   0  0  0  0  0  0  0  0  0  0  0  0
    0.3889    1.9422    0.9708 N   0  0  0  0  0  0  0  0  0  0  0  0
    1.0197    1.3866    1.5283 H   0  0  0  0  0  0  0  0  0  0  0  0
    0.5081    3.3999    1.0720 C   0  0  0  0  0  0  0  0  0  0  0  0
    0.0188    3.7538    1.9817 H   0  0  0  0  0  0  0  0  0  0  0  0
    1.5607    3.6858    1.1098 H   0  0  0  0  0  0  0  0  0  0  0  0
    0.0459    3.8890    0.2119 H   0  0  0  0  0  0  0  0  0  0  0  0
  5  6  2  0  0  0  0
  5  7  1  0  0  0  0
  2  3  1  0  0  0  0
  2  4  1  0  0  0  0
  2  5  1  0  0  0  0
  1  2  1  0  0  0  0
 23 24  2  0  0  0  0
 23 25  1  0  0  0  0
 21 22  1  0  0  0  0
 19 20  1  0  0  0  0
 19 21  1  0  0  0  0
 17 18  1  0  0  0  0
 17 19  1  0  0  0  0
 15 16  1  0  0  0  0
 15 17  2  0  0  0  0
 14 15  1  0  0  0  0
 14 21  2  0  0  0  0
 11 12  1  0  0  0  0
 11 13  1  0  0  0  0
 11 14  1  0  0  0  0
  9 10  1  0  0  0  0
  9 11  1  0  0  0  0
  9 23  1  0  0  0  0
  7  8  1  0  0  0  0
  7  9  1  0  0  0  0
 27 28  1  0  0  0  0
 27 29  1  0  0  0  0
 27 30  1  0  0  0  0
 25 26  1  0  0  0  0
 25 27  1  0  0  0  0
M  CHG  1  15   1
M  END
$$$$
default_name
  -OEChem-02102213163D

 30 30  0     1  0  0  0  0  0999 V2000
   -3.5507   -3.2183    1.8116 H   0  0  0  0  0  0  0  0  0  0  0  0
   -3.4597   -2.3913    1.1076 C   0  0  0  0  0  0  0  0  0  0  0  0
   -4.1577   -1.6043    1.3866 H   0  0  0  0  0  0  0  0  0  0  0  0
   -3.6807   -2.7523    0.1036 H   0  0  0  0  0  0  0  0  0  0  0  0
   -2.0477   -1.8543    1.1546 C   0  0  0  0  0  0  0  0  0  0  0  0
   -1.2227   -2.3443    1.9146 O   0  0  0  0  0  0  0  0  0  0  0  0
   -1.7517   -0.8483    0.3266 N   0  0  0  0  0  0  0  0  0  0  0  0
   -2.4847   -0.5123   -0.2804 H   0  0  0  0  0  0  0  0  0  0  0  0
   -0.4117   -0.2463    0.2186 C   0  0  1  0  0  0  0  0  0  0  0  0
    0.1554   -0.5152    1.1133 H   0  0  0  0  0  0  0  0  0  0  0  0
    0.3164   -0.8780   -0.9905 C   0  0  0  0  0  0  0  0  0  0  0  0
    0.3629   -1.9599   -0.8426 H   0  0  0  0  0  0  0  0  0  0  0  0
   -0.2749   -0.7028   -1.8919 H   0  0  0  0  0  0  0  0  0  0  0  0
    1.7177   -0.3618   -1.2395 C   0  0  0  0  0  0  0  0  0  0  0  0
    2.0801    0.5096   -2.2483 N   0  3  0  0  0  0  0  0  0  0  0  0
    1.4091    0.9413   -2.8902 H   0  0  0  0  0  0  0  0  0  0  0  0
    3.4049    0.7402   -2.1562 C   0  0  0  0  0  0  0  0  0  0  0  0
    3.9763    1.3972   -2.8088 H   0  0  0  0  0  0  0  0  0  0  0  0
    3.8913    0.0330   -1.1114 N   0  0  0  0  0  0  0  0  0  0  0  0
    4.8594    0.0152   -0.8016 H   0  0  0  0  0  0  0  0  0  0  0  0
    2.8449   -0.6650   -0.5246 C   0  0  0  0  0  0  0  0  0  0  0  0
    2.8991   -1.3258    0.3361 H   0  0  0  0  0  0  0  0  0  0  0  0
   -0.4874    1.2908    0.1962 C   0  0  0  0  0  0  0  0  0  0  0  0
   -1.3116    1.8673   -0.5151 O   0  0  0  0  0  0  0  0  0  0  0  0
    0.3889    1.9422    0.9708 N   0  0  0  0  0  0  0  0  0  0  0  0
    1.0197    1.3866    1.5283 H   0  0  0  0  0  0  0  0  0  0  0  0
    0.5081    3.3999    1.0720 C   0  0  0  0  0  0  0  0  0  0  0  0
    0.0188    3.7538    1.9817 H   0  0  0  0  0  0  0  0  0  0  0  0
    1.5607    3.6858    1.1098 H   0  0  0  0  0  0  0  0  0  0  0  0
    0.0459    3.8890    0.2119 H   0  0  0  0  0  0  0  0  0  0  0  0
  5  6  2  0  0  0  0
  5  7  1  0  0  0  0
  2  3  1  0  0  0  0
  2  4  1  0  0  0  0
  2  5  1  0  0  0  0
  1  2  1  0  0  0  0
 23 24  2  0  0  0  0
 23 25  1  0  0  0  0
 21 22  1  0  0  0  0
 19 20  1  0  0  0  0
 19 21  1  0  0  0  0
 17 18  1  0  0  0  0
 17 19  1  0  0  0  0
 15 16  1  0  0  0  0
 15 17  2  0  0  0  0
 14 15  1  0  0  0  0
 14 21  2  0  0  0  0
 11 12  1  0  0  0  0
 11 13  1  0  0  0  0
 11 14  1  0  0  0  0
  9 10  1  0  0  0  0
  9 11  1  0  0  0  0
  9 23  1  0  0  0  0
  7  8  1  0  0  0  0
  7  9  1  0  0  0  0
 27 28  1  0  0  0  0
 27 29  1  0  0  0  0
 27 30  1  0  0  0  0
 25 26  1  0  0  0  0
 25 27  1  0  0  0  0
M  CHG  1  15   1
M  END
$$$$
default_name
  -OEChem-02102213163D

 30 30  0     1  0  0  0  0  0999 V2000
   -3.5507   -3.2183    1.8116 H   0  0  0  0  0  0  0  0  0  0  0  0
   -3.4597   -2.3913    1.1076 C   0  0  0  0  0  0  0  0  0  0  0  0
   -4.1577   -1.6043    1.3866 H   0  0  0  0  0  0  0  0  0  0  0  0
   -3.6807   -2.7523    0.1036 H   0  0  0  0  0  0  0  0  0  0  0  0
   -2.0477   -1.8543    1.1546 C   0  0  0  0  0  0  0  0  0  0  0  0
   -1.2227   -2.3443    1.9146 O   0  0  0  0  0  0  0  0  0  0  0  0
   -1.7517   -0.8483    0.3266 N   0  0  0  0  0  0  0  0  0  0  0  0
   -2.4847   -0.5123   -0.2804 H   0  0  0  0  0  0  0  0  0  0  0  0
   -0.4117   -0.2463    0.2186 C   0  0  1  0  0  0  0  0  0  0  0  0
    0.1554   -0.5152    1.1133 H   0  0  0  0  0  0  0  0  0  0  0  0
    0.3164   -0.8780   -0.9905 C   0  0  0  0  0  0  0  0  0  0  0  0
    0.3629   -1.9599   -0.8426 H   0  0  0  0  0  0  0  0  0  0  0  0
   -0.2749   -0.7028   -1.8919 H   0  0  0  0  0  0  0  0  0  0  0  0
    1.7177   -0.3618   -1.2395 C   0  0  0  0  0  0  0  0  0  0  0  0
    2.0410    0.7155   -2.0417 N   0  3  0  0  0  0  0  0  0  0  0  0
    1.3429    1.3105   -2.4970 H   0  0  0  0  0  0  0  0  0  0  0  0
    3.3792    0.8747   -2.0216 C   0  0  0  0  0  0  0  0  0  0  0  0
    3.9287    1.6513   -2.5498 H   0  0  0  0  0  0  0  0  0  0  0  0
    3.9124   -0.0790   -1.2249 N   0  0  0  0  0  0  0  0  0  0  0  0
    4.9005   -0.2018   -1.0201 H   0  0  0  0  0  0  0  0  0  0  0  0
    2.8826   -0.8643   -0.7256 C   0  0  0  0  0  0  0  0  0  0  0  0
    2.9728   -1.7148   -0.0556 H   0  0  0  0  0  0  0  0  0  0  0  0
   -0.4874    1.2908    0.1962 C   0  0  0  0  0  0  0  0  0  0  0  0
   -1.3116    1.8673   -0.5151 O   0  0  0  0  0  0  0  0  0  0  0  0
    0.3889    1.9422    0.9708 N   0  0  0  0  0  0  0  0  0  0  0  0
    1.0197    1.3866    1.5283 H   0  0  0  0  0  0  0  0  0  0  0  0
    0.5081    3.3999    1.0720 C   0  0  0  0  0  0  0  0  0  0  0  0
    0.0188    3.7538    1.9817 H   0  0  0  0  0  0  0  0  0  0  0  0
    1.5607    3.6858    1.1098 H   0  0  0  0  0  0  0  0  0  0  0  0
    0.0459    3.8890    0.2119 H   0  0  0  0  0  0  0  0  0  0  0  0
  5  6  2  0  0  0  0
  5  7  1  0  0  0  0
  2  3  1  0  0  0  0
  2  4  1  0  0  0  0
  2  5  1  0  0  0  0
  1  2  1  0  0  0  0
 23 24  2  0  0  0  0
 23 25  1  0  0  0  0
 21 22  1  0  0  0  0
 19 20  1  0  0  0  0
 19 21  1  0  0  0  0
 17 18  1  0  0  0  0
 17 19  1  0  0  0  0
 15 16  1  0  0  0  0
 15 17  2  0  0  0  0
 14 15  1  0  0  0  0
 14 21  2  0  0  0  0
 11 12  1  0  0  0  0
 11 13  1  0  0  0  0
 11 14  1  0  0  0  0
  9 10  1  0  0  0  0
  9 11  1  0  0  0  0
  9 23  1  0  0  0  0
  7  8  1  0  0  0  0
  7  9  1  0  0  0  0
 27 28  1  0  0  0  0
 27 29  1  0  0  0  0
 27 30  1  0  0  0  0
 25 26  1  0  0  0  0
 25 27  1  0  0  0  0
M  CHG  1  15   1
M  END
$$$$
default_name
  -OEChem-02102213163D

 30 30  0     1  0  0  0  0  0999 V2000
   -3.5507   -3.2183    1.8116 H   0  0  0  0  0  0  0  0  0  0  0  0
   -3.4597   -2.3913    1.1076 C   0  0  0  0  0  0  0  0  0  0  0  0
   -4.1577   -1.6043    1.3866 H   0  0  0  0  0  0  0  0  0  0  0  0
   -3.6807   -2.7523    0.1036 H   0  0  0  0  0  0  0  0  0  0  0  0
   -2.0477   -1.8543    1.1546 C   0  0  0  0  0  0  0  0  0  0  0  0
   -1.2227   -2.3443    1.9146 O   0  0  0  0  0  0  0  0  0  0  0  0
   -1.7517   -0.8483    0.3266 N   0  0  0  0  0  0  0  0  0  0  0  0
   -2.4847   -0.5123   -0.2804 H   0  0  0  0  0  0  0  0  0  0  0  0
   -0.4117   -0.2463    0.2186 C   0  0  1  0  0  0  0  0  0  0  0  0
    0.1554   -0.5152    1.1133 H   0  0  0  0  0  0  0  0  0  0  0  0
    0.3164   -0.8780   -0.9905 C   0  0  0  0  0  0  0  0  0  0  0  0
    0.3629   -1.9599   -0.8426 H   0  0  0  0  0  0  0  0  0  0  0  0
   -0.2749   -0.7028   -1.8919 H   0  0  0  0  0  0  0  0  0  0  0  0
    1.7177   -0.3618   -1.2395 C   0  0  0  0  0  0  0  0  0  0  0  0
    2.0302    0.8665   -1.7893 N   0  3  0  0  0  0  0  0  0  0  0  0
    1.3294    1.5757   -2.0229 H   0  0  0  0  0  0  0  0  0  0  0  0
    3.3721    0.9735   -1.8571 C   0  0  0  0  0  0  0  0  0  0  0  0
    3.9164    1.8368   -2.2345 H   0  0  0  0  0  0  0  0  0  0  0  0
    3.9180   -0.1608   -1.3632 N   0  0  0  0  0  0  0  0  0  0  0  0
    4.9118   -0.3608   -1.2867 H   0  0  0  0  0  0  0  0  0  0  0  0
    2.8928   -1.0103   -0.9709 C   0  0  0  0  0  0  0  0  0  0  0  0
    2.9929   -1.9999   -0.5337 H   0  0  0  0  0  0  0  0  0  0  0  0
   -0.4874    1.2908    0.1962 C   0  0  0  0  0  0  0  0  0  0  0  0
   -1.3116    1.8673   -0.5151 O   0  0  0  0  0  0  0  0  0  0  0  0
    0.3889    1.9422    0.9708 N   0  0  0  0  0  0  0  0  0  0  0  0
    1.0197    1.3866    1.5283 H   0  0  0  0  0  0  0  0  0  0  0  0
    0.5081    3.3999    1.0720 C   0  0  0  0  0  0  0  0  0  0  0  0
    0.0188    3.7538    1.9817 H   0  0  0  0  0  0  0  0  0  0  0  0
    1.5607    3.6858    1.1098 H   0  0  0  0  0  0  0  0  0  0  0  0
    0.0459    3.8890    0.2119 H   0  0  0  0  0  0  0  0  0  0  0  0
  5  6  2  0  0  0  0
  5  7  1  0  0  0  0
  2  3  1  0  0  0  0
  2  4  1  0  0  0  0
  2  5  1  0  0  0  0
  1  2  1  0  0  0  0
 23 24  2  0  0  0  0
 23 25  1  0  0  0  0
 21 22  1  0  0  0  0
 19 20  1  0  0  0  0
 19 21  1  0  0  0  0
 17 18  1  0  0  0  0
 17 19  1  0  0  0  0
 15 16  1  0  0  0  0
 15 17  2  0  0  0  0
 14 15  1  0  0  0  0
 14 21  2  0  0  0  0
 11 12  1  0  0  0  0
 11 13  1  0  0  0  0
 11 14  1  0  0  0  0
  9 10  1  0  0  0  0
  9 11  1  0  0  0  0
  9 23  1  0  0  0  0
  7  8  1  0  0  0  0
  7  9  1  0  0  0  0
 27 28  1  0  0  0  0
 27 29  1  0  0  0  0
 27 30  1  0  0  0  0
 25 26  1  0  0  0  0
 25 27  1  0  0  0  0
M  CHG  1  15   1
M  END
$$$$
default_name
  -OEChem-02102213163D

 30 30  0     1  0  0  0  0  0999 V2000
   -3.5507   -3.2183    1.8116 H   0  0  0  0  0  0  0  0  0  0  0  0
   -3.4597   -2.3913    1.1076 C   0  0  0  0  0  0  0  0  0  0  0  0
   -4.1577   -1.6043    1.3866 H   0  0  0  0  0  0  0  0  0  0  0  0
   -3.6807   -2.7523    0.1036 H   0  0  0  0  0  0  0  0  0  0  0  0
   -2.0477   -1.8543    1.1546 C   0  0  0  0  0  0  0  0  0  0  0  0
   -1.2227   -2.3443    1.9146 O   0  0  0  0  0  0  0  0  0  0  0  0
   -1.7517   -0.8483    0.3266 N   0  0  0  0  0  0  0  0  0  0  0  0
   -2.4847   -0.5123   -0.2804 H   0  0  0  0  0  0  0  0  0  0  0  0
   -0.4117   -0.2463    0.2186 C   0  0  1  0  0  0  0  0  0  0  0  0
    0.1554   -0.5152    1.1133 H   0  0  0  0  0  0  0  0  0  0  0  0
    0.3164   -0.8780   -0.9905 C   0  0  0  0  0  0  0  0  0  0  0  0
    0.3629   -1.9599   -0.8426 H   0  0  0  0  0  0  0  0  0  0  0  0
   -0.2749   -0.7028   -1.8919 H   0  0  0  0  0  0  0  0  0  0  0  0
    1.7177   -0.3618   -1.2395 C   0  0  0  0  0  0  0  0  0  0  0  0
    2.0485    0.9523   -1.5083 N   0  3  0  0  0  0  0  0  0  0  0  0
    1.3696    1.7189   -1.5002 H   0  0  0  0  0  0  0  0  0  0  0  0
    3.3839    1.0298   -1.6739 C   0  0  0  0  0  0  0  0  0  0  0  0
    3.9402    1.9409   -1.8845 H   0  0  0  0  0  0  0  0  0  0  0  0
    3.9076   -0.2069   -1.5170 N   0  0  0  0  0  0  0  0  0  0  0  0
    4.8923   -0.4510   -1.5834 H   0  0  0  0  0  0  0  0  0  0  0  0
    2.8748   -1.0930   -1.2437 C   0  0  0  0  0  0  0  0  0  0  0  0
    2.9579   -2.1615   -1.0655 H   0  0  0  0  0  0  0  0  0  0  0  0
   -0.4874    1.2908    0.1962 C   0  0  0  0  0  0  0  0  0  0  0  0
   -1.3116    1.8673   -0.5151 O   0  0  0  0  0  0  0  0  0  0  0  0
    0.3889    1.9422    0.9708 N   0  0  0  0  0  0  0  0  0  0  0  0
    1.0197    1.3866    1.5283 H   0  0  0  0  0  0  0  0  0  0  0  0
    0.5081    3.3999    1.0720 C   0  0  0  0  0  0  0  0  0  0  0  0
    0.0188    3.7538    1.9817 H   0  0  0  0  0  0  0  0  0  0  0  0
    1.5607    3.6858    1.1098 H   0  0  0  0  0  0  0  0  0  0  0  0
    0.0459    3.8890    0.2119 H   0  0  0  0  0  0  0  0  0  0  0  0
  5  6  2  0  0  0  0
  5  7  1  0  0  0  0
  2  3  1  0  0  0  0
  2  4  1  0  0  0  0
  2  5  1  0  0  0  0
  1  2  1  0  0  0  0
 23 24  2  0  0  0  0
 23 25  1  0  0  0  0
 21 22  1  0  0  0  0
 19 20  1  0  0  0  0
 19 21  1  0  0  0  0
 17 18  1  0  0  0  0
 17 19  1  0  0  0  0
 15 16  1  0  0  0  0
 15 17  2  0  0  0  0
 14 15  1  0  0  0  0
 14 21  2  0  0  0  0
 11 12  1  0  0  0  0
 11 13  1  0  0  0  0
 11 14  1  0  0  0  0
  9 10  1  0  0  0  0
  9 11  1  0  0  0  0
  9 23  1  0  0  0  0
  7  8  1  0  0  0  0
  7  9  1  0  0  0  0
 27 28  1  0  0  0  0
 27 29  1  0  0  0  0
 27 30  1  0  0  0  0
 25 26  1  0  0  0  0
 25 27  1  0  0  0  0
M  CHG  1  15   1
M  END
$$$$
default_name
  -OEChem-02102213163D

 30 30  0     1  0  0  0  0  0999 V2000
   -3.5507   -3.2183    1.8116 H   0  0  0  0  0  0  0  0  0  0  0  0
   -3.4597   -2.3913    1.1076 C   0  0  0  0  0  0  0  0  0  0  0  0
   -4.1577   -1.6043    1.3866 H   0  0  0  0  0  0  0  0  0  0  0  0
   -3.6807   -2.7523    0.1036 H   0  0  0  0  0  0  0  0  0  0  0  0
   -2.0477   -1.8543    1.1546 C   0  0  0  0  0  0  0  0  0  0  0  0
   -1.2227   -2.3443    1.9146 O   0  0  0  0  0  0  0  0  0  0  0  0
   -1.7517   -0.8483    0.3266 N   0  0  0  0  0  0  0  0  0  0  0  0
   -2.4847   -0.5123   -0.2804 H   0  0  0  0  0  0  0  0  0  0  0  0
   -0.4117   -0.2463    0.2186 C   0  0  1  0  0  0  0  0  0  0  0  0
    0.1554   -0.5152    1.1133 H   0  0  0  0  0  0  0  0  0  0  0  0
    0.3164   -0.8780   -0.9905 C   0  0  0  0  0  0  0  0  0  0  0  0
    0.3629   -1.9599   -0.8426 H   0  0  0  0  0  0  0  0  0  0  0  0
   -0.2749   -0.7028   -1.8919 H   0  0  0  0  0  0  0  0  0  0  0  0
    1.7177   -0.3618   -1.2395 C   0  0  0  0  0  0  0  0  0  0  0  0
    2.0946    0.9671   -1.2180 N   0  3  0  0  0  0  0  0  0  0  0  0
    1.4605    1.7302   -0.9645 H   0  0  0  0  0  0  0  0  0  0  0  0
    3.4139    1.0398   -1.4844 C   0  0  0  0  0  0  0  0  0  0  0  0
    3.9985    1.9567   -1.5235 H   0  0  0  0  0  0  0  0  0  0  0  0
    3.8822   -0.2142   -1.6756 N   0  0  0  0  0  0  0  0  0  0  0  0
    4.8435   -0.4662   -1.8898 H   0  0  0  0  0  0  0  0  0  0  0  0
    2.8298   -1.1067   -1.5255 C   0  0  0  0  0  0  0  0  0  0  0  0
    2.8704   -2.1888   -1.6149 H   0  0  0  0  0  0  0  0  0  0  0  0
   -0.4874    1.2908    0.1962 C   0  0  0  0  0  0  0  0  0  0  0  0
   -1.3116    1.8673   -0.5151 O   0  0  0  0  0  0  0  0  0  0  0  0
    0.3889    1.9422    0.9708 N   0  0  0  0  0  0  0  0  0  0  0  0
    1.0197    1.3866    1.5283 H   0  0  0  0  0  0  0  0  0  0  0  0
    0.5081    3.3999    1.0720 C   0  0  0  0  0  0  0  0  0  0  0  0
    0.0188    3.7538    1.9817 H   0  0  0  0  0  0  0  0  0  0  0  0
    1.5607    3.6858    1.1098 H   0  0  0  0  0  0  0  0  0  0  0  0
    0.0459    3.8890    0.2119 H   0  0  0  0  0  0  0  0  0  0  0  0
  5  6  2  0  0  0  0
  5  7  1  0  0  0  0
  2  3  1  0  0  0  0
  2  4  1  0  0  0  0
  2  5  1  0  0  0  0
  1  2  1  0  0  0  0
 23 24  2  0  0  0  0
 23 25  1  0  0  0  0
 21 22  1  0  0  0  0
 19 20  1  0  0  0  0
 19 21  1  0  0  0  0
 17 18  1  0  0  0  0
 17 19  1  0  0  0  0
 15 16  1  0  0  0  0
 15 17  2  0  0  0  0
 14 15  1  0  0  0  0
 14 21  2  0  0  0  0
 11 12  1  0  0  0  0
 11 13  1  0  0  0  0
 11 14  1  0  0  0  0
  9 10  1  0  0  0  0
  9 11  1  0  0  0  0
  9 23  1  0  0  0  0
  7  8  1  0  0  0  0
  7  9  1  0  0  0  0
 27 28  1  0  0  0  0
 27 29  1  0  0  0  0
 27 30  1  0  0  0  0
 25 26  1  0  0  0  0
 25 27  1  0  0  0  0
M  CHG  1  15   1
M  END
$$$$
default_name
  -OEChem-02102213163D

 30 30  0     1  0  0  0  0  0999 V2000
   -3.5507   -3.2183    1.8116 H   0  0  0  0  0  0  0  0  0  0  0  0
   -3.4597   -2.3913    1.1076 C   0  0  0  0  0  0  0  0  0  0  0  0
   -4.1577   -1.6043    1.3866 H   0  0  0  0  0  0  0  0  0  0  0  0
   -3.6807   -2.7523    0.1036 H   0  0  0  0  0  0  0  0  0  0  0  0
   -2.0477   -1.8543    1.1546 C   0  0  0  0  0  0  0  0  0  0  0  0
   -1.2227   -2.3443    1.9146 O   0  0  0  0  0  0  0  0  0  0  0  0
   -1.7517   -0.8483    0.3266 N   0  0  0  0  0  0  0  0  0  0  0  0
   -2.4847   -0.5123   -0.2804 H   0  0  0  0  0  0  0  0  0  0  0  0
   -0.4117   -0.2463    0.2186 C   0  0  1  0  0  0  0  0  0  0  0  0
    0.1554   -0.5152    1.1133 H   0  0  0  0  0  0  0  0  0  0  0  0
    0.3164   -0.8780   -0.9905 C   0  0  0  0  0  0  0  0  0  0  0  0
    0.3629   -1.9599   -0.8426 H   0  0  0  0  0  0  0  0  0  0  0  0
   -0.2749   -0.7028   -1.8919 H   0  0  0  0  0  0  0  0  0  0  0  0
    1.7177   -0.3618   -1.2395 C   0  0  0  0  0  0  0  0  0  0  0  0
    2.1654    0.9099   -0.9382 N   0  3  0  0  0  0  0  0  0  0  0  0
    1.5961    1.6090   -0.4524 H   0  0  0  0  0  0  0  0  0  0  0  0
    3.4599    1.0028   -1.3017 C   0  0  0  0  0  0  0  0  0  0  0  0
    4.0874    1.8829   -1.1762 H   0  0  0  0  0  0  0  0  0  0  0  0
    3.8432   -0.1822   -1.8283 N   0  0  0  0  0  0  0  0  0  0  0  0
    4.7686   -0.4055   -2.1851 H   0  0  0  0  0  0  0  0  0  0  0  0
    2.7609   -1.0506   -1.7970 C   0  0  0  0  0  0  0  0  0  0  0  0
    2.7362   -2.0798   -2.1443 H   0  0  0  0  0  0  0  0  0  0  0  0
   -0.4874    1.2908    0.1962 C   0  0  0  0  0  0  0  0  0  0  0  0
   -1.3116    1.8673   -0.5151 O   0  0  0  0  0  0  0  0  0  0  0  0
    0.3889    1.9422    0.9708 N   0  0  0  0  0  0  0  0  0  0  0  0
    1.0197    1.3866    1.5283 H   0  0  0  0  0  0  0  0  0  0  0  0
    0.5081    3.3999    1.0720 C   0  0  0  0  0  0  0  0  0  0  0  0
    0.0188    3.7538    1.9817 H   0  0  0  0  0  0  0  0  0  0  0  0
    1.5607    3.6858    1.1098 H   0  0  0  0  0  0  0  0  0  0  0  0
    0.0459    3.8890    0.2119 H   0  0  0  0  0  0  0  0  0  0  0  0
  5  6  2  0  0  0  0
  5  7  1  0  0  0  0
  2  3  1  0  0  0  0
  2  4  1  0  0  0  0
  2  5  1  0  0  0  0
  1  2  1  0  0  0  0
 23 24  2  0  0  0  0
 23 25  1  0  0  0  0
 21 22  1  0  0  0  0
 19 20  1  0  0  0  0
 19 21  1  0  0  0  0
 17 18  1  0  0  0  0
 17 19  1  0  0  0  0
 15 16  1  0  0  0  0
 15 17  2  0  0  0  0
 14 15  1  0  0  0  0
 14 21  2  0  0  0  0
 11 12  1  0  0  0  0
 11 13  1  0  0  0  0
 11 14  1  0  0  0  0
  9 10  1  0  0  0  0
  9 11  1  0  0  0  0
  9 23  1  0  0  0  0
  7  8  1  0  0  0  0
  7  9  1  0  0  0  0
 27 28  1  0  0  0  0
 27 29  1  0  0  0  0
 27 30  1  0  0  0  0
 25 26  1  0  0  0  0
 25 27  1  0  0  0  0
M  CHG  1  15   1
M  END
$$$$
default_name
  -OEChem-02102213163D

 30 30  0     1  0  0  0  0  0999 V2000
   -3.5507   -3.2183    1.8116 H   0  0  0  0  0  0  0  0  0  0  0  0
   -3.4597   -2.3913    1.1076 C   0  0  0  0  0  0  0  0  0  0  0  0
   -4.1577   -1.6043    1.3866 H   0  0  0  0  0  0  0  0  0  0  0  0
   -3.6807   -2.7523    0.1036 H   0  0  0  0  0  0  0  0  0  0  0  0
   -2.0477   -1.8543    1.1546 C   0  0  0  0  0  0  0  0  0  0  0  0
   -1.2227   -2.3443    1.9146 O   0  0  0  0  0  0  0  0  0  0  0  0
   -1.7517   -0.8483    0.3266 N   0  0  0  0  0  0  0  0  0  0  0  0
   -2.4847   -0.5123   -0.2804 H   0  0  0  0  0  0  0  0  0  0  0  0
   -0.4117   -0.2463    0.2186 C   0  0  1  0  0  0  0  0  0  0  0  0
    0.1554   -0.5152    1.1133 H   0  0  0  0  0  0  0  0  0  0  0  0
    0.3164   -0.8780   -0.9905 C   0  0  0  0  0  0  0  0  0  0  0  0
    0.3629   -1.9599   -0.8426 H   0  0  0  0  0  0  0  0  0  0  0  0
   -0.2749   -0.7028   -1.8919 H   0  0  0  0  0  0  0  0  0  0  0  0
    1.7177   -0.3618   -1.2395 C   0  0  0  0  0  0  0  0  0  0  0  0
    2.2560    0.7846   -0.6878 N   0  3  0  0  0  0  0  0  0  0  0  0
    1.7672    1.3635    0.0012 H   0  0  0  0  0  0  0  0  0  0  0  0
    3.5190    0.9213   -1.1381 C   0  0  0  0  0  0  0  0  0  0  0  0
    4.2007    1.7247   -0.8663 H   0  0  0  0  0  0  0  0  0  0  0  0
    3.7935   -0.1130   -1.9647 N   0  0  0  0  0  0  0  0  0  0  0  0
    4.6728   -0.2728   -2.4492 H   0  0  0  0  0  0  0  0  0  0  0  0
    2.6728   -0.9284   -2.0396 C   0  0  0  0  0  0  0  0  0  0  0  0
    2.5645   -1.8420   -2.6178 H   0  0  0  0  0  0  0  0  0  0  0  0
   -0.4874    1.2908    0.1962 C   0  0  0  0  0  0  0  0  0  0  0  0
   -1.3116    1.8673   -0.5151 O   0  0  0  0  0  0  0  0  0  0  0  0
    0.3889    1.9422    0.9708 N   0  0  0  0  0  0  0  0  0  0  0  0
    1.0197    1.3866    1.5283 H   0  0  0  0  0  0  0  0  0  0  0  0
    0.5081    3.3999    1.0720 C   0  0  0  0  0  0  0  0  0  0  0  0
    0.0188    3.7538    1.9817 H   0  0  0  0  0  0  0  0  0  0  0  0
    1.5607    3.6858    1.1098 H   0  0  0  0  0  0  0  0  0  0  0  0
    0.0459    3.8890    0.2119 H   0  0  0  0  0  0  0  0  0  0  0  0
  5  6  2  0  0  0  0
  5  7  1  0  0  0  0
  2  3  1  0  0  0  0
  2  4  1  0  0  0  0
  2  5  1  0  0  0  0
  1  2  1  0  0  0  0
 23 24  2  0  0  0  0
 23 25  1  0  0  0  0
 21 22  1  0  0  0  0
 19 20  1  0  0  0  0
 19 21  1  0  0  0  0
 17 18  1  0  0  0  0
 17 19  1  0  0  0  0
 15 16  1  0  0  0  0
 15 17  2  0  0  0  0
 14 15  1  0  0  0  0
 14 21  2  0  0  0  0
 11 12  1  0  0  0  0
 11 13  1  0  0  0  0
 11 14  1  0  0  0  0
  9 10  1  0  0  0  0
  9 11  1  0  0  0  0
  9 23  1  0  0  0  0
  7  8  1  0  0  0  0
  7  9  1  0  0  0  0
 27 28  1  0  0  0  0
 27 29  1  0  0  0  0
 27 30  1  0  0  0  0
 25 26  1  0  0  0  0
 25 27  1  0  0  0  0
M  CHG  1  15   1
M  END
$$$$
default_name
  -OEChem-02102213163D

 30 30  0     1  0  0  0  0  0999 V2000
   -3.5507   -3.2183    1.8116 H   0  0  0  0  0  0  0  0  0  0  0  0
   -3.4597   -2.3913    1.1076 C   0  0  0  0  0  0  0  0  0  0  0  0
   -4.1577   -1.6043    1.3866 H   0  0  0  0  0  0  0  0  0  0  0  0
   -3.6807   -2.7523    0.1036 H   0  0  0  0  0  0  0  0  0  0  0  0
   -2.0477   -1.8543    1.1546 C   0  0  0  0  0  0  0  0  0  0  0  0
   -1.2227   -2.3443    1.9146 O   0  0  0  0  0  0  0  0  0  0  0  0
   -1.7517   -0.8483    0.3266 N   0  0  0  0  0  0  0  0  0  0  0  0
   -2.4847   -0.5123   -0.2804 H   0  0  0  0  0  0  0  0  0  0  0  0
   -0.4117   -0.2463    0.2186 C   0  0  1  0  0  0  0  0  0  0  0  0
    0.1554   -0.5152    1.1133 H   0  0  0  0  0  0  0  0  0  0  0  0
    0.3164   -0.8780   -0.9905 C   0  0  0  0  0  0  0  0  0  0  0  0
    0.3629   -1.9599   -0.8426 H   0  0  0  0  0  0  0  0  0  0  0  0
   -0.2749   -0.7028   -1.8919 H   0  0  0  0  0  0  0  0  0  0  0  0
    1.7177   -0.3618   -1.2395 C   0  0  0  0  0  0  0  0  0  0  0  0
    2.3603    0.5998   -0.4839 N   0  3  0  0  0  0  0  0  0  0  0  0
    1.9620    1.0104    0.3655 H   0  0  0  0  0  0  0  0  0  0  0  0
    3.5870    0.8009   -1.0049 C   0  0  0  0  0  0  0  0  0  0  0  0
    4.3308    1.4928   -0.6148 H   0  0  0  0  0  0  0  0  0  0  0  0
    3.7364   -0.0114   -2.0755 N   0  0  0  0  0  0  0  0  0  0  0  0
    4.5627   -0.0774   -2.6641 H   0  0  0  0  0  0  0  0  0  0  0  0
    2.5714   -0.7485   -2.2370 C   0  0  0  0  0  0  0  0  0  0  0  0
    2.3670   -1.4915   -3.0029 H   0  0  0  0  0  0  0  0  0  0  0  0
   -0.4874    1.2908    0.1962 C   0  0  0  0  0  0  0  0  0  0  0  0
   -1.3116    1.8673   -0.5151 O   0  0  0  0  0  0  0  0  0  0  0  0
    0.3889    1.9422    0.9708 N   0  0  0  0  0  0  0  0  0  0  0  0
    1.0197    1.3866    1.5283 H   0  0  0  0  0  0  0  0  0  0  0  0
    0.5081    3.3999    1.0720 C   0  0  0  0  0  0  0  0  0  0  0  0
    0.0188    3.7538    1.9817 H   0  0  0  0  0  0  0  0  0  0  0  0
    1.5607    3.6858    1.1098 H   0  0  0  0  0  0  0  0  0  0  0  0
    0.0459    3.8890    0.2119 H   0  0  0  0  0  0  0  0  0  0  0  0
  5  6  2  0  0  0  0
  5  7  1  0  0  0  0
  2  3  1  0  0  0  0
  2  4  1  0  0  0  0
  2  5  1  0  0  0  0
  1  2  1  0  0  0  0
 23 24  2  0  0  0  0
 23 25  1  0  0  0  0
 21 22  1  0  0  0  0
 19 20  1  0  0  0  0
 19 21  1  0  0  0  0
 17 18  1  0  0  0  0
 17 19  1  0  0  0  0
 15 16  1  0  0  0  0
 15 17  2  0  0  0  0
 14 15  1  0  0  0  0
 14 21  2  0  0  0  0
 11 12  1  0  0  0  0
 11 13  1  0  0  0  0
 11 14  1  0  0  0  0
  9 10  1  0  0  0  0
  9 11  1  0  0  0  0
  9 23  1  0  0  0  0
  7  8  1  0  0  0  0
  7  9  1  0  0  0  0
 27 28  1  0  0  0  0
 27 29  1  0  0  0  0
 27 30  1  0  0  0  0
 25 26  1  0  0  0  0
 25 27  1  0  0  0  0
M  CHG  1  15   1
M  END
$$$$
default_name
  -OEChem-02102213163D

 30 30  0     1  0  0  0  0  0999 V2000
   -3.5507   -3.2183    1.8116 H   0  0  0  0  0  0  0  0  0  0  0  0
   -3.4597   -2.3913    1.1076 C   0  0  0  0  0  0  0  0  0  0  0  0
   -4.1577   -1.6043    1.3866 H   0  0  0  0  0  0  0  0  0  0  0  0
   -3.6807   -2.7523    0.1036 H   0  0  0  0  0  0  0  0  0  0  0  0
   -2.0477   -1.8543    1.1546 C   0  0  0  0  0  0  0  0  0  0  0  0
   -1.2227   -2.3443    1.9146 O   0  0  0  0  0  0  0  0  0  0  0  0
   -1.7517   -0.8483    0.3266 N   0  0  0  0  0  0  0  0  0  0  0  0
   -2.4847   -0.5123   -0.2804 H   0  0  0  0  0  0  0  0  0  0  0  0
   -0.4117   -0.2463    0.2186 C   0  0  1  0  0  0  0  0  0  0  0  0
    0.1554   -0.5152    1.1133 H   0  0  0  0  0  0  0  0  0  0  0  0
    0.3164   -0.8780   -0.9905 C   0  0  0  0  0  0  0  0  0  0  0  0
    0.3629   -1.9599   -0.8426 H   0  0  0  0  0  0  0  0  0  0  0  0
   -0.2749   -0.7028   -1.8919 H   0  0  0  0  0  0  0  0  0  0  0  0
    1.7177   -0.3618   -1.2395 C   0  0  0  0  0  0  0  0  0  0  0  0
    2.4712    0.3679   -0.3405 N   0  3  0  0  0  0  0  0  0  0  0  0
    2.1672    0.5738    0.6155 H   0  0  0  0  0  0  0  0  0  0  0  0
    3.6594    0.6498   -0.9110 C   0  0  0  0  0  0  0  0  0  0  0  0
    4.4688    1.2030   -0.4389 H   0  0  0  0  0  0  0  0  0  0  0  0
    3.6758    0.1157   -2.1531 N   0  0  0  0  0  0  0  0  0  0  0  0
    4.4456    0.1676   -2.8151 H   0  0  0  0  0  0  0  0  0  0  0  0
    2.4638   -0.5232   -2.3756 C   0  0  0  0  0  0  0  0  0  0  0  0
    2.1571   -1.0523   -3.2736 H   0  0  0  0  0  0  0  0  0  0  0  0
   -0.4874    1.2908    0.1962 C   0  0  0  0  0  0  0  0  0  0  0  0
   -1.3116    1.8673   -0.5151 O   0  0  0  0  0  0  0  0  0  0  0  0
    0.3889    1.9422    0.9708 N   0  0  0  0  0  0  0  0  0  0  0  0
    1.0197    1.3866    1.5283 H   0  0  0  0  0  0  0  0  0  0  0  0
    0.5081    3.3999    1.0720 C   0  0  0  0  0  0  0  0  0  0  0  0
    0.0188    3.7538    1.9817 H   0  0  0  0  0  0  0  0  0  0  0  0
    1.5607    3.6858    1.1098 H   0  0  0  0  0  0  0  0  0  0  0  0
    0.0459    3.8890    0.2119 H   0  0  0  0  0  0  0  0  0  0  0  0
  5  6  2  0  0  0  0
  5  7  1  0  0  0  0
  2  3  1  0  0  0  0
  2  4  1  0  0  0  0
  2  5  1  0  0  0  0
  1  2  1  0  0  0  0
 23 24  2  0  0  0  0
 23 25  1  0  0  0  0
 21 22  1  0  0  0  0
 19 20  1  0  0  0  0
 19 21  1  0  0  0  0
 17 18  1  0  0  0  0
 17 19  1  0  0  0  0
 15 16  1  0  0  0  0
 15 17  2  0  0  0  0
 14 15  1  0  0  0  0
 14 21  2  0  0  0  0
 11 12  1  0  0  0  0
 11 13  1  0  0  0  0
 11 14  1  0  0  0  0
  9 10  1  0  0  0  0
  9 11  1  0  0  0  0
  9 23  1  0  0  0  0
  7  8  1  0  0  0  0
  7  9  1  0  0  0  0
 27 28  1  0  0  0  0
 27 29  1  0  0  0  0
 27 30  1  0  0  0  0
 25 26  1  0  0  0  0
 25 27  1  0  0  0  0
M  CHG  1  15   1
M  END
$$$$
default_name
  -OEChem-02102213163D

 30 30  0     1  0  0  0  0  0999 V2000
   -3.5507   -3.2183    1.8116 H   0  0  0  0  0  0  0  0  0  0  0  0
   -3.4597   -2.3913    1.1076 C   0  0  0  0  0  0  0  0  0  0  0  0
   -4.1577   -1.6043    1.3866 H   0  0  0  0  0  0  0  0  0  0  0  0
   -3.6807   -2.7523    0.1036 H   0  0  0  0  0  0  0  0  0  0  0  0
   -2.0477   -1.8543    1.1546 C   0  0  0  0  0  0  0  0  0  0  0  0
   -1.2227   -2.3443    1.9146 O   0  0  0  0  0  0  0  0  0  0  0  0
   -1.7517   -0.8483    0.3266 N   0  0  0  0  0  0  0  0  0  0  0  0
   -2.4847   -0.5123   -0.2804 H   0  0  0  0  0  0  0  0  0  0  0  0
   -0.4117   -0.2463    0.2186 C   0  0  1  0  0  0  0  0  0  0  0  0
    0.1554   -0.5152    1.1133 H   0  0  0  0  0  0  0  0  0  0  0  0
    0.3164   -0.8780   -0.9905 C   0  0  0  0  0  0  0  0  0  0  0  0
    0.3629   -1.9599   -0.8426 H   0  0  0  0  0  0  0  0  0  0  0  0
   -0.2749   -0.7028   -1.8919 H   0  0  0  0  0  0  0  0  0  0  0  0
    1.7177   -0.3618   -1.2395 C   0  0  0  0  0  0  0  0  0  0  0  0
    2.5811    0.1049   -0.2673 N   0  3  0  0  0  0  0  0  0  0  0  0
    2.3690    0.0834    0.7344 H   0  0  0  0  0  0  0  0  0  0  0  0
    3.7311    0.4783   -0.8629 C   0  0  0  0  0  0  0  0  0  0  0  0
    4.6053    0.8751   -0.3507 H   0  0  0  0  0  0  0  0  0  0  0  0
    3.6158    0.2597   -2.1923 N   0  0  0  0  0  0  0  0  0  0  0  0
    4.3296    0.4453   -2.8919 H   0  0  0  0  0  0  0  0  0  0  0  0
    2.3572   -0.2677   -2.4460 C   0  0  0  0  0  0  0  0  0  0  0  0
    1.9492   -0.5543   -3.4113 H   0  0  0  0  0  0  0  0  0  0  0  0
   -0.4874    1.2908    0.1962 C   0  0  0  0  0  0  0  0  0  0  0  0
   -1.3116    1.8673   -0.5151 O   0  0  0  0  0  0  0  0  0  0  0  0
    0.3889    1.9422    0.9708 N   0  0  0  0  0  0  0  0  0  0  0  0
    1.0197    1.3866    1.5283 H   0  0  0  0  0  0  0  0  0  0  0  0
    0.5081    3.3999    1.0720 C   0  0  0  0  0  0  0  0  0  0  0  0
    0.0188    3.7538    1.9817 H   0  0  0  0  0  0  0  0  0  0  0  0
    1.5607    3.6858    1.1098 H   0  0  0  0  0  0  0  0  0  0  0  0
    0.0459    3.8890    0.2119 H   0  0  0  0  0  0  0  0  0  0  0  0
  5  6  2  0  0  0  0
  5  7  1  0  0  0  0
  2  3  1  0  0  0  0
  2  4  1  0  0  0  0
  2  5  1  0  0  0  0
  1  2  1  0  0  0  0
 23 24  2  0  0  0  0
 23 25  1  0  0  0  0
 21 22  1  0  0  0  0
 19 20  1  0  0  0  0
 19 21  1  0  0  0  0
 17 18  1  0  0  0  0
 17 19  1  0  0  0  0
 15 16  1  0  0  0  0
 15 17  2  0  0  0  0
 14 15  1  0  0  0  0
 14 21  2  0  0  0  0
 11 12  1  0  0  0  0
 11 13  1  0  0  0  0
 11 14  1  0  0  0  0
  9 10  1  0  0  0  0
  9 11  1  0  0  0  0
  9 23  1  0  0  0  0
  7  8  1  0  0  0  0
  7  9  1  0  0  0  0
 27 28  1  0  0  0  0
 27 29  1  0  0  0  0
 27 30  1  0  0  0  0
 25 26  1  0  0  0  0
 25 27  1  0  0  0  0
M  CHG  1  15   1
M  END
$$$$
default_name
  -OEChem-02102213163D

 30 30  0     1  0  0  0  0  0999 V2000
   -3.5507   -3.2183    1.8116 H   0  0  0  0  0  0  0  0  0  0  0  0
   -3.4597   -2.3913    1.1076 C   0  0  0  0  0  0  0  0  0  0  0  0
   -4.1577   -1.6043    1.3866 H   0  0  0  0  0  0  0  0  0  0  0  0
   -3.6807   -2.7523    0.1036 H   0  0  0  0  0  0  0  0  0  0  0  0
   -2.0477   -1.8543    1.1546 C   0  0  0  0  0  0  0  0  0  0  0  0
   -1.2227   -2.3443    1.9146 O   0  0  0  0  0  0  0  0  0  0  0  0
   -1.7517   -0.8483    0.3266 N   0  0  0  0  0  0  0  0  0  0  0  0
   -2.4847   -0.5123   -0.2804 H   0  0  0  0  0  0  0  0  0  0  0  0
   -0.4117   -0.2463    0.2186 C   0  0  1  0  0  0  0  0  0  0  0  0
    0.1554   -0.5152    1.1133 H   0  0  0  0  0  0  0  0  0  0  0  0
    0.3164   -0.8780   -0.9905 C   0  0  0  0  0  0  0  0  0  0  0  0
    0.3629   -1.9599   -0.8426 H   0  0  0  0  0  0  0  0  0  0  0  0
   -0.2749   -0.7028   -1.8919 H   0  0  0  0  0  0  0  0  0  0  0  0
    1.7177   -0.3618   -1.2395 C   0  0  0  0  0  0  0  0  0  0  0  0
    2.6825   -0.1714   -0.2693 N   0  3  0  0  0  0  0  0  0  0  0  0
    2.5535   -0.4274    0.7139 H   0  0  0  0  0  0  0  0  0  0  0  0
    3.7973    0.2980   -0.8639 C   0  0  0  0  0  0  0  0  0  0  0  0
    4.7310    0.5314   -0.3560 H   0  0  0  0  0  0  0  0  0  0  0  0
    3.5605    0.4107   -2.1904 N   0  0  0  0  0  0  0  0  0  0  0  0
    4.2227    0.7370   -2.8894 H   0  0  0  0  0  0  0  0  0  0  0  0
    2.2589    0.0005   -2.4434 C   0  0  0  0  0  0  0  0  0  0  0  0
    1.7574   -0.0314   -3.4067 H   0  0  0  0  0  0  0  0  0  0  0  0
   -0.4874    1.2908    0.1962 C   0  0  0  0  0  0  0  0  0  0  0  0
   -1.3116    1.8673   -0.5151 O   0  0  0  0  0  0  0  0  0  0  0  0
    0.3889    1.9422    0.9708 N   0  0  0  0  0  0  0  0  0  0  0  0
    1.0197    1.3866    1.5283 H   0  0  0  0  0  0  0  0  0  0  0  0
    0.5081    3.3999    1.0720 C   0  0  0  0  0  0  0  0  0  0  0  0
    0.0188    3.7538    1.9817 H   0  0  0  0  0  0  0  0  0  0  0  0
    1.5607    3.6858    1.1098 H   0  0  0  0  0  0  0  0  0  0  0  0
    0.0459    3.8890    0.2119 H   0  0  0  0  0  0  0  0  0  0  0  0
  5  6  2  0  0  0  0
  5  7  1  0  0  0  0
  2  3  1  0  0  0  0
  2  4  1  0  0  0  0
  2  5  1  0  0  0  0
  1  2  1  0  0  0  0
 23 24  2  0  0  0  0
 23 25  1  0  0  0  0
 21 22  1  0  0  0  0
 19 20  1  0  0  0  0
 19 21  1  0  0  0  0
 17 18  1  0  0  0  0
 17 19  1  0  0  0  0
 15 16  1  0  0  0  0
 15 17  2  0  0  0  0
 14 15  1  0  0  0  0
 14 21  2  0  0  0  0
 11 12  1  0  0  0  0
 11 13  1  0  0  0  0
 11 14  1  0  0  0  0
  9 10  1  0  0  0  0
  9 11  1  0  0  0  0
  9 23  1  0  0  0  0
  7  8  1  0  0  0  0
  7  9  1  0  0  0  0
 27 28  1  0  0  0  0
 27 29  1  0  0  0  0
 27 30  1  0  0  0  0
 25 26  1  0  0  0  0
 25 27  1  0  0  0  0
M  CHG  1  15   1
M  END
$$$$
default_name
  -OEChem-02102213163D

 30 30  0     1  0  0  0  0  0999 V2000
   -3.5507   -3.2183    1.8116 H   0  0  0  0  0  0  0  0  0  0  0  0
   -3.4597   -2.3913    1.1076 C   0  0  0  0  0  0  0  0  0  0  0  0
   -4.1577   -1.6043    1.3866 H   0  0  0  0  0  0  0  0  0  0  0  0
   -3.6807   -2.7523    0.1036 H   0  0  0  0  0  0  0  0  0  0  0  0
   -2.0477   -1.8543    1.1546 C   0  0  0  0  0  0  0  0  0  0  0  0
   -1.2227   -2.3443    1.9146 O   0  0  0  0  0  0  0  0  0  0  0  0
   -1.7517   -0.8483    0.3266 N   0  0  0  0  0  0  0  0  0  0  0  0
   -2.4847   -0.5123   -0.2804 H   0  0  0  0  0  0  0  0  0  0  0  0
   -0.4117   -0.2463    0.2186 C   0  0  1  0  0  0  0  0  0  0  0  0
    0.1554   -0.5152    1.1133 H   0  0  0  0  0  0  0  0  0  0  0  0
    0.3164   -0.8780   -0.9905 C   0  0  0  0  0  0  0  0  0  0  0  0
    0.3629   -1.9599   -0.8426 H   0  0  0  0  0  0  0  0  0  0  0  0
   -0.2749   -0.7028   -1.8919 H   0  0  0  0  0  0  0  0  0  0  0  0
    1.7177   -0.3618   -1.2395 C   0  0  0  0  0  0  0  0  0  0  0  0
    2.7686   -0.4420   -0.3463 N   0  3  0  0  0  0  0  0  0  0  0  0
    2.7082   -0.9236    0.5554 H   0  0  0  0  0  0  0  0  0  0  0  0
    3.8536    0.1213   -0.9138 C   0  0  0  0  0  0  0  0  0  0  0  0
    4.8372    0.1953   -0.4546 H   0  0  0  0  0  0  0  0  0  0  0  0
    3.5137    0.5584   -2.1475 N   0  0  0  0  0  0  0  0  0  0  0  0
    4.1320    1.0226   -2.8076 H   0  0  0  0  0  0  0  0  0  0  0  0
    2.1755    0.2631   -2.3680 C   0  0  0  0  0  0  0  0  0  0  0  0
    1.5948    0.4807   -3.2601 H   0  0  0  0  0  0  0  0  0  0  0  0
   -0.4874    1.2908    0.1962 C   0  0  0  0  0  0  0  0  0  0  0  0
   -1.3116    1.8673   -0.5151 O   0  0  0  0  0  0  0  0  0  0  0  0
    0.3889    1.9422    0.9708 N   0  0  0  0  0  0  0  0  0  0  0  0
    1.0197    1.3866    1.5283 H   0  0  0  0  0  0  0  0  0  0  0  0
    0.5081    3.3999    1.0720 C   0  0  0  0  0  0  0  0  0  0  0  0
    0.0188    3.7538    1.9817 H   0  0  0  0  0  0  0  0  0  0  0  0
    1.5607    3.6858    1.1098 H   0  0  0  0  0  0  0  0  0  0  0  0
    0.0459    3.8890    0.2119 H   0  0  0  0  0  0  0  0  0  0  0  0
  5  6  2  0  0  0  0
  5  7  1  0  0  0  0
  2  3  1  0  0  0  0
  2  4  1  0  0  0  0
  2  5  1  0  0  0  0
  1  2  1  0  0  0  0
 23 24  2  0  0  0  0
 23 25  1  0  0  0  0
 21 22  1  0  0  0  0
 19 20  1  0  0  0  0
 19 21  1  0  0  0  0
 17 18  1  0  0  0  0
 17 19  1  0  0  0  0
 15 16  1  0  0  0  0
 15 17  2  0  0  0  0
 14 15  1  0  0  0  0
 14 21  2  0  0  0  0
 11 12  1  0  0  0  0
 11 13  1  0  0  0  0
 11 14  1  0  0  0  0
  9 10  1  0  0  0  0
  9 11  1  0  0  0  0
  9 23  1  0  0  0  0
  7  8  1  0  0  0  0
  7  9  1  0  0  0  0
 27 28  1  0  0  0  0
 27 29  1  0  0  0  0
 27 30  1  0  0  0  0
 25 26  1  0  0  0  0
 25 27  1  0  0  0  0
M  CHG  1  15   1
M  END
$$$$
default_name
  -OEChem-02102213163D

 30 30  0     1  0  0  0  0  0999 V2000
   -3.5507   -3.2183    1.8116 H   0  0  0  0  0  0  0  0  0  0  0  0
   -3.4597   -2.3913    1.1076 C   0  0  0  0  0  0  0  0  0  0  0  0
   -4.1577   -1.6043    1.3866 H   0  0  0  0  0  0  0  0  0  0  0  0
   -3.6807   -2.7523    0.1036 H   0  0  0  0  0  0  0  0  0  0  0  0
   -2.0477   -1.8543    1.1546 C   0  0  0  0  0  0  0  0  0  0  0  0
   -1.2227   -2.3443    1.9146 O   0  0  0  0  0  0  0  0  0  0  0  0
   -1.7517   -0.8483    0.3266 N   0  0  0  0  0  0  0  0  0  0  0  0
   -2.4847   -0.5123   -0.2804 H   0  0  0  0  0  0  0  0  0  0  0  0
   -0.4117   -0.2463    0.2186 C   0  0  1  0  0  0  0  0  0  0  0  0
    0.1554   -0.5152    1.1133 H   0  0  0  0  0  0  0  0  0  0  0  0
    0.3164   -0.8780   -0.9905 C   0  0  0  0  0  0  0  0  0  0  0  0
    0.3629   -1.9599   -0.8426 H   0  0  0  0  0  0  0  0  0  0  0  0
   -0.2749   -0.7028   -1.8919 H   0  0  0  0  0  0  0  0  0  0  0  0
    1.7177   -0.3618   -1.2395 C   0  0  0  0  0  0  0  0  0  0  0  0
    2.8333   -0.6887   -0.4932 N   0  3  0  0  0  0  0  0  0  0  0  0
    2.8225   -1.3716    0.2699 H   0  0  0  0  0  0  0  0  0  0  0  0
    3.8959   -0.0398   -1.0094 C   0  0  0  0  0  0  0  0  0  0  0  0
    4.9169   -0.1102   -0.6397 H   0  0  0  0  0  0  0  0  0  0  0  0
    3.4786    0.6928   -2.0665 N   0  0  0  0  0  0  0  0  0  0  0  0
    4.0637    1.2828   -2.6522 H   0  0  0  0  0  0  0  0  0  0  0  0
    2.1129    0.5022   -2.2248 C   0  0  0  0  0  0  0  0  0  0  0  0
    1.4724    0.9471   -2.9814 H   0  0  0  0  0  0  0  0  0  0  0  0
   -0.4874    1.2908    0.1962 C   0  0  0  0  0  0  0  0  0  0  0  0
   -1.3116    1.8673   -0.5151 O   0  0  0  0  0  0  0  0  0  0  0  0
    0.3889    1.9422    0.9708 N   0  0  0  0  0  0  0  0  0  0  0  0
    1.0197    1.3866    1.5283 H   0  0  0  0  0  0  0  0  0  0  0  0
    0.5081    3.3999    1.0720 C   0  0  0  0  0  0  0  0  0  0  0  0
    0.0188    3.7538    1.9817 H   0  0  0  0  0  0  0  0  0  0  0  0
    1.5607    3.6858    1.1098 H   0  0  0  0  0  0  0  0  0  0  0  0
    0.0459    3.8890    0.2119 H   0  0  0  0  0  0  0  0  0  0  0  0
  5  6  2  0  0  0  0
  5  7  1  0  0  0  0
  2  3  1  0  0  0  0
  2  4  1  0  0  0  0
  2  5  1  0  0  0  0
  1  2  1  0  0  0  0
 23 24  2  0  0  0  0
 23 25  1  0  0  0  0
 21 22  1  0  0  0  0
 19 20  1  0  0  0  0
 19 21  1  0  0  0  0
 17 18  1  0  0  0  0
 17 19  1  0  0  0  0
 15 16  1  0  0  0  0
 15 17  2  0  0  0  0
 14 15  1  0  0  0  0
 14 21  2  0  0  0  0
 11 12  1  0  0  0  0
 11 13  1  0  0  0  0
 11 14  1  0  0  0  0
  9 10  1  0  0  0  0
  9 11  1  0  0  0  0
  9 23  1  0  0  0  0
  7  8  1  0  0  0  0
  7  9  1  0  0  0  0
 27 28  1  0  0  0  0
 27 29  1  0  0  0  0
 27 30  1  0  0  0  0
 25 26  1  0  0  0  0
 25 27  1  0  0  0  0
M  CHG  1  15   1
M  END
$$$$
default_name
  -OEChem-02102213163D

 30 30  0     1  0  0  0  0  0999 V2000
   -3.5507   -3.2183    1.8116 H   0  0  0  0  0  0  0  0  0  0  0  0
   -3.4597   -2.3913    1.1076 C   0  0  0  0  0  0  0  0  0  0  0  0
   -4.1577   -1.6043    1.3866 H   0  0  0  0  0  0  0  0  0  0  0  0
   -3.6807   -2.7523    0.1036 H   0  0  0  0  0  0  0  0  0  0  0  0
   -2.0477   -1.8543    1.1546 C   0  0  0  0  0  0  0  0  0  0  0  0
   -1.2227   -2.3443    1.9146 O   0  0  0  0  0  0  0  0  0  0  0  0
   -1.7517   -0.8483    0.3266 N   0  0  0  0  0  0  0  0  0  0  0  0
   -2.4847   -0.5123   -0.2804 H   0  0  0  0  0  0  0  0  0  0  0  0
   -0.4117   -0.2463    0.2186 C   0  0  1  0  0  0  0  0  0  0  0  0
    0.1554   -0.5152    1.1133 H   0  0  0  0  0  0  0  0  0  0  0  0
    0.3164   -0.8780   -0.9905 C   0  0  0  0  0  0  0  0  0  0  0  0
    0.3629   -1.9599   -0.8426 H   0  0  0  0  0  0  0  0  0  0  0  0
   -0.2749   -0.7028   -1.8919 H   0  0  0  0  0  0  0  0  0  0  0  0
    1.7177   -0.3618   -1.2395 C   0  0  0  0  0  0  0  0  0  0  0  0
    2.8725   -0.8946   -0.6999 N   0  3  0  0  0  0  0  0  0  0  0  0
    2.8886   -1.7408   -0.1234 H   0  0  0  0  0  0  0  0  0  0  0  0
    3.9216   -0.1743   -1.1440 C   0  0  0  0  0  0  0  0  0  0  0  0
    4.9645   -0.3644   -0.8987 H   0  0  0  0  0  0  0  0  0  0  0  0
    3.4575    0.8048   -1.9530 N   0  0  0  0  0  0  0  0  0  0  0  0
    4.0226    1.4998   -2.4337 H   0  0  0  0  0  0  0  0  0  0  0  0
    2.0752    0.7015   -2.0238 C   0  0  0  0  0  0  0  0  0  0  0  0
    1.3987    1.3361   -2.5897 H   0  0  0  0  0  0  0  0  0  0  0  0
   -0.4874    1.2908    0.1962 C   0  0  0  0  0  0  0  0  0  0  0  0
   -1.3116    1.8673   -0.5151 O   0  0  0  0  0  0  0  0  0  0  0  0
    0.3889    1.9422    0.9708 N   0  0  0  0  0  0  0  0  0  0  0  0
    1.0197    1.3866    1.5283 H   0  0  0  0  0  0  0  0  0  0  0  0
    0.5081    3.3999    1.0720 C   0  0  0  0  0  0  0  0  0  0  0  0
    0.0188    3.7538    1.9817 H   0  0  0  0  0  0  0  0  0  0  0  0
    1.5607    3.6858    1.1098 H   0  0  0  0  0  0  0  0  0  0  0  0
    0.0459    3.8890    0.2119 H   0  0  0  0  0  0  0  0  0  0  0  0
  5  6  2  0  0  0  0
  5  7  1  0  0  0  0
  2  3  1  0  0  0  0
  2  4  1  0  0  0  0
  2  5  1  0  0  0  0
  1  2  1  0  0  0  0
 23 24  2  0  0  0  0
 23 25  1  0  0  0  0
 21 22  1  0  0  0  0
 19 20  1  0  0  0  0
 19 21  1  0  0  0  0
 17 18  1  0  0  0  0
 17 19  1  0  0  0  0
 15 16  1  0  0  0  0
 15 17  2  0  0  0  0
 14 15  1  0  0  0  0
 14 21  2  0  0  0  0
 11 12  1  0  0  0  0
 11 13  1  0  0  0  0
 11 14  1  0  0  0  0
  9 10  1  0  0  0  0
  9 11  1  0  0  0  0
  9 23  1  0  0  0  0
  7  8  1  0  0  0  0
  7  9  1  0  0  0  0
 27 28  1  0  0  0  0
 27 29  1  0  0  0  0
 27 30  1  0  0  0  0
 25 26  1  0  0  0  0
 25 27  1  0  0  0  0
M  CHG  1  15   1
M  END
$$$$
default_name
  -OEChem-02102213163D

 30 30  0     1  0  0  0  0  0999 V2000
   -3.5507   -3.2183    1.8116 H   0  0  0  0  0  0  0  0  0  0  0  0
   -3.4597   -2.3913    1.1076 C   0  0  0  0  0  0  0  0  0  0  0  0
   -4.1577   -1.6043    1.3866 H   0  0  0  0  0  0  0  0  0  0  0  0
   -3.6807   -2.7523    0.1036 H   0  0  0  0  0  0  0  0  0  0  0  0
   -2.0477   -1.8543    1.1546 C   0  0  0  0  0  0  0  0  0  0  0  0
   -1.2227   -2.3443    1.9146 O   0  0  0  0  0  0  0  0  0  0  0  0
   -1.7517   -0.8483    0.3266 N   0  0  0  0  0  0  0  0  0  0  0  0
   -2.4847   -0.5123   -0.2804 H   0  0  0  0  0  0  0  0  0  0  0  0
   -0.4117   -0.2463    0.2186 C   0  0  1  0  0  0  0  0  0  0  0  0
    0.1554   -0.5152    1.1133 H   0  0  0  0  0  0  0  0  0  0  0  0
    0.3164   -0.8780   -0.9905 C   0  0  0  0  0  0  0  0  0  0  0  0
    0.3629   -1.9599   -0.8426 H   0  0  0  0  0  0  0  0  0  0  0  0
   -0.2749   -0.7028   -1.8919 H   0  0  0  0  0  0  0  0  0  0  0  0
    1.7177   -0.3618   -1.2395 C   0  0  0  0  0  0  0  0  0  0  0  0
    2.8832   -1.0455   -0.9523 N   0  3  0  0  0  0  0  0  0  0  0  0
    2.9021   -2.0060   -0.5975 H   0  0  0  0  0  0  0  0  0  0  0  0
    3.9287   -0.2731   -1.3085 C   0  0  0  0  0  0  0  0  0  0  0  0
    4.9768   -0.5498   -1.2139 H   0  0  0  0  0  0  0  0  0  0  0  0
    3.4519    0.8866   -1.8146 N   0  0  0  0  0  0  0  0  0  0  0  0
    4.0114    1.6588   -2.1671 H   0  0  0  0  0  0  0  0  0  0  0  0
    2.0649    0.8475   -1.7785 C   0  0  0  0  0  0  0  0  0  0  0  0
    1.3787    1.6212   -2.1116 H   0  0  0  0  0  0  0  0  0  0  0  0
   -0.4874    1.2908    0.1962 C   0  0  0  0  0  0  0  0  0  0  0  0
   -1.3116    1.8673   -0.5151 O   0  0  0  0  0  0  0  0  0  0  0  0
    0.3889    1.9422    0.9708 N   0  0  0  0  0  0  0  0  0  0  0  0
    1.0197    1.3866    1.5283 H   0  0  0  0  0  0  0  0  0  0  0  0
    0.5081    3.3999    1.0720 C   0  0  0  0  0  0  0  0  0  0  0  0
    0.0188    3.7538    1.9817 H   0  0  0  0  0  0  0  0  0  0  0  0
    1.5607    3.6858    1.1098 H   0  0  0  0  0  0  0  0  0  0  0  0
    0.0459    3.8890    0.2119 H   0  0  0  0  0  0  0  0  0  0  0  0
  5  6  2  0  0  0  0
  5  7  1  0  0  0  0
  2  3  1  0  0  0  0
  2  4  1  0  0  0  0
  2  5  1  0  0  0  0
  1  2  1  0  0  0  0
 23 24  2  0  0  0  0
 23 25  1  0  0  0  0
 21 22  1  0  0  0  0
 19 20  1  0  0  0  0
 19 21  1  0  0  0  0
 17 18  1  0  0  0  0
 17 19  1  0  0  0  0
 15 16  1  0  0  0  0
 15 17  2  0  0  0  0
 14 15  1  0  0  0  0
 14 21  2  0  0  0  0
 11 12  1  0  0  0  0
 11 13  1  0  0  0  0
 11 14  1  0  0  0  0
  9 10  1  0  0  0  0
  9 11  1  0  0  0  0
  9 23  1  0  0  0  0
  7  8  1  0  0  0  0
  7  9  1  0  0  0  0
 27 28  1  0  0  0  0
 27 29  1  0  0  0  0
 27 30  1  0  0  0  0
 25 26  1  0  0  0  0
 25 27  1  0  0  0  0
M  CHG  1  15   1
M  END
$$$$
default_name
  -OEChem-02102213163D

 30 30  0     1  0  0  0  0  0999 V2000
   -3.5507   -3.2183    1.8116 H   0  0  0  0  0  0  0  0  0  0  0  0
   -3.4597   -2.3913    1.1076 C   0  0  0  0  0  0  0  0  0  0  0  0
   -4.1577   -1.6043    1.3866 H   0  0  0  0  0  0  0  0  0  0  0  0
   -3.6807   -2.7523    0.1036 H   0  0  0  0  0  0  0  0  0  0  0  0
   -2.0477   -1.8543    1.1546 C   0  0  0  0  0  0  0  0  0  0  0  0
   -1.2227   -2.3443    1.9146 O   0  0  0  0  0  0  0  0  0  0  0  0
   -1.7517   -0.8483    0.3266 N   0  0  0  0  0  0  0  0  0  0  0  0
   -2.4847   -0.5123   -0.2804 H   0  0  0  0  0  0  0  0  0  0  0  0
   -0.4117   -0.2463    0.2186 C   0  0  1  0  0  0  0  0  0  0  0  0
    0.1554   -0.5152    1.1133 H   0  0  0  0  0  0  0  0  0  0  0  0
    0.3164   -0.8780   -0.9905 C   0  0  0  0  0  0  0  0  0  0  0  0
    0.3629   -1.9599   -0.8426 H   0  0  0  0  0  0  0  0  0  0  0  0
   -0.2749   -0.7028   -1.8919 H   0  0  0  0  0  0  0  0  0  0  0  0
    1.7177   -0.3618   -1.2395 C   0  0  0  0  0  0  0  0  0  0  0  0
    2.8650   -1.1314   -1.2332 N   0  3  0  0  0  0  0  0  0  0  0  0
    2.8620   -2.1492   -1.1202 H   0  0  0  0  0  0  0  0  0  0  0  0
    3.9169   -0.3294   -1.4918 C   0  0  0  0  0  0  0  0  0  0  0  0
    4.9530   -0.6540   -1.5640 H   0  0  0  0  0  0  0  0  0  0  0  0
    3.4622    0.9327   -1.6609 N   0  0  0  0  0  0  0  0  0  0  0  0
    4.0309    1.7490   -1.8704 H   0  0  0  0  0  0  0  0  0  0  0  0
    2.0830    0.9302   -1.5056 C   0  0  0  0  0  0  0  0  0  0  0  0
    1.4136    1.7828   -1.5797 H   0  0  0  0  0  0  0  0  0  0  0  0
   -0.4874    1.2908    0.1962 C   0  0  0  0  0  0  0  0  0  0  0  0
   -1.3116    1.8673   -0.5151 O   0  0  0  0  0  0  0  0  0  0  0  0
    0.3889    1.9422    0.9708 N   0  0  0  0  0  0  0  0  0  0  0  0
    1.0197    1.3866    1.5283 H   0  0  0  0  0  0  0  0  0  0  0  0
    0.5081    3.3999    1.0720 C   0  0  0  0  0  0  0  0  0  0  0  0
    0.0188    3.7538    1.9817 H   0  0  0  0  0  0  0  0  0  0  0  0
    1.5607    3.6858    1.1098 H   0  0  0  0  0  0  0  0  0  0  0  0
    0.0459    3.8890    0.2119 H   0  0  0  0  0  0  0  0  0  0  0  0
  5  6  2  0  0  0  0
  5  7  1  0  0  0  0
  2  3  1  0  0  0  0
  2  4  1  0  0  0  0
  2  5  1  0  0  0  0
  1  2  1  0  0  0  0
 23 24  2  0  0  0  0
 23 25  1  0  0  0  0
 21 22  1  0  0  0  0
 19 20  1  0  0  0  0
 19 21  1  0  0  0  0
 17 18  1  0  0  0  0
 17 19  1  0  0  0  0
 15 16  1  0  0  0  0
 15 17  2  0  0  0  0
 14 15  1  0  0  0  0
 14 21  2  0  0  0  0
 11 12  1  0  0  0  0
 11 13  1  0  0  0  0
 11 14  1  0  0  0  0
  9 10  1  0  0  0  0
  9 11  1  0  0  0  0
  9 23  1  0  0  0  0
  7  8  1  0  0  0  0
  7  9  1  0  0  0  0
 27 28  1  0  0  0  0
 27 29  1  0  0  0  0
 27 30  1  0  0  0  0
 25 26  1  0  0  0  0
 25 27  1  0  0  0  0
M  CHG  1  15   1
M  END
$$$$
default_name
  -OEChem-02102213163D

 30 30  0     1  0  0  0  0  0999 V2000
   -3.5507   -3.2183    1.8116 H   0  0  0  0  0  0  0  0  0  0  0  0
   -3.4597   -2.3913    1.1076 C   0  0  0  0  0  0  0  0  0  0  0  0
   -4.1577   -1.6043    1.3866 H   0  0  0  0  0  0  0  0  0  0  0  0
   -3.6807   -2.7523    0.1036 H   0  0  0  0  0  0  0  0  0  0  0  0
   -2.0477   -1.8543    1.1546 C   0  0  0  0  0  0  0  0  0  0  0  0
   -1.2227   -2.3443    1.9146 O   0  0  0  0  0  0  0  0  0  0  0  0
   -1.7517   -0.8483    0.3266 N   0  0  0  0  0  0  0  0  0  0  0  0
   -2.4847   -0.5123   -0.2804 H   0  0  0  0  0  0  0  0  0  0  0  0
   -0.4117   -0.2463    0.2186 C   0  0  1  0  0  0  0  0  0  0  0  0
    0.1554   -0.5152    1.1133 H   0  0  0  0  0  0  0  0  0  0  0  0
    0.3164   -0.8780   -0.9905 C   0  0  0  0  0  0  0  0  0  0  0  0
    0.3629   -1.9599   -0.8426 H   0  0  0  0  0  0  0  0  0  0  0  0
   -0.2749   -0.7028   -1.8919 H   0  0  0  0  0  0  0  0  0  0  0  0
    1.7177   -0.3618   -1.2395 C   0  0  0  0  0  0  0  0  0  0  0  0
    2.8189   -1.1462   -1.5235 N   0  3  0  0  0  0  0  0  0  0  0  0
    2.7710   -2.1605   -1.6559 H   0  0  0  0  0  0  0  0  0  0  0  0
    3.8870   -0.3394   -1.6812 C   0  0  0  0  0  0  0  0  0  0  0  0
    4.8947   -0.6697   -1.9250 H   0  0  0  0  0  0  0  0  0  0  0  0
    3.4877    0.9400   -1.5023 N   0  0  0  0  0  0  0  0  0  0  0  0
    4.0797    1.7642   -1.5640 H   0  0  0  0  0  0  0  0  0  0  0  0
    2.1279    0.9440   -1.2239 C   0  0  0  0  0  0  0  0  0  0  0  0
    1.5011    1.8101   -1.0304 H   0  0  0  0  0  0  0  0  0  0  0  0
   -0.4874    1.2908    0.1962 C   0  0  0  0  0  0  0  0  0  0  0  0
   -1.3116    1.8673   -0.5151 O   0  0  0  0  0  0  0  0  0  0  0  0
    0.3889    1.9422    0.9708 N   0  0  0  0  0  0  0  0  0  0  0  0
    1.0197    1.3866    1.5283 H   0  0  0  0  0  0  0  0  0  0  0  0
    0.5081    3.3999    1.0720 C   0  0  0  0  0  0  0  0  0  0  0  0
    0.0188    3.7538    1.9817 H   0  0  0  0  0  0  0  0  0  0  0  0
    1.5607    3.6858    1.1098 H   0  0  0  0  0  0  0  0  0  0  0  0
    0.0459    3.8890    0.2119 H   0  0  0  0  0  0  0  0  0  0  0  0
  5  6  2  0  0  0  0
  5  7  1  0  0  0  0
  2  3  1  0  0  0  0
  2  4  1  0  0  0  0
  2  5  1  0  0  0  0
  1  2  1  0  0  0  0
 23 24  2  0  0  0  0
 23 25  1  0  0  0  0
 21 22  1  0  0  0  0
 19 20  1  0  0  0  0
 19 21  1  0  0  0  0
 17 18  1  0  0  0  0
 17 19  1  0  0  0  0
 15 16  1  0  0  0  0
 15 17  2  0  0  0  0
 14 15  1  0  0  0  0
 14 21  2  0  0  0  0
 11 12  1  0  0  0  0
 11 13  1  0  0  0  0
 11 14  1  0  0  0  0
  9 10  1  0  0  0  0
  9 11  1  0  0  0  0
  9 23  1  0  0  0  0
  7  8  1  0  0  0  0
  7  9  1  0  0  0  0
 27 28  1  0  0  0  0
 27 29  1  0  0  0  0
 27 30  1  0  0  0  0
 25 26  1  0  0  0  0
 25 27  1  0  0  0  0
M  CHG  1  15   1
M  END
$$$$
default_name
  -OEChem-02102213163D

 30 30  0     1  0  0  0  0  0999 V2000
   -3.5507   -3.2183    1.8116 H   0  0  0  0  0  0  0  0  0  0  0  0
   -3.4597   -2.3913    1.1076 C   0  0  0  0  0  0  0  0  0  0  0  0
   -4.1577   -1.6043    1.3866 H   0  0  0  0  0  0  0  0  0  0  0  0
   -3.6807   -2.7523    0.1036 H   0  0  0  0  0  0  0  0  0  0  0  0
   -2.0477   -1.8543    1.1546 C   0  0  0  0  0  0  0  0  0  0  0  0
   -1.2227   -2.3443    1.9146 O   0  0  0  0  0  0  0  0  0  0  0  0
   -1.7517   -0.8483    0.3266 N   0  0  0  0  0  0  0  0  0  0  0  0
   -2.4847   -0.5123   -0.2804 H   0  0  0  0  0  0  0  0  0  0  0  0
   -0.4117   -0.2463    0.2186 C   0  0  1  0  0  0  0  0  0  0  0  0
    0.1554   -0.5152    1.1133 H   0  0  0  0  0  0  0  0  0  0  0  0
    0.3164   -0.8780   -0.9905 C   0  0  0  0  0  0  0  0  0  0  0  0
    0.3629   -1.9599   -0.8426 H   0  0  0  0  0  0  0  0  0  0  0  0
   -0.2749   -0.7028   -1.8919 H   0  0  0  0  0  0  0  0  0  0  0  0
    1.7177   -0.3618   -1.2395 C   0  0  0  0  0  0  0  0  0  0  0  0
    2.7481   -1.0890   -1.8034 N   0  3  0  0  0  0  0  0  0  0  0  0
    2.6354   -2.0393   -2.1679 H   0  0  0  0  0  0  0  0  0  0  0  0
    3.8409   -0.3024   -1.8639 C   0  0  0  0  0  0  0  0  0  0  0  0
    4.8058   -0.5959   -2.2723 H   0  0  0  0  0  0  0  0  0  0  0  0
    3.5267    0.9080   -1.3496 N   0  0  0  0  0  0  0  0  0  0  0  0
    4.1545    1.7035   -1.2687 H   0  0  0  0  0  0  0  0  0  0  0  0
    2.1968    0.8878   -0.9524 C   0  0  0  0  0  0  0  0  0  0  0  0
    1.6353    1.7011   -0.5009 H   0  0  0  0  0  0  0  0  0  0  0  0
   -0.4874    1.2908    0.1962 C   0  0  0  0  0  0  0  0  0  0  0  0
   -1.3116    1.8673   -0.5151 O   0  0  0  0  0  0  0  0  0  0  0  0
    0.3889    1.9422    0.9708 N   0  0  0  0  0  0  0  0  0  0  0  0
    1.0197    1.3866    1.5283 H   0  0  0  0  0  0  0  0  0  0  0  0
    0.5081    3.3999    1.0720 C   0  0  0  0  0  0  0  0  0  0  0  0
    0.0188    3.7538    1.9817 H   0  0  0  0  0  0  0  0  0  0  0  0
    1.5607    3.6858    1.1098 H   0  0  0  0  0  0  0  0  0  0  0  0
    0.0459    3.8890    0.2119 H   0  0  0  0  0  0  0  0  0  0  0  0
  5  6  2  0  0  0  0
  5  7  1  0  0  0  0
  2  3  1  0  0  0  0
  2  4  1  0  0  0  0
  2  5  1  0  0  0  0
  1  2  1  0  0  0  0
 23 24  2  0  0  0  0
 23 25  1  0  0  0  0
 21 22  1  0  0  0  0
 19 20  1  0  0  0  0
 19 21  1  0  0  0  0
 17 18  1  0  0  0  0
 17 19  1  0  0  0  0
 15 16  1  0  0  0  0
 15 17  2  0  0  0  0
 14 15  1  0  0  0  0
 14 21  2  0  0  0  0
 11 12  1  0  0  0  0
 11 13  1  0  0  0  0
 11 14  1  0  0  0  0
  9 10  1  0  0  0  0
  9 11  1  0  0  0  0
  9 23  1  0  0  0  0
  7  8  1  0  0  0  0
  7  9  1  0  0  0  0
 27 28  1  0  0  0  0
 27 29  1  0  0  0  0
 27 30  1  0  0  0  0
 25 26  1  0  0  0  0
 25 27  1  0  0  0  0
M  CHG  1  15   1
M  END
$$$$
default_name
  -OEChem-02102213163D

 30 30  0     1  0  0  0  0  0999 V2000
   -3.5507   -3.2183    1.8116 H   0  0  0  0  0  0  0  0  0  0  0  0
   -3.4597   -2.3913    1.1076 C   0  0  0  0  0  0  0  0  0  0  0  0
   -4.1577   -1.6043    1.3866 H   0  0  0  0  0  0  0  0  0  0  0  0
   -3.6807   -2.7523    0.1036 H   0  0  0  0  0  0  0  0  0  0  0  0
   -2.0477   -1.8543    1.1546 C   0  0  0  0  0  0  0  0  0  0  0  0
   -1.2227   -2.3443    1.9146 O   0  0  0  0  0  0  0  0  0  0  0  0
   -1.7517   -0.8483    0.3266 N   0  0  0  0  0  0  0  0  0  0  0  0
   -2.4847   -0.5123   -0.2804 H   0  0  0  0  0  0  0  0  0  0  0  0
   -0.4117   -0.2463    0.2186 C   0  0  1  0  0  0  0  0  0  0  0  0
    0.1554   -0.5152    1.1133 H   0  0  0  0  0  0  0  0  0  0  0  0
    0.3164   -0.8780   -0.9905 C   0  0  0  0  0  0  0  0  0  0  0  0
    0.3629   -1.9599   -0.8426 H   0  0  0  0  0  0  0  0  0  0  0  0
   -0.2749   -0.7028   -1.8919 H   0  0  0  0  0  0  0  0  0  0  0  0
    1.7177   -0.3618   -1.2395 C   0  0  0  0  0  0  0  0  0  0  0  0
    2.6574   -0.9637   -2.0538 N   0  3  0  0  0  0  0  0  0  0  0  0
    2.4643   -1.7938   -2.6216 H   0  0  0  0  0  0  0  0  0  0  0  0
    3.7818   -0.2210   -2.0275 C   0  0  0  0  0  0  0  0  0  0  0  0
    4.6925   -0.4377   -2.5822 H   0  0  0  0  0  0  0  0  0  0  0  0
    3.5764    0.8388   -1.2132 N   0  0  0  0  0  0  0  0  0  0  0  0
    4.2503    1.5708   -1.0046 H   0  0  0  0  0  0  0  0  0  0  0  0
    2.2850    0.7657   -0.7097 C   0  0  0  0  0  0  0  0  0  0  0  0
    1.8070    1.4632   -0.0275 H   0  0  0  0  0  0  0  0  0  0  0  0
   -0.4874    1.2908    0.1962 C   0  0  0  0  0  0  0  0  0  0  0  0
   -1.3116    1.8673   -0.5151 O   0  0  0  0  0  0  0  0  0  0  0  0
    0.3889    1.9422    0.9708 N   0  0  0  0  0  0  0  0  0  0  0  0
    1.0197    1.3866    1.5283 H   0  0  0  0  0  0  0  0  0  0  0  0
    0.5081    3.3999    1.0720 C   0  0  0  0  0  0  0  0  0  0  0  0
    0.0188    3.7538    1.9817 H   0  0  0  0  0  0  0  0  0  0  0  0
    1.5607    3.6858    1.1098 H   0  0  0  0  0  0  0  0  0  0  0  0
    0.0459    3.8890    0.2119 H   0  0  0  0  0  0  0  0  0  0  0  0
  5  6  2  0  0  0  0
  5  7  1  0  0  0  0
  2  3  1  0  0  0  0
  2  4  1  0  0  0  0
  2  5  1  0  0  0  0
  1  2  1  0  0  0  0
 23 24  2  0  0  0  0
 23 25  1  0  0  0  0
 21 22  1  0  0  0  0
 19 20  1  0  0  0  0
 19 21  1  0  0  0  0
 17 18  1  0  0  0  0
 17 19  1  0  0  0  0
 15 16  1  0  0  0  0
 15 17  2  0  0  0  0
 14 15  1  0  0  0  0
 14 21  2  0  0  0  0
 11 12  1  0  0  0  0
 11 13  1  0  0  0  0
 11 14  1  0  0  0  0
  9 10  1  0  0  0  0
  9 11  1  0  0  0  0
  9 23  1  0  0  0  0
  7  8  1  0  0  0  0
  7  9  1  0  0  0  0
 27 28  1  0  0  0  0
 27 29  1  0  0  0  0
 27 30  1  0  0  0  0
 25 26  1  0  0  0  0
 25 27  1  0  0  0  0
M  CHG  1  15   1
M  END
$$$$
default_name
  -OEChem-02102213163D

 30 30  0     1  0  0  0  0  0999 V2000
   -3.5507   -3.2183    1.8116 H   0  0  0  0  0  0  0  0  0  0  0  0
   -3.4597   -2.3913    1.1076 C   0  0  0  0  0  0  0  0  0  0  0  0
   -4.1577   -1.6043    1.3866 H   0  0  0  0  0  0  0  0  0  0  0  0
   -3.6807   -2.7523    0.1036 H   0  0  0  0  0  0  0  0  0  0  0  0
   -2.0477   -1.8543    1.1546 C   0  0  0  0  0  0  0  0  0  0  0  0
   -1.2227   -2.3443    1.9146 O   0  0  0  0  0  0  0  0  0  0  0  0
   -1.7517   -0.8483    0.3266 N   0  0  0  0  0  0  0  0  0  0  0  0
   -2.4847   -0.5123   -0.2804 H   0  0  0  0  0  0  0  0  0  0  0  0
   -0.4117   -0.2463    0.2186 C   0  0  1  0  0  0  0  0  0  0  0  0
    0.1554   -0.5152    1.1133 H   0  0  0  0  0  0  0  0  0  0  0  0
    0.3164   -0.8780   -0.9905 C   0  0  0  0  0  0  0  0  0  0  0  0
    0.1323   -1.9553   -0.9838 H   0  0  0  0  0  0  0  0  0  0  0  0
   -0.1183   -0.4842   -1.9118 H   0  0  0  0  0  0  0  0  0  0  0  0
    1.8111   -0.6416   -1.0371 C   0  0  0  0  0  0  0  0  0  0  0  0
    2.6631   -1.1084   -2.0192 N   0  3  0  0  0  0  0  0  0  0  0  0
    2.3436   -1.6114   -2.8521 H   0  0  0  0  0  0  0  0  0  0  0  0
    3.9143   -0.7026   -1.7254 C   0  0  0  0  0  0  0  0  0  0  0  0
    4.7994   -0.9075   -2.3244 H   0  0  0  0  0  0  0  0  0  0  0  0
    3.8750    0.0107   -0.5774 N   0  0  0  0  0  0  0  0  0  0  0  0
    4.6707    0.4442   -0.1164 H   0  0  0  0  0  0  0  0  0  0  0  0
    2.5615    0.0587   -0.1315 C   0  0  0  0  0  0  0  0  0  0  0  0
    2.1902    0.5539    0.7614 H   0  0  0  0  0  0  0  0  0  0  0  0
   -0.4874    1.2908    0.1962 C   0  0  0  0  0  0  0  0  0  0  0  0
   -1.3116    1.8673   -0.5151 O   0  0  0  0  0  0  0  0  0  0  0  0
    0.3889    1.9422    0.9708 N   0  0  0  0  0  0  0  0  0  0  0  0
    1.0197    1.3866    1.5283 H   0  0  0  0  0  0  0  0  0  0  0  0
    0.5081    3.3999    1.0720 C   0  0  0  0  0  0  0  0  0  0  0  0
    0.0188    3.7538    1.9817 H   0  0  0  0  0  0  0  0  0  0  0  0
    1.5607    3.6858    1.1098 H   0  0  0  0  0  0  0  0  0  0  0  0
    0.0459    3.8890    0.2119 H   0  0  0  0  0  0  0  0  0  0  0  0
  5  6  2  0  0  0  0
  5  7  1  0  0  0  0
  2  3  1  0  0  0  0
  2  4  1  0  0  0  0
  2  5  1  0  0  0  0
  1  2  1  0  0  0  0
 23 24  2  0  0  0  0
 23 25  1  0  0  0  0
 21 22  1  0  0  0  0
 19 20  1  0  0  0  0
 19 21  1  0  0  0  0
 17 18  1  0  0  0  0
 17 19  1  0  0  0  0
 15 16  1  0  0  0  0
 15 17  2  0  0  0  0
 14 15  1  0  0  0  0
 14 21  2  0  0  0  0
 11 12  1  0  0  0  0
 11 13  1  0  0  0  0
 11 14  1  0  0  0  0
  9 10  1  0  0  0  0
  9 11  1  0  0  0  0
  9 23  1  0  0  0  0
  7  8  1  0  0  0  0
  7  9  1  0  0  0  0
 27 28  1  0  0  0  0
 27 29  1  0  0  0  0
 27 30  1  0  0  0  0
 25 26  1  0  0  0  0
 25 27  1  0  0  0  0
M  CHG  1  15   1
M  END
$$$$
default_name
  -OEChem-02102213163D

 30 30  0     1  0  0  0  0  0999 V2000
   -3.5507   -3.2183    1.8116 H   0  0  0  0  0  0  0  0  0  0  0  0
   -3.4597   -2.3913    1.1076 C   0  0  0  0  0  0  0  0  0  0  0  0
   -4.1577   -1.6043    1.3866 H   0  0  0  0  0  0  0  0  0  0  0  0
   -3.6807   -2.7523    0.1036 H   0  0  0  0  0  0  0  0  0  0  0  0
   -2.0477   -1.8543    1.1546 C   0  0  0  0  0  0  0  0  0  0  0  0
   -1.2227   -2.3443    1.9146 O   0  0  0  0  0  0  0  0  0  0  0  0
   -1.7517   -0.8483    0.3266 N   0  0  0  0  0  0  0  0  0  0  0  0
   -2.4847   -0.5123   -0.2804 H   0  0  0  0  0  0  0  0  0  0  0  0
   -0.4117   -0.2463    0.2186 C   0  0  1  0  0  0  0  0  0  0  0  0
    0.1554   -0.5152    1.1133 H   0  0  0  0  0  0  0  0  0  0  0  0
    0.3164   -0.8780   -0.9905 C   0  0  0  0  0  0  0  0  0  0  0  0
    0.1323   -1.9553   -0.9838 H   0  0  0  0  0  0  0  0  0  0  0  0
   -0.1183   -0.4842   -1.9118 H   0  0  0  0  0  0  0  0  0  0  0  0
    1.8111   -0.6416   -1.0371 C   0  0  0  0  0  0  0  0  0  0  0  0
    2.6175   -0.8441   -2.1403 N   0  3  0  0  0  0  0  0  0  0  0  0
    2.2588   -1.1165   -3.0600 H   0  0  0  0  0  0  0  0  0  0  0  0
    3.8846   -0.5303   -1.8048 C   0  0  0  0  0  0  0  0  0  0  0  0
    4.7426   -0.5776   -2.4723 H   0  0  0  0  0  0  0  0  0  0  0  0
    3.9000   -0.1341   -0.5120 N   0  0  0  0  0  0  0  0  0  0  0  0
    4.7189    0.1649    0.0110 H   0  0  0  0  0  0  0  0  0  0  0  0
    2.6057   -0.1982   -0.0146 C   0  0  0  0  0  0  0  0  0  0  0  0
    2.2765    0.0533    0.9898 H   0  0  0  0  0  0  0  0  0  0  0  0
   -0.4874    1.2908    0.1962 C   0  0  0  0  0  0  0  0  0  0  0  0
   -1.3116    1.8673   -0.5151 O   0  0  0  0  0  0  0  0  0  0  0  0
    0.3889    1.9422    0.9708 N   0  0  0  0  0  0  0  0  0  0  0  0
    1.0197    1.3866    1.5283 H   0  0  0  0  0  0  0  0  0  0  0  0
    0.5081    3.3999    1.0720 C   0  0  0  0  0  0  0  0  0  0  0  0
    0.0188    3.7538    1.9817 H   0  0  0  0  0  0  0  0  0  0  0  0
    1.5607    3.6858    1.1098 H   0  0  0  0  0  0  0  0  0  0  0  0
    0.0459    3.8890    0.2119 H   0  0  0  0  0  0  0  0  0  0  0  0
  5  6  2  0  0  0  0
  5  7  1  0  0  0  0
  2  3  1  0  0  0  0
  2  4  1  0  0  0  0
  2  5  1  0  0  0  0
  1  2  1  0  0  0  0
 23 24  2  0  0  0  0
 23 25  1  0  0  0  0
 21 22  1  0  0  0  0
 19 20  1  0  0  0  0
 19 21  1  0  0  0  0
 17 18  1  0  0  0  0
 17 19  1  0  0  0  0
 15 16  1  0  0  0  0
 15 17  2  0  0  0  0
 14 15  1  0  0  0  0
 14 21  2  0  0  0  0
 11 12  1  0  0  0  0
 11 13  1  0  0  0  0
 11 14  1  0  0  0  0
  9 10  1  0  0  0  0
  9 11  1  0  0  0  0
  9 23  1  0  0  0  0
  7  8  1  0  0  0  0
  7  9  1  0  0  0  0
 27 28  1  0  0  0  0
 27 29  1  0  0  0  0
 27 30  1  0  0  0  0
 25 26  1  0  0  0  0
 25 27  1  0  0  0  0
M  CHG  1  15   1
M  END
$$$$
default_name
  -OEChem-02102213163D

 30 30  0     1  0  0  0  0  0999 V2000
   -3.5507   -3.2183    1.8116 H   0  0  0  0  0  0  0  0  0  0  0  0
   -3.4597   -2.3913    1.1076 C   0  0  0  0  0  0  0  0  0  0  0  0
   -4.1577   -1.6043    1.3866 H   0  0  0  0  0  0  0  0  0  0  0  0
   -3.6807   -2.7523    0.1036 H   0  0  0  0  0  0  0  0  0  0  0  0
   -2.0477   -1.8543    1.1546 C   0  0  0  0  0  0  0  0  0  0  0  0
   -1.2227   -2.3443    1.9146 O   0  0  0  0  0  0  0  0  0  0  0  0
   -1.7517   -0.8483    0.3266 N   0  0  0  0  0  0  0  0  0  0  0  0
   -2.4847   -0.5123   -0.2804 H   0  0  0  0  0  0  0  0  0  0  0  0
   -0.4117   -0.2463    0.2186 C   0  0  1  0  0  0  0  0  0  0  0  0
    0.1554   -0.5152    1.1133 H   0  0  0  0  0  0  0  0  0  0  0  0
    0.3164   -0.8780   -0.9905 C   0  0  0  0  0  0  0  0  0  0  0  0
    0.1323   -1.9553   -0.9838 H   0  0  0  0  0  0  0  0  0  0  0  0
   -0.1183   -0.4842   -1.9118 H   0  0  0  0  0  0  0  0  0  0  0  0
    1.8111   -0.6416   -1.0371 C   0  0  0  0  0  0  0  0  0  0  0  0
    2.5707   -0.5574   -2.1879 N   0  3  0  0  0  0  0  0  0  0  0  0
    2.1725   -0.5847   -3.1310 H   0  0  0  0  0  0  0  0  0  0  0  0
    3.8541   -0.3433   -1.8361 C   0  0  0  0  0  0  0  0  0  0  0  0
    4.6844   -0.2207   -2.5286 H   0  0  0  0  0  0  0  0  0  0  0  0
    3.9256   -0.2908   -0.4868 N   0  0  0  0  0  0  0  0  0  0  0  0
    4.7683   -0.1377    0.0607 H   0  0  0  0  0  0  0  0  0  0  0  0
    2.6512   -0.4765    0.0309 C   0  0  0  0  0  0  0  0  0  0  0  0
    2.3651   -0.4893    1.0789 H   0  0  0  0  0  0  0  0  0  0  0  0
   -0.4874    1.2908    0.1962 C   0  0  0  0  0  0  0  0  0  0  0  0
   -1.3116    1.8673   -0.5151 O   0  0  0  0  0  0  0  0  0  0  0  0
    0.3889    1.9422    0.9708 N   0  0  0  0  0  0  0  0  0  0  0  0
    1.0197    1.3866    1.5283 H   0  0  0  0  0  0  0  0  0  0  0  0
    0.5081    3.3999    1.0720 C   0  0  0  0  0  0  0  0  0  0  0  0
    0.0188    3.7538    1.9817 H   0  0  0  0  0  0  0  0  0  0  0  0
    1.5607    3.6858    1.1098 H   0  0  0  0  0  0  0  0  0  0  0  0
    0.0459    3.8890    0.2119 H   0  0  0  0  0  0  0  0  0  0  0  0
  5  6  2  0  0  0  0
  5  7  1  0  0  0  0
  2  3  1  0  0  0  0
  2  4  1  0  0  0  0
  2  5  1  0  0  0  0
  1  2  1  0  0  0  0
 23 24  2  0  0  0  0
 23 25  1  0  0  0  0
 21 22  1  0  0  0  0
 19 20  1  0  0  0  0
 19 21  1  0  0  0  0
 17 18  1  0  0  0  0
 17 19  1  0  0  0  0
 15 16  1  0  0  0  0
 15 17  2  0  0  0  0
 14 15  1  0  0  0  0
 14 21  2  0  0  0  0
 11 12  1  0  0  0  0
 11 13  1  0  0  0  0
 11 14  1  0  0  0  0
  9 10  1  0  0  0  0
  9 11  1  0  0  0  0
  9 23  1  0  0  0  0
  7  8  1  0  0  0  0
  7  9  1  0  0  0  0
 27 28  1  0  0  0  0
 27 29  1  0  0  0  0
 27 30  1  0  0  0  0
 25 26  1  0  0  0  0
 25 27  1  0  0  0  0
M  CHG  1  15   1
M  END
$$$$
default_name
  -OEChem-02102213163D

 30 30  0     1  0  0  0  0  0999 V2000
   -3.5507   -3.2183    1.8116 H   0  0  0  0  0  0  0  0  0  0  0  0
   -3.4597   -2.3913    1.1076 C   0  0  0  0  0  0  0  0  0  0  0  0
   -4.1577   -1.6043    1.3866 H   0  0  0  0  0  0  0  0  0  0  0  0
   -3.6807   -2.7523    0.1036 H   0  0  0  0  0  0  0  0  0  0  0  0
   -2.0477   -1.8543    1.1546 C   0  0  0  0  0  0  0  0  0  0  0  0
   -1.2227   -2.3443    1.9146 O   0  0  0  0  0  0  0  0  0  0  0  0
   -1.7517   -0.8483    0.3266 N   0  0  0  0  0  0  0  0  0  0  0  0
   -2.4847   -0.5123   -0.2804 H   0  0  0  0  0  0  0  0  0  0  0  0
   -0.4117   -0.2463    0.2186 C   0  0  1  0  0  0  0  0  0  0  0  0
    0.1554   -0.5152    1.1133 H   0  0  0  0  0  0  0  0  0  0  0  0
    0.3164   -0.8780   -0.9905 C   0  0  0  0  0  0  0  0  0  0  0  0
    0.1323   -1.9553   -0.9838 H   0  0  0  0  0  0  0  0  0  0  0  0
   -0.1183   -0.4842   -1.9118 H   0  0  0  0  0  0  0  0  0  0  0  0
    1.8111   -0.6416   -1.0371 C   0  0  0  0  0  0  0  0  0  0  0  0
    2.5258   -0.2680   -2.1587 N   0  3  0  0  0  0  0  0  0  0  0  0
    2.0905   -0.0522   -3.0602 H   0  0  0  0  0  0  0  0  0  0  0  0
    3.8248   -0.1544   -1.8174 C   0  0  0  0  0  0  0  0  0  0  0  0
    4.6288    0.1389   -2.4894 H   0  0  0  0  0  0  0  0  0  0  0  0
    3.9500   -0.4489   -0.5036 N   0  0  0  0  0  0  0  0  0  0  0  0
    4.8156   -0.4431    0.0295 H   0  0  0  0  0  0  0  0  0  0  0  0
    2.6947   -0.7573    0.0019 C   0  0  0  0  0  0  0  0  0  0  0  0
    2.4499   -1.0369    1.0228 H   0  0  0  0  0  0  0  0  0  0  0  0
   -0.4874    1.2908    0.1962 C   0  0  0  0  0  0  0  0  0  0  0  0
   -1.3116    1.8673   -0.5151 O   0  0  0  0  0  0  0  0  0  0  0  0
    0.3889    1.9422    0.9708 N   0  0  0  0  0  0  0  0  0  0  0  0
    1.0197    1.3866    1.5283 H   0  0  0  0  0  0  0  0  0  0  0  0
    0.5081    3.3999    1.0720 C   0  0  0  0  0  0  0  0  0  0  0  0
    0.0188    3.7538    1.9817 H   0  0  0  0  0  0  0  0  0  0  0  0
    1.5607    3.6858    1.1098 H   0  0  0  0  0  0  0  0  0  0  0  0
    0.0459    3.8890    0.2119 H   0  0  0  0  0  0  0  0  0  0  0  0
  5  6  2  0  0  0  0
  5  7  1  0  0  0  0
  2  3  1  0  0  0  0
  2  4  1  0  0  0  0
  2  5  1  0  0  0  0
  1  2  1  0  0  0  0
 23 24  2  0  0  0  0
 23 25  1  0  0  0  0
 21 22  1  0  0  0  0
 19 20  1  0  0  0  0
 19 21  1  0  0  0  0
 17 18  1  0  0  0  0
 17 19  1  0  0  0  0
 15 16  1  0  0  0  0
 15 17  2  0  0  0  0
 14 15  1  0  0  0  0
 14 21  2  0  0  0  0
 11 12  1  0  0  0  0
 11 13  1  0  0  0  0
 11 14  1  0  0  0  0
  9 10  1  0  0  0  0
  9 11  1  0  0  0  0
  9 23  1  0  0  0  0
  7  8  1  0  0  0  0
  7  9  1  0  0  0  0
 27 28  1  0  0  0  0
 27 29  1  0  0  0  0
 27 30  1  0  0  0  0
 25 26  1  0  0  0  0
 25 27  1  0  0  0  0
M  CHG  1  15   1
M  END
$$$$
default_name
  -OEChem-02102213163D

 30 30  0     1  0  0  0  0  0999 V2000
   -3.5507   -3.2183    1.8116 H   0  0  0  0  0  0  0  0  0  0  0  0
   -3.4597   -2.3913    1.1076 C   0  0  0  0  0  0  0  0  0  0  0  0
   -4.1577   -1.6043    1.3866 H   0  0  0  0  0  0  0  0  0  0  0  0
   -3.6807   -2.7523    0.1036 H   0  0  0  0  0  0  0  0  0  0  0  0
   -2.0477   -1.8543    1.1546 C   0  0  0  0  0  0  0  0  0  0  0  0
   -1.2227   -2.3443    1.9146 O   0  0  0  0  0  0  0  0  0  0  0  0
   -1.7517   -0.8483    0.3266 N   0  0  0  0  0  0  0  0  0  0  0  0
   -2.4847   -0.5123   -0.2804 H   0  0  0  0  0  0  0  0  0  0  0  0
   -0.4117   -0.2463    0.2186 C   0  0  1  0  0  0  0  0  0  0  0  0
    0.1554   -0.5152    1.1133 H   0  0  0  0  0  0  0  0  0  0  0  0
    0.3164   -0.8780   -0.9905 C   0  0  0  0  0  0  0  0  0  0  0  0
    0.1323   -1.9553   -0.9838 H   0  0  0  0  0  0  0  0  0  0  0  0
   -0.1183   -0.4842   -1.9118 H   0  0  0  0  0  0  0  0  0  0  0  0
    1.8111   -0.6416   -1.0371 C   0  0  0  0  0  0  0  0  0  0  0  0
    2.4860    0.0044   -2.0547 N   0  3  0  0  0  0  0  0  0  0  0  0
    2.0184    0.4447   -2.8524 H   0  0  0  0  0  0  0  0  0  0  0  0
    3.7987    0.0235   -1.7499 C   0  0  0  0  0  0  0  0  0  0  0  0
    4.5795    0.4767   -2.3575 H   0  0  0  0  0  0  0  0  0  0  0  0
    3.9717   -0.5974   -0.5612 N   0  0  0  0  0  0  0  0  0  0  0  0
    4.8576   -0.7305   -0.0807 H   0  0  0  0  0  0  0  0  0  0  0  0
    2.7333   -1.0215   -0.0997 C   0  0  0  0  0  0  0  0  0  0  0  0
    2.5253   -1.5521    0.8253 H   0  0  0  0  0  0  0  0  0  0  0  0
   -0.4874    1.2908    0.1962 C   0  0  0  0  0  0  0  0  0  0  0  0
   -1.3116    1.8673   -0.5151 O   0  0  0  0  0  0  0  0  0  0  0  0
    0.3889    1.9422    0.9708 N   0  0  0  0  0  0  0  0  0  0  0  0
    1.0197    1.3866    1.5283 H   0  0  0  0  0  0  0  0  0  0  0  0
    0.5081    3.3999    1.0720 C   0  0  0  0  0  0  0  0  0  0  0  0
    0.0188    3.7538    1.9817 H   0  0  0  0  0  0  0  0  0  0  0  0
    1.5607    3.6858    1.1098 H   0  0  0  0  0  0  0  0  0  0  0  0
    0.0459    3.8890    0.2119 H   0  0  0  0  0  0  0  0  0  0  0  0
  5  6  2  0  0  0  0
  5  7  1  0  0  0  0
  2  3  1  0  0  0  0
  2  4  1  0  0  0  0
  2  5  1  0  0  0  0
  1  2  1  0  0  0  0
 23 24  2  0  0  0  0
 23 25  1  0  0  0  0
 21 22  1  0  0  0  0
 19 20  1  0  0  0  0
 19 21  1  0  0  0  0
 17 18  1  0  0  0  0
 17 19  1  0  0  0  0
 15 16  1  0  0  0  0
 15 17  2  0  0  0  0
 14 15  1  0  0  0  0
 14 21  2  0  0  0  0
 11 12  1  0  0  0  0
 11 13  1  0  0  0  0
 11 14  1  0  0  0  0
  9 10  1  0  0  0  0
  9 11  1  0  0  0  0
  9 23  1  0  0  0  0
  7  8  1  0  0  0  0
  7  9  1  0  0  0  0
 27 28  1  0  0  0  0
 27 29  1  0  0  0  0
 27 30  1  0  0  0  0
 25 26  1  0  0  0  0
 25 27  1  0  0  0  0
M  CHG  1  15   1
M  END
$$$$
default_name
  -OEChem-02102213163D

 30 30  0     1  0  0  0  0  0999 V2000
   -3.5507   -3.2183    1.8116 H   0  0  0  0  0  0  0  0  0  0  0  0
   -3.4597   -2.3913    1.1076 C   0  0  0  0  0  0  0  0  0  0  0  0
   -4.1577   -1.6043    1.3866 H   0  0  0  0  0  0  0  0  0  0  0  0
   -3.6807   -2.7523    0.1036 H   0  0  0  0  0  0  0  0  0  0  0  0
   -2.0477   -1.8543    1.1546 C   0  0  0  0  0  0  0  0  0  0  0  0
   -1.2227   -2.3443    1.9146 O   0  0  0  0  0  0  0  0  0  0  0  0
   -1.7517   -0.8483    0.3266 N   0  0  0  0  0  0  0  0  0  0  0  0
   -2.4847   -0.5123   -0.2804 H   0  0  0  0  0  0  0  0  0  0  0  0
   -0.4117   -0.2463    0.2186 C   0  0  1  0  0  0  0  0  0  0  0  0
    0.1554   -0.5152    1.1133 H   0  0  0  0  0  0  0  0  0  0  0  0
    0.3164   -0.8780   -0.9905 C   0  0  0  0  0  0  0  0  0  0  0  0
    0.1323   -1.9553   -0.9838 H   0  0  0  0  0  0  0  0  0  0  0  0
   -0.1183   -0.4842   -1.9118 H   0  0  0  0  0  0  0  0  0  0  0  0
    1.8111   -0.6416   -1.0371 C   0  0  0  0  0  0  0  0  0  0  0  0
    2.4538    0.2413   -1.8831 N   0  3  0  0  0  0  0  0  0  0  0  0
    1.9610    0.8722   -2.5217 H   0  0  0  0  0  0  0  0  0  0  0  0
    3.7777    0.1783   -1.6382 C   0  0  0  0  0  0  0  0  0  0  0  0
    4.5398    0.7697   -2.1417 H   0  0  0  0  0  0  0  0  0  0  0  0
    3.9892   -0.7264   -0.6557 N   0  0  0  0  0  0  0  0  0  0  0  0
    4.8915   -0.9803   -0.2622 H   0  0  0  0  0  0  0  0  0  0  0  0
    2.7644   -1.2510   -0.2668 C   0  0  0  0  0  0  0  0  0  0  0  0
    2.5860   -2.0000    0.4998 H   0  0  0  0  0  0  0  0  0  0  0  0
   -0.4874    1.2908    0.1962 C   0  0  0  0  0  0  0  0  0  0  0  0
   -1.3116    1.8673   -0.5151 O   0  0  0  0  0  0  0  0  0  0  0  0
    0.3889    1.9422    0.9708 N   0  0  0  0  0  0  0  0  0  0  0  0
    1.0197    1.3866    1.5283 H   0  0  0  0  0  0  0  0  0  0  0  0
    0.5081    3.3999    1.0720 C   0  0  0  0  0  0  0  0  0  0  0  0
    0.0188    3.7538    1.9817 H   0  0  0  0  0  0  0  0  0  0  0  0
    1.5607    3.6858    1.1098 H   0  0  0  0  0  0  0  0  0  0  0  0
    0.0459    3.8890    0.2119 H   0  0  0  0  0  0  0  0  0  0  0  0
  5  6  2  0  0  0  0
  5  7  1  0  0  0  0
  2  3  1  0  0  0  0
  2  4  1  0  0  0  0
  2  5  1  0  0  0  0
  1  2  1  0  0  0  0
 23 24  2  0  0  0  0
 23 25  1  0  0  0  0
 21 22  1  0  0  0  0
 19 20  1  0  0  0  0
 19 21  1  0  0  0  0
 17 18  1  0  0  0  0
 17 19  1  0  0  0  0
 15 16  1  0  0  0  0
 15 17  2  0  0  0  0
 14 15  1  0  0  0  0
 14 21  2  0  0  0  0
 11 12  1  0  0  0  0
 11 13  1  0  0  0  0
 11 14  1  0  0  0  0
  9 10  1  0  0  0  0
  9 11  1  0  0  0  0
  9 23  1  0  0  0  0
  7  8  1  0  0  0  0
  7  9  1  0  0  0  0
 27 28  1  0  0  0  0
 27 29  1  0  0  0  0
 27 30  1  0  0  0  0
 25 26  1  0  0  0  0
 25 27  1  0  0  0  0
M  CHG  1  15   1
M  END
$$$$
default_name
  -OEChem-02102213163D

 30 30  0     1  0  0  0  0  0999 V2000
   -3.5507   -3.2183    1.8116 H   0  0  0  0  0  0  0  0  0  0  0  0
   -3.4597   -2.3913    1.1076 C   0  0  0  0  0  0  0  0  0  0  0  0
   -4.1577   -1.6043    1.3866 H   0  0  0  0  0  0  0  0  0  0  0  0
   -3.6807   -2.7523    0.1036 H   0  0  0  0  0  0  0  0  0  0  0  0
   -2.0477   -1.8543    1.1546 C   0  0  0  0  0  0  0  0  0  0  0  0
   -1.2227   -2.3443    1.9146 O   0  0  0  0  0  0  0  0  0  0  0  0
   -1.7517   -0.8483    0.3266 N   0  0  0  0  0  0  0  0  0  0  0  0
   -2.4847   -0.5123   -0.2804 H   0  0  0  0  0  0  0  0  0  0  0  0
   -0.4117   -0.2463    0.2186 C   0  0  1  0  0  0  0  0  0  0  0  0
    0.1554   -0.5152    1.1133 H   0  0  0  0  0  0  0  0  0  0  0  0
    0.3164   -0.8780   -0.9905 C   0  0  0  0  0  0  0  0  0  0  0  0
    0.1323   -1.9553   -0.9838 H   0  0  0  0  0  0  0  0  0  0  0  0
   -0.1183   -0.4842   -1.9118 H   0  0  0  0  0  0  0  0  0  0  0  0
    1.8111   -0.6416   -1.0371 C   0  0  0  0  0  0  0  0  0  0  0  0
    2.4316    0.4265   -1.6555 N   0  3  0  0  0  0  0  0  0  0  0  0
    1.9224    1.2011   -2.0909 H   0  0  0  0  0  0  0  0  0  0  0  0
    3.7632    0.2994   -1.4899 C   0  0  0  0  0  0  0  0  0  0  0  0
    4.5126    0.9978   -1.8568 H   0  0  0  0  0  0  0  0  0  0  0  0
    4.0012   -0.8270   -0.7806 N   0  0  0  0  0  0  0  0  0  0  0  0
    4.9149   -1.1755   -0.5028 H   0  0  0  0  0  0  0  0  0  0  0  0
    2.7859   -1.4303   -0.4882 C   0  0  0  0  0  0  0  0  0  0  0  0
    2.6279   -2.3499    0.0685 H   0  0  0  0  0  0  0  0  0  0  0  0
   -0.4874    1.2908    0.1962 C   0  0  0  0  0  0  0  0  0  0  0  0
   -1.3116    1.8673   -0.5151 O   0  0  0  0  0  0  0  0  0  0  0  0
    0.3889    1.9422    0.9708 N   0  0  0  0  0  0  0  0  0  0  0  0
    1.0197    1.3866    1.5283 H   0  0  0  0  0  0  0  0  0  0  0  0
    0.5081    3.3999    1.0720 C   0  0  0  0  0  0  0  0  0  0  0  0
    0.0188    3.7538    1.9817 H   0  0  0  0  0  0  0  0  0  0  0  0
    1.5607    3.6858    1.1098 H   0  0  0  0  0  0  0  0  0  0  0  0
    0.0459    3.8890    0.2119 H   0  0  0  0  0  0  0  0  0  0  0  0
  5  6  2  0  0  0  0
  5  7  1  0  0  0  0
  2  3  1  0  0  0  0
  2  4  1  0  0  0  0
  2  5  1  0  0  0  0
  1  2  1  0  0  0  0
 23 24  2  0  0  0  0
 23 25  1  0  0  0  0
 21 22  1  0  0  0  0
 19 20  1  0  0  0  0
 19 21  1  0  0  0  0
 17 18  1  0  0  0  0
 17 19  1  0  0  0  0
 15 16  1  0  0  0  0
 15 17  2  0  0  0  0
 14 15  1  0  0  0  0
 14 21  2  0  0  0  0
 11 12  1  0  0  0  0
 11 13  1  0  0  0  0
 11 14  1  0  0  0  0
  9 10  1  0  0  0  0
  9 11  1  0  0  0  0
  9 23  1  0  0  0  0
  7  8  1  0  0  0  0
  7  9  1  0  0  0  0
 27 28  1  0  0  0  0
 27 29  1  0  0  0  0
 27 30  1  0  0  0  0
 25 26  1  0  0  0  0
 25 27  1  0  0  0  0
M  CHG  1  15   1
M  END
$$$$
default_name
  -OEChem-02102213163D

 30 30  0     1  0  0  0  0  0999 V2000
   -3.5507   -3.2183    1.8116 H   0  0  0  0  0  0  0  0  0  0  0  0
   -3.4597   -2.3913    1.1076 C   0  0  0  0  0  0  0  0  0  0  0  0
   -4.1577   -1.6043    1.3866 H   0  0  0  0  0  0  0  0  0  0  0  0
   -3.6807   -2.7523    0.1036 H   0  0  0  0  0  0  0  0  0  0  0  0
   -2.0477   -1.8543    1.1546 C   0  0  0  0  0  0  0  0  0  0  0  0
   -1.2227   -2.3443    1.9146 O   0  0  0  0  0  0  0  0  0  0  0  0
   -1.7517   -0.8483    0.3266 N   0  0  0  0  0  0  0  0  0  0  0  0
   -2.4847   -0.5123   -0.2804 H   0  0  0  0  0  0  0  0  0  0  0  0
   -0.4117   -0.2463    0.2186 C   0  0  1  0  0  0  0  0  0  0  0  0
    0.1554   -0.5152    1.1133 H   0  0  0  0  0  0  0  0  0  0  0  0
    0.3164   -0.8780   -0.9905 C   0  0  0  0  0  0  0  0  0  0  0  0
    0.1323   -1.9553   -0.9838 H   0  0  0  0  0  0  0  0  0  0  0  0
   -0.1183   -0.4842   -1.9118 H   0  0  0  0  0  0  0  0  0  0  0  0
    1.8111   -0.6416   -1.0371 C   0  0  0  0  0  0  0  0  0  0  0  0
    2.4209    0.5475   -1.3874 N   0  3  0  0  0  0  0  0  0  0  0  0
    1.9052    1.4090   -1.5891 H   0  0  0  0  0  0  0  0  0  0  0  0
    3.7561    0.3786   -1.3151 C   0  0  0  0  0  0  0  0  0  0  0  0
    4.4997    1.1456   -1.5222 H   0  0  0  0  0  0  0  0  0  0  0  0
    4.0070   -0.8923   -0.9275 N   0  0  0  0  0  0  0  0  0  0  0  0
    4.9262   -1.3028   -0.7859 H   0  0  0  0  0  0  0  0  0  0  0  0
    2.7962   -1.5470   -0.7487 C   0  0  0  0  0  0  0  0  0  0  0  0
    2.6482   -2.5780   -0.4392 H   0  0  0  0  0  0  0  0  0  0  0  0
   -0.4874    1.2908    0.1962 C   0  0  0  0  0  0  0  0  0  0  0  0
   -1.3116    1.8673   -0.5151 O   0  0  0  0  0  0  0  0  0  0  0  0
    0.3889    1.9422    0.9708 N   0  0  0  0  0  0  0  0  0  0  0  0
    1.0197    1.3866    1.5283 H   0  0  0  0  0  0  0  0  0  0  0  0
    0.5081    3.3999    1.0720 C   0  0  0  0  0  0  0  0  0  0  0  0
    0.0188    3.7538    1.9817 H   0  0  0  0  0  0  0  0  0  0  0  0
    1.5607    3.6858    1.1098 H   0  0  0  0  0  0  0  0  0  0  0  0
    0.0459    3.8890    0.2119 H   0  0  0  0  0  0  0  0  0  0  0  0
  5  6  2  0  0  0  0
  5  7  1  0  0  0  0
  2  3  1  0  0  0  0
  2  4  1  0  0  0  0
  2  5  1  0  0  0  0
  1  2  1  0  0  0  0
 23 24  2  0  0  0  0
 23 25  1  0  0  0  0
 21 22  1  0  0  0  0
 19 20  1  0  0  0  0
 19 21  1  0  0  0  0
 17 18  1  0  0  0  0
 17 19  1  0  0  0  0
 15 16  1  0  0  0  0
 15 17  2  0  0  0  0
 14 15  1  0  0  0  0
 14 21  2  0  0  0  0
 11 12  1  0  0  0  0
 11 13  1  0  0  0  0
 11 14  1  0  0  0  0
  9 10  1  0  0  0  0
  9 11  1  0  0  0  0
  9 23  1  0  0  0  0
  7  8  1  0  0  0  0
  7  9  1  0  0  0  0
 27 28  1  0  0  0  0
 27 29  1  0  0  0  0
 27 30  1  0  0  0  0
 25 26  1  0  0  0  0
 25 27  1  0  0  0  0
M  CHG  1  15   1
M  END
$$$$
default_name
  -OEChem-02102213163D

 30 30  0     1  0  0  0  0  0999 V2000
   -3.5507   -3.2183    1.8116 H   0  0  0  0  0  0  0  0  0  0  0  0
   -3.4597   -2.3913    1.1076 C   0  0  0  0  0  0  0  0  0  0  0  0
   -4.1577   -1.6043    1.3866 H   0  0  0  0  0  0  0  0  0  0  0  0
   -3.6807   -2.7523    0.1036 H   0  0  0  0  0  0  0  0  0  0  0  0
   -2.0477   -1.8543    1.1546 C   0  0  0  0  0  0  0  0  0  0  0  0
   -1.2227   -2.3443    1.9146 O   0  0  0  0  0  0  0  0  0  0  0  0
   -1.7517   -0.8483    0.3266 N   0  0  0  0  0  0  0  0  0  0  0  0
   -2.4847   -0.5123   -0.2804 H   0  0  0  0  0  0  0  0  0  0  0  0
   -0.4117   -0.2463    0.2186 C   0  0  1  0  0  0  0  0  0  0  0  0
    0.1554   -0.5152    1.1133 H   0  0  0  0  0  0  0  0  0  0  0  0
    0.3164   -0.8780   -0.9905 C   0  0  0  0  0  0  0  0  0  0  0  0
    0.1323   -1.9553   -0.9838 H   0  0  0  0  0  0  0  0  0  0  0  0
   -0.1183   -0.4842   -1.9118 H   0  0  0  0  0  0  0  0  0  0  0  0
    1.8111   -0.6416   -1.0371 C   0  0  0  0  0  0  0  0  0  0  0  0
    2.4222    0.5959   -1.0971 N   0  3  0  0  0  0  0  0  0  0  0  0
    1.9104    1.4817   -1.0506 H   0  0  0  0  0  0  0  0  0  0  0  0
    3.7570    0.4105   -1.1257 C   0  0  0  0  0  0  0  0  0  0  0  0
    4.5018    1.2030   -1.1608 H   0  0  0  0  0  0  0  0  0  0  0  0
    4.0061   -0.9179   -1.0862 N   0  0  0  0  0  0  0  0  0  0  0  0
    4.9247   -1.3534   -1.0924 H   0  0  0  0  0  0  0  0  0  0  0  0
    2.7948   -1.5933   -1.0305 C   0  0  0  0  0  0  0  0  0  0  0  0
    2.6454   -2.6687   -0.9887 H   0  0  0  0  0  0  0  0  0  0  0  0
   -0.4874    1.2908    0.1962 C   0  0  0  0  0  0  0  0  0  0  0  0
   -1.3116    1.8673   -0.5151 O   0  0  0  0  0  0  0  0  0  0  0  0
    0.3889    1.9422    0.9708 N   0  0  0  0  0  0  0  0  0  0  0  0
    1.0197    1.3866    1.5283 H   0  0  0  0  0  0  0  0  0  0  0  0
    0.5081    3.3999    1.0720 C   0  0  0  0  0  0  0  0  0  0  0  0
    0.0188    3.7538    1.9817 H   0  0  0  0  0  0  0  0  0  0  0  0
    1.5607    3.6858    1.1098 H   0  0  0  0  0  0  0  0  0  0  0  0
    0.0459    3.8890    0.2119 H   0  0  0  0  0  0  0  0  0  0  0  0
  5  6  2  0  0  0  0
  5  7  1  0  0  0  0
  2  3  1  0  0  0  0
  2  4  1  0  0  0  0
  2  5  1  0  0  0  0
  1  2  1  0  0  0  0
 23 24  2  0  0  0  0
 23 25  1  0  0  0  0
 21 22  1  0  0  0  0
 19 20  1  0  0  0  0
 19 21  1  0  0  0  0
 17 18  1  0  0  0  0
 17 19  1  0  0  0  0
 15 16  1  0  0  0  0
 15 17  2  0  0  0  0
 14 15  1  0  0  0  0
 14 21  2  0  0  0  0
 11 12  1  0  0  0  0
 11 13  1  0  0  0  0
 11 14  1  0  0  0  0
  9 10  1  0  0  0  0
  9 11  1  0  0  0  0
  9 23  1  0  0  0  0
  7  8  1  0  0  0  0
  7  9  1  0  0  0  0
 27 28  1  0  0  0  0
 27 29  1  0  0  0  0
 27 30  1  0  0  0  0
 25 26  1  0  0  0  0
 25 27  1  0  0  0  0
M  CHG  1  15   1
M  END
$$$$
default_name
  -OEChem-02102213163D

 30 30  0     1  0  0  0  0  0999 V2000
   -3.5507   -3.2183    1.8116 H   0  0  0  0  0  0  0  0  0  0  0  0
   -3.4597   -2.3913    1.1076 C   0  0  0  0  0  0  0  0  0  0  0  0
   -4.1577   -1.6043    1.3866 H   0  0  0  0  0  0  0  0  0  0  0  0
   -3.6807   -2.7523    0.1036 H   0  0  0  0  0  0  0  0  0  0  0  0
   -2.0477   -1.8543    1.1546 C   0  0  0  0  0  0  0  0  0  0  0  0
   -1.2227   -2.3443    1.9146 O   0  0  0  0  0  0  0  0  0  0  0  0
   -1.7517   -0.8483    0.3266 N   0  0  0  0  0  0  0  0  0  0  0  0
   -2.4847   -0.5123   -0.2804 H   0  0  0  0  0  0  0  0  0  0  0  0
   -0.4117   -0.2463    0.2186 C   0  0  1  0  0  0  0  0  0  0  0  0
    0.1554   -0.5152    1.1133 H   0  0  0  0  0  0  0  0  0  0  0  0
    0.3164   -0.8780   -0.9905 C   0  0  0  0  0  0  0  0  0  0  0  0
    0.1323   -1.9553   -0.9838 H   0  0  0  0  0  0  0  0  0  0  0  0
   -0.1183   -0.4842   -1.9118 H   0  0  0  0  0  0  0  0  0  0  0  0
    1.8111   -0.6416   -1.0371 C   0  0  0  0  0  0  0  0  0  0  0  0
    2.4357    0.5684   -0.8044 N   0  3  0  0  0  0  0  0  0  0  0  0
    1.9379    1.4143   -0.5120 H   0  0  0  0  0  0  0  0  0  0  0  0
    3.7657    0.3930   -0.9347 C   0  0  0  0  0  0  0  0  0  0  0  0
    4.5190    1.1660   -0.7971 H   0  0  0  0  0  0  0  0  0  0  0  0
    3.9986   -0.9021   -1.2461 N   0  0  0  0  0  0  0  0  0  0  0  0
    4.9104   -1.3240   -1.4013 H   0  0  0  0  0  0  0  0  0  0  0  0
    2.7816   -1.5660   -1.3145 C   0  0  0  0  0  0  0  0  0  0  0  0
    2.6198   -2.6159   -1.5426 H   0  0  0  0  0  0  0  0  0  0  0  0
   -0.4874    1.2908    0.1962 C   0  0  0  0  0  0  0  0  0  0  0  0
   -1.3116    1.8673   -0.5151 O   0  0  0  0  0  0  0  0  0  0  0  0
    0.3889    1.9422    0.9708 N   0  0  0  0  0  0  0  0  0  0  0  0
    1.0197    1.3866    1.5283 H   0  0  0  0  0  0  0  0  0  0  0  0
    0.5081    3.3999    1.0720 C   0  0  0  0  0  0  0  0  0  0  0  0
    0.0188    3.7538    1.9817 H   0  0  0  0  0  0  0  0  0  0  0  0
    1.5607    3.6858    1.1098 H   0  0  0  0  0  0  0  0  0  0  0  0
    0.0459    3.8890    0.2119 H   0  0  0  0  0  0  0  0  0  0  0  0
  5  6  2  0  0  0  0
  5  7  1  0  0  0  0
  2  3  1  0  0  0  0
  2  4  1  0  0  0  0
  2  5  1  0  0  0  0
  1  2  1  0  0  0  0
 23 24  2  0  0  0  0
 23 25  1  0  0  0  0
 21 22  1  0  0  0  0
 19 20  1  0  0  0  0
 19 21  1  0  0  0  0
 17 18  1  0  0  0  0
 17 19  1  0  0  0  0
 15 16  1  0  0  0  0
 15 17  2  0  0  0  0
 14 15  1  0  0  0  0
 14 21  2  0  0  0  0
 11 12  1  0  0  0  0
 11 13  1  0  0  0  0
 11 14  1  0  0  0  0
  9 10  1  0  0  0  0
  9 11  1  0  0  0  0
  9 23  1  0  0  0  0
  7  8  1  0  0  0  0
  7  9  1  0  0  0  0
 27 28  1  0  0  0  0
 27 29  1  0  0  0  0
 27 30  1  0  0  0  0
 25 26  1  0  0  0  0
 25 27  1  0  0  0  0
M  CHG  1  15   1
M  END
$$$$
default_name
  -OEChem-02102213163D

 30 30  0     1  0  0  0  0  0999 V2000
   -3.5507   -3.2183    1.8116 H   0  0  0  0  0  0  0  0  0  0  0  0
   -3.4597   -2.3913    1.1076 C   0  0  0  0  0  0  0  0  0  0  0  0
   -4.1577   -1.6043    1.3866 H   0  0  0  0  0  0  0  0  0  0  0  0
   -3.6807   -2.7523    0.1036 H   0  0  0  0  0  0  0  0  0  0  0  0
   -2.0477   -1.8543    1.1546 C   0  0  0  0  0  0  0  0  0  0  0  0
   -1.2227   -2.3443    1.9146 O   0  0  0  0  0  0  0  0  0  0  0  0
   -1.7517   -0.8483    0.3266 N   0  0  0  0  0  0  0  0  0  0  0  0
   -2.4847   -0.5123   -0.2804 H   0  0  0  0  0  0  0  0  0  0  0  0
   -0.4117   -0.2463    0.2186 C   0  0  1  0  0  0  0  0  0  0  0  0
    0.1554   -0.5152    1.1133 H   0  0  0  0  0  0  0  0  0  0  0  0
    0.3164   -0.8780   -0.9905 C   0  0  0  0  0  0  0  0  0  0  0  0
    0.1323   -1.9553   -0.9838 H   0  0  0  0  0  0  0  0  0  0  0  0
   -0.1183   -0.4842   -1.9118 H   0  0  0  0  0  0  0  0  0  0  0  0
    1.8111   -0.6416   -1.0371 C   0  0  0  0  0  0  0  0  0  0  0  0
    2.4603    0.4670   -0.5292 N   0  3  0  0  0  0  0  0  0  0  0  0
    1.9856    1.2113   -0.0102 H   0  0  0  0  0  0  0  0  0  0  0  0
    3.7817    0.3271   -0.7550 C   0  0  0  0  0  0  0  0  0  0  0  0
    4.5500    1.0372   -0.4559 H   0  0  0  0  0  0  0  0  0  0  0  0
    3.9850   -0.8459   -1.3962 N   0  0  0  0  0  0  0  0  0  0  0  0
    4.8844   -1.2166   -1.6917 H   0  0  0  0  0  0  0  0  0  0  0  0
    2.7576   -1.4670   -1.5814 C   0  0  0  0  0  0  0  0  0  0  0  0
    2.5731   -2.4232   -2.0630 H   0  0  0  0  0  0  0  0  0  0  0  0
   -0.4874    1.2908    0.1962 C   0  0  0  0  0  0  0  0  0  0  0  0
   -1.3116    1.8673   -0.5151 O   0  0  0  0  0  0  0  0  0  0  0  0
    0.3889    1.9422    0.9708 N   0  0  0  0  0  0  0  0  0  0  0  0
    1.0197    1.3866    1.5283 H   0  0  0  0  0  0  0  0  0  0  0  0
    0.5081    3.3999    1.0720 C   0  0  0  0  0  0  0  0  0  0  0  0
    0.0188    3.7538    1.9817 H   0  0  0  0  0  0  0  0  0  0  0  0
    1.5607    3.6858    1.1098 H   0  0  0  0  0  0  0  0  0  0  0  0
    0.0459    3.8890    0.2119 H   0  0  0  0  0  0  0  0  0  0  0  0
  5  6  2  0  0  0  0
  5  7  1  0  0  0  0
  2  3  1  0  0  0  0
  2  4  1  0  0  0  0
  2  5  1  0  0  0  0
  1  2  1  0  0  0  0
 23 24  2  0  0  0  0
 23 25  1  0  0  0  0
 21 22  1  0  0  0  0
 19 20  1  0  0  0  0
 19 21  1  0  0  0  0
 17 18  1  0  0  0  0
 17 19  1  0  0  0  0
 15 16  1  0  0  0  0
 15 17  2  0  0  0  0
 14 15  1  0  0  0  0
 14 21  2  0  0  0  0
 11 12  1  0  0  0  0
 11 13  1  0  0  0  0
 11 14  1  0  0  0  0
  9 10  1  0  0  0  0
  9 11  1  0  0  0  0
  9 23  1  0  0  0  0
  7  8  1  0  0  0  0
  7  9  1  0  0  0  0
 27 28  1  0  0  0  0
 27 29  1  0  0  0  0
 27 30  1  0  0  0  0
 25 26  1  0  0  0  0
 25 27  1  0  0  0  0
M  CHG  1  15   1
M  END
$$$$
default_name
  -OEChem-02102213163D

 30 30  0     1  0  0  0  0  0999 V2000
   -3.5507   -3.2183    1.8116 H   0  0  0  0  0  0  0  0  0  0  0  0
   -3.4597   -2.3913    1.1076 C   0  0  0  0  0  0  0  0  0  0  0  0
   -4.1577   -1.6043    1.3866 H   0  0  0  0  0  0  0  0  0  0  0  0
   -3.6807   -2.7523    0.1036 H   0  0  0  0  0  0  0  0  0  0  0  0
   -2.0477   -1.8543    1.1546 C   0  0  0  0  0  0  0  0  0  0  0  0
   -1.2227   -2.3443    1.9146 O   0  0  0  0  0  0  0  0  0  0  0  0
   -1.7517   -0.8483    0.3266 N   0  0  0  0  0  0  0  0  0  0  0  0
   -2.4847   -0.5123   -0.2804 H   0  0  0  0  0  0  0  0  0  0  0  0
   -0.4117   -0.2463    0.2186 C   0  0  1  0  0  0  0  0  0  0  0  0
    0.1554   -0.5152    1.1133 H   0  0  0  0  0  0  0  0  0  0  0  0
    0.3164   -0.8780   -0.9905 C   0  0  0  0  0  0  0  0  0  0  0  0
    0.1323   -1.9553   -0.9838 H   0  0  0  0  0  0  0  0  0  0  0  0
   -0.1183   -0.4842   -1.9118 H   0  0  0  0  0  0  0  0  0  0  0  0
    1.8111   -0.6416   -1.0371 C   0  0  0  0  0  0  0  0  0  0  0  0
    2.4944    0.2986   -0.2903 N   0  3  0  0  0  0  0  0  0  0  0  0
    2.0503    0.8867    0.4208 H   0  0  0  0  0  0  0  0  0  0  0  0
    3.8039    0.2175   -0.5989 C   0  0  0  0  0  0  0  0  0  0  0  0
    4.5927    0.8254   -0.1605 H   0  0  0  0  0  0  0  0  0  0  0  0
    3.9663   -0.7532   -1.5262 N   0  0  0  0  0  0  0  0  0  0  0  0
    4.8483   -1.0384   -1.9436 H   0  0  0  0  0  0  0  0  0  0  0  0
    2.7245   -1.3029   -1.8128 C   0  0  0  0  0  0  0  0  0  0  0  0
    2.5085   -2.1037   -2.5147 H   0  0  0  0  0  0  0  0  0  0  0  0
   -0.4874    1.2908    0.1962 C   0  0  0  0  0  0  0  0  0  0  0  0
   -1.3116    1.8673   -0.5151 O   0  0  0  0  0  0  0  0  0  0  0  0
    0.3889    1.9422    0.9708 N   0  0  0  0  0  0  0  0  0  0  0  0
    1.0197    1.3866    1.5283 H   0  0  0  0  0  0  0  0  0  0  0  0
    0.5081    3.3999    1.0720 C   0  0  0  0  0  0  0  0  0  0  0  0
    0.0188    3.7538    1.9817 H   0  0  0  0  0  0  0  0  0  0  0  0
    1.5607    3.6858    1.1098 H   0  0  0  0  0  0  0  0  0  0  0  0
    0.0459    3.8890    0.2119 H   0  0  0  0  0  0  0  0  0  0  0  0
  5  6  2  0  0  0  0
  5  7  1  0  0  0  0
  2  3  1  0  0  0  0
  2  4  1  0  0  0  0
  2  5  1  0  0  0  0
  1  2  1  0  0  0  0
 23 24  2  0  0  0  0
 23 25  1  0  0  0  0
 21 22  1  0  0  0  0
 19 20  1  0  0  0  0
 19 21  1  0  0  0  0
 17 18  1  0  0  0  0
 17 19  1  0  0  0  0
 15 16  1  0  0  0  0
 15 17  2  0  0  0  0
 14 15  1  0  0  0  0
 14 21  2  0  0  0  0
 11 12  1  0  0  0  0
 11 13  1  0  0  0  0
 11 14  1  0  0  0  0
  9 10  1  0  0  0  0
  9 11  1  0  0  0  0
  9 23  1  0  0  0  0
  7  8  1  0  0  0  0
  7  9  1  0  0  0  0
 27 28  1  0  0  0  0
 27 29  1  0  0  0  0
 27 30  1  0  0  0  0
 25 26  1  0  0  0  0
 25 27  1  0  0  0  0
M  CHG  1  15   1
M  END
$$$$
default_name
  -OEChem-02102213163D

 30 30  0     1  0  0  0  0  0999 V2000
   -3.5507   -3.2183    1.8116 H   0  0  0  0  0  0  0  0  0  0  0  0
   -3.4597   -2.3913    1.1076 C   0  0  0  0  0  0  0  0  0  0  0  0
   -4.1577   -1.6043    1.3866 H   0  0  0  0  0  0  0  0  0  0  0  0
   -3.6807   -2.7523    0.1036 H   0  0  0  0  0  0  0  0  0  0  0  0
   -2.0477   -1.8543    1.1546 C   0  0  0  0  0  0  0  0  0  0  0  0
   -1.2227   -2.3443    1.9146 O   0  0  0  0  0  0  0  0  0  0  0  0
   -1.7517   -0.8483    0.3266 N   0  0  0  0  0  0  0  0  0  0  0  0
   -2.4847   -0.5123   -0.2804 H   0  0  0  0  0  0  0  0  0  0  0  0
   -0.4117   -0.2463    0.2186 C   0  0  1  0  0  0  0  0  0  0  0  0
    0.1554   -0.5152    1.1133 H   0  0  0  0  0  0  0  0  0  0  0  0
    0.3164   -0.8780   -0.9905 C   0  0  0  0  0  0  0  0  0  0  0  0
    0.1323   -1.9553   -0.9838 H   0  0  0  0  0  0  0  0  0  0  0  0
   -0.1183   -0.4842   -1.9118 H   0  0  0  0  0  0  0  0  0  0  0  0
    1.8111   -0.6416   -1.0371 C   0  0  0  0  0  0  0  0  0  0  0  0
    2.5356    0.0745   -0.1040 N   0  3  0  0  0  0  0  0  0  0  0  0
    2.1277    0.4625    0.7515 H   0  0  0  0  0  0  0  0  0  0  0  0
    3.8308    0.0715   -0.4770 C   0  0  0  0  0  0  0  0  0  0  0  0
    4.6442    0.5450    0.0690 H   0  0  0  0  0  0  0  0  0  0  0  0
    3.9437   -0.6302   -1.6274 N   0  0  0  0  0  0  0  0  0  0  0  0
    4.8048   -0.8016   -2.1399 H   0  0  0  0  0  0  0  0  0  0  0  0
    2.6844   -1.0851   -1.9932 C   0  0  0  0  0  0  0  0  0  0  0  0
    2.4305   -1.6792   -2.8666 H   0  0  0  0  0  0  0  0  0  0  0  0
   -0.4874    1.2908    0.1962 C   0  0  0  0  0  0  0  0  0  0  0  0
   -1.3116    1.8673   -0.5151 O   0  0  0  0  0  0  0  0  0  0  0  0
    0.3889    1.9422    0.9708 N   0  0  0  0  0  0  0  0  0  0  0  0
    1.0197    1.3866    1.5283 H   0  0  0  0  0  0  0  0  0  0  0  0
    0.5081    3.3999    1.0720 C   0  0  0  0  0  0  0  0  0  0  0  0
    0.0188    3.7538    1.9817 H   0  0  0  0  0  0  0  0  0  0  0  0
    1.5607    3.6858    1.1098 H   0  0  0  0  0  0  0  0  0  0  0  0
    0.0459    3.8890    0.2119 H   0  0  0  0  0  0  0  0  0  0  0  0
  5  6  2  0  0  0  0
  5  7  1  0  0  0  0
  2  3  1  0  0  0  0
  2  4  1  0  0  0  0
  2  5  1  0  0  0  0
  1  2  1  0  0  0  0
 23 24  2  0  0  0  0
 23 25  1  0  0  0  0
 21 22  1  0  0  0  0
 19 20  1  0  0  0  0
 19 21  1  0  0  0  0
 17 18  1  0  0  0  0
 17 19  1  0  0  0  0
 15 16  1  0  0  0  0
 15 17  2  0  0  0  0
 14 15  1  0  0  0  0
 14 21  2  0  0  0  0
 11 12  1  0  0  0  0
 11 13  1  0  0  0  0
 11 14  1  0  0  0  0
  9 10  1  0  0  0  0
  9 11  1  0  0  0  0
  9 23  1  0  0  0  0
  7  8  1  0  0  0  0
  7  9  1  0  0  0  0
 27 28  1  0  0  0  0
 27 29  1  0  0  0  0
 27 30  1  0  0  0  0
 25 26  1  0  0  0  0
 25 27  1  0  0  0  0
M  CHG  1  15   1
M  END
$$$$
default_name
  -OEChem-02102213163D

 30 30  0     1  0  0  0  0  0999 V2000
   -3.5507   -3.2183    1.8116 H   0  0  0  0  0  0  0  0  0  0  0  0
   -3.4597   -2.3913    1.1076 C   0  0  0  0  0  0  0  0  0  0  0  0
   -4.1577   -1.6043    1.3866 H   0  0  0  0  0  0  0  0  0  0  0  0
   -3.6807   -2.7523    0.1036 H   0  0  0  0  0  0  0  0  0  0  0  0
   -2.0477   -1.8543    1.1546 C   0  0  0  0  0  0  0  0  0  0  0  0
   -1.2227   -2.3443    1.9146 O   0  0  0  0  0  0  0  0  0  0  0  0
   -1.7517   -0.8483    0.3266 N   0  0  0  0  0  0  0  0  0  0  0  0
   -2.4847   -0.5123   -0.2804 H   0  0  0  0  0  0  0  0  0  0  0  0
   -0.4117   -0.2463    0.2186 C   0  0  1  0  0  0  0  0  0  0  0  0
    0.1554   -0.5152    1.1133 H   0  0  0  0  0  0  0  0  0  0  0  0
    0.3164   -0.8780   -0.9905 C   0  0  0  0  0  0  0  0  0  0  0  0
    0.1323   -1.9553   -0.9838 H   0  0  0  0  0  0  0  0  0  0  0  0
   -0.1183   -0.4842   -1.9118 H   0  0  0  0  0  0  0  0  0  0  0  0
    1.8111   -0.6416   -1.0371 C   0  0  0  0  0  0  0  0  0  0  0  0
    2.5812   -0.1898    0.0171 N   0  3  0  0  0  0  0  0  0  0  0  0
    2.2125   -0.0324    0.9594 H   0  0  0  0  0  0  0  0  0  0  0  0
    3.8605   -0.1009   -0.3977 C   0  0  0  0  0  0  0  0  0  0  0  0
    4.7010    0.2151    0.2170 H   0  0  0  0  0  0  0  0  0  0  0  0
    3.9188   -0.4854   -1.6928 N   0  0  0  0  0  0  0  0  0  0  0  0
    4.7567   -0.5224   -2.2673 H   0  0  0  0  0  0  0  0  0  0  0  0
    2.6402   -0.8282   -2.1101 C   0  0  0  0  0  0  0  0  0  0  0  0
    2.3442   -1.1786   -3.0950 H   0  0  0  0  0  0  0  0  0  0  0  0
   -0.4874    1.2908    0.1962 C   0  0  0  0  0  0  0  0  0  0  0  0
   -1.3116    1.8673   -0.5151 O   0  0  0  0  0  0  0  0  0  0  0  0
    0.3889    1.9422    0.9708 N   0  0  0  0  0  0  0  0  0  0  0  0
    1.0197    1.3866    1.5283 H   0  0  0  0  0  0  0  0  0  0  0  0
    0.5081    3.3999    1.0720 C   0  0  0  0  0  0  0  0  0  0  0  0
    0.0188    3.7538    1.9817 H   0  0  0  0  0  0  0  0  0  0  0  0
    1.5607    3.6858    1.1098 H   0  0  0  0  0  0  0  0  0  0  0  0
    0.0459    3.8890    0.2119 H   0  0  0  0  0  0  0  0  0  0  0  0
  5  6  2  0  0  0  0
  5  7  1  0  0  0  0
  2  3  1  0  0  0  0
  2  4  1  0  0  0  0
  2  5  1  0  0  0  0
  1  2  1  0  0  0  0
 23 24  2  0  0  0  0
 23 25  1  0  0  0  0
 21 22  1  0  0  0  0
 19 20  1  0  0  0  0
 19 21  1  0  0  0  0
 17 18  1  0  0  0  0
 17 19  1  0  0  0  0
 15 16  1  0  0  0  0
 15 17  2  0  0  0  0
 14 15  1  0  0  0  0
 14 21  2  0  0  0  0
 11 12  1  0  0  0  0
 11 13  1  0  0  0  0
 11 14  1  0  0  0  0
  9 10  1  0  0  0  0
  9 11  1  0  0  0  0
  9 23  1  0  0  0  0
  7  8  1  0  0  0  0
  7  9  1  0  0  0  0
 27 28  1  0  0  0  0
 27 29  1  0  0  0  0
 27 30  1  0  0  0  0
 25 26  1  0  0  0  0
 25 27  1  0  0  0  0
M  CHG  1  15   1
M  END
$$$$
default_name
  -OEChem-02102213163D

 30 30  0     1  0  0  0  0  0999 V2000
   -3.5507   -3.2183    1.8116 H   0  0  0  0  0  0  0  0  0  0  0  0
   -3.4597   -2.3913    1.1076 C   0  0  0  0  0  0  0  0  0  0  0  0
   -4.1577   -1.6043    1.3866 H   0  0  0  0  0  0  0  0  0  0  0  0
   -3.6807   -2.7523    0.1036 H   0  0  0  0  0  0  0  0  0  0  0  0
   -2.0477   -1.8543    1.1546 C   0  0  0  0  0  0  0  0  0  0  0  0
   -1.2227   -2.3443    1.9146 O   0  0  0  0  0  0  0  0  0  0  0  0
   -1.7517   -0.8483    0.3266 N   0  0  0  0  0  0  0  0  0  0  0  0
   -2.4847   -0.5123   -0.2804 H   0  0  0  0  0  0  0  0  0  0  0  0
   -0.4117   -0.2463    0.2186 C   0  0  1  0  0  0  0  0  0  0  0  0
    0.1554   -0.5152    1.1133 H   0  0  0  0  0  0  0  0  0  0  0  0
    0.3164   -0.8780   -0.9905 C   0  0  0  0  0  0  0  0  0  0  0  0
    0.1323   -1.9553   -0.9838 H   0  0  0  0  0  0  0  0  0  0  0  0
   -0.1183   -0.4842   -1.9118 H   0  0  0  0  0  0  0  0  0  0  0  0
    1.8111   -0.6416   -1.0371 C   0  0  0  0  0  0  0  0  0  0  0  0
    2.6280   -0.4764    0.0647 N   0  3  0  0  0  0  0  0  0  0  0  0
    2.2988   -0.5642    1.0304 H   0  0  0  0  0  0  0  0  0  0  0  0
    3.8910   -0.2878   -0.3663 C   0  0  0  0  0  0  0  0  0  0  0  0
    4.7592   -0.1418    0.2733 H   0  0  0  0  0  0  0  0  0  0  0  0
    3.8932   -0.3286   -1.7179 N   0  0  0  0  0  0  0  0  0  0  0  0
    4.7073   -0.2198   -2.3171 H   0  0  0  0  0  0  0  0  0  0  0  0
    2.5947   -0.5499   -2.1555 C   0  0  0  0  0  0  0  0  0  0  0  0
    2.2556   -0.6360   -3.1842 H   0  0  0  0  0  0  0  0  0  0  0  0
   -0.4874    1.2908    0.1962 C   0  0  0  0  0  0  0  0  0  0  0  0
   -1.3116    1.8673   -0.5151 O   0  0  0  0  0  0  0  0  0  0  0  0
    0.3889    1.9422    0.9708 N   0  0  0  0  0  0  0  0  0  0  0  0
    1.0197    1.3866    1.5283 H   0  0  0  0  0  0  0  0  0  0  0  0
    0.5081    3.3999    1.0720 C   0  0  0  0  0  0  0  0  0  0  0  0
    0.0188    3.7538    1.9817 H   0  0  0  0  0  0  0  0  0  0  0  0
    1.5607    3.6858    1.1098 H   0  0  0  0  0  0  0  0  0  0  0  0
    0.0459    3.8890    0.2119 H   0  0  0  0  0  0  0  0  0  0  0  0
  5  6  2  0  0  0  0
  5  7  1  0  0  0  0
  2  3  1  0  0  0  0
  2  4  1  0  0  0  0
  2  5  1  0  0  0  0
  1  2  1  0  0  0  0
 23 24  2  0  0  0  0
 23 25  1  0  0  0  0
 21 22  1  0  0  0  0
 19 20  1  0  0  0  0
 19 21  1  0  0  0  0
 17 18  1  0  0  0  0
 17 19  1  0  0  0  0
 15 16  1  0  0  0  0
 15 17  2  0  0  0  0
 14 15  1  0  0  0  0
 14 21  2  0  0  0  0
 11 12  1  0  0  0  0
 11 13  1  0  0  0  0
 11 14  1  0  0  0  0
  9 10  1  0  0  0  0
  9 11  1  0  0  0  0
  9 23  1  0  0  0  0
  7  8  1  0  0  0  0
  7  9  1  0  0  0  0
 27 28  1  0  0  0  0
 27 29  1  0  0  0  0
 27 30  1  0  0  0  0
 25 26  1  0  0  0  0
 25 27  1  0  0  0  0
M  CHG  1  15   1
M  END
$$$$
default_name
  -OEChem-02102213163D

 30 30  0     1  0  0  0  0  0999 V2000
   -3.5507   -3.2183    1.8116 H   0  0  0  0  0  0  0  0  0  0  0  0
   -3.4597   -2.3913    1.1076 C   0  0  0  0  0  0  0  0  0  0  0  0
   -4.1577   -1.6043    1.3866 H   0  0  0  0  0  0  0  0  0  0  0  0
   -3.6807   -2.7523    0.1036 H   0  0  0  0  0  0  0  0  0  0  0  0
   -2.0477   -1.8543    1.1546 C   0  0  0  0  0  0  0  0  0  0  0  0
   -1.2227   -2.3443    1.9146 O   0  0  0  0  0  0  0  0  0  0  0  0
   -1.7517   -0.8483    0.3266 N   0  0  0  0  0  0  0  0  0  0  0  0
   -2.4847   -0.5123   -0.2804 H   0  0  0  0  0  0  0  0  0  0  0  0
   -0.4117   -0.2463    0.2186 C   0  0  1  0  0  0  0  0  0  0  0  0
    0.1554   -0.5152    1.1133 H   0  0  0  0  0  0  0  0  0  0  0  0
    0.3164   -0.8780   -0.9905 C   0  0  0  0  0  0  0  0  0  0  0  0
    0.1323   -1.9553   -0.9838 H   0  0  0  0  0  0  0  0  0  0  0  0
   -0.1183   -0.4842   -1.9118 H   0  0  0  0  0  0  0  0  0  0  0  0
    1.8111   -0.6416   -1.0371 C   0  0  0  0  0  0  0  0  0  0  0  0
    2.6729   -0.7658    0.0355 N   0  3  0  0  0  0  0  0  0  0  0  0
    2.3808   -1.0967    0.9596 H   0  0  0  0  0  0  0  0  0  0  0  0
    3.9203   -0.4767   -0.3850 C   0  0  0  0  0  0  0  0  0  0  0  0
    4.8148   -0.5014    0.2341 H   0  0  0  0  0  0  0  0  0  0  0  0
    3.8687   -0.1706   -1.7011 N   0  0  0  0  0  0  0  0  0  0  0  0
    4.6599    0.0857   -2.2858 H   0  0  0  0  0  0  0  0  0  0  0  0
    2.5512   -0.2691   -2.1265 C   0  0  0  0  0  0  0  0  0  0  0  0
    2.1707   -0.0884   -3.1281 H   0  0  0  0  0  0  0  0  0  0  0  0
   -0.4874    1.2908    0.1962 C   0  0  0  0  0  0  0  0  0  0  0  0
   -1.3116    1.8673   -0.5151 O   0  0  0  0  0  0  0  0  0  0  0  0
    0.3889    1.9422    0.9708 N   0  0  0  0  0  0  0  0  0  0  0  0
    1.0197    1.3866    1.5283 H   0  0  0  0  0  0  0  0  0  0  0  0
    0.5081    3.3999    1.0720 C   0  0  0  0  0  0  0  0  0  0  0  0
    0.0188    3.7538    1.9817 H   0  0  0  0  0  0  0  0  0  0  0  0
    1.5607    3.6858    1.1098 H   0  0  0  0  0  0  0  0  0  0  0  0
    0.0459    3.8890    0.2119 H   0  0  0  0  0  0  0  0  0  0  0  0
  5  6  2  0  0  0  0
  5  7  1  0  0  0  0
  2  3  1  0  0  0  0
  2  4  1  0  0  0  0
  2  5  1  0  0  0  0
  1  2  1  0  0  0  0
 23 24  2  0  0  0  0
 23 25  1  0  0  0  0
 21 22  1  0  0  0  0
 19 20  1  0  0  0  0
 19 21  1  0  0  0  0
 17 18  1  0  0  0  0
 17 19  1  0  0  0  0
 15 16  1  0  0  0  0
 15 17  2  0  0  0  0
 14 15  1  0  0  0  0
 14 21  2  0  0  0  0
 11 12  1  0  0  0  0
 11 13  1  0  0  0  0
 11 14  1  0  0  0  0
  9 10  1  0  0  0  0
  9 11  1  0  0  0  0
  9 23  1  0  0  0  0
  7  8  1  0  0  0  0
  7  9  1  0  0  0  0
 27 28  1  0  0  0  0
 27 29  1  0  0  0  0
 27 30  1  0  0  0  0
 25 26  1  0  0  0  0
 25 27  1  0  0  0  0
M  CHG  1  15   1
M  END
$$$$
default_name
  -OEChem-02102213163D

 30 30  0     1  0  0  0  0  0999 V2000
   -3.5507   -3.2183    1.8116 H   0  0  0  0  0  0  0  0  0  0  0  0
   -3.4597   -2.3913    1.1076 C   0  0  0  0  0  0  0  0  0  0  0  0
   -4.1577   -1.6043    1.3866 H   0  0  0  0  0  0  0  0  0  0  0  0
   -3.6807   -2.7523    0.1036 H   0  0  0  0  0  0  0  0  0  0  0  0
   -2.0477   -1.8543    1.1546 C   0  0  0  0  0  0  0  0  0  0  0  0
   -1.2227   -2.3443    1.9146 O   0  0  0  0  0  0  0  0  0  0  0  0
   -1.7517   -0.8483    0.3266 N   0  0  0  0  0  0  0  0  0  0  0  0
   -2.4847   -0.5123   -0.2804 H   0  0  0  0  0  0  0  0  0  0  0  0
   -0.4117   -0.2463    0.2186 C   0  0  1  0  0  0  0  0  0  0  0  0
    0.1554   -0.5152    1.1133 H   0  0  0  0  0  0  0  0  0  0  0  0
    0.3164   -0.8780   -0.9905 C   0  0  0  0  0  0  0  0  0  0  0  0
    0.1323   -1.9553   -0.9838 H   0  0  0  0  0  0  0  0  0  0  0  0
   -0.1183   -0.4842   -1.9118 H   0  0  0  0  0  0  0  0  0  0  0  0
    1.8111   -0.6416   -1.0371 C   0  0  0  0  0  0  0  0  0  0  0  0
    2.7127   -1.0383   -0.0685 N   0  3  0  0  0  0  0  0  0  0  0  0
    2.4529   -1.5936    0.7518 H   0  0  0  0  0  0  0  0  0  0  0  0
    3.9464   -0.6546   -0.4526 C   0  0  0  0  0  0  0  0  0  0  0  0
    4.8641   -0.8392    0.1021 H   0  0  0  0  0  0  0  0  0  0  0  0
    3.8470   -0.0220   -1.6435 N   0  0  0  0  0  0  0  0  0  0  0  0
    4.6179    0.3731   -2.1757 H   0  0  0  0  0  0  0  0  0  0  0  0
    2.5126   -0.0049   -2.0250 C   0  0  0  0  0  0  0  0  0  0  0  0
    2.0954    0.4268   -2.9305 H   0  0  0  0  0  0  0  0  0  0  0  0
   -0.4874    1.2908    0.1962 C   0  0  0  0  0  0  0  0  0  0  0  0
   -1.3116    1.8673   -0.5151 O   0  0  0  0  0  0  0  0  0  0  0  0
    0.3889    1.9422    0.9708 N   0  0  0  0  0  0  0  0  0  0  0  0
    1.0197    1.3866    1.5283 H   0  0  0  0  0  0  0  0  0  0  0  0
    0.5081    3.3999    1.0720 C   0  0  0  0  0  0  0  0  0  0  0  0
    0.0188    3.7538    1.9817 H   0  0  0  0  0  0  0  0  0  0  0  0
    1.5607    3.6858    1.1098 H   0  0  0  0  0  0  0  0  0  0  0  0
    0.0459    3.8890    0.2119 H   0  0  0  0  0  0  0  0  0  0  0  0
  5  6  2  0  0  0  0
  5  7  1  0  0  0  0
  2  3  1  0  0  0  0
  2  4  1  0  0  0  0
  2  5  1  0  0  0  0
  1  2  1  0  0  0  0
 23 24  2  0  0  0  0
 23 25  1  0  0  0  0
 21 22  1  0  0  0  0
 19 20  1  0  0  0  0
 19 21  1  0  0  0  0
 17 18  1  0  0  0  0
 17 19  1  0  0  0  0
 15 16  1  0  0  0  0
 15 17  2  0  0  0  0
 14 15  1  0  0  0  0
 14 21  2  0  0  0  0
 11 12  1  0  0  0  0
 11 13  1  0  0  0  0
 11 14  1  0  0  0  0
  9 10  1  0  0  0  0
  9 11  1  0  0  0  0
  9 23  1  0  0  0  0
  7  8  1  0  0  0  0
  7  9  1  0  0  0  0
 27 28  1  0  0  0  0
 27 29  1  0  0  0  0
 27 30  1  0  0  0  0
 25 26  1  0  0  0  0
 25 27  1  0  0  0  0
M  CHG  1  15   1
M  END
$$$$
default_name
  -OEChem-02102213163D

 30 30  0     1  0  0  0  0  0999 V2000
   -3.5507   -3.2183    1.8116 H   0  0  0  0  0  0  0  0  0  0  0  0
   -3.4597   -2.3913    1.1076 C   0  0  0  0  0  0  0  0  0  0  0  0
   -4.1577   -1.6043    1.3866 H   0  0  0  0  0  0  0  0  0  0  0  0
   -3.6807   -2.7523    0.1036 H   0  0  0  0  0  0  0  0  0  0  0  0
   -2.0477   -1.8543    1.1546 C   0  0  0  0  0  0  0  0  0  0  0  0
   -1.2227   -2.3443    1.9146 O   0  0  0  0  0  0  0  0  0  0  0  0
   -1.7517   -0.8483    0.3266 N   0  0  0  0  0  0  0  0  0  0  0  0
   -2.4847   -0.5123   -0.2804 H   0  0  0  0  0  0  0  0  0  0  0  0
   -0.4117   -0.2463    0.2186 C   0  0  1  0  0  0  0  0  0  0  0  0
    0.1554   -0.5152    1.1133 H   0  0  0  0  0  0  0  0  0  0  0  0
    0.3164   -0.8780   -0.9905 C   0  0  0  0  0  0  0  0  0  0  0  0
    0.1323   -1.9553   -0.9838 H   0  0  0  0  0  0  0  0  0  0  0  0
   -0.1183   -0.4842   -1.9118 H   0  0  0  0  0  0  0  0  0  0  0  0
    1.8111   -0.6416   -1.0371 C   0  0  0  0  0  0  0  0  0  0  0  0
    2.7448   -1.2752   -0.2401 N   0  3  0  0  0  0  0  0  0  0  0  0
    2.5102   -2.0211    0.4212 H   0  0  0  0  0  0  0  0  0  0  0  0
    3.9674   -0.8094   -0.5643 C   0  0  0  0  0  0  0  0  0  0  0  0
    4.9038   -1.1322   -0.1137 H   0  0  0  0  0  0  0  0  0  0  0  0
    3.8296    0.1069   -1.5490 N   0  0  0  0  0  0  0  0  0  0  0  0
    4.5840    0.6229   -1.9941 H   0  0  0  0  0  0  0  0  0  0  0  0
    2.4815    0.2246   -1.8579 C   0  0  0  0  0  0  0  0  0  0  0  0
    2.0347    0.8747   -2.6050 H   0  0  0  0  0  0  0  0  0  0  0  0
   -0.4874    1.2908    0.1962 C   0  0  0  0  0  0  0  0  0  0  0  0
   -1.3116    1.8673   -0.5151 O   0  0  0  0  0  0  0  0  0  0  0  0
    0.3889    1.9422    0.9708 N   0  0  0  0  0  0  0  0  0  0  0  0
    1.0197    1.3866    1.5283 H   0  0  0  0  0  0  0  0  0  0  0  0
    0.5081    3.3999    1.0720 C   0  0  0  0  0  0  0  0  0  0  0  0
    0.0188    3.7538    1.9817 H   0  0  0  0  0  0  0  0  0  0  0  0
    1.5607    3.6858    1.1098 H   0  0  0  0  0  0  0  0  0  0  0  0
    0.0459    3.8890    0.2119 H   0  0  0  0  0  0  0  0  0  0  0  0
  5  6  2  0  0  0  0
  5  7  1  0  0  0  0
  2  3  1  0  0  0  0
  2  4  1  0  0  0  0
  2  5  1  0  0  0  0
  1  2  1  0  0  0  0
 23 24  2  0  0  0  0
 23 25  1  0  0  0  0
 21 22  1  0  0  0  0
 19 20  1  0  0  0  0
 19 21  1  0  0  0  0
 17 18  1  0  0  0  0
 17 19  1  0  0  0  0
 15 16  1  0  0  0  0
 15 17  2  0  0  0  0
 14 15  1  0  0  0  0
 14 21  2  0  0  0  0
 11 12  1  0  0  0  0
 11 13  1  0  0  0  0
 11 14  1  0  0  0  0
  9 10  1  0  0  0  0
  9 11  1  0  0  0  0
  9 23  1  0  0  0  0
  7  8  1  0  0  0  0
  7  9  1  0  0  0  0
 27 28  1  0  0  0  0
 27 29  1  0  0  0  0
 27 30  1  0  0  0  0
 25 26  1  0  0  0  0
 25 27  1  0  0  0  0
M  CHG  1  15   1
M  END
$$$$
default_name
  -OEChem-02102213163D

 30 30  0     1  0  0  0  0  0999 V2000
   -3.5507   -3.2183    1.8116 H   0  0  0  0  0  0  0  0  0  0  0  0
   -3.4597   -2.3913    1.1076 C   0  0  0  0  0  0  0  0  0  0  0  0
   -4.1577   -1.6043    1.3866 H   0  0  0  0  0  0  0  0  0  0  0  0
   -3.6807   -2.7523    0.1036 H   0  0  0  0  0  0  0  0  0  0  0  0
   -2.0477   -1.8543    1.1546 C   0  0  0  0  0  0  0  0  0  0  0  0
   -1.2227   -2.3443    1.9146 O   0  0  0  0  0  0  0  0  0  0  0  0
   -1.7517   -0.8483    0.3266 N   0  0  0  0  0  0  0  0  0  0  0  0
   -2.4847   -0.5123   -0.2804 H   0  0  0  0  0  0  0  0  0  0  0  0
   -0.4117   -0.2463    0.2186 C   0  0  1  0  0  0  0  0  0  0  0  0
    0.1554   -0.5152    1.1133 H   0  0  0  0  0  0  0  0  0  0  0  0
    0.3164   -0.8780   -0.9905 C   0  0  0  0  0  0  0  0  0  0  0  0
    0.1323   -1.9553   -0.9838 H   0  0  0  0  0  0  0  0  0  0  0  0
   -0.1183   -0.4842   -1.9118 H   0  0  0  0  0  0  0  0  0  0  0  0
    1.8111   -0.6416   -1.0371 C   0  0  0  0  0  0  0  0  0  0  0  0
    2.7670   -1.4604   -0.4677 N   0  3  0  0  0  0  0  0  0  0  0  0
    2.5489   -2.3500   -0.0097 H   0  0  0  0  0  0  0  0  0  0  0  0
    3.9819   -0.9305   -0.7126 C   0  0  0  0  0  0  0  0  0  0  0  0
    4.9310   -1.3603   -0.3985 H   0  0  0  0  0  0  0  0  0  0  0  0
    3.8176    0.2075   -1.4241 N   0  0  0  0  0  0  0  0  0  0  0  0
    4.5606    0.8181   -1.7536 H   0  0  0  0  0  0  0  0  0  0  0  0
    2.4600    0.4039   -1.6365 C   0  0  0  0  0  0  0  0  0  0  0  0
    1.9928    1.2246   -2.1737 H   0  0  0  0  0  0  0  0  0  0  0  0
   -0.4874    1.2908    0.1962 C   0  0  0  0  0  0  0  0  0  0  0  0
   -1.3116    1.8673   -0.5151 O   0  0  0  0  0  0  0  0  0  0  0  0
    0.3889    1.9422    0.9708 N   0  0  0  0  0  0  0  0  0  0  0  0
    1.0197    1.3866    1.5283 H   0  0  0  0  0  0  0  0  0  0  0  0
    0.5081    3.3999    1.0720 C   0  0  0  0  0  0  0  0  0  0  0  0
    0.0188    3.7538    1.9817 H   0  0  0  0  0  0  0  0  0  0  0  0
    1.5607    3.6858    1.1098 H   0  0  0  0  0  0  0  0  0  0  0  0
    0.0459    3.8890    0.2119 H   0  0  0  0  0  0  0  0  0  0  0  0
  5  6  2  0  0  0  0
  5  7  1  0  0  0  0
  2  3  1  0  0  0  0
  2  4  1  0  0  0  0
  2  5  1  0  0  0  0
  1  2  1  0  0  0  0
 23 24  2  0  0  0  0
 23 25  1  0  0  0  0
 21 22  1  0  0  0  0
 19 20  1  0  0  0  0
 19 21  1  0  0  0  0
 17 18  1  0  0  0  0
 17 19  1  0  0  0  0
 15 16  1  0  0  0  0
 15 17  2  0  0  0  0
 14 15  1  0  0  0  0
 14 21  2  0  0  0  0
 11 12  1  0  0  0  0
 11 13  1  0  0  0  0
 11 14  1  0  0  0  0
  9 10  1  0  0  0  0
  9 11  1  0  0  0  0
  9 23  1  0  0  0  0
  7  8  1  0  0  0  0
  7  9  1  0  0  0  0
 27 28  1  0  0  0  0
 27 29  1  0  0  0  0
 27 30  1  0  0  0  0
 25 26  1  0  0  0  0
 25 27  1  0  0  0  0
M  CHG  1  15   1
M  END
$$$$
default_name
  -OEChem-02102213163D

 30 30  0     1  0  0  0  0  0999 V2000
   -3.5507   -3.2183    1.8116 H   0  0  0  0  0  0  0  0  0  0  0  0
   -3.4597   -2.3913    1.1076 C   0  0  0  0  0  0  0  0  0  0  0  0
   -4.1577   -1.6043    1.3866 H   0  0  0  0  0  0  0  0  0  0  0  0
   -3.6807   -2.7523    0.1036 H   0  0  0  0  0  0  0  0  0  0  0  0
   -2.0477   -1.8543    1.1546 C   0  0  0  0  0  0  0  0  0  0  0  0
   -1.2227   -2.3443    1.9146 O   0  0  0  0  0  0  0  0  0  0  0  0
   -1.7517   -0.8483    0.3266 N   0  0  0  0  0  0  0  0  0  0  0  0
   -2.4847   -0.5123   -0.2804 H   0  0  0  0  0  0  0  0  0  0  0  0
   -0.4117   -0.2463    0.2186 C   0  0  1  0  0  0  0  0  0  0  0  0
    0.1554   -0.5152    1.1133 H   0  0  0  0  0  0  0  0  0  0  0  0
    0.3164   -0.8780   -0.9905 C   0  0  0  0  0  0  0  0  0  0  0  0
    0.1323   -1.9553   -0.9838 H   0  0  0  0  0  0  0  0  0  0  0  0
   -0.1183   -0.4842   -1.9118 H   0  0  0  0  0  0  0  0  0  0  0  0
    1.8111   -0.6416   -1.0371 C   0  0  0  0  0  0  0  0  0  0  0  0
    2.7778   -1.5813   -0.7358 N   0  3  0  0  0  0  0  0  0  0  0  0
    2.5661   -2.5579   -0.5115 H   0  0  0  0  0  0  0  0  0  0  0  0
    3.9890   -1.0097   -0.8874 C   0  0  0  0  0  0  0  0  0  0  0  0
    4.9439   -1.5081   -0.7331 H   0  0  0  0  0  0  0  0  0  0  0  0
    3.8118    0.2728   -1.2773 N   0  0  0  0  0  0  0  0  0  0  0  0
    4.5493    0.9453   -1.4704 H   0  0  0  0  0  0  0  0  0  0  0  0
    2.4497    0.5206   -1.3760 C   0  0  0  0  0  0  0  0  0  0  0  0
    1.9725    1.4527   -1.6660 H   0  0  0  0  0  0  0  0  0  0  0  0
   -0.4874    1.2908    0.1962 C   0  0  0  0  0  0  0  0  0  0  0  0
   -1.3116    1.8673   -0.5151 O   0  0  0  0  0  0  0  0  0  0  0  0
    0.3889    1.9422    0.9708 N   0  0  0  0  0  0  0  0  0  0  0  0
    1.0197    1.3866    1.5283 H   0  0  0  0  0  0  0  0  0  0  0  0
    0.5081    3.3999    1.0720 C   0  0  0  0  0  0  0  0  0  0  0  0
    0.0188    3.7538    1.9817 H   0  0  0  0  0  0  0  0  0  0  0  0
    1.5607    3.6858    1.1098 H   0  0  0  0  0  0  0  0  0  0  0  0
    0.0459    3.8890    0.2119 H   0  0  0  0  0  0  0  0  0  0  0  0
  5  6  2  0  0  0  0
  5  7  1  0  0  0  0
  2  3  1  0  0  0  0
  2  4  1  0  0  0  0
  2  5  1  0  0  0  0
  1  2  1  0  0  0  0
 23 24  2  0  0  0  0
 23 25  1  0  0  0  0
 21 22  1  0  0  0  0
 19 20  1  0  0  0  0
 19 21  1  0  0  0  0
 17 18  1  0  0  0  0
 17 19  1  0  0  0  0
 15 16  1  0  0  0  0
 15 17  2  0  0  0  0
 14 15  1  0  0  0  0
 14 21  2  0  0  0  0
 11 12  1  0  0  0  0
 11 13  1  0  0  0  0
 11 14  1  0  0  0  0
  9 10  1  0  0  0  0
  9 11  1  0  0  0  0
  9 23  1  0  0  0  0
  7  8  1  0  0  0  0
  7  9  1  0  0  0  0
 27 28  1  0  0  0  0
 27 29  1  0  0  0  0
 27 30  1  0  0  0  0
 25 26  1  0  0  0  0
 25 27  1  0  0  0  0
M  CHG  1  15   1
M  END
$$$$
default_name
  -OEChem-02102213163D

 30 30  0     1  0  0  0  0  0999 V2000
   -3.5507   -3.2183    1.8116 H   0  0  0  0  0  0  0  0  0  0  0  0
   -3.4597   -2.3913    1.1076 C   0  0  0  0  0  0  0  0  0  0  0  0
   -4.1577   -1.6043    1.3866 H   0  0  0  0  0  0  0  0  0  0  0  0
   -3.6807   -2.7523    0.1036 H   0  0  0  0  0  0  0  0  0  0  0  0
   -2.0477   -1.8543    1.1546 C   0  0  0  0  0  0  0  0  0  0  0  0
   -1.2227   -2.3443    1.9146 O   0  0  0  0  0  0  0  0  0  0  0  0
   -1.7517   -0.8483    0.3266 N   0  0  0  0  0  0  0  0  0  0  0  0
   -2.4847   -0.5123   -0.2804 H   0  0  0  0  0  0  0  0  0  0  0  0
   -0.4117   -0.2463    0.2186 C   0  0  1  0  0  0  0  0  0  0  0  0
    0.1554   -0.5152    1.1133 H   0  0  0  0  0  0  0  0  0  0  0  0
    0.3164   -0.8780   -0.9905 C   0  0  0  0  0  0  0  0  0  0  0  0
    0.1323   -1.9553   -0.9838 H   0  0  0  0  0  0  0  0  0  0  0  0
   -0.1183   -0.4842   -1.9118 H   0  0  0  0  0  0  0  0  0  0  0  0
    1.8111   -0.6416   -1.0371 C   0  0  0  0  0  0  0  0  0  0  0  0
    2.7764   -1.6297   -1.0261 N   0  3  0  0  0  0  0  0  0  0  0  0
    2.5608   -2.6306   -1.0500 H   0  0  0  0  0  0  0  0  0  0  0  0
    3.9882   -1.0417   -1.0768 C   0  0  0  0  0  0  0  0  0  0  0  0
    4.9418   -1.5655   -1.0946 H   0  0  0  0  0  0  0  0  0  0  0  0
    3.8127    0.2984   -1.1185 N   0  0  0  0  0  0  0  0  0  0  0  0
    4.5509    0.9960   -1.1639 H   0  0  0  0  0  0  0  0  0  0  0  0
    2.4511    0.5669   -1.0942 C   0  0  0  0  0  0  0  0  0  0  0  0
    1.9752    1.5434   -1.1165 H   0  0  0  0  0  0  0  0  0  0  0  0
   -0.4874    1.2908    0.1962 C   0  0  0  0  0  0  0  0  0  0  0  0
   -1.3116    1.8673   -0.5151 O   0  0  0  0  0  0  0  0  0  0  0  0
    0.3889    1.9422    0.9708 N   0  0  0  0  0  0  0  0  0  0  0  0
    1.0197    1.3866    1.5283 H   0  0  0  0  0  0  0  0  0  0  0  0
    0.5081    3.3999    1.0720 C   0  0  0  0  0  0  0  0  0  0  0  0
    0.0188    3.7538    1.9817 H   0  0  0  0  0  0  0  0  0  0  0  0
    1.5607    3.6858    1.1098 H   0  0  0  0  0  0  0  0  0  0  0  0
    0.0459    3.8890    0.2119 H   0  0  0  0  0  0  0  0  0  0  0  0
  5  6  2  0  0  0  0
  5  7  1  0  0  0  0
  2  3  1  0  0  0  0
  2  4  1  0  0  0  0
  2  5  1  0  0  0  0
  1  2  1  0  0  0  0
 23 24  2  0  0  0  0
 23 25  1  0  0  0  0
 21 22  1  0  0  0  0
 19 20  1  0  0  0  0
 19 21  1  0  0  0  0
 17 18  1  0  0  0  0
 17 19  1  0  0  0  0
 15 16  1  0  0  0  0
 15 17  2  0  0  0  0
 14 15  1  0  0  0  0
 14 21  2  0  0  0  0
 11 12  1  0  0  0  0
 11 13  1  0  0  0  0
 11 14  1  0  0  0  0
  9 10  1  0  0  0  0
  9 11  1  0  0  0  0
  9 23  1  0  0  0  0
  7  8  1  0  0  0  0
  7  9  1  0  0  0  0
 27 28  1  0  0  0  0
 27 29  1  0  0  0  0
 27 30  1  0  0  0  0
 25 26  1  0  0  0  0
 25 27  1  0  0  0  0
M  CHG  1  15   1
M  END
$$$$
default_name
  -OEChem-02102213163D

 30 30  0     1  0  0  0  0  0999 V2000
   -3.5507   -3.2183    1.8116 H   0  0  0  0  0  0  0  0  0  0  0  0
   -3.4597   -2.3913    1.1076 C   0  0  0  0  0  0  0  0  0  0  0  0
   -4.1577   -1.6043    1.3866 H   0  0  0  0  0  0  0  0  0  0  0  0
   -3.6807   -2.7523    0.1036 H   0  0  0  0  0  0  0  0  0  0  0  0
   -2.0477   -1.8543    1.1546 C   0  0  0  0  0  0  0  0  0  0  0  0
   -1.2227   -2.3443    1.9146 O   0  0  0  0  0  0  0  0  0  0  0  0
   -1.7517   -0.8483    0.3266 N   0  0  0  0  0  0  0  0  0  0  0  0
   -2.4847   -0.5123   -0.2804 H   0  0  0  0  0  0  0  0  0  0  0  0
   -0.4117   -0.2463    0.2186 C   0  0  1  0  0  0  0  0  0  0  0  0
    0.1554   -0.5152    1.1133 H   0  0  0  0  0  0  0  0  0  0  0  0
    0.3164   -0.8780   -0.9905 C   0  0  0  0  0  0  0  0  0  0  0  0
    0.1323   -1.9553   -0.9838 H   0  0  0  0  0  0  0  0  0  0  0  0
   -0.1183   -0.4842   -1.9118 H   0  0  0  0  0  0  0  0  0  0  0  0
    1.8111   -0.6416   -1.0371 C   0  0  0  0  0  0  0  0  0  0  0  0
    2.7630   -1.6023   -1.3188 N   0  3  0  0  0  0  0  0  0  0  0  0
    2.5334   -2.5632   -1.5885 H   0  0  0  0  0  0  0  0  0  0  0  0
    3.9794   -1.0241   -1.2678 C   0  0  0  0  0  0  0  0  0  0  0  0
    4.9246   -1.5285   -1.4583 H   0  0  0  0  0  0  0  0  0  0  0  0
    3.8202    0.2826   -0.9587 N   0  0  0  0  0  0  0  0  0  0  0  0
    4.5651    0.9666   -0.8550 H   0  0  0  0  0  0  0  0  0  0  0  0
    2.4643    0.5396   -0.8101 C   0  0  0  0  0  0  0  0  0  0  0  0
    2.0008    1.4906   -0.5626 H   0  0  0  0  0  0  0  0  0  0  0  0
   -0.4874    1.2908    0.1962 C   0  0  0  0  0  0  0  0  0  0  0  0
   -1.3116    1.8673   -0.5151 O   0  0  0  0  0  0  0  0  0  0  0  0
    0.3889    1.9422    0.9708 N   0  0  0  0  0  0  0  0  0  0  0  0
    1.0197    1.3866    1.5283 H   0  0  0  0  0  0  0  0  0  0  0  0
    0.5081    3.3999    1.0720 C   0  0  0  0  0  0  0  0  0  0  0  0
    0.0188    3.7538    1.9817 H   0  0  0  0  0  0  0  0  0  0  0  0
    1.5607    3.6858    1.1098 H   0  0  0  0  0  0  0  0  0  0  0  0
    0.0459    3.8890    0.2119 H   0  0  0  0  0  0  0  0  0  0  0  0
  5  6  2  0  0  0  0
  5  7  1  0  0  0  0
  2  3  1  0  0  0  0
  2  4  1  0  0  0  0
  2  5  1  0  0  0  0
  1  2  1  0  0  0  0
 23 24  2  0  0  0  0
 23 25  1  0  0  0  0
 21 22  1  0  0  0  0
 19 20  1  0  0  0  0
 19 21  1  0  0  0  0
 17 18  1  0  0  0  0
 17 19  1  0  0  0  0
 15 16  1  0  0  0  0
 15 17  2  0  0  0  0
 14 15  1  0  0  0  0
 14 21  2  0  0  0  0
 11 12  1  0  0  0  0
 11 13  1  0  0  0  0
 11 14  1  0  0  0  0
  9 10  1  0  0  0  0
  9 11  1  0  0  0  0
  9 23  1  0  0  0  0
  7  8  1  0  0  0  0
  7  9  1  0  0  0  0
 27 28  1  0  0  0  0
 27 29  1  0  0  0  0
 27 30  1  0  0  0  0
 25 26  1  0  0  0  0
 25 27  1  0  0  0  0
M  CHG  1  15   1
M  END
$$$$
default_name
  -OEChem-02102213163D

 30 30  0     1  0  0  0  0  0999 V2000
   -3.5507   -3.2183    1.8116 H   0  0  0  0  0  0  0  0  0  0  0  0
   -3.4597   -2.3913    1.1076 C   0  0  0  0  0  0  0  0  0  0  0  0
   -4.1577   -1.6043    1.3866 H   0  0  0  0  0  0  0  0  0  0  0  0
   -3.6807   -2.7523    0.1036 H   0  0  0  0  0  0  0  0  0  0  0  0
   -2.0477   -1.8543    1.1546 C   0  0  0  0  0  0  0  0  0  0  0  0
   -1.2227   -2.3443    1.9146 O   0  0  0  0  0  0  0  0  0  0  0  0
   -1.7517   -0.8483    0.3266 N   0  0  0  0  0  0  0  0  0  0  0  0
   -2.4847   -0.5123   -0.2804 H   0  0  0  0  0  0  0  0  0  0  0  0
   -0.4117   -0.2463    0.2186 C   0  0  1  0  0  0  0  0  0  0  0  0
    0.1554   -0.5152    1.1133 H   0  0  0  0  0  0  0  0  0  0  0  0
    0.3164   -0.8780   -0.9905 C   0  0  0  0  0  0  0  0  0  0  0  0
    0.1323   -1.9553   -0.9838 H   0  0  0  0  0  0  0  0  0  0  0  0
   -0.1183   -0.4842   -1.9118 H   0  0  0  0  0  0  0  0  0  0  0  0
    1.8111   -0.6416   -1.0371 C   0  0  0  0  0  0  0  0  0  0  0  0
    2.7384   -1.5009   -1.5940 N   0  3  0  0  0  0  0  0  0  0  0  0
    2.4857   -2.3602   -2.0904 H   0  0  0  0  0  0  0  0  0  0  0  0
    3.9634   -0.9582   -1.4475 C   0  0  0  0  0  0  0  0  0  0  0  0
    4.8936   -1.3997   -1.7995 H   0  0  0  0  0  0  0  0  0  0  0  0
    3.8337    0.2264   -0.8086 N   0  0  0  0  0  0  0  0  0  0  0  0
    4.5912    0.8591   -0.5647 H   0  0  0  0  0  0  0  0  0  0  0  0
    2.4883    0.4406   -0.5433 C   0  0  0  0  0  0  0  0  0  0  0  0
    2.0475    1.2979   -0.0422 H   0  0  0  0  0  0  0  0  0  0  0  0
   -0.4874    1.2908    0.1962 C   0  0  0  0  0  0  0  0  0  0  0  0
   -1.3116    1.8673   -0.5151 O   0  0  0  0  0  0  0  0  0  0  0  0
    0.3889    1.9422    0.9708 N   0  0  0  0  0  0  0  0  0  0  0  0
    1.0197    1.3866    1.5283 H   0  0  0  0  0  0  0  0  0  0  0  0
    0.5081    3.3999    1.0720 C   0  0  0  0  0  0  0  0  0  0  0  0
    0.0188    3.7538    1.9817 H   0  0  0  0  0  0  0  0  0  0  0  0
    1.5607    3.6858    1.1098 H   0  0  0  0  0  0  0  0  0  0  0  0
    0.0459    3.8890    0.2119 H   0  0  0  0  0  0  0  0  0  0  0  0
  5  6  2  0  0  0  0
  5  7  1  0  0  0  0
  2  3  1  0  0  0  0
  2  4  1  0  0  0  0
  2  5  1  0  0  0  0
  1  2  1  0  0  0  0
 23 24  2  0  0  0  0
 23 25  1  0  0  0  0
 21 22  1  0  0  0  0
 19 20  1  0  0  0  0
 19 21  1  0  0  0  0
 17 18  1  0  0  0  0
 17 19  1  0  0  0  0
 15 16  1  0  0  0  0
 15 17  2  0  0  0  0
 14 15  1  0  0  0  0
 14 21  2  0  0  0  0
 11 12  1  0  0  0  0
 11 13  1  0  0  0  0
 11 14  1  0  0  0  0
  9 10  1  0  0  0  0
  9 11  1  0  0  0  0
  9 23  1  0  0  0  0
  7  8  1  0  0  0  0
  7  9  1  0  0  0  0
 27 28  1  0  0  0  0
 27 29  1  0  0  0  0
 27 30  1  0  0  0  0
 25 26  1  0  0  0  0
 25 27  1  0  0  0  0
M  CHG  1  15   1
M  END
$$$$
default_name
  -OEChem-02102213163D

 30 30  0     1  0  0  0  0  0999 V2000
   -3.5507   -3.2183    1.8116 H   0  0  0  0  0  0  0  0  0  0  0  0
   -3.4597   -2.3913    1.1076 C   0  0  0  0  0  0  0  0  0  0  0  0
   -4.1577   -1.6043    1.3866 H   0  0  0  0  0  0  0  0  0  0  0  0
   -3.6807   -2.7523    0.1036 H   0  0  0  0  0  0  0  0  0  0  0  0
   -2.0477   -1.8543    1.1546 C   0  0  0  0  0  0  0  0  0  0  0  0
   -1.2227   -2.3443    1.9146 O   0  0  0  0  0  0  0  0  0  0  0  0
   -1.7517   -0.8483    0.3266 N   0  0  0  0  0  0  0  0  0  0  0  0
   -2.4847   -0.5123   -0.2804 H   0  0  0  0  0  0  0  0  0  0  0  0
   -0.4117   -0.2463    0.2186 C   0  0  1  0  0  0  0  0  0  0  0  0
    0.1554   -0.5152    1.1133 H   0  0  0  0  0  0  0  0  0  0  0  0
    0.3164   -0.8780   -0.9905 C   0  0  0  0  0  0  0  0  0  0  0  0
    0.1323   -1.9553   -0.9838 H   0  0  0  0  0  0  0  0  0  0  0  0
   -0.1183   -0.4842   -1.9118 H   0  0  0  0  0  0  0  0  0  0  0  0
    1.8111   -0.6416   -1.0371 C   0  0  0  0  0  0  0  0  0  0  0  0
    2.7043   -1.3324   -1.8329 N   0  3  0  0  0  0  0  0  0  0  0  0
    2.4210   -2.0356   -2.5214 H   0  0  0  0  0  0  0  0  0  0  0  0
    3.9412   -0.8486   -1.6036 C   0  0  0  0  0  0  0  0  0  0  0  0
    4.8509   -1.1879   -2.0949 H   0  0  0  0  0  0  0  0  0  0  0  0
    3.8524    0.1337   -0.6786 N   0  0  0  0  0  0  0  0  0  0  0  0
    4.6272    0.6809   -0.3128 H   0  0  0  0  0  0  0  0  0  0  0  0
    2.5214    0.2765   -0.3118 C   0  0  0  0  0  0  0  0  0  0  0  0
    2.1121    0.9785    0.4094 H   0  0  0  0  0  0  0  0  0  0  0  0
   -0.4874    1.2908    0.1962 C   0  0  0  0  0  0  0  0  0  0  0  0
   -1.3116    1.8673   -0.5151 O   0  0  0  0  0  0  0  0  0  0  0  0
    0.3889    1.9422    0.9708 N   0  0  0  0  0  0  0  0  0  0  0  0
    1.0197    1.3866    1.5283 H   0  0  0  0  0  0  0  0  0  0  0  0
    0.5081    3.3999    1.0720 C   0  0  0  0  0  0  0  0  0  0  0  0
    0.0188    3.7538    1.9817 H   0  0  0  0  0  0  0  0  0  0  0  0
    1.5607    3.6858    1.1098 H   0  0  0  0  0  0  0  0  0  0  0  0
    0.0459    3.8890    0.2119 H   0  0  0  0  0  0  0  0  0  0  0  0
  5  6  2  0  0  0  0
  5  7  1  0  0  0  0
  2  3  1  0  0  0  0
  2  4  1  0  0  0  0
  2  5  1  0  0  0  0
  1  2  1  0  0  0  0
 23 24  2  0  0  0  0
 23 25  1  0  0  0  0
 21 22  1  0  0  0  0
 19 20  1  0  0  0  0
 19 21  1  0  0  0  0
 17 18  1  0  0  0  0
 17 19  1  0  0  0  0
 15 16  1  0  0  0  0
 15 17  2  0  0  0  0
 14 15  1  0  0  0  0
 14 21  2  0  0  0  0
 11 12  1  0  0  0  0
 11 13  1  0  0  0  0
 11 14  1  0  0  0  0
  9 10  1  0  0  0  0
  9 11  1  0  0  0  0
  9 23  1  0  0  0  0
  7  8  1  0  0  0  0
  7  9  1  0  0  0  0
 27 28  1  0  0  0  0
 27 29  1  0  0  0  0
 27 30  1  0  0  0  0
 25 26  1  0  0  0  0
 25 27  1  0  0  0  0
M  CHG  1  15   1
M  END
$$$$
default_name
  -OEChem-02102213163D

 30 30  0     1  0  0  0  0  0999 V2000
   -3.5507   -3.2183    1.8116 H   0  0  0  0  0  0  0  0  0  0  0  0
   -3.4597   -2.3913    1.1076 C   0  0  0  0  0  0  0  0  0  0  0  0
   -4.1577   -1.6043    1.3866 H   0  0  0  0  0  0  0  0  0  0  0  0
   -3.6807   -2.7523    0.1036 H   0  0  0  0  0  0  0  0  0  0  0  0
   -2.0477   -1.8543    1.1546 C   0  0  0  0  0  0  0  0  0  0  0  0
   -1.2227   -2.3443    1.9146 O   0  0  0  0  0  0  0  0  0  0  0  0
   -1.7517   -0.8483    0.3266 N   0  0  0  0  0  0  0  0  0  0  0  0
   -2.4847   -0.5123   -0.2804 H   0  0  0  0  0  0  0  0  0  0  0  0
   -0.4117   -0.2463    0.2186 C   0  0  1  0  0  0  0  0  0  0  0  0
    0.1554   -0.5152    1.1133 H   0  0  0  0  0  0  0  0  0  0  0  0
    0.3164   -0.8780   -0.9905 C   0  0  0  0  0  0  0  0  0  0  0  0
   -0.0746   -1.8870   -1.1441 H   0  0  0  0  0  0  0  0  0  0  0  0
    0.0793   -0.3024   -1.8878 H   0  0  0  0  0  0  0  0  0  0  0  0
    1.8233   -0.9555   -0.8658 C   0  0  0  0  0  0  0  0  0  0  0  0
    2.6774   -1.4780   -1.8175 N   0  3  0  0  0  0  0  0  0  0  0  0
    2.3664   -1.8076   -2.7359 H   0  0  0  0  0  0  0  0  0  0  0  0
    3.9402   -1.3778   -1.3571 C   0  0  0  0  0  0  0  0  0  0  0  0
    4.8325   -1.6953   -1.8928 H   0  0  0  0  0  0  0  0  0  0  0  0
    3.9058   -0.8039   -0.1333 N   0  0  0  0  0  0  0  0  0  0  0  0
    4.7108   -0.6002    0.4533 H   0  0  0  0  0  0  0  0  0  0  0  0
    2.5838   -0.5323    0.1907 C   0  0  0  0  0  0  0  0  0  0  0  0
    2.2137   -0.0726    1.1029 H   0  0  0  0  0  0  0  0  0  0  0  0
   -0.4874    1.2908    0.1962 C   0  0  0  0  0  0  0  0  0  0  0  0
   -1.3116    1.8673   -0.5151 O   0  0  0  0  0  0  0  0  0  0  0  0
    0.3889    1.9422    0.9708 N   0  0  0  0  0  0  0  0  0  0  0  0
    1.0197    1.3866    1.5283 H   0  0  0  0  0  0  0  0  0  0  0  0
    0.5081    3.3999    1.0720 C   0  0  0  0  0  0  0  0  0  0  0  0
    0.0188    3.7538    1.9817 H   0  0  0  0  0  0  0  0  0  0  0  0
    1.5607    3.6858    1.1098 H   0  0  0  0  0  0  0  0  0  0  0  0
    0.0459    3.8890    0.2119 H   0  0  0  0  0  0  0  0  0  0  0  0
  5  6  2  0  0  0  0
  5  7  1  0  0  0  0
  2  3  1  0  0  0  0
  2  4  1  0  0  0  0
  2  5  1  0  0  0  0
  1  2  1  0  0  0  0
 23 24  2  0  0  0  0
 23 25  1  0  0  0  0
 21 22  1  0  0  0  0
 19 20  1  0  0  0  0
 19 21  1  0  0  0  0
 17 18  1  0  0  0  0
 17 19  1  0  0  0  0
 15 16  1  0  0  0  0
 15 17  2  0  0  0  0
 14 15  1  0  0  0  0
 14 21  2  0  0  0  0
 11 12  1  0  0  0  0
 11 13  1  0  0  0  0
 11 14  1  0  0  0  0
  9 10  1  0  0  0  0
  9 11  1  0  0  0  0
  9 23  1  0  0  0  0
  7  8  1  0  0  0  0
  7  9  1  0  0  0  0
 27 28  1  0  0  0  0
 27 29  1  0  0  0  0
 27 30  1  0  0  0  0
 25 26  1  0  0  0  0
 25 27  1  0  0  0  0
M  CHG  1  15   1
M  END
$$$$
default_name
  -OEChem-02102213163D

 30 30  0     1  0  0  0  0  0999 V2000
   -3.5507   -3.2183    1.8116 H   0  0  0  0  0  0  0  0  0  0  0  0
   -3.4597   -2.3913    1.1076 C   0  0  0  0  0  0  0  0  0  0  0  0
   -4.1577   -1.6043    1.3866 H   0  0  0  0  0  0  0  0  0  0  0  0
   -3.6807   -2.7523    0.1036 H   0  0  0  0  0  0  0  0  0  0  0  0
   -2.0477   -1.8543    1.1546 C   0  0  0  0  0  0  0  0  0  0  0  0
   -1.2227   -2.3443    1.9146 O   0  0  0  0  0  0  0  0  0  0  0  0
   -1.7517   -0.8483    0.3266 N   0  0  0  0  0  0  0  0  0  0  0  0
   -2.4847   -0.5123   -0.2804 H   0  0  0  0  0  0  0  0  0  0  0  0
   -0.4117   -0.2463    0.2186 C   0  0  1  0  0  0  0  0  0  0  0  0
    0.1554   -0.5152    1.1133 H   0  0  0  0  0  0  0  0  0  0  0  0
    0.3164   -0.8780   -0.9905 C   0  0  0  0  0  0  0  0  0  0  0  0
   -0.0746   -1.8870   -1.1441 H   0  0  0  0  0  0  0  0  0  0  0  0
    0.0793   -0.3024   -1.8878 H   0  0  0  0  0  0  0  0  0  0  0  0
    1.8233   -0.9555   -0.8658 C   0  0  0  0  0  0  0  0  0  0  0  0
    2.6991   -1.1982   -1.9061 N   0  3  0  0  0  0  0  0  0  0  0  0
    2.4054   -1.2860   -2.8833 H   0  0  0  0  0  0  0  0  0  0  0  0
    3.9544   -1.1953   -1.4153 C   0  0  0  0  0  0  0  0  0  0  0  0
    4.8593   -1.3465   -2.0003 H   0  0  0  0  0  0  0  0  0  0  0  0
    3.8940   -0.9570   -0.0856 N   0  0  0  0  0  0  0  0  0  0  0  0
    4.6879   -0.8956    0.5464 H   0  0  0  0  0  0  0  0  0  0  0  0
    2.5627   -0.8041    0.2760 C   0  0  0  0  0  0  0  0  0  0  0  0
    2.1726   -0.6024    1.2698 H   0  0  0  0  0  0  0  0  0  0  0  0
   -0.4874    1.2908    0.1962 C   0  0  0  0  0  0  0  0  0  0  0  0
   -1.3116    1.8673   -0.5151 O   0  0  0  0  0  0  0  0  0  0  0  0
    0.3889    1.9422    0.9708 N   0  0  0  0  0  0  0  0  0  0  0  0
    1.0197    1.3866    1.5283 H   0  0  0  0  0  0  0  0  0  0  0  0
    0.5081    3.3999    1.0720 C   0  0  0  0  0  0  0  0  0  0  0  0
    0.0188    3.7538    1.9817 H   0  0  0  0  0  0  0  0  0  0  0  0
    1.5607    3.6858    1.1098 H   0  0  0  0  0  0  0  0  0  0  0  0
    0.0459    3.8890    0.2119 H   0  0  0  0  0  0  0  0  0  0  0  0
  5  6  2  0  0  0  0
  5  7  1  0  0  0  0
  2  3  1  0  0  0  0
  2  4  1  0  0  0  0
  2  5  1  0  0  0  0
  1  2  1  0  0  0  0
 23 24  2  0  0  0  0
 23 25  1  0  0  0  0
 21 22  1  0  0  0  0
 19 20  1  0  0  0  0
 19 21  1  0  0  0  0
 17 18  1  0  0  0  0
 17 19  1  0  0  0  0
 15 16  1  0  0  0  0
 15 17  2  0  0  0  0
 14 15  1  0  0  0  0
 14 21  2  0  0  0  0
 11 12  1  0  0  0  0
 11 13  1  0  0  0  0
 11 14  1  0  0  0  0
  9 10  1  0  0  0  0
  9 11  1  0  0  0  0
  9 23  1  0  0  0  0
  7  8  1  0  0  0  0
  7  9  1  0  0  0  0
 27 28  1  0  0  0  0
 27 29  1  0  0  0  0
 27 30  1  0  0  0  0
 25 26  1  0  0  0  0
 25 27  1  0  0  0  0
M  CHG  1  15   1
M  END
$$$$
default_name
  -OEChem-02102213163D

 30 30  0     1  0  0  0  0  0999 V2000
   -3.5507   -3.2183    1.8116 H   0  0  0  0  0  0  0  0  0  0  0  0
   -3.4597   -2.3913    1.1076 C   0  0  0  0  0  0  0  0  0  0  0  0
   -4.1577   -1.6043    1.3866 H   0  0  0  0  0  0  0  0  0  0  0  0
   -3.6807   -2.7523    0.1036 H   0  0  0  0  0  0  0  0  0  0  0  0
   -2.0477   -1.8543    1.1546 C   0  0  0  0  0  0  0  0  0  0  0  0
   -1.2227   -2.3443    1.9146 O   0  0  0  0  0  0  0  0  0  0  0  0
   -1.7517   -0.8483    0.3266 N   0  0  0  0  0  0  0  0  0  0  0  0
   -2.4847   -0.5123   -0.2804 H   0  0  0  0  0  0  0  0  0  0  0  0
   -0.4117   -0.2463    0.2186 C   0  0  1  0  0  0  0  0  0  0  0  0
    0.1554   -0.5152    1.1133 H   0  0  0  0  0  0  0  0  0  0  0  0
    0.3164   -0.8780   -0.9905 C   0  0  0  0  0  0  0  0  0  0  0  0
   -0.0746   -1.8870   -1.1441 H   0  0  0  0  0  0  0  0  0  0  0  0
    0.0793   -0.3024   -1.8878 H   0  0  0  0  0  0  0  0  0  0  0  0
    1.8233   -0.9555   -0.8658 C   0  0  0  0  0  0  0  0  0  0  0  0
    2.7153   -0.9047   -1.9194 N   0  3  0  0  0  0  0  0  0  0  0  0
    2.4339   -0.7433   -2.8907 H   0  0  0  0  0  0  0  0  0  0  0  0
    3.9650   -1.0038   -1.4243 C   0  0  0  0  0  0  0  0  0  0  0  0
    4.8792   -0.9813   -2.0139 H   0  0  0  0  0  0  0  0  0  0  0  0
    3.8852   -1.1175   -0.0792 N   0  0  0  0  0  0  0  0  0  0  0  0
    4.6708   -1.2055    0.5600 H   0  0  0  0  0  0  0  0  0  0  0  0
    2.5471   -1.0891    0.2882 C   0  0  0  0  0  0  0  0  0  0  0  0
    2.1421   -1.1580    1.2941 H   0  0  0  0  0  0  0  0  0  0  0  0
   -0.4874    1.2908    0.1962 C   0  0  0  0  0  0  0  0  0  0  0  0
   -1.3116    1.8673   -0.5151 O   0  0  0  0  0  0  0  0  0  0  0  0
    0.3889    1.9422    0.9708 N   0  0  0  0  0  0  0  0  0  0  0  0
    1.0197    1.3866    1.5283 H   0  0  0  0  0  0  0  0  0  0  0  0
    0.5081    3.3999    1.0720 C   0  0  0  0  0  0  0  0  0  0  0  0
    0.0188    3.7538    1.9817 H   0  0  0  0  0  0  0  0  0  0  0  0
    1.5607    3.6858    1.1098 H   0  0  0  0  0  0  0  0  0  0  0  0
    0.0459    3.8890    0.2119 H   0  0  0  0  0  0  0  0  0  0  0  0
  5  6  2  0  0  0  0
  5  7  1  0  0  0  0
  2  3  1  0  0  0  0
  2  4  1  0  0  0  0
  2  5  1  0  0  0  0
  1  2  1  0  0  0  0
 23 24  2  0  0  0  0
 23 25  1  0  0  0  0
 21 22  1  0  0  0  0
 19 20  1  0  0  0  0
 19 21  1  0  0  0  0
 17 18  1  0  0  0  0
 17 19  1  0  0  0  0
 15 16  1  0  0  0  0
 15 17  2  0  0  0  0
 14 15  1  0  0  0  0
 14 21  2  0  0  0  0
 11 12  1  0  0  0  0
 11 13  1  0  0  0  0
 11 14  1  0  0  0  0
  9 10  1  0  0  0  0
  9 11  1  0  0  0  0
  9 23  1  0  0  0  0
  7  8  1  0  0  0  0
  7  9  1  0  0  0  0
 27 28  1  0  0  0  0
 27 29  1  0  0  0  0
 27 30  1  0  0  0  0
 25 26  1  0  0  0  0
 25 27  1  0  0  0  0
M  CHG  1  15   1
M  END
$$$$
default_name
  -OEChem-02102213163D

 30 30  0     1  0  0  0  0  0999 V2000
   -3.5507   -3.2183    1.8116 H   0  0  0  0  0  0  0  0  0  0  0  0
   -3.4597   -2.3913    1.1076 C   0  0  0  0  0  0  0  0  0  0  0  0
   -4.1577   -1.6043    1.3866 H   0  0  0  0  0  0  0  0  0  0  0  0
   -3.6807   -2.7523    0.1036 H   0  0  0  0  0  0  0  0  0  0  0  0
   -2.0477   -1.8543    1.1546 C   0  0  0  0  0  0  0  0  0  0  0  0
   -1.2227   -2.3443    1.9146 O   0  0  0  0  0  0  0  0  0  0  0  0
   -1.7517   -0.8483    0.3266 N   0  0  0  0  0  0  0  0  0  0  0  0
   -2.4847   -0.5123   -0.2804 H   0  0  0  0  0  0  0  0  0  0  0  0
   -0.4117   -0.2463    0.2186 C   0  0  1  0  0  0  0  0  0  0  0  0
    0.1554   -0.5152    1.1133 H   0  0  0  0  0  0  0  0  0  0  0  0
    0.3164   -0.8780   -0.9905 C   0  0  0  0  0  0  0  0  0  0  0  0
   -0.0746   -1.8870   -1.1441 H   0  0  0  0  0  0  0  0  0  0  0  0
    0.0793   -0.3024   -1.8878 H   0  0  0  0  0  0  0  0  0  0  0  0
    1.8233   -0.9555   -0.8658 C   0  0  0  0  0  0  0  0  0  0  0  0
    2.7248   -0.6174   -1.8564 N   0  3  0  0  0  0  0  0  0  0  0  0
    2.4499   -0.2167   -2.7578 H   0  0  0  0  0  0  0  0  0  0  0  0
    3.9712   -0.8162   -1.3835 C   0  0  0  0  0  0  0  0  0  0  0  0
    4.8908   -0.6246   -1.9327 H   0  0  0  0  0  0  0  0  0  0  0  0
    3.8801   -1.2743   -0.1145 N   0  0  0  0  0  0  0  0  0  0  0  0
    4.6608   -1.5087    0.4930 H   0  0  0  0  0  0  0  0  0  0  0  0
    2.5379   -1.3678    0.2264 C   0  0  0  0  0  0  0  0  0  0  0  0
    2.1241   -1.7015    1.1739 H   0  0  0  0  0  0  0  0  0  0  0  0
   -0.4874    1.2908    0.1962 C   0  0  0  0  0  0  0  0  0  0  0  0
   -1.3116    1.8673   -0.5151 O   0  0  0  0  0  0  0  0  0  0  0  0
    0.3889    1.9422    0.9708 N   0  0  0  0  0  0  0  0  0  0  0  0
    1.0197    1.3866    1.5283 H   0  0  0  0  0  0  0  0  0  0  0  0
    0.5081    3.3999    1.0720 C   0  0  0  0  0  0  0  0  0  0  0  0
    0.0188    3.7538    1.9817 H   0  0  0  0  0  0  0  0  0  0  0  0
    1.5607    3.6858    1.1098 H   0  0  0  0  0  0  0  0  0  0  0  0
    0.0459    3.8890    0.2119 H   0  0  0  0  0  0  0  0  0  0  0  0
  5  6  2  0  0  0  0
  5  7  1  0  0  0  0
  2  3  1  0  0  0  0
  2  4  1  0  0  0  0
  2  5  1  0  0  0  0
  1  2  1  0  0  0  0
 23 24  2  0  0  0  0
 23 25  1  0  0  0  0
 21 22  1  0  0  0  0
 19 20  1  0  0  0  0
 19 21  1  0  0  0  0
 17 18  1  0  0  0  0
 17 19  1  0  0  0  0
 15 16  1  0  0  0  0
 15 17  2  0  0  0  0
 14 15  1  0  0  0  0
 14 21  2  0  0  0  0
 11 12  1  0  0  0  0
 11 13  1  0  0  0  0
 11 14  1  0  0  0  0
  9 10  1  0  0  0  0
  9 11  1  0  0  0  0
  9 23  1  0  0  0  0
  7  8  1  0  0  0  0
  7  9  1  0  0  0  0
 27 28  1  0  0  0  0
 27 29  1  0  0  0  0
 27 30  1  0  0  0  0
 25 26  1  0  0  0  0
 25 27  1  0  0  0  0
M  CHG  1  15   1
M  END
$$$$
default_name
  -OEChem-02102213163D

 30 30  0     1  0  0  0  0  0999 V2000
   -3.5507   -3.2183    1.8116 H   0  0  0  0  0  0  0  0  0  0  0  0
   -3.4597   -2.3913    1.1076 C   0  0  0  0  0  0  0  0  0  0  0  0
   -4.1577   -1.6043    1.3866 H   0  0  0  0  0  0  0  0  0  0  0  0
   -3.6807   -2.7523    0.1036 H   0  0  0  0  0  0  0  0  0  0  0  0
   -2.0477   -1.8543    1.1546 C   0  0  0  0  0  0  0  0  0  0  0  0
   -1.2227   -2.3443    1.9146 O   0  0  0  0  0  0  0  0  0  0  0  0
   -1.7517   -0.8483    0.3266 N   0  0  0  0  0  0  0  0  0  0  0  0
   -2.4847   -0.5123   -0.2804 H   0  0  0  0  0  0  0  0  0  0  0  0
   -0.4117   -0.2463    0.2186 C   0  0  1  0  0  0  0  0  0  0  0  0
    0.1554   -0.5152    1.1133 H   0  0  0  0  0  0  0  0  0  0  0  0
    0.3164   -0.8780   -0.9905 C   0  0  0  0  0  0  0  0  0  0  0  0
   -0.0746   -1.8870   -1.1441 H   0  0  0  0  0  0  0  0  0  0  0  0
    0.0793   -0.3024   -1.8878 H   0  0  0  0  0  0  0  0  0  0  0  0
    1.8233   -0.9555   -0.8658 C   0  0  0  0  0  0  0  0  0  0  0  0
    2.7271   -0.3559   -1.7213 N   0  3  0  0  0  0  0  0  0  0  0  0
    2.4525    0.2582   -2.4935 H   0  0  0  0  0  0  0  0  0  0  0  0
    3.9727   -0.6454   -1.2957 C   0  0  0  0  0  0  0  0  0  0  0  0
    4.8934   -0.3008   -1.7623 H   0  0  0  0  0  0  0  0  0  0  0  0
    3.8790   -1.4168   -0.1890 N   0  0  0  0  0  0  0  0  0  0  0  0
    4.6585   -1.7845    0.3501 H   0  0  0  0  0  0  0  0  0  0  0  0
    2.5357   -1.6213    0.0947 C   0  0  0  0  0  0  0  0  0  0  0  0
    2.1199   -2.1960    0.9176 H   0  0  0  0  0  0  0  0  0  0  0  0
   -0.4874    1.2908    0.1962 C   0  0  0  0  0  0  0  0  0  0  0  0
   -1.3116    1.8673   -0.5151 O   0  0  0  0  0  0  0  0  0  0  0  0
    0.3889    1.9422    0.9708 N   0  0  0  0  0  0  0  0  0  0  0  0
    1.0197    1.3866    1.5283 H   0  0  0  0  0  0  0  0  0  0  0  0
    0.5081    3.3999    1.0720 C   0  0  0  0  0  0  0  0  0  0  0  0
    0.0188    3.7538    1.9817 H   0  0  0  0  0  0  0  0  0  0  0  0
    1.5607    3.6858    1.1098 H   0  0  0  0  0  0  0  0  0  0  0  0
    0.0459    3.8890    0.2119 H   0  0  0  0  0  0  0  0  0  0  0  0
  5  6  2  0  0  0  0
  5  7  1  0  0  0  0
  2  3  1  0  0  0  0
  2  4  1  0  0  0  0
  2  5  1  0  0  0  0
  1  2  1  0  0  0  0
 23 24  2  0  0  0  0
 23 25  1  0  0  0  0
 21 22  1  0  0  0  0
 19 20  1  0  0  0  0
 19 21  1  0  0  0  0
 17 18  1  0  0  0  0
 17 19  1  0  0  0  0
 15 16  1  0  0  0  0
 15 17  2  0  0  0  0
 14 15  1  0  0  0  0
 14 21  2  0  0  0  0
 11 12  1  0  0  0  0
 11 13  1  0  0  0  0
 11 14  1  0  0  0  0
  9 10  1  0  0  0  0
  9 11  1  0  0  0  0
  9 23  1  0  0  0  0
  7  8  1  0  0  0  0
  7  9  1  0  0  0  0
 27 28  1  0  0  0  0
 27 29  1  0  0  0  0
 27 30  1  0  0  0  0
 25 26  1  0  0  0  0
 25 27  1  0  0  0  0
M  CHG  1  15   1
M  END
$$$$
default_name
  -OEChem-02102213163D

 30 30  0     1  0  0  0  0  0999 V2000
   -3.5507   -3.2183    1.8116 H   0  0  0  0  0  0  0  0  0  0  0  0
   -3.4597   -2.3913    1.1076 C   0  0  0  0  0  0  0  0  0  0  0  0
   -4.1577   -1.6043    1.3866 H   0  0  0  0  0  0  0  0  0  0  0  0
   -3.6807   -2.7523    0.1036 H   0  0  0  0  0  0  0  0  0  0  0  0
   -2.0477   -1.8543    1.1546 C   0  0  0  0  0  0  0  0  0  0  0  0
   -1.2227   -2.3443    1.9146 O   0  0  0  0  0  0  0  0  0  0  0  0
   -1.7517   -0.8483    0.3266 N   0  0  0  0  0  0  0  0  0  0  0  0
   -2.4847   -0.5123   -0.2804 H   0  0  0  0  0  0  0  0  0  0  0  0
   -0.4117   -0.2463    0.2186 C   0  0  1  0  0  0  0  0  0  0  0  0
    0.1554   -0.5152    1.1133 H   0  0  0  0  0  0  0  0  0  0  0  0
    0.3164   -0.8780   -0.9905 C   0  0  0  0  0  0  0  0  0  0  0  0
   -0.0746   -1.8870   -1.1441 H   0  0  0  0  0  0  0  0  0  0  0  0
    0.0793   -0.3024   -1.8878 H   0  0  0  0  0  0  0  0  0  0  0  0
    1.8233   -0.9555   -0.8658 C   0  0  0  0  0  0  0  0  0  0  0  0
    2.7219   -0.1380   -1.5235 N   0  3  0  0  0  0  0  0  0  0  0  0
    2.4413    0.6488   -2.1159 H   0  0  0  0  0  0  0  0  0  0  0  0
    3.9694   -0.5030   -1.1668 C   0  0  0  0  0  0  0  0  0  0  0  0
    4.8866   -0.0318   -1.5141 H   0  0  0  0  0  0  0  0  0  0  0  0
    3.8819   -1.5353   -0.2978 N   0  0  0  0  0  0  0  0  0  0  0  0
    4.6640   -2.0142    0.1409 H   0  0  0  0  0  0  0  0  0  0  0  0
    2.5408   -1.8322   -0.0978 C   0  0  0  0  0  0  0  0  0  0  0  0
    2.1298   -2.6077    0.5426 H   0  0  0  0  0  0  0  0  0  0  0  0
   -0.4874    1.2908    0.1962 C   0  0  0  0  0  0  0  0  0  0  0  0
   -1.3116    1.8673   -0.5151 O   0  0  0  0  0  0  0  0  0  0  0  0
    0.3889    1.9422    0.9708 N   0  0  0  0  0  0  0  0  0  0  0  0
    1.0197    1.3866    1.5283 H   0  0  0  0  0  0  0  0  0  0  0  0
    0.5081    3.3999    1.0720 C   0  0  0  0  0  0  0  0  0  0  0  0
    0.0188    3.7538    1.9817 H   0  0  0  0  0  0  0  0  0  0  0  0
    1.5607    3.6858    1.1098 H   0  0  0  0  0  0  0  0  0  0  0  0
    0.0459    3.8890    0.2119 H   0  0  0  0  0  0  0  0  0  0  0  0
  5  6  2  0  0  0  0
  5  7  1  0  0  0  0
  2  3  1  0  0  0  0
  2  4  1  0  0  0  0
  2  5  1  0  0  0  0
  1  2  1  0  0  0  0
 23 24  2  0  0  0  0
 23 25  1  0  0  0  0
 21 22  1  0  0  0  0
 19 20  1  0  0  0  0
 19 21  1  0  0  0  0
 17 18  1  0  0  0  0
 17 19  1  0  0  0  0
 15 16  1  0  0  0  0
 15 17  2  0  0  0  0
 14 15  1  0  0  0  0
 14 21  2  0  0  0  0
 11 12  1  0  0  0  0
 11 13  1  0  0  0  0
 11 14  1  0  0  0  0
  9 10  1  0  0  0  0
  9 11  1  0  0  0  0
  9 23  1  0  0  0  0
  7  8  1  0  0  0  0
  7  9  1  0  0  0  0
 27 28  1  0  0  0  0
 27 29  1  0  0  0  0
 27 30  1  0  0  0  0
 25 26  1  0  0  0  0
 25 27  1  0  0  0  0
M  CHG  1  15   1
M  END
$$$$
default_name
  -OEChem-02102213163D

 30 30  0     1  0  0  0  0  0999 V2000
   -3.5507   -3.2183    1.8116 H   0  0  0  0  0  0  0  0  0  0  0  0
   -3.4597   -2.3913    1.1076 C   0  0  0  0  0  0  0  0  0  0  0  0
   -4.1577   -1.6043    1.3866 H   0  0  0  0  0  0  0  0  0  0  0  0
   -3.6807   -2.7523    0.1036 H   0  0  0  0  0  0  0  0  0  0  0  0
   -2.0477   -1.8543    1.1546 C   0  0  0  0  0  0  0  0  0  0  0  0
   -1.2227   -2.3443    1.9146 O   0  0  0  0  0  0  0  0  0  0  0  0
   -1.7517   -0.8483    0.3266 N   0  0  0  0  0  0  0  0  0  0  0  0
   -2.4847   -0.5123   -0.2804 H   0  0  0  0  0  0  0  0  0  0  0  0
   -0.4117   -0.2463    0.2186 C   0  0  1  0  0  0  0  0  0  0  0  0
    0.1554   -0.5152    1.1133 H   0  0  0  0  0  0  0  0  0  0  0  0
    0.3164   -0.8780   -0.9905 C   0  0  0  0  0  0  0  0  0  0  0  0
   -0.0746   -1.8870   -1.1441 H   0  0  0  0  0  0  0  0  0  0  0  0
    0.0793   -0.3024   -1.8878 H   0  0  0  0  0  0  0  0  0  0  0  0
    1.8233   -0.9555   -0.8658 C   0  0  0  0  0  0  0  0  0  0  0  0
    2.7097    0.0213   -1.2764 N   0  3  0  0  0  0  0  0  0  0  0  0
    2.4171    0.9286   -1.6507 H   0  0  0  0  0  0  0  0  0  0  0  0
    3.9614   -0.3988   -1.0058 C   0  0  0  0  0  0  0  0  0  0  0  0
    4.8711    0.1639   -1.2053 H   0  0  0  0  0  0  0  0  0  0  0  0
    3.8886   -1.6216   -0.4332 N   0  0  0  0  0  0  0  0  0  0  0  0
    4.6770   -2.1820   -0.1202 H   0  0  0  0  0  0  0  0  0  0  0  0
    2.5528   -1.9863   -0.3380 C   0  0  0  0  0  0  0  0  0  0  0  0
    2.1531   -2.9086    0.0745 H   0  0  0  0  0  0  0  0  0  0  0  0
   -0.4874    1.2908    0.1962 C   0  0  0  0  0  0  0  0  0  0  0  0
   -1.3116    1.8673   -0.5151 O   0  0  0  0  0  0  0  0  0  0  0  0
    0.3889    1.9422    0.9708 N   0  0  0  0  0  0  0  0  0  0  0  0
    1.0197    1.3866    1.5283 H   0  0  0  0  0  0  0  0  0  0  0  0
    0.5081    3.3999    1.0720 C   0  0  0  0  0  0  0  0  0  0  0  0
    0.0188    3.7538    1.9817 H   0  0  0  0  0  0  0  0  0  0  0  0
    1.5607    3.6858    1.1098 H   0  0  0  0  0  0  0  0  0  0  0  0
    0.0459    3.8890    0.2119 H   0  0  0  0  0  0  0  0  0  0  0  0
  5  6  2  0  0  0  0
  5  7  1  0  0  0  0
  2  3  1  0  0  0  0
  2  4  1  0  0  0  0
  2  5  1  0  0  0  0
  1  2  1  0  0  0  0
 23 24  2  0  0  0  0
 23 25  1  0  0  0  0
 21 22  1  0  0  0  0
 19 20  1  0  0  0  0
 19 21  1  0  0  0  0
 17 18  1  0  0  0  0
 17 19  1  0  0  0  0
 15 16  1  0  0  0  0
 15 17  2  0  0  0  0
 14 15  1  0  0  0  0
 14 21  2  0  0  0  0
 11 12  1  0  0  0  0
 11 13  1  0  0  0  0
 11 14  1  0  0  0  0
  9 10  1  0  0  0  0
  9 11  1  0  0  0  0
  9 23  1  0  0  0  0
  7  8  1  0  0  0  0
  7  9  1  0  0  0  0
 27 28  1  0  0  0  0
 27 29  1  0  0  0  0
 27 30  1  0  0  0  0
 25 26  1  0  0  0  0
 25 27  1  0  0  0  0
M  CHG  1  15   1
M  END
$$$$
default_name
  -OEChem-02102213163D

 30 30  0     1  0  0  0  0  0999 V2000
   -3.5507   -3.2183    1.8116 H   0  0  0  0  0  0  0  0  0  0  0  0
   -3.4597   -2.3913    1.1076 C   0  0  0  0  0  0  0  0  0  0  0  0
   -4.1577   -1.6043    1.3866 H   0  0  0  0  0  0  0  0  0  0  0  0
   -3.6807   -2.7523    0.1036 H   0  0  0  0  0  0  0  0  0  0  0  0
   -2.0477   -1.8543    1.1546 C   0  0  0  0  0  0  0  0  0  0  0  0
   -1.2227   -2.3443    1.9146 O   0  0  0  0  0  0  0  0  0  0  0  0
   -1.7517   -0.8483    0.3266 N   0  0  0  0  0  0  0  0  0  0  0  0
   -2.4847   -0.5123   -0.2804 H   0  0  0  0  0  0  0  0  0  0  0  0
   -0.4117   -0.2463    0.2186 C   0  0  1  0  0  0  0  0  0  0  0  0
    0.1554   -0.5152    1.1133 H   0  0  0  0  0  0  0  0  0  0  0  0
    0.3164   -0.8780   -0.9905 C   0  0  0  0  0  0  0  0  0  0  0  0
   -0.0746   -1.8870   -1.1441 H   0  0  0  0  0  0  0  0  0  0  0  0
    0.0793   -0.3024   -1.8878 H   0  0  0  0  0  0  0  0  0  0  0  0
    1.8233   -0.9555   -0.8658 C   0  0  0  0  0  0  0  0  0  0  0  0
    2.6911    0.1114   -0.9968 N   0  3  0  0  0  0  0  0  0  0  0  0
    2.3817    1.0785   -1.1295 H   0  0  0  0  0  0  0  0  0  0  0  0
    3.9494   -0.3397   -0.8234 C   0  0  0  0  0  0  0  0  0  0  0  0
    4.8479    0.2731   -0.8567 H   0  0  0  0  0  0  0  0  0  0  0  0
    3.8988   -1.6700   -0.5863 N   0  0  0  0  0  0  0  0  0  0  0  0
    4.6966   -2.2766   -0.4154 H   0  0  0  0  0  0  0  0  0  0  0  0
    2.5708   -2.0730   -0.6096 C   0  0  0  0  0  0  0  0  0  0  0  0
    2.1882   -3.0781   -0.4549 H   0  0  0  0  0  0  0  0  0  0  0  0
   -0.4874    1.2908    0.1962 C   0  0  0  0  0  0  0  0  0  0  0  0
   -1.3116    1.8673   -0.5151 O   0  0  0  0  0  0  0  0  0  0  0  0
    0.3889    1.9422    0.9708 N   0  0  0  0  0  0  0  0  0  0  0  0
    1.0197    1.3866    1.5283 H   0  0  0  0  0  0  0  0  0  0  0  0
    0.5081    3.3999    1.0720 C   0  0  0  0  0  0  0  0  0  0  0  0
    0.0188    3.7538    1.9817 H   0  0  0  0  0  0  0  0  0  0  0  0
    1.5607    3.6858    1.1098 H   0  0  0  0  0  0  0  0  0  0  0  0
    0.0459    3.8890    0.2119 H   0  0  0  0  0  0  0  0  0  0  0  0
  5  6  2  0  0  0  0
  5  7  1  0  0  0  0
  2  3  1  0  0  0  0
  2  4  1  0  0  0  0
  2  5  1  0  0  0  0
  1  2  1  0  0  0  0
 23 24  2  0  0  0  0
 23 25  1  0  0  0  0
 21 22  1  0  0  0  0
 19 20  1  0  0  0  0
 19 21  1  0  0  0  0
 17 18  1  0  0  0  0
 17 19  1  0  0  0  0
 15 16  1  0  0  0  0
 15 17  2  0  0  0  0
 14 15  1  0  0  0  0
 14 21  2  0  0  0  0
 11 12  1  0  0  0  0
 11 13  1  0  0  0  0
 11 14  1  0  0  0  0
  9 10  1  0  0  0  0
  9 11  1  0  0  0  0
  9 23  1  0  0  0  0
  7  8  1  0  0  0  0
  7  9  1  0  0  0  0
 27 28  1  0  0  0  0
 27 29  1  0  0  0  0
 27 30  1  0  0  0  0
 25 26  1  0  0  0  0
 25 27  1  0  0  0  0
M  CHG  1  15   1
M  END
$$$$
default_name
  -OEChem-02102213163D

 30 30  0     1  0  0  0  0  0999 V2000
   -3.5507   -3.2183    1.8116 H   0  0  0  0  0  0  0  0  0  0  0  0
   -3.4597   -2.3913    1.1076 C   0  0  0  0  0  0  0  0  0  0  0  0
   -4.1577   -1.6043    1.3866 H   0  0  0  0  0  0  0  0  0  0  0  0
   -3.6807   -2.7523    0.1036 H   0  0  0  0  0  0  0  0  0  0  0  0
   -2.0477   -1.8543    1.1546 C   0  0  0  0  0  0  0  0  0  0  0  0
   -1.2227   -2.3443    1.9146 O   0  0  0  0  0  0  0  0  0  0  0  0
   -1.7517   -0.8483    0.3266 N   0  0  0  0  0  0  0  0  0  0  0  0
   -2.4847   -0.5123   -0.2804 H   0  0  0  0  0  0  0  0  0  0  0  0
   -0.4117   -0.2463    0.2186 C   0  0  1  0  0  0  0  0  0  0  0  0
    0.1554   -0.5152    1.1133 H   0  0  0  0  0  0  0  0  0  0  0  0
    0.3164   -0.8780   -0.9905 C   0  0  0  0  0  0  0  0  0  0  0  0
   -0.0746   -1.8870   -1.1441 H   0  0  0  0  0  0  0  0  0  0  0  0
    0.0793   -0.3024   -1.8878 H   0  0  0  0  0  0  0  0  0  0  0  0
    1.8233   -0.9555   -0.8658 C   0  0  0  0  0  0  0  0  0  0  0  0
    2.6676    0.1259   -0.7038 N   0  3  0  0  0  0  0  0  0  0  0  0
    2.3374    1.0883   -0.5880 H   0  0  0  0  0  0  0  0  0  0  0  0
    3.9340   -0.3299   -0.6322 C   0  0  0  0  0  0  0  0  0  0  0  0
    4.8185    0.2883   -0.4922 H   0  0  0  0  0  0  0  0  0  0  0  0
    3.9117   -1.6771   -0.7464 N   0  0  0  0  0  0  0  0  0  0  0  0
    4.7214   -2.2915   -0.7247 H   0  0  0  0  0  0  0  0  0  0  0  0
    2.5937   -2.0864   -0.8940 C   0  0  0  0  0  0  0  0  0  0  0  0
    2.2327   -3.1047   -1.0094 H   0  0  0  0  0  0  0  0  0  0  0  0
   -0.4874    1.2908    0.1962 C   0  0  0  0  0  0  0  0  0  0  0  0
   -1.3116    1.8673   -0.5151 O   0  0  0  0  0  0  0  0  0  0  0  0
    0.3889    1.9422    0.9708 N   0  0  0  0  0  0  0  0  0  0  0  0
    1.0197    1.3866    1.5283 H   0  0  0  0  0  0  0  0  0  0  0  0
    0.5081    3.3999    1.0720 C   0  0  0  0  0  0  0  0  0  0  0  0
    0.0188    3.7538    1.9817 H   0  0  0  0  0  0  0  0  0  0  0  0
    1.5607    3.6858    1.1098 H   0  0  0  0  0  0  0  0  0  0  0  0
    0.0459    3.8890    0.2119 H   0  0  0  0  0  0  0  0  0  0  0  0
  5  6  2  0  0  0  0
  5  7  1  0  0  0  0
  2  3  1  0  0  0  0
  2  4  1  0  0  0  0
  2  5  1  0  0  0  0
  1  2  1  0  0  0  0
 23 24  2  0  0  0  0
 23 25  1  0  0  0  0
 21 22  1  0  0  0  0
 19 20  1  0  0  0  0
 19 21  1  0  0  0  0
 17 18  1  0  0  0  0
 17 19  1  0  0  0  0
 15 16  1  0  0  0  0
 15 17  2  0  0  0  0
 14 15  1  0  0  0  0
 14 21  2  0  0  0  0
 11 12  1  0  0  0  0
 11 13  1  0  0  0  0
 11 14  1  0  0  0  0
  9 10  1  0  0  0  0
  9 11  1  0  0  0  0
  9 23  1  0  0  0  0
  7  8  1  0  0  0  0
  7  9  1  0  0  0  0
 27 28  1  0  0  0  0
 27 29  1  0  0  0  0
 27 30  1  0  0  0  0
 25 26  1  0  0  0  0
 25 27  1  0  0  0  0
M  CHG  1  15   1
M  END
$$$$
default_name
  -OEChem-02102213163D

 30 30  0     1  0  0  0  0  0999 V2000
   -3.5507   -3.2183    1.8116 H   0  0  0  0  0  0  0  0  0  0  0  0
   -3.4597   -2.3913    1.1076 C   0  0  0  0  0  0  0  0  0  0  0  0
   -4.1577   -1.6043    1.3866 H   0  0  0  0  0  0  0  0  0  0  0  0
   -3.6807   -2.7523    0.1036 H   0  0  0  0  0  0  0  0  0  0  0  0
   -2.0477   -1.8543    1.1546 C   0  0  0  0  0  0  0  0  0  0  0  0
   -1.2227   -2.3443    1.9146 O   0  0  0  0  0  0  0  0  0  0  0  0
   -1.7517   -0.8483    0.3266 N   0  0  0  0  0  0  0  0  0  0  0  0
   -2.4847   -0.5123   -0.2804 H   0  0  0  0  0  0  0  0  0  0  0  0
   -0.4117   -0.2463    0.2186 C   0  0  1  0  0  0  0  0  0  0  0  0
    0.1554   -0.5152    1.1133 H   0  0  0  0  0  0  0  0  0  0  0  0
    0.3164   -0.8780   -0.9905 C   0  0  0  0  0  0  0  0  0  0  0  0
   -0.0746   -1.8870   -1.1441 H   0  0  0  0  0  0  0  0  0  0  0  0
    0.0793   -0.3024   -1.8878 H   0  0  0  0  0  0  0  0  0  0  0  0
    1.8233   -0.9555   -0.8658 C   0  0  0  0  0  0  0  0  0  0  0  0
    2.6407    0.0639   -0.4174 N   0  3  0  0  0  0  0  0  0  0  0  0
    2.2872    0.9573   -0.0630 H   0  0  0  0  0  0  0  0  0  0  0  0
    3.9165   -0.3700   -0.4453 C   0  0  0  0  0  0  0  0  0  0  0  0
    4.7849    0.2084   -0.1366 H   0  0  0  0  0  0  0  0  0  0  0  0
    3.9265   -1.6424   -0.9028 N   0  0  0  0  0  0  0  0  0  0  0  0
    4.7498   -2.2256   -1.0270 H   0  0  0  0  0  0  0  0  0  0  0  0
    2.6198   -2.0256   -1.1718 C   0  0  0  0  0  0  0  0  0  0  0  0
    2.2837   -2.9866   -1.5513 H   0  0  0  0  0  0  0  0  0  0  0  0
   -0.4874    1.2908    0.1962 C   0  0  0  0  0  0  0  0  0  0  0  0
   -1.3116    1.8673   -0.5151 O   0  0  0  0  0  0  0  0  0  0  0  0
    0.3889    1.9422    0.9708 N   0  0  0  0  0  0  0  0  0  0  0  0
    1.0197    1.3866    1.5283 H   0  0  0  0  0  0  0  0  0  0  0  0
    0.5081    3.3999    1.0720 C   0  0  0  0  0  0  0  0  0  0  0  0
    0.0188    3.7538    1.9817 H   0  0  0  0  0  0  0  0  0  0  0  0
    1.5607    3.6858    1.1098 H   0  0  0  0  0  0  0  0  0  0  0  0
    0.0459    3.8890    0.2119 H   0  0  0  0  0  0  0  0  0  0  0  0
  5  6  2  0  0  0  0
  5  7  1  0  0  0  0
  2  3  1  0  0  0  0
  2  4  1  0  0  0  0
  2  5  1  0  0  0  0
  1  2  1  0  0  0  0
 23 24  2  0  0  0  0
 23 25  1  0  0  0  0
 21 22  1  0  0  0  0
 19 20  1  0  0  0  0
 19 21  1  0  0  0  0
 17 18  1  0  0  0  0
 17 19  1  0  0  0  0
 15 16  1  0  0  0  0
 15 17  2  0  0  0  0
 14 15  1  0  0  0  0
 14 21  2  0  0  0  0
 11 12  1  0  0  0  0
 11 13  1  0  0  0  0
 11 14  1  0  0  0  0
  9 10  1  0  0  0  0
  9 11  1  0  0  0  0
  9 23  1  0  0  0  0
  7  8  1  0  0  0  0
  7  9  1  0  0  0  0
 27 28  1  0  0  0  0
 27 29  1  0  0  0  0
 27 30  1  0  0  0  0
 25 26  1  0  0  0  0
 25 27  1  0  0  0  0
M  CHG  1  15   1
M  END
$$$$
default_name
  -OEChem-02102213163D

 30 30  0     1  0  0  0  0  0999 V2000
   -3.5507   -3.2183    1.8116 H   0  0  0  0  0  0  0  0  0  0  0  0
   -3.4597   -2.3913    1.1076 C   0  0  0  0  0  0  0  0  0  0  0  0
   -4.1577   -1.6043    1.3866 H   0  0  0  0  0  0  0  0  0  0  0  0
   -3.6807   -2.7523    0.1036 H   0  0  0  0  0  0  0  0  0  0  0  0
   -2.0477   -1.8543    1.1546 C   0  0  0  0  0  0  0  0  0  0  0  0
   -1.2227   -2.3443    1.9146 O   0  0  0  0  0  0  0  0  0  0  0  0
   -1.7517   -0.8483    0.3266 N   0  0  0  0  0  0  0  0  0  0  0  0
   -2.4847   -0.5123   -0.2804 H   0  0  0  0  0  0  0  0  0  0  0  0
   -0.4117   -0.2463    0.2186 C   0  0  1  0  0  0  0  0  0  0  0  0
    0.1554   -0.5152    1.1133 H   0  0  0  0  0  0  0  0  0  0  0  0
    0.3164   -0.8780   -0.9905 C   0  0  0  0  0  0  0  0  0  0  0  0
   -0.0746   -1.8870   -1.1441 H   0  0  0  0  0  0  0  0  0  0  0  0
    0.0793   -0.3024   -1.8878 H   0  0  0  0  0  0  0  0  0  0  0  0
    1.8233   -0.9555   -0.8658 C   0  0  0  0  0  0  0  0  0  0  0  0
    2.6123   -0.0703   -0.1570 N   0  3  0  0  0  0  0  0  0  0  0  0
    2.2345    0.6945    0.4097 H   0  0  0  0  0  0  0  0  0  0  0  0
    3.8979   -0.4573   -0.2752 C   0  0  0  0  0  0  0  0  0  0  0  0
    4.7495    0.0390    0.1858 H   0  0  0  0  0  0  0  0  0  0  0  0
    3.9420   -1.5683   -1.0446 N   0  0  0  0  0  0  0  0  0  0  0  0
    4.7799   -2.0836   -1.3016 H   0  0  0  0  0  0  0  0  0  0  0  0
    2.6474   -1.8948   -1.4242 C   0  0  0  0  0  0  0  0  0  0  0  0
    2.3375   -2.7319   -2.0437 H   0  0  0  0  0  0  0  0  0  0  0  0
   -0.4874    1.2908    0.1962 C   0  0  0  0  0  0  0  0  0  0  0  0
   -1.3116    1.8673   -0.5151 O   0  0  0  0  0  0  0  0  0  0  0  0
    0.3889    1.9422    0.9708 N   0  0  0  0  0  0  0  0  0  0  0  0
    1.0197    1.3866    1.5283 H   0  0  0  0  0  0  0  0  0  0  0  0
    0.5081    3.3999    1.0720 C   0  0  0  0  0  0  0  0  0  0  0  0
    0.0188    3.7538    1.9817 H   0  0  0  0  0  0  0  0  0  0  0  0
    1.5607    3.6858    1.1098 H   0  0  0  0  0  0  0  0  0  0  0  0
    0.0459    3.8890    0.2119 H   0  0  0  0  0  0  0  0  0  0  0  0
  5  6  2  0  0  0  0
  5  7  1  0  0  0  0
  2  3  1  0  0  0  0
  2  4  1  0  0  0  0
  2  5  1  0  0  0  0
  1  2  1  0  0  0  0
 23 24  2  0  0  0  0
 23 25  1  0  0  0  0
 21 22  1  0  0  0  0
 19 20  1  0  0  0  0
 19 21  1  0  0  0  0
 17 18  1  0  0  0  0
 17 19  1  0  0  0  0
 15 16  1  0  0  0  0
 15 17  2  0  0  0  0
 14 15  1  0  0  0  0
 14 21  2  0  0  0  0
 11 12  1  0  0  0  0
 11 13  1  0  0  0  0
 11 14  1  0  0  0  0
  9 10  1  0  0  0  0
  9 11  1  0  0  0  0
  9 23  1  0  0  0  0
  7  8  1  0  0  0  0
  7  9  1  0  0  0  0
 27 28  1  0  0  0  0
 27 29  1  0  0  0  0
 27 30  1  0  0  0  0
 25 26  1  0  0  0  0
 25 27  1  0  0  0  0
M  CHG  1  15   1
M  END
$$$$
default_name
  -OEChem-02102213163D

 30 30  0     1  0  0  0  0  0999 V2000
   -3.5507   -3.2183    1.8116 H   0  0  0  0  0  0  0  0  0  0  0  0
   -3.4597   -2.3913    1.1076 C   0  0  0  0  0  0  0  0  0  0  0  0
   -4.1577   -1.6043    1.3866 H   0  0  0  0  0  0  0  0  0  0  0  0
   -3.6807   -2.7523    0.1036 H   0  0  0  0  0  0  0  0  0  0  0  0
   -2.0477   -1.8543    1.1546 C   0  0  0  0  0  0  0  0  0  0  0  0
   -1.2227   -2.3443    1.9146 O   0  0  0  0  0  0  0  0  0  0  0  0
   -1.7517   -0.8483    0.3266 N   0  0  0  0  0  0  0  0  0  0  0  0
   -2.4847   -0.5123   -0.2804 H   0  0  0  0  0  0  0  0  0  0  0  0
   -0.4117   -0.2463    0.2186 C   0  0  1  0  0  0  0  0  0  0  0  0
    0.1554   -0.5152    1.1133 H   0  0  0  0  0  0  0  0  0  0  0  0
    0.3164   -0.8780   -0.9905 C   0  0  0  0  0  0  0  0  0  0  0  0
   -0.0746   -1.8870   -1.1441 H   0  0  0  0  0  0  0  0  0  0  0  0
    0.0793   -0.3024   -1.8878 H   0  0  0  0  0  0  0  0  0  0  0  0
    1.8233   -0.9555   -0.8658 C   0  0  0  0  0  0  0  0  0  0  0  0
    2.5842   -0.2676    0.0596 N   0  3  0  0  0  0  0  0  0  0  0  0
    2.1830    0.3177    0.7979 H   0  0  0  0  0  0  0  0  0  0  0  0
    3.8796   -0.5858   -0.1337 C   0  0  0  0  0  0  0  0  0  0  0  0
    4.7147   -0.2085    0.4532 H   0  0  0  0  0  0  0  0  0  0  0  0
    3.9573   -1.4599   -1.1624 N   0  0  0  0  0  0  0  0  0  0  0  0
    4.8095   -1.8750   -1.5299 H   0  0  0  0  0  0  0  0  0  0  0  0
    2.6747   -1.7028   -1.6339 C   0  0  0  0  0  0  0  0  0  0  0  0
    2.3906   -2.3578   -2.4529 H   0  0  0  0  0  0  0  0  0  0  0  0
   -0.4874    1.2908    0.1962 C   0  0  0  0  0  0  0  0  0  0  0  0
   -1.3116    1.8673   -0.5151 O   0  0  0  0  0  0  0  0  0  0  0  0
    0.3889    1.9422    0.9708 N   0  0  0  0  0  0  0  0  0  0  0  0
    1.0197    1.3866    1.5283 H   0  0  0  0  0  0  0  0  0  0  0  0
    0.5081    3.3999    1.0720 C   0  0  0  0  0  0  0  0  0  0  0  0
    0.0188    3.7538    1.9817 H   0  0  0  0  0  0  0  0  0  0  0  0
    1.5607    3.6858    1.1098 H   0  0  0  0  0  0  0  0  0  0  0  0
    0.0459    3.8890    0.2119 H   0  0  0  0  0  0  0  0  0  0  0  0
  5  6  2  0  0  0  0
  5  7  1  0  0  0  0
  2  3  1  0  0  0  0
  2  4  1  0  0  0  0
  2  5  1  0  0  0  0
  1  2  1  0  0  0  0
 23 24  2  0  0  0  0
 23 25  1  0  0  0  0
 21 22  1  0  0  0  0
 19 20  1  0  0  0  0
 19 21  1  0  0  0  0
 17 18  1  0  0  0  0
 17 19  1  0  0  0  0
 15 16  1  0  0  0  0
 15 17  2  0  0  0  0
 14 15  1  0  0  0  0
 14 21  2  0  0  0  0
 11 12  1  0  0  0  0
 11 13  1  0  0  0  0
 11 14  1  0  0  0  0
  9 10  1  0  0  0  0
  9 11  1  0  0  0  0
  9 23  1  0  0  0  0
  7  8  1  0  0  0  0
  7  9  1  0  0  0  0
 27 28  1  0  0  0  0
 27 29  1  0  0  0  0
 27 30  1  0  0  0  0
 25 26  1  0  0  0  0
 25 27  1  0  0  0  0
M  CHG  1  15   1
M  END
$$$$
default_name
  -OEChem-02102213163D

 30 30  0     1  0  0  0  0  0999 V2000
   -3.5507   -3.2183    1.8116 H   0  0  0  0  0  0  0  0  0  0  0  0
   -3.4597   -2.3913    1.1076 C   0  0  0  0  0  0  0  0  0  0  0  0
   -4.1577   -1.6043    1.3866 H   0  0  0  0  0  0  0  0  0  0  0  0
   -3.6807   -2.7523    0.1036 H   0  0  0  0  0  0  0  0  0  0  0  0
   -2.0477   -1.8543    1.1546 C   0  0  0  0  0  0  0  0  0  0  0  0
   -1.2227   -2.3443    1.9146 O   0  0  0  0  0  0  0  0  0  0  0  0
   -1.7517   -0.8483    0.3266 N   0  0  0  0  0  0  0  0  0  0  0  0
   -2.4847   -0.5123   -0.2804 H   0  0  0  0  0  0  0  0  0  0  0  0
   -0.4117   -0.2463    0.2186 C   0  0  1  0  0  0  0  0  0  0  0  0
    0.1554   -0.5152    1.1133 H   0  0  0  0  0  0  0  0  0  0  0  0
    0.3164   -0.8780   -0.9905 C   0  0  0  0  0  0  0  0  0  0  0  0
   -0.0746   -1.8870   -1.1441 H   0  0  0  0  0  0  0  0  0  0  0  0
    0.0793   -0.3024   -1.8878 H   0  0  0  0  0  0  0  0  0  0  0  0
    1.8233   -0.9555   -0.8658 C   0  0  0  0  0  0  0  0  0  0  0  0
    2.5584   -0.5146    0.2175 N   0  3  0  0  0  0  0  0  0  0  0  0
    2.1361   -0.1473    1.0752 H   0  0  0  0  0  0  0  0  0  0  0  0
    3.8628   -0.7467   -0.0303 C   0  0  0  0  0  0  0  0  0  0  0  0
    4.6827   -0.5172    0.6472 H   0  0  0  0  0  0  0  0  0  0  0  0
    3.9714   -1.3245   -1.2480 N   0  0  0  0  0  0  0  0  0  0  0  0
    4.8367   -1.6140   -1.6963 H   0  0  0  0  0  0  0  0  0  0  0  0
    2.6997   -1.4627   -1.7867 C   0  0  0  0  0  0  0  0  0  0  0  0
    2.4394   -1.8900   -2.7511 H   0  0  0  0  0  0  0  0  0  0  0  0
   -0.4874    1.2908    0.1962 C   0  0  0  0  0  0  0  0  0  0  0  0
   -1.3116    1.8673   -0.5151 O   0  0  0  0  0  0  0  0  0  0  0  0
    0.3889    1.9422    0.9708 N   0  0  0  0  0  0  0  0  0  0  0  0
    1.0197    1.3866    1.5283 H   0  0  0  0  0  0  0  0  0  0  0  0
    0.5081    3.3999    1.0720 C   0  0  0  0  0  0  0  0  0  0  0  0
    0.0188    3.7538    1.9817 H   0  0  0  0  0  0  0  0  0  0  0  0
    1.5607    3.6858    1.1098 H   0  0  0  0  0  0  0  0  0  0  0  0
    0.0459    3.8890    0.2119 H   0  0  0  0  0  0  0  0  0  0  0  0
  5  6  2  0  0  0  0
  5  7  1  0  0  0  0
  2  3  1  0  0  0  0
  2  4  1  0  0  0  0
  2  5  1  0  0  0  0
  1  2  1  0  0  0  0
 23 24  2  0  0  0  0
 23 25  1  0  0  0  0
 21 22  1  0  0  0  0
 19 20  1  0  0  0  0
 19 21  1  0  0  0  0
 17 18  1  0  0  0  0
 17 19  1  0  0  0  0
 15 16  1  0  0  0  0
 15 17  2  0  0  0  0
 14 15  1  0  0  0  0
 14 21  2  0  0  0  0
 11 12  1  0  0  0  0
 11 13  1  0  0  0  0
 11 14  1  0  0  0  0
  9 10  1  0  0  0  0
  9 11  1  0  0  0  0
  9 23  1  0  0  0  0
  7  8  1  0  0  0  0
  7  9  1  0  0  0  0
 27 28  1  0  0  0  0
 27 29  1  0  0  0  0
 27 30  1  0  0  0  0
 25 26  1  0  0  0  0
 25 27  1  0  0  0  0
M  CHG  1  15   1
M  END
$$$$
default_name
  -OEChem-02102213163D

 30 30  0     1  0  0  0  0  0999 V2000
   -3.5507   -3.2183    1.8116 H   0  0  0  0  0  0  0  0  0  0  0  0
   -3.4597   -2.3913    1.1076 C   0  0  0  0  0  0  0  0  0  0  0  0
   -4.1577   -1.6043    1.3866 H   0  0  0  0  0  0  0  0  0  0  0  0
   -3.6807   -2.7523    0.1036 H   0  0  0  0  0  0  0  0  0  0  0  0
   -2.0477   -1.8543    1.1546 C   0  0  0  0  0  0  0  0  0  0  0  0
   -1.2227   -2.3443    1.9146 O   0  0  0  0  0  0  0  0  0  0  0  0
   -1.7517   -0.8483    0.3266 N   0  0  0  0  0  0  0  0  0  0  0  0
   -2.4847   -0.5123   -0.2804 H   0  0  0  0  0  0  0  0  0  0  0  0
   -0.4117   -0.2463    0.2186 C   0  0  1  0  0  0  0  0  0  0  0  0
    0.1554   -0.5152    1.1133 H   0  0  0  0  0  0  0  0  0  0  0  0
    0.3164   -0.8780   -0.9905 C   0  0  0  0  0  0  0  0  0  0  0  0
   -0.0746   -1.8870   -1.1441 H   0  0  0  0  0  0  0  0  0  0  0  0
    0.0793   -0.3024   -1.8878 H   0  0  0  0  0  0  0  0  0  0  0  0
    1.8233   -0.9555   -0.8658 C   0  0  0  0  0  0  0  0  0  0  0  0
    2.5367   -0.7944    0.3062 N   0  3  0  0  0  0  0  0  0  0  0  0
    2.0971   -0.6689    1.2226 H   0  0  0  0  0  0  0  0  0  0  0  0
    3.8486   -0.9292    0.0279 C   0  0  0  0  0  0  0  0  0  0  0  0
    4.6559   -0.8660    0.7547 H   0  0  0  0  0  0  0  0  0  0  0  0
    3.9832   -1.1713   -1.2956 N   0  0  0  0  0  0  0  0  0  0  0  0
    4.8596   -1.3185   -1.7894 H   0  0  0  0  0  0  0  0  0  0  0  0
    2.7207   -1.1909   -1.8721 C   0  0  0  0  0  0  0  0  0  0  0  0
    2.4804   -1.3602   -2.9181 H   0  0  0  0  0  0  0  0  0  0  0  0
   -0.4874    1.2908    0.1962 C   0  0  0  0  0  0  0  0  0  0  0  0
   -1.3116    1.8673   -0.5151 O   0  0  0  0  0  0  0  0  0  0  0  0
    0.3889    1.9422    0.9708 N   0  0  0  0  0  0  0  0  0  0  0  0
    1.0197    1.3866    1.5283 H   0  0  0  0  0  0  0  0  0  0  0  0
    0.5081    3.3999    1.0720 C   0  0  0  0  0  0  0  0  0  0  0  0
    0.0188    3.7538    1.9817 H   0  0  0  0  0  0  0  0  0  0  0  0
    1.5607    3.6858    1.1098 H   0  0  0  0  0  0  0  0  0  0  0  0
    0.0459    3.8890    0.2119 H   0  0  0  0  0  0  0  0  0  0  0  0
  5  6  2  0  0  0  0
  5  7  1  0  0  0  0
  2  3  1  0  0  0  0
  2  4  1  0  0  0  0
  2  5  1  0  0  0  0
  1  2  1  0  0  0  0
 23 24  2  0  0  0  0
 23 25  1  0  0  0  0
 21 22  1  0  0  0  0
 19 20  1  0  0  0  0
 19 21  1  0  0  0  0
 17 18  1  0  0  0  0
 17 19  1  0  0  0  0
 15 16  1  0  0  0  0
 15 17  2  0  0  0  0
 14 15  1  0  0  0  0
 14 21  2  0  0  0  0
 11 12  1  0  0  0  0
 11 13  1  0  0  0  0
 11 14  1  0  0  0  0
  9 10  1  0  0  0  0
  9 11  1  0  0  0  0
  9 23  1  0  0  0  0
  7  8  1  0  0  0  0
  7  9  1  0  0  0  0
 27 28  1  0  0  0  0
 27 29  1  0  0  0  0
 27 30  1  0  0  0  0
 25 26  1  0  0  0  0
 25 27  1  0  0  0  0
M  CHG  1  15   1
M  END
$$$$
default_name
  -OEChem-02102213163D

 30 30  0     1  0  0  0  0  0999 V2000
   -3.5507   -3.2183    1.8116 H   0  0  0  0  0  0  0  0  0  0  0  0
   -3.4597   -2.3913    1.1076 C   0  0  0  0  0  0  0  0  0  0  0  0
   -4.1577   -1.6043    1.3866 H   0  0  0  0  0  0  0  0  0  0  0  0
   -3.6807   -2.7523    0.1036 H   0  0  0  0  0  0  0  0  0  0  0  0
   -2.0477   -1.8543    1.1546 C   0  0  0  0  0  0  0  0  0  0  0  0
   -1.2227   -2.3443    1.9146 O   0  0  0  0  0  0  0  0  0  0  0  0
   -1.7517   -0.8483    0.3266 N   0  0  0  0  0  0  0  0  0  0  0  0
   -2.4847   -0.5123   -0.2804 H   0  0  0  0  0  0  0  0  0  0  0  0
   -0.4117   -0.2463    0.2186 C   0  0  1  0  0  0  0  0  0  0  0  0
    0.1554   -0.5152    1.1133 H   0  0  0  0  0  0  0  0  0  0  0  0
    0.3164   -0.8780   -0.9905 C   0  0  0  0  0  0  0  0  0  0  0  0
   -0.0746   -1.8870   -1.1441 H   0  0  0  0  0  0  0  0  0  0  0  0
    0.0793   -0.3024   -1.8878 H   0  0  0  0  0  0  0  0  0  0  0  0
    1.8233   -0.9555   -0.8658 C   0  0  0  0  0  0  0  0  0  0  0  0
    2.5205   -1.0879    0.3194 N   0  3  0  0  0  0  0  0  0  0  0  0
    2.0686   -1.2116    1.2301 H   0  0  0  0  0  0  0  0  0  0  0  0
    3.8380   -1.1207    0.0369 C   0  0  0  0  0  0  0  0  0  0  0  0
    4.6360   -1.2312    0.7683 H   0  0  0  0  0  0  0  0  0  0  0  0
    3.9920   -1.0109   -1.3020 N   0  0  0  0  0  0  0  0  0  0  0  0
    4.8766   -1.0087   -1.8029 H   0  0  0  0  0  0  0  0  0  0  0  0
    2.7364   -0.9060   -1.8842 C   0  0  0  0  0  0  0  0  0  0  0  0
    2.5110   -0.8046   -2.9423 H   0  0  0  0  0  0  0  0  0  0  0  0
   -0.4874    1.2908    0.1962 C   0  0  0  0  0  0  0  0  0  0  0  0
   -1.3116    1.8673   -0.5151 O   0  0  0  0  0  0  0  0  0  0  0  0
    0.3889    1.9422    0.9708 N   0  0  0  0  0  0  0  0  0  0  0  0
    1.0197    1.3866    1.5283 H   0  0  0  0  0  0  0  0  0  0  0  0
    0.5081    3.3999    1.0720 C   0  0  0  0  0  0  0  0  0  0  0  0
    0.0188    3.7538    1.9817 H   0  0  0  0  0  0  0  0  0  0  0  0
    1.5607    3.6858    1.1098 H   0  0  0  0  0  0  0  0  0  0  0  0
    0.0459    3.8890    0.2119 H   0  0  0  0  0  0  0  0  0  0  0  0
  5  6  2  0  0  0  0
  5  7  1  0  0  0  0
  2  3  1  0  0  0  0
  2  4  1  0  0  0  0
  2  5  1  0  0  0  0
  1  2  1  0  0  0  0
 23 24  2  0  0  0  0
 23 25  1  0  0  0  0
 21 22  1  0  0  0  0
 19 20  1  0  0  0  0
 19 21  1  0  0  0  0
 17 18  1  0  0  0  0
 17 19  1  0  0  0  0
 15 16  1  0  0  0  0
 15 17  2  0  0  0  0
 14 15  1  0  0  0  0
 14 21  2  0  0  0  0
 11 12  1  0  0  0  0
 11 13  1  0  0  0  0
 11 14  1  0  0  0  0
  9 10  1  0  0  0  0
  9 11  1  0  0  0  0
  9 23  1  0  0  0  0
  7  8  1  0  0  0  0
  7  9  1  0  0  0  0
 27 28  1  0  0  0  0
 27 29  1  0  0  0  0
 27 30  1  0  0  0  0
 25 26  1  0  0  0  0
 25 27  1  0  0  0  0
M  CHG  1  15   1
M  END
$$$$
default_name
  -OEChem-02102213163D

 30 30  0     1  0  0  0  0  0999 V2000
   -3.5507   -3.2183    1.8116 H   0  0  0  0  0  0  0  0  0  0  0  0
   -3.4597   -2.3913    1.1076 C   0  0  0  0  0  0  0  0  0  0  0  0
   -4.1577   -1.6043    1.3866 H   0  0  0  0  0  0  0  0  0  0  0  0
   -3.6807   -2.7523    0.1036 H   0  0  0  0  0  0  0  0  0  0  0  0
   -2.0477   -1.8543    1.1546 C   0  0  0  0  0  0  0  0  0  0  0  0
   -1.2227   -2.3443    1.9146 O   0  0  0  0  0  0  0  0  0  0  0  0
   -1.7517   -0.8483    0.3266 N   0  0  0  0  0  0  0  0  0  0  0  0
   -2.4847   -0.5123   -0.2804 H   0  0  0  0  0  0  0  0  0  0  0  0
   -0.4117   -0.2463    0.2186 C   0  0  1  0  0  0  0  0  0  0  0  0
    0.1554   -0.5152    1.1133 H   0  0  0  0  0  0  0  0  0  0  0  0
    0.3164   -0.8780   -0.9905 C   0  0  0  0  0  0  0  0  0  0  0  0
   -0.0746   -1.8870   -1.1441 H   0  0  0  0  0  0  0  0  0  0  0  0
    0.0793   -0.3024   -1.8878 H   0  0  0  0  0  0  0  0  0  0  0  0
    1.8233   -0.9555   -0.8658 C   0  0  0  0  0  0  0  0  0  0  0  0
    2.5110   -1.3752    0.2564 N   0  3  0  0  0  0  0  0  0  0  0  0
    2.0526   -1.7382    1.0971 H   0  0  0  0  0  0  0  0  0  0  0  0
    3.8317   -1.3083   -0.0039 C   0  0  0  0  0  0  0  0  0  0  0  0
    4.6244   -1.5879    0.6871 H   0  0  0  0  0  0  0  0  0  0  0  0
    3.9971   -0.8540   -1.2668 N   0  0  0  0  0  0  0  0  0  0  0  0
    4.8866   -0.7055   -1.7360 H   0  0  0  0  0  0  0  0  0  0  0  0
    2.7456   -0.6273   -1.8224 C   0  0  0  0  0  0  0  0  0  0  0  0
    2.5290   -0.2611   -2.8221 H   0  0  0  0  0  0  0  0  0  0  0  0
   -0.4874    1.2908    0.1962 C   0  0  0  0  0  0  0  0  0  0  0  0
   -1.3116    1.8673   -0.5151 O   0  0  0  0  0  0  0  0  0  0  0  0
    0.3889    1.9422    0.9708 N   0  0  0  0  0  0  0  0  0  0  0  0
    1.0197    1.3866    1.5283 H   0  0  0  0  0  0  0  0  0  0  0  0
    0.5081    3.3999    1.0720 C   0  0  0  0  0  0  0  0  0  0  0  0
    0.0188    3.7538    1.9817 H   0  0  0  0  0  0  0  0  0  0  0  0
    1.5607    3.6858    1.1098 H   0  0  0  0  0  0  0  0  0  0  0  0
    0.0459    3.8890    0.2119 H   0  0  0  0  0  0  0  0  0  0  0  0
  5  6  2  0  0  0  0
  5  7  1  0  0  0  0
  2  3  1  0  0  0  0
  2  4  1  0  0  0  0
  2  5  1  0  0  0  0
  1  2  1  0  0  0  0
 23 24  2  0  0  0  0
 23 25  1  0  0  0  0
 21 22  1  0  0  0  0
 19 20  1  0  0  0  0
 19 21  1  0  0  0  0
 17 18  1  0  0  0  0
 17 19  1  0  0  0  0
 15 16  1  0  0  0  0
 15 17  2  0  0  0  0
 14 15  1  0  0  0  0
 14 21  2  0  0  0  0
 11 12  1  0  0  0  0
 11 13  1  0  0  0  0
 11 14  1  0  0  0  0
  9 10  1  0  0  0  0
  9 11  1  0  0  0  0
  9 23  1  0  0  0  0
  7  8  1  0  0  0  0
  7  9  1  0  0  0  0
 27 28  1  0  0  0  0
 27 29  1  0  0  0  0
 27 30  1  0  0  0  0
 25 26  1  0  0  0  0
 25 27  1  0  0  0  0
M  CHG  1  15   1
M  END
$$$$
default_name
  -OEChem-02102213163D

 30 30  0     1  0  0  0  0  0999 V2000
   -3.5507   -3.2183    1.8116 H   0  0  0  0  0  0  0  0  0  0  0  0
   -3.4597   -2.3913    1.1076 C   0  0  0  0  0  0  0  0  0  0  0  0
   -4.1577   -1.6043    1.3866 H   0  0  0  0  0  0  0  0  0  0  0  0
   -3.6807   -2.7523    0.1036 H   0  0  0  0  0  0  0  0  0  0  0  0
   -2.0477   -1.8543    1.1546 C   0  0  0  0  0  0  0  0  0  0  0  0
   -1.2227   -2.3443    1.9146 O   0  0  0  0  0  0  0  0  0  0  0  0
   -1.7517   -0.8483    0.3266 N   0  0  0  0  0  0  0  0  0  0  0  0
   -2.4847   -0.5123   -0.2804 H   0  0  0  0  0  0  0  0  0  0  0  0
   -0.4117   -0.2463    0.2186 C   0  0  1  0  0  0  0  0  0  0  0  0
    0.1554   -0.5152    1.1133 H   0  0  0  0  0  0  0  0  0  0  0  0
    0.3164   -0.8780   -0.9905 C   0  0  0  0  0  0  0  0  0  0  0  0
   -0.0746   -1.8870   -1.1441 H   0  0  0  0  0  0  0  0  0  0  0  0
    0.0793   -0.3024   -1.8878 H   0  0  0  0  0  0  0  0  0  0  0  0
    1.8233   -0.9555   -0.8658 C   0  0  0  0  0  0  0  0  0  0  0  0
    2.5087   -1.6367    0.1214 N   0  3  0  0  0  0  0  0  0  0  0  0
    2.0500   -2.2131    0.8328 H   0  0  0  0  0  0  0  0  0  0  0  0
    3.8302   -1.4791   -0.0917 C   0  0  0  0  0  0  0  0  0  0  0  0
    4.6219   -1.9118    0.5166 H   0  0  0  0  0  0  0  0  0  0  0  0
    3.9983   -0.7115   -1.1922 N   0  0  0  0  0  0  0  0  0  0  0  0
    4.8890   -0.4297   -1.5930 H   0  0  0  0  0  0  0  0  0  0  0  0
    2.7477   -0.3738   -1.6907 C   0  0  0  0  0  0  0  0  0  0  0  0
    2.5332    0.2334   -2.5659 H   0  0  0  0  0  0  0  0  0  0  0  0
   -0.4874    1.2908    0.1962 C   0  0  0  0  0  0  0  0  0  0  0  0
   -1.3116    1.8673   -0.5151 O   0  0  0  0  0  0  0  0  0  0  0  0
    0.3889    1.9422    0.9708 N   0  0  0  0  0  0  0  0  0  0  0  0
    1.0197    1.3866    1.5283 H   0  0  0  0  0  0  0  0  0  0  0  0
    0.5081    3.3999    1.0720 C   0  0  0  0  0  0  0  0  0  0  0  0
    0.0188    3.7538    1.9817 H   0  0  0  0  0  0  0  0  0  0  0  0
    1.5607    3.6858    1.1098 H   0  0  0  0  0  0  0  0  0  0  0  0
    0.0459    3.8890    0.2119 H   0  0  0  0  0  0  0  0  0  0  0  0
  5  6  2  0  0  0  0
  5  7  1  0  0  0  0
  2  3  1  0  0  0  0
  2  4  1  0  0  0  0
  2  5  1  0  0  0  0
  1  2  1  0  0  0  0
 23 24  2  0  0  0  0
 23 25  1  0  0  0  0
 21 22  1  0  0  0  0
 19 20  1  0  0  0  0
 19 21  1  0  0  0  0
 17 18  1  0  0  0  0
 17 19  1  0  0  0  0
 15 16  1  0  0  0  0
 15 17  2  0  0  0  0
 14 15  1  0  0  0  0
 14 21  2  0  0  0  0
 11 12  1  0  0  0  0
 11 13  1  0  0  0  0
 11 14  1  0  0  0  0
  9 10  1  0  0  0  0
  9 11  1  0  0  0  0
  9 23  1  0  0  0  0
  7  8  1  0  0  0  0
  7  9  1  0  0  0  0
 27 28  1  0  0  0  0
 27 29  1  0  0  0  0
 27 30  1  0  0  0  0
 25 26  1  0  0  0  0
 25 27  1  0  0  0  0
M  CHG  1  15   1
M  END
$$$$
default_name
  -OEChem-02102213163D

 30 30  0     1  0  0  0  0  0999 V2000
   -3.5507   -3.2183    1.8116 H   0  0  0  0  0  0  0  0  0  0  0  0
   -3.4597   -2.3913    1.1076 C   0  0  0  0  0  0  0  0  0  0  0  0
   -4.1577   -1.6043    1.3866 H   0  0  0  0  0  0  0  0  0  0  0  0
   -3.6807   -2.7523    0.1036 H   0  0  0  0  0  0  0  0  0  0  0  0
   -2.0477   -1.8543    1.1546 C   0  0  0  0  0  0  0  0  0  0  0  0
   -1.2227   -2.3443    1.9146 O   0  0  0  0  0  0  0  0  0  0  0  0
   -1.7517   -0.8483    0.3266 N   0  0  0  0  0  0  0  0  0  0  0  0
   -2.4847   -0.5123   -0.2804 H   0  0  0  0  0  0  0  0  0  0  0  0
   -0.4117   -0.2463    0.2186 C   0  0  1  0  0  0  0  0  0  0  0  0
    0.1554   -0.5152    1.1133 H   0  0  0  0  0  0  0  0  0  0  0  0
    0.3164   -0.8780   -0.9905 C   0  0  0  0  0  0  0  0  0  0  0  0
   -0.0746   -1.8870   -1.1441 H   0  0  0  0  0  0  0  0  0  0  0  0
    0.0793   -0.3024   -1.8878 H   0  0  0  0  0  0  0  0  0  0  0  0
    1.8233   -0.9555   -0.8658 C   0  0  0  0  0  0  0  0  0  0  0  0
    2.5139   -1.8546   -0.0764 N   0  3  0  0  0  0  0  0  0  0  0  0
    2.0612   -2.6037    0.4552 H   0  0  0  0  0  0  0  0  0  0  0  0
    3.8336   -1.6215   -0.2206 C   0  0  0  0  0  0  0  0  0  0  0  0
    4.6286   -2.1807    0.2685 H   0  0  0  0  0  0  0  0  0  0  0  0
    3.9953   -0.5931   -1.0835 N   0  0  0  0  0  0  0  0  0  0  0  0
    4.8835   -0.2000   -1.3839 H   0  0  0  0  0  0  0  0  0  0  0  0
    2.7426   -0.1628   -1.4982 C   0  0  0  0  0  0  0  0  0  0  0  0
    2.5233    0.6451   -2.1909 H   0  0  0  0  0  0  0  0  0  0  0  0
   -0.4874    1.2908    0.1962 C   0  0  0  0  0  0  0  0  0  0  0  0
   -1.3116    1.8673   -0.5151 O   0  0  0  0  0  0  0  0  0  0  0  0
    0.3889    1.9422    0.9708 N   0  0  0  0  0  0  0  0  0  0  0  0
    1.0197    1.3866    1.5283 H   0  0  0  0  0  0  0  0  0  0  0  0
    0.5081    3.3999    1.0720 C   0  0  0  0  0  0  0  0  0  0  0  0
    0.0188    3.7538    1.9817 H   0  0  0  0  0  0  0  0  0  0  0  0
    1.5607    3.6858    1.1098 H   0  0  0  0  0  0  0  0  0  0  0  0
    0.0459    3.8890    0.2119 H   0  0  0  0  0  0  0  0  0  0  0  0
  5  6  2  0  0  0  0
  5  7  1  0  0  0  0
  2  3  1  0  0  0  0
  2  4  1  0  0  0  0
  2  5  1  0  0  0  0
  1  2  1  0  0  0  0
 23 24  2  0  0  0  0
 23 25  1  0  0  0  0
 21 22  1  0  0  0  0
 19 20  1  0  0  0  0
 19 21  1  0  0  0  0
 17 18  1  0  0  0  0
 17 19  1  0  0  0  0
 15 16  1  0  0  0  0
 15 17  2  0  0  0  0
 14 15  1  0  0  0  0
 14 21  2  0  0  0  0
 11 12  1  0  0  0  0
 11 13  1  0  0  0  0
 11 14  1  0  0  0  0
  9 10  1  0  0  0  0
  9 11  1  0  0  0  0
  9 23  1  0  0  0  0
  7  8  1  0  0  0  0
  7  9  1  0  0  0  0
 27 28  1  0  0  0  0
 27 29  1  0  0  0  0
 27 30  1  0  0  0  0
 25 26  1  0  0  0  0
 25 27  1  0  0  0  0
M  CHG  1  15   1
M  END
$$$$
default_name
  -OEChem-02102213163D

 30 30  0     1  0  0  0  0  0999 V2000
   -3.5507   -3.2183    1.8116 H   0  0  0  0  0  0  0  0  0  0  0  0
   -3.4597   -2.3913    1.1076 C   0  0  0  0  0  0  0  0  0  0  0  0
   -4.1577   -1.6043    1.3866 H   0  0  0  0  0  0  0  0  0  0  0  0
   -3.6807   -2.7523    0.1036 H   0  0  0  0  0  0  0  0  0  0  0  0
   -2.0477   -1.8543    1.1546 C   0  0  0  0  0  0  0  0  0  0  0  0
   -1.2227   -2.3443    1.9146 O   0  0  0  0  0  0  0  0  0  0  0  0
   -1.7517   -0.8483    0.3266 N   0  0  0  0  0  0  0  0  0  0  0  0
   -2.4847   -0.5123   -0.2804 H   0  0  0  0  0  0  0  0  0  0  0  0
   -0.4117   -0.2463    0.2186 C   0  0  1  0  0  0  0  0  0  0  0  0
    0.1554   -0.5152    1.1133 H   0  0  0  0  0  0  0  0  0  0  0  0
    0.3164   -0.8780   -0.9905 C   0  0  0  0  0  0  0  0  0  0  0  0
   -0.0746   -1.8870   -1.1441 H   0  0  0  0  0  0  0  0  0  0  0  0
    0.0793   -0.3024   -1.8878 H   0  0  0  0  0  0  0  0  0  0  0  0
    1.8233   -0.9555   -0.8658 C   0  0  0  0  0  0  0  0  0  0  0  0
    2.5262   -2.0139   -0.3236 N   0  3  0  0  0  0  0  0  0  0  0  0
    2.0854   -2.8835   -0.0100 H   0  0  0  0  0  0  0  0  0  0  0  0
    3.8415   -1.7257   -0.3816 C   0  0  0  0  0  0  0  0  0  0  0  0
    4.6441   -2.3765   -0.0404 H   0  0  0  0  0  0  0  0  0  0  0  0
    3.9886   -0.5067   -0.9480 N   0  0  0  0  0  0  0  0  0  0  0  0
    4.8705   -0.0322   -1.1228 H   0  0  0  0  0  0  0  0  0  0  0  0
    2.7306   -0.0087   -1.2580 C   0  0  0  0  0  0  0  0  0  0  0  0
    2.5000    0.9459   -1.7227 H   0  0  0  0  0  0  0  0  0  0  0  0
   -0.4874    1.2908    0.1962 C   0  0  0  0  0  0  0  0  0  0  0  0
   -1.3116    1.8673   -0.5151 O   0  0  0  0  0  0  0  0  0  0  0  0
    0.3889    1.9422    0.9708 N   0  0  0  0  0  0  0  0  0  0  0  0
    1.0197    1.3866    1.5283 H   0  0  0  0  0  0  0  0  0  0  0  0
    0.5081    3.3999    1.0720 C   0  0  0  0  0  0  0  0  0  0  0  0
    0.0188    3.7538    1.9817 H   0  0  0  0  0  0  0  0  0  0  0  0
    1.5607    3.6858    1.1098 H   0  0  0  0  0  0  0  0  0  0  0  0
    0.0459    3.8890    0.2119 H   0  0  0  0  0  0  0  0  0  0  0  0
  5  6  2  0  0  0  0
  5  7  1  0  0  0  0
  2  3  1  0  0  0  0
  2  4  1  0  0  0  0
  2  5  1  0  0  0  0
  1  2  1  0  0  0  0
 23 24  2  0  0  0  0
 23 25  1  0  0  0  0
 21 22  1  0  0  0  0
 19 20  1  0  0  0  0
 19 21  1  0  0  0  0
 17 18  1  0  0  0  0
 17 19  1  0  0  0  0
 15 16  1  0  0  0  0
 15 17  2  0  0  0  0
 14 15  1  0  0  0  0
 14 21  2  0  0  0  0
 11 12  1  0  0  0  0
 11 13  1  0  0  0  0
 11 14  1  0  0  0  0
  9 10  1  0  0  0  0
  9 11  1  0  0  0  0
  9 23  1  0  0  0  0
  7  8  1  0  0  0  0
  7  9  1  0  0  0  0
 27 28  1  0  0  0  0
 27 29  1  0  0  0  0
 27 30  1  0  0  0  0
 25 26  1  0  0  0  0
 25 27  1  0  0  0  0
M  CHG  1  15   1
M  END
$$$$
default_name
  -OEChem-02102213163D

 30 30  0     1  0  0  0  0  0999 V2000
   -3.5507   -3.2183    1.8116 H   0  0  0  0  0  0  0  0  0  0  0  0
   -3.4597   -2.3913    1.1076 C   0  0  0  0  0  0  0  0  0  0  0  0
   -4.1577   -1.6043    1.3866 H   0  0  0  0  0  0  0  0  0  0  0  0
   -3.6807   -2.7523    0.1036 H   0  0  0  0  0  0  0  0  0  0  0  0
   -2.0477   -1.8543    1.1546 C   0  0  0  0  0  0  0  0  0  0  0  0
   -1.2227   -2.3443    1.9146 O   0  0  0  0  0  0  0  0  0  0  0  0
   -1.7517   -0.8483    0.3266 N   0  0  0  0  0  0  0  0  0  0  0  0
   -2.4847   -0.5123   -0.2804 H   0  0  0  0  0  0  0  0  0  0  0  0
   -0.4117   -0.2463    0.2186 C   0  0  1  0  0  0  0  0  0  0  0  0
    0.1554   -0.5152    1.1133 H   0  0  0  0  0  0  0  0  0  0  0  0
    0.3164   -0.8780   -0.9905 C   0  0  0  0  0  0  0  0  0  0  0  0
   -0.0746   -1.8870   -1.1441 H   0  0  0  0  0  0  0  0  0  0  0  0
    0.0793   -0.3024   -1.8878 H   0  0  0  0  0  0  0  0  0  0  0  0
    1.8233   -0.9555   -0.8658 C   0  0  0  0  0  0  0  0  0  0  0  0
    2.5447   -2.1039   -0.6031 N   0  3  0  0  0  0  0  0  0  0  0  0
    2.1208   -3.0334   -0.5312 H   0  0  0  0  0  0  0  0  0  0  0  0
    3.8536   -1.7848   -0.5640 C   0  0  0  0  0  0  0  0  0  0  0  0
    4.6674   -2.4856   -0.3889 H   0  0  0  0  0  0  0  0  0  0  0  0
    3.9784   -0.4583   -0.7950 N   0  0  0  0  0  0  0  0  0  0  0  0
    4.8509    0.0624   -0.8275 H   0  0  0  0  0  0  0  0  0  0  0  0
    2.7126    0.0780   -0.9865 C   0  0  0  0  0  0  0  0  0  0  0  0
    2.4649    1.1154   -1.1934 H   0  0  0  0  0  0  0  0  0  0  0  0
   -0.4874    1.2908    0.1962 C   0  0  0  0  0  0  0  0  0  0  0  0
   -1.3116    1.8673   -0.5151 O   0  0  0  0  0  0  0  0  0  0  0  0
    0.3889    1.9422    0.9708 N   0  0  0  0  0  0  0  0  0  0  0  0
    1.0197    1.3866    1.5283 H   0  0  0  0  0  0  0  0  0  0  0  0
    0.5081    3.3999    1.0720 C   0  0  0  0  0  0  0  0  0  0  0  0
    0.0188    3.7538    1.9817 H   0  0  0  0  0  0  0  0  0  0  0  0
    1.5607    3.6858    1.1098 H   0  0  0  0  0  0  0  0  0  0  0  0
    0.0459    3.8890    0.2119 H   0  0  0  0  0  0  0  0  0  0  0  0
  5  6  2  0  0  0  0
  5  7  1  0  0  0  0
  2  3  1  0  0  0  0
  2  4  1  0  0  0  0
  2  5  1  0  0  0  0
  1  2  1  0  0  0  0
 23 24  2  0  0  0  0
 23 25  1  0  0  0  0
 21 22  1  0  0  0  0
 19 20  1  0  0  0  0
 19 21  1  0  0  0  0
 17 18  1  0  0  0  0
 17 19  1  0  0  0  0
 15 16  1  0  0  0  0
 15 17  2  0  0  0  0
 14 15  1  0  0  0  0
 14 21  2  0  0  0  0
 11 12  1  0  0  0  0
 11 13  1  0  0  0  0
 11 14  1  0  0  0  0
  9 10  1  0  0  0  0
  9 11  1  0  0  0  0
  9 23  1  0  0  0  0
  7  8  1  0  0  0  0
  7  9  1  0  0  0  0
 27 28  1  0  0  0  0
 27 29  1  0  0  0  0
 27 30  1  0  0  0  0
 25 26  1  0  0  0  0
 25 27  1  0  0  0  0
M  CHG  1  15   1
M  END
$$$$
default_name
  -OEChem-02102213163D

 30 30  0     1  0  0  0  0  0999 V2000
   -3.5507   -3.2183    1.8116 H   0  0  0  0  0  0  0  0  0  0  0  0
   -3.4597   -2.3913    1.1076 C   0  0  0  0  0  0  0  0  0  0  0  0
   -4.1577   -1.6043    1.3866 H   0  0  0  0  0  0  0  0  0  0  0  0
   -3.6807   -2.7523    0.1036 H   0  0  0  0  0  0  0  0  0  0  0  0
   -2.0477   -1.8543    1.1546 C   0  0  0  0  0  0  0  0  0  0  0  0
   -1.2227   -2.3443    1.9146 O   0  0  0  0  0  0  0  0  0  0  0  0
   -1.7517   -0.8483    0.3266 N   0  0  0  0  0  0  0  0  0  0  0  0
   -2.4847   -0.5123   -0.2804 H   0  0  0  0  0  0  0  0  0  0  0  0
   -0.4117   -0.2463    0.2186 C   0  0  1  0  0  0  0  0  0  0  0  0
    0.1554   -0.5152    1.1133 H   0  0  0  0  0  0  0  0  0  0  0  0
    0.3164   -0.8780   -0.9905 C   0  0  0  0  0  0  0  0  0  0  0  0
   -0.0746   -1.8870   -1.1441 H   0  0  0  0  0  0  0  0  0  0  0  0
    0.0793   -0.3024   -1.8878 H   0  0  0  0  0  0  0  0  0  0  0  0
    1.8233   -0.9555   -0.8658 C   0  0  0  0  0  0  0  0  0  0  0  0
    2.5682   -2.1185   -0.8962 N   0  3  0  0  0  0  0  0  0  0  0  0
    2.1652   -3.0432   -1.0727 H   0  0  0  0  0  0  0  0  0  0  0  0
    3.8689   -1.7946   -0.7552 C   0  0  0  0  0  0  0  0  0  0  0  0
    4.6968   -2.5008   -0.7534 H   0  0  0  0  0  0  0  0  0  0  0  0
    3.9655   -0.4513   -0.6348 N   0  0  0  0  0  0  0  0  0  0  0  0
    4.8260    0.0773   -0.5182 H   0  0  0  0  0  0  0  0  0  0  0  0
    2.6897    0.0914   -0.7021 C   0  0  0  0  0  0  0  0  0  0  0  0
    2.4203    1.1421   -0.6388 H   0  0  0  0  0  0  0  0  0  0  0  0
   -0.4874    1.2908    0.1962 C   0  0  0  0  0  0  0  0  0  0  0  0
   -1.3116    1.8673   -0.5151 O   0  0  0  0  0  0  0  0  0  0  0  0
    0.3889    1.9422    0.9708 N   0  0  0  0  0  0  0  0  0  0  0  0
    1.0197    1.3866    1.5283 H   0  0  0  0  0  0  0  0  0  0  0  0
    0.5081    3.3999    1.0720 C   0  0  0  0  0  0  0  0  0  0  0  0
    0.0188    3.7538    1.9817 H   0  0  0  0  0  0  0  0  0  0  0  0
    1.5607    3.6858    1.1098 H   0  0  0  0  0  0  0  0  0  0  0  0
    0.0459    3.8890    0.2119 H   0  0  0  0  0  0  0  0  0  0  0  0
  5  6  2  0  0  0  0
  5  7  1  0  0  0  0
  2  3  1  0  0  0  0
  2  4  1  0  0  0  0
  2  5  1  0  0  0  0
  1  2  1  0  0  0  0
 23 24  2  0  0  0  0
 23 25  1  0  0  0  0
 21 22  1  0  0  0  0
 19 20  1  0  0  0  0
 19 21  1  0  0  0  0
 17 18  1  0  0  0  0
 17 19  1  0  0  0  0
 15 16  1  0  0  0  0
 15 17  2  0  0  0  0
 14 15  1  0  0  0  0
 14 21  2  0  0  0  0
 11 12  1  0  0  0  0
 11 13  1  0  0  0  0
 11 14  1  0  0  0  0
  9 10  1  0  0  0  0
  9 11  1  0  0  0  0
  9 23  1  0  0  0  0
  7  8  1  0  0  0  0
  7  9  1  0  0  0  0
 27 28  1  0  0  0  0
 27 29  1  0  0  0  0
 27 30  1  0  0  0  0
 25 26  1  0  0  0  0
 25 27  1  0  0  0  0
M  CHG  1  15   1
M  END
$$$$
default_name
  -OEChem-02102213163D

 30 30  0     1  0  0  0  0  0999 V2000
   -3.5507   -3.2183    1.8116 H   0  0  0  0  0  0  0  0  0  0  0  0
   -3.4597   -2.3913    1.1076 C   0  0  0  0  0  0  0  0  0  0  0  0
   -4.1577   -1.6043    1.3866 H   0  0  0  0  0  0  0  0  0  0  0  0
   -3.6807   -2.7523    0.1036 H   0  0  0  0  0  0  0  0  0  0  0  0
   -2.0477   -1.8543    1.1546 C   0  0  0  0  0  0  0  0  0  0  0  0
   -1.2227   -2.3443    1.9146 O   0  0  0  0  0  0  0  0  0  0  0  0
   -1.7517   -0.8483    0.3266 N   0  0  0  0  0  0  0  0  0  0  0  0
   -2.4847   -0.5123   -0.2804 H   0  0  0  0  0  0  0  0  0  0  0  0
   -0.4117   -0.2463    0.2186 C   0  0  1  0  0  0  0  0  0  0  0  0
    0.1554   -0.5152    1.1133 H   0  0  0  0  0  0  0  0  0  0  0  0
    0.3164   -0.8780   -0.9905 C   0  0  0  0  0  0  0  0  0  0  0  0
   -0.0746   -1.8870   -1.1441 H   0  0  0  0  0  0  0  0  0  0  0  0
    0.0793   -0.3024   -1.8878 H   0  0  0  0  0  0  0  0  0  0  0  0
    1.8233   -0.9555   -0.8658 C   0  0  0  0  0  0  0  0  0  0  0  0
    2.5951   -2.0565   -1.1826 N   0  3  0  0  0  0  0  0  0  0  0  0
    2.2154   -2.9122   -1.5977 H   0  0  0  0  0  0  0  0  0  0  0  0
    3.8865   -1.7545   -0.9422 C   0  0  0  0  0  0  0  0  0  0  0  0
    4.7303   -2.4210   -1.1090 H   0  0  0  0  0  0  0  0  0  0  0  0
    3.9508   -0.4859   -0.4785 N   0  0  0  0  0  0  0  0  0  0  0  0
    4.7976    0.0114   -0.2160 H   0  0  0  0  0  0  0  0  0  0  0  0
    2.6636    0.0306   -0.4242 C   0  0  0  0  0  0  0  0  0  0  0  0
    2.3694    1.0240   -0.0969 H   0  0  0  0  0  0  0  0  0  0  0  0
   -0.4874    1.2908    0.1962 C   0  0  0  0  0  0  0  0  0  0  0  0
   -1.3116    1.8673   -0.5151 O   0  0  0  0  0  0  0  0  0  0  0  0
    0.3889    1.9422    0.9708 N   0  0  0  0  0  0  0  0  0  0  0  0
    1.0197    1.3866    1.5283 H   0  0  0  0  0  0  0  0  0  0  0  0
    0.5081    3.3999    1.0720 C   0  0  0  0  0  0  0  0  0  0  0  0
    0.0188    3.7538    1.9817 H   0  0  0  0  0  0  0  0  0  0  0  0
    1.5607    3.6858    1.1098 H   0  0  0  0  0  0  0  0  0  0  0  0
    0.0459    3.8890    0.2119 H   0  0  0  0  0  0  0  0  0  0  0  0
  5  6  2  0  0  0  0
  5  7  1  0  0  0  0
  2  3  1  0  0  0  0
  2  4  1  0  0  0  0
  2  5  1  0  0  0  0
  1  2  1  0  0  0  0
 23 24  2  0  0  0  0
 23 25  1  0  0  0  0
 21 22  1  0  0  0  0
 19 20  1  0  0  0  0
 19 21  1  0  0  0  0
 17 18  1  0  0  0  0
 17 19  1  0  0  0  0
 15 16  1  0  0  0  0
 15 17  2  0  0  0  0
 14 15  1  0  0  0  0
 14 21  2  0  0  0  0
 11 12  1  0  0  0  0
 11 13  1  0  0  0  0
 11 14  1  0  0  0  0
  9 10  1  0  0  0  0
  9 11  1  0  0  0  0
  9 23  1  0  0  0  0
  7  8  1  0  0  0  0
  7  9  1  0  0  0  0
 27 28  1  0  0  0  0
 27 29  1  0  0  0  0
 27 30  1  0  0  0  0
 25 26  1  0  0  0  0
 25 27  1  0  0  0  0
M  CHG  1  15   1
M  END
$$$$
default_name
  -OEChem-02102213163D

 30 30  0     1  0  0  0  0  0999 V2000
   -3.5507   -3.2183    1.8116 H   0  0  0  0  0  0  0  0  0  0  0  0
   -3.4597   -2.3913    1.1076 C   0  0  0  0  0  0  0  0  0  0  0  0
   -4.1577   -1.6043    1.3866 H   0  0  0  0  0  0  0  0  0  0  0  0
   -3.6807   -2.7523    0.1036 H   0  0  0  0  0  0  0  0  0  0  0  0
   -2.0477   -1.8543    1.1546 C   0  0  0  0  0  0  0  0  0  0  0  0
   -1.2227   -2.3443    1.9146 O   0  0  0  0  0  0  0  0  0  0  0  0
   -1.7517   -0.8483    0.3266 N   0  0  0  0  0  0  0  0  0  0  0  0
   -2.4847   -0.5123   -0.2804 H   0  0  0  0  0  0  0  0  0  0  0  0
   -0.4117   -0.2463    0.2186 C   0  0  1  0  0  0  0  0  0  0  0  0
    0.1554   -0.5152    1.1133 H   0  0  0  0  0  0  0  0  0  0  0  0
    0.3164   -0.8780   -0.9905 C   0  0  0  0  0  0  0  0  0  0  0  0
   -0.0746   -1.8870   -1.1441 H   0  0  0  0  0  0  0  0  0  0  0  0
    0.0793   -0.3024   -1.8878 H   0  0  0  0  0  0  0  0  0  0  0  0
    1.8233   -0.9555   -0.8658 C   0  0  0  0  0  0  0  0  0  0  0  0
    2.6236   -1.9223   -1.4430 N   0  3  0  0  0  0  0  0  0  0  0  0
    2.2680   -2.6494   -2.0704 H   0  0  0  0  0  0  0  0  0  0  0  0
    3.9050   -1.6673   -1.1122 C   0  0  0  0  0  0  0  0  0  0  0  0
    4.7657   -2.2515   -1.4315 H   0  0  0  0  0  0  0  0  0  0  0  0
    3.9352   -0.5600   -0.3366 N   0  0  0  0  0  0  0  0  0  0  0  0
    4.7676   -0.1306    0.0587 H   0  0  0  0  0  0  0  0  0  0  0  0
    2.6360   -0.1003   -0.1718 C   0  0  0  0  0  0  0  0  0  0  0  0
    2.3155    0.7692    0.3954 H   0  0  0  0  0  0  0  0  0  0  0  0
   -0.4874    1.2908    0.1962 C   0  0  0  0  0  0  0  0  0  0  0  0
   -1.3116    1.8673   -0.5151 O   0  0  0  0  0  0  0  0  0  0  0  0
    0.3889    1.9422    0.9708 N   0  0  0  0  0  0  0  0  0  0  0  0
    1.0197    1.3866    1.5283 H   0  0  0  0  0  0  0  0  0  0  0  0
    0.5081    3.3999    1.0720 C   0  0  0  0  0  0  0  0  0  0  0  0
    0.0188    3.7538    1.9817 H   0  0  0  0  0  0  0  0  0  0  0  0
    1.5607    3.6858    1.1098 H   0  0  0  0  0  0  0  0  0  0  0  0
    0.0459    3.8890    0.2119 H   0  0  0  0  0  0  0  0  0  0  0  0
  5  6  2  0  0  0  0
  5  7  1  0  0  0  0
  2  3  1  0  0  0  0
  2  4  1  0  0  0  0
  2  5  1  0  0  0  0
  1  2  1  0  0  0  0
 23 24  2  0  0  0  0
 23 25  1  0  0  0  0
 21 22  1  0  0  0  0
 19 20  1  0  0  0  0
 19 21  1  0  0  0  0
 17 18  1  0  0  0  0
 17 19  1  0  0  0  0
 15 16  1  0  0  0  0
 15 17  2  0  0  0  0
 14 15  1  0  0  0  0
 14 21  2  0  0  0  0
 11 12  1  0  0  0  0
 11 13  1  0  0  0  0
 11 14  1  0  0  0  0
  9 10  1  0  0  0  0
  9 11  1  0  0  0  0
  9 23  1  0  0  0  0
  7  8  1  0  0  0  0
  7  9  1  0  0  0  0
 27 28  1  0  0  0  0
 27 29  1  0  0  0  0
 27 30  1  0  0  0  0
 25 26  1  0  0  0  0
 25 27  1  0  0  0  0
M  CHG  1  15   1
M  END
$$$$
default_name
  -OEChem-02102213163D

 30 30  0     1  0  0  0  0  0999 V2000
   -3.5507   -3.2183    1.8116 H   0  0  0  0  0  0  0  0  0  0  0  0
   -3.4597   -2.3913    1.1076 C   0  0  0  0  0  0  0  0  0  0  0  0
   -4.1577   -1.6043    1.3866 H   0  0  0  0  0  0  0  0  0  0  0  0
   -3.6807   -2.7523    0.1036 H   0  0  0  0  0  0  0  0  0  0  0  0
   -2.0477   -1.8543    1.1546 C   0  0  0  0  0  0  0  0  0  0  0  0
   -1.2227   -2.3443    1.9146 O   0  0  0  0  0  0  0  0  0  0  0  0
   -1.7517   -0.8483    0.3266 N   0  0  0  0  0  0  0  0  0  0  0  0
   -2.4847   -0.5123   -0.2804 H   0  0  0  0  0  0  0  0  0  0  0  0
   -0.4117   -0.2463    0.2186 C   0  0  1  0  0  0  0  0  0  0  0  0
    0.1554   -0.5152    1.1133 H   0  0  0  0  0  0  0  0  0  0  0  0
    0.3164   -0.8780   -0.9905 C   0  0  0  0  0  0  0  0  0  0  0  0
   -0.0746   -1.8870   -1.1441 H   0  0  0  0  0  0  0  0  0  0  0  0
    0.0793   -0.3024   -1.8878 H   0  0  0  0  0  0  0  0  0  0  0  0
    1.8233   -0.9555   -0.8658 C   0  0  0  0  0  0  0  0  0  0  0  0
    2.6516   -1.7250   -1.6595 N   0  3  0  0  0  0  0  0  0  0  0  0
    2.3195   -2.2726   -2.4586 H   0  0  0  0  0  0  0  0  0  0  0  0
    3.9234   -1.5388   -1.2538 C   0  0  0  0  0  0  0  0  0  0  0  0
    4.8006   -2.0040   -1.6988 H   0  0  0  0  0  0  0  0  0  0  0  0
    3.9199   -0.6685   -0.2189 N   0  0  0  0  0  0  0  0  0  0  0  0
    4.7380   -0.3392    0.2869 H   0  0  0  0  0  0  0  0  0  0  0  0
    2.6087   -0.2923    0.0379 C   0  0  0  0  0  0  0  0  0  0  0  0
    2.2624    0.3952    0.8047 H   0  0  0  0  0  0  0  0  0  0  0  0
   -0.4874    1.2908    0.1962 C   0  0  0  0  0  0  0  0  0  0  0  0
   -1.3116    1.8673   -0.5151 O   0  0  0  0  0  0  0  0  0  0  0  0
    0.3889    1.9422    0.9708 N   0  0  0  0  0  0  0  0  0  0  0  0
    1.0197    1.3866    1.5283 H   0  0  0  0  0  0  0  0  0  0  0  0
    0.5081    3.3999    1.0720 C   0  0  0  0  0  0  0  0  0  0  0  0
    0.0188    3.7538    1.9817 H   0  0  0  0  0  0  0  0  0  0  0  0
    1.5607    3.6858    1.1098 H   0  0  0  0  0  0  0  0  0  0  0  0
    0.0459    3.8890    0.2119 H   0  0  0  0  0  0  0  0  0  0  0  0
  5  6  2  0  0  0  0
  5  7  1  0  0  0  0
  2  3  1  0  0  0  0
  2  4  1  0  0  0  0
  2  5  1  0  0  0  0
  1  2  1  0  0  0  0
 23 24  2  0  0  0  0
 23 25  1  0  0  0  0
 21 22  1  0  0  0  0
 19 20  1  0  0  0  0
 19 21  1  0  0  0  0
 17 18  1  0  0  0  0
 17 19  1  0  0  0  0
 15 16  1  0  0  0  0
 15 17  2  0  0  0  0
 14 15  1  0  0  0  0
 14 21  2  0  0  0  0
 11 12  1  0  0  0  0
 11 13  1  0  0  0  0
 11 14  1  0  0  0  0
  9 10  1  0  0  0  0
  9 11  1  0  0  0  0
  9 23  1  0  0  0  0
  7  8  1  0  0  0  0
  7  9  1  0  0  0  0
 27 28  1  0  0  0  0
 27 29  1  0  0  0  0
 27 30  1  0  0  0  0
 25 26  1  0  0  0  0
 25 27  1  0  0  0  0
M  CHG  1  15   1
M  END
$$$$
default_name
  -OEChem-02102213163D

 30 30  0     1  0  0  0  0  0999 V2000
   -3.5507   -3.2183    1.8116 H   0  0  0  0  0  0  0  0  0  0  0  0
   -3.4597   -2.3913    1.1076 C   0  0  0  0  0  0  0  0  0  0  0  0
   -4.1577   -1.6043    1.3866 H   0  0  0  0  0  0  0  0  0  0  0  0
   -3.6807   -2.7523    0.1036 H   0  0  0  0  0  0  0  0  0  0  0  0
   -2.0477   -1.8543    1.1546 C   0  0  0  0  0  0  0  0  0  0  0  0
   -1.2227   -2.3443    1.9146 O   0  0  0  0  0  0  0  0  0  0  0  0
   -1.7517   -0.8483    0.3266 N   0  0  0  0  0  0  0  0  0  0  0  0
   -2.4847   -0.5123   -0.2804 H   0  0  0  0  0  0  0  0  0  0  0  0
   -0.4117   -0.2463    0.2186 C   0  0  1  0  0  0  0  0  0  0  0  0
    0.1554   -0.5152    1.1133 H   0  0  0  0  0  0  0  0  0  0  0  0
    0.3164   -0.8780   -0.9905 C   0  0  0  0  0  0  0  0  0  0  0  0
   -0.2437   -1.7597   -1.3124 H   0  0  0  0  0  0  0  0  0  0  0  0
    0.3045   -0.1696   -1.8216 H   0  0  0  0  0  0  0  0  0  0  0  0
    1.7534   -1.2819   -0.7373 C   0  0  0  0  0  0  0  0  0  0  0  0
    2.5951   -1.8625   -1.6662 N   0  3  0  0  0  0  0  0  0  0  0  0
    2.3364   -2.0158   -2.6451 H   0  0  0  0  0  0  0  0  0  0  0  0
    3.7896   -2.0801   -1.0809 C   0  0  0  0  0  0  0  0  0  0  0  0
    4.6594   -2.5156   -1.5685 H   0  0  0  0  0  0  0  0  0  0  0  0
    3.7238   -1.6511    0.1997 N   0  0  0  0  0  0  0  0  0  0  0  0
    4.4779   -1.6864    0.8806 H   0  0  0  0  0  0  0  0  0  0  0  0
    2.4516   -1.1470    0.4322 C   0  0  0  0  0  0  0  0  0  0  0  0
    2.0735   -0.7242    1.3589 H   0  0  0  0  0  0  0  0  0  0  0  0
   -0.4874    1.2908    0.1962 C   0  0  0  0  0  0  0  0  0  0  0  0
   -1.3116    1.8673   -0.5151 O   0  0  0  0  0  0  0  0  0  0  0  0
    0.3889    1.9422    0.9708 N   0  0  0  0  0  0  0  0  0  0  0  0
    1.0197    1.3866    1.5283 H   0  0  0  0  0  0  0  0  0  0  0  0
    0.5081    3.3999    1.0720 C   0  0  0  0  0  0  0  0  0  0  0  0
    0.0188    3.7538    1.9817 H   0  0  0  0  0  0  0  0  0  0  0  0
    1.5607    3.6858    1.1098 H   0  0  0  0  0  0  0  0  0  0  0  0
    0.0459    3.8890    0.2119 H   0  0  0  0  0  0  0  0  0  0  0  0
  5  6  2  0  0  0  0
  5  7  1  0  0  0  0
  2  3  1  0  0  0  0
  2  4  1  0  0  0  0
  2  5  1  0  0  0  0
  1  2  1  0  0  0  0
 23 24  2  0  0  0  0
 23 25  1  0  0  0  0
 21 22  1  0  0  0  0
 19 20  1  0  0  0  0
 19 21  1  0  0  0  0
 17 18  1  0  0  0  0
 17 19  1  0  0  0  0
 15 16  1  0  0  0  0
 15 17  2  0  0  0  0
 14 15  1  0  0  0  0
 14 21  2  0  0  0  0
 11 12  1  0  0  0  0
 11 13  1  0  0  0  0
 11 14  1  0  0  0  0
  9 10  1  0  0  0  0
  9 11  1  0  0  0  0
  9 23  1  0  0  0  0
  7  8  1  0  0  0  0
  7  9  1  0  0  0  0
 27 28  1  0  0  0  0
 27 29  1  0  0  0  0
 27 30  1  0  0  0  0
 25 26  1  0  0  0  0
 25 27  1  0  0  0  0
M  CHG  1  15   1
M  END
$$$$
default_name
  -OEChem-02102213163D

 30 30  0     1  0  0  0  0  0999 V2000
   -3.5507   -3.2183    1.8116 H   0  0  0  0  0  0  0  0  0  0  0  0
   -3.4597   -2.3913    1.1076 C   0  0  0  0  0  0  0  0  0  0  0  0
   -4.1577   -1.6043    1.3866 H   0  0  0  0  0  0  0  0  0  0  0  0
   -3.6807   -2.7523    0.1036 H   0  0  0  0  0  0  0  0  0  0  0  0
   -2.0477   -1.8543    1.1546 C   0  0  0  0  0  0  0  0  0  0  0  0
   -1.2227   -2.3443    1.9146 O   0  0  0  0  0  0  0  0  0  0  0  0
   -1.7517   -0.8483    0.3266 N   0  0  0  0  0  0  0  0  0  0  0  0
   -2.4847   -0.5123   -0.2804 H   0  0  0  0  0  0  0  0  0  0  0  0
   -0.4117   -0.2463    0.2186 C   0  0  1  0  0  0  0  0  0  0  0  0
    0.1554   -0.5152    1.1133 H   0  0  0  0  0  0  0  0  0  0  0  0
    0.3164   -0.8780   -0.9905 C   0  0  0  0  0  0  0  0  0  0  0  0
   -0.2437   -1.7597   -1.3124 H   0  0  0  0  0  0  0  0  0  0  0  0
    0.3045   -0.1696   -1.8216 H   0  0  0  0  0  0  0  0  0  0  0  0
    1.7534   -1.2819   -0.7373 C   0  0  0  0  0  0  0  0  0  0  0  0
    2.6815   -1.5854   -1.7145 N   0  3  0  0  0  0  0  0  0  0  0  0
    2.4940   -1.5008   -2.7177 H   0  0  0  0  0  0  0  0  0  0  0  0
    3.8460   -1.8993   -1.1128 C   0  0  0  0  0  0  0  0  0  0  0  0
    4.7665   -2.1703   -1.6258 H   0  0  0  0  0  0  0  0  0  0  0  0
    3.6766   -1.8027    0.2253 N   0  0  0  0  0  0  0  0  0  0  0  0
    4.3867   -1.9791    0.9311 H   0  0  0  0  0  0  0  0  0  0  0  0
    2.3678   -1.4161    0.4784 C   0  0  0  0  0  0  0  0  0  0  0  0
    1.9100   -1.2489    1.4495 H   0  0  0  0  0  0  0  0  0  0  0  0
   -0.4874    1.2908    0.1962 C   0  0  0  0  0  0  0  0  0  0  0  0
   -1.3116    1.8673   -0.5151 O   0  0  0  0  0  0  0  0  0  0  0  0
    0.3889    1.9422    0.9708 N   0  0  0  0  0  0  0  0  0  0  0  0
    1.0197    1.3866    1.5283 H   0  0  0  0  0  0  0  0  0  0  0  0
    0.5081    3.3999    1.0720 C   0  0  0  0  0  0  0  0  0  0  0  0
    0.0188    3.7538    1.9817 H   0  0  0  0  0  0  0  0  0  0  0  0
    1.5607    3.6858    1.1098 H   0  0  0  0  0  0  0  0  0  0  0  0
    0.0459    3.8890    0.2119 H   0  0  0  0  0  0  0  0  0  0  0  0
  5  6  2  0  0  0  0
  5  7  1  0  0  0  0
  2  3  1  0  0  0  0
  2  4  1  0  0  0  0
  2  5  1  0  0  0  0
  1  2  1  0  0  0  0
 23 24  2  0  0  0  0
 23 25  1  0  0  0  0
 21 22  1  0  0  0  0
 19 20  1  0  0  0  0
 19 21  1  0  0  0  0
 17 18  1  0  0  0  0
 17 19  1  0  0  0  0
 15 16  1  0  0  0  0
 15 17  2  0  0  0  0
 14 15  1  0  0  0  0
 14 21  2  0  0  0  0
 11 12  1  0  0  0  0
 11 13  1  0  0  0  0
 11 14  1  0  0  0  0
  9 10  1  0  0  0  0
  9 11  1  0  0  0  0
  9 23  1  0  0  0  0
  7  8  1  0  0  0  0
  7  9  1  0  0  0  0
 27 28  1  0  0  0  0
 27 29  1  0  0  0  0
 27 30  1  0  0  0  0
 25 26  1  0  0  0  0
 25 27  1  0  0  0  0
M  CHG  1  15   1
M  END
$$$$
default_name
  -OEChem-02102213163D

 30 30  0     1  0  0  0  0  0999 V2000
   -3.5507   -3.2183    1.8116 H   0  0  0  0  0  0  0  0  0  0  0  0
   -3.4597   -2.3913    1.1076 C   0  0  0  0  0  0  0  0  0  0  0  0
   -4.1577   -1.6043    1.3866 H   0  0  0  0  0  0  0  0  0  0  0  0
   -3.6807   -2.7523    0.1036 H   0  0  0  0  0  0  0  0  0  0  0  0
   -2.0477   -1.8543    1.1546 C   0  0  0  0  0  0  0  0  0  0  0  0
   -1.2227   -2.3443    1.9146 O   0  0  0  0  0  0  0  0  0  0  0  0
   -1.7517   -0.8483    0.3266 N   0  0  0  0  0  0  0  0  0  0  0  0
   -2.4847   -0.5123   -0.2804 H   0  0  0  0  0  0  0  0  0  0  0  0
   -0.4117   -0.2463    0.2186 C   0  0  1  0  0  0  0  0  0  0  0  0
    0.1554   -0.5152    1.1133 H   0  0  0  0  0  0  0  0  0  0  0  0
    0.3164   -0.8780   -0.9905 C   0  0  0  0  0  0  0  0  0  0  0  0
   -0.2437   -1.7597   -1.3124 H   0  0  0  0  0  0  0  0  0  0  0  0
    0.3045   -0.1696   -1.8216 H   0  0  0  0  0  0  0  0  0  0  0  0
    1.7534   -1.2819   -0.7373 C   0  0  0  0  0  0  0  0  0  0  0  0
    2.7563   -1.3021   -1.6871 N   0  3  0  0  0  0  0  0  0  0  0  0
    2.6288   -0.9787   -2.6504 H   0  0  0  0  0  0  0  0  0  0  0  0
    3.8949   -1.7144   -1.0952 C   0  0  0  0  0  0  0  0  0  0  0  0
    4.8590   -1.8182   -1.5889 H   0  0  0  0  0  0  0  0  0  0  0  0
    3.6359   -1.9575    0.2095 N   0  0  0  0  0  0  0  0  0  0  0  0
    4.3078   -2.2781    0.9018 H   0  0  0  0  0  0  0  0  0  0  0  0
    2.2953   -1.6911    0.4512 C   0  0  0  0  0  0  0  0  0  0  0  0
    1.7686   -1.7850    1.3968 H   0  0  0  0  0  0  0  0  0  0  0  0
   -0.4874    1.2908    0.1962 C   0  0  0  0  0  0  0  0  0  0  0  0
   -1.3116    1.8673   -0.5151 O   0  0  0  0  0  0  0  0  0  0  0  0
    0.3889    1.9422    0.9708 N   0  0  0  0  0  0  0  0  0  0  0  0
    1.0197    1.3866    1.5283 H   0  0  0  0  0  0  0  0  0  0  0  0
    0.5081    3.3999    1.0720 C   0  0  0  0  0  0  0  0  0  0  0  0
    0.0188    3.7538    1.9817 H   0  0  0  0  0  0  0  0  0  0  0  0
    1.5607    3.6858    1.1098 H   0  0  0  0  0  0  0  0  0  0  0  0
    0.0459    3.8890    0.2119 H   0  0  0  0  0  0  0  0  0  0  0  0
  5  6  2  0  0  0  0
  5  7  1  0  0  0  0
  2  3  1  0  0  0  0
  2  4  1  0  0  0  0
  2  5  1  0  0  0  0
  1  2  1  0  0  0  0
 23 24  2  0  0  0  0
 23 25  1  0  0  0  0
 21 22  1  0  0  0  0
 19 20  1  0  0  0  0
 19 21  1  0  0  0  0
 17 18  1  0  0  0  0
 17 19  1  0  0  0  0
 15 16  1  0  0  0  0
 15 17  2  0  0  0  0
 14 15  1  0  0  0  0
 14 21  2  0  0  0  0
 11 12  1  0  0  0  0
 11 13  1  0  0  0  0
 11 14  1  0  0  0  0
  9 10  1  0  0  0  0
  9 11  1  0  0  0  0
  9 23  1  0  0  0  0
  7  8  1  0  0  0  0
  7  9  1  0  0  0  0
 27 28  1  0  0  0  0
 27 29  1  0  0  0  0
 27 30  1  0  0  0  0
 25 26  1  0  0  0  0
 25 27  1  0  0  0  0
M  CHG  1  15   1
M  END
$$$$
default_name
  -OEChem-02102213163D

 30 30  0     1  0  0  0  0  0999 V2000
   -3.5507   -3.2183    1.8116 H   0  0  0  0  0  0  0  0  0  0  0  0
   -3.4597   -2.3913    1.1076 C   0  0  0  0  0  0  0  0  0  0  0  0
   -4.1577   -1.6043    1.3866 H   0  0  0  0  0  0  0  0  0  0  0  0
   -3.6807   -2.7523    0.1036 H   0  0  0  0  0  0  0  0  0  0  0  0
   -2.0477   -1.8543    1.1546 C   0  0  0  0  0  0  0  0  0  0  0  0
   -1.2227   -2.3443    1.9146 O   0  0  0  0  0  0  0  0  0  0  0  0
   -1.7517   -0.8483    0.3266 N   0  0  0  0  0  0  0  0  0  0  0  0
   -2.4847   -0.5123   -0.2804 H   0  0  0  0  0  0  0  0  0  0  0  0
   -0.4117   -0.2463    0.2186 C   0  0  1  0  0  0  0  0  0  0  0  0
    0.1554   -0.5152    1.1133 H   0  0  0  0  0  0  0  0  0  0  0  0
    0.3164   -0.8780   -0.9905 C   0  0  0  0  0  0  0  0  0  0  0  0
   -0.2437   -1.7597   -1.3124 H   0  0  0  0  0  0  0  0  0  0  0  0
    0.3045   -0.1696   -1.8216 H   0  0  0  0  0  0  0  0  0  0  0  0
    1.7534   -1.2819   -0.7373 C   0  0  0  0  0  0  0  0  0  0  0  0
    2.8144   -1.0319   -1.5859 N   0  3  0  0  0  0  0  0  0  0  0  0
    2.7319   -0.4851   -2.4478 H   0  0  0  0  0  0  0  0  0  0  0  0
    3.9329   -1.5380   -1.0295 C   0  0  0  0  0  0  0  0  0  0  0  0
    4.9306   -1.4830   -1.4603 H   0  0  0  0  0  0  0  0  0  0  0  0
    3.6044   -2.1049    0.1534 N   0  0  0  0  0  0  0  0  0  0  0  0
    4.2466   -2.5631    0.7945 H   0  0  0  0  0  0  0  0  0  0  0  0
    2.2391   -1.9531    0.3523 C   0  0  0  0  0  0  0  0  0  0  0  0
    1.6589   -2.2961    1.2044 H   0  0  0  0  0  0  0  0  0  0  0  0
   -0.4874    1.2908    0.1962 C   0  0  0  0  0  0  0  0  0  0  0  0
   -1.3116    1.8673   -0.5151 O   0  0  0  0  0  0  0  0  0  0  0  0
    0.3889    1.9422    0.9708 N   0  0  0  0  0  0  0  0  0  0  0  0
    1.0197    1.3866    1.5283 H   0  0  0  0  0  0  0  0  0  0  0  0
    0.5081    3.3999    1.0720 C   0  0  0  0  0  0  0  0  0  0  0  0
    0.0188    3.7538    1.9817 H   0  0  0  0  0  0  0  0  0  0  0  0
    1.5607    3.6858    1.1098 H   0  0  0  0  0  0  0  0  0  0  0  0
    0.0459    3.8890    0.2119 H   0  0  0  0  0  0  0  0  0  0  0  0
  5  6  2  0  0  0  0
  5  7  1  0  0  0  0
  2  3  1  0  0  0  0
  2  4  1  0  0  0  0
  2  5  1  0  0  0  0
  1  2  1  0  0  0  0
 23 24  2  0  0  0  0
 23 25  1  0  0  0  0
 21 22  1  0  0  0  0
 19 20  1  0  0  0  0
 19 21  1  0  0  0  0
 17 18  1  0  0  0  0
 17 19  1  0  0  0  0
 15 16  1  0  0  0  0
 15 17  2  0  0  0  0
 14 15  1  0  0  0  0
 14 21  2  0  0  0  0
 11 12  1  0  0  0  0
 11 13  1  0  0  0  0
 11 14  1  0  0  0  0
  9 10  1  0  0  0  0
  9 11  1  0  0  0  0
  9 23  1  0  0  0  0
  7  8  1  0  0  0  0
  7  9  1  0  0  0  0
 27 28  1  0  0  0  0
 27 29  1  0  0  0  0
 27 30  1  0  0  0  0
 25 26  1  0  0  0  0
 25 27  1  0  0  0  0
M  CHG  1  15   1
M  END
$$$$
default_name
  -OEChem-02102213163D

 30 30  0     1  0  0  0  0  0999 V2000
   -3.5507   -3.2183    1.8116 H   0  0  0  0  0  0  0  0  0  0  0  0
   -3.4597   -2.3913    1.1076 C   0  0  0  0  0  0  0  0  0  0  0  0
   -4.1577   -1.6043    1.3866 H   0  0  0  0  0  0  0  0  0  0  0  0
   -3.6807   -2.7523    0.1036 H   0  0  0  0  0  0  0  0  0  0  0  0
   -2.0477   -1.8543    1.1546 C   0  0  0  0  0  0  0  0  0  0  0  0
   -1.2227   -2.3443    1.9146 O   0  0  0  0  0  0  0  0  0  0  0  0
   -1.7517   -0.8483    0.3266 N   0  0  0  0  0  0  0  0  0  0  0  0
   -2.4847   -0.5123   -0.2804 H   0  0  0  0  0  0  0  0  0  0  0  0
   -0.4117   -0.2463    0.2186 C   0  0  1  0  0  0  0  0  0  0  0  0
    0.1554   -0.5152    1.1133 H   0  0  0  0  0  0  0  0  0  0  0  0
    0.3164   -0.8780   -0.9905 C   0  0  0  0  0  0  0  0  0  0  0  0
   -0.2437   -1.7597   -1.3124 H   0  0  0  0  0  0  0  0  0  0  0  0
    0.3045   -0.1696   -1.8216 H   0  0  0  0  0  0  0  0  0  0  0  0
    1.7534   -1.2819   -0.7373 C   0  0  0  0  0  0  0  0  0  0  0  0
    2.8519   -0.7933   -1.4177 N   0  3  0  0  0  0  0  0  0  0  0  0
    2.7961   -0.0536   -2.1237 H   0  0  0  0  0  0  0  0  0  0  0  0
    3.9574   -1.3821   -0.9200 C   0  0  0  0  0  0  0  0  0  0  0  0
    4.9763   -1.1878   -1.2489 H   0  0  0  0  0  0  0  0  0  0  0  0
    3.5842   -2.2348    0.0608 N   0  0  0  0  0  0  0  0  0  0  0  0
    4.2072   -2.8148    0.6166 H   0  0  0  0  0  0  0  0  0  0  0  0
    2.2030   -2.1843    0.1885 C   0  0  0  0  0  0  0  0  0  0  0  0
    1.5883   -2.7472    0.8855 H   0  0  0  0  0  0  0  0  0  0  0  0
   -0.4874    1.2908    0.1962 C   0  0  0  0  0  0  0  0  0  0  0  0
   -1.3116    1.8673   -0.5151 O   0  0  0  0  0  0  0  0  0  0  0  0
    0.3889    1.9422    0.9708 N   0  0  0  0  0  0  0  0  0  0  0  0
    1.0197    1.3866    1.5283 H   0  0  0  0  0  0  0  0  0  0  0  0
    0.5081    3.3999    1.0720 C   0  0  0  0  0  0  0  0  0  0  0  0
    0.0188    3.7538    1.9817 H   0  0  0  0  0  0  0  0  0  0  0  0
    1.5607    3.6858    1.1098 H   0  0  0  0  0  0  0  0  0  0  0  0
    0.0459    3.8890    0.2119 H   0  0  0  0  0  0  0  0  0  0  0  0
  5  6  2  0  0  0  0
  5  7  1  0  0  0  0
  2  3  1  0  0  0  0
  2  4  1  0  0  0  0
  2  5  1  0  0  0  0
  1  2  1  0  0  0  0
 23 24  2  0  0  0  0
 23 25  1  0  0  0  0
 21 22  1  0  0  0  0
 19 20  1  0  0  0  0
 19 21  1  0  0  0  0
 17 18  1  0  0  0  0
 17 19  1  0  0  0  0
 15 16  1  0  0  0  0
 15 17  2  0  0  0  0
 14 15  1  0  0  0  0
 14 21  2  0  0  0  0
 11 12  1  0  0  0  0
 11 13  1  0  0  0  0
 11 14  1  0  0  0  0
  9 10  1  0  0  0  0
  9 11  1  0  0  0  0
  9 23  1  0  0  0  0
  7  8  1  0  0  0  0
  7  9  1  0  0  0  0
 27 28  1  0  0  0  0
 27 29  1  0  0  0  0
 27 30  1  0  0  0  0
 25 26  1  0  0  0  0
 25 27  1  0  0  0  0
M  CHG  1  15   1
M  END
$$$$
default_name
  -OEChem-02102213163D

 30 30  0     1  0  0  0  0  0999 V2000
   -3.5507   -3.2183    1.8116 H   0  0  0  0  0  0  0  0  0  0  0  0
   -3.4597   -2.3913    1.1076 C   0  0  0  0  0  0  0  0  0  0  0  0
   -4.1577   -1.6043    1.3866 H   0  0  0  0  0  0  0  0  0  0  0  0
   -3.6807   -2.7523    0.1036 H   0  0  0  0  0  0  0  0  0  0  0  0
   -2.0477   -1.8543    1.1546 C   0  0  0  0  0  0  0  0  0  0  0  0
   -1.2227   -2.3443    1.9146 O   0  0  0  0  0  0  0  0  0  0  0  0
   -1.7517   -0.8483    0.3266 N   0  0  0  0  0  0  0  0  0  0  0  0
   -2.4847   -0.5123   -0.2804 H   0  0  0  0  0  0  0  0  0  0  0  0
   -0.4117   -0.2463    0.2186 C   0  0  1  0  0  0  0  0  0  0  0  0
    0.1554   -0.5152    1.1133 H   0  0  0  0  0  0  0  0  0  0  0  0
    0.3164   -0.8780   -0.9905 C   0  0  0  0  0  0  0  0  0  0  0  0
   -0.2437   -1.7597   -1.3124 H   0  0  0  0  0  0  0  0  0  0  0  0
    0.3045   -0.1696   -1.8216 H   0  0  0  0  0  0  0  0  0  0  0  0
    1.7534   -1.2819   -0.7373 C   0  0  0  0  0  0  0  0  0  0  0  0
    2.8661   -0.6025   -1.1941 N   0  3  0  0  0  0  0  0  0  0  0  0
    2.8170    0.2864   -1.7003 H   0  0  0  0  0  0  0  0  0  0  0  0
    3.9668   -1.2574   -0.7743 C   0  0  0  0  0  0  0  0  0  0  0  0
    4.9931   -0.9526   -0.9690 H   0  0  0  0  0  0  0  0  0  0  0  0
    3.5767   -2.3384   -0.0619 N   0  0  0  0  0  0  0  0  0  0  0  0
    4.1923   -3.0159    0.3803 H   0  0  0  0  0  0  0  0  0  0  0  0
    2.1894   -2.3690   -0.0290 C   0  0  0  0  0  0  0  0  0  0  0  0
    1.5616   -3.1076    0.4617 H   0  0  0  0  0  0  0  0  0  0  0  0
   -0.4874    1.2908    0.1962 C   0  0  0  0  0  0  0  0  0  0  0  0
   -1.3116    1.8673   -0.5151 O   0  0  0  0  0  0  0  0  0  0  0  0
    0.3889    1.9422    0.9708 N   0  0  0  0  0  0  0  0  0  0  0  0
    1.0197    1.3866    1.5283 H   0  0  0  0  0  0  0  0  0  0  0  0
    0.5081    3.3999    1.0720 C   0  0  0  0  0  0  0  0  0  0  0  0
    0.0188    3.7538    1.9817 H   0  0  0  0  0  0  0  0  0  0  0  0
    1.5607    3.6858    1.1098 H   0  0  0  0  0  0  0  0  0  0  0  0
    0.0459    3.8890    0.2119 H   0  0  0  0  0  0  0  0  0  0  0  0
  5  6  2  0  0  0  0
  5  7  1  0  0  0  0
  2  3  1  0  0  0  0
  2  4  1  0  0  0  0
  2  5  1  0  0  0  0
  1  2  1  0  0  0  0
 23 24  2  0  0  0  0
 23 25  1  0  0  0  0
 21 22  1  0  0  0  0
 19 20  1  0  0  0  0
 19 21  1  0  0  0  0
 17 18  1  0  0  0  0
 17 19  1  0  0  0  0
 15 16  1  0  0  0  0
 15 17  2  0  0  0  0
 14 15  1  0  0  0  0
 14 21  2  0  0  0  0
 11 12  1  0  0  0  0
 11 13  1  0  0  0  0
 11 14  1  0  0  0  0
  9 10  1  0  0  0  0
  9 11  1  0  0  0  0
  9 23  1  0  0  0  0
  7  8  1  0  0  0  0
  7  9  1  0  0  0  0
 27 28  1  0  0  0  0
 27 29  1  0  0  0  0
 27 30  1  0  0  0  0
 25 26  1  0  0  0  0
 25 27  1  0  0  0  0
M  CHG  1  15   1
M  END
$$$$
default_name
  -OEChem-02102213163D

 30 30  0     1  0  0  0  0  0999 V2000
   -3.5507   -3.2183    1.8116 H   0  0  0  0  0  0  0  0  0  0  0  0
   -3.4597   -2.3913    1.1076 C   0  0  0  0  0  0  0  0  0  0  0  0
   -4.1577   -1.6043    1.3866 H   0  0  0  0  0  0  0  0  0  0  0  0
   -3.6807   -2.7523    0.1036 H   0  0  0  0  0  0  0  0  0  0  0  0
   -2.0477   -1.8543    1.1546 C   0  0  0  0  0  0  0  0  0  0  0  0
   -1.2227   -2.3443    1.9146 O   0  0  0  0  0  0  0  0  0  0  0  0
   -1.7517   -0.8483    0.3266 N   0  0  0  0  0  0  0  0  0  0  0  0
   -2.4847   -0.5123   -0.2804 H   0  0  0  0  0  0  0  0  0  0  0  0
   -0.4117   -0.2463    0.2186 C   0  0  1  0  0  0  0  0  0  0  0  0
    0.1554   -0.5152    1.1133 H   0  0  0  0  0  0  0  0  0  0  0  0
    0.3164   -0.8780   -0.9905 C   0  0  0  0  0  0  0  0  0  0  0  0
   -0.2437   -1.7597   -1.3124 H   0  0  0  0  0  0  0  0  0  0  0  0
    0.3045   -0.1696   -1.8216 H   0  0  0  0  0  0  0  0  0  0  0  0
    1.7534   -1.2819   -0.7373 C   0  0  0  0  0  0  0  0  0  0  0  0
    2.8561   -0.4725   -0.9302 N   0  3  0  0  0  0  0  0  0  0  0  0
    2.7933    0.5116   -1.2063 H   0  0  0  0  0  0  0  0  0  0  0  0
    3.9604   -1.1723   -0.6023 C   0  0  0  0  0  0  0  0  0  0  0  0
    4.9798   -0.7935   -0.6397 H   0  0  0  0  0  0  0  0  0  0  0  0
    3.5824   -2.4087   -0.2064 N   0  0  0  0  0  0  0  0  0  0  0  0
    4.2030   -3.1527    0.1016 H   0  0  0  0  0  0  0  0  0  0  0  0
    2.1993   -2.4945   -0.2853 C   0  0  0  0  0  0  0  0  0  0  0  0
    1.5808   -3.3529   -0.0380 H   0  0  0  0  0  0  0  0  0  0  0  0
   -0.4874    1.2908    0.1962 C   0  0  0  0  0  0  0  0  0  0  0  0
   -1.3116    1.8673   -0.5151 O   0  0  0  0  0  0  0  0  0  0  0  0
    0.3889    1.9422    0.9708 N   0  0  0  0  0  0  0  0  0  0  0  0
    1.0197    1.3866    1.5283 H   0  0  0  0  0  0  0  0  0  0  0  0
    0.5081    3.3999    1.0720 C   0  0  0  0  0  0  0  0  0  0  0  0
    0.0188    3.7538    1.9817 H   0  0  0  0  0  0  0  0  0  0  0  0
    1.5607    3.6858    1.1098 H   0  0  0  0  0  0  0  0  0  0  0  0
    0.0459    3.8890    0.2119 H   0  0  0  0  0  0  0  0  0  0  0  0
  5  6  2  0  0  0  0
  5  7  1  0  0  0  0
  2  3  1  0  0  0  0
  2  4  1  0  0  0  0
  2  5  1  0  0  0  0
  1  2  1  0  0  0  0
 23 24  2  0  0  0  0
 23 25  1  0  0  0  0
 21 22  1  0  0  0  0
 19 20  1  0  0  0  0
 19 21  1  0  0  0  0
 17 18  1  0  0  0  0
 17 19  1  0  0  0  0
 15 16  1  0  0  0  0
 15 17  2  0  0  0  0
 14 15  1  0  0  0  0
 14 21  2  0  0  0  0
 11 12  1  0  0  0  0
 11 13  1  0  0  0  0
 11 14  1  0  0  0  0
  9 10  1  0  0  0  0
  9 11  1  0  0  0  0
  9 23  1  0  0  0  0
  7  8  1  0  0  0  0
  7  9  1  0  0  0  0
 27 28  1  0  0  0  0
 27 29  1  0  0  0  0
 27 30  1  0  0  0  0
 25 26  1  0  0  0  0
 25 27  1  0  0  0  0
M  CHG  1  15   1
M  END
$$$$
default_name
  -OEChem-02102213163D

 30 30  0     1  0  0  0  0  0999 V2000
   -3.5507   -3.2183    1.8116 H   0  0  0  0  0  0  0  0  0  0  0  0
   -3.4597   -2.3913    1.1076 C   0  0  0  0  0  0  0  0  0  0  0  0
   -4.1577   -1.6043    1.3866 H   0  0  0  0  0  0  0  0  0  0  0  0
   -3.6807   -2.7523    0.1036 H   0  0  0  0  0  0  0  0  0  0  0  0
   -2.0477   -1.8543    1.1546 C   0  0  0  0  0  0  0  0  0  0  0  0
   -1.2227   -2.3443    1.9146 O   0  0  0  0  0  0  0  0  0  0  0  0
   -1.7517   -0.8483    0.3266 N   0  0  0  0  0  0  0  0  0  0  0  0
   -2.4847   -0.5123   -0.2804 H   0  0  0  0  0  0  0  0  0  0  0  0
   -0.4117   -0.2463    0.2186 C   0  0  1  0  0  0  0  0  0  0  0  0
    0.1554   -0.5152    1.1133 H   0  0  0  0  0  0  0  0  0  0  0  0
    0.3164   -0.8780   -0.9905 C   0  0  0  0  0  0  0  0  0  0  0  0
   -0.2437   -1.7597   -1.3124 H   0  0  0  0  0  0  0  0  0  0  0  0
    0.3045   -0.1696   -1.8216 H   0  0  0  0  0  0  0  0  0  0  0  0
    1.7534   -1.2819   -0.7373 C   0  0  0  0  0  0  0  0  0  0  0  0
    2.8226   -0.4122   -0.6441 N   0  3  0  0  0  0  0  0  0  0  0  0
    2.7265    0.6069   -0.6755 H   0  0  0  0  0  0  0  0  0  0  0  0
    3.9386   -1.1326   -0.4156 C   0  0  0  0  0  0  0  0  0  0  0  0
    4.9373   -0.7212   -0.2834 H   0  0  0  0  0  0  0  0  0  0  0  0
    3.6009   -2.4409   -0.3629 N   0  0  0  0  0  0  0  0  0  0  0  0
    4.2385   -3.2159   -0.2005 H   0  0  0  0  0  0  0  0  0  0  0  0
    2.2320   -2.5524   -0.5631 C   0  0  0  0  0  0  0  0  0  0  0  0
    1.6444   -3.4662   -0.5795 H   0  0  0  0  0  0  0  0  0  0  0  0
   -0.4874    1.2908    0.1962 C   0  0  0  0  0  0  0  0  0  0  0  0
   -1.3116    1.8673   -0.5151 O   0  0  0  0  0  0  0  0  0  0  0  0
    0.3889    1.9422    0.9708 N   0  0  0  0  0  0  0  0  0  0  0  0
    1.0197    1.3866    1.5283 H   0  0  0  0  0  0  0  0  0  0  0  0
    0.5081    3.3999    1.0720 C   0  0  0  0  0  0  0  0  0  0  0  0
    0.0188    3.7538    1.9817 H   0  0  0  0  0  0  0  0  0  0  0  0
    1.5607    3.6858    1.1098 H   0  0  0  0  0  0  0  0  0  0  0  0
    0.0459    3.8890    0.2119 H   0  0  0  0  0  0  0  0  0  0  0  0
  5  6  2  0  0  0  0
  5  7  1  0  0  0  0
  2  3  1  0  0  0  0
  2  4  1  0  0  0  0
  2  5  1  0  0  0  0
  1  2  1  0  0  0  0
 23 24  2  0  0  0  0
 23 25  1  0  0  0  0
 21 22  1  0  0  0  0
 19 20  1  0  0  0  0
 19 21  1  0  0  0  0
 17 18  1  0  0  0  0
 17 19  1  0  0  0  0
 15 16  1  0  0  0  0
 15 17  2  0  0  0  0
 14 15  1  0  0  0  0
 14 21  2  0  0  0  0
 11 12  1  0  0  0  0
 11 13  1  0  0  0  0
 11 14  1  0  0  0  0
  9 10  1  0  0  0  0
  9 11  1  0  0  0  0
  9 23  1  0  0  0  0
  7  8  1  0  0  0  0
  7  9  1  0  0  0  0
 27 28  1  0  0  0  0
 27 29  1  0  0  0  0
 27 30  1  0  0  0  0
 25 26  1  0  0  0  0
 25 27  1  0  0  0  0
M  CHG  1  15   1
M  END
$$$$
default_name
  -OEChem-02102213163D

 30 30  0     1  0  0  0  0  0999 V2000
   -3.5507   -3.2183    1.8116 H   0  0  0  0  0  0  0  0  0  0  0  0
   -3.4597   -2.3913    1.1076 C   0  0  0  0  0  0  0  0  0  0  0  0
   -4.1577   -1.6043    1.3866 H   0  0  0  0  0  0  0  0  0  0  0  0
   -3.6807   -2.7523    0.1036 H   0  0  0  0  0  0  0  0  0  0  0  0
   -2.0477   -1.8543    1.1546 C   0  0  0  0  0  0  0  0  0  0  0  0
   -1.2227   -2.3443    1.9146 O   0  0  0  0  0  0  0  0  0  0  0  0
   -1.7517   -0.8483    0.3266 N   0  0  0  0  0  0  0  0  0  0  0  0
   -2.4847   -0.5123   -0.2804 H   0  0  0  0  0  0  0  0  0  0  0  0
   -0.4117   -0.2463    0.2186 C   0  0  1  0  0  0  0  0  0  0  0  0
    0.1554   -0.5152    1.1133 H   0  0  0  0  0  0  0  0  0  0  0  0
    0.3164   -0.8780   -0.9905 C   0  0  0  0  0  0  0  0  0  0  0  0
   -0.2437   -1.7597   -1.3124 H   0  0  0  0  0  0  0  0  0  0  0  0
    0.3045   -0.1696   -1.8216 H   0  0  0  0  0  0  0  0  0  0  0  0
    1.7534   -1.2819   -0.7373 C   0  0  0  0  0  0  0  0  0  0  0  0
    2.7679   -0.4257   -0.3552 N   0  3  0  0  0  0  0  0  0  0  0  0
    2.6212    0.5655   -0.1440 H   0  0  0  0  0  0  0  0  0  0  0  0
    3.9030   -1.1411   -0.2271 C   0  0  0  0  0  0  0  0  0  0  0  0
    4.8685   -0.7408    0.0755 H   0  0  0  0  0  0  0  0  0  0  0  0
    3.6310   -2.4327   -0.5207 N   0  0  0  0  0  0  0  0  0  0  0  0
    4.2963   -3.2012   -0.5054 H   0  0  0  0  0  0  0  0  0  0  0  0
    2.2852   -2.5387   -0.8434 C   0  0  0  0  0  0  0  0  0  0  0  0
    1.7481   -3.4398   -1.1261 H   0  0  0  0  0  0  0  0  0  0  0  0
   -0.4874    1.2908    0.1962 C   0  0  0  0  0  0  0  0  0  0  0  0
   -1.3116    1.8673   -0.5151 O   0  0  0  0  0  0  0  0  0  0  0  0
    0.3889    1.9422    0.9708 N   0  0  0  0  0  0  0  0  0  0  0  0
    1.0197    1.3866    1.5283 H   0  0  0  0  0  0  0  0  0  0  0  0
    0.5081    3.3999    1.0720 C   0  0  0  0  0  0  0  0  0  0  0  0
    0.0188    3.7538    1.9817 H   0  0  0  0  0  0  0  0  0  0  0  0
    1.5607    3.6858    1.1098 H   0  0  0  0  0  0  0  0  0  0  0  0
    0.0459    3.8890    0.2119 H   0  0  0  0  0  0  0  0  0  0  0  0
  5  6  2  0  0  0  0
  5  7  1  0  0  0  0
  2  3  1  0  0  0  0
  2  4  1  0  0  0  0
  2  5  1  0  0  0  0
  1  2  1  0  0  0  0
 23 24  2  0  0  0  0
 23 25  1  0  0  0  0
 21 22  1  0  0  0  0
 19 20  1  0  0  0  0
 19 21  1  0  0  0  0
 17 18  1  0  0  0  0
 17 19  1  0  0  0  0
 15 16  1  0  0  0  0
 15 17  2  0  0  0  0
 14 15  1  0  0  0  0
 14 21  2  0  0  0  0
 11 12  1  0  0  0  0
 11 13  1  0  0  0  0
 11 14  1  0  0  0  0
  9 10  1  0  0  0  0
  9 11  1  0  0  0  0
  9 23  1  0  0  0  0
  7  8  1  0  0  0  0
  7  9  1  0  0  0  0
 27 28  1  0  0  0  0
 27 29  1  0  0  0  0
 27 30  1  0  0  0  0
 25 26  1  0  0  0  0
 25 27  1  0  0  0  0
M  CHG  1  15   1
M  END
$$$$
default_name
  -OEChem-02102213163D

 30 30  0     1  0  0  0  0  0999 V2000
   -3.5507   -3.2183    1.8116 H   0  0  0  0  0  0  0  0  0  0  0  0
   -3.4597   -2.3913    1.1076 C   0  0  0  0  0  0  0  0  0  0  0  0
   -4.1577   -1.6043    1.3866 H   0  0  0  0  0  0  0  0  0  0  0  0
   -3.6807   -2.7523    0.1036 H   0  0  0  0  0  0  0  0  0  0  0  0
   -2.0477   -1.8543    1.1546 C   0  0  0  0  0  0  0  0  0  0  0  0
   -1.2227   -2.3443    1.9146 O   0  0  0  0  0  0  0  0  0  0  0  0
   -1.7517   -0.8483    0.3266 N   0  0  0  0  0  0  0  0  0  0  0  0
   -2.4847   -0.5123   -0.2804 H   0  0  0  0  0  0  0  0  0  0  0  0
   -0.4117   -0.2463    0.2186 C   0  0  1  0  0  0  0  0  0  0  0  0
    0.1554   -0.5152    1.1133 H   0  0  0  0  0  0  0  0  0  0  0  0
    0.3164   -0.8780   -0.9905 C   0  0  0  0  0  0  0  0  0  0  0  0
   -0.2437   -1.7597   -1.3124 H   0  0  0  0  0  0  0  0  0  0  0  0
    0.3045   -0.1696   -1.8216 H   0  0  0  0  0  0  0  0  0  0  0  0
    1.7534   -1.2819   -0.7373 C   0  0  0  0  0  0  0  0  0  0  0  0
    2.6957   -0.5121   -0.0833 N   0  3  0  0  0  0  0  0  0  0  0  0
    2.4846    0.3905    0.3520 H   0  0  0  0  0  0  0  0  0  0  0  0
    3.8560   -1.1971   -0.0495 C   0  0  0  0  0  0  0  0  0  0  0  0
    4.7782   -0.8508    0.4127 H   0  0  0  0  0  0  0  0  0  0  0  0
    3.6706   -2.3847   -0.6690 N   0  0  0  0  0  0  0  0  0  0  0  0
    4.3726   -3.1096   -0.7922 H   0  0  0  0  0  0  0  0  0  0  0  0
    2.3554   -2.4542   -1.1071 C   0  0  0  0  0  0  0  0  0  0  0  0
    1.8849   -3.2756   -1.6404 H   0  0  0  0  0  0  0  0  0  0  0  0
   -0.4874    1.2908    0.1962 C   0  0  0  0  0  0  0  0  0  0  0  0
   -1.3116    1.8673   -0.5151 O   0  0  0  0  0  0  0  0  0  0  0  0
    0.3889    1.9422    0.9708 N   0  0  0  0  0  0  0  0  0  0  0  0
    1.0197    1.3866    1.5283 H   0  0  0  0  0  0  0  0  0  0  0  0
    0.5081    3.3999    1.0720 C   0  0  0  0  0  0  0  0  0  0  0  0
    0.0188    3.7538    1.9817 H   0  0  0  0  0  0  0  0  0  0  0  0
    1.5607    3.6858    1.1098 H   0  0  0  0  0  0  0  0  0  0  0  0
    0.0459    3.8890    0.2119 H   0  0  0  0  0  0  0  0  0  0  0  0
  5  6  2  0  0  0  0
  5  7  1  0  0  0  0
  2  3  1  0  0  0  0
  2  4  1  0  0  0  0
  2  5  1  0  0  0  0
  1  2  1  0  0  0  0
 23 24  2  0  0  0  0
 23 25  1  0  0  0  0
 21 22  1  0  0  0  0
 19 20  1  0  0  0  0
 19 21  1  0  0  0  0
 17 18  1  0  0  0  0
 17 19  1  0  0  0  0
 15 16  1  0  0  0  0
 15 17  2  0  0  0  0
 14 15  1  0  0  0  0
 14 21  2  0  0  0  0
 11 12  1  0  0  0  0
 11 13  1  0  0  0  0
 11 14  1  0  0  0  0
  9 10  1  0  0  0  0
  9 11  1  0  0  0  0
  9 23  1  0  0  0  0
  7  8  1  0  0  0  0
  7  9  1  0  0  0  0
 27 28  1  0  0  0  0
 27 29  1  0  0  0  0
 27 30  1  0  0  0  0
 25 26  1  0  0  0  0
 25 27  1  0  0  0  0
M  CHG  1  15   1
M  END
$$$$
default_name
  -OEChem-02102213163D

 30 30  0     1  0  0  0  0  0999 V2000
   -3.5507   -3.2183    1.8116 H   0  0  0  0  0  0  0  0  0  0  0  0
   -3.4597   -2.3913    1.1076 C   0  0  0  0  0  0  0  0  0  0  0  0
   -4.1577   -1.6043    1.3866 H   0  0  0  0  0  0  0  0  0  0  0  0
   -3.6807   -2.7523    0.1036 H   0  0  0  0  0  0  0  0  0  0  0  0
   -2.0477   -1.8543    1.1546 C   0  0  0  0  0  0  0  0  0  0  0  0
   -1.2227   -2.3443    1.9146 O   0  0  0  0  0  0  0  0  0  0  0  0
   -1.7517   -0.8483    0.3266 N   0  0  0  0  0  0  0  0  0  0  0  0
   -2.4847   -0.5123   -0.2804 H   0  0  0  0  0  0  0  0  0  0  0  0
   -0.4117   -0.2463    0.2186 C   0  0  1  0  0  0  0  0  0  0  0  0
    0.1554   -0.5152    1.1133 H   0  0  0  0  0  0  0  0  0  0  0  0
    0.3164   -0.8780   -0.9905 C   0  0  0  0  0  0  0  0  0  0  0  0
   -0.2437   -1.7597   -1.3124 H   0  0  0  0  0  0  0  0  0  0  0  0
    0.3045   -0.1696   -1.8216 H   0  0  0  0  0  0  0  0  0  0  0  0
    1.7534   -1.2819   -0.7373 C   0  0  0  0  0  0  0  0  0  0  0  0
    2.6110   -0.6654    0.1531 N   0  3  0  0  0  0  0  0  0  0  0  0
    2.3259    0.0937    0.7787 H   0  0  0  0  0  0  0  0  0  0  0  0
    3.8007   -1.2969    0.1049 C   0  0  0  0  0  0  0  0  0  0  0  0
    4.6724   -1.0438    0.7051 H   0  0  0  0  0  0  0  0  0  0  0  0
    3.7171   -2.3002   -0.7977 N   0  0  0  0  0  0  0  0  0  0  0  0
    4.4622   -2.9474   -1.0416 H   0  0  0  0  0  0  0  0  0  0  0  0
    2.4378   -2.3048   -1.3362 C   0  0  0  0  0  0  0  0  0  0  0  0
    2.0455   -2.9847   -2.0874 H   0  0  0  0  0  0  0  0  0  0  0  0
   -0.4874    1.2908    0.1962 C   0  0  0  0  0  0  0  0  0  0  0  0
   -1.3116    1.8673   -0.5151 O   0  0  0  0  0  0  0  0  0  0  0  0
    0.3889    1.9422    0.9708 N   0  0  0  0  0  0  0  0  0  0  0  0
    1.0197    1.3866    1.5283 H   0  0  0  0  0  0  0  0  0  0  0  0
    0.5081    3.3999    1.0720 C   0  0  0  0  0  0  0  0  0  0  0  0
    0.0188    3.7538    1.9817 H   0  0  0  0  0  0  0  0  0  0  0  0
    1.5607    3.6858    1.1098 H   0  0  0  0  0  0  0  0  0  0  0  0
    0.0459    3.8890    0.2119 H   0  0  0  0  0  0  0  0  0  0  0  0
  5  6  2  0  0  0  0
  5  7  1  0  0  0  0
  2  3  1  0  0  0  0
  2  4  1  0  0  0  0
  2  5  1  0  0  0  0
  1  2  1  0  0  0  0
 23 24  2  0  0  0  0
 23 25  1  0  0  0  0
 21 22  1  0  0  0  0
 19 20  1  0  0  0  0
 19 21  1  0  0  0  0
 17 18  1  0  0  0  0
 17 19  1  0  0  0  0
 15 16  1  0  0  0  0
 15 17  2  0  0  0  0
 14 15  1  0  0  0  0
 14 21  2  0  0  0  0
 11 12  1  0  0  0  0
 11 13  1  0  0  0  0
 11 14  1  0  0  0  0
  9 10  1  0  0  0  0
  9 11  1  0  0  0  0
  9 23  1  0  0  0  0
  7  8  1  0  0  0  0
  7  9  1  0  0  0  0
 27 28  1  0  0  0  0
 27 29  1  0  0  0  0
 27 30  1  0  0  0  0
 25 26  1  0  0  0  0
 25 27  1  0  0  0  0
M  CHG  1  15   1
M  END
$$$$
default_name
  -OEChem-02102213163D

 30 30  0     1  0  0  0  0  0999 V2000
   -3.5507   -3.2183    1.8116 H   0  0  0  0  0  0  0  0  0  0  0  0
   -3.4597   -2.3913    1.1076 C   0  0  0  0  0  0  0  0  0  0  0  0
   -4.1577   -1.6043    1.3866 H   0  0  0  0  0  0  0  0  0  0  0  0
   -3.6807   -2.7523    0.1036 H   0  0  0  0  0  0  0  0  0  0  0  0
   -2.0477   -1.8543    1.1546 C   0  0  0  0  0  0  0  0  0  0  0  0
   -1.2227   -2.3443    1.9146 O   0  0  0  0  0  0  0  0  0  0  0  0
   -1.7517   -0.8483    0.3266 N   0  0  0  0  0  0  0  0  0  0  0  0
   -2.4847   -0.5123   -0.2804 H   0  0  0  0  0  0  0  0  0  0  0  0
   -0.4117   -0.2463    0.2186 C   0  0  1  0  0  0  0  0  0  0  0  0
    0.1554   -0.5152    1.1133 H   0  0  0  0  0  0  0  0  0  0  0  0
    0.3164   -0.8780   -0.9905 C   0  0  0  0  0  0  0  0  0  0  0  0
   -0.2437   -1.7597   -1.3124 H   0  0  0  0  0  0  0  0  0  0  0  0
    0.3045   -0.1696   -1.8216 H   0  0  0  0  0  0  0  0  0  0  0  0
    1.7534   -1.2819   -0.7373 C   0  0  0  0  0  0  0  0  0  0  0  0
    2.5194   -0.8753    0.3380 N   0  3  0  0  0  0  0  0  0  0  0  0
    2.1561   -0.3047    1.1069 H   0  0  0  0  0  0  0  0  0  0  0  0
    3.7410   -1.4336    0.2259 C   0  0  0  0  0  0  0  0  0  0  0  0
    4.5584   -1.3067    0.9328 H   0  0  0  0  0  0  0  0  0  0  0  0
    3.7672   -2.1850   -0.8981 N   0  0  0  0  0  0  0  0  0  0  0  0
    4.5589   -2.7256   -1.2364 H   0  0  0  0  0  0  0  0  0  0  0  0
    2.5267   -2.1007   -1.5151 C   0  0  0  0  0  0  0  0  0  0  0  0
    2.2188   -2.5869   -2.4367 H   0  0  0  0  0  0  0  0  0  0  0  0
   -0.4874    1.2908    0.1962 C   0  0  0  0  0  0  0  0  0  0  0  0
   -1.3116    1.8673   -0.5151 O   0  0  0  0  0  0  0  0  0  0  0  0
    0.3889    1.9422    0.9708 N   0  0  0  0  0  0  0  0  0  0  0  0
    1.0197    1.3866    1.5283 H   0  0  0  0  0  0  0  0  0  0  0  0
    0.5081    3.3999    1.0720 C   0  0  0  0  0  0  0  0  0  0  0  0
    0.0188    3.7538    1.9817 H   0  0  0  0  0  0  0  0  0  0  0  0
    1.5607    3.6858    1.1098 H   0  0  0  0  0  0  0  0  0  0  0  0
    0.0459    3.8890    0.2119 H   0  0  0  0  0  0  0  0  0  0  0  0
  5  6  2  0  0  0  0
  5  7  1  0  0  0  0
  2  3  1  0  0  0  0
  2  4  1  0  0  0  0
  2  5  1  0  0  0  0
  1  2  1  0  0  0  0
 23 24  2  0  0  0  0
 23 25  1  0  0  0  0
 21 22  1  0  0  0  0
 19 20  1  0  0  0  0
 19 21  1  0  0  0  0
 17 18  1  0  0  0  0
 17 19  1  0  0  0  0
 15 16  1  0  0  0  0
 15 17  2  0  0  0  0
 14 15  1  0  0  0  0
 14 21  2  0  0  0  0
 11 12  1  0  0  0  0
 11 13  1  0  0  0  0
 11 14  1  0  0  0  0
  9 10  1  0  0  0  0
  9 11  1  0  0  0  0
  9 23  1  0  0  0  0
  7  8  1  0  0  0  0
  7  9  1  0  0  0  0
 27 28  1  0  0  0  0
 27 29  1  0  0  0  0
 27 30  1  0  0  0  0
 25 26  1  0  0  0  0
 25 27  1  0  0  0  0
M  CHG  1  15   1
M  END
$$$$
default_name
  -OEChem-02102213163D

 30 30  0     1  0  0  0  0  0999 V2000
   -3.5507   -3.2183    1.8116 H   0  0  0  0  0  0  0  0  0  0  0  0
   -3.4597   -2.3913    1.1076 C   0  0  0  0  0  0  0  0  0  0  0  0
   -4.1577   -1.6043    1.3866 H   0  0  0  0  0  0  0  0  0  0  0  0
   -3.6807   -2.7523    0.1036 H   0  0  0  0  0  0  0  0  0  0  0  0
   -2.0477   -1.8543    1.1546 C   0  0  0  0  0  0  0  0  0  0  0  0
   -1.2227   -2.3443    1.9146 O   0  0  0  0  0  0  0  0  0  0  0  0
   -1.7517   -0.8483    0.3266 N   0  0  0  0  0  0  0  0  0  0  0  0
   -2.4847   -0.5123   -0.2804 H   0  0  0  0  0  0  0  0  0  0  0  0
   -0.4117   -0.2463    0.2186 C   0  0  1  0  0  0  0  0  0  0  0  0
    0.1554   -0.5152    1.1133 H   0  0  0  0  0  0  0  0  0  0  0  0
    0.3164   -0.8780   -0.9905 C   0  0  0  0  0  0  0  0  0  0  0  0
   -0.2437   -1.7597   -1.3124 H   0  0  0  0  0  0  0  0  0  0  0  0
    0.3045   -0.1696   -1.8216 H   0  0  0  0  0  0  0  0  0  0  0  0
    1.7534   -1.2819   -0.7373 C   0  0  0  0  0  0  0  0  0  0  0  0
    2.4272   -1.1274    0.4587 N   0  3  0  0  0  0  0  0  0  0  0  0
    1.9866   -0.7775    1.3144 H   0  0  0  0  0  0  0  0  0  0  0  0
    3.6808   -1.5980    0.3049 C   0  0  0  0  0  0  0  0  0  0  0  0
    4.4439   -1.6215    1.0803 H   0  0  0  0  0  0  0  0  0  0  0  0
    3.8175   -2.0469   -0.9633 N   0  0  0  0  0  0  0  0  0  0  0  0
    4.6561   -2.4593   -1.3634 H   0  0  0  0  0  0  0  0  0  0  0  0
    2.6161   -1.8557   -1.6317 C   0  0  0  0  0  0  0  0  0  0  0  0
    2.3931   -2.1095   -2.6643 H   0  0  0  0  0  0  0  0  0  0  0  0
   -0.4874    1.2908    0.1962 C   0  0  0  0  0  0  0  0  0  0  0  0
   -1.3116    1.8673   -0.5151 O   0  0  0  0  0  0  0  0  0  0  0  0
    0.3889    1.9422    0.9708 N   0  0  0  0  0  0  0  0  0  0  0  0
    1.0197    1.3866    1.5283 H   0  0  0  0  0  0  0  0  0  0  0  0
    0.5081    3.3999    1.0720 C   0  0  0  0  0  0  0  0  0  0  0  0
    0.0188    3.7538    1.9817 H   0  0  0  0  0  0  0  0  0  0  0  0
    1.5607    3.6858    1.1098 H   0  0  0  0  0  0  0  0  0  0  0  0
    0.0459    3.8890    0.2119 H   0  0  0  0  0  0  0  0  0  0  0  0
  5  6  2  0  0  0  0
  5  7  1  0  0  0  0
  2  3  1  0  0  0  0
  2  4  1  0  0  0  0
  2  5  1  0  0  0  0
  1  2  1  0  0  0  0
 23 24  2  0  0  0  0
 23 25  1  0  0  0  0
 21 22  1  0  0  0  0
 19 20  1  0  0  0  0
 19 21  1  0  0  0  0
 17 18  1  0  0  0  0
 17 19  1  0  0  0  0
 15 16  1  0  0  0  0
 15 17  2  0  0  0  0
 14 15  1  0  0  0  0
 14 21  2  0  0  0  0
 11 12  1  0  0  0  0
 11 13  1  0  0  0  0
 11 14  1  0  0  0  0
  9 10  1  0  0  0  0
  9 11  1  0  0  0  0
  9 23  1  0  0  0  0
  7  8  1  0  0  0  0
  7  9  1  0  0  0  0
 27 28  1  0  0  0  0
 27 29  1  0  0  0  0
 27 30  1  0  0  0  0
 25 26  1  0  0  0  0
 25 27  1  0  0  0  0
M  CHG  1  15   1
M  END
$$$$
default_name
  -OEChem-02102213163D

 30 30  0     1  0  0  0  0  0999 V2000
   -3.5507   -3.2183    1.8116 H   0  0  0  0  0  0  0  0  0  0  0  0
   -3.4597   -2.3913    1.1076 C   0  0  0  0  0  0  0  0  0  0  0  0
   -4.1577   -1.6043    1.3866 H   0  0  0  0  0  0  0  0  0  0  0  0
   -3.6807   -2.7523    0.1036 H   0  0  0  0  0  0  0  0  0  0  0  0
   -2.0477   -1.8543    1.1546 C   0  0  0  0  0  0  0  0  0  0  0  0
   -1.2227   -2.3443    1.9146 O   0  0  0  0  0  0  0  0  0  0  0  0
   -1.7517   -0.8483    0.3266 N   0  0  0  0  0  0  0  0  0  0  0  0
   -2.4847   -0.5123   -0.2804 H   0  0  0  0  0  0  0  0  0  0  0  0
   -0.4117   -0.2463    0.2186 C   0  0  1  0  0  0  0  0  0  0  0  0
    0.1554   -0.5152    1.1133 H   0  0  0  0  0  0  0  0  0  0  0  0
    0.3164   -0.8780   -0.9905 C   0  0  0  0  0  0  0  0  0  0  0  0
   -0.2437   -1.7597   -1.3124 H   0  0  0  0  0  0  0  0  0  0  0  0
    0.3045   -0.1696   -1.8216 H   0  0  0  0  0  0  0  0  0  0  0  0
    1.7534   -1.2819   -0.7373 C   0  0  0  0  0  0  0  0  0  0  0  0
    2.3408   -1.4045    0.5070 N   0  3  0  0  0  0  0  0  0  0  0  0
    1.8291   -1.2925    1.3870 H   0  0  0  0  0  0  0  0  0  0  0  0
    3.6244   -1.7788    0.3368 C   0  0  0  0  0  0  0  0  0  0  0  0
    4.3368   -1.9667    1.1376 H   0  0  0  0  0  0  0  0  0  0  0  0
    3.8646   -1.8953   -0.9888 N   0  0  0  0  0  0  0  0  0  0  0  0
    4.7473   -2.1666   -1.4139 H   0  0  0  0  0  0  0  0  0  0  0  0
    2.6999   -1.5866   -1.6779 C   0  0  0  0  0  0  0  0  0  0  0  0
    2.5566   -1.5848   -2.7549 H   0  0  0  0  0  0  0  0  0  0  0  0
   -0.4874    1.2908    0.1962 C   0  0  0  0  0  0  0  0  0  0  0  0
   -1.3116    1.8673   -0.5151 O   0  0  0  0  0  0  0  0  0  0  0  0
    0.3889    1.9422    0.9708 N   0  0  0  0  0  0  0  0  0  0  0  0
    1.0197    1.3866    1.5283 H   0  0  0  0  0  0  0  0  0  0  0  0
    0.5081    3.3999    1.0720 C   0  0  0  0  0  0  0  0  0  0  0  0
    0.0188    3.7538    1.9817 H   0  0  0  0  0  0  0  0  0  0  0  0
    1.5607    3.6858    1.1098 H   0  0  0  0  0  0  0  0  0  0  0  0
    0.0459    3.8890    0.2119 H   0  0  0  0  0  0  0  0  0  0  0  0
  5  6  2  0  0  0  0
  5  7  1  0  0  0  0
  2  3  1  0  0  0  0
  2  4  1  0  0  0  0
  2  5  1  0  0  0  0
  1  2  1  0  0  0  0
 23 24  2  0  0  0  0
 23 25  1  0  0  0  0
 21 22  1  0  0  0  0
 19 20  1  0  0  0  0
 19 21  1  0  0  0  0
 17 18  1  0  0  0  0
 17 19  1  0  0  0  0
 15 16  1  0  0  0  0
 15 17  2  0  0  0  0
 14 15  1  0  0  0  0
 14 21  2  0  0  0  0
 11 12  1  0  0  0  0
 11 13  1  0  0  0  0
 11 14  1  0  0  0  0
  9 10  1  0  0  0  0
  9 11  1  0  0  0  0
  9 23  1  0  0  0  0
  7  8  1  0  0  0  0
  7  9  1  0  0  0  0
 27 28  1  0  0  0  0
 27 29  1  0  0  0  0
 27 30  1  0  0  0  0
 25 26  1  0  0  0  0
 25 27  1  0  0  0  0
M  CHG  1  15   1
M  END
$$$$
default_name
  -OEChem-02102213163D

 30 30  0     1  0  0  0  0  0999 V2000
   -3.5507   -3.2183    1.8116 H   0  0  0  0  0  0  0  0  0  0  0  0
   -3.4597   -2.3913    1.1076 C   0  0  0  0  0  0  0  0  0  0  0  0
   -4.1577   -1.6043    1.3866 H   0  0  0  0  0  0  0  0  0  0  0  0
   -3.6807   -2.7523    0.1036 H   0  0  0  0  0  0  0  0  0  0  0  0
   -2.0477   -1.8543    1.1546 C   0  0  0  0  0  0  0  0  0  0  0  0
   -1.2227   -2.3443    1.9146 O   0  0  0  0  0  0  0  0  0  0  0  0
   -1.7517   -0.8483    0.3266 N   0  0  0  0  0  0  0  0  0  0  0  0
   -2.4847   -0.5123   -0.2804 H   0  0  0  0  0  0  0  0  0  0  0  0
   -0.4117   -0.2463    0.2186 C   0  0  1  0  0  0  0  0  0  0  0  0
    0.1554   -0.5152    1.1133 H   0  0  0  0  0  0  0  0  0  0  0  0
    0.3164   -0.8780   -0.9905 C   0  0  0  0  0  0  0  0  0  0  0  0
   -0.2437   -1.7597   -1.3124 H   0  0  0  0  0  0  0  0  0  0  0  0
    0.3045   -0.1696   -1.8216 H   0  0  0  0  0  0  0  0  0  0  0  0
    1.7534   -1.2819   -0.7373 C   0  0  0  0  0  0  0  0  0  0  0  0
    2.2660   -1.6878    0.4796 N   0  3  0  0  0  0  0  0  0  0  0  0
    1.6942   -1.8146    1.3197 H   0  0  0  0  0  0  0  0  0  0  0  0
    3.5755   -1.9637    0.3192 C   0  0  0  0  0  0  0  0  0  0  0  0
    4.2443   -2.3189    1.1007 H   0  0  0  0  0  0  0  0  0  0  0  0
    3.9053   -1.7405   -0.9730 N   0  0  0  0  0  0  0  0  0  0  0  0
    4.8262   -1.8676   -1.3846 H   0  0  0  0  0  0  0  0  0  0  0  0
    2.7724   -1.3116   -1.6506 C   0  0  0  0  0  0  0  0  0  0  0  0
    2.6980   -1.0487   -2.7022 H   0  0  0  0  0  0  0  0  0  0  0  0
   -0.4874    1.2908    0.1962 C   0  0  0  0  0  0  0  0  0  0  0  0
   -1.3116    1.8673   -0.5151 O   0  0  0  0  0  0  0  0  0  0  0  0
    0.3889    1.9422    0.9708 N   0  0  0  0  0  0  0  0  0  0  0  0
    1.0197    1.3866    1.5283 H   0  0  0  0  0  0  0  0  0  0  0  0
    0.5081    3.3999    1.0720 C   0  0  0  0  0  0  0  0  0  0  0  0
    0.0188    3.7538    1.9817 H   0  0  0  0  0  0  0  0  0  0  0  0
    1.5607    3.6858    1.1098 H   0  0  0  0  0  0  0  0  0  0  0  0
    0.0459    3.8890    0.2119 H   0  0  0  0  0  0  0  0  0  0  0  0
  5  6  2  0  0  0  0
  5  7  1  0  0  0  0
  2  3  1  0  0  0  0
  2  4  1  0  0  0  0
  2  5  1  0  0  0  0
  1  2  1  0  0  0  0
 23 24  2  0  0  0  0
 23 25  1  0  0  0  0
 21 22  1  0  0  0  0
 19 20  1  0  0  0  0
 19 21  1  0  0  0  0
 17 18  1  0  0  0  0
 17 19  1  0  0  0  0
 15 16  1  0  0  0  0
 15 17  2  0  0  0  0
 14 15  1  0  0  0  0
 14 21  2  0  0  0  0
 11 12  1  0  0  0  0
 11 13  1  0  0  0  0
 11 14  1  0  0  0  0
  9 10  1  0  0  0  0
  9 11  1  0  0  0  0
  9 23  1  0  0  0  0
  7  8  1  0  0  0  0
  7  9  1  0  0  0  0
 27 28  1  0  0  0  0
 27 29  1  0  0  0  0
 27 30  1  0  0  0  0
 25 26  1  0  0  0  0
 25 27  1  0  0  0  0
M  CHG  1  15   1
M  END
$$$$
default_name
  -OEChem-02102213163D

 30 30  0     1  0  0  0  0  0999 V2000
   -3.5507   -3.2183    1.8116 H   0  0  0  0  0  0  0  0  0  0  0  0
   -3.4597   -2.3913    1.1076 C   0  0  0  0  0  0  0  0  0  0  0  0
   -4.1577   -1.6043    1.3866 H   0  0  0  0  0  0  0  0  0  0  0  0
   -3.6807   -2.7523    0.1036 H   0  0  0  0  0  0  0  0  0  0  0  0
   -2.0477   -1.8543    1.1546 C   0  0  0  0  0  0  0  0  0  0  0  0
   -1.2227   -2.3443    1.9146 O   0  0  0  0  0  0  0  0  0  0  0  0
   -1.7517   -0.8483    0.3266 N   0  0  0  0  0  0  0  0  0  0  0  0
   -2.4847   -0.5123   -0.2804 H   0  0  0  0  0  0  0  0  0  0  0  0
   -0.4117   -0.2463    0.2186 C   0  0  1  0  0  0  0  0  0  0  0  0
    0.1554   -0.5152    1.1133 H   0  0  0  0  0  0  0  0  0  0  0  0
    0.3164   -0.8780   -0.9905 C   0  0  0  0  0  0  0  0  0  0  0  0
   -0.2437   -1.7597   -1.3124 H   0  0  0  0  0  0  0  0  0  0  0  0
    0.3045   -0.1696   -1.8216 H   0  0  0  0  0  0  0  0  0  0  0  0
    1.7534   -1.2819   -0.7373 C   0  0  0  0  0  0  0  0  0  0  0  0
    2.2079   -1.9580    0.3784 N   0  3  0  0  0  0  0  0  0  0  0  0
    1.5911   -2.3082    1.1171 H   0  0  0  0  0  0  0  0  0  0  0  0
    3.5375   -2.1401    0.2535 C   0  0  0  0  0  0  0  0  0  0  0  0
    4.1727   -2.6540    0.9721 H   0  0  0  0  0  0  0  0  0  0  0  0
    3.9369   -1.5931   -0.9169 N   0  0  0  0  0  0  0  0  0  0  0  0
    4.8874   -1.5825   -1.2773 H   0  0  0  0  0  0  0  0  0  0  0  0
    2.8286   -1.0496   -1.5517 C   0  0  0  0  0  0  0  0  0  0  0  0
    2.8078   -0.5376   -2.5098 H   0  0  0  0  0  0  0  0  0  0  0  0
   -0.4874    1.2908    0.1962 C   0  0  0  0  0  0  0  0  0  0  0  0
   -1.3116    1.8673   -0.5151 O   0  0  0  0  0  0  0  0  0  0  0  0
    0.3889    1.9422    0.9708 N   0  0  0  0  0  0  0  0  0  0  0  0
    1.0197    1.3866    1.5283 H   0  0  0  0  0  0  0  0  0  0  0  0
    0.5081    3.3999    1.0720 C   0  0  0  0  0  0  0  0  0  0  0  0
    0.0188    3.7538    1.9817 H   0  0  0  0  0  0  0  0  0  0  0  0
    1.5607    3.6858    1.1098 H   0  0  0  0  0  0  0  0  0  0  0  0
    0.0459    3.8890    0.2119 H   0  0  0  0  0  0  0  0  0  0  0  0
  5  6  2  0  0  0  0
  5  7  1  0  0  0  0
  2  3  1  0  0  0  0
  2  4  1  0  0  0  0
  2  5  1  0  0  0  0
  1  2  1  0  0  0  0
 23 24  2  0  0  0  0
 23 25  1  0  0  0  0
 21 22  1  0  0  0  0
 19 20  1  0  0  0  0
 19 21  1  0  0  0  0
 17 18  1  0  0  0  0
 17 19  1  0  0  0  0
 15 16  1  0  0  0  0
 15 17  2  0  0  0  0
 14 15  1  0  0  0  0
 14 21  2  0  0  0  0
 11 12  1  0  0  0  0
 11 13  1  0  0  0  0
 11 14  1  0  0  0  0
  9 10  1  0  0  0  0
  9 11  1  0  0  0  0
  9 23  1  0  0  0  0
  7  8  1  0  0  0  0
  7  9  1  0  0  0  0
 27 28  1  0  0  0  0
 27 29  1  0  0  0  0
 27 30  1  0  0  0  0
 25 26  1  0  0  0  0
 25 27  1  0  0  0  0
M  CHG  1  15   1
M  END
$$$$
default_name
  -OEChem-02102213163D

 30 30  0     1  0  0  0  0  0999 V2000
   -3.5507   -3.2183    1.8116 H   0  0  0  0  0  0  0  0  0  0  0  0
   -3.4597   -2.3913    1.1076 C   0  0  0  0  0  0  0  0  0  0  0  0
   -4.1577   -1.6043    1.3866 H   0  0  0  0  0  0  0  0  0  0  0  0
   -3.6807   -2.7523    0.1036 H   0  0  0  0  0  0  0  0  0  0  0  0
   -2.0477   -1.8543    1.1546 C   0  0  0  0  0  0  0  0  0  0  0  0
   -1.2227   -2.3443    1.9146 O   0  0  0  0  0  0  0  0  0  0  0  0
   -1.7517   -0.8483    0.3266 N   0  0  0  0  0  0  0  0  0  0  0  0
   -2.4847   -0.5123   -0.2804 H   0  0  0  0  0  0  0  0  0  0  0  0
   -0.4117   -0.2463    0.2186 C   0  0  1  0  0  0  0  0  0  0  0  0
    0.1554   -0.5152    1.1133 H   0  0  0  0  0  0  0  0  0  0  0  0
    0.3164   -0.8780   -0.9905 C   0  0  0  0  0  0  0  0  0  0  0  0
   -0.2437   -1.7597   -1.3124 H   0  0  0  0  0  0  0  0  0  0  0  0
    0.3045   -0.1696   -1.8216 H   0  0  0  0  0  0  0  0  0  0  0  0
    1.7534   -1.2819   -0.7373 C   0  0  0  0  0  0  0  0  0  0  0  0
    2.1705   -2.1966    0.2103 N   0  3  0  0  0  0  0  0  0  0  0  0
    1.5270   -2.7397    0.7930 H   0  0  0  0  0  0  0  0  0  0  0  0
    3.5130   -2.2959    0.1440 C   0  0  0  0  0  0  0  0  0  0  0  0
    4.1270   -2.9492    0.7607 H   0  0  0  0  0  0  0  0  0  0  0  0
    3.9571   -1.4632   -0.8243 N   0  0  0  0  0  0  0  0  0  0  0  0
    4.9268   -1.3309   -1.0994 H   0  0  0  0  0  0  0  0  0  0  0  0
    2.8648   -0.8184   -1.3880 C   0  0  0  0  0  0  0  0  0  0  0  0
    2.8784   -0.0865   -2.1909 H   0  0  0  0  0  0  0  0  0  0  0  0
   -0.4874    1.2908    0.1962 C   0  0  0  0  0  0  0  0  0  0  0  0
   -1.3116    1.8673   -0.5151 O   0  0  0  0  0  0  0  0  0  0  0  0
    0.3889    1.9422    0.9708 N   0  0  0  0  0  0  0  0  0  0  0  0
    1.0197    1.3866    1.5283 H   0  0  0  0  0  0  0  0  0  0  0  0
    0.5081    3.3999    1.0720 C   0  0  0  0  0  0  0  0  0  0  0  0
    0.0188    3.7538    1.9817 H   0  0  0  0  0  0  0  0  0  0  0  0
    1.5607    3.6858    1.1098 H   0  0  0  0  0  0  0  0  0  0  0  0
    0.0459    3.8890    0.2119 H   0  0  0  0  0  0  0  0  0  0  0  0
  5  6  2  0  0  0  0
  5  7  1  0  0  0  0
  2  3  1  0  0  0  0
  2  4  1  0  0  0  0
  2  5  1  0  0  0  0
  1  2  1  0  0  0  0
 23 24  2  0  0  0  0
 23 25  1  0  0  0  0
 21 22  1  0  0  0  0
 19 20  1  0  0  0  0
 19 21  1  0  0  0  0
 17 18  1  0  0  0  0
 17 19  1  0  0  0  0
 15 16  1  0  0  0  0
 15 17  2  0  0  0  0
 14 15  1  0  0  0  0
 14 21  2  0  0  0  0
 11 12  1  0  0  0  0
 11 13  1  0  0  0  0
 11 14  1  0  0  0  0
  9 10  1  0  0  0  0
  9 11  1  0  0  0  0
  9 23  1  0  0  0  0
  7  8  1  0  0  0  0
  7  9  1  0  0  0  0
 27 28  1  0  0  0  0
 27 29  1  0  0  0  0
 27 30  1  0  0  0  0
 25 26  1  0  0  0  0
 25 27  1  0  0  0  0
M  CHG  1  15   1
M  END
$$$$
default_name
  -OEChem-02102213163D

 30 30  0     1  0  0  0  0  0999 V2000
   -3.5507   -3.2183    1.8116 H   0  0  0  0  0  0  0  0  0  0  0  0
   -3.4597   -2.3913    1.1076 C   0  0  0  0  0  0  0  0  0  0  0  0
   -4.1577   -1.6043    1.3866 H   0  0  0  0  0  0  0  0  0  0  0  0
   -3.6807   -2.7523    0.1036 H   0  0  0  0  0  0  0  0  0  0  0  0
   -2.0477   -1.8543    1.1546 C   0  0  0  0  0  0  0  0  0  0  0  0
   -1.2227   -2.3443    1.9146 O   0  0  0  0  0  0  0  0  0  0  0  0
   -1.7517   -0.8483    0.3266 N   0  0  0  0  0  0  0  0  0  0  0  0
   -2.4847   -0.5123   -0.2804 H   0  0  0  0  0  0  0  0  0  0  0  0
   -0.4117   -0.2463    0.2186 C   0  0  1  0  0  0  0  0  0  0  0  0
    0.1554   -0.5152    1.1133 H   0  0  0  0  0  0  0  0  0  0  0  0
    0.3164   -0.8780   -0.9905 C   0  0  0  0  0  0  0  0  0  0  0  0
   -0.2437   -1.7597   -1.3124 H   0  0  0  0  0  0  0  0  0  0  0  0
    0.3045   -0.1696   -1.8216 H   0  0  0  0  0  0  0  0  0  0  0  0
    1.7534   -1.2819   -0.7373 C   0  0  0  0  0  0  0  0  0  0  0  0
    2.1562   -2.3874   -0.0134 N   0  3  0  0  0  0  0  0  0  0  0  0
    1.5060   -3.0797    0.3696 H   0  0  0  0  0  0  0  0  0  0  0  0
    3.5036   -2.4207   -0.0017 C   0  0  0  0  0  0  0  0  0  0  0  0
    4.1102   -3.1844    0.4808 H   0  0  0  0  0  0  0  0  0  0  0  0
    3.9646   -1.3595   -0.7016 N   0  0  0  0  0  0  0  0  0  0  0  0
    4.9416   -1.1298   -0.8631 H   0  0  0  0  0  0  0  0  0  0  0  0
    2.8783   -0.6337   -1.1705 C   0  0  0  0  0  0  0  0  0  0  0  0
    2.9050    0.2739   -1.7671 H   0  0  0  0  0  0  0  0  0  0  0  0
   -0.4874    1.2908    0.1962 C   0  0  0  0  0  0  0  0  0  0  0  0
   -1.3116    1.8673   -0.5151 O   0  0  0  0  0  0  0  0  0  0  0  0
    0.3889    1.9422    0.9708 N   0  0  0  0  0  0  0  0  0  0  0  0
    1.0197    1.3866    1.5283 H   0  0  0  0  0  0  0  0  0  0  0  0
    0.5081    3.3999    1.0720 C   0  0  0  0  0  0  0  0  0  0  0  0
    0.0188    3.7538    1.9817 H   0  0  0  0  0  0  0  0  0  0  0  0
    1.5607    3.6858    1.1098 H   0  0  0  0  0  0  0  0  0  0  0  0
    0.0459    3.8890    0.2119 H   0  0  0  0  0  0  0  0  0  0  0  0
  5  6  2  0  0  0  0
  5  7  1  0  0  0  0
  2  3  1  0  0  0  0
  2  4  1  0  0  0  0
  2  5  1  0  0  0  0
  1  2  1  0  0  0  0
 23 24  2  0  0  0  0
 23 25  1  0  0  0  0
 21 22  1  0  0  0  0
 19 20  1  0  0  0  0
 19 21  1  0  0  0  0
 17 18  1  0  0  0  0
 17 19  1  0  0  0  0
 15 16  1  0  0  0  0
 15 17  2  0  0  0  0
 14 15  1  0  0  0  0
 14 21  2  0  0  0  0
 11 12  1  0  0  0  0
 11 13  1  0  0  0  0
 11 14  1  0  0  0  0
  9 10  1  0  0  0  0
  9 11  1  0  0  0  0
  9 23  1  0  0  0  0
  7  8  1  0  0  0  0
  7  9  1  0  0  0  0
 27 28  1  0  0  0  0
 27 29  1  0  0  0  0
 27 30  1  0  0  0  0
 25 26  1  0  0  0  0
 25 27  1  0  0  0  0
M  CHG  1  15   1
M  END
$$$$
default_name
  -OEChem-02102213163D

 30 30  0     1  0  0  0  0  0999 V2000
   -3.5507   -3.2183    1.8116 H   0  0  0  0  0  0  0  0  0  0  0  0
   -3.4597   -2.3913    1.1076 C   0  0  0  0  0  0  0  0  0  0  0  0
   -4.1577   -1.6043    1.3866 H   0  0  0  0  0  0  0  0  0  0  0  0
   -3.6807   -2.7523    0.1036 H   0  0  0  0  0  0  0  0  0  0  0  0
   -2.0477   -1.8543    1.1546 C   0  0  0  0  0  0  0  0  0  0  0  0
   -1.2227   -2.3443    1.9146 O   0  0  0  0  0  0  0  0  0  0  0  0
   -1.7517   -0.8483    0.3266 N   0  0  0  0  0  0  0  0  0  0  0  0
   -2.4847   -0.5123   -0.2804 H   0  0  0  0  0  0  0  0  0  0  0  0
   -0.4117   -0.2463    0.2186 C   0  0  1  0  0  0  0  0  0  0  0  0
    0.1554   -0.5152    1.1133 H   0  0  0  0  0  0  0  0  0  0  0  0
    0.3164   -0.8780   -0.9905 C   0  0  0  0  0  0  0  0  0  0  0  0
   -0.2437   -1.7597   -1.3124 H   0  0  0  0  0  0  0  0  0  0  0  0
    0.3045   -0.1696   -1.8216 H   0  0  0  0  0  0  0  0  0  0  0  0
    1.7534   -1.2819   -0.7373 C   0  0  0  0  0  0  0  0  0  0  0  0
    2.1662   -2.5174   -0.2772 N   0  3  0  0  0  0  0  0  0  0  0  0
    1.5298   -3.3050   -0.1244 H   0  0  0  0  0  0  0  0  0  0  0  0
    3.5100   -2.5058   -0.1737 C   0  0  0  0  0  0  0  0  0  0  0  0
    4.1235   -3.3436    0.1515 H   0  0  0  0  0  0  0  0  0  0  0  0
    3.9589   -1.2892   -0.5571 N   0  0  0  0  0  0  0  0  0  0  0  0
    4.9310   -0.9930   -0.5844 H   0  0  0  0  0  0  0  0  0  0  0  0
    2.8685   -0.5081   -0.9141 C   0  0  0  0  0  0  0  0  0  0  0  0
    2.8859    0.5192   -1.2674 H   0  0  0  0  0  0  0  0  0  0  0  0
   -0.4874    1.2908    0.1962 C   0  0  0  0  0  0  0  0  0  0  0  0
   -1.3116    1.8673   -0.5151 O   0  0  0  0  0  0  0  0  0  0  0  0
    0.3889    1.9422    0.9708 N   0  0  0  0  0  0  0  0  0  0  0  0
    1.0197    1.3866    1.5283 H   0  0  0  0  0  0  0  0  0  0  0  0
    0.5081    3.3999    1.0720 C   0  0  0  0  0  0  0  0  0  0  0  0
    0.0188    3.7538    1.9817 H   0  0  0  0  0  0  0  0  0  0  0  0
    1.5607    3.6858    1.1098 H   0  0  0  0  0  0  0  0  0  0  0  0
    0.0459    3.8890    0.2119 H   0  0  0  0  0  0  0  0  0  0  0  0
  5  6  2  0  0  0  0
  5  7  1  0  0  0  0
  2  3  1  0  0  0  0
  2  4  1  0  0  0  0
  2  5  1  0  0  0  0
  1  2  1  0  0  0  0
 23 24  2  0  0  0  0
 23 25  1  0  0  0  0
 21 22  1  0  0  0  0
 19 20  1  0  0  0  0
 19 21  1  0  0  0  0
 17 18  1  0  0  0  0
 17 19  1  0  0  0  0
 15 16  1  0  0  0  0
 15 17  2  0  0  0  0
 14 15  1  0  0  0  0
 14 21  2  0  0  0  0
 11 12  1  0  0  0  0
 11 13  1  0  0  0  0
 11 14  1  0  0  0  0
  9 10  1  0  0  0  0
  9 11  1  0  0  0  0
  9 23  1  0  0  0  0
  7  8  1  0  0  0  0
  7  9  1  0  0  0  0
 27 28  1  0  0  0  0
 27 29  1  0  0  0  0
 27 30  1  0  0  0  0
 25 26  1  0  0  0  0
 25 27  1  0  0  0  0
M  CHG  1  15   1
M  END
$$$$
default_name
  -OEChem-02102213163D

 30 30  0     1  0  0  0  0  0999 V2000
   -3.5507   -3.2183    1.8116 H   0  0  0  0  0  0  0  0  0  0  0  0
   -3.4597   -2.3913    1.1076 C   0  0  0  0  0  0  0  0  0  0  0  0
   -4.1577   -1.6043    1.3866 H   0  0  0  0  0  0  0  0  0  0  0  0
   -3.6807   -2.7523    0.1036 H   0  0  0  0  0  0  0  0  0  0  0  0
   -2.0477   -1.8543    1.1546 C   0  0  0  0  0  0  0  0  0  0  0  0
   -1.2227   -2.3443    1.9146 O   0  0  0  0  0  0  0  0  0  0  0  0
   -1.7517   -0.8483    0.3266 N   0  0  0  0  0  0  0  0  0  0  0  0
   -2.4847   -0.5123   -0.2804 H   0  0  0  0  0  0  0  0  0  0  0  0
   -0.4117   -0.2463    0.2186 C   0  0  1  0  0  0  0  0  0  0  0  0
    0.1554   -0.5152    1.1133 H   0  0  0  0  0  0  0  0  0  0  0  0
    0.3164   -0.8780   -0.9905 C   0  0  0  0  0  0  0  0  0  0  0  0
   -0.2437   -1.7597   -1.3124 H   0  0  0  0  0  0  0  0  0  0  0  0
    0.3045   -0.1696   -1.8216 H   0  0  0  0  0  0  0  0  0  0  0  0
    1.7534   -1.2819   -0.7373 C   0  0  0  0  0  0  0  0  0  0  0  0
    2.1997   -2.5777   -0.5633 N   0  3  0  0  0  0  0  0  0  0  0  0
    1.5965   -3.4002   -0.6552 H   0  0  0  0  0  0  0  0  0  0  0  0
    3.5318   -2.5455   -0.3604 C   0  0  0  0  0  0  0  0  0  0  0  0
    4.1660   -3.4159   -0.2048 H   0  0  0  0  0  0  0  0  0  0  0  0
    3.9403   -1.2571   -0.4006 N   0  0  0  0  0  0  0  0  0  0  0  0
    4.8955   -0.9298   -0.2823 H   0  0  0  0  0  0  0  0  0  0  0  0
    2.8358   -0.4503   -0.6363 C   0  0  0  0  0  0  0  0  0  0  0  0
    2.8223    0.6325   -0.7258 H   0  0  0  0  0  0  0  0  0  0  0  0
   -0.4874    1.2908    0.1962 C   0  0  0  0  0  0  0  0  0  0  0  0
   -1.3116    1.8673   -0.5151 O   0  0  0  0  0  0  0  0  0  0  0  0
    0.3889    1.9422    0.9708 N   0  0  0  0  0  0  0  0  0  0  0  0
    1.0197    1.3866    1.5283 H   0  0  0  0  0  0  0  0  0  0  0  0
    0.5081    3.3999    1.0720 C   0  0  0  0  0  0  0  0  0  0  0  0
    0.0188    3.7538    1.9817 H   0  0  0  0  0  0  0  0  0  0  0  0
    1.5607    3.6858    1.1098 H   0  0  0  0  0  0  0  0  0  0  0  0
    0.0459    3.8890    0.2119 H   0  0  0  0  0  0  0  0  0  0  0  0
  5  6  2  0  0  0  0
  5  7  1  0  0  0  0
  2  3  1  0  0  0  0
  2  4  1  0  0  0  0
  2  5  1  0  0  0  0
  1  2  1  0  0  0  0
 23 24  2  0  0  0  0
 23 25  1  0  0  0  0
 21 22  1  0  0  0  0
 19 20  1  0  0  0  0
 19 21  1  0  0  0  0
 17 18  1  0  0  0  0
 17 19  1  0  0  0  0
 15 16  1  0  0  0  0
 15 17  2  0  0  0  0
 14 15  1  0  0  0  0
 14 21  2  0  0  0  0
 11 12  1  0  0  0  0
 11 13  1  0  0  0  0
 11 14  1  0  0  0  0
  9 10  1  0  0  0  0
  9 11  1  0  0  0  0
  9 23  1  0  0  0  0
  7  8  1  0  0  0  0
  7  9  1  0  0  0  0
 27 28  1  0  0  0  0
 27 29  1  0  0  0  0
 27 30  1  0  0  0  0
 25 26  1  0  0  0  0
 25 27  1  0  0  0  0
M  CHG  1  15   1
M  END
$$$$
default_name
  -OEChem-02102213163D

 30 30  0     1  0  0  0  0  0999 V2000
   -3.5507   -3.2183    1.8116 H   0  0  0  0  0  0  0  0  0  0  0  0
   -3.4597   -2.3913    1.1076 C   0  0  0  0  0  0  0  0  0  0  0  0
   -4.1577   -1.6043    1.3866 H   0  0  0  0  0  0  0  0  0  0  0  0
   -3.6807   -2.7523    0.1036 H   0  0  0  0  0  0  0  0  0  0  0  0
   -2.0477   -1.8543    1.1546 C   0  0  0  0  0  0  0  0  0  0  0  0
   -1.2227   -2.3443    1.9146 O   0  0  0  0  0  0  0  0  0  0  0  0
   -1.7517   -0.8483    0.3266 N   0  0  0  0  0  0  0  0  0  0  0  0
   -2.4847   -0.5123   -0.2804 H   0  0  0  0  0  0  0  0  0  0  0  0
   -0.4117   -0.2463    0.2186 C   0  0  1  0  0  0  0  0  0  0  0  0
    0.1554   -0.5152    1.1133 H   0  0  0  0  0  0  0  0  0  0  0  0
    0.3164   -0.8780   -0.9905 C   0  0  0  0  0  0  0  0  0  0  0  0
   -0.2437   -1.7597   -1.3124 H   0  0  0  0  0  0  0  0  0  0  0  0
    0.3045   -0.1696   -1.8216 H   0  0  0  0  0  0  0  0  0  0  0  0
    1.7534   -1.2819   -0.7373 C   0  0  0  0  0  0  0  0  0  0  0  0
    2.2544   -2.5642   -0.8522 N   0  3  0  0  0  0  0  0  0  0  0  0
    1.7018   -3.3589   -1.1867 H   0  0  0  0  0  0  0  0  0  0  0  0
    3.5674   -2.5370   -0.5489 C   0  0  0  0  0  0  0  0  0  0  0  0
    4.2347   -3.3963   -0.5637 H   0  0  0  0  0  0  0  0  0  0  0  0
    3.9102   -1.2653   -0.2428 N   0  0  0  0  0  0  0  0  0  0  0  0
    4.8377   -0.9445    0.0226 H   0  0  0  0  0  0  0  0  0  0  0  0
    2.7825   -0.4640   -0.3560 C   0  0  0  0  0  0  0  0  0  0  0  0
    2.7185    0.6061   -0.1793 H   0  0  0  0  0  0  0  0  0  0  0  0
   -0.4874    1.2908    0.1962 C   0  0  0  0  0  0  0  0  0  0  0  0
   -1.3116    1.8673   -0.5151 O   0  0  0  0  0  0  0  0  0  0  0  0
    0.3889    1.9422    0.9708 N   0  0  0  0  0  0  0  0  0  0  0  0
    1.0197    1.3866    1.5283 H   0  0  0  0  0  0  0  0  0  0  0  0
    0.5081    3.3999    1.0720 C   0  0  0  0  0  0  0  0  0  0  0  0
    0.0188    3.7538    1.9817 H   0  0  0  0  0  0  0  0  0  0  0  0
    1.5607    3.6858    1.1098 H   0  0  0  0  0  0  0  0  0  0  0  0
    0.0459    3.8890    0.2119 H   0  0  0  0  0  0  0  0  0  0  0  0
  5  6  2  0  0  0  0
  5  7  1  0  0  0  0
  2  3  1  0  0  0  0
  2  4  1  0  0  0  0
  2  5  1  0  0  0  0
  1  2  1  0  0  0  0
 23 24  2  0  0  0  0
 23 25  1  0  0  0  0
 21 22  1  0  0  0  0
 19 20  1  0  0  0  0
 19 21  1  0  0  0  0
 17 18  1  0  0  0  0
 17 19  1  0  0  0  0
 15 16  1  0  0  0  0
 15 17  2  0  0  0  0
 14 15  1  0  0  0  0
 14 21  2  0  0  0  0
 11 12  1  0  0  0  0
 11 13  1  0  0  0  0
 11 14  1  0  0  0  0
  9 10  1  0  0  0  0
  9 11  1  0  0  0  0
  9 23  1  0  0  0  0
  7  8  1  0  0  0  0
  7  9  1  0  0  0  0
 27 28  1  0  0  0  0
 27 29  1  0  0  0  0
 27 30  1  0  0  0  0
 25 26  1  0  0  0  0
 25 27  1  0  0  0  0
M  CHG  1  15   1
M  END
$$$$
default_name
  -OEChem-02102213163D

 30 30  0     1  0  0  0  0  0999 V2000
   -3.5507   -3.2183    1.8116 H   0  0  0  0  0  0  0  0  0  0  0  0
   -3.4597   -2.3913    1.1076 C   0  0  0  0  0  0  0  0  0  0  0  0
   -4.1577   -1.6043    1.3866 H   0  0  0  0  0  0  0  0  0  0  0  0
   -3.6807   -2.7523    0.1036 H   0  0  0  0  0  0  0  0  0  0  0  0
   -2.0477   -1.8543    1.1546 C   0  0  0  0  0  0  0  0  0  0  0  0
   -1.2227   -2.3443    1.9146 O   0  0  0  0  0  0  0  0  0  0  0  0
   -1.7517   -0.8483    0.3266 N   0  0  0  0  0  0  0  0  0  0  0  0
   -2.4847   -0.5123   -0.2804 H   0  0  0  0  0  0  0  0  0  0  0  0
   -0.4117   -0.2463    0.2186 C   0  0  1  0  0  0  0  0  0  0  0  0
    0.1554   -0.5152    1.1133 H   0  0  0  0  0  0  0  0  0  0  0  0
    0.3164   -0.8780   -0.9905 C   0  0  0  0  0  0  0  0  0  0  0  0
   -0.2437   -1.7597   -1.3124 H   0  0  0  0  0  0  0  0  0  0  0  0
    0.3045   -0.1696   -1.8216 H   0  0  0  0  0  0  0  0  0  0  0  0
    1.7534   -1.2819   -0.7373 C   0  0  0  0  0  0  0  0  0  0  0  0
    2.3266   -2.4778   -1.1241 N   0  3  0  0  0  0  0  0  0  0  0  0
    1.8385   -3.1838   -1.6827 H   0  0  0  0  0  0  0  0  0  0  0  0
    3.6144   -2.4809   -0.7264 C   0  0  0  0  0  0  0  0  0  0  0  0
    4.3251   -3.2863   -0.9009 H   0  0  0  0  0  0  0  0  0  0  0  0
    3.8706   -1.3132   -0.0945 N   0  0  0  0  0  0  0  0  0  0  0  0
    4.7614   -1.0361    0.3094 H   0  0  0  0  0  0  0  0  0  0  0  0
    2.7123   -0.5485   -0.0923 C   0  0  0  0  0  0  0  0  0  0  0  0
    2.5817    0.4419    0.3350 H   0  0  0  0  0  0  0  0  0  0  0  0
   -0.4874    1.2908    0.1962 C   0  0  0  0  0  0  0  0  0  0  0  0
   -1.3116    1.8673   -0.5151 O   0  0  0  0  0  0  0  0  0  0  0  0
    0.3889    1.9422    0.9708 N   0  0  0  0  0  0  0  0  0  0  0  0
    1.0197    1.3866    1.5283 H   0  0  0  0  0  0  0  0  0  0  0  0
    0.5081    3.3999    1.0720 C   0  0  0  0  0  0  0  0  0  0  0  0
    0.0188    3.7538    1.9817 H   0  0  0  0  0  0  0  0  0  0  0  0
    1.5607    3.6858    1.1098 H   0  0  0  0  0  0  0  0  0  0  0  0
    0.0459    3.8890    0.2119 H   0  0  0  0  0  0  0  0  0  0  0  0
  5  6  2  0  0  0  0
  5  7  1  0  0  0  0
  2  3  1  0  0  0  0
  2  4  1  0  0  0  0
  2  5  1  0  0  0  0
  1  2  1  0  0  0  0
 23 24  2  0  0  0  0
 23 25  1  0  0  0  0
 21 22  1  0  0  0  0
 19 20  1  0  0  0  0
 19 21  1  0  0  0  0
 17 18  1  0  0  0  0
 17 19  1  0  0  0  0
 15 16  1  0  0  0  0
 15 17  2  0  0  0  0
 14 15  1  0  0  0  0
 14 21  2  0  0  0  0
 11 12  1  0  0  0  0
 11 13  1  0  0  0  0
 11 14  1  0  0  0  0
  9 10  1  0  0  0  0
  9 11  1  0  0  0  0
  9 23  1  0  0  0  0
  7  8  1  0  0  0  0
  7  9  1  0  0  0  0
 27 28  1  0  0  0  0
 27 29  1  0  0  0  0
 27 30  1  0  0  0  0
 25 26  1  0  0  0  0
 25 27  1  0  0  0  0
M  CHG  1  15   1
M  END
$$$$
default_name
  -OEChem-02102213163D

 30 30  0     1  0  0  0  0  0999 V2000
   -3.5507   -3.2183    1.8116 H   0  0  0  0  0  0  0  0  0  0  0  0
   -3.4597   -2.3913    1.1076 C   0  0  0  0  0  0  0  0  0  0  0  0
   -4.1577   -1.6043    1.3866 H   0  0  0  0  0  0  0  0  0  0  0  0
   -3.6807   -2.7523    0.1036 H   0  0  0  0  0  0  0  0  0  0  0  0
   -2.0477   -1.8543    1.1546 C   0  0  0  0  0  0  0  0  0  0  0  0
   -1.2227   -2.3443    1.9146 O   0  0  0  0  0  0  0  0  0  0  0  0
   -1.7517   -0.8483    0.3266 N   0  0  0  0  0  0  0  0  0  0  0  0
   -2.4847   -0.5123   -0.2804 H   0  0  0  0  0  0  0  0  0  0  0  0
   -0.4117   -0.2463    0.2186 C   0  0  1  0  0  0  0  0  0  0  0  0
    0.1554   -0.5152    1.1133 H   0  0  0  0  0  0  0  0  0  0  0  0
    0.3164   -0.8780   -0.9905 C   0  0  0  0  0  0  0  0  0  0  0  0
   -0.2437   -1.7597   -1.3124 H   0  0  0  0  0  0  0  0  0  0  0  0
    0.3045   -0.1696   -1.8216 H   0  0  0  0  0  0  0  0  0  0  0  0
    1.7534   -1.2819   -0.7373 C   0  0  0  0  0  0  0  0  0  0  0  0
    2.4114   -2.3245   -1.3606 N   0  3  0  0  0  0  0  0  0  0  0  0
    1.9971   -2.8870   -2.1094 H   0  0  0  0  0  0  0  0  0  0  0  0
    3.6697   -2.3812   -0.8809 C   0  0  0  0  0  0  0  0  0  0  0  0
    4.4309   -3.0932   -1.1933 H   0  0  0  0  0  0  0  0  0  0  0  0
    3.8242   -1.3977    0.0342 N   0  0  0  0  0  0  0  0  0  0  0  0
    4.6718   -1.1983    0.5588 H   0  0  0  0  0  0  0  0  0  0  0  0
    2.6299   -0.6978    0.1368 C   0  0  0  0  0  0  0  0  0  0  0  0
    2.4212    0.1510    0.7820 H   0  0  0  0  0  0  0  0  0  0  0  0
   -0.4874    1.2908    0.1962 C   0  0  0  0  0  0  0  0  0  0  0  0
   -1.3116    1.8673   -0.5151 O   0  0  0  0  0  0  0  0  0  0  0  0
    0.3889    1.9422    0.9708 N   0  0  0  0  0  0  0  0  0  0  0  0
    1.0197    1.3866    1.5283 H   0  0  0  0  0  0  0  0  0  0  0  0
    0.5081    3.3999    1.0720 C   0  0  0  0  0  0  0  0  0  0  0  0
    0.0188    3.7538    1.9817 H   0  0  0  0  0  0  0  0  0  0  0  0
    1.5607    3.6858    1.1098 H   0  0  0  0  0  0  0  0  0  0  0  0
    0.0459    3.8890    0.2119 H   0  0  0  0  0  0  0  0  0  0  0  0
  5  6  2  0  0  0  0
  5  7  1  0  0  0  0
  2  3  1  0  0  0  0
  2  4  1  0  0  0  0
  2  5  1  0  0  0  0
  1  2  1  0  0  0  0
 23 24  2  0  0  0  0
 23 25  1  0  0  0  0
 21 22  1  0  0  0  0
 19 20  1  0  0  0  0
 19 21  1  0  0  0  0
 17 18  1  0  0  0  0
 17 19  1  0  0  0  0
 15 16  1  0  0  0  0
 15 17  2  0  0  0  0
 14 15  1  0  0  0  0
 14 21  2  0  0  0  0
 11 12  1  0  0  0  0
 11 13  1  0  0  0  0
 11 14  1  0  0  0  0
  9 10  1  0  0  0  0
  9 11  1  0  0  0  0
  9 23  1  0  0  0  0
  7  8  1  0  0  0  0
  7  9  1  0  0  0  0
 27 28  1  0  0  0  0
 27 29  1  0  0  0  0
 27 30  1  0  0  0  0
 25 26  1  0  0  0  0
 25 27  1  0  0  0  0
M  CHG  1  15   1
M  END
$$$$
default_name
  -OEChem-02102213163D

 30 30  0     1  0  0  0  0  0999 V2000
   -3.5507   -3.2183    1.8116 H   0  0  0  0  0  0  0  0  0  0  0  0
   -3.4597   -2.3913    1.1076 C   0  0  0  0  0  0  0  0  0  0  0  0
   -4.1577   -1.6043    1.3866 H   0  0  0  0  0  0  0  0  0  0  0  0
   -3.6807   -2.7523    0.1036 H   0  0  0  0  0  0  0  0  0  0  0  0
   -2.0477   -1.8543    1.1546 C   0  0  0  0  0  0  0  0  0  0  0  0
   -1.2227   -2.3443    1.9146 O   0  0  0  0  0  0  0  0  0  0  0  0
   -1.7517   -0.8483    0.3266 N   0  0  0  0  0  0  0  0  0  0  0  0
   -2.4847   -0.5123   -0.2804 H   0  0  0  0  0  0  0  0  0  0  0  0
   -0.4117   -0.2463    0.2186 C   0  0  1  0  0  0  0  0  0  0  0  0
    0.1554   -0.5152    1.1133 H   0  0  0  0  0  0  0  0  0  0  0  0
    0.3164   -0.8780   -0.9905 C   0  0  0  0  0  0  0  0  0  0  0  0
   -0.2437   -1.7597   -1.3124 H   0  0  0  0  0  0  0  0  0  0  0  0
    0.3045   -0.1696   -1.8216 H   0  0  0  0  0  0  0  0  0  0  0  0
    1.7534   -1.2819   -0.7373 C   0  0  0  0  0  0  0  0  0  0  0  0
    2.5030   -2.1146   -1.5455 N   0  3  0  0  0  0  0  0  0  0  0  0
    2.1669   -2.4886   -2.4376 H   0  0  0  0  0  0  0  0  0  0  0  0
    3.7294   -2.2444   -1.0018 C   0  0  0  0  0  0  0  0  0  0  0  0
    4.5449   -2.8304   -1.4210 H   0  0  0  0  0  0  0  0  0  0  0  0
    3.7741   -1.5130    0.1346 N   0  0  0  0  0  0  0  0  0  0  0  0
    4.5751   -1.4201    0.7536 H   0  0  0  0  0  0  0  0  0  0  0  0
    2.5410   -0.9020    0.3157 C   0  0  0  0  0  0  0  0  0  0  0  0
    2.2478   -0.2468    1.1313 H   0  0  0  0  0  0  0  0  0  0  0  0
   -0.4874    1.2908    0.1962 C   0  0  0  0  0  0  0  0  0  0  0  0
   -1.3116    1.8673   -0.5151 O   0  0  0  0  0  0  0  0  0  0  0  0
    0.3889    1.9422    0.9708 N   0  0  0  0  0  0  0  0  0  0  0  0
    1.0197    1.3866    1.5283 H   0  0  0  0  0  0  0  0  0  0  0  0
    0.5081    3.3999    1.0720 C   0  0  0  0  0  0  0  0  0  0  0  0
    0.0188    3.7538    1.9817 H   0  0  0  0  0  0  0  0  0  0  0  0
    1.5607    3.6858    1.1098 H   0  0  0  0  0  0  0  0  0  0  0  0
    0.0459    3.8890    0.2119 H   0  0  0  0  0  0  0  0  0  0  0  0
  5  6  2  0  0  0  0
  5  7  1  0  0  0  0
  2  3  1  0  0  0  0
  2  4  1  0  0  0  0
  2  5  1  0  0  0  0
  1  2  1  0  0  0  0
 23 24  2  0  0  0  0
 23 25  1  0  0  0  0
 21 22  1  0  0  0  0
 19 20  1  0  0  0  0
 19 21  1  0  0  0  0
 17 18  1  0  0  0  0
 17 19  1  0  0  0  0
 15 16  1  0  0  0  0
 15 17  2  0  0  0  0
 14 15  1  0  0  0  0
 14 21  2  0  0  0  0
 11 12  1  0  0  0  0
 11 13  1  0  0  0  0
 11 14  1  0  0  0  0
  9 10  1  0  0  0  0
  9 11  1  0  0  0  0
  9 23  1  0  0  0  0
  7  8  1  0  0  0  0
  7  9  1  0  0  0  0
 27 28  1  0  0  0  0
 27 29  1  0  0  0  0
 27 30  1  0  0  0  0
 25 26  1  0  0  0  0
 25 27  1  0  0  0  0
M  CHG  1  15   1
M  END
$$$$
default_name
  -OEChem-02102213163D

 30 30  0     1  0  0  0  0  0999 V2000
   -3.5507   -3.2183    1.8116 H   0  0  0  0  0  0  0  0  0  0  0  0
   -3.4597   -2.3913    1.1076 C   0  0  0  0  0  0  0  0  0  0  0  0
   -4.1577   -1.6043    1.3866 H   0  0  0  0  0  0  0  0  0  0  0  0
   -3.6807   -2.7523    0.1036 H   0  0  0  0  0  0  0  0  0  0  0  0
   -2.0477   -1.8543    1.1546 C   0  0  0  0  0  0  0  0  0  0  0  0
   -1.2227   -2.3443    1.9146 O   0  0  0  0  0  0  0  0  0  0  0  0
   -1.7517   -0.8483    0.3266 N   0  0  0  0  0  0  0  0  0  0  0  0
   -2.4847   -0.5123   -0.2804 H   0  0  0  0  0  0  0  0  0  0  0  0
   -0.4117   -0.2463    0.2186 C   0  0  1  0  0  0  0  0  0  0  0  0
    0.1554   -0.5152    1.1133 H   0  0  0  0  0  0  0  0  0  0  0  0
    0.3164   -0.8780   -0.9905 C   0  0  0  0  0  0  0  0  0  0  0  0
   -0.3634   -1.5819   -1.4774 H   0  0  0  0  0  0  0  0  0  0  0  0
    0.5418   -0.0950   -1.7177 H   0  0  0  0  0  0  0  0  0  0  0  0
    1.6062   -1.5988   -0.6603 C   0  0  0  0  0  0  0  0  0  0  0  0
    2.4218   -2.2357   -1.5756 N   0  3  0  0  0  0  0  0  0  0  0  0
    2.2557   -2.2220   -2.5860 H   0  0  0  0  0  0  0  0  0  0  0  0
    3.4727   -2.7616   -0.9156 C   0  0  0  0  0  0  0  0  0  0  0  0
    4.2919   -3.3124   -1.3735 H   0  0  0  0  0  0  0  0  0  0  0  0
    3.3412   -2.4732    0.3989 N   0  0  0  0  0  0  0  0  0  0  0  0
    3.9879   -2.7406    1.1363 H   0  0  0  0  0  0  0  0  0  0  0  0
    2.1740   -1.7433    0.5767 C   0  0  0  0  0  0  0  0  0  0  0  0
    1.7791   -1.3564    1.5120 H   0  0  0  0  0  0  0  0  0  0  0  0
   -0.4874    1.2908    0.1962 C   0  0  0  0  0  0  0  0  0  0  0  0
   -1.3116    1.8673   -0.5151 O   0  0  0  0  0  0  0  0  0  0  0  0
    0.3889    1.9422    0.9708 N   0  0  0  0  0  0  0  0  0  0  0  0
    1.0197    1.3866    1.5283 H   0  0  0  0  0  0  0  0  0  0  0  0
    0.5081    3.3999    1.0720 C   0  0  0  0  0  0  0  0  0  0  0  0
    0.0188    3.7538    1.9817 H   0  0  0  0  0  0  0  0  0  0  0  0
    1.5607    3.6858    1.1098 H   0  0  0  0  0  0  0  0  0  0  0  0
    0.0459    3.8890    0.2119 H   0  0  0  0  0  0  0  0  0  0  0  0
  5  6  2  0  0  0  0
  5  7  1  0  0  0  0
  2  3  1  0  0  0  0
  2  4  1  0  0  0  0
  2  5  1  0  0  0  0
  1  2  1  0  0  0  0
 23 24  2  0  0  0  0
 23 25  1  0  0  0  0
 21 22  1  0  0  0  0
 19 20  1  0  0  0  0
 19 21  1  0  0  0  0
 17 18  1  0  0  0  0
 17 19  1  0  0  0  0
 15 16  1  0  0  0  0
 15 17  2  0  0  0  0
 14 15  1  0  0  0  0
 14 21  2  0  0  0  0
 11 12  1  0  0  0  0
 11 13  1  0  0  0  0
 11 14  1  0  0  0  0
  9 10  1  0  0  0  0
  9 11  1  0  0  0  0
  9 23  1  0  0  0  0
  7  8  1  0  0  0  0
  7  9  1  0  0  0  0
 27 28  1  0  0  0  0
 27 29  1  0  0  0  0
 27 30  1  0  0  0  0
 25 26  1  0  0  0  0
 25 27  1  0  0  0  0
M  CHG  1  15   1
M  END
$$$$
default_name
  -OEChem-02102213163D

 30 30  0     1  0  0  0  0  0999 V2000
   -3.5507   -3.2183    1.8116 H   0  0  0  0  0  0  0  0  0  0  0  0
   -3.4597   -2.3913    1.1076 C   0  0  0  0  0  0  0  0  0  0  0  0
   -4.1577   -1.6043    1.3866 H   0  0  0  0  0  0  0  0  0  0  0  0
   -3.6807   -2.7523    0.1036 H   0  0  0  0  0  0  0  0  0  0  0  0
   -2.0477   -1.8543    1.1546 C   0  0  0  0  0  0  0  0  0  0  0  0
   -1.2227   -2.3443    1.9146 O   0  0  0  0  0  0  0  0  0  0  0  0
   -1.7517   -0.8483    0.3266 N   0  0  0  0  0  0  0  0  0  0  0  0
   -2.4847   -0.5123   -0.2804 H   0  0  0  0  0  0  0  0  0  0  0  0
   -0.4117   -0.2463    0.2186 C   0  0  1  0  0  0  0  0  0  0  0  0
    0.1554   -0.5152    1.1133 H   0  0  0  0  0  0  0  0  0  0  0  0
    0.3164   -0.8780   -0.9905 C   0  0  0  0  0  0  0  0  0  0  0  0
   -0.3634   -1.5819   -1.4774 H   0  0  0  0  0  0  0  0  0  0  0  0
    0.5418   -0.0950   -1.7177 H   0  0  0  0  0  0  0  0  0  0  0  0
    1.6062   -1.5988   -0.6603 C   0  0  0  0  0  0  0  0  0  0  0  0
    2.5659   -1.9791   -1.5784 N   0  3  0  0  0  0  0  0  0  0  0  0
    2.5185   -1.7465   -2.5745 H   0  0  0  0  0  0  0  0  0  0  0  0
    3.5668   -2.5942   -0.9178 C   0  0  0  0  0  0  0  0  0  0  0  0
    4.4706   -2.9930   -1.3742 H   0  0  0  0  0  0  0  0  0  0  0  0
    3.2626   -2.6135    0.3996 N   0  0  0  0  0  0  0  0  0  0  0  0
    3.8358   -3.0115    1.1389 H   0  0  0  0  0  0  0  0  0  0  0  0
    2.0343   -1.9925    0.5787 C   0  0  0  0  0  0  0  0  0  0  0  0
    1.5065   -1.8421    1.5165 H   0  0  0  0  0  0  0  0  0  0  0  0
   -0.4874    1.2908    0.1962 C   0  0  0  0  0  0  0  0  0  0  0  0
   -1.3116    1.8673   -0.5151 O   0  0  0  0  0  0  0  0  0  0  0  0
    0.3889    1.9422    0.9708 N   0  0  0  0  0  0  0  0  0  0  0  0
    1.0197    1.3866    1.5283 H   0  0  0  0  0  0  0  0  0  0  0  0
    0.5081    3.3999    1.0720 C   0  0  0  0  0  0  0  0  0  0  0  0
    0.0188    3.7538    1.9817 H   0  0  0  0  0  0  0  0  0  0  0  0
    1.5607    3.6858    1.1098 H   0  0  0  0  0  0  0  0  0  0  0  0
    0.0459    3.8890    0.2119 H   0  0  0  0  0  0  0  0  0  0  0  0
  5  6  2  0  0  0  0
  5  7  1  0  0  0  0
  2  3  1  0  0  0  0
  2  4  1  0  0  0  0
  2  5  1  0  0  0  0
  1  2  1  0  0  0  0
 23 24  2  0  0  0  0
 23 25  1  0  0  0  0
 21 22  1  0  0  0  0
 19 20  1  0  0  0  0
 19 21  1  0  0  0  0
 17 18  1  0  0  0  0
 17 19  1  0  0  0  0
 15 16  1  0  0  0  0
 15 17  2  0  0  0  0
 14 15  1  0  0  0  0
 14 21  2  0  0  0  0
 11 12  1  0  0  0  0
 11 13  1  0  0  0  0
 11 14  1  0  0  0  0
  9 10  1  0  0  0  0
  9 11  1  0  0  0  0
  9 23  1  0  0  0  0
  7  8  1  0  0  0  0
  7  9  1  0  0  0  0
 27 28  1  0  0  0  0
 27 29  1  0  0  0  0
 27 30  1  0  0  0  0
 25 26  1  0  0  0  0
 25 27  1  0  0  0  0
M  CHG  1  15   1
M  END
$$$$
default_name
  -OEChem-02102213163D

 30 30  0     1  0  0  0  0  0999 V2000
   -3.5507   -3.2183    1.8116 H   0  0  0  0  0  0  0  0  0  0  0  0
   -3.4597   -2.3913    1.1076 C   0  0  0  0  0  0  0  0  0  0  0  0
   -4.1577   -1.6043    1.3866 H   0  0  0  0  0  0  0  0  0  0  0  0
   -3.6807   -2.7523    0.1036 H   0  0  0  0  0  0  0  0  0  0  0  0
   -2.0477   -1.8543    1.1546 C   0  0  0  0  0  0  0  0  0  0  0  0
   -1.2227   -2.3443    1.9146 O   0  0  0  0  0  0  0  0  0  0  0  0
   -1.7517   -0.8483    0.3266 N   0  0  0  0  0  0  0  0  0  0  0  0
   -2.4847   -0.5123   -0.2804 H   0  0  0  0  0  0  0  0  0  0  0  0
   -0.4117   -0.2463    0.2186 C   0  0  1  0  0  0  0  0  0  0  0  0
    0.1554   -0.5152    1.1133 H   0  0  0  0  0  0  0  0  0  0  0  0
    0.3164   -0.8780   -0.9905 C   0  0  0  0  0  0  0  0  0  0  0  0
   -0.3634   -1.5819   -1.4774 H   0  0  0  0  0  0  0  0  0  0  0  0
    0.5418   -0.0950   -1.7177 H   0  0  0  0  0  0  0  0  0  0  0  0
    1.6062   -1.5988   -0.6603 C   0  0  0  0  0  0  0  0  0  0  0  0
    2.6910   -1.7225   -1.5068 N   0  3  0  0  0  0  0  0  0  0  0  0
    2.7441   -1.2748   -2.4263 H   0  0  0  0  0  0  0  0  0  0  0  0
    3.6486   -2.4267   -0.8714 C   0  0  0  0  0  0  0  0  0  0  0  0
    4.6252   -2.6742   -1.2824 H   0  0  0  0  0  0  0  0  0  0  0  0
    3.1945   -2.7536    0.3597 N   0  0  0  0  0  0  0  0  0  0  0  0
    3.7040   -3.2823    1.0628 H   0  0  0  0  0  0  0  0  0  0  0  0
    1.9131   -2.2414    0.5086 C   0  0  0  0  0  0  0  0  0  0  0  0
    1.2701   -2.3276    1.3801 H   0  0  0  0  0  0  0  0  0  0  0  0
   -0.4874    1.2908    0.1962 C   0  0  0  0  0  0  0  0  0  0  0  0
   -1.3116    1.8673   -0.5151 O   0  0  0  0  0  0  0  0  0  0  0  0
    0.3889    1.9422    0.9708 N   0  0  0  0  0  0  0  0  0  0  0  0
    1.0197    1.3866    1.5283 H   0  0  0  0  0  0  0  0  0  0  0  0
    0.5081    3.3999    1.0720 C   0  0  0  0  0  0  0  0  0  0  0  0
    0.0188    3.7538    1.9817 H   0  0  0  0  0  0  0  0  0  0  0  0
    1.5607    3.6858    1.1098 H   0  0  0  0  0  0  0  0  0  0  0  0
    0.0459    3.8890    0.2119 H   0  0  0  0  0  0  0  0  0  0  0  0
  5  6  2  0  0  0  0
  5  7  1  0  0  0  0
  2  3  1  0  0  0  0
  2  4  1  0  0  0  0
  2  5  1  0  0  0  0
  1  2  1  0  0  0  0
 23 24  2  0  0  0  0
 23 25  1  0  0  0  0
 21 22  1  0  0  0  0
 19 20  1  0  0  0  0
 19 21  1  0  0  0  0
 17 18  1  0  0  0  0
 17 19  1  0  0  0  0
 15 16  1  0  0  0  0
 15 17  2  0  0  0  0
 14 15  1  0  0  0  0
 14 21  2  0  0  0  0
 11 12  1  0  0  0  0
 11 13  1  0  0  0  0
 11 14  1  0  0  0  0
  9 10  1  0  0  0  0
  9 11  1  0  0  0  0
  9 23  1  0  0  0  0
  7  8  1  0  0  0  0
  7  9  1  0  0  0  0
 27 28  1  0  0  0  0
 27 29  1  0  0  0  0
 27 30  1  0  0  0  0
 25 26  1  0  0  0  0
 25 27  1  0  0  0  0
M  CHG  1  15   1
M  END
$$$$
default_name
  -OEChem-02102213163D

 30 30  0     1  0  0  0  0  0999 V2000
   -3.5507   -3.2183    1.8116 H   0  0  0  0  0  0  0  0  0  0  0  0
   -3.4597   -2.3913    1.1076 C   0  0  0  0  0  0  0  0  0  0  0  0
   -4.1577   -1.6043    1.3866 H   0  0  0  0  0  0  0  0  0  0  0  0
   -3.6807   -2.7523    0.1036 H   0  0  0  0  0  0  0  0  0  0  0  0
   -2.0477   -1.8543    1.1546 C   0  0  0  0  0  0  0  0  0  0  0  0
   -1.2227   -2.3443    1.9146 O   0  0  0  0  0  0  0  0  0  0  0  0
   -1.7517   -0.8483    0.3266 N   0  0  0  0  0  0  0  0  0  0  0  0
   -2.4847   -0.5123   -0.2804 H   0  0  0  0  0  0  0  0  0  0  0  0
   -0.4117   -0.2463    0.2186 C   0  0  1  0  0  0  0  0  0  0  0  0
    0.1554   -0.5152    1.1133 H   0  0  0  0  0  0  0  0  0  0  0  0
    0.3164   -0.8780   -0.9905 C   0  0  0  0  0  0  0  0  0  0  0  0
   -0.3634   -1.5819   -1.4774 H   0  0  0  0  0  0  0  0  0  0  0  0
    0.5418   -0.0950   -1.7177 H   0  0  0  0  0  0  0  0  0  0  0  0
    1.6062   -1.5988   -0.6603 C   0  0  0  0  0  0  0  0  0  0  0  0
    2.7885   -1.4834   -1.3656 N   0  3  0  0  0  0  0  0  0  0  0  0
    2.9171   -0.8392   -2.1512 H   0  0  0  0  0  0  0  0  0  0  0  0
    3.7123   -2.2706   -0.7795 C   0  0  0  0  0  0  0  0  0  0  0  0
    4.7453   -2.3778   -1.1044 H   0  0  0  0  0  0  0  0  0  0  0  0
    3.1416   -2.8840    0.2818 N   0  0  0  0  0  0  0  0  0  0  0  0
    3.6012   -3.5346    0.9134 H   0  0  0  0  0  0  0  0  0  0  0  0
    1.8187   -2.4733    0.3710 C   0  0  0  0  0  0  0  0  0  0  0  0
    1.0859   -2.7799    1.1122 H   0  0  0  0  0  0  0  0  0  0  0  0
   -0.4874    1.2908    0.1962 C   0  0  0  0  0  0  0  0  0  0  0  0
   -1.3116    1.8673   -0.5151 O   0  0  0  0  0  0  0  0  0  0  0  0
    0.3889    1.9422    0.9708 N   0  0  0  0  0  0  0  0  0  0  0  0
    1.0197    1.3866    1.5283 H   0  0  0  0  0  0  0  0  0  0  0  0
    0.5081    3.3999    1.0720 C   0  0  0  0  0  0  0  0  0  0  0  0
    0.0188    3.7538    1.9817 H   0  0  0  0  0  0  0  0  0  0  0  0
    1.5607    3.6858    1.1098 H   0  0  0  0  0  0  0  0  0  0  0  0
    0.0459    3.8890    0.2119 H   0  0  0  0  0  0  0  0  0  0  0  0
  5  6  2  0  0  0  0
  5  7  1  0  0  0  0
  2  3  1  0  0  0  0
  2  4  1  0  0  0  0
  2  5  1  0  0  0  0
  1  2  1  0  0  0  0
 23 24  2  0  0  0  0
 23 25  1  0  0  0  0
 21 22  1  0  0  0  0
 19 20  1  0  0  0  0
 19 21  1  0  0  0  0
 17 18  1  0  0  0  0
 17 19  1  0  0  0  0
 15 16  1  0  0  0  0
 15 17  2  0  0  0  0
 14 15  1  0  0  0  0
 14 21  2  0  0  0  0
 11 12  1  0  0  0  0
 11 13  1  0  0  0  0
 11 14  1  0  0  0  0
  9 10  1  0  0  0  0
  9 11  1  0  0  0  0
  9 23  1  0  0  0  0
  7  8  1  0  0  0  0
  7  9  1  0  0  0  0
 27 28  1  0  0  0  0
 27 29  1  0  0  0  0
 27 30  1  0  0  0  0
 25 26  1  0  0  0  0
 25 27  1  0  0  0  0
M  CHG  1  15   1
M  END
$$$$
default_name
  -OEChem-02102213163D

 30 30  0     1  0  0  0  0  0999 V2000
   -3.5507   -3.2183    1.8116 H   0  0  0  0  0  0  0  0  0  0  0  0
   -3.4597   -2.3913    1.1076 C   0  0  0  0  0  0  0  0  0  0  0  0
   -4.1577   -1.6043    1.3866 H   0  0  0  0  0  0  0  0  0  0  0  0
   -3.6807   -2.7523    0.1036 H   0  0  0  0  0  0  0  0  0  0  0  0
   -2.0477   -1.8543    1.1546 C   0  0  0  0  0  0  0  0  0  0  0  0
   -1.2227   -2.3443    1.9146 O   0  0  0  0  0  0  0  0  0  0  0  0
   -1.7517   -0.8483    0.3266 N   0  0  0  0  0  0  0  0  0  0  0  0
   -2.4847   -0.5123   -0.2804 H   0  0  0  0  0  0  0  0  0  0  0  0
   -0.4117   -0.2463    0.2186 C   0  0  1  0  0  0  0  0  0  0  0  0
    0.1554   -0.5152    1.1133 H   0  0  0  0  0  0  0  0  0  0  0  0
    0.3164   -0.8780   -0.9905 C   0  0  0  0  0  0  0  0  0  0  0  0
   -0.3634   -1.5819   -1.4774 H   0  0  0  0  0  0  0  0  0  0  0  0
    0.5418   -0.0950   -1.7177 H   0  0  0  0  0  0  0  0  0  0  0  0
    1.6062   -1.5988   -0.6603 C   0  0  0  0  0  0  0  0  0  0  0  0
    2.8517   -1.2780   -1.1645 N   0  3  0  0  0  0  0  0  0  0  0  0
    3.0258   -0.4694   -1.7682 H   0  0  0  0  0  0  0  0  0  0  0  0
    3.7538   -2.1364   -0.6486 C   0  0  0  0  0  0  0  0  0  0  0  0
    4.8226   -2.1240   -0.8523 H   0  0  0  0  0  0  0  0  0  0  0  0
    3.1074   -2.9957    0.1713 N   0  0  0  0  0  0  0  0  0  0  0  0
    3.5347   -3.7511    0.7009 H   0  0  0  0  0  0  0  0  0  0  0  0
    1.7577   -2.6722    0.1753 C   0  0  0  0  0  0  0  0  0  0  0  0
    0.9666   -3.1680    0.7311 H   0  0  0  0  0  0  0  0  0  0  0  0
   -0.4874    1.2908    0.1962 C   0  0  0  0  0  0  0  0  0  0  0  0
   -1.3116    1.8673   -0.5151 O   0  0  0  0  0  0  0  0  0  0  0  0
    0.3889    1.9422    0.9708 N   0  0  0  0  0  0  0  0  0  0  0  0
    1.0197    1.3866    1.5283 H   0  0  0  0  0  0  0  0  0  0  0  0
    0.5081    3.3999    1.0720 C   0  0  0  0  0  0  0  0  0  0  0  0
    0.0188    3.7538    1.9817 H   0  0  0  0  0  0  0  0  0  0  0  0
    1.5607    3.6858    1.1098 H   0  0  0  0  0  0  0  0  0  0  0  0
    0.0459    3.8890    0.2119 H   0  0  0  0  0  0  0  0  0  0  0  0
  5  6  2  0  0  0  0
  5  7  1  0  0  0  0
  2  3  1  0  0  0  0
  2  4  1  0  0  0  0
  2  5  1  0  0  0  0
  1  2  1  0  0  0  0
 23 24  2  0  0  0  0
 23 25  1  0  0  0  0
 21 22  1  0  0  0  0
 19 20  1  0  0  0  0
 19 21  1  0  0  0  0
 17 18  1  0  0  0  0
 17 19  1  0  0  0  0
 15 16  1  0  0  0  0
 15 17  2  0  0  0  0
 14 15  1  0  0  0  0
 14 21  2  0  0  0  0
 11 12  1  0  0  0  0
 11 13  1  0  0  0  0
 11 14  1  0  0  0  0
  9 10  1  0  0  0  0
  9 11  1  0  0  0  0
  9 23  1  0  0  0  0
  7  8  1  0  0  0  0
  7  9  1  0  0  0  0
 27 28  1  0  0  0  0
 27 29  1  0  0  0  0
 27 30  1  0  0  0  0
 25 26  1  0  0  0  0
 25 27  1  0  0  0  0
M  CHG  1  15   1
M  END
$$$$
default_name
  -OEChem-02102213163D

 30 30  0     1  0  0  0  0  0999 V2000
   -3.5507   -3.2183    1.8116 H   0  0  0  0  0  0  0  0  0  0  0  0
   -3.4597   -2.3913    1.1076 C   0  0  0  0  0  0  0  0  0  0  0  0
   -4.1577   -1.6043    1.3866 H   0  0  0  0  0  0  0  0  0  0  0  0
   -3.6807   -2.7523    0.1036 H   0  0  0  0  0  0  0  0  0  0  0  0
   -2.0477   -1.8543    1.1546 C   0  0  0  0  0  0  0  0  0  0  0  0
   -1.2227   -2.3443    1.9146 O   0  0  0  0  0  0  0  0  0  0  0  0
   -1.7517   -0.8483    0.3266 N   0  0  0  0  0  0  0  0  0  0  0  0
   -2.4847   -0.5123   -0.2804 H   0  0  0  0  0  0  0  0  0  0  0  0
   -0.4117   -0.2463    0.2186 C   0  0  1  0  0  0  0  0  0  0  0  0
    0.1554   -0.5152    1.1133 H   0  0  0  0  0  0  0  0  0  0  0  0
    0.3164   -0.8780   -0.9905 C   0  0  0  0  0  0  0  0  0  0  0  0
   -0.3634   -1.5819   -1.4774 H   0  0  0  0  0  0  0  0  0  0  0  0
    0.5418   -0.0950   -1.7177 H   0  0  0  0  0  0  0  0  0  0  0  0
    1.6062   -1.5988   -0.6603 C   0  0  0  0  0  0  0  0  0  0  0  0
    2.8765   -1.1204   -0.9172 N   0  3  0  0  0  0  0  0  0  0  0  0
    3.0627   -0.1904   -1.3033 H   0  0  0  0  0  0  0  0  0  0  0  0
    3.7701   -2.0333   -0.4873 C   0  0  0  0  0  0  0  0  0  0  0  0
    4.8519   -1.9300   -0.5433 H   0  0  0  0  0  0  0  0  0  0  0  0
    3.0944   -3.0812    0.0358 N   0  0  0  0  0  0  0  0  0  0  0  0
    3.5088   -3.9171    0.4396 H   0  0  0  0  0  0  0  0  0  0  0  0
    1.7340   -2.8247   -0.0651 C   0  0  0  0  0  0  0  0  0  0  0  0
    0.9202   -3.4657    0.2626 H   0  0  0  0  0  0  0  0  0  0  0  0
   -0.4874    1.2908    0.1962 C   0  0  0  0  0  0  0  0  0  0  0  0
   -1.3116    1.8673   -0.5151 O   0  0  0  0  0  0  0  0  0  0  0  0
    0.3889    1.9422    0.9708 N   0  0  0  0  0  0  0  0  0  0  0  0
    1.0197    1.3866    1.5283 H   0  0  0  0  0  0  0  0  0  0  0  0
    0.5081    3.3999    1.0720 C   0  0  0  0  0  0  0  0  0  0  0  0
    0.0188    3.7538    1.9817 H   0  0  0  0  0  0  0  0  0  0  0  0
    1.5607    3.6858    1.1098 H   0  0  0  0  0  0  0  0  0  0  0  0
    0.0459    3.8890    0.2119 H   0  0  0  0  0  0  0  0  0  0  0  0
  5  6  2  0  0  0  0
  5  7  1  0  0  0  0
  2  3  1  0  0  0  0
  2  4  1  0  0  0  0
  2  5  1  0  0  0  0
  1  2  1  0  0  0  0
 23 24  2  0  0  0  0
 23 25  1  0  0  0  0
 21 22  1  0  0  0  0
 19 20  1  0  0  0  0
 19 21  1  0  0  0  0
 17 18  1  0  0  0  0
 17 19  1  0  0  0  0
 15 16  1  0  0  0  0
 15 17  2  0  0  0  0
 14 15  1  0  0  0  0
 14 21  2  0  0  0  0
 11 12  1  0  0  0  0
 11 13  1  0  0  0  0
 11 14  1  0  0  0  0
  9 10  1  0  0  0  0
  9 11  1  0  0  0  0
  9 23  1  0  0  0  0
  7  8  1  0  0  0  0
  7  9  1  0  0  0  0
 27 28  1  0  0  0  0
 27 29  1  0  0  0  0
 27 30  1  0  0  0  0
 25 26  1  0  0  0  0
 25 27  1  0  0  0  0
M  CHG  1  15   1
M  END
$$$$
default_name
  -OEChem-02102213163D

 30 30  0     1  0  0  0  0  0999 V2000
   -3.5507   -3.2183    1.8116 H   0  0  0  0  0  0  0  0  0  0  0  0
   -3.4597   -2.3913    1.1076 C   0  0  0  0  0  0  0  0  0  0  0  0
   -4.1577   -1.6043    1.3866 H   0  0  0  0  0  0  0  0  0  0  0  0
   -3.6807   -2.7523    0.1036 H   0  0  0  0  0  0  0  0  0  0  0  0
   -2.0477   -1.8543    1.1546 C   0  0  0  0  0  0  0  0  0  0  0  0
   -1.2227   -2.3443    1.9146 O   0  0  0  0  0  0  0  0  0  0  0  0
   -1.7517   -0.8483    0.3266 N   0  0  0  0  0  0  0  0  0  0  0  0
   -2.4847   -0.5123   -0.2804 H   0  0  0  0  0  0  0  0  0  0  0  0
   -0.4117   -0.2463    0.2186 C   0  0  1  0  0  0  0  0  0  0  0  0
    0.1554   -0.5152    1.1133 H   0  0  0  0  0  0  0  0  0  0  0  0
    0.3164   -0.8780   -0.9905 C   0  0  0  0  0  0  0  0  0  0  0  0
   -0.3634   -1.5819   -1.4774 H   0  0  0  0  0  0  0  0  0  0  0  0
    0.5418   -0.0950   -1.7177 H   0  0  0  0  0  0  0  0  0  0  0  0
    1.6062   -1.5988   -0.6603 C   0  0  0  0  0  0  0  0  0  0  0  0
    2.8610   -1.0214   -0.6405 N   0  3  0  0  0  0  0  0  0  0  0  0
    3.0252   -0.0214   -0.7882 H   0  0  0  0  0  0  0  0  0  0  0  0
    3.7602   -1.9684   -0.3069 C   0  0  0  0  0  0  0  0  0  0  0  0
    4.8312   -1.8092   -0.1985 H   0  0  0  0  0  0  0  0  0  0  0  0
    3.1032   -3.1347   -0.1156 N   0  0  0  0  0  0  0  0  0  0  0  0
    3.5253   -4.0213    0.1474 H   0  0  0  0  0  0  0  0  0  0  0  0
    1.7494   -2.9203   -0.3338 C   0  0  0  0  0  0  0  0  0  0  0  0
    0.9499   -3.6525   -0.2613 H   0  0  0  0  0  0  0  0  0  0  0  0
   -0.4874    1.2908    0.1962 C   0  0  0  0  0  0  0  0  0  0  0  0
   -1.3116    1.8673   -0.5151 O   0  0  0  0  0  0  0  0  0  0  0  0
    0.3889    1.9422    0.9708 N   0  0  0  0  0  0  0  0  0  0  0  0
    1.0197    1.3866    1.5283 H   0  0  0  0  0  0  0  0  0  0  0  0
    0.5081    3.3999    1.0720 C   0  0  0  0  0  0  0  0  0  0  0  0
    0.0188    3.7538    1.9817 H   0  0  0  0  0  0  0  0  0  0  0  0
    1.5607    3.6858    1.1098 H   0  0  0  0  0  0  0  0  0  0  0  0
    0.0459    3.8890    0.2119 H   0  0  0  0  0  0  0  0  0  0  0  0
  5  6  2  0  0  0  0
  5  7  1  0  0  0  0
  2  3  1  0  0  0  0
  2  4  1  0  0  0  0
  2  5  1  0  0  0  0
  1  2  1  0  0  0  0
 23 24  2  0  0  0  0
 23 25  1  0  0  0  0
 21 22  1  0  0  0  0
 19 20  1  0  0  0  0
 19 21  1  0  0  0  0
 17 18  1  0  0  0  0
 17 19  1  0  0  0  0
 15 16  1  0  0  0  0
 15 17  2  0  0  0  0
 14 15  1  0  0  0  0
 14 21  2  0  0  0  0
 11 12  1  0  0  0  0
 11 13  1  0  0  0  0
 11 14  1  0  0  0  0
  9 10  1  0  0  0  0
  9 11  1  0  0  0  0
  9 23  1  0  0  0  0
  7  8  1  0  0  0  0
  7  9  1  0  0  0  0
 27 28  1  0  0  0  0
 27 29  1  0  0  0  0
 27 30  1  0  0  0  0
 25 26  1  0  0  0  0
 25 27  1  0  0  0  0
M  CHG  1  15   1
M  END
$$$$
default_name
  -OEChem-02102213163D

 30 30  0     1  0  0  0  0  0999 V2000
   -3.5507   -3.2183    1.8116 H   0  0  0  0  0  0  0  0  0  0  0  0
   -3.4597   -2.3913    1.1076 C   0  0  0  0  0  0  0  0  0  0  0  0
   -4.1577   -1.6043    1.3866 H   0  0  0  0  0  0  0  0  0  0  0  0
   -3.6807   -2.7523    0.1036 H   0  0  0  0  0  0  0  0  0  0  0  0
   -2.0477   -1.8543    1.1546 C   0  0  0  0  0  0  0  0  0  0  0  0
   -1.2227   -2.3443    1.9146 O   0  0  0  0  0  0  0  0  0  0  0  0
   -1.7517   -0.8483    0.3266 N   0  0  0  0  0  0  0  0  0  0  0  0
   -2.4847   -0.5123   -0.2804 H   0  0  0  0  0  0  0  0  0  0  0  0
   -0.4117   -0.2463    0.2186 C   0  0  1  0  0  0  0  0  0  0  0  0
    0.1554   -0.5152    1.1133 H   0  0  0  0  0  0  0  0  0  0  0  0
    0.3164   -0.8780   -0.9905 C   0  0  0  0  0  0  0  0  0  0  0  0
   -0.3634   -1.5819   -1.4774 H   0  0  0  0  0  0  0  0  0  0  0  0
    0.5418   -0.0950   -1.7177 H   0  0  0  0  0  0  0  0  0  0  0  0
    1.6062   -1.5988   -0.6603 C   0  0  0  0  0  0  0  0  0  0  0  0
    2.8064   -0.9875   -0.3533 N   0  3  0  0  0  0  0  0  0  0  0  0
    2.9161    0.0262   -0.2580 H   0  0  0  0  0  0  0  0  0  0  0  0
    3.7247   -1.9460   -0.1195 C   0  0  0  0  0  0  0  0  0  0  0  0
    4.7618   -1.7696    0.1587 H   0  0  0  0  0  0  0  0  0  0  0  0
    3.1335   -3.1524   -0.2726 N   0  0  0  0  0  0  0  0  0  0  0  0
    3.5832   -4.0567   -0.1558 H   0  0  0  0  0  0  0  0  0  0  0  0
    1.8027   -2.9525   -0.6125 C   0  0  0  0  0  0  0  0  0  0  0  0
    1.0537   -3.7158   -0.8048 H   0  0  0  0  0  0  0  0  0  0  0  0
   -0.4874    1.2908    0.1962 C   0  0  0  0  0  0  0  0  0  0  0  0
   -1.3116    1.8673   -0.5151 O   0  0  0  0  0  0  0  0  0  0  0  0
    0.3889    1.9422    0.9708 N   0  0  0  0  0  0  0  0  0  0  0  0
    1.0197    1.3866    1.5283 H   0  0  0  0  0  0  0  0  0  0  0  0
    0.5081    3.3999    1.0720 C   0  0  0  0  0  0  0  0  0  0  0  0
    0.0188    3.7538    1.9817 H   0  0  0  0  0  0  0  0  0  0  0  0
    1.5607    3.6858    1.1098 H   0  0  0  0  0  0  0  0  0  0  0  0
    0.0459    3.8890    0.2119 H   0  0  0  0  0  0  0  0  0  0  0  0
  5  6  2  0  0  0  0
  5  7  1  0  0  0  0
  2  3  1  0  0  0  0
  2  4  1  0  0  0  0
  2  5  1  0  0  0  0
  1  2  1  0  0  0  0
 23 24  2  0  0  0  0
 23 25  1  0  0  0  0
 21 22  1  0  0  0  0
 19 20  1  0  0  0  0
 19 21  1  0  0  0  0
 17 18  1  0  0  0  0
 17 19  1  0  0  0  0
 15 16  1  0  0  0  0
 15 17  2  0  0  0  0
 14 15  1  0  0  0  0
 14 21  2  0  0  0  0
 11 12  1  0  0  0  0
 11 13  1  0  0  0  0
 11 14  1  0  0  0  0
  9 10  1  0  0  0  0
  9 11  1  0  0  0  0
  9 23  1  0  0  0  0
  7  8  1  0  0  0  0
  7  9  1  0  0  0  0
 27 28  1  0  0  0  0
 27 29  1  0  0  0  0
 27 30  1  0  0  0  0
 25 26  1  0  0  0  0
 25 27  1  0  0  0  0
M  CHG  1  15   1
M  END
$$$$
default_name
  -OEChem-02102213163D

 30 30  0     1  0  0  0  0  0999 V2000
   -3.5507   -3.2183    1.8116 H   0  0  0  0  0  0  0  0  0  0  0  0
   -3.4597   -2.3913    1.1076 C   0  0  0  0  0  0  0  0  0  0  0  0
   -4.1577   -1.6043    1.3866 H   0  0  0  0  0  0  0  0  0  0  0  0
   -3.6807   -2.7523    0.1036 H   0  0  0  0  0  0  0  0  0  0  0  0
   -2.0477   -1.8543    1.1546 C   0  0  0  0  0  0  0  0  0  0  0  0
   -1.2227   -2.3443    1.9146 O   0  0  0  0  0  0  0  0  0  0  0  0
   -1.7517   -0.8483    0.3266 N   0  0  0  0  0  0  0  0  0  0  0  0
   -2.4847   -0.5123   -0.2804 H   0  0  0  0  0  0  0  0  0  0  0  0
   -0.4117   -0.2463    0.2186 C   0  0  1  0  0  0  0  0  0  0  0  0
    0.1554   -0.5152    1.1133 H   0  0  0  0  0  0  0  0  0  0  0  0
    0.3164   -0.8780   -0.9905 C   0  0  0  0  0  0  0  0  0  0  0  0
   -0.3634   -1.5819   -1.4774 H   0  0  0  0  0  0  0  0  0  0  0  0
    0.5418   -0.0950   -1.7177 H   0  0  0  0  0  0  0  0  0  0  0  0
    1.6062   -1.5988   -0.6603 C   0  0  0  0  0  0  0  0  0  0  0  0
    2.7163   -1.0213   -0.0751 N   0  3  0  0  0  0  0  0  0  0  0  0
    2.7426   -0.0509    0.2512 H   0  0  0  0  0  0  0  0  0  0  0  0
    3.6661   -1.9677    0.0621 C   0  0  0  0  0  0  0  0  0  0  0  0
    4.6486   -1.8141    0.5039 H   0  0  0  0  0  0  0  0  0  0  0  0
    3.1831   -3.1332   -0.4244 N   0  0  0  0  0  0  0  0  0  0  0  0
    3.6784   -4.0207   -0.4493 H   0  0  0  0  0  0  0  0  0  0  0  0
    1.8904   -2.9192   -0.8823 C   0  0  0  0  0  0  0  0  0  0  0  0
    1.2245   -3.6512   -1.3310 H   0  0  0  0  0  0  0  0  0  0  0  0
   -0.4874    1.2908    0.1962 C   0  0  0  0  0  0  0  0  0  0  0  0
   -1.3116    1.8673   -0.5151 O   0  0  0  0  0  0  0  0  0  0  0  0
    0.3889    1.9422    0.9708 N   0  0  0  0  0  0  0  0  0  0  0  0
    1.0197    1.3866    1.5283 H   0  0  0  0  0  0  0  0  0  0  0  0
    0.5081    3.3999    1.0720 C   0  0  0  0  0  0  0  0  0  0  0  0
    0.0188    3.7538    1.9817 H   0  0  0  0  0  0  0  0  0  0  0  0
    1.5607    3.6858    1.1098 H   0  0  0  0  0  0  0  0  0  0  0  0
    0.0459    3.8890    0.2119 H   0  0  0  0  0  0  0  0  0  0  0  0
  5  6  2  0  0  0  0
  5  7  1  0  0  0  0
  2  3  1  0  0  0  0
  2  4  1  0  0  0  0
  2  5  1  0  0  0  0
  1  2  1  0  0  0  0
 23 24  2  0  0  0  0
 23 25  1  0  0  0  0
 21 22  1  0  0  0  0
 19 20  1  0  0  0  0
 19 21  1  0  0  0  0
 17 18  1  0  0  0  0
 17 19  1  0  0  0  0
 15 16  1  0  0  0  0
 15 17  2  0  0  0  0
 14 15  1  0  0  0  0
 14 21  2  0  0  0  0
 11 12  1  0  0  0  0
 11 13  1  0  0  0  0
 11 14  1  0  0  0  0
  9 10  1  0  0  0  0
  9 11  1  0  0  0  0
  9 23  1  0  0  0  0
  7  8  1  0  0  0  0
  7  9  1  0  0  0  0
 27 28  1  0  0  0  0
 27 29  1  0  0  0  0
 27 30  1  0  0  0  0
 25 26  1  0  0  0  0
 25 27  1  0  0  0  0
M  CHG  1  15   1
M  END
$$$$
default_name
  -OEChem-02102213163D

 30 30  0     1  0  0  0  0  0999 V2000
   -3.5507   -3.2183    1.8116 H   0  0  0  0  0  0  0  0  0  0  0  0
   -3.4597   -2.3913    1.1076 C   0  0  0  0  0  0  0  0  0  0  0  0
   -4.1577   -1.6043    1.3866 H   0  0  0  0  0  0  0  0  0  0  0  0
   -3.6807   -2.7523    0.1036 H   0  0  0  0  0  0  0  0  0  0  0  0
   -2.0477   -1.8543    1.1546 C   0  0  0  0  0  0  0  0  0  0  0  0
   -1.2227   -2.3443    1.9146 O   0  0  0  0  0  0  0  0  0  0  0  0
   -1.7517   -0.8483    0.3266 N   0  0  0  0  0  0  0  0  0  0  0  0
   -2.4847   -0.5123   -0.2804 H   0  0  0  0  0  0  0  0  0  0  0  0
   -0.4117   -0.2463    0.2186 C   0  0  1  0  0  0  0  0  0  0  0  0
    0.1554   -0.5152    1.1133 H   0  0  0  0  0  0  0  0  0  0  0  0
    0.3164   -0.8780   -0.9905 C   0  0  0  0  0  0  0  0  0  0  0  0
   -0.3634   -1.5819   -1.4774 H   0  0  0  0  0  0  0  0  0  0  0  0
    0.5418   -0.0950   -1.7177 H   0  0  0  0  0  0  0  0  0  0  0  0
    1.6062   -1.5988   -0.6603 C   0  0  0  0  0  0  0  0  0  0  0  0
    2.5970   -1.1203    0.1750 N   0  3  0  0  0  0  0  0  0  0  0  0
    2.5167   -0.2475    0.7047 H   0  0  0  0  0  0  0  0  0  0  0  0
    3.5883   -2.0320    0.2255 C   0  0  0  0  0  0  0  0  0  0  0  0
    4.4992   -1.9395    0.8135 H   0  0  0  0  0  0  0  0  0  0  0  0
    3.2486   -3.0785   -0.5606 N   0  0  0  0  0  0  0  0  0  0  0  0
    3.8046   -3.9158   -0.7131 H   0  0  0  0  0  0  0  0  0  0  0  0
    2.0065   -2.8226   -1.1248 C   0  0  0  0  0  0  0  0  0  0  0  0
    1.4507   -3.4631   -1.8039 H   0  0  0  0  0  0  0  0  0  0  0  0
   -0.4874    1.2908    0.1962 C   0  0  0  0  0  0  0  0  0  0  0  0
   -1.3116    1.8673   -0.5151 O   0  0  0  0  0  0  0  0  0  0  0  0
    0.3889    1.9422    0.9708 N   0  0  0  0  0  0  0  0  0  0  0  0
    1.0197    1.3866    1.5283 H   0  0  0  0  0  0  0  0  0  0  0  0
    0.5081    3.3999    1.0720 C   0  0  0  0  0  0  0  0  0  0  0  0
    0.0188    3.7538    1.9817 H   0  0  0  0  0  0  0  0  0  0  0  0
    1.5607    3.6858    1.1098 H   0  0  0  0  0  0  0  0  0  0  0  0
    0.0459    3.8890    0.2119 H   0  0  0  0  0  0  0  0  0  0  0  0
  5  6  2  0  0  0  0
  5  7  1  0  0  0  0
  2  3  1  0  0  0  0
  2  4  1  0  0  0  0
  2  5  1  0  0  0  0
  1  2  1  0  0  0  0
 23 24  2  0  0  0  0
 23 25  1  0  0  0  0
 21 22  1  0  0  0  0
 19 20  1  0  0  0  0
 19 21  1  0  0  0  0
 17 18  1  0  0  0  0
 17 19  1  0  0  0  0
 15 16  1  0  0  0  0
 15 17  2  0  0  0  0
 14 15  1  0  0  0  0
 14 21  2  0  0  0  0
 11 12  1  0  0  0  0
 11 13  1  0  0  0  0
 11 14  1  0  0  0  0
  9 10  1  0  0  0  0
  9 11  1  0  0  0  0
  9 23  1  0  0  0  0
  7  8  1  0  0  0  0
  7  9  1  0  0  0  0
 27 28  1  0  0  0  0
 27 29  1  0  0  0  0
 27 30  1  0  0  0  0
 25 26  1  0  0  0  0
 25 27  1  0  0  0  0
M  CHG  1  15   1
M  END
$$$$
default_name
  -OEChem-02102213163D

 30 30  0     1  0  0  0  0  0999 V2000
   -3.5507   -3.2183    1.8116 H   0  0  0  0  0  0  0  0  0  0  0  0
   -3.4597   -2.3913    1.1076 C   0  0  0  0  0  0  0  0  0  0  0  0
   -4.1577   -1.6043    1.3866 H   0  0  0  0  0  0  0  0  0  0  0  0
   -3.6807   -2.7523    0.1036 H   0  0  0  0  0  0  0  0  0  0  0  0
   -2.0477   -1.8543    1.1546 C   0  0  0  0  0  0  0  0  0  0  0  0
   -1.2227   -2.3443    1.9146 O   0  0  0  0  0  0  0  0  0  0  0  0
   -1.7517   -0.8483    0.3266 N   0  0  0  0  0  0  0  0  0  0  0  0
   -2.4847   -0.5123   -0.2804 H   0  0  0  0  0  0  0  0  0  0  0  0
   -0.4117   -0.2463    0.2186 C   0  0  1  0  0  0  0  0  0  0  0  0
    0.1554   -0.5152    1.1133 H   0  0  0  0  0  0  0  0  0  0  0  0
    0.3164   -0.8780   -0.9905 C   0  0  0  0  0  0  0  0  0  0  0  0
   -0.3634   -1.5819   -1.4774 H   0  0  0  0  0  0  0  0  0  0  0  0
    0.5418   -0.0950   -1.7177 H   0  0  0  0  0  0  0  0  0  0  0  0
    1.6062   -1.5988   -0.6603 C   0  0  0  0  0  0  0  0  0  0  0  0
    2.4565   -1.2778    0.3801 N   0  3  0  0  0  0  0  0  0  0  0  0
    2.2537   -0.5501    1.0715 H   0  0  0  0  0  0  0  0  0  0  0  0
    3.4967   -2.1346    0.3595 C   0  0  0  0  0  0  0  0  0  0  0  0
    4.3238   -2.1374    1.0666 H   0  0  0  0  0  0  0  0  0  0  0  0
    3.3256   -2.9918   -0.6721 N   0  0  0  0  0  0  0  0  0  0  0  0
    3.9530   -3.7492   -0.9292 H   0  0  0  0  0  0  0  0  0  0  0  0
    2.1430   -2.6692   -1.3233 C   0  0  0  0  0  0  0  0  0  0  0  0
    1.7168   -3.1644   -2.1914 H   0  0  0  0  0  0  0  0  0  0  0  0
   -0.4874    1.2908    0.1962 C   0  0  0  0  0  0  0  0  0  0  0  0
   -1.3116    1.8673   -0.5151 O   0  0  0  0  0  0  0  0  0  0  0  0
    0.3889    1.9422    0.9708 N   0  0  0  0  0  0  0  0  0  0  0  0
    1.0197    1.3866    1.5283 H   0  0  0  0  0  0  0  0  0  0  0  0
    0.5081    3.3999    1.0720 C   0  0  0  0  0  0  0  0  0  0  0  0
    0.0188    3.7538    1.9817 H   0  0  0  0  0  0  0  0  0  0  0  0
    1.5607    3.6858    1.1098 H   0  0  0  0  0  0  0  0  0  0  0  0
    0.0459    3.8890    0.2119 H   0  0  0  0  0  0  0  0  0  0  0  0
  5  6  2  0  0  0  0
  5  7  1  0  0  0  0
  2  3  1  0  0  0  0
  2  4  1  0  0  0  0
  2  5  1  0  0  0  0
  1  2  1  0  0  0  0
 23 24  2  0  0  0  0
 23 25  1  0  0  0  0
 21 22  1  0  0  0  0
 19 20  1  0  0  0  0
 19 21  1  0  0  0  0
 17 18  1  0  0  0  0
 17 19  1  0  0  0  0
 15 16  1  0  0  0  0
 15 17  2  0  0  0  0
 14 15  1  0  0  0  0
 14 21  2  0  0  0  0
 11 12  1  0  0  0  0
 11 13  1  0  0  0  0
 11 14  1  0  0  0  0
  9 10  1  0  0  0  0
  9 11  1  0  0  0  0
  9 23  1  0  0  0  0
  7  8  1  0  0  0  0
  7  9  1  0  0  0  0
 27 28  1  0  0  0  0
 27 29  1  0  0  0  0
 27 30  1  0  0  0  0
 25 26  1  0  0  0  0
 25 27  1  0  0  0  0
M  CHG  1  15   1
M  END
$$$$
default_name
  -OEChem-02102213163D

 30 30  0     1  0  0  0  0  0999 V2000
   -3.5507   -3.2183    1.8116 H   0  0  0  0  0  0  0  0  0  0  0  0
   -3.4597   -2.3913    1.1076 C   0  0  0  0  0  0  0  0  0  0  0  0
   -4.1577   -1.6043    1.3866 H   0  0  0  0  0  0  0  0  0  0  0  0
   -3.6807   -2.7523    0.1036 H   0  0  0  0  0  0  0  0  0  0  0  0
   -2.0477   -1.8543    1.1546 C   0  0  0  0  0  0  0  0  0  0  0  0
   -1.2227   -2.3443    1.9146 O   0  0  0  0  0  0  0  0  0  0  0  0
   -1.7517   -0.8483    0.3266 N   0  0  0  0  0  0  0  0  0  0  0  0
   -2.4847   -0.5123   -0.2804 H   0  0  0  0  0  0  0  0  0  0  0  0
   -0.4117   -0.2463    0.2186 C   0  0  1  0  0  0  0  0  0  0  0  0
    0.1554   -0.5152    1.1133 H   0  0  0  0  0  0  0  0  0  0  0  0
    0.3164   -0.8780   -0.9905 C   0  0  0  0  0  0  0  0  0  0  0  0
   -0.3634   -1.5819   -1.4774 H   0  0  0  0  0  0  0  0  0  0  0  0
    0.5418   -0.0950   -1.7177 H   0  0  0  0  0  0  0  0  0  0  0  0
    1.6062   -1.5988   -0.6603 C   0  0  0  0  0  0  0  0  0  0  0  0
    2.3043   -1.4831    0.5261 N   0  3  0  0  0  0  0  0  0  0  0  0
    1.9715   -0.9381    1.3267 H   0  0  0  0  0  0  0  0  0  0  0  0
    3.3975   -2.2684    0.4551 C   0  0  0  0  0  0  0  0  0  0  0  0
    4.1344   -2.3943    1.2458 H   0  0  0  0  0  0  0  0  0  0  0  0
    3.4087   -2.8792   -0.7512 N   0  0  0  0  0  0  0  0  0  0  0  0
    4.1136   -3.5323   -1.0830 H   0  0  0  0  0  0  0  0  0  0  0  0
    2.2907   -2.4696   -1.4645 C   0  0  0  0  0  0  0  0  0  0  0  0
    2.0047   -2.7754   -2.4671 H   0  0  0  0  0  0  0  0  0  0  0  0
   -0.4874    1.2908    0.1962 C   0  0  0  0  0  0  0  0  0  0  0  0
   -1.3116    1.8673   -0.5151 O   0  0  0  0  0  0  0  0  0  0  0  0
    0.3889    1.9422    0.9708 N   0  0  0  0  0  0  0  0  0  0  0  0
    1.0197    1.3866    1.5283 H   0  0  0  0  0  0  0  0  0  0  0  0
    0.5081    3.3999    1.0720 C   0  0  0  0  0  0  0  0  0  0  0  0
    0.0188    3.7538    1.9817 H   0  0  0  0  0  0  0  0  0  0  0  0
    1.5607    3.6858    1.1098 H   0  0  0  0  0  0  0  0  0  0  0  0
    0.0459    3.8890    0.2119 H   0  0  0  0  0  0  0  0  0  0  0  0
  5  6  2  0  0  0  0
  5  7  1  0  0  0  0
  2  3  1  0  0  0  0
  2  4  1  0  0  0  0
  2  5  1  0  0  0  0
  1  2  1  0  0  0  0
 23 24  2  0  0  0  0
 23 25  1  0  0  0  0
 21 22  1  0  0  0  0
 19 20  1  0  0  0  0
 19 21  1  0  0  0  0
 17 18  1  0  0  0  0
 17 19  1  0  0  0  0
 15 16  1  0  0  0  0
 15 17  2  0  0  0  0
 14 15  1  0  0  0  0
 14 21  2  0  0  0  0
 11 12  1  0  0  0  0
 11 13  1  0  0  0  0
 11 14  1  0  0  0  0
  9 10  1  0  0  0  0
  9 11  1  0  0  0  0
  9 23  1  0  0  0  0
  7  8  1  0  0  0  0
  7  9  1  0  0  0  0
 27 28  1  0  0  0  0
 27 29  1  0  0  0  0
 27 30  1  0  0  0  0
 25 26  1  0  0  0  0
 25 27  1  0  0  0  0
M  CHG  1  15   1
M  END
$$$$
default_name
  -OEChem-02102213163D

 30 30  0     1  0  0  0  0  0999 V2000
   -3.5507   -3.2183    1.8116 H   0  0  0  0  0  0  0  0  0  0  0  0
   -3.4597   -2.3913    1.1076 C   0  0  0  0  0  0  0  0  0  0  0  0
   -4.1577   -1.6043    1.3866 H   0  0  0  0  0  0  0  0  0  0  0  0
   -3.6807   -2.7523    0.1036 H   0  0  0  0  0  0  0  0  0  0  0  0
   -2.0477   -1.8543    1.1546 C   0  0  0  0  0  0  0  0  0  0  0  0
   -1.2227   -2.3443    1.9146 O   0  0  0  0  0  0  0  0  0  0  0  0
   -1.7517   -0.8483    0.3266 N   0  0  0  0  0  0  0  0  0  0  0  0
   -2.4847   -0.5123   -0.2804 H   0  0  0  0  0  0  0  0  0  0  0  0
   -0.4117   -0.2463    0.2186 C   0  0  1  0  0  0  0  0  0  0  0  0
    0.1554   -0.5152    1.1133 H   0  0  0  0  0  0  0  0  0  0  0  0
    0.3164   -0.8780   -0.9905 C   0  0  0  0  0  0  0  0  0  0  0  0
   -0.3634   -1.5819   -1.4774 H   0  0  0  0  0  0  0  0  0  0  0  0
    0.5418   -0.0950   -1.7177 H   0  0  0  0  0  0  0  0  0  0  0  0
    1.6062   -1.5988   -0.6603 C   0  0  0  0  0  0  0  0  0  0  0  0
    2.1510   -1.7222    0.6032 N   0  3  0  0  0  0  0  0  0  0  0  0
    1.6894   -1.3851    1.4529 H   0  0  0  0  0  0  0  0  0  0  0  0
    3.2974   -2.4243    0.5057 C   0  0  0  0  0  0  0  0  0  0  0  0
    3.9439   -2.6926    1.3389 H   0  0  0  0  0  0  0  0  0  0  0  0
    3.4925   -2.7482   -0.7925 N   0  0  0  0  0  0  0  0  0  0  0  0
    4.2755   -3.2797   -1.1639 H   0  0  0  0  0  0  0  0  0  0  0  0
    2.4395   -2.2373   -1.5386 C   0  0  0  0  0  0  0  0  0  0  0  0
    2.2949   -2.3227   -2.6121 H   0  0  0  0  0  0  0  0  0  0  0  0
   -0.4874    1.2908    0.1962 C   0  0  0  0  0  0  0  0  0  0  0  0
   -1.3116    1.8673   -0.5151 O   0  0  0  0  0  0  0  0  0  0  0  0
    0.3889    1.9422    0.9708 N   0  0  0  0  0  0  0  0  0  0  0  0
    1.0197    1.3866    1.5283 H   0  0  0  0  0  0  0  0  0  0  0  0
    0.5081    3.3999    1.0720 C   0  0  0  0  0  0  0  0  0  0  0  0
    0.0188    3.7538    1.9817 H   0  0  0  0  0  0  0  0  0  0  0  0
    1.5607    3.6858    1.1098 H   0  0  0  0  0  0  0  0  0  0  0  0
    0.0459    3.8890    0.2119 H   0  0  0  0  0  0  0  0  0  0  0  0
  5  6  2  0  0  0  0
  5  7  1  0  0  0  0
  2  3  1  0  0  0  0
  2  4  1  0  0  0  0
  2  5  1  0  0  0  0
  1  2  1  0  0  0  0
 23 24  2  0  0  0  0
 23 25  1  0  0  0  0
 21 22  1  0  0  0  0
 19 20  1  0  0  0  0
 19 21  1  0  0  0  0
 17 18  1  0  0  0  0
 17 19  1  0  0  0  0
 15 16  1  0  0  0  0
 15 17  2  0  0  0  0
 14 15  1  0  0  0  0
 14 21  2  0  0  0  0
 11 12  1  0  0  0  0
 11 13  1  0  0  0  0
 11 14  1  0  0  0  0
  9 10  1  0  0  0  0
  9 11  1  0  0  0  0
  9 23  1  0  0  0  0
  7  8  1  0  0  0  0
  7  9  1  0  0  0  0
 27 28  1  0  0  0  0
 27 29  1  0  0  0  0
 27 30  1  0  0  0  0
 25 26  1  0  0  0  0
 25 27  1  0  0  0  0
M  CHG  1  15   1
M  END
$$$$
default_name
  -OEChem-02102213163D

 30 30  0     1  0  0  0  0  0999 V2000
   -3.5507   -3.2183    1.8116 H   0  0  0  0  0  0  0  0  0  0  0  0
   -3.4597   -2.3913    1.1076 C   0  0  0  0  0  0  0  0  0  0  0  0
   -4.1577   -1.6043    1.3866 H   0  0  0  0  0  0  0  0  0  0  0  0
   -3.6807   -2.7523    0.1036 H   0  0  0  0  0  0  0  0  0  0  0  0
   -2.0477   -1.8543    1.1546 C   0  0  0  0  0  0  0  0  0  0  0  0
   -1.2227   -2.3443    1.9146 O   0  0  0  0  0  0  0  0  0  0  0  0
   -1.7517   -0.8483    0.3266 N   0  0  0  0  0  0  0  0  0  0  0  0
   -2.4847   -0.5123   -0.2804 H   0  0  0  0  0  0  0  0  0  0  0  0
   -0.4117   -0.2463    0.2186 C   0  0  1  0  0  0  0  0  0  0  0  0
    0.1554   -0.5152    1.1133 H   0  0  0  0  0  0  0  0  0  0  0  0
    0.3164   -0.8780   -0.9905 C   0  0  0  0  0  0  0  0  0  0  0  0
   -0.3634   -1.5819   -1.4774 H   0  0  0  0  0  0  0  0  0  0  0  0
    0.5418   -0.0950   -1.7177 H   0  0  0  0  0  0  0  0  0  0  0  0
    1.6062   -1.5988   -0.6603 C   0  0  0  0  0  0  0  0  0  0  0  0
    2.0069   -1.9787    0.6060 N   0  3  0  0  0  0  0  0  0  0  0  0
    1.4266   -1.8606    1.4414 H   0  0  0  0  0  0  0  0  0  0  0  0
    3.2033   -2.5917    0.5079 C   0  0  0  0  0  0  0  0  0  0  0  0
    3.7652   -3.0120    1.3395 H   0  0  0  0  0  0  0  0  0  0  0  0
    3.5711   -2.6079   -0.7932 N   0  0  0  0  0  0  0  0  0  0  0  0
    4.4275   -3.0088   -1.1664 H   0  0  0  0  0  0  0  0  0  0  0  0
    2.5793   -1.9882   -1.5407 C   0  0  0  0  0  0  0  0  0  0  0  0
    2.5675   -1.8370   -2.6166 H   0  0  0  0  0  0  0  0  0  0  0  0
   -0.4874    1.2908    0.1962 C   0  0  0  0  0  0  0  0  0  0  0  0
   -1.3116    1.8673   -0.5151 O   0  0  0  0  0  0  0  0  0  0  0  0
    0.3889    1.9422    0.9708 N   0  0  0  0  0  0  0  0  0  0  0  0
    1.0197    1.3866    1.5283 H   0  0  0  0  0  0  0  0  0  0  0  0
    0.5081    3.3999    1.0720 C   0  0  0  0  0  0  0  0  0  0  0  0
    0.0188    3.7538    1.9817 H   0  0  0  0  0  0  0  0  0  0  0  0
    1.5607    3.6858    1.1098 H   0  0  0  0  0  0  0  0  0  0  0  0
    0.0459    3.8890    0.2119 H   0  0  0  0  0  0  0  0  0  0  0  0
  5  6  2  0  0  0  0
  5  7  1  0  0  0  0
  2  3  1  0  0  0  0
  2  4  1  0  0  0  0
  2  5  1  0  0  0  0
  1  2  1  0  0  0  0
 23 24  2  0  0  0  0
 23 25  1  0  0  0  0
 21 22  1  0  0  0  0
 19 20  1  0  0  0  0
 19 21  1  0  0  0  0
 17 18  1  0  0  0  0
 17 19  1  0  0  0  0
 15 16  1  0  0  0  0
 15 17  2  0  0  0  0
 14 15  1  0  0  0  0
 14 21  2  0  0  0  0
 11 12  1  0  0  0  0
 11 13  1  0  0  0  0
 11 14  1  0  0  0  0
  9 10  1  0  0  0  0
  9 11  1  0  0  0  0
  9 23  1  0  0  0  0
  7  8  1  0  0  0  0
  7  9  1  0  0  0  0
 27 28  1  0  0  0  0
 27 29  1  0  0  0  0
 27 30  1  0  0  0  0
 25 26  1  0  0  0  0
 25 27  1  0  0  0  0
M  CHG  1  15   1
M  END
$$$$
default_name
  -OEChem-02102213163D

 30 30  0     1  0  0  0  0  0999 V2000
   -3.5507   -3.2183    1.8116 H   0  0  0  0  0  0  0  0  0  0  0  0
   -3.4597   -2.3913    1.1076 C   0  0  0  0  0  0  0  0  0  0  0  0
   -4.1577   -1.6043    1.3866 H   0  0  0  0  0  0  0  0  0  0  0  0
   -3.6807   -2.7523    0.1036 H   0  0  0  0  0  0  0  0  0  0  0  0
   -2.0477   -1.8543    1.1546 C   0  0  0  0  0  0  0  0  0  0  0  0
   -1.2227   -2.3443    1.9146 O   0  0  0  0  0  0  0  0  0  0  0  0
   -1.7517   -0.8483    0.3266 N   0  0  0  0  0  0  0  0  0  0  0  0
   -2.4847   -0.5123   -0.2804 H   0  0  0  0  0  0  0  0  0  0  0  0
   -0.4117   -0.2463    0.2186 C   0  0  1  0  0  0  0  0  0  0  0  0
    0.1554   -0.5152    1.1133 H   0  0  0  0  0  0  0  0  0  0  0  0
    0.3164   -0.8780   -0.9905 C   0  0  0  0  0  0  0  0  0  0  0  0
   -0.3634   -1.5819   -1.4774 H   0  0  0  0  0  0  0  0  0  0  0  0
    0.5418   -0.0950   -1.7177 H   0  0  0  0  0  0  0  0  0  0  0  0
    1.6062   -1.5988   -0.6603 C   0  0  0  0  0  0  0  0  0  0  0  0
    1.8818   -2.2354    0.5344 N   0  3  0  0  0  0  0  0  0  0  0  0
    1.2010   -2.3323    1.2932 H   0  0  0  0  0  0  0  0  0  0  0  0
    3.1216   -2.7591    0.4615 C   0  0  0  0  0  0  0  0  0  0  0  0
    3.6106   -3.3307    1.2478 H   0  0  0  0  0  0  0  0  0  0  0  0
    3.6392   -2.4678   -0.7533 N   0  0  0  0  0  0  0  0  0  0  0  0
    4.5594   -2.7380   -1.0904 H   0  0  0  0  0  0  0  0  0  0  0  0
    2.7004   -1.7392   -1.4705 C   0  0  0  0  0  0  0  0  0  0  0  0
    2.8039   -1.3515   -2.4802 H   0  0  0  0  0  0  0  0  0  0  0  0
   -0.4874    1.2908    0.1962 C   0  0  0  0  0  0  0  0  0  0  0  0
   -1.3116    1.8673   -0.5151 O   0  0  0  0  0  0  0  0  0  0  0  0
    0.3889    1.9422    0.9708 N   0  0  0  0  0  0  0  0  0  0  0  0
    1.0197    1.3866    1.5283 H   0  0  0  0  0  0  0  0  0  0  0  0
    0.5081    3.3999    1.0720 C   0  0  0  0  0  0  0  0  0  0  0  0
    0.0188    3.7538    1.9817 H   0  0  0  0  0  0  0  0  0  0  0  0
    1.5607    3.6858    1.1098 H   0  0  0  0  0  0  0  0  0  0  0  0
    0.0459    3.8890    0.2119 H   0  0  0  0  0  0  0  0  0  0  0  0
  5  6  2  0  0  0  0
  5  7  1  0  0  0  0
  2  3  1  0  0  0  0
  2  4  1  0  0  0  0
  2  5  1  0  0  0  0
  1  2  1  0  0  0  0
 23 24  2  0  0  0  0
 23 25  1  0  0  0  0
 21 22  1  0  0  0  0
 19 20  1  0  0  0  0
 19 21  1  0  0  0  0
 17 18  1  0  0  0  0
 17 19  1  0  0  0  0
 15 16  1  0  0  0  0
 15 17  2  0  0  0  0
 14 15  1  0  0  0  0
 14 21  2  0  0  0  0
 11 12  1  0  0  0  0
 11 13  1  0  0  0  0
 11 14  1  0  0  0  0
  9 10  1  0  0  0  0
  9 11  1  0  0  0  0
  9 23  1  0  0  0  0
  7  8  1  0  0  0  0
  7  9  1  0  0  0  0
 27 28  1  0  0  0  0
 27 29  1  0  0  0  0
 27 30  1  0  0  0  0
 25 26  1  0  0  0  0
 25 27  1  0  0  0  0
M  CHG  1  15   1
M  END
$$$$
default_name
  -OEChem-02102213163D

 30 30  0     1  0  0  0  0  0999 V2000
   -3.5507   -3.2183    1.8116 H   0  0  0  0  0  0  0  0  0  0  0  0
   -3.4597   -2.3913    1.1076 C   0  0  0  0  0  0  0  0  0  0  0  0
   -4.1577   -1.6043    1.3866 H   0  0  0  0  0  0  0  0  0  0  0  0
   -3.6807   -2.7523    0.1036 H   0  0  0  0  0  0  0  0  0  0  0  0
   -2.0477   -1.8543    1.1546 C   0  0  0  0  0  0  0  0  0  0  0  0
   -1.2227   -2.3443    1.9146 O   0  0  0  0  0  0  0  0  0  0  0  0
   -1.7517   -0.8483    0.3266 N   0  0  0  0  0  0  0  0  0  0  0  0
   -2.4847   -0.5123   -0.2804 H   0  0  0  0  0  0  0  0  0  0  0  0
   -0.4117   -0.2463    0.2186 C   0  0  1  0  0  0  0  0  0  0  0  0
    0.1554   -0.5152    1.1133 H   0  0  0  0  0  0  0  0  0  0  0  0
    0.3164   -0.8780   -0.9905 C   0  0  0  0  0  0  0  0  0  0  0  0
   -0.3634   -1.5819   -1.4774 H   0  0  0  0  0  0  0  0  0  0  0  0
    0.5418   -0.0950   -1.7177 H   0  0  0  0  0  0  0  0  0  0  0  0
    1.6062   -1.5988   -0.6603 C   0  0  0  0  0  0  0  0  0  0  0  0
    1.7843   -2.4745    0.3932 N   0  3  0  0  0  0  0  0  0  0  0  0
    1.0280   -2.7679    1.0181 H   0  0  0  0  0  0  0  0  0  0  0  0
    3.0578   -2.9153    0.3697 C   0  0  0  0  0  0  0  0  0  0  0  0
    3.4905   -3.6271    1.0698 H   0  0  0  0  0  0  0  0  0  0  0  0
    3.6921   -2.3374   -0.6754 N   0  0  0  0  0  0  0  0  0  0  0  0
    4.6621   -2.4858   -0.9410 H   0  0  0  0  0  0  0  0  0  0  0  0
    2.7948   -1.5074   -1.3330 C   0  0  0  0  0  0  0  0  0  0  0  0
    2.9880   -0.8992   -2.2123 H   0  0  0  0  0  0  0  0  0  0  0  0
   -0.4874    1.2908    0.1962 C   0  0  0  0  0  0  0  0  0  0  0  0
   -1.3116    1.8673   -0.5151 O   0  0  0  0  0  0  0  0  0  0  0  0
    0.3889    1.9422    0.9708 N   0  0  0  0  0  0  0  0  0  0  0  0
    1.0197    1.3866    1.5283 H   0  0  0  0  0  0  0  0  0  0  0  0
    0.5081    3.3999    1.0720 C   0  0  0  0  0  0  0  0  0  0  0  0
    0.0188    3.7538    1.9817 H   0  0  0  0  0  0  0  0  0  0  0  0
    1.5607    3.6858    1.1098 H   0  0  0  0  0  0  0  0  0  0  0  0
    0.0459    3.8890    0.2119 H   0  0  0  0  0  0  0  0  0  0  0  0
  5  6  2  0  0  0  0
  5  7  1  0  0  0  0
  2  3  1  0  0  0  0
  2  4  1  0  0  0  0
  2  5  1  0  0  0  0
  1  2  1  0  0  0  0
 23 24  2  0  0  0  0
 23 25  1  0  0  0  0
 21 22  1  0  0  0  0
 19 20  1  0  0  0  0
 19 21  1  0  0  0  0
 17 18  1  0  0  0  0
 17 19  1  0  0  0  0
 15 16  1  0  0  0  0
 15 17  2  0  0  0  0
 14 15  1  0  0  0  0
 14 21  2  0  0  0  0
 11 12  1  0  0  0  0
 11 13  1  0  0  0  0
 11 14  1  0  0  0  0
  9 10  1  0  0  0  0
  9 11  1  0  0  0  0
  9 23  1  0  0  0  0
  7  8  1  0  0  0  0
  7  9  1  0  0  0  0
 27 28  1  0  0  0  0
 27 29  1  0  0  0  0
 27 30  1  0  0  0  0
 25 26  1  0  0  0  0
 25 27  1  0  0  0  0
M  CHG  1  15   1
M  END
$$$$
default_name
  -OEChem-02102213163D

 30 30  0     1  0  0  0  0  0999 V2000
   -3.5507   -3.2183    1.8116 H   0  0  0  0  0  0  0  0  0  0  0  0
   -3.4597   -2.3913    1.1076 C   0  0  0  0  0  0  0  0  0  0  0  0
   -4.1577   -1.6043    1.3866 H   0  0  0  0  0  0  0  0  0  0  0  0
   -3.6807   -2.7523    0.1036 H   0  0  0  0  0  0  0  0  0  0  0  0
   -2.0477   -1.8543    1.1546 C   0  0  0  0  0  0  0  0  0  0  0  0
   -1.2227   -2.3443    1.9146 O   0  0  0  0  0  0  0  0  0  0  0  0
   -1.7517   -0.8483    0.3266 N   0  0  0  0  0  0  0  0  0  0  0  0
   -2.4847   -0.5123   -0.2804 H   0  0  0  0  0  0  0  0  0  0  0  0
   -0.4117   -0.2463    0.2186 C   0  0  1  0  0  0  0  0  0  0  0  0
    0.1554   -0.5152    1.1133 H   0  0  0  0  0  0  0  0  0  0  0  0
    0.3164   -0.8780   -0.9905 C   0  0  0  0  0  0  0  0  0  0  0  0
   -0.3634   -1.5819   -1.4774 H   0  0  0  0  0  0  0  0  0  0  0  0
    0.5418   -0.0950   -1.7177 H   0  0  0  0  0  0  0  0  0  0  0  0
    1.6062   -1.5988   -0.6603 C   0  0  0  0  0  0  0  0  0  0  0  0
    1.7210   -2.6798    0.1921 N   0  3  0  0  0  0  0  0  0  0  0  0
    0.9193   -3.1377    0.6351 H   0  0  0  0  0  0  0  0  0  0  0  0
    3.0164   -3.0495    0.2387 C   0  0  0  0  0  0  0  0  0  0  0  0
    3.4132   -3.8809    0.8177 H   0  0  0  0  0  0  0  0  0  0  0  0
    3.7263   -2.2257   -0.5649 N   0  0  0  0  0  0  0  0  0  0  0  0
    4.7287   -2.2693   -0.7285 H   0  0  0  0  0  0  0  0  0  0  0  0
    2.8559   -1.3084   -1.1373 C   0  0  0  0  0  0  0  0  0  0  0  0
    3.1074   -0.5111   -1.8312 H   0  0  0  0  0  0  0  0  0  0  0  0
   -0.4874    1.2908    0.1962 C   0  0  0  0  0  0  0  0  0  0  0  0
   -1.3116    1.8673   -0.5151 O   0  0  0  0  0  0  0  0  0  0  0  0
    0.3889    1.9422    0.9708 N   0  0  0  0  0  0  0  0  0  0  0  0
    1.0197    1.3866    1.5283 H   0  0  0  0  0  0  0  0  0  0  0  0
    0.5081    3.3999    1.0720 C   0  0  0  0  0  0  0  0  0  0  0  0
    0.0188    3.7538    1.9817 H   0  0  0  0  0  0  0  0  0  0  0  0
    1.5607    3.6858    1.1098 H   0  0  0  0  0  0  0  0  0  0  0  0
    0.0459    3.8890    0.2119 H   0  0  0  0  0  0  0  0  0  0  0  0
  5  6  2  0  0  0  0
  5  7  1  0  0  0  0
  2  3  1  0  0  0  0
  2  4  1  0  0  0  0
  2  5  1  0  0  0  0
  1  2  1  0  0  0  0
 23 24  2  0  0  0  0
 23 25  1  0  0  0  0
 21 22  1  0  0  0  0
 19 20  1  0  0  0  0
 19 21  1  0  0  0  0
 17 18  1  0  0  0  0
 17 19  1  0  0  0  0
 15 16  1  0  0  0  0
 15 17  2  0  0  0  0
 14 15  1  0  0  0  0
 14 21  2  0  0  0  0
 11 12  1  0  0  0  0
 11 13  1  0  0  0  0
 11 14  1  0  0  0  0
  9 10  1  0  0  0  0
  9 11  1  0  0  0  0
  9 23  1  0  0  0  0
  7  8  1  0  0  0  0
  7  9  1  0  0  0  0
 27 28  1  0  0  0  0
 27 29  1  0  0  0  0
 27 30  1  0  0  0  0
 25 26  1  0  0  0  0
 25 27  1  0  0  0  0
M  CHG  1  15   1
M  END
$$$$
default_name
  -OEChem-02102213163D

 30 30  0     1  0  0  0  0  0999 V2000
   -3.5507   -3.2183    1.8116 H   0  0  0  0  0  0  0  0  0  0  0  0
   -3.4597   -2.3913    1.1076 C   0  0  0  0  0  0  0  0  0  0  0  0
   -4.1577   -1.6043    1.3866 H   0  0  0  0  0  0  0  0  0  0  0  0
   -3.6807   -2.7523    0.1036 H   0  0  0  0  0  0  0  0  0  0  0  0
   -2.0477   -1.8543    1.1546 C   0  0  0  0  0  0  0  0  0  0  0  0
   -1.2227   -2.3443    1.9146 O   0  0  0  0  0  0  0  0  0  0  0  0
   -1.7517   -0.8483    0.3266 N   0  0  0  0  0  0  0  0  0  0  0  0
   -2.4847   -0.5123   -0.2804 H   0  0  0  0  0  0  0  0  0  0  0  0
   -0.4117   -0.2463    0.2186 C   0  0  1  0  0  0  0  0  0  0  0  0
    0.1554   -0.5152    1.1133 H   0  0  0  0  0  0  0  0  0  0  0  0
    0.3164   -0.8780   -0.9905 C   0  0  0  0  0  0  0  0  0  0  0  0
   -0.3634   -1.5819   -1.4774 H   0  0  0  0  0  0  0  0  0  0  0  0
    0.5418   -0.0950   -1.7177 H   0  0  0  0  0  0  0  0  0  0  0  0
    1.6062   -1.5988   -0.6603 C   0  0  0  0  0  0  0  0  0  0  0  0
    1.6963   -2.8374   -0.0552 N   0  3  0  0  0  0  0  0  0  0  0  0
    0.8824   -3.4167    0.1702 H   0  0  0  0  0  0  0  0  0  0  0  0
    3.0000   -3.1526    0.0775 C   0  0  0  0  0  0  0  0  0  0  0  0
    3.3839   -4.0749    0.5087 H   0  0  0  0  0  0  0  0  0  0  0  0
    3.7393   -2.1402   -0.4294 N   0  0  0  0  0  0  0  0  0  0  0  0
    4.7546   -2.1032   -0.4672 H   0  0  0  0  0  0  0  0  0  0  0  0
    2.8795   -1.1559   -0.8969 C   0  0  0  0  0  0  0  0  0  0  0  0
    3.1538   -0.2134   -1.3627 H   0  0  0  0  0  0  0  0  0  0  0  0
   -0.4874    1.2908    0.1962 C   0  0  0  0  0  0  0  0  0  0  0  0
   -1.3116    1.8673   -0.5151 O   0  0  0  0  0  0  0  0  0  0  0  0
    0.3889    1.9422    0.9708 N   0  0  0  0  0  0  0  0  0  0  0  0
    1.0197    1.3866    1.5283 H   0  0  0  0  0  0  0  0  0  0  0  0
    0.5081    3.3999    1.0720 C   0  0  0  0  0  0  0  0  0  0  0  0
    0.0188    3.7538    1.9817 H   0  0  0  0  0  0  0  0  0  0  0  0
    1.5607    3.6858    1.1098 H   0  0  0  0  0  0  0  0  0  0  0  0
    0.0459    3.8890    0.2119 H   0  0  0  0  0  0  0  0  0  0  0  0
  5  6  2  0  0  0  0
  5  7  1  0  0  0  0
  2  3  1  0  0  0  0
  2  4  1  0  0  0  0
  2  5  1  0  0  0  0
  1  2  1  0  0  0  0
 23 24  2  0  0  0  0
 23 25  1  0  0  0  0
 21 22  1  0  0  0  0
 19 20  1  0  0  0  0
 19 21  1  0  0  0  0
 17 18  1  0  0  0  0
 17 19  1  0  0  0  0
 15 16  1  0  0  0  0
 15 17  2  0  0  0  0
 14 15  1  0  0  0  0
 14 21  2  0  0  0  0
 11 12  1  0  0  0  0
 11 13  1  0  0  0  0
 11 14  1  0  0  0  0
  9 10  1  0  0  0  0
  9 11  1  0  0  0  0
  9 23  1  0  0  0  0
  7  8  1  0  0  0  0
  7  9  1  0  0  0  0
 27 28  1  0  0  0  0
 27 29  1  0  0  0  0
 27 30  1  0  0  0  0
 25 26  1  0  0  0  0
 25 27  1  0  0  0  0
M  CHG  1  15   1
M  END
$$$$
default_name
  -OEChem-02102213163D

 30 30  0     1  0  0  0  0  0999 V2000
   -3.5507   -3.2183    1.8116 H   0  0  0  0  0  0  0  0  0  0  0  0
   -3.4597   -2.3913    1.1076 C   0  0  0  0  0  0  0  0  0  0  0  0
   -4.1577   -1.6043    1.3866 H   0  0  0  0  0  0  0  0  0  0  0  0
   -3.6807   -2.7523    0.1036 H   0  0  0  0  0  0  0  0  0  0  0  0
   -2.0477   -1.8543    1.1546 C   0  0  0  0  0  0  0  0  0  0  0  0
   -1.2227   -2.3443    1.9146 O   0  0  0  0  0  0  0  0  0  0  0  0
   -1.7517   -0.8483    0.3266 N   0  0  0  0  0  0  0  0  0  0  0  0
   -2.4847   -0.5123   -0.2804 H   0  0  0  0  0  0  0  0  0  0  0  0
   -0.4117   -0.2463    0.2186 C   0  0  1  0  0  0  0  0  0  0  0  0
    0.1554   -0.5152    1.1133 H   0  0  0  0  0  0  0  0  0  0  0  0
    0.3164   -0.8780   -0.9905 C   0  0  0  0  0  0  0  0  0  0  0  0
   -0.3634   -1.5819   -1.4774 H   0  0  0  0  0  0  0  0  0  0  0  0
    0.5418   -0.0950   -1.7177 H   0  0  0  0  0  0  0  0  0  0  0  0
    1.6062   -1.5988   -0.6603 C   0  0  0  0  0  0  0  0  0  0  0  0
    1.7117   -2.9365   -0.3319 N   0  3  0  0  0  0  0  0  0  0  0  0
    0.9198   -3.5857   -0.3449 H   0  0  0  0  0  0  0  0  0  0  0  0
    3.0099   -3.2175   -0.1030 C   0  0  0  0  0  0  0  0  0  0  0  0
    3.4046   -4.1958    0.1639 H   0  0  0  0  0  0  0  0  0  0  0  0
    3.7305   -2.0867   -0.2780 N   0  0  0  0  0  0  0  0  0  0  0  0
    4.7380   -1.9990   -0.1750 H   0  0  0  0  0  0  0  0  0  0  0  0
    2.8642   -1.0603   -0.6282 C   0  0  0  0  0  0  0  0  0  0  0  0
    3.1241   -0.0266   -0.8389 H   0  0  0  0  0  0  0  0  0  0  0  0
   -0.4874    1.2908    0.1962 C   0  0  0  0  0  0  0  0  0  0  0  0
   -1.3116    1.8673   -0.5151 O   0  0  0  0  0  0  0  0  0  0  0  0
    0.3889    1.9422    0.9708 N   0  0  0  0  0  0  0  0  0  0  0  0
    1.0197    1.3866    1.5283 H   0  0  0  0  0  0  0  0  0  0  0  0
    0.5081    3.3999    1.0720 C   0  0  0  0  0  0  0  0  0  0  0  0
    0.0188    3.7538    1.9817 H   0  0  0  0  0  0  0  0  0  0  0  0
    1.5607    3.6858    1.1098 H   0  0  0  0  0  0  0  0  0  0  0  0
    0.0459    3.8890    0.2119 H   0  0  0  0  0  0  0  0  0  0  0  0
  5  6  2  0  0  0  0
  5  7  1  0  0  0  0
  2  3  1  0  0  0  0
  2  4  1  0  0  0  0
  2  5  1  0  0  0  0
  1  2  1  0  0  0  0
 23 24  2  0  0  0  0
 23 25  1  0  0  0  0
 21 22  1  0  0  0  0
 19 20  1  0  0  0  0
 19 21  1  0  0  0  0
 17 18  1  0  0  0  0
 17 19  1  0  0  0  0
 15 16  1  0  0  0  0
 15 17  2  0  0  0  0
 14 15  1  0  0  0  0
 14 21  2  0  0  0  0
 11 12  1  0  0  0  0
 11 13  1  0  0  0  0
 11 14  1  0  0  0  0
  9 10  1  0  0  0  0
  9 11  1  0  0  0  0
  9 23  1  0  0  0  0
  7  8  1  0  0  0  0
  7  9  1  0  0  0  0
 27 28  1  0  0  0  0
 27 29  1  0  0  0  0
 27 30  1  0  0  0  0
 25 26  1  0  0  0  0
 25 27  1  0  0  0  0
M  CHG  1  15   1
M  END
$$$$
default_name
  -OEChem-02102213163D

 30 30  0     1  0  0  0  0  0999 V2000
   -3.5507   -3.2183    1.8116 H   0  0  0  0  0  0  0  0  0  0  0  0
   -3.4597   -2.3913    1.1076 C   0  0  0  0  0  0  0  0  0  0  0  0
   -4.1577   -1.6043    1.3866 H   0  0  0  0  0  0  0  0  0  0  0  0
   -3.6807   -2.7523    0.1036 H   0  0  0  0  0  0  0  0  0  0  0  0
   -2.0477   -1.8543    1.1546 C   0  0  0  0  0  0  0  0  0  0  0  0
   -1.2227   -2.3443    1.9146 O   0  0  0  0  0  0  0  0  0  0  0  0
   -1.7517   -0.8483    0.3266 N   0  0  0  0  0  0  0  0  0  0  0  0
   -2.4847   -0.5123   -0.2804 H   0  0  0  0  0  0  0  0  0  0  0  0
   -0.4117   -0.2463    0.2186 C   0  0  1  0  0  0  0  0  0  0  0  0
    0.1554   -0.5152    1.1133 H   0  0  0  0  0  0  0  0  0  0  0  0
    0.3164   -0.8780   -0.9905 C   0  0  0  0  0  0  0  0  0  0  0  0
   -0.3634   -1.5819   -1.4774 H   0  0  0  0  0  0  0  0  0  0  0  0
    0.5418   -0.0950   -1.7177 H   0  0  0  0  0  0  0  0  0  0  0  0
    1.6062   -1.5988   -0.6603 C   0  0  0  0  0  0  0  0  0  0  0  0
    1.7664   -2.9703   -0.6191 N   0  3  0  0  0  0  0  0  0  0  0  0
    1.0290   -3.6333   -0.8751 H   0  0  0  0  0  0  0  0  0  0  0  0
    3.0454   -3.2399   -0.2904 C   0  0  0  0  0  0  0  0  0  0  0  0
    3.4740   -4.2353   -0.1933 H   0  0  0  0  0  0  0  0  0  0  0  0
    3.7002   -2.0690   -0.1210 N   0  0  0  0  0  0  0  0  0  0  0  0
    4.6802   -1.9637    0.1282 H   0  0  0  0  0  0  0  0  0  0  0  0
    2.8108   -1.0281   -0.3494 C   0  0  0  0  0  0  0  0  0  0  0  0
    3.0203    0.0366   -0.2953 H   0  0  0  0  0  0  0  0  0  0  0  0
   -0.4874    1.2908    0.1962 C   0  0  0  0  0  0  0  0  0  0  0  0
   -1.3116    1.8673   -0.5151 O   0  0  0  0  0  0  0  0  0  0  0  0
    0.3889    1.9422    0.9708 N   0  0  0  0  0  0  0  0  0  0  0  0
    1.0197    1.3866    1.5283 H   0  0  0  0  0  0  0  0  0  0  0  0
    0.5081    3.3999    1.0720 C   0  0  0  0  0  0  0  0  0  0  0  0
    0.0188    3.7538    1.9817 H   0  0  0  0  0  0  0  0  0  0  0  0
    1.5607    3.6858    1.1098 H   0  0  0  0  0  0  0  0  0  0  0  0
    0.0459    3.8890    0.2119 H   0  0  0  0  0  0  0  0  0  0  0  0
  5  6  2  0  0  0  0
  5  7  1  0  0  0  0
  2  3  1  0  0  0  0
  2  4  1  0  0  0  0
  2  5  1  0  0  0  0
  1  2  1  0  0  0  0
 23 24  2  0  0  0  0
 23 25  1  0  0  0  0
 21 22  1  0  0  0  0
 19 20  1  0  0  0  0
 19 21  1  0  0  0  0
 17 18  1  0  0  0  0
 17 19  1  0  0  0  0
 15 16  1  0  0  0  0
 15 17  2  0  0  0  0
 14 15  1  0  0  0  0
 14 21  2  0  0  0  0
 11 12  1  0  0  0  0
 11 13  1  0  0  0  0
 11 14  1  0  0  0  0
  9 10  1  0  0  0  0
  9 11  1  0  0  0  0
  9 23  1  0  0  0  0
  7  8  1  0  0  0  0
  7  9  1  0  0  0  0
 27 28  1  0  0  0  0
 27 29  1  0  0  0  0
 27 30  1  0  0  0  0
 25 26  1  0  0  0  0
 25 27  1  0  0  0  0
M  CHG  1  15   1
M  END
$$$$
default_name
  -OEChem-02102213163D

 30 30  0     1  0  0  0  0  0999 V2000
   -3.5507   -3.2183    1.8116 H   0  0  0  0  0  0  0  0  0  0  0  0
   -3.4597   -2.3913    1.1076 C   0  0  0  0  0  0  0  0  0  0  0  0
   -4.1577   -1.6043    1.3866 H   0  0  0  0  0  0  0  0  0  0  0  0
   -3.6807   -2.7523    0.1036 H   0  0  0  0  0  0  0  0  0  0  0  0
   -2.0477   -1.8543    1.1546 C   0  0  0  0  0  0  0  0  0  0  0  0
   -1.2227   -2.3443    1.9146 O   0  0  0  0  0  0  0  0  0  0  0  0
   -1.7517   -0.8483    0.3266 N   0  0  0  0  0  0  0  0  0  0  0  0
   -2.4847   -0.5123   -0.2804 H   0  0  0  0  0  0  0  0  0  0  0  0
   -0.4117   -0.2463    0.2186 C   0  0  1  0  0  0  0  0  0  0  0  0
    0.1554   -0.5152    1.1133 H   0  0  0  0  0  0  0  0  0  0  0  0
    0.3164   -0.8780   -0.9905 C   0  0  0  0  0  0  0  0  0  0  0  0
   -0.3634   -1.5819   -1.4774 H   0  0  0  0  0  0  0  0  0  0  0  0
    0.5418   -0.0950   -1.7177 H   0  0  0  0  0  0  0  0  0  0  0  0
    1.6062   -1.5988   -0.6603 C   0  0  0  0  0  0  0  0  0  0  0  0
    1.8564   -2.9366   -0.8973 N   0  3  0  0  0  0  0  0  0  0  0  0
    1.2025   -3.5562   -1.3843 H   0  0  0  0  0  0  0  0  0  0  0  0
    3.1040   -3.2181   -0.4720 C   0  0  0  0  0  0  0  0  0  0  0  0
    3.5872   -4.1909   -0.5385 H   0  0  0  0  0  0  0  0  0  0  0  0
    3.6506   -2.0881    0.0308 N   0  0  0  0  0  0  0  0  0  0  0  0
    4.5849   -1.9997    0.4217 H   0  0  0  0  0  0  0  0  0  0  0  0
    2.7231   -1.0614   -0.0796 C   0  0  0  0  0  0  0  0  0  0  0  0
    2.8495   -0.0280    0.2308 H   0  0  0  0  0  0  0  0  0  0  0  0
   -0.4874    1.2908    0.1962 C   0  0  0  0  0  0  0  0  0  0  0  0
   -1.3116    1.8673   -0.5151 O   0  0  0  0  0  0  0  0  0  0  0  0
    0.3889    1.9422    0.9708 N   0  0  0  0  0  0  0  0  0  0  0  0
    1.0197    1.3866    1.5283 H   0  0  0  0  0  0  0  0  0  0  0  0
    0.5081    3.3999    1.0720 C   0  0  0  0  0  0  0  0  0  0  0  0
    0.0188    3.7538    1.9817 H   0  0  0  0  0  0  0  0  0  0  0  0
    1.5607    3.6858    1.1098 H   0  0  0  0  0  0  0  0  0  0  0  0
    0.0459    3.8890    0.2119 H   0  0  0  0  0  0  0  0  0  0  0  0
  5  6  2  0  0  0  0
  5  7  1  0  0  0  0
  2  3  1  0  0  0  0
  2  4  1  0  0  0  0
  2  5  1  0  0  0  0
  1  2  1  0  0  0  0
 23 24  2  0  0  0  0
 23 25  1  0  0  0  0
 21 22  1  0  0  0  0
 19 20  1  0  0  0  0
 19 21  1  0  0  0  0
 17 18  1  0  0  0  0
 17 19  1  0  0  0  0
 15 16  1  0  0  0  0
 15 17  2  0  0  0  0
 14 15  1  0  0  0  0
 14 21  2  0  0  0  0
 11 12  1  0  0  0  0
 11 13  1  0  0  0  0
 11 14  1  0  0  0  0
  9 10  1  0  0  0  0
  9 11  1  0  0  0  0
  9 23  1  0  0  0  0
  7  8  1  0  0  0  0
  7  9  1  0  0  0  0
 27 28  1  0  0  0  0
 27 29  1  0  0  0  0
 27 30  1  0  0  0  0
 25 26  1  0  0  0  0
 25 27  1  0  0  0  0
M  CHG  1  15   1
M  END
$$$$
default_name
  -OEChem-02102213163D

 30 30  0     1  0  0  0  0  0999 V2000
   -3.5507   -3.2183    1.8116 H   0  0  0  0  0  0  0  0  0  0  0  0
   -3.4597   -2.3913    1.1076 C   0  0  0  0  0  0  0  0  0  0  0  0
   -4.1577   -1.6043    1.3866 H   0  0  0  0  0  0  0  0  0  0  0  0
   -3.6807   -2.7523    0.1036 H   0  0  0  0  0  0  0  0  0  0  0  0
   -2.0477   -1.8543    1.1546 C   0  0  0  0  0  0  0  0  0  0  0  0
   -1.2227   -2.3443    1.9146 O   0  0  0  0  0  0  0  0  0  0  0  0
   -1.7517   -0.8483    0.3266 N   0  0  0  0  0  0  0  0  0  0  0  0
   -2.4847   -0.5123   -0.2804 H   0  0  0  0  0  0  0  0  0  0  0  0
   -0.4117   -0.2463    0.2186 C   0  0  1  0  0  0  0  0  0  0  0  0
    0.1554   -0.5152    1.1133 H   0  0  0  0  0  0  0  0  0  0  0  0
    0.3164   -0.8780   -0.9905 C   0  0  0  0  0  0  0  0  0  0  0  0
   -0.3634   -1.5819   -1.4774 H   0  0  0  0  0  0  0  0  0  0  0  0
    0.5418   -0.0950   -1.7177 H   0  0  0  0  0  0  0  0  0  0  0  0
    1.6062   -1.5988   -0.6603 C   0  0  0  0  0  0  0  0  0  0  0  0
    1.9758   -2.8376   -1.1474 N   0  3  0  0  0  0  0  0  0  0  0  0
    1.4284   -3.3596   -1.8378 H   0  0  0  0  0  0  0  0  0  0  0  0
    3.1818   -3.1538   -0.6354 C   0  0  0  0  0  0  0  0  0  0  0  0
    3.7366   -4.0654   -0.8482 H   0  0  0  0  0  0  0  0  0  0  0  0
    3.5851   -2.1429    0.1670 N   0  0  0  0  0  0  0  0  0  0  0  0
    4.4588   -2.1045    0.6855 H   0  0  0  0  0  0  0  0  0  0  0  0
    2.6070   -1.1581    0.1628 C   0  0  0  0  0  0  0  0  0  0  0  0
    2.6233   -0.2160    0.7038 H   0  0  0  0  0  0  0  0  0  0  0  0
   -0.4874    1.2908    0.1962 C   0  0  0  0  0  0  0  0  0  0  0  0
   -1.3116    1.8673   -0.5151 O   0  0  0  0  0  0  0  0  0  0  0  0
    0.3889    1.9422    0.9708 N   0  0  0  0  0  0  0  0  0  0  0  0
    1.0197    1.3866    1.5283 H   0  0  0  0  0  0  0  0  0  0  0  0
    0.5081    3.3999    1.0720 C   0  0  0  0  0  0  0  0  0  0  0  0
    0.0188    3.7538    1.9817 H   0  0  0  0  0  0  0  0  0  0  0  0
    1.5607    3.6858    1.1098 H   0  0  0  0  0  0  0  0  0  0  0  0
    0.0459    3.8890    0.2119 H   0  0  0  0  0  0  0  0  0  0  0  0
  5  6  2  0  0  0  0
  5  7  1  0  0  0  0
  2  3  1  0  0  0  0
  2  4  1  0  0  0  0
  2  5  1  0  0  0  0
  1  2  1  0  0  0  0
 23 24  2  0  0  0  0
 23 25  1  0  0  0  0
 21 22  1  0  0  0  0
 19 20  1  0  0  0  0
 19 21  1  0  0  0  0
 17 18  1  0  0  0  0
 17 19  1  0  0  0  0
 15 16  1  0  0  0  0
 15 17  2  0  0  0  0
 14 15  1  0  0  0  0
 14 21  2  0  0  0  0
 11 12  1  0  0  0  0
 11 13  1  0  0  0  0
 11 14  1  0  0  0  0
  9 10  1  0  0  0  0
  9 11  1  0  0  0  0
  9 23  1  0  0  0  0
  7  8  1  0  0  0  0
  7  9  1  0  0  0  0
 27 28  1  0  0  0  0
 27 29  1  0  0  0  0
 27 30  1  0  0  0  0
 25 26  1  0  0  0  0
 25 27  1  0  0  0  0
M  CHG  1  15   1
M  END
$$$$
default_name
  -OEChem-02102213163D

 30 30  0     1  0  0  0  0  0999 V2000
   -3.5507   -3.2183    1.8116 H   0  0  0  0  0  0  0  0  0  0  0  0
   -3.4597   -2.3913    1.1076 C   0  0  0  0  0  0  0  0  0  0  0  0
   -4.1577   -1.6043    1.3866 H   0  0  0  0  0  0  0  0  0  0  0  0
   -3.6807   -2.7523    0.1036 H   0  0  0  0  0  0  0  0  0  0  0  0
   -2.0477   -1.8543    1.1546 C   0  0  0  0  0  0  0  0  0  0  0  0
   -1.2227   -2.3443    1.9146 O   0  0  0  0  0  0  0  0  0  0  0  0
   -1.7517   -0.8483    0.3266 N   0  0  0  0  0  0  0  0  0  0  0  0
   -2.4847   -0.5123   -0.2804 H   0  0  0  0  0  0  0  0  0  0  0  0
   -0.4117   -0.2463    0.2186 C   0  0  1  0  0  0  0  0  0  0  0  0
    0.1554   -0.5152    1.1133 H   0  0  0  0  0  0  0  0  0  0  0  0
    0.3164   -0.8780   -0.9905 C   0  0  0  0  0  0  0  0  0  0  0  0
   -0.3634   -1.5819   -1.4774 H   0  0  0  0  0  0  0  0  0  0  0  0
    0.5418   -0.0950   -1.7177 H   0  0  0  0  0  0  0  0  0  0  0  0
    1.6062   -1.5988   -0.6603 C   0  0  0  0  0  0  0  0  0  0  0  0
    2.1163   -2.6801   -1.3525 N   0  3  0  0  0  0  0  0  0  0  0  0
    1.6914   -3.0570   -2.2046 H   0  0  0  0  0  0  0  0  0  0  0  0
    3.2734   -3.0513   -0.7694 C   0  0  0  0  0  0  0  0  0  0  0  0
    3.9119   -3.8675   -1.1012 H   0  0  0  0  0  0  0  0  0  0  0  0
    3.5081   -2.2296    0.2785 N   0  0  0  0  0  0  0  0  0  0  0  0
    4.3103   -2.2711    0.9016 H   0  0  0  0  0  0  0  0  0  0  0  0
    2.4705   -1.3114    0.3614 C   0  0  0  0  0  0  0  0  0  0  0  0
    2.3572   -0.5147    1.0913 H   0  0  0  0  0  0  0  0  0  0  0  0
   -0.4874    1.2908    0.1962 C   0  0  0  0  0  0  0  0  0  0  0  0
   -1.3116    1.8673   -0.5151 O   0  0  0  0  0  0  0  0  0  0  0  0
    0.3889    1.9422    0.9708 N   0  0  0  0  0  0  0  0  0  0  0  0
    1.0197    1.3866    1.5283 H   0  0  0  0  0  0  0  0  0  0  0  0
    0.5081    3.3999    1.0720 C   0  0  0  0  0  0  0  0  0  0  0  0
    0.0188    3.7538    1.9817 H   0  0  0  0  0  0  0  0  0  0  0  0
    1.5607    3.6858    1.1098 H   0  0  0  0  0  0  0  0  0  0  0  0
    0.0459    3.8890    0.2119 H   0  0  0  0  0  0  0  0  0  0  0  0
  5  6  2  0  0  0  0
  5  7  1  0  0  0  0
  2  3  1  0  0  0  0
  2  4  1  0  0  0  0
  2  5  1  0  0  0  0
  1  2  1  0  0  0  0
 23 24  2  0  0  0  0
 23 25  1  0  0  0  0
 21 22  1  0  0  0  0
 19 20  1  0  0  0  0
 19 21  1  0  0  0  0
 17 18  1  0  0  0  0
 17 19  1  0  0  0  0
 15 16  1  0  0  0  0
 15 17  2  0  0  0  0
 14 15  1  0  0  0  0
 14 21  2  0  0  0  0
 11 12  1  0  0  0  0
 11 13  1  0  0  0  0
 11 14  1  0  0  0  0
  9 10  1  0  0  0  0
  9 11  1  0  0  0  0
  9 23  1  0  0  0  0
  7  8  1  0  0  0  0
  7  9  1  0  0  0  0
 27 28  1  0  0  0  0
 27 29  1  0  0  0  0
 27 30  1  0  0  0  0
 25 26  1  0  0  0  0
 25 27  1  0  0  0  0
M  CHG  1  15   1
M  END
$$$$
default_name
  -OEChem-02102213163D

 30 30  0     1  0  0  0  0  0999 V2000
   -3.5507   -3.2183    1.8116 H   0  0  0  0  0  0  0  0  0  0  0  0
   -3.4597   -2.3913    1.1076 C   0  0  0  0  0  0  0  0  0  0  0  0
   -4.1577   -1.6043    1.3866 H   0  0  0  0  0  0  0  0  0  0  0  0
   -3.6807   -2.7523    0.1036 H   0  0  0  0  0  0  0  0  0  0  0  0
   -2.0477   -1.8543    1.1546 C   0  0  0  0  0  0  0  0  0  0  0  0
   -1.2227   -2.3443    1.9146 O   0  0  0  0  0  0  0  0  0  0  0  0
   -1.7517   -0.8483    0.3266 N   0  0  0  0  0  0  0  0  0  0  0  0
   -2.4847   -0.5123   -0.2804 H   0  0  0  0  0  0  0  0  0  0  0  0
   -0.4117   -0.2463    0.2186 C   0  0  1  0  0  0  0  0  0  0  0  0
    0.1554   -0.5152    1.1133 H   0  0  0  0  0  0  0  0  0  0  0  0
    0.3164   -0.8780   -0.9905 C   0  0  0  0  0  0  0  0  0  0  0  0
   -0.3634   -1.5819   -1.4774 H   0  0  0  0  0  0  0  0  0  0  0  0
    0.5418   -0.0950   -1.7177 H   0  0  0  0  0  0  0  0  0  0  0  0
    1.6062   -1.5988   -0.6603 C   0  0  0  0  0  0  0  0  0  0  0  0
    2.2684   -2.4748   -1.4985 N   0  3  0  0  0  0  0  0  0  0  0  0
    1.9736   -2.6690   -2.4598 H   0  0  0  0  0  0  0  0  0  0  0  0
    3.3727   -2.9175   -0.8650 C   0  0  0  0  0  0  0  0  0  0  0  0
    4.1014   -3.6107   -1.2804 H   0  0  0  0  0  0  0  0  0  0  0  0
    3.4250   -2.3422    0.3576 N   0  0  0  0  0  0  0  0  0  0  0  0
    4.1497   -2.4881    1.0554 H   0  0  0  0  0  0  0  0  0  0  0  0
    2.3228   -1.5111    0.5025 C   0  0  0  0  0  0  0  0  0  0  0  0
    2.0692   -0.9037    1.3670 H   0  0  0  0  0  0  0  0  0  0  0  0
   -0.4874    1.2908    0.1962 C   0  0  0  0  0  0  0  0  0  0  0  0
   -1.3116    1.8673   -0.5151 O   0  0  0  0  0  0  0  0  0  0  0  0
    0.3889    1.9422    0.9708 N   0  0  0  0  0  0  0  0  0  0  0  0
    1.0197    1.3866    1.5283 H   0  0  0  0  0  0  0  0  0  0  0  0
    0.5081    3.3999    1.0720 C   0  0  0  0  0  0  0  0  0  0  0  0
    0.0188    3.7538    1.9817 H   0  0  0  0  0  0  0  0  0  0  0  0
    1.5607    3.6858    1.1098 H   0  0  0  0  0  0  0  0  0  0  0  0
    0.0459    3.8890    0.2119 H   0  0  0  0  0  0  0  0  0  0  0  0
  5  6  2  0  0  0  0
  5  7  1  0  0  0  0
  2  3  1  0  0  0  0
  2  4  1  0  0  0  0
  2  5  1  0  0  0  0
  1  2  1  0  0  0  0
 23 24  2  0  0  0  0
 23 25  1  0  0  0  0
 21 22  1  0  0  0  0
 19 20  1  0  0  0  0
 19 21  1  0  0  0  0
 17 18  1  0  0  0  0
 17 19  1  0  0  0  0
 15 16  1  0  0  0  0
 15 17  2  0  0  0  0
 14 15  1  0  0  0  0
 14 21  2  0  0  0  0
 11 12  1  0  0  0  0
 11 13  1  0  0  0  0
 11 14  1  0  0  0  0
  9 10  1  0  0  0  0
  9 11  1  0  0  0  0
  9 23  1  0  0  0  0
  7  8  1  0  0  0  0
  7  9  1  0  0  0  0
 27 28  1  0  0  0  0
 27 29  1  0  0  0  0
 27 30  1  0  0  0  0
 25 26  1  0  0  0  0
 25 27  1  0  0  0  0
M  CHG  1  15   1
M  END
$$$$
default_name
  -OEChem-02102213163D

 30 30  0     1  0  0  0  0  0999 V2000
   -3.5507   -3.2183    1.8116 H   0  0  0  0  0  0  0  0  0  0  0  0
   -3.4597   -2.3913    1.1076 C   0  0  0  0  0  0  0  0  0  0  0  0
   -4.1577   -1.6043    1.3866 H   0  0  0  0  0  0  0  0  0  0  0  0
   -3.6807   -2.7523    0.1036 H   0  0  0  0  0  0  0  0  0  0  0  0
   -2.0477   -1.8543    1.1546 C   0  0  0  0  0  0  0  0  0  0  0  0
   -1.2227   -2.3443    1.9146 O   0  0  0  0  0  0  0  0  0  0  0  0
   -1.7517   -0.8483    0.3266 N   0  0  0  0  0  0  0  0  0  0  0  0
   -2.4847   -0.5123   -0.2804 H   0  0  0  0  0  0  0  0  0  0  0  0
   -0.4117   -0.2463    0.2186 C   0  0  1  0  0  0  0  0  0  0  0  0
    0.1554   -0.5152    1.1133 H   0  0  0  0  0  0  0  0  0  0  0  0
    0.3164   -0.8780   -0.9905 C   0  0  0  0  0  0  0  0  0  0  0  0
   -0.4256   -1.3659   -1.6277 H   0  0  0  0  0  0  0  0  0  0  0  0
    0.7752   -0.0837   -1.5831 H   0  0  0  0  0  0  0  0  0  0  0  0
    1.3918   -1.8845   -0.6402 C   0  0  0  0  0  0  0  0  0  0  0  0
    2.1693   -2.5721   -1.5518 N   0  3  0  0  0  0  0  0  0  0  0  0
    2.1298   -2.4120   -2.5625 H   0  0  0  0  0  0  0  0  0  0  0  0
    3.0113   -3.3759   -0.8725 C   0  0  0  0  0  0  0  0  0  0  0  0
    3.7550   -4.0314   -1.3211 H   0  0  0  0  0  0  0  0  0  0  0  0
    2.7843   -3.2141    0.4507 N   0  0  0  0  0  0  0  0  0  0  0  0
    3.2742   -3.6909    1.2031 H   0  0  0  0  0  0  0  0  0  0  0  0
    1.7699   -2.2808    0.6142 C   0  0  0  0  0  0  0  0  0  0  0  0
    1.3506   -1.9262    1.5516 H   0  0  0  0  0  0  0  0  0  0  0  0
   -0.4874    1.2908    0.1962 C   0  0  0  0  0  0  0  0  0  0  0  0
   -1.3116    1.8673   -0.5151 O   0  0  0  0  0  0  0  0  0  0  0  0
    0.3889    1.9422    0.9708 N   0  0  0  0  0  0  0  0  0  0  0  0
    1.0197    1.3866    1.5283 H   0  0  0  0  0  0  0  0  0  0  0  0
    0.5081    3.3999    1.0720 C   0  0  0  0  0  0  0  0  0  0  0  0
    0.0188    3.7538    1.9817 H   0  0  0  0  0  0  0  0  0  0  0  0
    1.5607    3.6858    1.1098 H   0  0  0  0  0  0  0  0  0  0  0  0
    0.0459    3.8890    0.2119 H   0  0  0  0  0  0  0  0  0  0  0  0
  5  6  2  0  0  0  0
  5  7  1  0  0  0  0
  2  3  1  0  0  0  0
  2  4  1  0  0  0  0
  2  5  1  0  0  0  0
  1  2  1  0  0  0  0
 23 24  2  0  0  0  0
 23 25  1  0  0  0  0
 21 22  1  0  0  0  0
 19 20  1  0  0  0  0
 19 21  1  0  0  0  0
 17 18  1  0  0  0  0
 17 19  1  0  0  0  0
 15 16  1  0  0  0  0
 15 17  2  0  0  0  0
 14 15  1  0  0  0  0
 14 21  2  0  0  0  0
 11 12  1  0  0  0  0
 11 13  1  0  0  0  0
 11 14  1  0  0  0  0
  9 10  1  0  0  0  0
  9 11  1  0  0  0  0
  9 23  1  0  0  0  0
  7  8  1  0  0  0  0
  7  9  1  0  0  0  0
 27 28  1  0  0  0  0
 27 29  1  0  0  0  0
 27 30  1  0  0  0  0
 25 26  1  0  0  0  0
 25 27  1  0  0  0  0
M  CHG  1  15   1
M  END
$$$$
default_name
  -OEChem-02102213163D

 30 30  0     1  0  0  0  0  0999 V2000
   -3.5507   -3.2183    1.8116 H   0  0  0  0  0  0  0  0  0  0  0  0
   -3.4597   -2.3913    1.1076 C   0  0  0  0  0  0  0  0  0  0  0  0
   -4.1577   -1.6043    1.3866 H   0  0  0  0  0  0  0  0  0  0  0  0
   -3.6807   -2.7523    0.1036 H   0  0  0  0  0  0  0  0  0  0  0  0
   -2.0477   -1.8543    1.1546 C   0  0  0  0  0  0  0  0  0  0  0  0
   -1.2227   -2.3443    1.9146 O   0  0  0  0  0  0  0  0  0  0  0  0
   -1.7517   -0.8483    0.3266 N   0  0  0  0  0  0  0  0  0  0  0  0
   -2.4847   -0.5123   -0.2804 H   0  0  0  0  0  0  0  0  0  0  0  0
   -0.4117   -0.2463    0.2186 C   0  0  1  0  0  0  0  0  0  0  0  0
    0.1554   -0.5152    1.1133 H   0  0  0  0  0  0  0  0  0  0  0  0
    0.3164   -0.8780   -0.9905 C   0  0  0  0  0  0  0  0  0  0  0  0
   -0.4256   -1.3659   -1.6277 H   0  0  0  0  0  0  0  0  0  0  0  0
    0.7752   -0.0837   -1.5831 H   0  0  0  0  0  0  0  0  0  0  0  0
    1.3918   -1.8845   -0.6402 C   0  0  0  0  0  0  0  0  0  0  0  0
    2.3601   -2.3526   -1.5071 N   0  3  0  0  0  0  0  0  0  0  0  0
    2.4774   -2.0061   -2.4636 H   0  0  0  0  0  0  0  0  0  0  0  0
    3.1360   -3.2327   -0.8436 C   0  0  0  0  0  0  0  0  0  0  0  0
    3.9916   -3.7583   -1.2627 H   0  0  0  0  0  0  0  0  0  0  0  0
    2.6802   -3.3340    0.4254 N   0  0  0  0  0  0  0  0  0  0  0  0
    3.0728   -3.9226    1.1554 H   0  0  0  0  0  0  0  0  0  0  0  0
    1.5849   -2.4939    0.5701 C   0  0  0  0  0  0  0  0  0  0  0  0
    0.9896   -2.3416    1.4662 H   0  0  0  0  0  0  0  0  0  0  0  0
   -0.4874    1.2908    0.1962 C   0  0  0  0  0  0  0  0  0  0  0  0
   -1.3116    1.8673   -0.5151 O   0  0  0  0  0  0  0  0  0  0  0  0
    0.3889    1.9422    0.9708 N   0  0  0  0  0  0  0  0  0  0  0  0
    1.0197    1.3866    1.5283 H   0  0  0  0  0  0  0  0  0  0  0  0
    0.5081    3.3999    1.0720 C   0  0  0  0  0  0  0  0  0  0  0  0
    0.0188    3.7538    1.9817 H   0  0  0  0  0  0  0  0  0  0  0  0
    1.5607    3.6858    1.1098 H   0  0  0  0  0  0  0  0  0  0  0  0
    0.0459    3.8890    0.2119 H   0  0  0  0  0  0  0  0  0  0  0  0
  5  6  2  0  0  0  0
  5  7  1  0  0  0  0
  2  3  1  0  0  0  0
  2  4  1  0  0  0  0
  2  5  1  0  0  0  0
  1  2  1  0  0  0  0
 23 24  2  0  0  0  0
 23 25  1  0  0  0  0
 21 22  1  0  0  0  0
 19 20  1  0  0  0  0
 19 21  1  0  0  0  0
 17 18  1  0  0  0  0
 17 19  1  0  0  0  0
 15 16  1  0  0  0  0
 15 17  2  0  0  0  0
 14 15  1  0  0  0  0
 14 21  2  0  0  0  0
 11 12  1  0  0  0  0
 11 13  1  0  0  0  0
 11 14  1  0  0  0  0
  9 10  1  0  0  0  0
  9 11  1  0  0  0  0
  9 23  1  0  0  0  0
  7  8  1  0  0  0  0
  7  9  1  0  0  0  0
 27 28  1  0  0  0  0
 27 29  1  0  0  0  0
 27 30  1  0  0  0  0
 25 26  1  0  0  0  0
 25 27  1  0  0  0  0
M  CHG  1  15   1
M  END
$$$$
default_name
  -OEChem-02102213163D

 30 30  0     1  0  0  0  0  0999 V2000
   -3.5507   -3.2183    1.8116 H   0  0  0  0  0  0  0  0  0  0  0  0
   -3.4597   -2.3913    1.1076 C   0  0  0  0  0  0  0  0  0  0  0  0
   -4.1577   -1.6043    1.3866 H   0  0  0  0  0  0  0  0  0  0  0  0
   -3.6807   -2.7523    0.1036 H   0  0  0  0  0  0  0  0  0  0  0  0
   -2.0477   -1.8543    1.1546 C   0  0  0  0  0  0  0  0  0  0  0  0
   -1.2227   -2.3443    1.9146 O   0  0  0  0  0  0  0  0  0  0  0  0
   -1.7517   -0.8483    0.3266 N   0  0  0  0  0  0  0  0  0  0  0  0
   -2.4847   -0.5123   -0.2804 H   0  0  0  0  0  0  0  0  0  0  0  0
   -0.4117   -0.2463    0.2186 C   0  0  1  0  0  0  0  0  0  0  0  0
    0.1554   -0.5152    1.1133 H   0  0  0  0  0  0  0  0  0  0  0  0
    0.3164   -0.8780   -0.9905 C   0  0  0  0  0  0  0  0  0  0  0  0
   -0.4256   -1.3659   -1.6277 H   0  0  0  0  0  0  0  0  0  0  0  0
    0.7752   -0.0837   -1.5831 H   0  0  0  0  0  0  0  0  0  0  0  0
    1.3918   -1.8845   -0.6402 C   0  0  0  0  0  0  0  0  0  0  0  0
    2.5237   -2.1374   -1.3907 N   0  3  0  0  0  0  0  0  0  0  0  0
    2.7718   -1.6115   -2.2337 H   0  0  0  0  0  0  0  0  0  0  0  0
    3.2428   -3.0922   -0.7680 C   0  0  0  0  0  0  0  0  0  0  0  0
    4.1937   -3.4911   -1.1154 H   0  0  0  0  0  0  0  0  0  0  0  0
    2.5912   -3.4515    0.3611 N   0  0  0  0  0  0  0  0  0  0  0  0
    2.9004   -4.1497    1.0322 H   0  0  0  0  0  0  0  0  0  0  0  0
    1.4264   -2.7027    0.4565 C   0  0  0  0  0  0  0  0  0  0  0  0
    0.6805   -2.7488    1.2452 H   0  0  0  0  0  0  0  0  0  0  0  0
   -0.4874    1.2908    0.1962 C   0  0  0  0  0  0  0  0  0  0  0  0
   -1.3116    1.8673   -0.5151 O   0  0  0  0  0  0  0  0  0  0  0  0
    0.3889    1.9422    0.9708 N   0  0  0  0  0  0  0  0  0  0  0  0
    1.0197    1.3866    1.5283 H   0  0  0  0  0  0  0  0  0  0  0  0
    0.5081    3.3999    1.0720 C   0  0  0  0  0  0  0  0  0  0  0  0
    0.0188    3.7538    1.9817 H   0  0  0  0  0  0  0  0  0  0  0  0
    1.5607    3.6858    1.1098 H   0  0  0  0  0  0  0  0  0  0  0  0
    0.0459    3.8890    0.2119 H   0  0  0  0  0  0  0  0  0  0  0  0
  5  6  2  0  0  0  0
  5  7  1  0  0  0  0
  2  3  1  0  0  0  0
  2  4  1  0  0  0  0
  2  5  1  0  0  0  0
  1  2  1  0  0  0  0
 23 24  2  0  0  0  0
 23 25  1  0  0  0  0
 21 22  1  0  0  0  0
 19 20  1  0  0  0  0
 19 21  1  0  0  0  0
 17 18  1  0  0  0  0
 17 19  1  0  0  0  0
 15 16  1  0  0  0  0
 15 17  2  0  0  0  0
 14 15  1  0  0  0  0
 14 21  2  0  0  0  0
 11 12  1  0  0  0  0
 11 13  1  0  0  0  0
 11 14  1  0  0  0  0
  9 10  1  0  0  0  0
  9 11  1  0  0  0  0
  9 23  1  0  0  0  0
  7  8  1  0  0  0  0
  7  9  1  0  0  0  0
 27 28  1  0  0  0  0
 27 29  1  0  0  0  0
 27 30  1  0  0  0  0
 25 26  1  0  0  0  0
 25 27  1  0  0  0  0
M  CHG  1  15   1
M  END
$$$$
default_name
  -OEChem-02102213163D

 30 30  0     1  0  0  0  0  0999 V2000
   -3.5507   -3.2183    1.8116 H   0  0  0  0  0  0  0  0  0  0  0  0
   -3.4597   -2.3913    1.1076 C   0  0  0  0  0  0  0  0  0  0  0  0
   -4.1577   -1.6043    1.3866 H   0  0  0  0  0  0  0  0  0  0  0  0
   -3.6807   -2.7523    0.1036 H   0  0  0  0  0  0  0  0  0  0  0  0
   -2.0477   -1.8543    1.1546 C   0  0  0  0  0  0  0  0  0  0  0  0
   -1.2227   -2.3443    1.9146 O   0  0  0  0  0  0  0  0  0  0  0  0
   -1.7517   -0.8483    0.3266 N   0  0  0  0  0  0  0  0  0  0  0  0
   -2.4847   -0.5123   -0.2804 H   0  0  0  0  0  0  0  0  0  0  0  0
   -0.4117   -0.2463    0.2186 C   0  0  1  0  0  0  0  0  0  0  0  0
    0.1554   -0.5152    1.1133 H   0  0  0  0  0  0  0  0  0  0  0  0
    0.3164   -0.8780   -0.9905 C   0  0  0  0  0  0  0  0  0  0  0  0
   -0.4256   -1.3659   -1.6277 H   0  0  0  0  0  0  0  0  0  0  0  0
    0.7752   -0.0837   -1.5831 H   0  0  0  0  0  0  0  0  0  0  0  0
    1.3918   -1.8845   -0.6402 C   0  0  0  0  0  0  0  0  0  0  0  0
    2.6487   -1.9411   -1.2106 N   0  3  0  0  0  0  0  0  0  0  0  0
    2.9930   -1.2549   -1.8884 H   0  0  0  0  0  0  0  0  0  0  0  0
    3.3246   -2.9640   -0.6507 C   0  0  0  0  0  0  0  0  0  0  0  0
    4.3476   -3.2480   -0.8892 H   0  0  0  0  0  0  0  0  0  0  0  0
    2.5234   -3.5585    0.2620 N   0  0  0  0  0  0  0  0  0  0  0  0
    2.7687   -4.3568    0.8417 H   0  0  0  0  0  0  0  0  0  0  0  0
    1.3055   -2.8930    0.2812 C   0  0  0  0  0  0  0  0  0  0  0  0
    0.4444   -3.1200    0.9037 H   0  0  0  0  0  0  0  0  0  0  0  0
   -0.4874    1.2908    0.1962 C   0  0  0  0  0  0  0  0  0  0  0  0
   -1.3116    1.8673   -0.5151 O   0  0  0  0  0  0  0  0  0  0  0  0
    0.3889    1.9422    0.9708 N   0  0  0  0  0  0  0  0  0  0  0  0
    1.0197    1.3866    1.5283 H   0  0  0  0  0  0  0  0  0  0  0  0
    0.5081    3.3999    1.0720 C   0  0  0  0  0  0  0  0  0  0  0  0
    0.0188    3.7538    1.9817 H   0  0  0  0  0  0  0  0  0  0  0  0
    1.5607    3.6858    1.1098 H   0  0  0  0  0  0  0  0  0  0  0  0
    0.0459    3.8890    0.2119 H   0  0  0  0  0  0  0  0  0  0  0  0
  5  6  2  0  0  0  0
  5  7  1  0  0  0  0
  2  3  1  0  0  0  0
  2  4  1  0  0  0  0
  2  5  1  0  0  0  0
  1  2  1  0  0  0  0
 23 24  2  0  0  0  0
 23 25  1  0  0  0  0
 21 22  1  0  0  0  0
 19 20  1  0  0  0  0
 19 21  1  0  0  0  0
 17 18  1  0  0  0  0
 17 19  1  0  0  0  0
 15 16  1  0  0  0  0
 15 17  2  0  0  0  0
 14 15  1  0  0  0  0
 14 21  2  0  0  0  0
 11 12  1  0  0  0  0
 11 13  1  0  0  0  0
 11 14  1  0  0  0  0
  9 10  1  0  0  0  0
  9 11  1  0  0  0  0
  9 23  1  0  0  0  0
  7  8  1  0  0  0  0
  7  9  1  0  0  0  0
 27 28  1  0  0  0  0
 27 29  1  0  0  0  0
 27 30  1  0  0  0  0
 25 26  1  0  0  0  0
 25 27  1  0  0  0  0
M  CHG  1  15   1
M  END
$$$$
default_name
  -OEChem-02102213163D

 30 30  0     1  0  0  0  0  0999 V2000
   -3.5507   -3.2183    1.8116 H   0  0  0  0  0  0  0  0  0  0  0  0
   -3.4597   -2.3913    1.1076 C   0  0  0  0  0  0  0  0  0  0  0  0
   -4.1577   -1.6043    1.3866 H   0  0  0  0  0  0  0  0  0  0  0  0
   -3.6807   -2.7523    0.1036 H   0  0  0  0  0  0  0  0  0  0  0  0
   -2.0477   -1.8543    1.1546 C   0  0  0  0  0  0  0  0  0  0  0  0
   -1.2227   -2.3443    1.9146 O   0  0  0  0  0  0  0  0  0  0  0  0
   -1.7517   -0.8483    0.3266 N   0  0  0  0  0  0  0  0  0  0  0  0
   -2.4847   -0.5123   -0.2804 H   0  0  0  0  0  0  0  0  0  0  0  0
   -0.4117   -0.2463    0.2186 C   0  0  1  0  0  0  0  0  0  0  0  0
    0.1554   -0.5152    1.1133 H   0  0  0  0  0  0  0  0  0  0  0  0
    0.3164   -0.8780   -0.9905 C   0  0  0  0  0  0  0  0  0  0  0  0
   -0.4256   -1.3659   -1.6277 H   0  0  0  0  0  0  0  0  0  0  0  0
    0.7752   -0.0837   -1.5831 H   0  0  0  0  0  0  0  0  0  0  0  0
    1.3918   -1.8845   -0.6402 C   0  0  0  0  0  0  0  0  0  0  0  0
    2.7267   -1.7771   -0.9790 N   0  3  0  0  0  0  0  0  0  0  0  0
    3.1259   -0.9608   -1.4512 H   0  0  0  0  0  0  0  0  0  0  0  0
    3.3757   -2.8568   -0.4998 C   0  0  0  0  0  0  0  0  0  0  0  0
    4.4427   -3.0455   -0.5996 H   0  0  0  0  0  0  0  0  0  0  0  0
    2.4813   -3.6477    0.1350 N   0  0  0  0  0  0  0  0  0  0  0  0
    2.6866   -4.5296    0.5970 H   0  0  0  0  0  0  0  0  0  0  0  0
    1.2302   -3.0518    0.0560 C   0  0  0  0  0  0  0  0  0  0  0  0
    0.2973   -3.4299    0.4649 H   0  0  0  0  0  0  0  0  0  0  0  0
   -0.4874    1.2908    0.1962 C   0  0  0  0  0  0  0  0  0  0  0  0
   -1.3116    1.8673   -0.5151 O   0  0  0  0  0  0  0  0  0  0  0  0
    0.3889    1.9422    0.9708 N   0  0  0  0  0  0  0  0  0  0  0  0
    1.0197    1.3866    1.5283 H   0  0  0  0  0  0  0  0  0  0  0  0
    0.5081    3.3999    1.0720 C   0  0  0  0  0  0  0  0  0  0  0  0
    0.0188    3.7538    1.9817 H   0  0  0  0  0  0  0  0  0  0  0  0
    1.5607    3.6858    1.1098 H   0  0  0  0  0  0  0  0  0  0  0  0
    0.0459    3.8890    0.2119 H   0  0  0  0  0  0  0  0  0  0  0  0
  5  6  2  0  0  0  0
  5  7  1  0  0  0  0
  2  3  1  0  0  0  0
  2  4  1  0  0  0  0
  2  5  1  0  0  0  0
  1  2  1  0  0  0  0
 23 24  2  0  0  0  0
 23 25  1  0  0  0  0
 21 22  1  0  0  0  0
 19 20  1  0  0  0  0
 19 21  1  0  0  0  0
 17 18  1  0  0  0  0
 17 19  1  0  0  0  0
 15 16  1  0  0  0  0
 15 17  2  0  0  0  0
 14 15  1  0  0  0  0
 14 21  2  0  0  0  0
 11 12  1  0  0  0  0
 11 13  1  0  0  0  0
 11 14  1  0  0  0  0
  9 10  1  0  0  0  0
  9 11  1  0  0  0  0
  9 23  1  0  0  0  0
  7  8  1  0  0  0  0
  7  9  1  0  0  0  0
 27 28  1  0  0  0  0
 27 29  1  0  0  0  0
 27 30  1  0  0  0  0
 25 26  1  0  0  0  0
 25 27  1  0  0  0  0
M  CHG  1  15   1
M  END
$$$$
default_name
  -OEChem-02102213163D

 30 30  0     1  0  0  0  0  0999 V2000
   -3.5507   -3.2183    1.8116 H   0  0  0  0  0  0  0  0  0  0  0  0
   -3.4597   -2.3913    1.1076 C   0  0  0  0  0  0  0  0  0  0  0  0
   -4.1577   -1.6043    1.3866 H   0  0  0  0  0  0  0  0  0  0  0  0
   -3.6807   -2.7523    0.1036 H   0  0  0  0  0  0  0  0  0  0  0  0
   -2.0477   -1.8543    1.1546 C   0  0  0  0  0  0  0  0  0  0  0  0
   -1.2227   -2.3443    1.9146 O   0  0  0  0  0  0  0  0  0  0  0  0
   -1.7517   -0.8483    0.3266 N   0  0  0  0  0  0  0  0  0  0  0  0
   -2.4847   -0.5123   -0.2804 H   0  0  0  0  0  0  0  0  0  0  0  0
   -0.4117   -0.2463    0.2186 C   0  0  1  0  0  0  0  0  0  0  0  0
    0.1554   -0.5152    1.1133 H   0  0  0  0  0  0  0  0  0  0  0  0
    0.3164   -0.8780   -0.9905 C   0  0  0  0  0  0  0  0  0  0  0  0
   -0.4256   -1.3659   -1.6277 H   0  0  0  0  0  0  0  0  0  0  0  0
    0.7752   -0.0837   -1.5831 H   0  0  0  0  0  0  0  0  0  0  0  0
    1.3918   -1.8845   -0.6402 C   0  0  0  0  0  0  0  0  0  0  0  0
    2.7524   -1.6566   -0.7118 N   0  3  0  0  0  0  0  0  0  0  0  0
    3.1615   -0.7490   -0.9520 H   0  0  0  0  0  0  0  0  0  0  0  0
    3.3927   -2.7780   -0.3255 C   0  0  0  0  0  0  0  0  0  0  0  0
    4.4727   -2.8974   -0.2662 H   0  0  0  0  0  0  0  0  0  0  0  0
    2.4678   -3.7130   -0.0114 N   0  0  0  0  0  0  0  0  0  0  0  0
    2.6598   -4.6566    0.3147 H   0  0  0  0  0  0  0  0  0  0  0  0
    1.2057   -3.1683   -0.2036 C   0  0  0  0  0  0  0  0  0  0  0  0
    0.2492   -3.6574   -0.0412 H   0  0  0  0  0  0  0  0  0  0  0  0
   -0.4874    1.2908    0.1962 C   0  0  0  0  0  0  0  0  0  0  0  0
   -1.3116    1.8673   -0.5151 O   0  0  0  0  0  0  0  0  0  0  0  0
    0.3889    1.9422    0.9708 N   0  0  0  0  0  0  0  0  0  0  0  0
    1.0197    1.3866    1.5283 H   0  0  0  0  0  0  0  0  0  0  0  0
    0.5081    3.3999    1.0720 C   0  0  0  0  0  0  0  0  0  0  0  0
    0.0188    3.7538    1.9817 H   0  0  0  0  0  0  0  0  0  0  0  0
    1.5607    3.6858    1.1098 H   0  0  0  0  0  0  0  0  0  0  0  0
    0.0459    3.8890    0.2119 H   0  0  0  0  0  0  0  0  0  0  0  0
  5  6  2  0  0  0  0
  5  7  1  0  0  0  0
  2  3  1  0  0  0  0
  2  4  1  0  0  0  0
  2  5  1  0  0  0  0
  1  2  1  0  0  0  0
 23 24  2  0  0  0  0
 23 25  1  0  0  0  0
 21 22  1  0  0  0  0
 19 20  1  0  0  0  0
 19 21  1  0  0  0  0
 17 18  1  0  0  0  0
 17 19  1  0  0  0  0
 15 16  1  0  0  0  0
 15 17  2  0  0  0  0
 14 15  1  0  0  0  0
 14 21  2  0  0  0  0
 11 12  1  0  0  0  0
 11 13  1  0  0  0  0
 11 14  1  0  0  0  0
  9 10  1  0  0  0  0
  9 11  1  0  0  0  0
  9 23  1  0  0  0  0
  7  8  1  0  0  0  0
  7  9  1  0  0  0  0
 27 28  1  0  0  0  0
 27 29  1  0  0  0  0
 27 30  1  0  0  0  0
 25 26  1  0  0  0  0
 25 27  1  0  0  0  0
M  CHG  1  15   1
M  END
$$$$
default_name
  -OEChem-02102213163D

 30 30  0     1  0  0  0  0  0999 V2000
   -3.5507   -3.2183    1.8116 H   0  0  0  0  0  0  0  0  0  0  0  0
   -3.4597   -2.3913    1.1076 C   0  0  0  0  0  0  0  0  0  0  0  0
   -4.1577   -1.6043    1.3866 H   0  0  0  0  0  0  0  0  0  0  0  0
   -3.6807   -2.7523    0.1036 H   0  0  0  0  0  0  0  0  0  0  0  0
   -2.0477   -1.8543    1.1546 C   0  0  0  0  0  0  0  0  0  0  0  0
   -1.2227   -2.3443    1.9146 O   0  0  0  0  0  0  0  0  0  0  0  0
   -1.7517   -0.8483    0.3266 N   0  0  0  0  0  0  0  0  0  0  0  0
   -2.4847   -0.5123   -0.2804 H   0  0  0  0  0  0  0  0  0  0  0  0
   -0.4117   -0.2463    0.2186 C   0  0  1  0  0  0  0  0  0  0  0  0
    0.1554   -0.5152    1.1133 H   0  0  0  0  0  0  0  0  0  0  0  0
    0.3164   -0.8780   -0.9905 C   0  0  0  0  0  0  0  0  0  0  0  0
   -0.4256   -1.3659   -1.6277 H   0  0  0  0  0  0  0  0  0  0  0  0
    0.7752   -0.0837   -1.5831 H   0  0  0  0  0  0  0  0  0  0  0  0
    1.3918   -1.8845   -0.6402 C   0  0  0  0  0  0  0  0  0  0  0  0
    2.7241   -1.5878   -0.4270 N   0  3  0  0  0  0  0  0  0  0  0  0
    3.0972   -0.6341   -0.4247 H   0  0  0  0  0  0  0  0  0  0  0  0
    3.3745   -2.7328   -0.1397 C   0  0  0  0  0  0  0  0  0  0  0  0
    4.4354   -2.8139    0.0881 H   0  0  0  0  0  0  0  0  0  0  0  0
    2.4839   -3.7500   -0.1671 N   0  0  0  0  0  0  0  0  0  0  0  0
    2.6901   -4.7289    0.0141 H   0  0  0  0  0  0  0  0  0  0  0  0
    1.2337   -3.2346   -0.4800 C   0  0  0  0  0  0  0  0  0  0  0  0
    0.3035   -3.7870   -0.5802 H   0  0  0  0  0  0  0  0  0  0  0  0
   -0.4874    1.2908    0.1962 C   0  0  0  0  0  0  0  0  0  0  0  0
   -1.3116    1.8673   -0.5151 O   0  0  0  0  0  0  0  0  0  0  0  0
    0.3889    1.9422    0.9708 N   0  0  0  0  0  0  0  0  0  0  0  0
    1.0197    1.3866    1.5283 H   0  0  0  0  0  0  0  0  0  0  0  0
    0.5081    3.3999    1.0720 C   0  0  0  0  0  0  0  0  0  0  0  0
    0.0188    3.7538    1.9817 H   0  0  0  0  0  0  0  0  0  0  0  0
    1.5607    3.6858    1.1098 H   0  0  0  0  0  0  0  0  0  0  0  0
    0.0459    3.8890    0.2119 H   0  0  0  0  0  0  0  0  0  0  0  0
  5  6  2  0  0  0  0
  5  7  1  0  0  0  0
  2  3  1  0  0  0  0
  2  4  1  0  0  0  0
  2  5  1  0  0  0  0
  1  2  1  0  0  0  0
 23 24  2  0  0  0  0
 23 25  1  0  0  0  0
 21 22  1  0  0  0  0
 19 20  1  0  0  0  0
 19 21  1  0  0  0  0
 17 18  1  0  0  0  0
 17 19  1  0  0  0  0
 15 16  1  0  0  0  0
 15 17  2  0  0  0  0
 14 15  1  0  0  0  0
 14 21  2  0  0  0  0
 11 12  1  0  0  0  0
 11 13  1  0  0  0  0
 11 14  1  0  0  0  0
  9 10  1  0  0  0  0
  9 11  1  0  0  0  0
  9 23  1  0  0  0  0
  7  8  1  0  0  0  0
  7  9  1  0  0  0  0
 27 28  1  0  0  0  0
 27 29  1  0  0  0  0
 27 30  1  0  0  0  0
 25 26  1  0  0  0  0
 25 27  1  0  0  0  0
M  CHG  1  15   1
M  END
$$$$
default_name
  -OEChem-02102213163D

 30 30  0     1  0  0  0  0  0999 V2000
   -3.5507   -3.2183    1.8116 H   0  0  0  0  0  0  0  0  0  0  0  0
   -3.4597   -2.3913    1.1076 C   0  0  0  0  0  0  0  0  0  0  0  0
   -4.1577   -1.6043    1.3866 H   0  0  0  0  0  0  0  0  0  0  0  0
   -3.6807   -2.7523    0.1036 H   0  0  0  0  0  0  0  0  0  0  0  0
   -2.0477   -1.8543    1.1546 C   0  0  0  0  0  0  0  0  0  0  0  0
   -1.2227   -2.3443    1.9146 O   0  0  0  0  0  0  0  0  0  0  0  0
   -1.7517   -0.8483    0.3266 N   0  0  0  0  0  0  0  0  0  0  0  0
   -2.4847   -0.5123   -0.2804 H   0  0  0  0  0  0  0  0  0  0  0  0
   -0.4117   -0.2463    0.2186 C   0  0  1  0  0  0  0  0  0  0  0  0
    0.1554   -0.5152    1.1133 H   0  0  0  0  0  0  0  0  0  0  0  0
    0.3164   -0.8780   -0.9905 C   0  0  0  0  0  0  0  0  0  0  0  0
   -0.4256   -1.3659   -1.6277 H   0  0  0  0  0  0  0  0  0  0  0  0
    0.7752   -0.0837   -1.5831 H   0  0  0  0  0  0  0  0  0  0  0  0
    1.3918   -1.8845   -0.6402 C   0  0  0  0  0  0  0  0  0  0  0  0
    2.6435   -1.5754   -0.1442 N   0  3  0  0  0  0  0  0  0  0  0  0
    2.9376   -0.6240    0.0946 H   0  0  0  0  0  0  0  0  0  0  0  0
    3.3222   -2.7245    0.0449 C   0  0  0  0  0  0  0  0  0  0  0  0
    4.3334   -2.8006    0.4394 H   0  0  0  0  0  0  0  0  0  0  0  0
    2.5285   -3.7561   -0.3215 N   0  0  0  0  0  0  0  0  0  0  0  0
    2.7753   -4.7416   -0.2843 H   0  0  0  0  0  0  0  0  0  0  0  0
    1.3123   -3.2461   -0.7544 C   0  0  0  0  0  0  0  0  0  0  0  0
    0.4564   -3.8099   -1.1152 H   0  0  0  0  0  0  0  0  0  0  0  0
   -0.4874    1.2908    0.1962 C   0  0  0  0  0  0  0  0  0  0  0  0
   -1.3116    1.8673   -0.5151 O   0  0  0  0  0  0  0  0  0  0  0  0
    0.3889    1.9422    0.9708 N   0  0  0  0  0  0  0  0  0  0  0  0
    1.0197    1.3866    1.5283 H   0  0  0  0  0  0  0  0  0  0  0  0
    0.5081    3.3999    1.0720 C   0  0  0  0  0  0  0  0  0  0  0  0
    0.0188    3.7538    1.9817 H   0  0  0  0  0  0  0  0  0  0  0  0
    1.5607    3.6858    1.1098 H   0  0  0  0  0  0  0  0  0  0  0  0
    0.0459    3.8890    0.2119 H   0  0  0  0  0  0  0  0  0  0  0  0
  5  6  2  0  0  0  0
  5  7  1  0  0  0  0
  2  3  1  0  0  0  0
  2  4  1  0  0  0  0
  2  5  1  0  0  0  0
  1  2  1  0  0  0  0
 23 24  2  0  0  0  0
 23 25  1  0  0  0  0
 21 22  1  0  0  0  0
 19 20  1  0  0  0  0
 19 21  1  0  0  0  0
 17 18  1  0  0  0  0
 17 19  1  0  0  0  0
 15 16  1  0  0  0  0
 15 17  2  0  0  0  0
 14 15  1  0  0  0  0
 14 21  2  0  0  0  0
 11 12  1  0  0  0  0
 11 13  1  0  0  0  0
 11 14  1  0  0  0  0
  9 10  1  0  0  0  0
  9 11  1  0  0  0  0
  9 23  1  0  0  0  0
  7  8  1  0  0  0  0
  7  9  1  0  0  0  0
 27 28  1  0  0  0  0
 27 29  1  0  0  0  0
 27 30  1  0  0  0  0
 25 26  1  0  0  0  0
 25 27  1  0  0  0  0
M  CHG  1  15   1
M  END
$$$$
default_name
  -OEChem-02102213163D

 30 30  0     1  0  0  0  0  0999 V2000
   -3.5507   -3.2183    1.8116 H   0  0  0  0  0  0  0  0  0  0  0  0
   -3.4597   -2.3913    1.1076 C   0  0  0  0  0  0  0  0  0  0  0  0
   -4.1577   -1.6043    1.3866 H   0  0  0  0  0  0  0  0  0  0  0  0
   -3.6807   -2.7523    0.1036 H   0  0  0  0  0  0  0  0  0  0  0  0
   -2.0477   -1.8543    1.1546 C   0  0  0  0  0  0  0  0  0  0  0  0
   -1.2227   -2.3443    1.9146 O   0  0  0  0  0  0  0  0  0  0  0  0
   -1.7517   -0.8483    0.3266 N   0  0  0  0  0  0  0  0  0  0  0  0
   -2.4847   -0.5123   -0.2804 H   0  0  0  0  0  0  0  0  0  0  0  0
   -0.4117   -0.2463    0.2186 C   0  0  1  0  0  0  0  0  0  0  0  0
    0.1554   -0.5152    1.1133 H   0  0  0  0  0  0  0  0  0  0  0  0
    0.3164   -0.8780   -0.9905 C   0  0  0  0  0  0  0  0  0  0  0  0
   -0.4256   -1.3659   -1.6277 H   0  0  0  0  0  0  0  0  0  0  0  0
    0.7752   -0.0837   -1.5831 H   0  0  0  0  0  0  0  0  0  0  0  0
    1.3918   -1.8845   -0.6402 C   0  0  0  0  0  0  0  0  0  0  0  0
    2.5164   -1.6202    0.1174 N   0  3  0  0  0  0  0  0  0  0  0  0
    2.6934   -0.7192    0.5707 H   0  0  0  0  0  0  0  0  0  0  0  0
    3.2394   -2.7535    0.2157 C   0  0  0  0  0  0  0  0  0  0  0  0
    4.1736   -2.8585    0.7635 H   0  0  0  0  0  0  0  0  0  0  0  0
    2.5984   -3.7310   -0.4641 N   0  0  0  0  0  0  0  0  0  0  0  0
    2.9098   -4.6940   -0.5603 H   0  0  0  0  0  0  0  0  0  0  0  0
    1.4361   -3.2021   -1.0080 C   0  0  0  0  0  0  0  0  0  0  0  0
    0.6976   -3.7244   -1.6099 H   0  0  0  0  0  0  0  0  0  0  0  0
   -0.4874    1.2908    0.1962 C   0  0  0  0  0  0  0  0  0  0  0  0
   -1.3116    1.8673   -0.5151 O   0  0  0  0  0  0  0  0  0  0  0  0
    0.3889    1.9422    0.9708 N   0  0  0  0  0  0  0  0  0  0  0  0
    1.0197    1.3866    1.5283 H   0  0  0  0  0  0  0  0  0  0  0  0
    0.5081    3.3999    1.0720 C   0  0  0  0  0  0  0  0  0  0  0  0
    0.0188    3.7538    1.9817 H   0  0  0  0  0  0  0  0  0  0  0  0
    1.5607    3.6858    1.1098 H   0  0  0  0  0  0  0  0  0  0  0  0
    0.0459    3.8890    0.2119 H   0  0  0  0  0  0  0  0  0  0  0  0
  5  6  2  0  0  0  0
  5  7  1  0  0  0  0
  2  3  1  0  0  0  0
  2  4  1  0  0  0  0
  2  5  1  0  0  0  0
  1  2  1  0  0  0  0
 23 24  2  0  0  0  0
 23 25  1  0  0  0  0
 21 22  1  0  0  0  0
 19 20  1  0  0  0  0
 19 21  1  0  0  0  0
 17 18  1  0  0  0  0
 17 19  1  0  0  0  0
 15 16  1  0  0  0  0
 15 17  2  0  0  0  0
 14 15  1  0  0  0  0
 14 21  2  0  0  0  0
 11 12  1  0  0  0  0
 11 13  1  0  0  0  0
 11 14  1  0  0  0  0
  9 10  1  0  0  0  0
  9 11  1  0  0  0  0
  9 23  1  0  0  0  0
  7  8  1  0  0  0  0
  7  9  1  0  0  0  0
 27 28  1  0  0  0  0
 27 29  1  0  0  0  0
 27 30  1  0  0  0  0
 25 26  1  0  0  0  0
 25 27  1  0  0  0  0
M  CHG  1  15   1
M  END
$$$$
default_name
  -OEChem-02102213163D

 30 30  0     1  0  0  0  0  0999 V2000
   -3.5507   -3.2183    1.8116 H   0  0  0  0  0  0  0  0  0  0  0  0
   -3.4597   -2.3913    1.1076 C   0  0  0  0  0  0  0  0  0  0  0  0
   -4.1577   -1.6043    1.3866 H   0  0  0  0  0  0  0  0  0  0  0  0
   -3.6807   -2.7523    0.1036 H   0  0  0  0  0  0  0  0  0  0  0  0
   -2.0477   -1.8543    1.1546 C   0  0  0  0  0  0  0  0  0  0  0  0
   -1.2227   -2.3443    1.9146 O   0  0  0  0  0  0  0  0  0  0  0  0
   -1.7517   -0.8483    0.3266 N   0  0  0  0  0  0  0  0  0  0  0  0
   -2.4847   -0.5123   -0.2804 H   0  0  0  0  0  0  0  0  0  0  0  0
   -0.4117   -0.2463    0.2186 C   0  0  1  0  0  0  0  0  0  0  0  0
    0.1554   -0.5152    1.1133 H   0  0  0  0  0  0  0  0  0  0  0  0
    0.3164   -0.8780   -0.9905 C   0  0  0  0  0  0  0  0  0  0  0  0
   -0.4256   -1.3659   -1.6277 H   0  0  0  0  0  0  0  0  0  0  0  0
    0.7752   -0.0837   -1.5831 H   0  0  0  0  0  0  0  0  0  0  0  0
    1.3918   -1.8845   -0.6402 C   0  0  0  0  0  0  0  0  0  0  0  0
    2.3512   -1.7192    0.3399 N   0  3  0  0  0  0  0  0  0  0  0  0
    2.3813   -0.9133    0.9710 H   0  0  0  0  0  0  0  0  0  0  0  0
    3.1317   -2.8179    0.3611 C   0  0  0  0  0  0  0  0  0  0  0  0
    3.9670   -2.9835    1.0385 H   0  0  0  0  0  0  0  0  0  0  0  0
    2.6891   -3.6763   -0.5852 N   0  0  0  0  0  0  0  0  0  0  0  0
    3.0844   -4.5892   -0.7949 H   0  0  0  0  0  0  0  0  0  0  0  0
    1.5967   -3.1056   -1.2236 C   0  0  0  0  0  0  0  0  0  0  0  0
    1.0105   -3.5365   -2.0306 H   0  0  0  0  0  0  0  0  0  0  0  0
   -0.4874    1.2908    0.1962 C   0  0  0  0  0  0  0  0  0  0  0  0
   -1.3116    1.8673   -0.5151 O   0  0  0  0  0  0  0  0  0  0  0  0
    0.3889    1.9422    0.9708 N   0  0  0  0  0  0  0  0  0  0  0  0
    1.0197    1.3866    1.5283 H   0  0  0  0  0  0  0  0  0  0  0  0
    0.5081    3.3999    1.0720 C   0  0  0  0  0  0  0  0  0  0  0  0
    0.0188    3.7538    1.9817 H   0  0  0  0  0  0  0  0  0  0  0  0
    1.5607    3.6858    1.1098 H   0  0  0  0  0  0  0  0  0  0  0  0
    0.0459    3.8890    0.2119 H   0  0  0  0  0  0  0  0  0  0  0  0
  5  6  2  0  0  0  0
  5  7  1  0  0  0  0
  2  3  1  0  0  0  0
  2  4  1  0  0  0  0
  2  5  1  0  0  0  0
  1  2  1  0  0  0  0
 23 24  2  0  0  0  0
 23 25  1  0  0  0  0
 21 22  1  0  0  0  0
 19 20  1  0  0  0  0
 19 21  1  0  0  0  0
 17 18  1  0  0  0  0
 17 19  1  0  0  0  0
 15 16  1  0  0  0  0
 15 17  2  0  0  0  0
 14 15  1  0  0  0  0
 14 21  2  0  0  0  0
 11 12  1  0  0  0  0
 11 13  1  0  0  0  0
 11 14  1  0  0  0  0
  9 10  1  0  0  0  0
  9 11  1  0  0  0  0
  9 23  1  0  0  0  0
  7  8  1  0  0  0  0
  7  9  1  0  0  0  0
 27 28  1  0  0  0  0
 27 29  1  0  0  0  0
 27 30  1  0  0  0  0
 25 26  1  0  0  0  0
 25 27  1  0  0  0  0
M  CHG  1  15   1
M  END
$$$$
default_name
  -OEChem-02102213163D

 30 30  0     1  0  0  0  0  0999 V2000
   -3.5507   -3.2183    1.8116 H   0  0  0  0  0  0  0  0  0  0  0  0
   -3.4597   -2.3913    1.1076 C   0  0  0  0  0  0  0  0  0  0  0  0
   -4.1577   -1.6043    1.3866 H   0  0  0  0  0  0  0  0  0  0  0  0
   -3.6807   -2.7523    0.1036 H   0  0  0  0  0  0  0  0  0  0  0  0
   -2.0477   -1.8543    1.1546 C   0  0  0  0  0  0  0  0  0  0  0  0
   -1.2227   -2.3443    1.9146 O   0  0  0  0  0  0  0  0  0  0  0  0
   -1.7517   -0.8483    0.3266 N   0  0  0  0  0  0  0  0  0  0  0  0
   -2.4847   -0.5123   -0.2804 H   0  0  0  0  0  0  0  0  0  0  0  0
   -0.4117   -0.2463    0.2186 C   0  0  1  0  0  0  0  0  0  0  0  0
    0.1554   -0.5152    1.1133 H   0  0  0  0  0  0  0  0  0  0  0  0
    0.3164   -0.8780   -0.9905 C   0  0  0  0  0  0  0  0  0  0  0  0
   -0.4256   -1.3659   -1.6277 H   0  0  0  0  0  0  0  0  0  0  0  0
    0.7752   -0.0837   -1.5831 H   0  0  0  0  0  0  0  0  0  0  0  0
    1.3918   -1.8845   -0.6402 C   0  0  0  0  0  0  0  0  0  0  0  0
    2.1593   -1.8657    0.5083 N   0  3  0  0  0  0  0  0  0  0  0  0
    2.0226   -1.1930    1.2683 H   0  0  0  0  0  0  0  0  0  0  0  0
    3.0066   -2.9132    0.4713 C   0  0  0  0  0  0  0  0  0  0  0  0
    3.7276   -3.1673    1.2456 H   0  0  0  0  0  0  0  0  0  0  0  0
    2.7941   -3.5959   -0.6765 N   0  0  0  0  0  0  0  0  0  0  0  0
    3.2871   -4.4343   -0.9723 H   0  0  0  0  0  0  0  0  0  0  0  0
    1.7832   -2.9631   -1.3865 C   0  0  0  0  0  0  0  0  0  0  0  0
    1.3739   -3.2589   -2.3485 H   0  0  0  0  0  0  0  0  0  0  0  0
   -0.4874    1.2908    0.1962 C   0  0  0  0  0  0  0  0  0  0  0  0
   -1.3116    1.8673   -0.5151 O   0  0  0  0  0  0  0  0  0  0  0  0
    0.3889    1.9422    0.9708 N   0  0  0  0  0  0  0  0  0  0  0  0
    1.0197    1.3866    1.5283 H   0  0  0  0  0  0  0  0  0  0  0  0
    0.5081    3.3999    1.0720 C   0  0  0  0  0  0  0  0  0  0  0  0
    0.0188    3.7538    1.9817 H   0  0  0  0  0  0  0  0  0  0  0  0
    1.5607    3.6858    1.1098 H   0  0  0  0  0  0  0  0  0  0  0  0
    0.0459    3.8890    0.2119 H   0  0  0  0  0  0  0  0  0  0  0  0
  5  6  2  0  0  0  0
  5  7  1  0  0  0  0
  2  3  1  0  0  0  0
  2  4  1  0  0  0  0
  2  5  1  0  0  0  0
  1  2  1  0  0  0  0
 23 24  2  0  0  0  0
 23 25  1  0  0  0  0
 21 22  1  0  0  0  0
 19 20  1  0  0  0  0
 19 21  1  0  0  0  0
 17 18  1  0  0  0  0
 17 19  1  0  0  0  0
 15 16  1  0  0  0  0
 15 17  2  0  0  0  0
 14 15  1  0  0  0  0
 14 21  2  0  0  0  0
 11 12  1  0  0  0  0
 11 13  1  0  0  0  0
 11 14  1  0  0  0  0
  9 10  1  0  0  0  0
  9 11  1  0  0  0  0
  9 23  1  0  0  0  0
  7  8  1  0  0  0  0
  7  9  1  0  0  0  0
 27 28  1  0  0  0  0
 27 29  1  0  0  0  0
 27 30  1  0  0  0  0
 25 26  1  0  0  0  0
 25 27  1  0  0  0  0
M  CHG  1  15   1
M  END
$$$$
default_name
  -OEChem-02102213163D

 30 30  0     1  0  0  0  0  0999 V2000
   -3.5507   -3.2183    1.8116 H   0  0  0  0  0  0  0  0  0  0  0  0
   -3.4597   -2.3913    1.1076 C   0  0  0  0  0  0  0  0  0  0  0  0
   -4.1577   -1.6043    1.3866 H   0  0  0  0  0  0  0  0  0  0  0  0
   -3.6807   -2.7523    0.1036 H   0  0  0  0  0  0  0  0  0  0  0  0
   -2.0477   -1.8543    1.1546 C   0  0  0  0  0  0  0  0  0  0  0  0
   -1.2227   -2.3443    1.9146 O   0  0  0  0  0  0  0  0  0  0  0  0
   -1.7517   -0.8483    0.3266 N   0  0  0  0  0  0  0  0  0  0  0  0
   -2.4847   -0.5123   -0.2804 H   0  0  0  0  0  0  0  0  0  0  0  0
   -0.4117   -0.2463    0.2186 C   0  0  1  0  0  0  0  0  0  0  0  0
    0.1554   -0.5152    1.1133 H   0  0  0  0  0  0  0  0  0  0  0  0
    0.3164   -0.8780   -0.9905 C   0  0  0  0  0  0  0  0  0  0  0  0
   -0.4256   -1.3659   -1.6277 H   0  0  0  0  0  0  0  0  0  0  0  0
    0.7752   -0.0837   -1.5831 H   0  0  0  0  0  0  0  0  0  0  0  0
    1.3918   -1.8845   -0.6402 C   0  0  0  0  0  0  0  0  0  0  0  0
    1.9537   -2.0496    0.6110 N   0  3  0  0  0  0  0  0  0  0  0  0
    1.6417   -1.5394    1.4423 H   0  0  0  0  0  0  0  0  0  0  0  0
    2.8725   -3.0331    0.5386 C   0  0  0  0  0  0  0  0  0  0  0  0
    3.4717   -3.3971    1.3707 H   0  0  0  0  0  0  0  0  0  0  0  0
    2.9065   -3.4950   -0.7318 N   0  0  0  0  0  0  0  0  0  0  0  0
    3.5041   -4.2400   -1.0802 H   0  0  0  0  0  0  0  0  0  0  0  0
    1.9827   -2.7843   -1.4855 C   0  0  0  0  0  0  0  0  0  0  0  0
    1.7630   -2.9105   -2.5420 H   0  0  0  0  0  0  0  0  0  0  0  0
   -0.4874    1.2908    0.1962 C   0  0  0  0  0  0  0  0  0  0  0  0
   -1.3116    1.8673   -0.5151 O   0  0  0  0  0  0  0  0  0  0  0  0
    0.3889    1.9422    0.9708 N   0  0  0  0  0  0  0  0  0  0  0  0
    1.0197    1.3866    1.5283 H   0  0  0  0  0  0  0  0  0  0  0  0
    0.5081    3.3999    1.0720 C   0  0  0  0  0  0  0  0  0  0  0  0
    0.0188    3.7538    1.9817 H   0  0  0  0  0  0  0  0  0  0  0  0
    1.5607    3.6858    1.1098 H   0  0  0  0  0  0  0  0  0  0  0  0
    0.0459    3.8890    0.2119 H   0  0  0  0  0  0  0  0  0  0  0  0
  5  6  2  0  0  0  0
  5  7  1  0  0  0  0
  2  3  1  0  0  0  0
  2  4  1  0  0  0  0
  2  5  1  0  0  0  0
  1  2  1  0  0  0  0
 23 24  2  0  0  0  0
 23 25  1  0  0  0  0
 21 22  1  0  0  0  0
 19 20  1  0  0  0  0
 19 21  1  0  0  0  0
 17 18  1  0  0  0  0
 17 19  1  0  0  0  0
 15 16  1  0  0  0  0
 15 17  2  0  0  0  0
 14 15  1  0  0  0  0
 14 21  2  0  0  0  0
 11 12  1  0  0  0  0
 11 13  1  0  0  0  0
 11 14  1  0  0  0  0
  9 10  1  0  0  0  0
  9 11  1  0  0  0  0
  9 23  1  0  0  0  0
  7  8  1  0  0  0  0
  7  9  1  0  0  0  0
 27 28  1  0  0  0  0
 27 29  1  0  0  0  0
 27 30  1  0  0  0  0
 25 26  1  0  0  0  0
 25 27  1  0  0  0  0
M  CHG  1  15   1
M  END
$$$$
default_name
  -OEChem-02102213163D

 30 30  0     1  0  0  0  0  0999 V2000
   -3.5507   -3.2183    1.8116 H   0  0  0  0  0  0  0  0  0  0  0  0
   -3.4597   -2.3913    1.1076 C   0  0  0  0  0  0  0  0  0  0  0  0
   -4.1577   -1.6043    1.3866 H   0  0  0  0  0  0  0  0  0  0  0  0
   -3.6807   -2.7523    0.1036 H   0  0  0  0  0  0  0  0  0  0  0  0
   -2.0477   -1.8543    1.1546 C   0  0  0  0  0  0  0  0  0  0  0  0
   -1.2227   -2.3443    1.9146 O   0  0  0  0  0  0  0  0  0  0  0  0
   -1.7517   -0.8483    0.3266 N   0  0  0  0  0  0  0  0  0  0  0  0
   -2.4847   -0.5123   -0.2804 H   0  0  0  0  0  0  0  0  0  0  0  0
   -0.4117   -0.2463    0.2186 C   0  0  1  0  0  0  0  0  0  0  0  0
    0.1554   -0.5152    1.1133 H   0  0  0  0  0  0  0  0  0  0  0  0
    0.3164   -0.8780   -0.9905 C   0  0  0  0  0  0  0  0  0  0  0  0
   -0.4256   -1.3659   -1.6277 H   0  0  0  0  0  0  0  0  0  0  0  0
    0.7752   -0.0837   -1.5831 H   0  0  0  0  0  0  0  0  0  0  0  0
    1.3918   -1.8845   -0.6402 C   0  0  0  0  0  0  0  0  0  0  0  0
    1.7485   -2.2584    0.6410 N   0  3  0  0  0  0  0  0  0  0  0  0
    1.2647   -1.9288    1.4812 H   0  0  0  0  0  0  0  0  0  0  0  0
    2.7385   -3.1693    0.5585 C   0  0  0  0  0  0  0  0  0  0  0  0
    3.2168   -3.6575    1.4052 H   0  0  0  0  0  0  0  0  0  0  0  0
    3.0186   -3.3807   -0.7474 N   0  0  0  0  0  0  0  0  0  0  0  0
    3.7206   -4.0195   -1.1115 H   0  0  0  0  0  0  0  0  0  0  0  0
    2.1818   -2.5815   -1.5140 C   0  0  0  0  0  0  0  0  0  0  0  0
    2.1513   -2.5151   -2.5980 H   0  0  0  0  0  0  0  0  0  0  0  0
   -0.4874    1.2908    0.1962 C   0  0  0  0  0  0  0  0  0  0  0  0
   -1.3116    1.8673   -0.5151 O   0  0  0  0  0  0  0  0  0  0  0  0
    0.3889    1.9422    0.9708 N   0  0  0  0  0  0  0  0  0  0  0  0
    1.0197    1.3866    1.5283 H   0  0  0  0  0  0  0  0  0  0  0  0
    0.5081    3.3999    1.0720 C   0  0  0  0  0  0  0  0  0  0  0  0
    0.0188    3.7538    1.9817 H   0  0  0  0  0  0  0  0  0  0  0  0
    1.5607    3.6858    1.1098 H   0  0  0  0  0  0  0  0  0  0  0  0
    0.0459    3.8890    0.2119 H   0  0  0  0  0  0  0  0  0  0  0  0
  5  6  2  0  0  0  0
  5  7  1  0  0  0  0
  2  3  1  0  0  0  0
  2  4  1  0  0  0  0
  2  5  1  0  0  0  0
  1  2  1  0  0  0  0
 23 24  2  0  0  0  0
 23 25  1  0  0  0  0
 21 22  1  0  0  0  0
 19 20  1  0  0  0  0
 19 21  1  0  0  0  0
 17 18  1  0  0  0  0
 17 19  1  0  0  0  0
 15 16  1  0  0  0  0
 15 17  2  0  0  0  0
 14 15  1  0  0  0  0
 14 21  2  0  0  0  0
 11 12  1  0  0  0  0
 11 13  1  0  0  0  0
 11 14  1  0  0  0  0
  9 10  1  0  0  0  0
  9 11  1  0  0  0  0
  9 23  1  0  0  0  0
  7  8  1  0  0  0  0
  7  9  1  0  0  0  0
 27 28  1  0  0  0  0
 27 29  1  0  0  0  0
 27 30  1  0  0  0  0
 25 26  1  0  0  0  0
 25 27  1  0  0  0  0
M  CHG  1  15   1
M  END
$$$$
default_name
  -OEChem-02102213163D

 30 30  0     1  0  0  0  0  0999 V2000
   -3.5507   -3.2183    1.8116 H   0  0  0  0  0  0  0  0  0  0  0  0
   -3.4597   -2.3913    1.1076 C   0  0  0  0  0  0  0  0  0  0  0  0
   -4.1577   -1.6043    1.3866 H   0  0  0  0  0  0  0  0  0  0  0  0
   -3.6807   -2.7523    0.1036 H   0  0  0  0  0  0  0  0  0  0  0  0
   -2.0477   -1.8543    1.1546 C   0  0  0  0  0  0  0  0  0  0  0  0
   -1.2227   -2.3443    1.9146 O   0  0  0  0  0  0  0  0  0  0  0  0
   -1.7517   -0.8483    0.3266 N   0  0  0  0  0  0  0  0  0  0  0  0
   -2.4847   -0.5123   -0.2804 H   0  0  0  0  0  0  0  0  0  0  0  0
   -0.4117   -0.2463    0.2186 C   0  0  1  0  0  0  0  0  0  0  0  0
    0.1554   -0.5152    1.1133 H   0  0  0  0  0  0  0  0  0  0  0  0
    0.3164   -0.8780   -0.9905 C   0  0  0  0  0  0  0  0  0  0  0  0
   -0.4256   -1.3659   -1.6277 H   0  0  0  0  0  0  0  0  0  0  0  0
    0.7752   -0.0837   -1.5831 H   0  0  0  0  0  0  0  0  0  0  0  0
    1.3918   -1.8845   -0.6402 C   0  0  0  0  0  0  0  0  0  0  0  0
    1.5577   -2.4779    0.5963 N   0  3  0  0  0  0  0  0  0  0  0  0
    0.9170   -2.3346    1.3823 H   0  0  0  0  0  0  0  0  0  0  0  0
    2.6139   -3.3125    0.5296 C   0  0  0  0  0  0  0  0  0  0  0  0
    2.9803   -3.9305    1.3468 H   0  0  0  0  0  0  0  0  0  0  0  0
    3.1226   -3.2607   -0.7221 N   0  0  0  0  0  0  0  0  0  0  0  0
    3.9220   -3.7878   -1.0638 H   0  0  0  0  0  0  0  0  0  0  0  0
    2.3669   -2.3684   -1.4699 C   0  0  0  0  0  0  0  0  0  0  0  0
    2.5123   -2.0997   -2.5126 H   0  0  0  0  0  0  0  0  0  0  0  0
   -0.4874    1.2908    0.1962 C   0  0  0  0  0  0  0  0  0  0  0  0
   -1.3116    1.8673   -0.5151 O   0  0  0  0  0  0  0  0  0  0  0  0
    0.3889    1.9422    0.9708 N   0  0  0  0  0  0  0  0  0  0  0  0
    1.0197    1.3866    1.5283 H   0  0  0  0  0  0  0  0  0  0  0  0
    0.5081    3.3999    1.0720 C   0  0  0  0  0  0  0  0  0  0  0  0
    0.0188    3.7538    1.9817 H   0  0  0  0  0  0  0  0  0  0  0  0
    1.5607    3.6858    1.1098 H   0  0  0  0  0  0  0  0  0  0  0  0
    0.0459    3.8890    0.2119 H   0  0  0  0  0  0  0  0  0  0  0  0
  5  6  2  0  0  0  0
  5  7  1  0  0  0  0
  2  3  1  0  0  0  0
  2  4  1  0  0  0  0
  2  5  1  0  0  0  0
  1  2  1  0  0  0  0
 23 24  2  0  0  0  0
 23 25  1  0  0  0  0
 21 22  1  0  0  0  0
 19 20  1  0  0  0  0
 19 21  1  0  0  0  0
 17 18  1  0  0  0  0
 17 19  1  0  0  0  0
 15 16  1  0  0  0  0
 15 17  2  0  0  0  0
 14 15  1  0  0  0  0
 14 21  2  0  0  0  0
 11 12  1  0  0  0  0
 11 13  1  0  0  0  0
 11 14  1  0  0  0  0
  9 10  1  0  0  0  0
  9 11  1  0  0  0  0
  9 23  1  0  0  0  0
  7  8  1  0  0  0  0
  7  9  1  0  0  0  0
 27 28  1  0  0  0  0
 27 29  1  0  0  0  0
 27 30  1  0  0  0  0
 25 26  1  0  0  0  0
 25 27  1  0  0  0  0
M  CHG  1  15   1
M  END
$$$$
default_name
  -OEChem-02102213163D

 30 30  0     1  0  0  0  0  0999 V2000
   -3.5507   -3.2183    1.8116 H   0  0  0  0  0  0  0  0  0  0  0  0
   -3.4597   -2.3913    1.1076 C   0  0  0  0  0  0  0  0  0  0  0  0
   -4.1577   -1.6043    1.3866 H   0  0  0  0  0  0  0  0  0  0  0  0
   -3.6807   -2.7523    0.1036 H   0  0  0  0  0  0  0  0  0  0  0  0
   -2.0477   -1.8543    1.1546 C   0  0  0  0  0  0  0  0  0  0  0  0
   -1.2227   -2.3443    1.9146 O   0  0  0  0  0  0  0  0  0  0  0  0
   -1.7517   -0.8483    0.3266 N   0  0  0  0  0  0  0  0  0  0  0  0
   -2.4847   -0.5123   -0.2804 H   0  0  0  0  0  0  0  0  0  0  0  0
   -0.4117   -0.2463    0.2186 C   0  0  1  0  0  0  0  0  0  0  0  0
    0.1554   -0.5152    1.1133 H   0  0  0  0  0  0  0  0  0  0  0  0
    0.3164   -0.8780   -0.9905 C   0  0  0  0  0  0  0  0  0  0  0  0
   -0.4256   -1.3659   -1.6277 H   0  0  0  0  0  0  0  0  0  0  0  0
    0.7752   -0.0837   -1.5831 H   0  0  0  0  0  0  0  0  0  0  0  0
    1.3918   -1.8845   -0.6402 C   0  0  0  0  0  0  0  0  0  0  0  0
    1.3941   -2.6931    0.4799 N   0  3  0  0  0  0  0  0  0  0  0  0
    0.6226   -2.7292    1.1523 H   0  0  0  0  0  0  0  0  0  0  0  0
    2.5070   -3.4530    0.4540 C   0  0  0  0  0  0  0  0  0  0  0  0
    2.7781   -4.1978    1.1995 H   0  0  0  0  0  0  0  0  0  0  0  0
    3.2116   -3.1433   -0.6578 N   0  0  0  0  0  0  0  0  0  0  0  0
    4.0944   -3.5607   -0.9406 H   0  0  0  0  0  0  0  0  0  0  0  0
    2.5253   -2.1596   -1.3563 C   0  0  0  0  0  0  0  0  0  0  0  0
    2.8214   -1.6925   -2.2915 H   0  0  0  0  0  0  0  0  0  0  0  0
   -0.4874    1.2908    0.1962 C   0  0  0  0  0  0  0  0  0  0  0  0
   -1.3116    1.8673   -0.5151 O   0  0  0  0  0  0  0  0  0  0  0  0
    0.3889    1.9422    0.9708 N   0  0  0  0  0  0  0  0  0  0  0  0
    1.0197    1.3866    1.5283 H   0  0  0  0  0  0  0  0  0  0  0  0
    0.5081    3.3999    1.0720 C   0  0  0  0  0  0  0  0  0  0  0  0
    0.0188    3.7538    1.9817 H   0  0  0  0  0  0  0  0  0  0  0  0
    1.5607    3.6858    1.1098 H   0  0  0  0  0  0  0  0  0  0  0  0
    0.0459    3.8890    0.2119 H   0  0  0  0  0  0  0  0  0  0  0  0
  5  6  2  0  0  0  0
  5  7  1  0  0  0  0
  2  3  1  0  0  0  0
  2  4  1  0  0  0  0
  2  5  1  0  0  0  0
  1  2  1  0  0  0  0
 23 24  2  0  0  0  0
 23 25  1  0  0  0  0
 21 22  1  0  0  0  0
 19 20  1  0  0  0  0
 19 21  1  0  0  0  0
 17 18  1  0  0  0  0
 17 19  1  0  0  0  0
 15 16  1  0  0  0  0
 15 17  2  0  0  0  0
 14 15  1  0  0  0  0
 14 21  2  0  0  0  0
 11 12  1  0  0  0  0
 11 13  1  0  0  0  0
 11 14  1  0  0  0  0
  9 10  1  0  0  0  0
  9 11  1  0  0  0  0
  9 23  1  0  0  0  0
  7  8  1  0  0  0  0
  7  9  1  0  0  0  0
 27 28  1  0  0  0  0
 27 29  1  0  0  0  0
 27 30  1  0  0  0  0
 25 26  1  0  0  0  0
 25 27  1  0  0  0  0
M  CHG  1  15   1
M  END
$$$$
default_name
  -OEChem-02102213163D

 30 30  0     1  0  0  0  0  0999 V2000
   -3.5507   -3.2183    1.8116 H   0  0  0  0  0  0  0  0  0  0  0  0
   -3.4597   -2.3913    1.1076 C   0  0  0  0  0  0  0  0  0  0  0  0
   -4.1577   -1.6043    1.3866 H   0  0  0  0  0  0  0  0  0  0  0  0
   -3.6807   -2.7523    0.1036 H   0  0  0  0  0  0  0  0  0  0  0  0
   -2.0477   -1.8543    1.1546 C   0  0  0  0  0  0  0  0  0  0  0  0
   -1.2227   -2.3443    1.9146 O   0  0  0  0  0  0  0  0  0  0  0  0
   -1.7517   -0.8483    0.3266 N   0  0  0  0  0  0  0  0  0  0  0  0
   -2.4847   -0.5123   -0.2804 H   0  0  0  0  0  0  0  0  0  0  0  0
   -0.4117   -0.2463    0.2186 C   0  0  1  0  0  0  0  0  0  0  0  0
    0.1554   -0.5152    1.1133 H   0  0  0  0  0  0  0  0  0  0  0  0
    0.3164   -0.8780   -0.9905 C   0  0  0  0  0  0  0  0  0  0  0  0
   -0.4256   -1.3659   -1.6277 H   0  0  0  0  0  0  0  0  0  0  0  0
    0.7752   -0.0837   -1.5831 H   0  0  0  0  0  0  0  0  0  0  0  0
    1.3918   -1.8845   -0.6402 C   0  0  0  0  0  0  0  0  0  0  0  0
    1.2691   -2.8894    0.2998 N   0  3  0  0  0  0  0  0  0  0  0  0
    0.4014   -3.0858    0.8070 H   0  0  0  0  0  0  0  0  0  0  0  0
    2.4253   -3.5812    0.3367 C   0  0  0  0  0  0  0  0  0  0  0  0
    2.6243   -4.4409    0.9734 H   0  0  0  0  0  0  0  0  0  0  0  0
    3.2795   -3.0363   -0.5587 N   0  0  0  0  0  0  0  0  0  0  0  0
    4.2261   -3.3536   -0.7501 H   0  0  0  0  0  0  0  0  0  0  0  0
    2.6463   -1.9693   -1.1810 C   0  0  0  0  0  0  0  0  0  0  0  0
    3.0575   -1.3213   -1.9500 H   0  0  0  0  0  0  0  0  0  0  0  0
   -0.4874    1.2908    0.1962 C   0  0  0  0  0  0  0  0  0  0  0  0
   -1.3116    1.8673   -0.5151 O   0  0  0  0  0  0  0  0  0  0  0  0
    0.3889    1.9422    0.9708 N   0  0  0  0  0  0  0  0  0  0  0  0
    1.0197    1.3866    1.5283 H   0  0  0  0  0  0  0  0  0  0  0  0
    0.5081    3.3999    1.0720 C   0  0  0  0  0  0  0  0  0  0  0  0
    0.0188    3.7538    1.9817 H   0  0  0  0  0  0  0  0  0  0  0  0
    1.5607    3.6858    1.1098 H   0  0  0  0  0  0  0  0  0  0  0  0
    0.0459    3.8890    0.2119 H   0  0  0  0  0  0  0  0  0  0  0  0
  5  6  2  0  0  0  0
  5  7  1  0  0  0  0
  2  3  1  0  0  0  0
  2  4  1  0  0  0  0
  2  5  1  0  0  0  0
  1  2  1  0  0  0  0
 23 24  2  0  0  0  0
 23 25  1  0  0  0  0
 21 22  1  0  0  0  0
 19 20  1  0  0  0  0
 19 21  1  0  0  0  0
 17 18  1  0  0  0  0
 17 19  1  0  0  0  0
 15 16  1  0  0  0  0
 15 17  2  0  0  0  0
 14 15  1  0  0  0  0
 14 21  2  0  0  0  0
 11 12  1  0  0  0  0
 11 13  1  0  0  0  0
 11 14  1  0  0  0  0
  9 10  1  0  0  0  0
  9 11  1  0  0  0  0
  9 23  1  0  0  0  0
  7  8  1  0  0  0  0
  7  9  1  0  0  0  0
 27 28  1  0  0  0  0
 27 29  1  0  0  0  0
 27 30  1  0  0  0  0
 25 26  1  0  0  0  0
 25 27  1  0  0  0  0
M  CHG  1  15   1
M  END
$$$$
default_name
  -OEChem-02102213163D

 30 30  0     1  0  0  0  0  0999 V2000
   -3.5507   -3.2183    1.8116 H   0  0  0  0  0  0  0  0  0  0  0  0
   -3.4597   -2.3913    1.1076 C   0  0  0  0  0  0  0  0  0  0  0  0
   -4.1577   -1.6043    1.3866 H   0  0  0  0  0  0  0  0  0  0  0  0
   -3.6807   -2.7523    0.1036 H   0  0  0  0  0  0  0  0  0  0  0  0
   -2.0477   -1.8543    1.1546 C   0  0  0  0  0  0  0  0  0  0  0  0
   -1.2227   -2.3443    1.9146 O   0  0  0  0  0  0  0  0  0  0  0  0
   -1.7517   -0.8483    0.3266 N   0  0  0  0  0  0  0  0  0  0  0  0
   -2.4847   -0.5123   -0.2804 H   0  0  0  0  0  0  0  0  0  0  0  0
   -0.4117   -0.2463    0.2186 C   0  0  1  0  0  0  0  0  0  0  0  0
    0.1554   -0.5152    1.1133 H   0  0  0  0  0  0  0  0  0  0  0  0
    0.3164   -0.8780   -0.9905 C   0  0  0  0  0  0  0  0  0  0  0  0
   -0.4256   -1.3659   -1.6277 H   0  0  0  0  0  0  0  0  0  0  0  0
    0.7752   -0.0837   -1.5831 H   0  0  0  0  0  0  0  0  0  0  0  0
    1.3918   -1.8845   -0.6402 C   0  0  0  0  0  0  0  0  0  0  0  0
    1.1911   -3.0534    0.0682 N   0  3  0  0  0  0  0  0  0  0  0  0
    0.2685   -3.3800    0.3698 H   0  0  0  0  0  0  0  0  0  0  0  0
    2.3741   -3.6884    0.1858 C   0  0  0  0  0  0  0  0  0  0  0  0
    2.5291   -4.6434    0.6837 H   0  0  0  0  0  0  0  0  0  0  0  0
    3.3216   -2.9471   -0.4317 N   0  0  0  0  0  0  0  0  0  0  0  0
    4.3082   -3.1807   -0.5054 H   0  0  0  0  0  0  0  0  0  0  0  0
    2.7216   -1.8105   -0.9558 C   0  0  0  0  0  0  0  0  0  0  0  0
    3.2046   -1.0114   -1.5112 H   0  0  0  0  0  0  0  0  0  0  0  0
   -0.4874    1.2908    0.1962 C   0  0  0  0  0  0  0  0  0  0  0  0
   -1.3116    1.8673   -0.5151 O   0  0  0  0  0  0  0  0  0  0  0  0
    0.3889    1.9422    0.9708 N   0  0  0  0  0  0  0  0  0  0  0  0
    1.0197    1.3866    1.5283 H   0  0  0  0  0  0  0  0  0  0  0  0
    0.5081    3.3999    1.0720 C   0  0  0  0  0  0  0  0  0  0  0  0
    0.0188    3.7538    1.9817 H   0  0  0  0  0  0  0  0  0  0  0  0
    1.5607    3.6858    1.1098 H   0  0  0  0  0  0  0  0  0  0  0  0
    0.0459    3.8890    0.2119 H   0  0  0  0  0  0  0  0  0  0  0  0
  5  6  2  0  0  0  0
  5  7  1  0  0  0  0
  2  3  1  0  0  0  0
  2  4  1  0  0  0  0
  2  5  1  0  0  0  0
  1  2  1  0  0  0  0
 23 24  2  0  0  0  0
 23 25  1  0  0  0  0
 21 22  1  0  0  0  0
 19 20  1  0  0  0  0
 19 21  1  0  0  0  0
 17 18  1  0  0  0  0
 17 19  1  0  0  0  0
 15 16  1  0  0  0  0
 15 17  2  0  0  0  0
 14 15  1  0  0  0  0
 14 21  2  0  0  0  0
 11 12  1  0  0  0  0
 11 13  1  0  0  0  0
 11 14  1  0  0  0  0
  9 10  1  0  0  0  0
  9 11  1  0  0  0  0
  9 23  1  0  0  0  0
  7  8  1  0  0  0  0
  7  9  1  0  0  0  0
 27 28  1  0  0  0  0
 27 29  1  0  0  0  0
 27 30  1  0  0  0  0
 25 26  1  0  0  0  0
 25 27  1  0  0  0  0
M  CHG  1  15   1
M  END
$$$$
default_name
  -OEChem-02102213163D

 30 30  0     1  0  0  0  0  0999 V2000
   -3.5507   -3.2183    1.8116 H   0  0  0  0  0  0  0  0  0  0  0  0
   -3.4597   -2.3913    1.1076 C   0  0  0  0  0  0  0  0  0  0  0  0
   -4.1577   -1.6043    1.3866 H   0  0  0  0  0  0  0  0  0  0  0  0
   -3.6807   -2.7523    0.1036 H   0  0  0  0  0  0  0  0  0  0  0  0
   -2.0477   -1.8543    1.1546 C   0  0  0  0  0  0  0  0  0  0  0  0
   -1.2227   -2.3443    1.9146 O   0  0  0  0  0  0  0  0  0  0  0  0
   -1.7517   -0.8483    0.3266 N   0  0  0  0  0  0  0  0  0  0  0  0
   -2.4847   -0.5123   -0.2804 H   0  0  0  0  0  0  0  0  0  0  0  0
   -0.4117   -0.2463    0.2186 C   0  0  1  0  0  0  0  0  0  0  0  0
    0.1554   -0.5152    1.1133 H   0  0  0  0  0  0  0  0  0  0  0  0
    0.3164   -0.8780   -0.9905 C   0  0  0  0  0  0  0  0  0  0  0  0
   -0.4256   -1.3659   -1.6277 H   0  0  0  0  0  0  0  0  0  0  0  0
    0.7752   -0.0837   -1.5831 H   0  0  0  0  0  0  0  0  0  0  0  0
    1.3918   -1.8845   -0.6402 C   0  0  0  0  0  0  0  0  0  0  0  0
    1.1653   -3.1739   -0.1991 N   0  3  0  0  0  0  0  0  0  0  0  0
    0.2330   -3.5917   -0.1294 H   0  0  0  0  0  0  0  0  0  0  0  0
    2.3571   -3.7672    0.0115 C   0  0  0  0  0  0  0  0  0  0  0  0
    2.4992   -4.7914    0.3503 H   0  0  0  0  0  0  0  0  0  0  0  0
    3.3350   -2.8818   -0.2853 N   0  0  0  0  0  0  0  0  0  0  0  0
    4.3350   -3.0538   -0.2231 H   0  0  0  0  0  0  0  0  0  0  0  0
    2.7460   -1.6940   -0.6962 C   0  0  0  0  0  0  0  0  0  0  0  0
    3.2527   -0.7839   -1.0051 H   0  0  0  0  0  0  0  0  0  0  0  0
   -0.4874    1.2908    0.1962 C   0  0  0  0  0  0  0  0  0  0  0  0
   -1.3116    1.8673   -0.5151 O   0  0  0  0  0  0  0  0  0  0  0  0
    0.3889    1.9422    0.9708 N   0  0  0  0  0  0  0  0  0  0  0  0
    1.0197    1.3866    1.5283 H   0  0  0  0  0  0  0  0  0  0  0  0
    0.5081    3.3999    1.0720 C   0  0  0  0  0  0  0  0  0  0  0  0
    0.0188    3.7538    1.9817 H   0  0  0  0  0  0  0  0  0  0  0  0
    1.5607    3.6858    1.1098 H   0  0  0  0  0  0  0  0  0  0  0  0
    0.0459    3.8890    0.2119 H   0  0  0  0  0  0  0  0  0  0  0  0
  5  6  2  0  0  0  0
  5  7  1  0  0  0  0
  2  3  1  0  0  0  0
  2  4  1  0  0  0  0
  2  5  1  0  0  0  0
  1  2  1  0  0  0  0
 23 24  2  0  0  0  0
 23 25  1  0  0  0  0
 21 22  1  0  0  0  0
 19 20  1  0  0  0  0
 19 21  1  0  0  0  0
 17 18  1  0  0  0  0
 17 19  1  0  0  0  0
 15 16  1  0  0  0  0
 15 17  2  0  0  0  0
 14 15  1  0  0  0  0
 14 21  2  0  0  0  0
 11 12  1  0  0  0  0
 11 13  1  0  0  0  0
 11 14  1  0  0  0  0
  9 10  1  0  0  0  0
  9 11  1  0  0  0  0
  9 23  1  0  0  0  0
  7  8  1  0  0  0  0
  7  9  1  0  0  0  0
 27 28  1  0  0  0  0
 27 29  1  0  0  0  0
 27 30  1  0  0  0  0
 25 26  1  0  0  0  0
 25 27  1  0  0  0  0
M  CHG  1  15   1
M  END
$$$$
default_name
  -OEChem-02102213163D

 30 30  0     1  0  0  0  0  0999 V2000
   -3.5507   -3.2183    1.8116 H   0  0  0  0  0  0  0  0  0  0  0  0
   -3.4597   -2.3913    1.1076 C   0  0  0  0  0  0  0  0  0  0  0  0
   -4.1577   -1.6043    1.3866 H   0  0  0  0  0  0  0  0  0  0  0  0
   -3.6807   -2.7523    0.1036 H   0  0  0  0  0  0  0  0  0  0  0  0
   -2.0477   -1.8543    1.1546 C   0  0  0  0  0  0  0  0  0  0  0  0
   -1.2227   -2.3443    1.9146 O   0  0  0  0  0  0  0  0  0  0  0  0
   -1.7517   -0.8483    0.3266 N   0  0  0  0  0  0  0  0  0  0  0  0
   -2.4847   -0.5123   -0.2804 H   0  0  0  0  0  0  0  0  0  0  0  0
   -0.4117   -0.2463    0.2186 C   0  0  1  0  0  0  0  0  0  0  0  0
    0.1554   -0.5152    1.1133 H   0  0  0  0  0  0  0  0  0  0  0  0
    0.3164   -0.8780   -0.9905 C   0  0  0  0  0  0  0  0  0  0  0  0
   -0.4256   -1.3659   -1.6277 H   0  0  0  0  0  0  0  0  0  0  0  0
    0.7752   -0.0837   -1.5831 H   0  0  0  0  0  0  0  0  0  0  0  0
    1.3918   -1.8845   -0.6402 C   0  0  0  0  0  0  0  0  0  0  0  0
    1.1937   -3.2427   -0.4838 N   0  3  0  0  0  0  0  0  0  0  0  0
    0.2972   -3.7066   -0.6566 H   0  0  0  0  0  0  0  0  0  0  0  0
    2.3754   -3.8124   -0.1743 C   0  0  0  0  0  0  0  0  0  0  0  0
    2.5365   -4.8749   -0.0040 H   0  0  0  0  0  0  0  0  0  0  0  0
    3.3189   -2.8448   -0.1297 N   0  0  0  0  0  0  0  0  0  0  0  0
    4.3048   -2.9815    0.0775 H   0  0  0  0  0  0  0  0  0  0  0  0
    2.7180   -1.6277   -0.4198 C   0  0  0  0  0  0  0  0  0  0  0  0
    3.1984   -0.6543   -0.4662 H   0  0  0  0  0  0  0  0  0  0  0  0
   -0.4874    1.2908    0.1962 C   0  0  0  0  0  0  0  0  0  0  0  0
   -1.3116    1.8673   -0.5151 O   0  0  0  0  0  0  0  0  0  0  0  0
    0.3889    1.9422    0.9708 N   0  0  0  0  0  0  0  0  0  0  0  0
    1.0197    1.3866    1.5283 H   0  0  0  0  0  0  0  0  0  0  0  0
    0.5081    3.3999    1.0720 C   0  0  0  0  0  0  0  0  0  0  0  0
    0.0188    3.7538    1.9817 H   0  0  0  0  0  0  0  0  0  0  0  0
    1.5607    3.6858    1.1098 H   0  0  0  0  0  0  0  0  0  0  0  0
    0.0459    3.8890    0.2119 H   0  0  0  0  0  0  0  0  0  0  0  0
  5  6  2  0  0  0  0
  5  7  1  0  0  0  0
  2  3  1  0  0  0  0
  2  4  1  0  0  0  0
  2  5  1  0  0  0  0
  1  2  1  0  0  0  0
 23 24  2  0  0  0  0
 23 25  1  0  0  0  0
 21 22  1  0  0  0  0
 19 20  1  0  0  0  0
 19 21  1  0  0  0  0
 17 18  1  0  0  0  0
 17 19  1  0  0  0  0
 15 16  1  0  0  0  0
 15 17  2  0  0  0  0
 14 15  1  0  0  0  0
 14 21  2  0  0  0  0
 11 12  1  0  0  0  0
 11 13  1  0  0  0  0
 11 14  1  0  0  0  0
  9 10  1  0  0  0  0
  9 11  1  0  0  0  0
  9 23  1  0  0  0  0
  7  8  1  0  0  0  0
  7  9  1  0  0  0  0
 27 28  1  0  0  0  0
 27 29  1  0  0  0  0
 27 30  1  0  0  0  0
 25 26  1  0  0  0  0
 25 27  1  0  0  0  0
M  CHG  1  15   1
M  END
$$$$
default_name
  -OEChem-02102213163D

 30 30  0     1  0  0  0  0  0999 V2000
   -3.5507   -3.2183    1.8116 H   0  0  0  0  0  0  0  0  0  0  0  0
   -3.4597   -2.3913    1.1076 C   0  0  0  0  0  0  0  0  0  0  0  0
   -4.1577   -1.6043    1.3866 H   0  0  0  0  0  0  0  0  0  0  0  0
   -3.6807   -2.7523    0.1036 H   0  0  0  0  0  0  0  0  0  0  0  0
   -2.0477   -1.8543    1.1546 C   0  0  0  0  0  0  0  0  0  0  0  0
   -1.2227   -2.3443    1.9146 O   0  0  0  0  0  0  0  0  0  0  0  0
   -1.7517   -0.8483    0.3266 N   0  0  0  0  0  0  0  0  0  0  0  0
   -2.4847   -0.5123   -0.2804 H   0  0  0  0  0  0  0  0  0  0  0  0
   -0.4117   -0.2463    0.2186 C   0  0  1  0  0  0  0  0  0  0  0  0
    0.1554   -0.5152    1.1133 H   0  0  0  0  0  0  0  0  0  0  0  0
    0.3164   -0.8780   -0.9905 C   0  0  0  0  0  0  0  0  0  0  0  0
   -0.4256   -1.3659   -1.6277 H   0  0  0  0  0  0  0  0  0  0  0  0
    0.7752   -0.0837   -1.5831 H   0  0  0  0  0  0  0  0  0  0  0  0
    1.3918   -1.8845   -0.6402 C   0  0  0  0  0  0  0  0  0  0  0  0
    1.2742   -3.2551   -0.7666 N   0  3  0  0  0  0  0  0  0  0  0  0
    0.4569   -3.7168   -1.1760 H   0  0  0  0  0  0  0  0  0  0  0  0
    2.4277   -3.8207   -0.3589 C   0  0  0  0  0  0  0  0  0  0  0  0
    2.6385   -4.8882   -0.3553 H   0  0  0  0  0  0  0  0  0  0  0  0
    3.2744   -2.8386    0.0247 N   0  0  0  0  0  0  0  0  0  0  0  0
    4.2195   -2.9688    0.3759 H   0  0  0  0  0  0  0  0  0  0  0  0
    2.6394   -1.6162   -0.1454 C   0  0  0  0  0  0  0  0  0  0  0  0
    3.0454   -0.6314    0.0689 H   0  0  0  0  0  0  0  0  0  0  0  0
   -0.4874    1.2908    0.1962 C   0  0  0  0  0  0  0  0  0  0  0  0
   -1.3116    1.8673   -0.5151 O   0  0  0  0  0  0  0  0  0  0  0  0
    0.3889    1.9422    0.9708 N   0  0  0  0  0  0  0  0  0  0  0  0
    1.0197    1.3866    1.5283 H   0  0  0  0  0  0  0  0  0  0  0  0
    0.5081    3.3999    1.0720 C   0  0  0  0  0  0  0  0  0  0  0  0
    0.0188    3.7538    1.9817 H   0  0  0  0  0  0  0  0  0  0  0  0
    1.5607    3.6858    1.1098 H   0  0  0  0  0  0  0  0  0  0  0  0
    0.0459    3.8890    0.2119 H   0  0  0  0  0  0  0  0  0  0  0  0
  5  6  2  0  0  0  0
  5  7  1  0  0  0  0
  2  3  1  0  0  0  0
  2  4  1  0  0  0  0
  2  5  1  0  0  0  0
  1  2  1  0  0  0  0
 23 24  2  0  0  0  0
 23 25  1  0  0  0  0
 21 22  1  0  0  0  0
 19 20  1  0  0  0  0
 19 21  1  0  0  0  0
 17 18  1  0  0  0  0
 17 19  1  0  0  0  0
 15 16  1  0  0  0  0
 15 17  2  0  0  0  0
 14 15  1  0  0  0  0
 14 21  2  0  0  0  0
 11 12  1  0  0  0  0
 11 13  1  0  0  0  0
 11 14  1  0  0  0  0
  9 10  1  0  0  0  0
  9 11  1  0  0  0  0
  9 23  1  0  0  0  0
  7  8  1  0  0  0  0
  7  9  1  0  0  0  0
 27 28  1  0  0  0  0
 27 29  1  0  0  0  0
 27 30  1  0  0  0  0
 25 26  1  0  0  0  0
 25 27  1  0  0  0  0
M  CHG  1  15   1
M  END
$$$$
default_name
  -OEChem-02102213163D

 30 30  0     1  0  0  0  0  0999 V2000
   -3.5507   -3.2183    1.8116 H   0  0  0  0  0  0  0  0  0  0  0  0
   -3.4597   -2.3913    1.1076 C   0  0  0  0  0  0  0  0  0  0  0  0
   -4.1577   -1.6043    1.3866 H   0  0  0  0  0  0  0  0  0  0  0  0
   -3.6807   -2.7523    0.1036 H   0  0  0  0  0  0  0  0  0  0  0  0
   -2.0477   -1.8543    1.1546 C   0  0  0  0  0  0  0  0  0  0  0  0
   -1.2227   -2.3443    1.9146 O   0  0  0  0  0  0  0  0  0  0  0  0
   -1.7517   -0.8483    0.3266 N   0  0  0  0  0  0  0  0  0  0  0  0
   -2.4847   -0.5123   -0.2804 H   0  0  0  0  0  0  0  0  0  0  0  0
   -0.4117   -0.2463    0.2186 C   0  0  1  0  0  0  0  0  0  0  0  0
    0.1554   -0.5152    1.1133 H   0  0  0  0  0  0  0  0  0  0  0  0
    0.3164   -0.8780   -0.9905 C   0  0  0  0  0  0  0  0  0  0  0  0
   -0.4256   -1.3659   -1.6277 H   0  0  0  0  0  0  0  0  0  0  0  0
    0.7752   -0.0837   -1.5831 H   0  0  0  0  0  0  0  0  0  0  0  0
    1.3918   -1.8845   -0.6402 C   0  0  0  0  0  0  0  0  0  0  0  0
    1.4014   -3.2103   -1.0282 N   0  3  0  0  0  0  0  0  0  0  0  0
    0.7011   -3.6216   -1.6520 H   0  0  0  0  0  0  0  0  0  0  0  0
    2.5105   -3.7917   -0.5297 C   0  0  0  0  0  0  0  0  0  0  0  0
    2.7982   -4.8304   -0.6794 H   0  0  0  0  0  0  0  0  0  0  0  0
    3.2044   -2.8638    0.1673 N   0  0  0  0  0  0  0  0  0  0  0  0
    4.0850   -3.0164    0.6519 H   0  0  0  0  0  0  0  0  0  0  0  0
    2.5156   -1.6602    0.1082 C   0  0  0  0  0  0  0  0  0  0  0  0
    2.8043   -0.7169    0.5636 H   0  0  0  0  0  0  0  0  0  0  0  0
   -0.4874    1.2908    0.1962 C   0  0  0  0  0  0  0  0  0  0  0  0
   -1.3116    1.8673   -0.5151 O   0  0  0  0  0  0  0  0  0  0  0  0
    0.3889    1.9422    0.9708 N   0  0  0  0  0  0  0  0  0  0  0  0
    1.0197    1.3866    1.5283 H   0  0  0  0  0  0  0  0  0  0  0  0
    0.5081    3.3999    1.0720 C   0  0  0  0  0  0  0  0  0  0  0  0
    0.0188    3.7538    1.9817 H   0  0  0  0  0  0  0  0  0  0  0  0
    1.5607    3.6858    1.1098 H   0  0  0  0  0  0  0  0  0  0  0  0
    0.0459    3.8890    0.2119 H   0  0  0  0  0  0  0  0  0  0  0  0
  5  6  2  0  0  0  0
  5  7  1  0  0  0  0
  2  3  1  0  0  0  0
  2  4  1  0  0  0  0
  2  5  1  0  0  0  0
  1  2  1  0  0  0  0
 23 24  2  0  0  0  0
 23 25  1  0  0  0  0
 21 22  1  0  0  0  0
 19 20  1  0  0  0  0
 19 21  1  0  0  0  0
 17 18  1  0  0  0  0
 17 19  1  0  0  0  0
 15 16  1  0  0  0  0
 15 17  2  0  0  0  0
 14 15  1  0  0  0  0
 14 21  2  0  0  0  0
 11 12  1  0  0  0  0
 11 13  1  0  0  0  0
 11 14  1  0  0  0  0
  9 10  1  0  0  0  0
  9 11  1  0  0  0  0
  9 23  1  0  0  0  0
  7  8  1  0  0  0  0
  7  9  1  0  0  0  0
 27 28  1  0  0  0  0
 27 29  1  0  0  0  0
 27 30  1  0  0  0  0
 25 26  1  0  0  0  0
 25 27  1  0  0  0  0
M  CHG  1  15   1
M  END
$$$$
default_name
  -OEChem-02102213163D

 30 30  0     1  0  0  0  0  0999 V2000
   -3.5507   -3.2183    1.8116 H   0  0  0  0  0  0  0  0  0  0  0  0
   -3.4597   -2.3913    1.1076 C   0  0  0  0  0  0  0  0  0  0  0  0
   -4.1577   -1.6043    1.3866 H   0  0  0  0  0  0  0  0  0  0  0  0
   -3.6807   -2.7523    0.1036 H   0  0  0  0  0  0  0  0  0  0  0  0
   -2.0477   -1.8543    1.1546 C   0  0  0  0  0  0  0  0  0  0  0  0
   -1.2227   -2.3443    1.9146 O   0  0  0  0  0  0  0  0  0  0  0  0
   -1.7517   -0.8483    0.3266 N   0  0  0  0  0  0  0  0  0  0  0  0
   -2.4847   -0.5123   -0.2804 H   0  0  0  0  0  0  0  0  0  0  0  0
   -0.4117   -0.2463    0.2186 C   0  0  1  0  0  0  0  0  0  0  0  0
    0.1554   -0.5152    1.1133 H   0  0  0  0  0  0  0  0  0  0  0  0
    0.3164   -0.8780   -0.9905 C   0  0  0  0  0  0  0  0  0  0  0  0
   -0.4256   -1.3659   -1.6277 H   0  0  0  0  0  0  0  0  0  0  0  0
    0.7752   -0.0837   -1.5831 H   0  0  0  0  0  0  0  0  0  0  0  0
    1.3918   -1.8845   -0.6402 C   0  0  0  0  0  0  0  0  0  0  0  0
    1.5666   -3.1113   -1.2508 N   0  3  0  0  0  0  0  0  0  0  0  0
    1.0132   -3.4275   -2.0523 H   0  0  0  0  0  0  0  0  0  0  0  0
    2.6181   -3.7273   -0.6751 C   0  0  0  0  0  0  0  0  0  0  0  0
    3.0048   -4.7053   -0.9544 H   0  0  0  0  0  0  0  0  0  0  0  0
    3.1138   -2.9184    0.2884 N   0  0  0  0  0  0  0  0  0  0  0  0
    3.9105   -3.1212    0.8865 H   0  0  0  0  0  0  0  0  0  0  0  0
    2.3550   -1.7567    0.3238 C   0  0  0  0  0  0  0  0  0  0  0  0
    2.4914   -0.9048    0.9842 H   0  0  0  0  0  0  0  0  0  0  0  0
   -0.4874    1.2908    0.1962 C   0  0  0  0  0  0  0  0  0  0  0  0
   -1.3116    1.8673   -0.5151 O   0  0  0  0  0  0  0  0  0  0  0  0
    0.3889    1.9422    0.9708 N   0  0  0  0  0  0  0  0  0  0  0  0
    1.0197    1.3866    1.5283 H   0  0  0  0  0  0  0  0  0  0  0  0
    0.5081    3.3999    1.0720 C   0  0  0  0  0  0  0  0  0  0  0  0
    0.0188    3.7538    1.9817 H   0  0  0  0  0  0  0  0  0  0  0  0
    1.5607    3.6858    1.1098 H   0  0  0  0  0  0  0  0  0  0  0  0
    0.0459    3.8890    0.2119 H   0  0  0  0  0  0  0  0  0  0  0  0
  5  6  2  0  0  0  0
  5  7  1  0  0  0  0
  2  3  1  0  0  0  0
  2  4  1  0  0  0  0
  2  5  1  0  0  0  0
  1  2  1  0  0  0  0
 23 24  2  0  0  0  0
 23 25  1  0  0  0  0
 21 22  1  0  0  0  0
 19 20  1  0  0  0  0
 19 21  1  0  0  0  0
 17 18  1  0  0  0  0
 17 19  1  0  0  0  0
 15 16  1  0  0  0  0
 15 17  2  0  0  0  0
 14 15  1  0  0  0  0
 14 21  2  0  0  0  0
 11 12  1  0  0  0  0
 11 13  1  0  0  0  0
 11 14  1  0  0  0  0
  9 10  1  0  0  0  0
  9 11  1  0  0  0  0
  9 23  1  0  0  0  0
  7  8  1  0  0  0  0
  7  9  1  0  0  0  0
 27 28  1  0  0  0  0
 27 29  1  0  0  0  0
 27 30  1  0  0  0  0
 25 26  1  0  0  0  0
 25 27  1  0  0  0  0
M  CHG  1  15   1
M  END
$$$$
default_name
  -OEChem-02102213163D

 30 30  0     1  0  0  0  0  0999 V2000
   -3.5507   -3.2183    1.8116 H   0  0  0  0  0  0  0  0  0  0  0  0
   -3.4597   -2.3913    1.1076 C   0  0  0  0  0  0  0  0  0  0  0  0
   -4.1577   -1.6043    1.3866 H   0  0  0  0  0  0  0  0  0  0  0  0
   -3.6807   -2.7523    0.1036 H   0  0  0  0  0  0  0  0  0  0  0  0
   -2.0477   -1.8543    1.1546 C   0  0  0  0  0  0  0  0  0  0  0  0
   -1.2227   -2.3443    1.9146 O   0  0  0  0  0  0  0  0  0  0  0  0
   -1.7517   -0.8483    0.3266 N   0  0  0  0  0  0  0  0  0  0  0  0
   -2.4847   -0.5123   -0.2804 H   0  0  0  0  0  0  0  0  0  0  0  0
   -0.4117   -0.2463    0.2186 C   0  0  1  0  0  0  0  0  0  0  0  0
    0.1554   -0.5152    1.1133 H   0  0  0  0  0  0  0  0  0  0  0  0
    0.3164   -0.8780   -0.9905 C   0  0  0  0  0  0  0  0  0  0  0  0
   -0.4256   -1.3659   -1.6277 H   0  0  0  0  0  0  0  0  0  0  0  0
    0.7752   -0.0837   -1.5831 H   0  0  0  0  0  0  0  0  0  0  0  0
    1.3918   -1.8845   -0.6402 C   0  0  0  0  0  0  0  0  0  0  0  0
    1.7585   -2.9649   -1.4192 N   0  3  0  0  0  0  0  0  0  0  0  0
    1.3718   -3.1477   -2.3496 H   0  0  0  0  0  0  0  0  0  0  0  0
    2.7433   -3.6320   -0.7853 C   0  0  0  0  0  0  0  0  0  0  0  0
    3.2442   -4.5216   -1.1615 H   0  0  0  0  0  0  0  0  0  0  0  0
    3.0087   -2.9989    0.3797 N   0  0  0  0  0  0  0  0  0  0  0  0
    3.7078   -3.2760    1.0639 H   0  0  0  0  0  0  0  0  0  0  0  0
    2.1686   -1.8992    0.4867 C   0  0  0  0  0  0  0  0  0  0  0  0
    2.1280   -1.1824    1.3022 H   0  0  0  0  0  0  0  0  0  0  0  0
   -0.4874    1.2908    0.1962 C   0  0  0  0  0  0  0  0  0  0  0  0
   -1.3116    1.8673   -0.5151 O   0  0  0  0  0  0  0  0  0  0  0  0
    0.3889    1.9422    0.9708 N   0  0  0  0  0  0  0  0  0  0  0  0
    1.0197    1.3866    1.5283 H   0  0  0  0  0  0  0  0  0  0  0  0
    0.5081    3.3999    1.0720 C   0  0  0  0  0  0  0  0  0  0  0  0
    0.0188    3.7538    1.9817 H   0  0  0  0  0  0  0  0  0  0  0  0
    1.5607    3.6858    1.1098 H   0  0  0  0  0  0  0  0  0  0  0  0
    0.0459    3.8890    0.2119 H   0  0  0  0  0  0  0  0  0  0  0  0
  5  6  2  0  0  0  0
  5  7  1  0  0  0  0
  2  3  1  0  0  0  0
  2  4  1  0  0  0  0
  2  5  1  0  0  0  0
  1  2  1  0  0  0  0
 23 24  2  0  0  0  0
 23 25  1  0  0  0  0
 21 22  1  0  0  0  0
 19 20  1  0  0  0  0
 19 21  1  0  0  0  0
 17 18  1  0  0  0  0
 17 19  1  0  0  0  0
 15 16  1  0  0  0  0
 15 17  2  0  0  0  0
 14 15  1  0  0  0  0
 14 21  2  0  0  0  0
 11 12  1  0  0  0  0
 11 13  1  0  0  0  0
 11 14  1  0  0  0  0
  9 10  1  0  0  0  0
  9 11  1  0  0  0  0
  9 23  1  0  0  0  0
  7  8  1  0  0  0  0
  7  9  1  0  0  0  0
 27 28  1  0  0  0  0
 27 29  1  0  0  0  0
 27 30  1  0  0  0  0
 25 26  1  0  0  0  0
 25 27  1  0  0  0  0
M  CHG  1  15   1
M  END
$$$$
default_name
  -OEChem-02102213163D

 30 30  0     1  0  0  0  0  0999 V2000
   -3.5507   -3.2183    1.8116 H   0  0  0  0  0  0  0  0  0  0  0  0
   -3.4597   -2.3913    1.1076 C   0  0  0  0  0  0  0  0  0  0  0  0
   -4.1577   -1.6043    1.3866 H   0  0  0  0  0  0  0  0  0  0  0  0
   -3.6807   -2.7523    0.1036 H   0  0  0  0  0  0  0  0  0  0  0  0
   -2.0477   -1.8543    1.1546 C   0  0  0  0  0  0  0  0  0  0  0  0
   -1.2227   -2.3443    1.9146 O   0  0  0  0  0  0  0  0  0  0  0  0
   -1.7517   -0.8483    0.3266 N   0  0  0  0  0  0  0  0  0  0  0  0
   -2.4847   -0.5123   -0.2804 H   0  0  0  0  0  0  0  0  0  0  0  0
   -0.4117   -0.2463    0.2186 C   0  0  1  0  0  0  0  0  0  0  0  0
    0.1554   -0.5152    1.1133 H   0  0  0  0  0  0  0  0  0  0  0  0
    0.3164   -0.8780   -0.9905 C   0  0  0  0  0  0  0  0  0  0  0  0
   -0.4256   -1.3659   -1.6277 H   0  0  0  0  0  0  0  0  0  0  0  0
    0.7752   -0.0837   -1.5831 H   0  0  0  0  0  0  0  0  0  0  0  0
    1.3918   -1.8845   -0.6402 C   0  0  0  0  0  0  0  0  0  0  0  0
    1.9640   -2.7810   -1.5218 N   0  3  0  0  0  0  0  0  0  0  0  0
    1.7527   -2.8013   -2.5237 H   0  0  0  0  0  0  0  0  0  0  0  0
    2.8774   -3.5121   -0.8526 C   0  0  0  0  0  0  0  0  0  0  0  0
    3.5001   -4.2918   -1.2866 H   0  0  0  0  0  0  0  0  0  0  0  0
    2.8963   -3.0998    0.4351 N   0  0  0  0  0  0  0  0  0  0  0  0
    3.4908   -3.4703    1.1718 H   0  0  0  0  0  0  0  0  0  0  0  0
    1.9690   -2.0780    0.5857 C   0  0  0  0  0  0  0  0  0  0  0  0
    1.7389   -1.5308    1.4957 H   0  0  0  0  0  0  0  0  0  0  0  0
   -0.4874    1.2908    0.1962 C   0  0  0  0  0  0  0  0  0  0  0  0
   -1.3116    1.8673   -0.5151 O   0  0  0  0  0  0  0  0  0  0  0  0
    0.3889    1.9422    0.9708 N   0  0  0  0  0  0  0  0  0  0  0  0
    1.0197    1.3866    1.5283 H   0  0  0  0  0  0  0  0  0  0  0  0
    0.5081    3.3999    1.0720 C   0  0  0  0  0  0  0  0  0  0  0  0
    0.0188    3.7538    1.9817 H   0  0  0  0  0  0  0  0  0  0  0  0
    1.5607    3.6858    1.1098 H   0  0  0  0  0  0  0  0  0  0  0  0
    0.0459    3.8890    0.2119 H   0  0  0  0  0  0  0  0  0  0  0  0
  5  6  2  0  0  0  0
  5  7  1  0  0  0  0
  2  3  1  0  0  0  0
  2  4  1  0  0  0  0
  2  5  1  0  0  0  0
  1  2  1  0  0  0  0
 23 24  2  0  0  0  0
 23 25  1  0  0  0  0
 21 22  1  0  0  0  0
 19 20  1  0  0  0  0
 19 21  1  0  0  0  0
 17 18  1  0  0  0  0
 17 19  1  0  0  0  0
 15 16  1  0  0  0  0
 15 17  2  0  0  0  0
 14 15  1  0  0  0  0
 14 21  2  0  0  0  0
 11 12  1  0  0  0  0
 11 13  1  0  0  0  0
 11 14  1  0  0  0  0
  9 10  1  0  0  0  0
  9 11  1  0  0  0  0
  9 23  1  0  0  0  0
  7  8  1  0  0  0  0
  7  9  1  0  0  0  0
 27 28  1  0  0  0  0
 27 29  1  0  0  0  0
 27 30  1  0  0  0  0
 25 26  1  0  0  0  0
 25 27  1  0  0  0  0
M  CHG  1  15   1
M  END
$$$$
default_name
  -OEChem-02102213163D

 30 30  0     1  0  0  0  0  0999 V2000
   -3.5507   -3.2183    1.8116 H   0  0  0  0  0  0  0  0  0  0  0  0
   -3.4597   -2.3913    1.1076 C   0  0  0  0  0  0  0  0  0  0  0  0
   -4.1577   -1.6043    1.3866 H   0  0  0  0  0  0  0  0  0  0  0  0
   -3.6807   -2.7523    0.1036 H   0  0  0  0  0  0  0  0  0  0  0  0
   -2.0477   -1.8543    1.1546 C   0  0  0  0  0  0  0  0  0  0  0  0
   -1.2227   -2.3443    1.9146 O   0  0  0  0  0  0  0  0  0  0  0  0
   -1.7517   -0.8483    0.3266 N   0  0  0  0  0  0  0  0  0  0  0  0
   -2.4847   -0.5123   -0.2804 H   0  0  0  0  0  0  0  0  0  0  0  0
   -0.4117   -0.2463    0.2186 C   0  0  1  0  0  0  0  0  0  0  0  0
    0.1554   -0.5152    1.1133 H   0  0  0  0  0  0  0  0  0  0  0  0
    0.3164   -0.8780   -0.9905 C   0  0  0  0  0  0  0  0  0  0  0  0
   -0.4261   -1.1263   -1.7532 H   0  0  0  0  0  0  0  0  0  0  0  0
    0.9887   -0.1363   -1.4271 H   0  0  0  0  0  0  0  0  0  0  0  0
    1.1247   -2.1195   -0.6782 C   0  0  0  0  0  0  0  0  0  0  0  0
    1.8547   -2.8489   -1.5966 N   0  3  0  0  0  0  0  0  0  0  0  0
    1.9672   -2.5729   -2.5763 H   0  0  0  0  0  0  0  0  0  0  0  0
    2.4367   -3.8812   -0.9545 C   0  0  0  0  0  0  0  0  0  0  0  0
    3.0854   -4.6237   -1.4148 H   0  0  0  0  0  0  0  0  0  0  0  0
    2.0909   -3.8233    0.3515 N   0  0  0  0  0  0  0  0  0  0  0  0
    2.3854   -4.4724    1.0763 H   0  0  0  0  0  0  0  0  0  0  0  0
    1.2669   -2.7228    0.5422 C   0  0  0  0  0  0  0  0  0  0  0  0
    0.8172   -2.3946    1.4752 H   0  0  0  0  0  0  0  0  0  0  0  0
   -0.4874    1.2908    0.1962 C   0  0  0  0  0  0  0  0  0  0  0  0
   -1.3116    1.8673   -0.5151 O   0  0  0  0  0  0  0  0  0  0  0  0
    0.3889    1.9422    0.9708 N   0  0  0  0  0  0  0  0  0  0  0  0
    1.0197    1.3866    1.5283 H   0  0  0  0  0  0  0  0  0  0  0  0
    0.5081    3.3999    1.0720 C   0  0  0  0  0  0  0  0  0  0  0  0
    0.0188    3.7538    1.9817 H   0  0  0  0  0  0  0  0  0  0  0  0
    1.5607    3.6858    1.1098 H   0  0  0  0  0  0  0  0  0  0  0  0
    0.0459    3.8890    0.2119 H   0  0  0  0  0  0  0  0  0  0  0  0
  5  6  2  0  0  0  0
  5  7  1  0  0  0  0
  2  3  1  0  0  0  0
  2  4  1  0  0  0  0
  2  5  1  0  0  0  0
  1  2  1  0  0  0  0
 23 24  2  0  0  0  0
 23 25  1  0  0  0  0
 21 22  1  0  0  0  0
 19 20  1  0  0  0  0
 19 21  1  0  0  0  0
 17 18  1  0  0  0  0
 17 19  1  0  0  0  0
 15 16  1  0  0  0  0
 15 17  2  0  0  0  0
 14 15  1  0  0  0  0
 14 21  2  0  0  0  0
 11 12  1  0  0  0  0
 11 13  1  0  0  0  0
 11 14  1  0  0  0  0
  9 10  1  0  0  0  0
  9 11  1  0  0  0  0
  9 23  1  0  0  0  0
  7  8  1  0  0  0  0
  7  9  1  0  0  0  0
 27 28  1  0  0  0  0
 27 29  1  0  0  0  0
 27 30  1  0  0  0  0
 25 26  1  0  0  0  0
 25 27  1  0  0  0  0
M  CHG  1  15   1
M  END
$$$$
default_name
  -OEChem-02102213163D

 30 30  0     1  0  0  0  0  0999 V2000
   -3.5507   -3.2183    1.8116 H   0  0  0  0  0  0  0  0  0  0  0  0
   -3.4597   -2.3913    1.1076 C   0  0  0  0  0  0  0  0  0  0  0  0
   -4.1577   -1.6043    1.3866 H   0  0  0  0  0  0  0  0  0  0  0  0
   -3.6807   -2.7523    0.1036 H   0  0  0  0  0  0  0  0  0  0  0  0
   -2.0477   -1.8543    1.1546 C   0  0  0  0  0  0  0  0  0  0  0  0
   -1.2227   -2.3443    1.9146 O   0  0  0  0  0  0  0  0  0  0  0  0
   -1.7517   -0.8483    0.3266 N   0  0  0  0  0  0  0  0  0  0  0  0
   -2.4847   -0.5123   -0.2804 H   0  0  0  0  0  0  0  0  0  0  0  0
   -0.4117   -0.2463    0.2186 C   0  0  1  0  0  0  0  0  0  0  0  0
    0.1554   -0.5152    1.1133 H   0  0  0  0  0  0  0  0  0  0  0  0
    0.3164   -0.8780   -0.9905 C   0  0  0  0  0  0  0  0  0  0  0  0
   -0.4261   -1.1263   -1.7532 H   0  0  0  0  0  0  0  0  0  0  0  0
    0.9887   -0.1363   -1.4271 H   0  0  0  0  0  0  0  0  0  0  0  0
    1.1247   -2.1195   -0.6782 C   0  0  0  0  0  0  0  0  0  0  0  0
    2.0782   -2.6805   -1.5056 N   0  3  0  0  0  0  0  0  0  0  0  0
    2.3734   -2.2622   -2.3925 H   0  0  0  0  0  0  0  0  0  0  0  0
    2.5827   -3.7713   -0.8954 C   0  0  0  0  0  0  0  0  0  0  0  0
    3.3623   -4.4142   -1.2989 H   0  0  0  0  0  0  0  0  0  0  0  0
    1.9691   -3.9153    0.3009 N   0  0  0  0  0  0  0  0  0  0  0  0
    2.1497   -4.6502    0.9798 H   0  0  0  0  0  0  0  0  0  0  0  0
    1.0502   -2.8862    0.4532 C   0  0  0  0  0  0  0  0  0  0  0  0
    0.3946   -2.7134    1.3021 H   0  0  0  0  0  0  0  0  0  0  0  0
   -0.4874    1.2908    0.1962 C   0  0  0  0  0  0  0  0  0  0  0  0
   -1.3116    1.8673   -0.5151 O   0  0  0  0  0  0  0  0  0  0  0  0
    0.3889    1.9422    0.9708 N   0  0  0  0  0  0  0  0  0  0  0  0
    1.0197    1.3866    1.5283 H   0  0  0  0  0  0  0  0  0  0  0  0
    0.5081    3.3999    1.0720 C   0  0  0  0  0  0  0  0  0  0  0  0
    0.0188    3.7538    1.9817 H   0  0  0  0  0  0  0  0  0  0  0  0
    1.5607    3.6858    1.1098 H   0  0  0  0  0  0  0  0  0  0  0  0
    0.0459    3.8890    0.2119 H   0  0  0  0  0  0  0  0  0  0  0  0
  5  6  2  0  0  0  0
  5  7  1  0  0  0  0
  2  3  1  0  0  0  0
  2  4  1  0  0  0  0
  2  5  1  0  0  0  0
  1  2  1  0  0  0  0
 23 24  2  0  0  0  0
 23 25  1  0  0  0  0
 21 22  1  0  0  0  0
 19 20  1  0  0  0  0
 19 21  1  0  0  0  0
 17 18  1  0  0  0  0
 17 19  1  0  0  0  0
 15 16  1  0  0  0  0
 15 17  2  0  0  0  0
 14 15  1  0  0  0  0
 14 21  2  0  0  0  0
 11 12  1  0  0  0  0
 11 13  1  0  0  0  0
 11 14  1  0  0  0  0
  9 10  1  0  0  0  0
  9 11  1  0  0  0  0
  9 23  1  0  0  0  0
  7  8  1  0  0  0  0
  7  9  1  0  0  0  0
 27 28  1  0  0  0  0
 27 29  1  0  0  0  0
 27 30  1  0  0  0  0
 25 26  1  0  0  0  0
 25 27  1  0  0  0  0
M  CHG  1  15   1
M  END
$$$$
default_name
  -OEChem-02102213163D

 30 30  0     1  0  0  0  0  0999 V2000
   -3.5507   -3.2183    1.8116 H   0  0  0  0  0  0  0  0  0  0  0  0
   -3.4597   -2.3913    1.1076 C   0  0  0  0  0  0  0  0  0  0  0  0
   -4.1577   -1.6043    1.3866 H   0  0  0  0  0  0  0  0  0  0  0  0
   -3.6807   -2.7523    0.1036 H   0  0  0  0  0  0  0  0  0  0  0  0
   -2.0477   -1.8543    1.1546 C   0  0  0  0  0  0  0  0  0  0  0  0
   -1.2227   -2.3443    1.9146 O   0  0  0  0  0  0  0  0  0  0  0  0
   -1.7517   -0.8483    0.3266 N   0  0  0  0  0  0  0  0  0  0  0  0
   -2.4847   -0.5123   -0.2804 H   0  0  0  0  0  0  0  0  0  0  0  0
   -0.4117   -0.2463    0.2186 C   0  0  1  0  0  0  0  0  0  0  0  0
    0.1554   -0.5152    1.1133 H   0  0  0  0  0  0  0  0  0  0  0  0
    0.3164   -0.8780   -0.9905 C   0  0  0  0  0  0  0  0  0  0  0  0
   -0.4261   -1.1263   -1.7532 H   0  0  0  0  0  0  0  0  0  0  0  0
    0.9887   -0.1363   -1.4271 H   0  0  0  0  0  0  0  0  0  0  0  0
    1.1247   -2.1195   -0.6782 C   0  0  0  0  0  0  0  0  0  0  0  0
    2.2658   -2.5184   -1.3469 N   0  3  0  0  0  0  0  0  0  0  0  0
    2.7101   -1.9658   -2.0858 H   0  0  0  0  0  0  0  0  0  0  0  0
    2.7053   -3.6655   -0.7921 C   0  0  0  0  0  0  0  0  0  0  0  0
    3.5939   -4.2132   -1.0993 H   0  0  0  0  0  0  0  0  0  0  0  0
    1.8670   -4.0037    0.2135 N   0  0  0  0  0  0  0  0  0  0  0  0
    1.9519   -4.8212    0.8119 H   0  0  0  0  0  0  0  0  0  0  0  0
    0.8685   -3.0434    0.2986 C   0  0  0  0  0  0  0  0  0  0  0  0
    0.0401   -3.0199    1.0012 H   0  0  0  0  0  0  0  0  0  0  0  0
   -0.4874    1.2908    0.1962 C   0  0  0  0  0  0  0  0  0  0  0  0
   -1.3116    1.8673   -0.5151 O   0  0  0  0  0  0  0  0  0  0  0  0
    0.3889    1.9422    0.9708 N   0  0  0  0  0  0  0  0  0  0  0  0
    1.0197    1.3866    1.5283 H   0  0  0  0  0  0  0  0  0  0  0  0
    0.5081    3.3999    1.0720 C   0  0  0  0  0  0  0  0  0  0  0  0
    0.0188    3.7538    1.9817 H   0  0  0  0  0  0  0  0  0  0  0  0
    1.5607    3.6858    1.1098 H   0  0  0  0  0  0  0  0  0  0  0  0
    0.0459    3.8890    0.2119 H   0  0  0  0  0  0  0  0  0  0  0  0
  5  6  2  0  0  0  0
  5  7  1  0  0  0  0
  2  3  1  0  0  0  0
  2  4  1  0  0  0  0
  2  5  1  0  0  0  0
  1  2  1  0  0  0  0
 23 24  2  0  0  0  0
 23 25  1  0  0  0  0
 21 22  1  0  0  0  0
 19 20  1  0  0  0  0
 19 21  1  0  0  0  0
 17 18  1  0  0  0  0
 17 19  1  0  0  0  0
 15 16  1  0  0  0  0
 15 17  2  0  0  0  0
 14 15  1  0  0  0  0
 14 21  2  0  0  0  0
 11 12  1  0  0  0  0
 11 13  1  0  0  0  0
 11 14  1  0  0  0  0
  9 10  1  0  0  0  0
  9 11  1  0  0  0  0
  9 23  1  0  0  0  0
  7  8  1  0  0  0  0
  7  9  1  0  0  0  0
 27 28  1  0  0  0  0
 27 29  1  0  0  0  0
 27 30  1  0  0  0  0
 25 26  1  0  0  0  0
 25 27  1  0  0  0  0
M  CHG  1  15   1
M  END
$$$$
default_name
  -OEChem-02102213163D

 30 30  0     1  0  0  0  0  0999 V2000
   -3.5507   -3.2183    1.8116 H   0  0  0  0  0  0  0  0  0  0  0  0
   -3.4597   -2.3913    1.1076 C   0  0  0  0  0  0  0  0  0  0  0  0
   -4.1577   -1.6043    1.3866 H   0  0  0  0  0  0  0  0  0  0  0  0
   -3.6807   -2.7523    0.1036 H   0  0  0  0  0  0  0  0  0  0  0  0
   -2.0477   -1.8543    1.1546 C   0  0  0  0  0  0  0  0  0  0  0  0
   -1.2227   -2.3443    1.9146 O   0  0  0  0  0  0  0  0  0  0  0  0
   -1.7517   -0.8483    0.3266 N   0  0  0  0  0  0  0  0  0  0  0  0
   -2.4847   -0.5123   -0.2804 H   0  0  0  0  0  0  0  0  0  0  0  0
   -0.4117   -0.2463    0.2186 C   0  0  1  0  0  0  0  0  0  0  0  0
    0.1554   -0.5152    1.1133 H   0  0  0  0  0  0  0  0  0  0  0  0
    0.3164   -0.8780   -0.9905 C   0  0  0  0  0  0  0  0  0  0  0  0
   -0.4261   -1.1263   -1.7532 H   0  0  0  0  0  0  0  0  0  0  0  0
    0.9887   -0.1363   -1.4271 H   0  0  0  0  0  0  0  0  0  0  0  0
    1.1247   -2.1195   -0.6782 C   0  0  0  0  0  0  0  0  0  0  0  0
    2.4047   -2.3738   -1.1315 N   0  3  0  0  0  0  0  0  0  0  0  0
    2.9544   -1.7039   -1.6771 H   0  0  0  0  0  0  0  0  0  0  0  0
    2.7961   -3.5710   -0.6518 C   0  0  0  0  0  0  0  0  0  0  0  0
    3.7646   -4.0342   -0.8295 H   0  0  0  0  0  0  0  0  0  0  0  0
    1.7918   -4.0825    0.0953 N   0  0  0  0  0  0  0  0  0  0  0  0
    1.8057   -4.9737    0.5842 H   0  0  0  0  0  0  0  0  0  0  0  0
    0.7342   -3.1836    0.0891 C   0  0  0  0  0  0  0  0  0  0  0  0
   -0.2221   -3.2933    0.5929 H   0  0  0  0  0  0  0  0  0  0  0  0
   -0.4874    1.2908    0.1962 C   0  0  0  0  0  0  0  0  0  0  0  0
   -1.3116    1.8673   -0.5151 O   0  0  0  0  0  0  0  0  0  0  0  0
    0.3889    1.9422    0.9708 N   0  0  0  0  0  0  0  0  0  0  0  0
    1.0197    1.3866    1.5283 H   0  0  0  0  0  0  0  0  0  0  0  0
    0.5081    3.3999    1.0720 C   0  0  0  0  0  0  0  0  0  0  0  0
    0.0188    3.7538    1.9817 H   0  0  0  0  0  0  0  0  0  0  0  0
    1.5607    3.6858    1.1098 H   0  0  0  0  0  0  0  0  0  0  0  0
    0.0459    3.8890    0.2119 H   0  0  0  0  0  0  0  0  0  0  0  0
  5  6  2  0  0  0  0
  5  7  1  0  0  0  0
  2  3  1  0  0  0  0
  2  4  1  0  0  0  0
  2  5  1  0  0  0  0
  1  2  1  0  0  0  0
 23 24  2  0  0  0  0
 23 25  1  0  0  0  0
 21 22  1  0  0  0  0
 19 20  1  0  0  0  0
 19 21  1  0  0  0  0
 17 18  1  0  0  0  0
 17 19  1  0  0  0  0
 15 16  1  0  0  0  0
 15 17  2  0  0  0  0
 14 15  1  0  0  0  0
 14 21  2  0  0  0  0
 11 12  1  0  0  0  0
 11 13  1  0  0  0  0
 11 14  1  0  0  0  0
  9 10  1  0  0  0  0
  9 11  1  0  0  0  0
  9 23  1  0  0  0  0
  7  8  1  0  0  0  0
  7  9  1  0  0  0  0
 27 28  1  0  0  0  0
 27 29  1  0  0  0  0
 27 30  1  0  0  0  0
 25 26  1  0  0  0  0
 25 27  1  0  0  0  0
M  CHG  1  15   1
M  END
$$$$
default_name
  -OEChem-02102213163D

 30 30  0     1  0  0  0  0  0999 V2000
   -3.5507   -3.2183    1.8116 H   0  0  0  0  0  0  0  0  0  0  0  0
   -3.4597   -2.3913    1.1076 C   0  0  0  0  0  0  0  0  0  0  0  0
   -4.1577   -1.6043    1.3866 H   0  0  0  0  0  0  0  0  0  0  0  0
   -3.6807   -2.7523    0.1036 H   0  0  0  0  0  0  0  0  0  0  0  0
   -2.0477   -1.8543    1.1546 C   0  0  0  0  0  0  0  0  0  0  0  0
   -1.2227   -2.3443    1.9146 O   0  0  0  0  0  0  0  0  0  0  0  0
   -1.7517   -0.8483    0.3266 N   0  0  0  0  0  0  0  0  0  0  0  0
   -2.4847   -0.5123   -0.2804 H   0  0  0  0  0  0  0  0  0  0  0  0
   -0.4117   -0.2463    0.2186 C   0  0  1  0  0  0  0  0  0  0  0  0
    0.1554   -0.5152    1.1133 H   0  0  0  0  0  0  0  0  0  0  0  0
    0.3164   -0.8780   -0.9905 C   0  0  0  0  0  0  0  0  0  0  0  0
   -0.4261   -1.1263   -1.7532 H   0  0  0  0  0  0  0  0  0  0  0  0
    0.9887   -0.1363   -1.4271 H   0  0  0  0  0  0  0  0  0  0  0  0
    1.1247   -2.1195   -0.6782 C   0  0  0  0  0  0  0  0  0  0  0  0
    2.4854   -2.2565   -0.8739 N   0  3  0  0  0  0  0  0  0  0  0  0
    3.0897   -1.4943   -1.1942 H   0  0  0  0  0  0  0  0  0  0  0  0
    2.8490   -3.4943   -0.4838 C   0  0  0  0  0  0  0  0  0  0  0  0
    3.8626   -3.8895   -0.5080 H   0  0  0  0  0  0  0  0  0  0  0  0
    1.7484   -4.1463   -0.0458 N   0  0  0  0  0  0  0  0  0  0  0  0
    1.7209   -5.0974    0.3122 H   0  0  0  0  0  0  0  0  0  0  0  0
    0.6565   -3.2972   -0.1612 C   0  0  0  0  0  0  0  0  0  0  0  0
   -0.3741   -3.5150    0.1051 H   0  0  0  0  0  0  0  0  0  0  0  0
   -0.4874    1.2908    0.1962 C   0  0  0  0  0  0  0  0  0  0  0  0
   -1.3116    1.8673   -0.5151 O   0  0  0  0  0  0  0  0  0  0  0  0
    0.3889    1.9422    0.9708 N   0  0  0  0  0  0  0  0  0  0  0  0
    1.0197    1.3866    1.5283 H   0  0  0  0  0  0  0  0  0  0  0  0
    0.5081    3.3999    1.0720 C   0  0  0  0  0  0  0  0  0  0  0  0
    0.0188    3.7538    1.9817 H   0  0  0  0  0  0  0  0  0  0  0  0
    1.5607    3.6858    1.1098 H   0  0  0  0  0  0  0  0  0  0  0  0
    0.0459    3.8890    0.2119 H   0  0  0  0  0  0  0  0  0  0  0  0
  5  6  2  0  0  0  0
  5  7  1  0  0  0  0
  2  3  1  0  0  0  0
  2  4  1  0  0  0  0
  2  5  1  0  0  0  0
  1  2  1  0  0  0  0
 23 24  2  0  0  0  0
 23 25  1  0  0  0  0
 21 22  1  0  0  0  0
 19 20  1  0  0  0  0
 19 21  1  0  0  0  0
 17 18  1  0  0  0  0
 17 19  1  0  0  0  0
 15 16  1  0  0  0  0
 15 17  2  0  0  0  0
 14 15  1  0  0  0  0
 14 21  2  0  0  0  0
 11 12  1  0  0  0  0
 11 13  1  0  0  0  0
 11 14  1  0  0  0  0
  9 10  1  0  0  0  0
  9 11  1  0  0  0  0
  9 23  1  0  0  0  0
  7  8  1  0  0  0  0
  7  9  1  0  0  0  0
 27 28  1  0  0  0  0
 27 29  1  0  0  0  0
 27 30  1  0  0  0  0
 25 26  1  0  0  0  0
 25 27  1  0  0  0  0
M  CHG  1  15   1
M  END
$$$$
default_name
  -OEChem-02102213163D

 30 30  0     1  0  0  0  0  0999 V2000
   -3.5507   -3.2183    1.8116 H   0  0  0  0  0  0  0  0  0  0  0  0
   -3.4597   -2.3913    1.1076 C   0  0  0  0  0  0  0  0  0  0  0  0
   -4.1577   -1.6043    1.3866 H   0  0  0  0  0  0  0  0  0  0  0  0
   -3.6807   -2.7523    0.1036 H   0  0  0  0  0  0  0  0  0  0  0  0
   -2.0477   -1.8543    1.1546 C   0  0  0  0  0  0  0  0  0  0  0  0
   -1.2227   -2.3443    1.9146 O   0  0  0  0  0  0  0  0  0  0  0  0
   -1.7517   -0.8483    0.3266 N   0  0  0  0  0  0  0  0  0  0  0  0
   -2.4847   -0.5123   -0.2804 H   0  0  0  0  0  0  0  0  0  0  0  0
   -0.4117   -0.2463    0.2186 C   0  0  1  0  0  0  0  0  0  0  0  0
    0.1554   -0.5152    1.1133 H   0  0  0  0  0  0  0  0  0  0  0  0
    0.3164   -0.8780   -0.9905 C   0  0  0  0  0  0  0  0  0  0  0  0
   -0.4261   -1.1263   -1.7532 H   0  0  0  0  0  0  0  0  0  0  0  0
    0.9887   -0.1363   -1.4271 H   0  0  0  0  0  0  0  0  0  0  0  0
    1.1247   -2.1195   -0.6782 C   0  0  0  0  0  0  0  0  0  0  0  0
    2.5024   -2.1744   -0.5918 N   0  3  0  0  0  0  0  0  0  0  0  0
    3.1067   -1.3514   -0.6702 H   0  0  0  0  0  0  0  0  0  0  0  0
    2.8604   -3.4406   -0.2998 C   0  0  0  0  0  0  0  0  0  0  0  0
    3.8813   -3.7889   -0.1566 H   0  0  0  0  0  0  0  0  0  0  0  0
    1.7398   -4.1907   -0.2002 N   0  0  0  0  0  0  0  0  0  0  0  0
    1.7033   -5.1838    0.0143 H   0  0  0  0  0  0  0  0  0  0  0  0
    0.6405   -3.3765   -0.4352 C   0  0  0  0  0  0  0  0  0  0  0  0
   -0.4056   -3.6698   -0.4290 H   0  0  0  0  0  0  0  0  0  0  0  0
   -0.4874    1.2908    0.1962 C   0  0  0  0  0  0  0  0  0  0  0  0
   -1.3116    1.8673   -0.5151 O   0  0  0  0  0  0  0  0  0  0  0  0
    0.3889    1.9422    0.9708 N   0  0  0  0  0  0  0  0  0  0  0  0
    1.0197    1.3866    1.5283 H   0  0  0  0  0  0  0  0  0  0  0  0
    0.5081    3.3999    1.0720 C   0  0  0  0  0  0  0  0  0  0  0  0
    0.0188    3.7538    1.9817 H   0  0  0  0  0  0  0  0  0  0  0  0
    1.5607    3.6858    1.1098 H   0  0  0  0  0  0  0  0  0  0  0  0
    0.0459    3.8890    0.2119 H   0  0  0  0  0  0  0  0  0  0  0  0
  5  6  2  0  0  0  0
  5  7  1  0  0  0  0
  2  3  1  0  0  0  0
  2  4  1  0  0  0  0
  2  5  1  0  0  0  0
  1  2  1  0  0  0  0
 23 24  2  0  0  0  0
 23 25  1  0  0  0  0
 21 22  1  0  0  0  0
 19 20  1  0  0  0  0
 19 21  1  0  0  0  0
 17 18  1  0  0  0  0
 17 19  1  0  0  0  0
 15 16  1  0  0  0  0
 15 17  2  0  0  0  0
 14 15  1  0  0  0  0
 14 21  2  0  0  0  0
 11 12  1  0  0  0  0
 11 13  1  0  0  0  0
 11 14  1  0  0  0  0
  9 10  1  0  0  0  0
  9 11  1  0  0  0  0
  9 23  1  0  0  0  0
  7  8  1  0  0  0  0
  7  9  1  0  0  0  0
 27 28  1  0  0  0  0
 27 29  1  0  0  0  0
 27 30  1  0  0  0  0
 25 26  1  0  0  0  0
 25 27  1  0  0  0  0
M  CHG  1  15   1
M  END
$$$$
default_name
  -OEChem-02102213163D

 30 30  0     1  0  0  0  0  0999 V2000
   -3.5507   -3.2183    1.8116 H   0  0  0  0  0  0  0  0  0  0  0  0
   -3.4597   -2.3913    1.1076 C   0  0  0  0  0  0  0  0  0  0  0  0
   -4.1577   -1.6043    1.3866 H   0  0  0  0  0  0  0  0  0  0  0  0
   -3.6807   -2.7523    0.1036 H   0  0  0  0  0  0  0  0  0  0  0  0
   -2.0477   -1.8543    1.1546 C   0  0  0  0  0  0  0  0  0  0  0  0
   -1.2227   -2.3443    1.9146 O   0  0  0  0  0  0  0  0  0  0  0  0
   -1.7517   -0.8483    0.3266 N   0  0  0  0  0  0  0  0  0  0  0  0
   -2.4847   -0.5123   -0.2804 H   0  0  0  0  0  0  0  0  0  0  0  0
   -0.4117   -0.2463    0.2186 C   0  0  1  0  0  0  0  0  0  0  0  0
    0.1554   -0.5152    1.1133 H   0  0  0  0  0  0  0  0  0  0  0  0
    0.3164   -0.8780   -0.9905 C   0  0  0  0  0  0  0  0  0  0  0  0
   -0.4261   -1.1263   -1.7532 H   0  0  0  0  0  0  0  0  0  0  0  0
    0.9887   -0.1363   -1.4271 H   0  0  0  0  0  0  0  0  0  0  0  0
    1.1247   -2.1195   -0.6782 C   0  0  0  0  0  0  0  0  0  0  0  0
    2.4546   -2.1332   -0.3043 N   0  3  0  0  0  0  0  0  0  0  0  0
    3.0043   -1.2849   -0.1407 H   0  0  0  0  0  0  0  0  0  0  0  0
    2.8295   -3.4135   -0.1122 C   0  0  0  0  0  0  0  0  0  0  0  0
    3.8194   -3.7393    0.2007 H   0  0  0  0  0  0  0  0  0  0  0  0
    1.7666   -4.2127   -0.3572 N   0  0  0  0  0  0  0  0  0  0  0  0
    1.7542   -5.2270   -0.2891 H   0  0  0  0  0  0  0  0  0  0  0  0
    0.6875   -3.4160   -0.7141 C   0  0  0  0  0  0  0  0  0  0  0  0
   -0.3144   -3.7473   -0.9729 H   0  0  0  0  0  0  0  0  0  0  0  0
   -0.4874    1.2908    0.1962 C   0  0  0  0  0  0  0  0  0  0  0  0
   -1.3116    1.8673   -0.5151 O   0  0  0  0  0  0  0  0  0  0  0  0
    0.3889    1.9422    0.9708 N   0  0  0  0  0  0  0  0  0  0  0  0
    1.0197    1.3866    1.5283 H   0  0  0  0  0  0  0  0  0  0  0  0
    0.5081    3.3999    1.0720 C   0  0  0  0  0  0  0  0  0  0  0  0
    0.0188    3.7538    1.9817 H   0  0  0  0  0  0  0  0  0  0  0  0
    1.5607    3.6858    1.1098 H   0  0  0  0  0  0  0  0  0  0  0  0
    0.0459    3.8890    0.2119 H   0  0  0  0  0  0  0  0  0  0  0  0
  5  6  2  0  0  0  0
  5  7  1  0  0  0  0
  2  3  1  0  0  0  0
  2  4  1  0  0  0  0
  2  5  1  0  0  0  0
  1  2  1  0  0  0  0
 23 24  2  0  0  0  0
 23 25  1  0  0  0  0
 21 22  1  0  0  0  0
 19 20  1  0  0  0  0
 19 21  1  0  0  0  0
 17 18  1  0  0  0  0
 17 19  1  0  0  0  0
 15 16  1  0  0  0  0
 15 17  2  0  0  0  0
 14 15  1  0  0  0  0
 14 21  2  0  0  0  0
 11 12  1  0  0  0  0
 11 13  1  0  0  0  0
 11 14  1  0  0  0  0
  9 10  1  0  0  0  0
  9 11  1  0  0  0  0
  9 23  1  0  0  0  0
  7  8  1  0  0  0  0
  7  9  1  0  0  0  0
 27 28  1  0  0  0  0
 27 29  1  0  0  0  0
 27 30  1  0  0  0  0
 25 26  1  0  0  0  0
 25 27  1  0  0  0  0
M  CHG  1  15   1
M  END
$$$$
default_name
  -OEChem-02102213163D

 30 30  0     1  0  0  0  0  0999 V2000
   -3.5507   -3.2183    1.8116 H   0  0  0  0  0  0  0  0  0  0  0  0
   -3.4597   -2.3913    1.1076 C   0  0  0  0  0  0  0  0  0  0  0  0
   -4.1577   -1.6043    1.3866 H   0  0  0  0  0  0  0  0  0  0  0  0
   -3.6807   -2.7523    0.1036 H   0  0  0  0  0  0  0  0  0  0  0  0
   -2.0477   -1.8543    1.1546 C   0  0  0  0  0  0  0  0  0  0  0  0
   -1.2227   -2.3443    1.9146 O   0  0  0  0  0  0  0  0  0  0  0  0
   -1.7517   -0.8483    0.3266 N   0  0  0  0  0  0  0  0  0  0  0  0
   -2.4847   -0.5123   -0.2804 H   0  0  0  0  0  0  0  0  0  0  0  0
   -0.4117   -0.2463    0.2186 C   0  0  1  0  0  0  0  0  0  0  0  0
    0.1554   -0.5152    1.1133 H   0  0  0  0  0  0  0  0  0  0  0  0
    0.3164   -0.8780   -0.9905 C   0  0  0  0  0  0  0  0  0  0  0  0
   -0.4261   -1.1263   -1.7532 H   0  0  0  0  0  0  0  0  0  0  0  0
    0.9887   -0.1363   -1.4271 H   0  0  0  0  0  0  0  0  0  0  0  0
    1.1247   -2.1195   -0.6782 C   0  0  0  0  0  0  0  0  0  0  0  0
    2.3452   -2.1357   -0.0311 N   0  3  0  0  0  0  0  0  0  0  0  0
    2.7894   -1.2992    0.3582 H   0  0  0  0  0  0  0  0  0  0  0  0
    2.7584   -3.4150    0.0662 C   0  0  0  0  0  0  0  0  0  0  0  0
    3.6812   -3.7440    0.5396 H   0  0  0  0  0  0  0  0  0  0  0  0
    1.8270   -4.2109   -0.5062 N   0  0  0  0  0  0  0  0  0  0  0  0
    1.8700   -5.2241   -0.5774 H   0  0  0  0  0  0  0  0  0  0  0  0
    0.7942   -3.4132   -0.9791 C   0  0  0  0  0  0  0  0  0  0  0  0
   -0.1067   -3.7421   -1.4897 H   0  0  0  0  0  0  0  0  0  0  0  0
   -0.4874    1.2908    0.1962 C   0  0  0  0  0  0  0  0  0  0  0  0
   -1.3116    1.8673   -0.5151 O   0  0  0  0  0  0  0  0  0  0  0  0
    0.3889    1.9422    0.9708 N   0  0  0  0  0  0  0  0  0  0  0  0
    1.0197    1.3866    1.5283 H   0  0  0  0  0  0  0  0  0  0  0  0
    0.5081    3.3999    1.0720 C   0  0  0  0  0  0  0  0  0  0  0  0
    0.0188    3.7538    1.9817 H   0  0  0  0  0  0  0  0  0  0  0  0
    1.5607    3.6858    1.1098 H   0  0  0  0  0  0  0  0  0  0  0  0
    0.0459    3.8890    0.2119 H   0  0  0  0  0  0  0  0  0  0  0  0
  5  6  2  0  0  0  0
  5  7  1  0  0  0  0
  2  3  1  0  0  0  0
  2  4  1  0  0  0  0
  2  5  1  0  0  0  0
  1  2  1  0  0  0  0
 23 24  2  0  0  0  0
 23 25  1  0  0  0  0
 21 22  1  0  0  0  0
 19 20  1  0  0  0  0
 19 21  1  0  0  0  0
 17 18  1  0  0  0  0
 17 19  1  0  0  0  0
 15 16  1  0  0  0  0
 15 17  2  0  0  0  0
 14 15  1  0  0  0  0
 14 21  2  0  0  0  0
 11 12  1  0  0  0  0
 11 13  1  0  0  0  0
 11 14  1  0  0  0  0
  9 10  1  0  0  0  0
  9 11  1  0  0  0  0
  9 23  1  0  0  0  0
  7  8  1  0  0  0  0
  7  9  1  0  0  0  0
 27 28  1  0  0  0  0
 27 29  1  0  0  0  0
 27 30  1  0  0  0  0
 25 26  1  0  0  0  0
 25 27  1  0  0  0  0
M  CHG  1  15   1
M  END
$$$$
default_name
  -OEChem-02102213163D

 30 30  0     1  0  0  0  0  0999 V2000
   -3.5507   -3.2183    1.8116 H   0  0  0  0  0  0  0  0  0  0  0  0
   -3.4597   -2.3913    1.1076 C   0  0  0  0  0  0  0  0  0  0  0  0
   -4.1577   -1.6043    1.3866 H   0  0  0  0  0  0  0  0  0  0  0  0
   -3.6807   -2.7523    0.1036 H   0  0  0  0  0  0  0  0  0  0  0  0
   -2.0477   -1.8543    1.1546 C   0  0  0  0  0  0  0  0  0  0  0  0
   -1.2227   -2.3443    1.9146 O   0  0  0  0  0  0  0  0  0  0  0  0
   -1.7517   -0.8483    0.3266 N   0  0  0  0  0  0  0  0  0  0  0  0
   -2.4847   -0.5123   -0.2804 H   0  0  0  0  0  0  0  0  0  0  0  0
   -0.4117   -0.2463    0.2186 C   0  0  1  0  0  0  0  0  0  0  0  0
    0.1554   -0.5152    1.1133 H   0  0  0  0  0  0  0  0  0  0  0  0
    0.3164   -0.8780   -0.9905 C   0  0  0  0  0  0  0  0  0  0  0  0
   -0.4261   -1.1263   -1.7532 H   0  0  0  0  0  0  0  0  0  0  0  0
    0.9887   -0.1363   -1.4271 H   0  0  0  0  0  0  0  0  0  0  0  0
    1.1247   -2.1195   -0.6782 C   0  0  0  0  0  0  0  0  0  0  0  0
    2.1816   -2.1818    0.2092 N   0  3  0  0  0  0  0  0  0  0  0  0
    2.4768   -1.3936    0.7926 H   0  0  0  0  0  0  0  0  0  0  0  0
    2.6519   -3.4448    0.2232 C   0  0  0  0  0  0  0  0  0  0  0  0
    3.4760   -3.8028    0.8369 H   0  0  0  0  0  0  0  0  0  0  0  0
    1.9169   -4.1853   -0.6371 N   0  0  0  0  0  0  0  0  0  0  0  0
    2.0429   -5.1753   -0.8308 H   0  0  0  0  0  0  0  0  0  0  0  0
    0.9534   -3.3682   -1.2119 C   0  0  0  0  0  0  0  0  0  0  0  0
    0.2033   -3.6545   -1.9440 H   0  0  0  0  0  0  0  0  0  0  0  0
   -0.4874    1.2908    0.1962 C   0  0  0  0  0  0  0  0  0  0  0  0
   -1.3116    1.8673   -0.5151 O   0  0  0  0  0  0  0  0  0  0  0  0
    0.3889    1.9422    0.9708 N   0  0  0  0  0  0  0  0  0  0  0  0
    1.0197    1.3866    1.5283 H   0  0  0  0  0  0  0  0  0  0  0  0
    0.5081    3.3999    1.0720 C   0  0  0  0  0  0  0  0  0  0  0  0
    0.0188    3.7538    1.9817 H   0  0  0  0  0  0  0  0  0  0  0  0
    1.5607    3.6858    1.1098 H   0  0  0  0  0  0  0  0  0  0  0  0
    0.0459    3.8890    0.2119 H   0  0  0  0  0  0  0  0  0  0  0  0
  5  6  2  0  0  0  0
  5  7  1  0  0  0  0
  2  3  1  0  0  0  0
  2  4  1  0  0  0  0
  2  5  1  0  0  0  0
  1  2  1  0  0  0  0
 23 24  2  0  0  0  0
 23 25  1  0  0  0  0
 21 22  1  0  0  0  0
 19 20  1  0  0  0  0
 19 21  1  0  0  0  0
 17 18  1  0  0  0  0
 17 19  1  0  0  0  0
 15 16  1  0  0  0  0
 15 17  2  0  0  0  0
 14 15  1  0  0  0  0
 14 21  2  0  0  0  0
 11 12  1  0  0  0  0
 11 13  1  0  0  0  0
 11 14  1  0  0  0  0
  9 10  1  0  0  0  0
  9 11  1  0  0  0  0
  9 23  1  0  0  0  0
  7  8  1  0  0  0  0
  7  9  1  0  0  0  0
 27 28  1  0  0  0  0
 27 29  1  0  0  0  0
 27 30  1  0  0  0  0
 25 26  1  0  0  0  0
 25 27  1  0  0  0  0
M  CHG  1  15   1
M  END
$$$$
default_name
  -OEChem-02102213163D

 30 30  0     1  0  0  0  0  0999 V2000
   -3.5507   -3.2183    1.8116 H   0  0  0  0  0  0  0  0  0  0  0  0
   -3.4597   -2.3913    1.1076 C   0  0  0  0  0  0  0  0  0  0  0  0
   -4.1577   -1.6043    1.3866 H   0  0  0  0  0  0  0  0  0  0  0  0
   -3.6807   -2.7523    0.1036 H   0  0  0  0  0  0  0  0  0  0  0  0
   -2.0477   -1.8543    1.1546 C   0  0  0  0  0  0  0  0  0  0  0  0
   -1.2227   -2.3443    1.9146 O   0  0  0  0  0  0  0  0  0  0  0  0
   -1.7517   -0.8483    0.3266 N   0  0  0  0  0  0  0  0  0  0  0  0
   -2.4847   -0.5123   -0.2804 H   0  0  0  0  0  0  0  0  0  0  0  0
   -0.4117   -0.2463    0.2186 C   0  0  1  0  0  0  0  0  0  0  0  0
    0.1554   -0.5152    1.1133 H   0  0  0  0  0  0  0  0  0  0  0  0
    0.3164   -0.8780   -0.9905 C   0  0  0  0  0  0  0  0  0  0  0  0
   -0.4261   -1.1263   -1.7532 H   0  0  0  0  0  0  0  0  0  0  0  0
    0.9887   -0.1363   -1.4271 H   0  0  0  0  0  0  0  0  0  0  0  0
    1.1247   -2.1195   -0.6782 C   0  0  0  0  0  0  0  0  0  0  0  0
    1.9751   -2.2681    0.4003 N   0  3  0  0  0  0  0  0  0  0  0  0
    2.0876   -1.5614    1.1328 H   0  0  0  0  0  0  0  0  0  0  0  0
    2.5173   -3.5010    0.3481 C   0  0  0  0  0  0  0  0  0  0  0  0
    3.2179   -3.9117    1.0724 H   0  0  0  0  0  0  0  0  0  0  0  0
    2.0302   -4.1376   -0.7409 N   0  0  0  0  0  0  0  0  0  0  0  0
    2.2611   -5.0839   -1.0322 H   0  0  0  0  0  0  0  0  0  0  0  0
    1.1541   -3.2840   -1.3969 C   0  0  0  0  0  0  0  0  0  0  0  0
    0.5945   -3.4906   -2.3050 H   0  0  0  0  0  0  0  0  0  0  0  0
   -0.4874    1.2908    0.1962 C   0  0  0  0  0  0  0  0  0  0  0  0
   -1.3116    1.8673   -0.5151 O   0  0  0  0  0  0  0  0  0  0  0  0
    0.3889    1.9422    0.9708 N   0  0  0  0  0  0  0  0  0  0  0  0
    1.0197    1.3866    1.5283 H   0  0  0  0  0  0  0  0  0  0  0  0
    0.5081    3.3999    1.0720 C   0  0  0  0  0  0  0  0  0  0  0  0
    0.0188    3.7538    1.9817 H   0  0  0  0  0  0  0  0  0  0  0  0
    1.5607    3.6858    1.1098 H   0  0  0  0  0  0  0  0  0  0  0  0
    0.0459    3.8890    0.2119 H   0  0  0  0  0  0  0  0  0  0  0  0
  5  6  2  0  0  0  0
  5  7  1  0  0  0  0
  2  3  1  0  0  0  0
  2  4  1  0  0  0  0
  2  5  1  0  0  0  0
  1  2  1  0  0  0  0
 23 24  2  0  0  0  0
 23 25  1  0  0  0  0
 21 22  1  0  0  0  0
 19 20  1  0  0  0  0
 19 21  1  0  0  0  0
 17 18  1  0  0  0  0
 17 19  1  0  0  0  0
 15 16  1  0  0  0  0
 15 17  2  0  0  0  0
 14 15  1  0  0  0  0
 14 21  2  0  0  0  0
 11 12  1  0  0  0  0
 11 13  1  0  0  0  0
 11 14  1  0  0  0  0
  9 10  1  0  0  0  0
  9 11  1  0  0  0  0
  9 23  1  0  0  0  0
  7  8  1  0  0  0  0
  7  9  1  0  0  0  0
 27 28  1  0  0  0  0
 27 29  1  0  0  0  0
 27 30  1  0  0  0  0
 25 26  1  0  0  0  0
 25 27  1  0  0  0  0
M  CHG  1  15   1
M  END
$$$$
default_name
  -OEChem-02102213163D

 30 30  0     1  0  0  0  0  0999 V2000
   -3.5507   -3.2183    1.8116 H   0  0  0  0  0  0  0  0  0  0  0  0
   -3.4597   -2.3913    1.1076 C   0  0  0  0  0  0  0  0  0  0  0  0
   -4.1577   -1.6043    1.3866 H   0  0  0  0  0  0  0  0  0  0  0  0
   -3.6807   -2.7523    0.1036 H   0  0  0  0  0  0  0  0  0  0  0  0
   -2.0477   -1.8543    1.1546 C   0  0  0  0  0  0  0  0  0  0  0  0
   -1.2227   -2.3443    1.9146 O   0  0  0  0  0  0  0  0  0  0  0  0
   -1.7517   -0.8483    0.3266 N   0  0  0  0  0  0  0  0  0  0  0  0
   -2.4847   -0.5123   -0.2804 H   0  0  0  0  0  0  0  0  0  0  0  0
   -0.4117   -0.2463    0.2186 C   0  0  1  0  0  0  0  0  0  0  0  0
    0.1554   -0.5152    1.1133 H   0  0  0  0  0  0  0  0  0  0  0  0
    0.3164   -0.8780   -0.9905 C   0  0  0  0  0  0  0  0  0  0  0  0
   -0.4261   -1.1263   -1.7532 H   0  0  0  0  0  0  0  0  0  0  0  0
    0.9887   -0.1363   -1.4271 H   0  0  0  0  0  0  0  0  0  0  0  0
    1.1247   -2.1195   -0.6782 C   0  0  0  0  0  0  0  0  0  0  0  0
    1.7397   -2.3890    0.5291 N   0  3  0  0  0  0  0  0  0  0  0  0
    1.6485   -1.7912    1.3556 H   0  0  0  0  0  0  0  0  0  0  0  0
    2.3638   -3.5797    0.4325 C   0  0  0  0  0  0  0  0  0  0  0  0
    2.9243   -4.0631    1.2300 H   0  0  0  0  0  0  0  0  0  0  0  0
    2.1590   -4.0713   -0.8105 N   0  0  0  0  0  0  0  0  0  0  0  0
    2.5097   -4.9561   -1.1677 H   0  0  0  0  0  0  0  0  0  0  0  0
    1.3828   -3.1664   -1.5213 C   0  0  0  0  0  0  0  0  0  0  0  0
    1.0403   -3.2615   -2.5480 H   0  0  0  0  0  0  0  0  0  0  0  0
   -0.4874    1.2908    0.1962 C   0  0  0  0  0  0  0  0  0  0  0  0
   -1.3116    1.8673   -0.5151 O   0  0  0  0  0  0  0  0  0  0  0  0
    0.3889    1.9422    0.9708 N   0  0  0  0  0  0  0  0  0  0  0  0
    1.0197    1.3866    1.5283 H   0  0  0  0  0  0  0  0  0  0  0  0
    0.5081    3.3999    1.0720 C   0  0  0  0  0  0  0  0  0  0  0  0
    0.0188    3.7538    1.9817 H   0  0  0  0  0  0  0  0  0  0  0  0
    1.5607    3.6858    1.1098 H   0  0  0  0  0  0  0  0  0  0  0  0
    0.0459    3.8890    0.2119 H   0  0  0  0  0  0  0  0  0  0  0  0
  5  6  2  0  0  0  0
  5  7  1  0  0  0  0
  2  3  1  0  0  0  0
  2  4  1  0  0  0  0
  2  5  1  0  0  0  0
  1  2  1  0  0  0  0
 23 24  2  0  0  0  0
 23 25  1  0  0  0  0
 21 22  1  0  0  0  0
 19 20  1  0  0  0  0
 19 21  1  0  0  0  0
 17 18  1  0  0  0  0
 17 19  1  0  0  0  0
 15 16  1  0  0  0  0
 15 17  2  0  0  0  0
 14 15  1  0  0  0  0
 14 21  2  0  0  0  0
 11 12  1  0  0  0  0
 11 13  1  0  0  0  0
 11 14  1  0  0  0  0
  9 10  1  0  0  0  0
  9 11  1  0  0  0  0
  9 23  1  0  0  0  0
  7  8  1  0  0  0  0
  7  9  1  0  0  0  0
 27 28  1  0  0  0  0
 27 29  1  0  0  0  0
 27 30  1  0  0  0  0
 25 26  1  0  0  0  0
 25 27  1  0  0  0  0
M  CHG  1  15   1
M  END
$$$$
default_name
  -OEChem-02102213163D

 30 30  0     1  0  0  0  0  0999 V2000
   -3.5507   -3.2183    1.8116 H   0  0  0  0  0  0  0  0  0  0  0  0
   -3.4597   -2.3913    1.1076 C   0  0  0  0  0  0  0  0  0  0  0  0
   -4.1577   -1.6043    1.3866 H   0  0  0  0  0  0  0  0  0  0  0  0
   -3.6807   -2.7523    0.1036 H   0  0  0  0  0  0  0  0  0  0  0  0
   -2.0477   -1.8543    1.1546 C   0  0  0  0  0  0  0  0  0  0  0  0
   -1.2227   -2.3443    1.9146 O   0  0  0  0  0  0  0  0  0  0  0  0
   -1.7517   -0.8483    0.3266 N   0  0  0  0  0  0  0  0  0  0  0  0
   -2.4847   -0.5123   -0.2804 H   0  0  0  0  0  0  0  0  0  0  0  0
   -0.4117   -0.2463    0.2186 C   0  0  1  0  0  0  0  0  0  0  0  0
    0.1554   -0.5152    1.1133 H   0  0  0  0  0  0  0  0  0  0  0  0
    0.3164   -0.8780   -0.9905 C   0  0  0  0  0  0  0  0  0  0  0  0
   -0.4261   -1.1263   -1.7532 H   0  0  0  0  0  0  0  0  0  0  0  0
    0.9887   -0.1363   -1.4271 H   0  0  0  0  0  0  0  0  0  0  0  0
    1.1247   -2.1195   -0.6782 C   0  0  0  0  0  0  0  0  0  0  0  0
    1.4915   -2.5361    0.5868 N   0  3  0  0  0  0  0  0  0  0  0  0
    1.1893   -2.0675    1.4458 H   0  0  0  0  0  0  0  0  0  0  0  0
    2.2018   -3.6756    0.4705 C   0  0  0  0  0  0  0  0  0  0  0  0
    2.6154   -4.2469    1.2991 H   0  0  0  0  0  0  0  0  0  0  0  0
    2.2948   -3.9906   -0.8412 N   0  0  0  0  0  0  0  0  0  0  0  0
    2.7718   -4.8007   -1.2283 H   0  0  0  0  0  0  0  0  0  0  0  0
    1.6238   -3.0234   -1.5767 C   0  0  0  0  0  0  0  0  0  0  0  0
    1.5102   -2.9829   -2.6565 H   0  0  0  0  0  0  0  0  0  0  0  0
   -0.4874    1.2908    0.1962 C   0  0  0  0  0  0  0  0  0  0  0  0
   -1.3116    1.8673   -0.5151 O   0  0  0  0  0  0  0  0  0  0  0  0
    0.3889    1.9422    0.9708 N   0  0  0  0  0  0  0  0  0  0  0  0
    1.0197    1.3866    1.5283 H   0  0  0  0  0  0  0  0  0  0  0  0
    0.5081    3.3999    1.0720 C   0  0  0  0  0  0  0  0  0  0  0  0
    0.0188    3.7538    1.9817 H   0  0  0  0  0  0  0  0  0  0  0  0
    1.5607    3.6858    1.1098 H   0  0  0  0  0  0  0  0  0  0  0  0
    0.0459    3.8890    0.2119 H   0  0  0  0  0  0  0  0  0  0  0  0
  5  6  2  0  0  0  0
  5  7  1  0  0  0  0
  2  3  1  0  0  0  0
  2  4  1  0  0  0  0
  2  5  1  0  0  0  0
  1  2  1  0  0  0  0
 23 24  2  0  0  0  0
 23 25  1  0  0  0  0
 21 22  1  0  0  0  0
 19 20  1  0  0  0  0
 19 21  1  0  0  0  0
 17 18  1  0  0  0  0
 17 19  1  0  0  0  0
 15 16  1  0  0  0  0
 15 17  2  0  0  0  0
 14 15  1  0  0  0  0
 14 21  2  0  0  0  0
 11 12  1  0  0  0  0
 11 13  1  0  0  0  0
 11 14  1  0  0  0  0
  9 10  1  0  0  0  0
  9 11  1  0  0  0  0
  9 23  1  0  0  0  0
  7  8  1  0  0  0  0
  7  9  1  0  0  0  0
 27 28  1  0  0  0  0
 27 29  1  0  0  0  0
 27 30  1  0  0  0  0
 25 26  1  0  0  0  0
 25 27  1  0  0  0  0
M  CHG  1  15   1
M  END
$$$$
default_name
  -OEChem-02102213163D

 30 30  0     1  0  0  0  0  0999 V2000
   -3.5507   -3.2183    1.8116 H   0  0  0  0  0  0  0  0  0  0  0  0
   -3.4597   -2.3913    1.1076 C   0  0  0  0  0  0  0  0  0  0  0  0
   -4.1577   -1.6043    1.3866 H   0  0  0  0  0  0  0  0  0  0  0  0
   -3.6807   -2.7523    0.1036 H   0  0  0  0  0  0  0  0  0  0  0  0
   -2.0477   -1.8543    1.1546 C   0  0  0  0  0  0  0  0  0  0  0  0
   -1.2227   -2.3443    1.9146 O   0  0  0  0  0  0  0  0  0  0  0  0
   -1.7517   -0.8483    0.3266 N   0  0  0  0  0  0  0  0  0  0  0  0
   -2.4847   -0.5123   -0.2804 H   0  0  0  0  0  0  0  0  0  0  0  0
   -0.4117   -0.2463    0.2186 C   0  0  1  0  0  0  0  0  0  0  0  0
    0.1554   -0.5152    1.1133 H   0  0  0  0  0  0  0  0  0  0  0  0
    0.3164   -0.8780   -0.9905 C   0  0  0  0  0  0  0  0  0  0  0  0
   -0.4261   -1.1263   -1.7532 H   0  0  0  0  0  0  0  0  0  0  0  0
    0.9887   -0.1363   -1.4271 H   0  0  0  0  0  0  0  0  0  0  0  0
    1.1247   -2.1195   -0.6782 C   0  0  0  0  0  0  0  0  0  0  0  0
    1.2473   -2.6995    0.5696 N   0  3  0  0  0  0  0  0  0  0  0  0
    0.7414   -2.3713    1.3973 H   0  0  0  0  0  0  0  0  0  0  0  0
    2.0424   -3.7822    0.4596 C   0  0  0  0  0  0  0  0  0  0  0  0
    2.3122   -4.4504    1.2748 H   0  0  0  0  0  0  0  0  0  0  0  0
    2.4281   -3.9013   -0.8310 N   0  0  0  0  0  0  0  0  0  0  0  0
    3.0295   -4.6282   -1.2096 H   0  0  0  0  0  0  0  0  0  0  0  0
    1.8607   -2.8648   -1.5593 C   0  0  0  0  0  0  0  0  0  0  0  0
    1.9722   -2.6736   -2.6230 H   0  0  0  0  0  0  0  0  0  0  0  0
   -0.4874    1.2908    0.1962 C   0  0  0  0  0  0  0  0  0  0  0  0
   -1.3116    1.8673   -0.5151 O   0  0  0  0  0  0  0  0  0  0  0  0
    0.3889    1.9422    0.9708 N   0  0  0  0  0  0  0  0  0  0  0  0
    1.0197    1.3866    1.5283 H   0  0  0  0  0  0  0  0  0  0  0  0
    0.5081    3.3999    1.0720 C   0  0  0  0  0  0  0  0  0  0  0  0
    0.0188    3.7538    1.9817 H   0  0  0  0  0  0  0  0  0  0  0  0
    1.5607    3.6858    1.1098 H   0  0  0  0  0  0  0  0  0  0  0  0
    0.0459    3.8890    0.2119 H   0  0  0  0  0  0  0  0  0  0  0  0
  5  6  2  0  0  0  0
  5  7  1  0  0  0  0
  2  3  1  0  0  0  0
  2  4  1  0  0  0  0
  2  5  1  0  0  0  0
  1  2  1  0  0  0  0
 23 24  2  0  0  0  0
 23 25  1  0  0  0  0
 21 22  1  0  0  0  0
 19 20  1  0  0  0  0
 19 21  1  0  0  0  0
 17 18  1  0  0  0  0
 17 19  1  0  0  0  0
 15 16  1  0  0  0  0
 15 17  2  0  0  0  0
 14 15  1  0  0  0  0
 14 21  2  0  0  0  0
 11 12  1  0  0  0  0
 11 13  1  0  0  0  0
 11 14  1  0  0  0  0
  9 10  1  0  0  0  0
  9 11  1  0  0  0  0
  9 23  1  0  0  0  0
  7  8  1  0  0  0  0
  7  9  1  0  0  0  0
 27 28  1  0  0  0  0
 27 29  1  0  0  0  0
 27 30  1  0  0  0  0
 25 26  1  0  0  0  0
 25 27  1  0  0  0  0
M  CHG  1  15   1
M  END
$$$$
default_name
  -OEChem-02102213163D

 30 30  0     1  0  0  0  0  0999 V2000
   -3.5507   -3.2183    1.8116 H   0  0  0  0  0  0  0  0  0  0  0  0
   -3.4597   -2.3913    1.1076 C   0  0  0  0  0  0  0  0  0  0  0  0
   -4.1577   -1.6043    1.3866 H   0  0  0  0  0  0  0  0  0  0  0  0
   -3.6807   -2.7523    0.1036 H   0  0  0  0  0  0  0  0  0  0  0  0
   -2.0477   -1.8543    1.1546 C   0  0  0  0  0  0  0  0  0  0  0  0
   -1.2227   -2.3443    1.9146 O   0  0  0  0  0  0  0  0  0  0  0  0
   -1.7517   -0.8483    0.3266 N   0  0  0  0  0  0  0  0  0  0  0  0
   -2.4847   -0.5123   -0.2804 H   0  0  0  0  0  0  0  0  0  0  0  0
   -0.4117   -0.2463    0.2186 C   0  0  1  0  0  0  0  0  0  0  0  0
    0.1554   -0.5152    1.1133 H   0  0  0  0  0  0  0  0  0  0  0  0
    0.3164   -0.8780   -0.9905 C   0  0  0  0  0  0  0  0  0  0  0  0
   -0.4261   -1.1263   -1.7532 H   0  0  0  0  0  0  0  0  0  0  0  0
    0.9887   -0.1363   -1.4271 H   0  0  0  0  0  0  0  0  0  0  0  0
    1.1247   -2.1195   -0.6782 C   0  0  0  0  0  0  0  0  0  0  0  0
    1.0237   -2.8679    0.4786 N   0  3  0  0  0  0  0  0  0  0  0  0
    0.3352   -2.6821    1.2135 H   0  0  0  0  0  0  0  0  0  0  0  0
    1.8964   -3.8921    0.4005 C   0  0  0  0  0  0  0  0  0  0  0  0
    2.0354   -4.6599    1.1589 H   0  0  0  0  0  0  0  0  0  0  0  0
    2.5499   -3.8092   -0.7805 N   0  0  0  0  0  0  0  0  0  0  0  0
    3.2652   -4.4504   -1.1131 H   0  0  0  0  0  0  0  0  0  0  0  0
    2.0774   -2.7013   -1.4703 C   0  0  0  0  0  0  0  0  0  0  0  0
    2.3948   -2.3549   -2.4499 H   0  0  0  0  0  0  0  0  0  0  0  0
   -0.4874    1.2908    0.1962 C   0  0  0  0  0  0  0  0  0  0  0  0
   -1.3116    1.8673   -0.5151 O   0  0  0  0  0  0  0  0  0  0  0  0
    0.3889    1.9422    0.9708 N   0  0  0  0  0  0  0  0  0  0  0  0
    1.0197    1.3866    1.5283 H   0  0  0  0  0  0  0  0  0  0  0  0
    0.5081    3.3999    1.0720 C   0  0  0  0  0  0  0  0  0  0  0  0
    0.0188    3.7538    1.9817 H   0  0  0  0  0  0  0  0  0  0  0  0
    1.5607    3.6858    1.1098 H   0  0  0  0  0  0  0  0  0  0  0  0
    0.0459    3.8890    0.2119 H   0  0  0  0  0  0  0  0  0  0  0  0
  5  6  2  0  0  0  0
  5  7  1  0  0  0  0
  2  3  1  0  0  0  0
  2  4  1  0  0  0  0
  2  5  1  0  0  0  0
  1  2  1  0  0  0  0
 23 24  2  0  0  0  0
 23 25  1  0  0  0  0
 21 22  1  0  0  0  0
 19 20  1  0  0  0  0
 19 21  1  0  0  0  0
 17 18  1  0  0  0  0
 17 19  1  0  0  0  0
 15 16  1  0  0  0  0
 15 17  2  0  0  0  0
 14 15  1  0  0  0  0
 14 21  2  0  0  0  0
 11 12  1  0  0  0  0
 11 13  1  0  0  0  0
 11 14  1  0  0  0  0
  9 10  1  0  0  0  0
  9 11  1  0  0  0  0
  9 23  1  0  0  0  0
  7  8  1  0  0  0  0
  7  9  1  0  0  0  0
 27 28  1  0  0  0  0
 27 29  1  0  0  0  0
 27 30  1  0  0  0  0
 25 26  1  0  0  0  0
 25 27  1  0  0  0  0
M  CHG  1  15   1
M  END
$$$$
default_name
  -OEChem-02102213163D

 30 30  0     1  0  0  0  0  0999 V2000
   -3.5507   -3.2183    1.8116 H   0  0  0  0  0  0  0  0  0  0  0  0
   -3.4597   -2.3913    1.1076 C   0  0  0  0  0  0  0  0  0  0  0  0
   -4.1577   -1.6043    1.3866 H   0  0  0  0  0  0  0  0  0  0  0  0
   -3.6807   -2.7523    0.1036 H   0  0  0  0  0  0  0  0  0  0  0  0
   -2.0477   -1.8543    1.1546 C   0  0  0  0  0  0  0  0  0  0  0  0
   -1.2227   -2.3443    1.9146 O   0  0  0  0  0  0  0  0  0  0  0  0
   -1.7517   -0.8483    0.3266 N   0  0  0  0  0  0  0  0  0  0  0  0
   -2.4847   -0.5123   -0.2804 H   0  0  0  0  0  0  0  0  0  0  0  0
   -0.4117   -0.2463    0.2186 C   0  0  1  0  0  0  0  0  0  0  0  0
    0.1554   -0.5152    1.1133 H   0  0  0  0  0  0  0  0  0  0  0  0
    0.3164   -0.8780   -0.9905 C   0  0  0  0  0  0  0  0  0  0  0  0
   -0.4261   -1.1263   -1.7532 H   0  0  0  0  0  0  0  0  0  0  0  0
    0.9887   -0.1363   -1.4271 H   0  0  0  0  0  0  0  0  0  0  0  0
    1.1247   -2.1195   -0.6782 C   0  0  0  0  0  0  0  0  0  0  0  0
    0.8362   -3.0299    0.3199 N   0  3  0  0  0  0  0  0  0  0  0  0
   -0.0015   -2.9785    0.9068 H   0  0  0  0  0  0  0  0  0  0  0  0
    1.7738   -3.9979    0.2972 C   0  0  0  0  0  0  0  0  0  0  0  0
    1.8037   -4.8609    0.9593 H   0  0  0  0  0  0  0  0  0  0  0  0
    2.6519   -3.7208   -0.6931 N   0  0  0  0  0  0  0  0  0  0  0  0
    3.4630   -4.2794   -0.9453 H   0  0  0  0  0  0  0  0  0  0  0  0
    2.2590   -2.5442   -1.3158 C   0  0  0  0  0  0  0  0  0  0  0  0
    2.7493   -2.0484   -2.1490 H   0  0  0  0  0  0  0  0  0  0  0  0
   -0.4874    1.2908    0.1962 C   0  0  0  0  0  0  0  0  0  0  0  0
   -1.3116    1.8673   -0.5151 O   0  0  0  0  0  0  0  0  0  0  0  0
    0.3889    1.9422    0.9708 N   0  0  0  0  0  0  0  0  0  0  0  0
    1.0197    1.3866    1.5283 H   0  0  0  0  0  0  0  0  0  0  0  0
    0.5081    3.3999    1.0720 C   0  0  0  0  0  0  0  0  0  0  0  0
    0.0188    3.7538    1.9817 H   0  0  0  0  0  0  0  0  0  0  0  0
    1.5607    3.6858    1.1098 H   0  0  0  0  0  0  0  0  0  0  0  0
    0.0459    3.8890    0.2119 H   0  0  0  0  0  0  0  0  0  0  0  0
  5  6  2  0  0  0  0
  5  7  1  0  0  0  0
  2  3  1  0  0  0  0
  2  4  1  0  0  0  0
  2  5  1  0  0  0  0
  1  2  1  0  0  0  0
 23 24  2  0  0  0  0
 23 25  1  0  0  0  0
 21 22  1  0  0  0  0
 19 20  1  0  0  0  0
 19 21  1  0  0  0  0
 17 18  1  0  0  0  0
 17 19  1  0  0  0  0
 15 16  1  0  0  0  0
 15 17  2  0  0  0  0
 14 15  1  0  0  0  0
 14 21  2  0  0  0  0
 11 12  1  0  0  0  0
 11 13  1  0  0  0  0
 11 14  1  0  0  0  0
  9 10  1  0  0  0  0
  9 11  1  0  0  0  0
  9 23  1  0  0  0  0
  7  8  1  0  0  0  0
  7  9  1  0  0  0  0
 27 28  1  0  0  0  0
 27 29  1  0  0  0  0
 27 30  1  0  0  0  0
 25 26  1  0  0  0  0
 25 27  1  0  0  0  0
M  CHG  1  15   1
M  END
$$$$
default_name
  -OEChem-02102213163D

 30 30  0     1  0  0  0  0  0999 V2000
   -3.5507   -3.2183    1.8116 H   0  0  0  0  0  0  0  0  0  0  0  0
   -3.4597   -2.3913    1.1076 C   0  0  0  0  0  0  0  0  0  0  0  0
   -4.1577   -1.6043    1.3866 H   0  0  0  0  0  0  0  0  0  0  0  0
   -3.6807   -2.7523    0.1036 H   0  0  0  0  0  0  0  0  0  0  0  0
   -2.0477   -1.8543    1.1546 C   0  0  0  0  0  0  0  0  0  0  0  0
   -1.2227   -2.3443    1.9146 O   0  0  0  0  0  0  0  0  0  0  0  0
   -1.7517   -0.8483    0.3266 N   0  0  0  0  0  0  0  0  0  0  0  0
   -2.4847   -0.5123   -0.2804 H   0  0  0  0  0  0  0  0  0  0  0  0
   -0.4117   -0.2463    0.2186 C   0  0  1  0  0  0  0  0  0  0  0  0
    0.1554   -0.5152    1.1133 H   0  0  0  0  0  0  0  0  0  0  0  0
    0.3164   -0.8780   -0.9905 C   0  0  0  0  0  0  0  0  0  0  0  0
   -0.4261   -1.1263   -1.7532 H   0  0  0  0  0  0  0  0  0  0  0  0
    0.9887   -0.1363   -1.4271 H   0  0  0  0  0  0  0  0  0  0  0  0
    1.1247   -2.1195   -0.6782 C   0  0  0  0  0  0  0  0  0  0  0  0
    0.6973   -3.1746    0.1045 N   0  3  0  0  0  0  0  0  0  0  0  0
   -0.2458   -3.2404    0.4981 H   0  0  0  0  0  0  0  0  0  0  0  0
    1.6830   -4.0924    0.1568 C   0  0  0  0  0  0  0  0  0  0  0  0
    1.6331   -5.0399    0.6895 H   0  0  0  0  0  0  0  0  0  0  0  0
    2.7272   -3.6420   -0.5748 N   0  0  0  0  0  0  0  0  0  0  0  0
    3.6092   -4.1269   -0.7176 H   0  0  0  0  0  0  0  0  0  0  0  0
    2.3933   -2.4040   -1.1062 C   0  0  0  0  0  0  0  0  0  0  0  0
    3.0115   -1.7749   -1.7407 H   0  0  0  0  0  0  0  0  0  0  0  0
   -0.4874    1.2908    0.1962 C   0  0  0  0  0  0  0  0  0  0  0  0
   -1.3116    1.8673   -0.5151 O   0  0  0  0  0  0  0  0  0  0  0  0
    0.3889    1.9422    0.9708 N   0  0  0  0  0  0  0  0  0  0  0  0
    1.0197    1.3866    1.5283 H   0  0  0  0  0  0  0  0  0  0  0  0
    0.5081    3.3999    1.0720 C   0  0  0  0  0  0  0  0  0  0  0  0
    0.0188    3.7538    1.9817 H   0  0  0  0  0  0  0  0  0  0  0  0
    1.5607    3.6858    1.1098 H   0  0  0  0  0  0  0  0  0  0  0  0
    0.0459    3.8890    0.2119 H   0  0  0  0  0  0  0  0  0  0  0  0
  5  6  2  0  0  0  0
  5  7  1  0  0  0  0
  2  3  1  0  0  0  0
  2  4  1  0  0  0  0
  2  5  1  0  0  0  0
  1  2  1  0  0  0  0
 23 24  2  0  0  0  0
 23 25  1  0  0  0  0
 21 22  1  0  0  0  0
 19 20  1  0  0  0  0
 19 21  1  0  0  0  0
 17 18  1  0  0  0  0
 17 19  1  0  0  0  0
 15 16  1  0  0  0  0
 15 17  2  0  0  0  0
 14 15  1  0  0  0  0
 14 21  2  0  0  0  0
 11 12  1  0  0  0  0
 11 13  1  0  0  0  0
 11 14  1  0  0  0  0
  9 10  1  0  0  0  0
  9 11  1  0  0  0  0
  9 23  1  0  0  0  0
  7  8  1  0  0  0  0
  7  9  1  0  0  0  0
 27 28  1  0  0  0  0
 27 29  1  0  0  0  0
 27 30  1  0  0  0  0
 25 26  1  0  0  0  0
 25 27  1  0  0  0  0
M  CHG  1  15   1
M  END
$$$$
default_name
  -OEChem-02102213163D

 30 30  0     1  0  0  0  0  0999 V2000
   -3.5507   -3.2183    1.8116 H   0  0  0  0  0  0  0  0  0  0  0  0
   -3.4597   -2.3913    1.1076 C   0  0  0  0  0  0  0  0  0  0  0  0
   -4.1577   -1.6043    1.3866 H   0  0  0  0  0  0  0  0  0  0  0  0
   -3.6807   -2.7523    0.1036 H   0  0  0  0  0  0  0  0  0  0  0  0
   -2.0477   -1.8543    1.1546 C   0  0  0  0  0  0  0  0  0  0  0  0
   -1.2227   -2.3443    1.9146 O   0  0  0  0  0  0  0  0  0  0  0  0
   -1.7517   -0.8483    0.3266 N   0  0  0  0  0  0  0  0  0  0  0  0
   -2.4847   -0.5123   -0.2804 H   0  0  0  0  0  0  0  0  0  0  0  0
   -0.4117   -0.2463    0.2186 C   0  0  1  0  0  0  0  0  0  0  0  0
    0.1554   -0.5152    1.1133 H   0  0  0  0  0  0  0  0  0  0  0  0
    0.3164   -0.8780   -0.9905 C   0  0  0  0  0  0  0  0  0  0  0  0
   -0.4261   -1.1263   -1.7532 H   0  0  0  0  0  0  0  0  0  0  0  0
    0.9887   -0.1363   -1.4271 H   0  0  0  0  0  0  0  0  0  0  0  0
    1.1247   -2.1195   -0.6782 C   0  0  0  0  0  0  0  0  0  0  0  0
    0.6166   -3.2919   -0.1531 N   0  3  0  0  0  0  0  0  0  0  0  0
   -0.3811   -3.4499    0.0152 H   0  0  0  0  0  0  0  0  0  0  0  0
    1.6301   -4.1691   -0.0111 C   0  0  0  0  0  0  0  0  0  0  0  0
    1.5350   -5.1846    0.3679 H   0  0  0  0  0  0  0  0  0  0  0  0
    2.7706   -3.5783   -0.4337 N   0  0  0  0  0  0  0  0  0  0  0  0
    3.6940   -4.0032   -0.4455 H   0  0  0  0  0  0  0  0  0  0  0  0
    2.4711   -2.2904   -0.8559 C   0  0  0  0  0  0  0  0  0  0  0  0
    3.1635   -1.5533   -1.2529 H   0  0  0  0  0  0  0  0  0  0  0  0
   -0.4874    1.2908    0.1962 C   0  0  0  0  0  0  0  0  0  0  0  0
   -1.3116    1.8673   -0.5151 O   0  0  0  0  0  0  0  0  0  0  0  0
    0.3889    1.9422    0.9708 N   0  0  0  0  0  0  0  0  0  0  0  0
    1.0197    1.3866    1.5283 H   0  0  0  0  0  0  0  0  0  0  0  0
    0.5081    3.3999    1.0720 C   0  0  0  0  0  0  0  0  0  0  0  0
    0.0188    3.7538    1.9817 H   0  0  0  0  0  0  0  0  0  0  0  0
    1.5607    3.6858    1.1098 H   0  0  0  0  0  0  0  0  0  0  0  0
    0.0459    3.8890    0.2119 H   0  0  0  0  0  0  0  0  0  0  0  0
  5  6  2  0  0  0  0
  5  7  1  0  0  0  0
  2  3  1  0  0  0  0
  2  4  1  0  0  0  0
  2  5  1  0  0  0  0
  1  2  1  0  0  0  0
 23 24  2  0  0  0  0
 23 25  1  0  0  0  0
 21 22  1  0  0  0  0
 19 20  1  0  0  0  0
 19 21  1  0  0  0  0
 17 18  1  0  0  0  0
 17 19  1  0  0  0  0
 15 16  1  0  0  0  0
 15 17  2  0  0  0  0
 14 15  1  0  0  0  0
 14 21  2  0  0  0  0
 11 12  1  0  0  0  0
 11 13  1  0  0  0  0
 11 14  1  0  0  0  0
  9 10  1  0  0  0  0
  9 11  1  0  0  0  0
  9 23  1  0  0  0  0
  7  8  1  0  0  0  0
  7  9  1  0  0  0  0
 27 28  1  0  0  0  0
 27 29  1  0  0  0  0
 27 30  1  0  0  0  0
 25 26  1  0  0  0  0
 25 27  1  0  0  0  0
M  CHG  1  15   1
M  END
$$$$
default_name
  -OEChem-02102213163D

 30 30  0     1  0  0  0  0  0999 V2000
   -3.5507   -3.2183    1.8116 H   0  0  0  0  0  0  0  0  0  0  0  0
   -3.4597   -2.3913    1.1076 C   0  0  0  0  0  0  0  0  0  0  0  0
   -4.1577   -1.6043    1.3866 H   0  0  0  0  0  0  0  0  0  0  0  0
   -3.6807   -2.7523    0.1036 H   0  0  0  0  0  0  0  0  0  0  0  0
   -2.0477   -1.8543    1.1546 C   0  0  0  0  0  0  0  0  0  0  0  0
   -1.2227   -2.3443    1.9146 O   0  0  0  0  0  0  0  0  0  0  0  0
   -1.7517   -0.8483    0.3266 N   0  0  0  0  0  0  0  0  0  0  0  0
   -2.4847   -0.5123   -0.2804 H   0  0  0  0  0  0  0  0  0  0  0  0
   -0.4117   -0.2463    0.2186 C   0  0  1  0  0  0  0  0  0  0  0  0
    0.1554   -0.5152    1.1133 H   0  0  0  0  0  0  0  0  0  0  0  0
    0.3164   -0.8780   -0.9905 C   0  0  0  0  0  0  0  0  0  0  0  0
   -0.4261   -1.1263   -1.7532 H   0  0  0  0  0  0  0  0  0  0  0  0
    0.9887   -0.1363   -1.4271 H   0  0  0  0  0  0  0  0  0  0  0  0
    1.1247   -2.1195   -0.6782 C   0  0  0  0  0  0  0  0  0  0  0  0
    0.5996   -3.3739   -0.4352 N   0  3  0  0  0  0  0  0  0  0  0  0
   -0.3981   -3.5928   -0.5088 H   0  0  0  0  0  0  0  0  0  0  0  0
    1.6187   -4.2228   -0.1951 C   0  0  0  0  0  0  0  0  0  0  0  0
    1.5163   -5.2852    0.0165 H   0  0  0  0  0  0  0  0  0  0  0  0
    2.7792   -3.5339   -0.2794 N   0  0  0  0  0  0  0  0  0  0  0  0
    3.7116   -3.9169   -0.1476 H   0  0  0  0  0  0  0  0  0  0  0  0
    2.4870   -2.2111   -0.5820 C   0  0  0  0  0  0  0  0  0  0  0  0
    3.1950   -1.3984   -0.7188 H   0  0  0  0  0  0  0  0  0  0  0  0
   -0.4874    1.2908    0.1962 C   0  0  0  0  0  0  0  0  0  0  0  0
   -1.3116    1.8673   -0.5151 O   0  0  0  0  0  0  0  0  0  0  0  0
    0.3889    1.9422    0.9708 N   0  0  0  0  0  0  0  0  0  0  0  0
    1.0197    1.3866    1.5283 H   0  0  0  0  0  0  0  0  0  0  0  0
    0.5081    3.3999    1.0720 C   0  0  0  0  0  0  0  0  0  0  0  0
    0.0188    3.7538    1.9817 H   0  0  0  0  0  0  0  0  0  0  0  0
    1.5607    3.6858    1.1098 H   0  0  0  0  0  0  0  0  0  0  0  0
    0.0459    3.8890    0.2119 H   0  0  0  0  0  0  0  0  0  0  0  0
  5  6  2  0  0  0  0
  5  7  1  0  0  0  0
  2  3  1  0  0  0  0
  2  4  1  0  0  0  0
  2  5  1  0  0  0  0
  1  2  1  0  0  0  0
 23 24  2  0  0  0  0
 23 25  1  0  0  0  0
 21 22  1  0  0  0  0
 19 20  1  0  0  0  0
 19 21  1  0  0  0  0
 17 18  1  0  0  0  0
 17 19  1  0  0  0  0
 15 16  1  0  0  0  0
 15 17  2  0  0  0  0
 14 15  1  0  0  0  0
 14 21  2  0  0  0  0
 11 12  1  0  0  0  0
 11 13  1  0  0  0  0
 11 14  1  0  0  0  0
  9 10  1  0  0  0  0
  9 11  1  0  0  0  0
  9 23  1  0  0  0  0
  7  8  1  0  0  0  0
  7  9  1  0  0  0  0
 27 28  1  0  0  0  0
 27 29  1  0  0  0  0
 27 30  1  0  0  0  0
 25 26  1  0  0  0  0
 25 27  1  0  0  0  0
M  CHG  1  15   1
M  END
$$$$
default_name
  -OEChem-02102213163D

 30 30  0     1  0  0  0  0  0999 V2000
   -3.5507   -3.2183    1.8116 H   0  0  0  0  0  0  0  0  0  0  0  0
   -3.4597   -2.3913    1.1076 C   0  0  0  0  0  0  0  0  0  0  0  0
   -4.1577   -1.6043    1.3866 H   0  0  0  0  0  0  0  0  0  0  0  0
   -3.6807   -2.7523    0.1036 H   0  0  0  0  0  0  0  0  0  0  0  0
   -2.0477   -1.8543    1.1546 C   0  0  0  0  0  0  0  0  0  0  0  0
   -1.2227   -2.3443    1.9146 O   0  0  0  0  0  0  0  0  0  0  0  0
   -1.7517   -0.8483    0.3266 N   0  0  0  0  0  0  0  0  0  0  0  0
   -2.4847   -0.5123   -0.2804 H   0  0  0  0  0  0  0  0  0  0  0  0
   -0.4117   -0.2463    0.2186 C   0  0  1  0  0  0  0  0  0  0  0  0
    0.1554   -0.5152    1.1133 H   0  0  0  0  0  0  0  0  0  0  0  0
    0.3164   -0.8780   -0.9905 C   0  0  0  0  0  0  0  0  0  0  0  0
   -0.4261   -1.1263   -1.7532 H   0  0  0  0  0  0  0  0  0  0  0  0
    0.9887   -0.1363   -1.4271 H   0  0  0  0  0  0  0  0  0  0  0  0
    1.1247   -2.1195   -0.6782 C   0  0  0  0  0  0  0  0  0  0  0  0
    0.6474   -3.4151   -0.7227 N   0  3  0  0  0  0  0  0  0  0  0  0
   -0.2957   -3.6593   -1.0383 H   0  0  0  0  0  0  0  0  0  0  0  0
    1.6496   -4.2498   -0.3827 C   0  0  0  0  0  0  0  0  0  0  0  0
    1.5782   -5.3348   -0.3408 H   0  0  0  0  0  0  0  0  0  0  0  0
    2.7523   -3.5118   -0.1223 N   0  0  0  0  0  0  0  0  0  0  0  0
    3.6607   -3.8736    0.1558 H   0  0  0  0  0  0  0  0  0  0  0  0
    2.4400   -2.1715   -0.3030 C   0  0  0  0  0  0  0  0  0  0  0  0
    3.1037   -1.3210   -0.1749 H   0  0  0  0  0  0  0  0  0  0  0  0
   -0.4874    1.2908    0.1962 C   0  0  0  0  0  0  0  0  0  0  0  0
   -1.3116    1.8673   -0.5151 O   0  0  0  0  0  0  0  0  0  0  0  0
    0.3889    1.9422    0.9708 N   0  0  0  0  0  0  0  0  0  0  0  0
    1.0197    1.3866    1.5283 H   0  0  0  0  0  0  0  0  0  0  0  0
    0.5081    3.3999    1.0720 C   0  0  0  0  0  0  0  0  0  0  0  0
    0.0188    3.7538    1.9817 H   0  0  0  0  0  0  0  0  0  0  0  0
    1.5607    3.6858    1.1098 H   0  0  0  0  0  0  0  0  0  0  0  0
    0.0459    3.8890    0.2119 H   0  0  0  0  0  0  0  0  0  0  0  0
  5  6  2  0  0  0  0
  5  7  1  0  0  0  0
  2  3  1  0  0  0  0
  2  4  1  0  0  0  0
  2  5  1  0  0  0  0
  1  2  1  0  0  0  0
 23 24  2  0  0  0  0
 23 25  1  0  0  0  0
 21 22  1  0  0  0  0
 19 20  1  0  0  0  0
 19 21  1  0  0  0  0
 17 18  1  0  0  0  0
 17 19  1  0  0  0  0
 15 16  1  0  0  0  0
 15 17  2  0  0  0  0
 14 15  1  0  0  0  0
 14 21  2  0  0  0  0
 11 12  1  0  0  0  0
 11 13  1  0  0  0  0
 11 14  1  0  0  0  0
  9 10  1  0  0  0  0
  9 11  1  0  0  0  0
  9 23  1  0  0  0  0
  7  8  1  0  0  0  0
  7  9  1  0  0  0  0
 27 28  1  0  0  0  0
 27 29  1  0  0  0  0
 27 30  1  0  0  0  0
 25 26  1  0  0  0  0
 25 27  1  0  0  0  0
M  CHG  1  15   1
M  END
$$$$
default_name
  -OEChem-02102213163D

 30 30  0     1  0  0  0  0  0999 V2000
   -3.5507   -3.2183    1.8116 H   0  0  0  0  0  0  0  0  0  0  0  0
   -3.4597   -2.3913    1.1076 C   0  0  0  0  0  0  0  0  0  0  0  0
   -4.1577   -1.6043    1.3866 H   0  0  0  0  0  0  0  0  0  0  0  0
   -3.6807   -2.7523    0.1036 H   0  0  0  0  0  0  0  0  0  0  0  0
   -2.0477   -1.8543    1.1546 C   0  0  0  0  0  0  0  0  0  0  0  0
   -1.2227   -2.3443    1.9146 O   0  0  0  0  0  0  0  0  0  0  0  0
   -1.7517   -0.8483    0.3266 N   0  0  0  0  0  0  0  0  0  0  0  0
   -2.4847   -0.5123   -0.2804 H   0  0  0  0  0  0  0  0  0  0  0  0
   -0.4117   -0.2463    0.2186 C   0  0  1  0  0  0  0  0  0  0  0  0
    0.1554   -0.5152    1.1133 H   0  0  0  0  0  0  0  0  0  0  0  0
    0.3164   -0.8780   -0.9905 C   0  0  0  0  0  0  0  0  0  0  0  0
   -0.4261   -1.1263   -1.7532 H   0  0  0  0  0  0  0  0  0  0  0  0
    0.9887   -0.1363   -1.4271 H   0  0  0  0  0  0  0  0  0  0  0  0
    1.1247   -2.1195   -0.6782 C   0  0  0  0  0  0  0  0  0  0  0  0
    0.7568   -3.4126   -0.9959 N   0  3  0  0  0  0  0  0  0  0  0  0
   -0.0808   -3.6450   -1.5372 H   0  0  0  0  0  0  0  0  0  0  0  0
    1.7207   -4.2484   -0.5611 C   0  0  0  0  0  0  0  0  0  0  0  0
    1.7164   -5.3301   -0.6796 H   0  0  0  0  0  0  0  0  0  0  0  0
    2.6919   -3.5137    0.0267 N   0  0  0  0  0  0  0  0  0  0  0  0
    3.5449   -3.8765    0.4440 H   0  0  0  0  0  0  0  0  0  0  0  0
    2.3333   -2.1744   -0.0381 C   0  0  0  0  0  0  0  0  0  0  0  0
    2.8961   -1.3262    0.3419 H   0  0  0  0  0  0  0  0  0  0  0  0
   -0.4874    1.2908    0.1962 C   0  0  0  0  0  0  0  0  0  0  0  0
   -1.3116    1.8673   -0.5151 O   0  0  0  0  0  0  0  0  0  0  0  0
    0.3889    1.9422    0.9708 N   0  0  0  0  0  0  0  0  0  0  0  0
    1.0197    1.3866    1.5283 H   0  0  0  0  0  0  0  0  0  0  0  0
    0.5081    3.3999    1.0720 C   0  0  0  0  0  0  0  0  0  0  0  0
    0.0188    3.7538    1.9817 H   0  0  0  0  0  0  0  0  0  0  0  0
    1.5607    3.6858    1.1098 H   0  0  0  0  0  0  0  0  0  0  0  0
    0.0459    3.8890    0.2119 H   0  0  0  0  0  0  0  0  0  0  0  0
  5  6  2  0  0  0  0
  5  7  1  0  0  0  0
  2  3  1  0  0  0  0
  2  4  1  0  0  0  0
  2  5  1  0  0  0  0
  1  2  1  0  0  0  0
 23 24  2  0  0  0  0
 23 25  1  0  0  0  0
 21 22  1  0  0  0  0
 19 20  1  0  0  0  0
 19 21  1  0  0  0  0
 17 18  1  0  0  0  0
 17 19  1  0  0  0  0
 15 16  1  0  0  0  0
 15 17  2  0  0  0  0
 14 15  1  0  0  0  0
 14 21  2  0  0  0  0
 11 12  1  0  0  0  0
 11 13  1  0  0  0  0
 11 14  1  0  0  0  0
  9 10  1  0  0  0  0
  9 11  1  0  0  0  0
  9 23  1  0  0  0  0
  7  8  1  0  0  0  0
  7  9  1  0  0  0  0
 27 28  1  0  0  0  0
 27 29  1  0  0  0  0
 27 30  1  0  0  0  0
 25 26  1  0  0  0  0
 25 27  1  0  0  0  0
M  CHG  1  15   1
M  END
$$$$
default_name
  -OEChem-02102213163D

 30 30  0     1  0  0  0  0  0999 V2000
   -3.5507   -3.2183    1.8116 H   0  0  0  0  0  0  0  0  0  0  0  0
   -3.4597   -2.3913    1.1076 C   0  0  0  0  0  0  0  0  0  0  0  0
   -4.1577   -1.6043    1.3866 H   0  0  0  0  0  0  0  0  0  0  0  0
   -3.6807   -2.7523    0.1036 H   0  0  0  0  0  0  0  0  0  0  0  0
   -2.0477   -1.8543    1.1546 C   0  0  0  0  0  0  0  0  0  0  0  0
   -1.2227   -2.3443    1.9146 O   0  0  0  0  0  0  0  0  0  0  0  0
   -1.7517   -0.8483    0.3266 N   0  0  0  0  0  0  0  0  0  0  0  0
   -2.4847   -0.5123   -0.2804 H   0  0  0  0  0  0  0  0  0  0  0  0
   -0.4117   -0.2463    0.2186 C   0  0  1  0  0  0  0  0  0  0  0  0
    0.1554   -0.5152    1.1133 H   0  0  0  0  0  0  0  0  0  0  0  0
    0.3164   -0.8780   -0.9905 C   0  0  0  0  0  0  0  0  0  0  0  0
   -0.4261   -1.1263   -1.7532 H   0  0  0  0  0  0  0  0  0  0  0  0
    0.9887   -0.1363   -1.4271 H   0  0  0  0  0  0  0  0  0  0  0  0
    1.1247   -2.1195   -0.6782 C   0  0  0  0  0  0  0  0  0  0  0  0
    0.9204   -3.3666   -1.2362 N   0  3  0  0  0  0  0  0  0  0  0  0
    0.2319   -3.5507   -1.9716 H   0  0  0  0  0  0  0  0  0  0  0  0
    1.8272   -4.2186   -0.7181 C   0  0  0  0  0  0  0  0  0  0  0  0
    1.9216   -5.2712   -0.9769 H   0  0  0  0  0  0  0  0  0  0  0  0
    2.6020   -3.5393    0.1576 N   0  0  0  0  0  0  0  0  0  0  0  0
    3.3720   -3.9254    0.6975 H   0  0  0  0  0  0  0  0  0  0  0  0
    2.1742   -2.2194    0.1948 C   0  0  0  0  0  0  0  0  0  0  0  0
    2.5860   -1.4137    0.7962 H   0  0  0  0  0  0  0  0  0  0  0  0
   -0.4874    1.2908    0.1962 C   0  0  0  0  0  0  0  0  0  0  0  0
   -1.3116    1.8673   -0.5151 O   0  0  0  0  0  0  0  0  0  0  0  0
    0.3889    1.9422    0.9708 N   0  0  0  0  0  0  0  0  0  0  0  0
    1.0197    1.3866    1.5283 H   0  0  0  0  0  0  0  0  0  0  0  0
    0.5081    3.3999    1.0720 C   0  0  0  0  0  0  0  0  0  0  0  0
    0.0188    3.7538    1.9817 H   0  0  0  0  0  0  0  0  0  0  0  0
    1.5607    3.6858    1.1098 H   0  0  0  0  0  0  0  0  0  0  0  0
    0.0459    3.8890    0.2119 H   0  0  0  0  0  0  0  0  0  0  0  0
  5  6  2  0  0  0  0
  5  7  1  0  0  0  0
  2  3  1  0  0  0  0
  2  4  1  0  0  0  0
  2  5  1  0  0  0  0
  1  2  1  0  0  0  0
 23 24  2  0  0  0  0
 23 25  1  0  0  0  0
 21 22  1  0  0  0  0
 19 20  1  0  0  0  0
 19 21  1  0  0  0  0
 17 18  1  0  0  0  0
 17 19  1  0  0  0  0
 15 16  1  0  0  0  0
 15 17  2  0  0  0  0
 14 15  1  0  0  0  0
 14 21  2  0  0  0  0
 11 12  1  0  0  0  0
 11 13  1  0  0  0  0
 11 14  1  0  0  0  0
  9 10  1  0  0  0  0
  9 11  1  0  0  0  0
  9 23  1  0  0  0  0
  7  8  1  0  0  0  0
  7  9  1  0  0  0  0
 27 28  1  0  0  0  0
 27 29  1  0  0  0  0
 27 30  1  0  0  0  0
 25 26  1  0  0  0  0
 25 27  1  0  0  0  0
M  CHG  1  15   1
M  END
$$$$
default_name
  -OEChem-02102213163D

 30 30  0     1  0  0  0  0  0999 V2000
   -3.5507   -3.2183    1.8116 H   0  0  0  0  0  0  0  0  0  0  0  0
   -3.4597   -2.3913    1.1076 C   0  0  0  0  0  0  0  0  0  0  0  0
   -4.1577   -1.6043    1.3866 H   0  0  0  0  0  0  0  0  0  0  0  0
   -3.6807   -2.7523    0.1036 H   0  0  0  0  0  0  0  0  0  0  0  0
   -2.0477   -1.8543    1.1546 C   0  0  0  0  0  0  0  0  0  0  0  0
   -1.2227   -2.3443    1.9146 O   0  0  0  0  0  0  0  0  0  0  0  0
   -1.7517   -0.8483    0.3266 N   0  0  0  0  0  0  0  0  0  0  0  0
   -2.4847   -0.5123   -0.2804 H   0  0  0  0  0  0  0  0  0  0  0  0
   -0.4117   -0.2463    0.2186 C   0  0  1  0  0  0  0  0  0  0  0  0
    0.1554   -0.5152    1.1133 H   0  0  0  0  0  0  0  0  0  0  0  0
    0.3164   -0.8780   -0.9905 C   0  0  0  0  0  0  0  0  0  0  0  0
   -0.4261   -1.1263   -1.7532 H   0  0  0  0  0  0  0  0  0  0  0  0
    0.9887   -0.1363   -1.4271 H   0  0  0  0  0  0  0  0  0  0  0  0
    1.1247   -2.1195   -0.6782 C   0  0  0  0  0  0  0  0  0  0  0  0
    1.1269   -3.2802   -1.4273 N   0  3  0  0  0  0  0  0  0  0  0  0
    0.6210   -3.3829   -2.3118 H   0  0  0  0  0  0  0  0  0  0  0  0
    1.9618   -4.1624   -0.8430 C   0  0  0  0  0  0  0  0  0  0  0  0
    2.1798   -5.1624   -1.2124 H   0  0  0  0  0  0  0  0  0  0  0  0
    2.4888   -3.5869    0.2613 N   0  0  0  0  0  0  0  0  0  0  0  0
    3.1538   -4.0168    0.8988 H   0  0  0  0  0  0  0  0  0  0  0  0
    1.9734   -2.3036    0.3798 C   0  0  0  0  0  0  0  0  0  0  0  0
    2.1948   -1.5776    1.1572 H   0  0  0  0  0  0  0  0  0  0  0  0
   -0.4874    1.2908    0.1962 C   0  0  0  0  0  0  0  0  0  0  0  0
   -1.3116    1.8673   -0.5151 O   0  0  0  0  0  0  0  0  0  0  0  0
    0.3889    1.9422    0.9708 N   0  0  0  0  0  0  0  0  0  0  0  0
    1.0197    1.3866    1.5283 H   0  0  0  0  0  0  0  0  0  0  0  0
    0.5081    3.3999    1.0720 C   0  0  0  0  0  0  0  0  0  0  0  0
    0.0188    3.7538    1.9817 H   0  0  0  0  0  0  0  0  0  0  0  0
    1.5607    3.6858    1.1098 H   0  0  0  0  0  0  0  0  0  0  0  0
    0.0459    3.8890    0.2119 H   0  0  0  0  0  0  0  0  0  0  0  0
  5  6  2  0  0  0  0
  5  7  1  0  0  0  0
  2  3  1  0  0  0  0
  2  4  1  0  0  0  0
  2  5  1  0  0  0  0
  1  2  1  0  0  0  0
 23 24  2  0  0  0  0
 23 25  1  0  0  0  0
 21 22  1  0  0  0  0
 19 20  1  0  0  0  0
 19 21  1  0  0  0  0
 17 18  1  0  0  0  0
 17 19  1  0  0  0  0
 15 16  1  0  0  0  0
 15 17  2  0  0  0  0
 14 15  1  0  0  0  0
 14 21  2  0  0  0  0
 11 12  1  0  0  0  0
 11 13  1  0  0  0  0
 11 14  1  0  0  0  0
  9 10  1  0  0  0  0
  9 11  1  0  0  0  0
  9 23  1  0  0  0  0
  7  8  1  0  0  0  0
  7  9  1  0  0  0  0
 27 28  1  0  0  0  0
 27 29  1  0  0  0  0
 27 30  1  0  0  0  0
 25 26  1  0  0  0  0
 25 27  1  0  0  0  0
M  CHG  1  15   1
M  END
$$$$
default_name
  -OEChem-02102213163D

 30 30  0     1  0  0  0  0  0999 V2000
   -3.5507   -3.2183    1.8116 H   0  0  0  0  0  0  0  0  0  0  0  0
   -3.4597   -2.3913    1.1076 C   0  0  0  0  0  0  0  0  0  0  0  0
   -4.1577   -1.6043    1.3866 H   0  0  0  0  0  0  0  0  0  0  0  0
   -3.6807   -2.7523    0.1036 H   0  0  0  0  0  0  0  0  0  0  0  0
   -2.0477   -1.8543    1.1546 C   0  0  0  0  0  0  0  0  0  0  0  0
   -1.2227   -2.3443    1.9146 O   0  0  0  0  0  0  0  0  0  0  0  0
   -1.7517   -0.8483    0.3266 N   0  0  0  0  0  0  0  0  0  0  0  0
   -2.4847   -0.5123   -0.2804 H   0  0  0  0  0  0  0  0  0  0  0  0
   -0.4117   -0.2463    0.2186 C   0  0  1  0  0  0  0  0  0  0  0  0
    0.1554   -0.5152    1.1133 H   0  0  0  0  0  0  0  0  0  0  0  0
    0.3164   -0.8780   -0.9905 C   0  0  0  0  0  0  0  0  0  0  0  0
   -0.4261   -1.1263   -1.7532 H   0  0  0  0  0  0  0  0  0  0  0  0
    0.9887   -0.1363   -1.4271 H   0  0  0  0  0  0  0  0  0  0  0  0
    1.1247   -2.1195   -0.6782 C   0  0  0  0  0  0  0  0  0  0  0  0
    1.3623   -3.1594   -1.5561 N   0  3  0  0  0  0  0  0  0  0  0  0
    1.0601   -3.1530   -2.5346 H   0  0  0  0  0  0  0  0  0  0  0  0
    2.1153   -4.0836   -0.9274 C   0  0  0  0  0  0  0  0  0  0  0  0
    2.4733   -5.0110   -1.3700 H   0  0  0  0  0  0  0  0  0  0  0  0
    2.3599   -3.6533    0.3310 N   0  0  0  0  0  0  0  0  0  0  0  0
    2.9052   -4.1445    1.0344 H   0  0  0  0  0  0  0  0  0  0  0  0
    1.7448   -2.4212    0.5042 C   0  0  0  0  0  0  0  0  0  0  0  0
    1.7491   -1.8067    1.4002 H   0  0  0  0  0  0  0  0  0  0  0  0
   -0.4874    1.2908    0.1962 C   0  0  0  0  0  0  0  0  0  0  0  0
   -1.3116    1.8673   -0.5151 O   0  0  0  0  0  0  0  0  0  0  0  0
    0.3889    1.9422    0.9708 N   0  0  0  0  0  0  0  0  0  0  0  0
    1.0197    1.3866    1.5283 H   0  0  0  0  0  0  0  0  0  0  0  0
    0.5081    3.3999    1.0720 C   0  0  0  0  0  0  0  0  0  0  0  0
    0.0188    3.7538    1.9817 H   0  0  0  0  0  0  0  0  0  0  0  0
    1.5607    3.6858    1.1098 H   0  0  0  0  0  0  0  0  0  0  0  0
    0.0459    3.8890    0.2119 H   0  0  0  0  0  0  0  0  0  0  0  0
  5  6  2  0  0  0  0
  5  7  1  0  0  0  0
  2  3  1  0  0  0  0
  2  4  1  0  0  0  0
  2  5  1  0  0  0  0
  1  2  1  0  0  0  0
 23 24  2  0  0  0  0
 23 25  1  0  0  0  0
 21 22  1  0  0  0  0
 19 20  1  0  0  0  0
 19 21  1  0  0  0  0
 17 18  1  0  0  0  0
 17 19  1  0  0  0  0
 15 16  1  0  0  0  0
 15 17  2  0  0  0  0
 14 15  1  0  0  0  0
 14 21  2  0  0  0  0
 11 12  1  0  0  0  0
 11 13  1  0  0  0  0
 11 14  1  0  0  0  0
  9 10  1  0  0  0  0
  9 11  1  0  0  0  0
  9 23  1  0  0  0  0
  7  8  1  0  0  0  0
  7  9  1  0  0  0  0
 27 28  1  0  0  0  0
 27 29  1  0  0  0  0
 27 30  1  0  0  0  0
 25 26  1  0  0  0  0
 25 27  1  0  0  0  0
M  CHG  1  15   1
M  END
$$$$
default_name
  -OEChem-02102213163D

 30 30  0     1  0  0  0  0  0999 V2000
   -3.5507   -3.2183    1.8116 H   0  0  0  0  0  0  0  0  0  0  0  0
   -3.4597   -2.3913    1.1076 C   0  0  0  0  0  0  0  0  0  0  0  0
   -4.1577   -1.6043    1.3866 H   0  0  0  0  0  0  0  0  0  0  0  0
   -3.6807   -2.7523    0.1036 H   0  0  0  0  0  0  0  0  0  0  0  0
   -2.0477   -1.8543    1.1546 C   0  0  0  0  0  0  0  0  0  0  0  0
   -1.2227   -2.3443    1.9146 O   0  0  0  0  0  0  0  0  0  0  0  0
   -1.7517   -0.8483    0.3266 N   0  0  0  0  0  0  0  0  0  0  0  0
   -2.4847   -0.5123   -0.2804 H   0  0  0  0  0  0  0  0  0  0  0  0
   -0.4117   -0.2463    0.2186 C   0  0  1  0  0  0  0  0  0  0  0  0
    0.1554   -0.5152    1.1133 H   0  0  0  0  0  0  0  0  0  0  0  0
    0.3164   -0.8780   -0.9905 C   0  0  0  0  0  0  0  0  0  0  0  0
   -0.4261   -1.1263   -1.7532 H   0  0  0  0  0  0  0  0  0  0  0  0
    0.9887   -0.1363   -1.4271 H   0  0  0  0  0  0  0  0  0  0  0  0
    1.1247   -2.1195   -0.6782 C   0  0  0  0  0  0  0  0  0  0  0  0
    1.6105   -3.0122   -1.6138 N   0  3  0  0  0  0  0  0  0  0  0  0
    1.5193   -2.8767   -2.6248 H   0  0  0  0  0  0  0  0  0  0  0  0
    2.2773   -3.9877   -0.9654 C   0  0  0  0  0  0  0  0  0  0  0  0
    2.7822   -4.8272   -1.4391 H   0  0  0  0  0  0  0  0  0  0  0  0
    2.2242   -3.7339    0.3617 N   0  0  0  0  0  0  0  0  0  0  0  0
    2.6431   -4.2999    1.0949 H   0  0  0  0  0  0  0  0  0  0  0  0
    1.5038   -2.5641    0.5596 C   0  0  0  0  0  0  0  0  0  0  0  0
    1.2792   -2.0854    1.5087 H   0  0  0  0  0  0  0  0  0  0  0  0
   -0.4874    1.2908    0.1962 C   0  0  0  0  0  0  0  0  0  0  0  0
   -1.3116    1.8673   -0.5151 O   0  0  0  0  0  0  0  0  0  0  0  0
    0.3889    1.9422    0.9708 N   0  0  0  0  0  0  0  0  0  0  0  0
    1.0197    1.3866    1.5283 H   0  0  0  0  0  0  0  0  0  0  0  0
    0.5081    3.3999    1.0720 C   0  0  0  0  0  0  0  0  0  0  0  0
    0.0188    3.7538    1.9817 H   0  0  0  0  0  0  0  0  0  0  0  0
    1.5607    3.6858    1.1098 H   0  0  0  0  0  0  0  0  0  0  0  0
    0.0459    3.8890    0.2119 H   0  0  0  0  0  0  0  0  0  0  0  0
  5  6  2  0  0  0  0
  5  7  1  0  0  0  0
  2  3  1  0  0  0  0
  2  4  1  0  0  0  0
  2  5  1  0  0  0  0
  1  2  1  0  0  0  0
 23 24  2  0  0  0  0
 23 25  1  0  0  0  0
 21 22  1  0  0  0  0
 19 20  1  0  0  0  0
 19 21  1  0  0  0  0
 17 18  1  0  0  0  0
 17 19  1  0  0  0  0
 15 16  1  0  0  0  0
 15 17  2  0  0  0  0
 14 15  1  0  0  0  0
 14 21  2  0  0  0  0
 11 12  1  0  0  0  0
 11 13  1  0  0  0  0
 11 14  1  0  0  0  0
  9 10  1  0  0  0  0
  9 11  1  0  0  0  0
  9 23  1  0  0  0  0
  7  8  1  0  0  0  0
  7  9  1  0  0  0  0
 27 28  1  0  0  0  0
 27 29  1  0  0  0  0
 27 30  1  0  0  0  0
 25 26  1  0  0  0  0
 25 27  1  0  0  0  0
M  CHG  1  15   1
M  END
$$$$
default_name
  -OEChem-02102213163D

 30 30  0     1  0  0  0  0  0999 V2000
   -3.5507   -3.2183    1.8116 H   0  0  0  0  0  0  0  0  0  0  0  0
   -3.4597   -2.3913    1.1076 C   0  0  0  0  0  0  0  0  0  0  0  0
   -4.1577   -1.6043    1.3866 H   0  0  0  0  0  0  0  0  0  0  0  0
   -3.6807   -2.7523    0.1036 H   0  0  0  0  0  0  0  0  0  0  0  0
   -2.0477   -1.8543    1.1546 C   0  0  0  0  0  0  0  0  0  0  0  0
   -1.2227   -2.3443    1.9146 O   0  0  0  0  0  0  0  0  0  0  0  0
   -1.7517   -0.8483    0.3266 N   0  0  0  0  0  0  0  0  0  0  0  0
   -2.4847   -0.5123   -0.2804 H   0  0  0  0  0  0  0  0  0  0  0  0
   -0.4117   -0.2463    0.2186 C   0  0  1  0  0  0  0  0  0  0  0  0
    0.1554   -0.5152    1.1133 H   0  0  0  0  0  0  0  0  0  0  0  0
    0.3164   -0.8780   -0.9905 C   0  0  0  0  0  0  0  0  0  0  0  0
   -0.3648   -0.8795   -1.8452 H   0  0  0  0  0  0  0  0  0  0  0  0
    1.1677   -0.2494   -1.2602 H   0  0  0  0  0  0  0  0  0  0  0  0
    0.8232   -2.2878   -0.7718 C   0  0  0  0  0  0  0  0  0  0  0  0
    1.4997   -3.0471   -1.7068 N   0  3  0  0  0  0  0  0  0  0  0  0
    1.7791   -2.6937   -2.6265 H   0  0  0  0  0  0  0  0  0  0  0  0
    1.7881   -4.2430   -1.1560 C   0  0  0  0  0  0  0  0  0  0  0  0
    2.3286   -5.0488   -1.6484 H   0  0  0  0  0  0  0  0  0  0  0  0
    1.3083   -4.2594    0.1081 N   0  0  0  0  0  0  0  0  0  0  0  0
    1.3822   -5.0321    0.7646 H   0  0  0  0  0  0  0  0  0  0  0  0
    0.6991   -3.0391    0.3656 C   0  0  0  0  0  0  0  0  0  0  0  0
    0.2153   -2.7298    1.2879 H   0  0  0  0  0  0  0  0  0  0  0  0
   -0.4874    1.2908    0.1962 C   0  0  0  0  0  0  0  0  0  0  0  0
   -1.3116    1.8673   -0.5151 O   0  0  0  0  0  0  0  0  0  0  0  0
    0.3889    1.9422    0.9708 N   0  0  0  0  0  0  0  0  0  0  0  0
    1.0197    1.3866    1.5283 H   0  0  0  0  0  0  0  0  0  0  0  0
    0.5081    3.3999    1.0720 C   0  0  0  0  0  0  0  0  0  0  0  0
    0.0188    3.7538    1.9817 H   0  0  0  0  0  0  0  0  0  0  0  0
    1.5607    3.6858    1.1098 H   0  0  0  0  0  0  0  0  0  0  0  0
    0.0459    3.8890    0.2119 H   0  0  0  0  0  0  0  0  0  0  0  0
  5  6  2  0  0  0  0
  5  7  1  0  0  0  0
  2  3  1  0  0  0  0
  2  4  1  0  0  0  0
  2  5  1  0  0  0  0
  1  2  1  0  0  0  0
 23 24  2  0  0  0  0
 23 25  1  0  0  0  0
 21 22  1  0  0  0  0
 19 20  1  0  0  0  0
 19 21  1  0  0  0  0
 17 18  1  0  0  0  0
 17 19  1  0  0  0  0
 15 16  1  0  0  0  0
 15 17  2  0  0  0  0
 14 15  1  0  0  0  0
 14 21  2  0  0  0  0
 11 12  1  0  0  0  0
 11 13  1  0  0  0  0
 11 14  1  0  0  0  0
  9 10  1  0  0  0  0
  9 11  1  0  0  0  0
  9 23  1  0  0  0  0
  7  8  1  0  0  0  0
  7  9  1  0  0  0  0
 27 28  1  0  0  0  0
 27 29  1  0  0  0  0
 27 30  1  0  0  0  0
 25 26  1  0  0  0  0
 25 27  1  0  0  0  0
M  CHG  1  15   1
M  END
$$$$
default_name
  -OEChem-02102213163D

 30 30  0     1  0  0  0  0  0999 V2000
   -3.5507   -3.2183    1.8116 H   0  0  0  0  0  0  0  0  0  0  0  0
   -3.4597   -2.3913    1.1076 C   0  0  0  0  0  0  0  0  0  0  0  0
   -4.1577   -1.6043    1.3866 H   0  0  0  0  0  0  0  0  0  0  0  0
   -3.6807   -2.7523    0.1036 H   0  0  0  0  0  0  0  0  0  0  0  0
   -2.0477   -1.8543    1.1546 C   0  0  0  0  0  0  0  0  0  0  0  0
   -1.2227   -2.3443    1.9146 O   0  0  0  0  0  0  0  0  0  0  0  0
   -1.7517   -0.8483    0.3266 N   0  0  0  0  0  0  0  0  0  0  0  0
   -2.4847   -0.5123   -0.2804 H   0  0  0  0  0  0  0  0  0  0  0  0
   -0.4117   -0.2463    0.2186 C   0  0  1  0  0  0  0  0  0  0  0  0
    0.1554   -0.5152    1.1133 H   0  0  0  0  0  0  0  0  0  0  0  0
    0.3164   -0.8780   -0.9905 C   0  0  0  0  0  0  0  0  0  0  0  0
   -0.3648   -0.8795   -1.8452 H   0  0  0  0  0  0  0  0  0  0  0  0
    1.1677   -0.2494   -1.2602 H   0  0  0  0  0  0  0  0  0  0  0  0
    0.8232   -2.2878   -0.7718 C   0  0  0  0  0  0  0  0  0  0  0  0
    1.7395   -2.9403   -1.5738 N   0  3  0  0  0  0  0  0  0  0  0  0
    2.2136   -2.4971   -2.3660 H   0  0  0  0  0  0  0  0  0  0  0  0
    1.9447   -4.1732   -1.0695 C   0  0  0  0  0  0  0  0  0  0  0  0
    2.6255   -4.9160   -1.4804 H   0  0  0  0  0  0  0  0  0  0  0  0
    1.1777   -4.3177    0.0347 N   0  0  0  0  0  0  0  0  0  0  0  0
    1.1293   -5.1448    0.6238 H   0  0  0  0  0  0  0  0  0  0  0  0
    0.4667   -3.1428    0.2359 C   0  0  0  0  0  0  0  0  0  0  0  0
   -0.2381   -2.9320    1.0354 H   0  0  0  0  0  0  0  0  0  0  0  0
   -0.4874    1.2908    0.1962 C   0  0  0  0  0  0  0  0  0  0  0  0
   -1.3116    1.8673   -0.5151 O   0  0  0  0  0  0  0  0  0  0  0  0
    0.3889    1.9422    0.9708 N   0  0  0  0  0  0  0  0  0  0  0  0
    1.0197    1.3866    1.5283 H   0  0  0  0  0  0  0  0  0  0  0  0
    0.5081    3.3999    1.0720 C   0  0  0  0  0  0  0  0  0  0  0  0
    0.0188    3.7538    1.9817 H   0  0  0  0  0  0  0  0  0  0  0  0
    1.5607    3.6858    1.1098 H   0  0  0  0  0  0  0  0  0  0  0  0
    0.0459    3.8890    0.2119 H   0  0  0  0  0  0  0  0  0  0  0  0
  5  6  2  0  0  0  0
  5  7  1  0  0  0  0
  2  3  1  0  0  0  0
  2  4  1  0  0  0  0
  2  5  1  0  0  0  0
  1  2  1  0  0  0  0
 23 24  2  0  0  0  0
 23 25  1  0  0  0  0
 21 22  1  0  0  0  0
 19 20  1  0  0  0  0
 19 21  1  0  0  0  0
 17 18  1  0  0  0  0
 17 19  1  0  0  0  0
 15 16  1  0  0  0  0
 15 17  2  0  0  0  0
 14 15  1  0  0  0  0
 14 21  2  0  0  0  0
 11 12  1  0  0  0  0
 11 13  1  0  0  0  0
 11 14  1  0  0  0  0
  9 10  1  0  0  0  0
  9 11  1  0  0  0  0
  9 23  1  0  0  0  0
  7  8  1  0  0  0  0
  7  9  1  0  0  0  0
 27 28  1  0  0  0  0
 27 29  1  0  0  0  0
 27 30  1  0  0  0  0
 25 26  1  0  0  0  0
 25 27  1  0  0  0  0
M  CHG  1  15   1
M  END
$$$$
default_name
  -OEChem-02102213163D

 30 30  0     1  0  0  0  0  0999 V2000
   -3.5507   -3.2183    1.8116 H   0  0  0  0  0  0  0  0  0  0  0  0
   -3.4597   -2.3913    1.1076 C   0  0  0  0  0  0  0  0  0  0  0  0
   -4.1577   -1.6043    1.3866 H   0  0  0  0  0  0  0  0  0  0  0  0
   -3.6807   -2.7523    0.1036 H   0  0  0  0  0  0  0  0  0  0  0  0
   -2.0477   -1.8543    1.1546 C   0  0  0  0  0  0  0  0  0  0  0  0
   -1.2227   -2.3443    1.9146 O   0  0  0  0  0  0  0  0  0  0  0  0
   -1.7517   -0.8483    0.3266 N   0  0  0  0  0  0  0  0  0  0  0  0
   -2.4847   -0.5123   -0.2804 H   0  0  0  0  0  0  0  0  0  0  0  0
   -0.4117   -0.2463    0.2186 C   0  0  1  0  0  0  0  0  0  0  0  0
    0.1554   -0.5152    1.1133 H   0  0  0  0  0  0  0  0  0  0  0  0
    0.3164   -0.8780   -0.9905 C   0  0  0  0  0  0  0  0  0  0  0  0
   -0.3648   -0.8795   -1.8452 H   0  0  0  0  0  0  0  0  0  0  0  0
    1.1677   -0.2494   -1.2602 H   0  0  0  0  0  0  0  0  0  0  0  0
    0.8232   -2.2878   -0.7718 C   0  0  0  0  0  0  0  0  0  0  0  0
    1.9350   -2.8396   -1.3783 N   0  3  0  0  0  0  0  0  0  0  0  0
    2.5632   -2.3135   -1.9926 H   0  0  0  0  0  0  0  0  0  0  0  0
    2.0726   -4.1075   -0.9421 C   0  0  0  0  0  0  0  0  0  0  0  0
    2.8667   -4.7912   -1.2351 H   0  0  0  0  0  0  0  0  0  0  0  0
    1.0714   -4.3726   -0.0728 N   0  0  0  0  0  0  0  0  0  0  0  0
    0.9232   -5.2510    0.4171 H   0  0  0  0  0  0  0  0  0  0  0  0
    0.2773   -3.2404    0.0456 C   0  0  0  0  0  0  0  0  0  0  0  0
   -0.6076   -3.1224    0.6648 H   0  0  0  0  0  0  0  0  0  0  0  0
   -0.4874    1.2908    0.1962 C   0  0  0  0  0  0  0  0  0  0  0  0
   -1.3116    1.8673   -0.5151 O   0  0  0  0  0  0  0  0  0  0  0  0
    0.3889    1.9422    0.9708 N   0  0  0  0  0  0  0  0  0  0  0  0
    1.0197    1.3866    1.5283 H   0  0  0  0  0  0  0  0  0  0  0  0
    0.5081    3.3999    1.0720 C   0  0  0  0  0  0  0  0  0  0  0  0
    0.0188    3.7538    1.9817 H   0  0  0  0  0  0  0  0  0  0  0  0
    1.5607    3.6858    1.1098 H   0  0  0  0  0  0  0  0  0  0  0  0
    0.0459    3.8890    0.2119 H   0  0  0  0  0  0  0  0  0  0  0  0
  5  6  2  0  0  0  0
  5  7  1  0  0  0  0
  2  3  1  0  0  0  0
  2  4  1  0  0  0  0
  2  5  1  0  0  0  0
  1  2  1  0  0  0  0
 23 24  2  0  0  0  0
 23 25  1  0  0  0  0
 21 22  1  0  0  0  0
 19 20  1  0  0  0  0
 19 21  1  0  0  0  0
 17 18  1  0  0  0  0
 17 19  1  0  0  0  0
 15 16  1  0  0  0  0
 15 17  2  0  0  0  0
 14 15  1  0  0  0  0
 14 21  2  0  0  0  0
 11 12  1  0  0  0  0
 11 13  1  0  0  0  0
 11 14  1  0  0  0  0
  9 10  1  0  0  0  0
  9 11  1  0  0  0  0
  9 23  1  0  0  0  0
  7  8  1  0  0  0  0
  7  9  1  0  0  0  0
 27 28  1  0  0  0  0
 27 29  1  0  0  0  0
 27 30  1  0  0  0  0
 25 26  1  0  0  0  0
 25 27  1  0  0  0  0
M  CHG  1  15   1
M  END
$$$$
default_name
  -OEChem-02102213163D

 30 30  0     1  0  0  0  0  0999 V2000
   -3.5507   -3.2183    1.8116 H   0  0  0  0  0  0  0  0  0  0  0  0
   -3.4597   -2.3913    1.1076 C   0  0  0  0  0  0  0  0  0  0  0  0
   -4.1577   -1.6043    1.3866 H   0  0  0  0  0  0  0  0  0  0  0  0
   -3.6807   -2.7523    0.1036 H   0  0  0  0  0  0  0  0  0  0  0  0
   -2.0477   -1.8543    1.1546 C   0  0  0  0  0  0  0  0  0  0  0  0
   -1.2227   -2.3443    1.9146 O   0  0  0  0  0  0  0  0  0  0  0  0
   -1.7517   -0.8483    0.3266 N   0  0  0  0  0  0  0  0  0  0  0  0
   -2.4847   -0.5123   -0.2804 H   0  0  0  0  0  0  0  0  0  0  0  0
   -0.4117   -0.2463    0.2186 C   0  0  1  0  0  0  0  0  0  0  0  0
    0.1554   -0.5152    1.1133 H   0  0  0  0  0  0  0  0  0  0  0  0
    0.3164   -0.8780   -0.9905 C   0  0  0  0  0  0  0  0  0  0  0  0
   -0.3648   -0.8795   -1.8452 H   0  0  0  0  0  0  0  0  0  0  0  0
    1.1677   -0.2494   -1.2602 H   0  0  0  0  0  0  0  0  0  0  0  0
    0.8232   -2.2878   -0.7718 C   0  0  0  0  0  0  0  0  0  0  0  0
    2.0731   -2.7520   -1.1335 N   0  3  0  0  0  0  0  0  0  0  0  0
    2.8039   -2.1554   -1.5317 H   0  0  0  0  0  0  0  0  0  0  0  0
    2.1629   -4.0503   -0.7826 C   0  0  0  0  0  0  0  0  0  0  0  0
    3.0360   -4.6829   -0.9292 H   0  0  0  0  0  0  0  0  0  0  0  0
    0.9967   -4.4203   -0.2070 N   0  0  0  0  0  0  0  0  0  0  0  0
    0.7779   -5.3434    0.1585 H   0  0  0  0  0  0  0  0  0  0  0  0
    0.1439   -3.3252   -0.1923 C   0  0  0  0  0  0  0  0  0  0  0  0
   -0.8681   -3.2879    0.2011 H   0  0  0  0  0  0  0  0  0  0  0  0
   -0.4874    1.2908    0.1962 C   0  0  0  0  0  0  0  0  0  0  0  0
   -1.3116    1.8673   -0.5151 O   0  0  0  0  0  0  0  0  0  0  0  0
    0.3889    1.9422    0.9708 N   0  0  0  0  0  0  0  0  0  0  0  0
    1.0197    1.3866    1.5283 H   0  0  0  0  0  0  0  0  0  0  0  0
    0.5081    3.3999    1.0720 C   0  0  0  0  0  0  0  0  0  0  0  0
    0.0188    3.7538    1.9817 H   0  0  0  0  0  0  0  0  0  0  0  0
    1.5607    3.6858    1.1098 H   0  0  0  0  0  0  0  0  0  0  0  0
    0.0459    3.8890    0.2119 H   0  0  0  0  0  0  0  0  0  0  0  0
  5  6  2  0  0  0  0
  5  7  1  0  0  0  0
  2  3  1  0  0  0  0
  2  4  1  0  0  0  0
  2  5  1  0  0  0  0
  1  2  1  0  0  0  0
 23 24  2  0  0  0  0
 23 25  1  0  0  0  0
 21 22  1  0  0  0  0
 19 20  1  0  0  0  0
 19 21  1  0  0  0  0
 17 18  1  0  0  0  0
 17 19  1  0  0  0  0
 15 16  1  0  0  0  0
 15 17  2  0  0  0  0
 14 15  1  0  0  0  0
 14 21  2  0  0  0  0
 11 12  1  0  0  0  0
 11 13  1  0  0  0  0
 11 14  1  0  0  0  0
  9 10  1  0  0  0  0
  9 11  1  0  0  0  0
  9 23  1  0  0  0  0
  7  8  1  0  0  0  0
  7  9  1  0  0  0  0
 27 28  1  0  0  0  0
 27 29  1  0  0  0  0
 27 30  1  0  0  0  0
 25 26  1  0  0  0  0
 25 27  1  0  0  0  0
M  CHG  1  15   1
M  END
$$$$
default_name
  -OEChem-02102213163D

 30 30  0     1  0  0  0  0  0999 V2000
   -3.5507   -3.2183    1.8116 H   0  0  0  0  0  0  0  0  0  0  0  0
   -3.4597   -2.3913    1.1076 C   0  0  0  0  0  0  0  0  0  0  0  0
   -4.1577   -1.6043    1.3866 H   0  0  0  0  0  0  0  0  0  0  0  0
   -3.6807   -2.7523    0.1036 H   0  0  0  0  0  0  0  0  0  0  0  0
   -2.0477   -1.8543    1.1546 C   0  0  0  0  0  0  0  0  0  0  0  0
   -1.2227   -2.3443    1.9146 O   0  0  0  0  0  0  0  0  0  0  0  0
   -1.7517   -0.8483    0.3266 N   0  0  0  0  0  0  0  0  0  0  0  0
   -2.4847   -0.5123   -0.2804 H   0  0  0  0  0  0  0  0  0  0  0  0
   -0.4117   -0.2463    0.2186 C   0  0  1  0  0  0  0  0  0  0  0  0
    0.1554   -0.5152    1.1133 H   0  0  0  0  0  0  0  0  0  0  0  0
    0.3164   -0.8780   -0.9905 C   0  0  0  0  0  0  0  0  0  0  0  0
   -0.3648   -0.8795   -1.8452 H   0  0  0  0  0  0  0  0  0  0  0  0
    1.1677   -0.2494   -1.2602 H   0  0  0  0  0  0  0  0  0  0  0  0
    0.8232   -2.2878   -0.7718 C   0  0  0  0  0  0  0  0  0  0  0  0
    2.1441   -2.6835   -0.8563 N   0  3  0  0  0  0  0  0  0  0  0  0
    2.9196   -2.0337   -1.0149 H   0  0  0  0  0  0  0  0  0  0  0  0
    2.2096   -4.0054   -0.6018 C   0  0  0  0  0  0  0  0  0  0  0  0
    3.1217   -4.5985   -0.5836 H   0  0  0  0  0  0  0  0  0  0  0  0
    0.9586   -4.4575   -0.3587 N   0  0  0  0  0  0  0  0  0  0  0  0
    0.7033   -5.4156   -0.1343 H   0  0  0  0  0  0  0  0  0  0  0  0
    0.0756   -3.3916   -0.4616 C   0  0  0  0  0  0  0  0  0  0  0  0
   -1.0018   -3.4175   -0.3238 H   0  0  0  0  0  0  0  0  0  0  0  0
   -0.4874    1.2908    0.1962 C   0  0  0  0  0  0  0  0  0  0  0  0
   -1.3116    1.8673   -0.5151 O   0  0  0  0  0  0  0  0  0  0  0  0
    0.3889    1.9422    0.9708 N   0  0  0  0  0  0  0  0  0  0  0  0
    1.0197    1.3866    1.5283 H   0  0  0  0  0  0  0  0  0  0  0  0
    0.5081    3.3999    1.0720 C   0  0  0  0  0  0  0  0  0  0  0  0
    0.0188    3.7538    1.9817 H   0  0  0  0  0  0  0  0  0  0  0  0
    1.5607    3.6858    1.1098 H   0  0  0  0  0  0  0  0  0  0  0  0
    0.0459    3.8890    0.2119 H   0  0  0  0  0  0  0  0  0  0  0  0
  5  6  2  0  0  0  0
  5  7  1  0  0  0  0
  2  3  1  0  0  0  0
  2  4  1  0  0  0  0
  2  5  1  0  0  0  0
  1  2  1  0  0  0  0
 23 24  2  0  0  0  0
 23 25  1  0  0  0  0
 21 22  1  0  0  0  0
 19 20  1  0  0  0  0
 19 21  1  0  0  0  0
 17 18  1  0  0  0  0
 17 19  1  0  0  0  0
 15 16  1  0  0  0  0
 15 17  2  0  0  0  0
 14 15  1  0  0  0  0
 14 21  2  0  0  0  0
 11 12  1  0  0  0  0
 11 13  1  0  0  0  0
 11 14  1  0  0  0  0
  9 10  1  0  0  0  0
  9 11  1  0  0  0  0
  9 23  1  0  0  0  0
  7  8  1  0  0  0  0
  7  9  1  0  0  0  0
 27 28  1  0  0  0  0
 27 29  1  0  0  0  0
 27 30  1  0  0  0  0
 25 26  1  0  0  0  0
 25 27  1  0  0  0  0
M  CHG  1  15   1
M  END
$$$$
default_name
  -OEChem-02102213163D

 30 30  0     1  0  0  0  0  0999 V2000
   -3.5507   -3.2183    1.8116 H   0  0  0  0  0  0  0  0  0  0  0  0
   -3.4597   -2.3913    1.1076 C   0  0  0  0  0  0  0  0  0  0  0  0
   -4.1577   -1.6043    1.3866 H   0  0  0  0  0  0  0  0  0  0  0  0
   -3.6807   -2.7523    0.1036 H   0  0  0  0  0  0  0  0  0  0  0  0
   -2.0477   -1.8543    1.1546 C   0  0  0  0  0  0  0  0  0  0  0  0
   -1.2227   -2.3443    1.9146 O   0  0  0  0  0  0  0  0  0  0  0  0
   -1.7517   -0.8483    0.3266 N   0  0  0  0  0  0  0  0  0  0  0  0
   -2.4847   -0.5123   -0.2804 H   0  0  0  0  0  0  0  0  0  0  0  0
   -0.4117   -0.2463    0.2186 C   0  0  1  0  0  0  0  0  0  0  0  0
    0.1554   -0.5152    1.1133 H   0  0  0  0  0  0  0  0  0  0  0  0
    0.3164   -0.8780   -0.9905 C   0  0  0  0  0  0  0  0  0  0  0  0
   -0.3648   -0.8795   -1.8452 H   0  0  0  0  0  0  0  0  0  0  0  0
    1.1677   -0.2494   -1.2602 H   0  0  0  0  0  0  0  0  0  0  0  0
    0.8232   -2.2878   -0.7718 C   0  0  0  0  0  0  0  0  0  0  0  0
    2.1434   -2.6386   -0.5654 N   0  3  0  0  0  0  0  0  0  0  0  0
    2.9021   -1.9565   -0.4773 H   0  0  0  0  0  0  0  0  0  0  0  0
    2.2094   -3.9760   -0.4120 C   0  0  0  0  0  0  0  0  0  0  0  0
    3.1181   -4.5436   -0.2218 H   0  0  0  0  0  0  0  0  0  0  0  0
    0.9598   -4.4818   -0.5177 N   0  0  0  0  0  0  0  0  0  0  0  0
    0.7045   -5.4628   -0.4413 H   0  0  0  0  0  0  0  0  0  0  0  0
    0.0770   -3.4349   -0.7440 C   0  0  0  0  0  0  0  0  0  0  0  0
   -0.9996   -3.5021   -0.8743 H   0  0  0  0  0  0  0  0  0  0  0  0
   -0.4874    1.2908    0.1962 C   0  0  0  0  0  0  0  0  0  0  0  0
   -1.3116    1.8673   -0.5151 O   0  0  0  0  0  0  0  0  0  0  0  0
    0.3889    1.9422    0.9708 N   0  0  0  0  0  0  0  0  0  0  0  0
    1.0197    1.3866    1.5283 H   0  0  0  0  0  0  0  0  0  0  0  0
    0.5081    3.3999    1.0720 C   0  0  0  0  0  0  0  0  0  0  0  0
    0.0188    3.7538    1.9817 H   0  0  0  0  0  0  0  0  0  0  0  0
    1.5607    3.6858    1.1098 H   0  0  0  0  0  0  0  0  0  0  0  0
    0.0459    3.8890    0.2119 H   0  0  0  0  0  0  0  0  0  0  0  0
  5  6  2  0  0  0  0
  5  7  1  0  0  0  0
  2  3  1  0  0  0  0
  2  4  1  0  0  0  0
  2  5  1  0  0  0  0
  1  2  1  0  0  0  0
 23 24  2  0  0  0  0
 23 25  1  0  0  0  0
 21 22  1  0  0  0  0
 19 20  1  0  0  0  0
 19 21  1  0  0  0  0
 17 18  1  0  0  0  0
 17 19  1  0  0  0  0
 15 16  1  0  0  0  0
 15 17  2  0  0  0  0
 14 15  1  0  0  0  0
 14 21  2  0  0  0  0
 11 12  1  0  0  0  0
 11 13  1  0  0  0  0
 11 14  1  0  0  0  0
  9 10  1  0  0  0  0
  9 11  1  0  0  0  0
  9 23  1  0  0  0  0
  7  8  1  0  0  0  0
  7  9  1  0  0  0  0
 27 28  1  0  0  0  0
 27 29  1  0  0  0  0
 27 30  1  0  0  0  0
 25 26  1  0  0  0  0
 25 27  1  0  0  0  0
M  CHG  1  15   1
M  END
$$$$
default_name
  -OEChem-02102213163D

 30 30  0     1  0  0  0  0  0999 V2000
   -3.5507   -3.2183    1.8116 H   0  0  0  0  0  0  0  0  0  0  0  0
   -3.4597   -2.3913    1.1076 C   0  0  0  0  0  0  0  0  0  0  0  0
   -4.1577   -1.6043    1.3866 H   0  0  0  0  0  0  0  0  0  0  0  0
   -3.6807   -2.7523    0.1036 H   0  0  0  0  0  0  0  0  0  0  0  0
   -2.0477   -1.8543    1.1546 C   0  0  0  0  0  0  0  0  0  0  0  0
   -1.2227   -2.3443    1.9146 O   0  0  0  0  0  0  0  0  0  0  0  0
   -1.7517   -0.8483    0.3266 N   0  0  0  0  0  0  0  0  0  0  0  0
   -2.4847   -0.5123   -0.2804 H   0  0  0  0  0  0  0  0  0  0  0  0
   -0.4117   -0.2463    0.2186 C   0  0  1  0  0  0  0  0  0  0  0  0
    0.1554   -0.5152    1.1133 H   0  0  0  0  0  0  0  0  0  0  0  0
    0.3164   -0.8780   -0.9905 C   0  0  0  0  0  0  0  0  0  0  0  0
   -0.3648   -0.8795   -1.8452 H   0  0  0  0  0  0  0  0  0  0  0  0
    1.1677   -0.2494   -1.2602 H   0  0  0  0  0  0  0  0  0  0  0  0
    0.8232   -2.2878   -0.7718 C   0  0  0  0  0  0  0  0  0  0  0  0
    2.0709   -2.6205   -0.2808 N   0  3  0  0  0  0  0  0  0  0  0  0
    2.7528   -1.9292    0.0445 H   0  0  0  0  0  0  0  0  0  0  0  0
    2.1624   -3.9641   -0.2262 C   0  0  0  0  0  0  0  0  0  0  0  0
    3.0253   -4.5222    0.1316 H   0  0  0  0  0  0  0  0  0  0  0  0
    1.0002   -4.4913   -0.6731 N   0  0  0  0  0  0  0  0  0  0  0  0
    0.7814   -5.4818   -0.7417 H   0  0  0  0  0  0  0  0  0  0  0  0
    0.1480   -3.4522   -1.0201 C   0  0  0  0  0  0  0  0  0  0  0  0
   -0.8616   -3.5360   -1.4128 H   0  0  0  0  0  0  0  0  0  0  0  0
   -0.4874    1.2908    0.1962 C   0  0  0  0  0  0  0  0  0  0  0  0
   -1.3116    1.8673   -0.5151 O   0  0  0  0  0  0  0  0  0  0  0  0
    0.3889    1.9422    0.9708 N   0  0  0  0  0  0  0  0  0  0  0  0
    1.0197    1.3866    1.5283 H   0  0  0  0  0  0  0  0  0  0  0  0
    0.5081    3.3999    1.0720 C   0  0  0  0  0  0  0  0  0  0  0  0
    0.0188    3.7538    1.9817 H   0  0  0  0  0  0  0  0  0  0  0  0
    1.5607    3.6858    1.1098 H   0  0  0  0  0  0  0  0  0  0  0  0
    0.0459    3.8890    0.2119 H   0  0  0  0  0  0  0  0  0  0  0  0
  5  6  2  0  0  0  0
  5  7  1  0  0  0  0
  2  3  1  0  0  0  0
  2  4  1  0  0  0  0
  2  5  1  0  0  0  0
  1  2  1  0  0  0  0
 23 24  2  0  0  0  0
 23 25  1  0  0  0  0
 21 22  1  0  0  0  0
 19 20  1  0  0  0  0
 19 21  1  0  0  0  0
 17 18  1  0  0  0  0
 17 19  1  0  0  0  0
 15 16  1  0  0  0  0
 15 17  2  0  0  0  0
 14 15  1  0  0  0  0
 14 21  2  0  0  0  0
 11 12  1  0  0  0  0
 11 13  1  0  0  0  0
 11 14  1  0  0  0  0
  9 10  1  0  0  0  0
  9 11  1  0  0  0  0
  9 23  1  0  0  0  0
  7  8  1  0  0  0  0
  7  9  1  0  0  0  0
 27 28  1  0  0  0  0
 27 29  1  0  0  0  0
 27 30  1  0  0  0  0
 25 26  1  0  0  0  0
 25 27  1  0  0  0  0
M  CHG  1  15   1
M  END
$$$$
default_name
  -OEChem-02102213163D

 30 30  0     1  0  0  0  0  0999 V2000
   -3.5507   -3.2183    1.8116 H   0  0  0  0  0  0  0  0  0  0  0  0
   -3.4597   -2.3913    1.1076 C   0  0  0  0  0  0  0  0  0  0  0  0
   -4.1577   -1.6043    1.3866 H   0  0  0  0  0  0  0  0  0  0  0  0
   -3.6807   -2.7523    0.1036 H   0  0  0  0  0  0  0  0  0  0  0  0
   -2.0477   -1.8543    1.1546 C   0  0  0  0  0  0  0  0  0  0  0  0
   -1.2227   -2.3443    1.9146 O   0  0  0  0  0  0  0  0  0  0  0  0
   -1.7517   -0.8483    0.3266 N   0  0  0  0  0  0  0  0  0  0  0  0
   -2.4847   -0.5123   -0.2804 H   0  0  0  0  0  0  0  0  0  0  0  0
   -0.4117   -0.2463    0.2186 C   0  0  1  0  0  0  0  0  0  0  0  0
    0.1554   -0.5152    1.1133 H   0  0  0  0  0  0  0  0  0  0  0  0
    0.3164   -0.8780   -0.9905 C   0  0  0  0  0  0  0  0  0  0  0  0
   -0.3648   -0.8795   -1.8452 H   0  0  0  0  0  0  0  0  0  0  0  0
    1.1677   -0.2494   -1.2602 H   0  0  0  0  0  0  0  0  0  0  0  0
    0.8232   -2.2878   -0.7718 C   0  0  0  0  0  0  0  0  0  0  0  0
    1.9316   -2.6304   -0.0217 N   0  3  0  0  0  0  0  0  0  0  0  0
    2.4818   -1.9537    0.5149 H   0  0  0  0  0  0  0  0  0  0  0  0
    2.0718   -3.9704   -0.0570 C   0  0  0  0  0  0  0  0  0  0  0  0
    2.8497   -4.5355    0.4525 H   0  0  0  0  0  0  0  0  0  0  0  0
    1.0770   -4.4856   -0.8142 N   0  0  0  0  0  0  0  0  0  0  0  0
    0.9288   -5.4712   -1.0150 H   0  0  0  0  0  0  0  0  0  0  0  0
    0.2837   -3.4424   -1.2712 C   0  0  0  0  0  0  0  0  0  0  0  0
   -0.5973   -3.5170   -1.9027 H   0  0  0  0  0  0  0  0  0  0  0  0
   -0.4874    1.2908    0.1962 C   0  0  0  0  0  0  0  0  0  0  0  0
   -1.3116    1.8673   -0.5151 O   0  0  0  0  0  0  0  0  0  0  0  0
    0.3889    1.9422    0.9708 N   0  0  0  0  0  0  0  0  0  0  0  0
    1.0197    1.3866    1.5283 H   0  0  0  0  0  0  0  0  0  0  0  0
    0.5081    3.3999    1.0720 C   0  0  0  0  0  0  0  0  0  0  0  0
    0.0188    3.7538    1.9817 H   0  0  0  0  0  0  0  0  0  0  0  0
    1.5607    3.6858    1.1098 H   0  0  0  0  0  0  0  0  0  0  0  0
    0.0459    3.8890    0.2119 H   0  0  0  0  0  0  0  0  0  0  0  0
  5  6  2  0  0  0  0
  5  7  1  0  0  0  0
  2  3  1  0  0  0  0
  2  4  1  0  0  0  0
  2  5  1  0  0  0  0
  1  2  1  0  0  0  0
 23 24  2  0  0  0  0
 23 25  1  0  0  0  0
 21 22  1  0  0  0  0
 19 20  1  0  0  0  0
 19 21  1  0  0  0  0
 17 18  1  0  0  0  0
 17 19  1  0  0  0  0
 15 16  1  0  0  0  0
 15 17  2  0  0  0  0
 14 15  1  0  0  0  0
 14 21  2  0  0  0  0
 11 12  1  0  0  0  0
 11 13  1  0  0  0  0
 11 14  1  0  0  0  0
  9 10  1  0  0  0  0
  9 11  1  0  0  0  0
  9 23  1  0  0  0  0
  7  8  1  0  0  0  0
  7  9  1  0  0  0  0
 27 28  1  0  0  0  0
 27 29  1  0  0  0  0
 27 30  1  0  0  0  0
 25 26  1  0  0  0  0
 25 27  1  0  0  0  0
M  CHG  1  15   1
M  END
$$$$
default_name
  -OEChem-02102213163D

 30 30  0     1  0  0  0  0  0999 V2000
   -3.5507   -3.2183    1.8116 H   0  0  0  0  0  0  0  0  0  0  0  0
   -3.4597   -2.3913    1.1076 C   0  0  0  0  0  0  0  0  0  0  0  0
   -4.1577   -1.6043    1.3866 H   0  0  0  0  0  0  0  0  0  0  0  0
   -3.6807   -2.7523    0.1036 H   0  0  0  0  0  0  0  0  0  0  0  0
   -2.0477   -1.8543    1.1546 C   0  0  0  0  0  0  0  0  0  0  0  0
   -1.2227   -2.3443    1.9146 O   0  0  0  0  0  0  0  0  0  0  0  0
   -1.7517   -0.8483    0.3266 N   0  0  0  0  0  0  0  0  0  0  0  0
   -2.4847   -0.5123   -0.2804 H   0  0  0  0  0  0  0  0  0  0  0  0
   -0.4117   -0.2463    0.2186 C   0  0  1  0  0  0  0  0  0  0  0  0
    0.1554   -0.5152    1.1133 H   0  0  0  0  0  0  0  0  0  0  0  0
    0.3164   -0.8780   -0.9905 C   0  0  0  0  0  0  0  0  0  0  0  0
   -0.3648   -0.8795   -1.8452 H   0  0  0  0  0  0  0  0  0  0  0  0
    1.1677   -0.2494   -1.2602 H   0  0  0  0  0  0  0  0  0  0  0  0
    0.8232   -2.2878   -0.7718 C   0  0  0  0  0  0  0  0  0  0  0  0
    1.7349   -2.6676    0.1941 N   0  3  0  0  0  0  0  0  0  0  0  0
    2.1076   -2.0282    0.9019 H   0  0  0  0  0  0  0  0  0  0  0  0
    1.9437   -3.9946    0.0840 C   0  0  0  0  0  0  0  0  0  0  0  0
    2.6033   -4.5828    0.7189 H   0  0  0  0  0  0  0  0  0  0  0  0
    1.1850   -4.4650   -0.9316 N   0  0  0  0  0  0  0  0  0  0  0  0
    1.1367   -5.4317   -1.2424 H   0  0  0  0  0  0  0  0  0  0  0  0
    0.4750   -3.4060   -1.4802 C   0  0  0  0  0  0  0  0  0  0  0  0
   -0.2246   -3.4463   -2.3105 H   0  0  0  0  0  0  0  0  0  0  0  0
   -0.4874    1.2908    0.1962 C   0  0  0  0  0  0  0  0  0  0  0  0
   -1.3116    1.8673   -0.5151 O   0  0  0  0  0  0  0  0  0  0  0  0
    0.3889    1.9422    0.9708 N   0  0  0  0  0  0  0  0  0  0  0  0
    1.0197    1.3866    1.5283 H   0  0  0  0  0  0  0  0  0  0  0  0
    0.5081    3.3999    1.0720 C   0  0  0  0  0  0  0  0  0  0  0  0
    0.0188    3.7538    1.9817 H   0  0  0  0  0  0  0  0  0  0  0  0
    1.5607    3.6858    1.1098 H   0  0  0  0  0  0  0  0  0  0  0  0
    0.0459    3.8890    0.2119 H   0  0  0  0  0  0  0  0  0  0  0  0
  5  6  2  0  0  0  0
  5  7  1  0  0  0  0
  2  3  1  0  0  0  0
  2  4  1  0  0  0  0
  2  5  1  0  0  0  0
  1  2  1  0  0  0  0
 23 24  2  0  0  0  0
 23 25  1  0  0  0  0
 21 22  1  0  0  0  0
 19 20  1  0  0  0  0
 19 21  1  0  0  0  0
 17 18  1  0  0  0  0
 17 19  1  0  0  0  0
 15 16  1  0  0  0  0
 15 17  2  0  0  0  0
 14 15  1  0  0  0  0
 14 21  2  0  0  0  0
 11 12  1  0  0  0  0
 11 13  1  0  0  0  0
 11 14  1  0  0  0  0
  9 10  1  0  0  0  0
  9 11  1  0  0  0  0
  9 23  1  0  0  0  0
  7  8  1  0  0  0  0
  7  9  1  0  0  0  0
 27 28  1  0  0  0  0
 27 29  1  0  0  0  0
 27 30  1  0  0  0  0
 25 26  1  0  0  0  0
 25 27  1  0  0  0  0
M  CHG  1  15   1
M  END
$$$$
default_name
  -OEChem-02102213163D

 30 30  0     1  0  0  0  0  0999 V2000
   -3.5507   -3.2183    1.8116 H   0  0  0  0  0  0  0  0  0  0  0  0
   -3.4597   -2.3913    1.1076 C   0  0  0  0  0  0  0  0  0  0  0  0
   -4.1577   -1.6043    1.3866 H   0  0  0  0  0  0  0  0  0  0  0  0
   -3.6807   -2.7523    0.1036 H   0  0  0  0  0  0  0  0  0  0  0  0
   -2.0477   -1.8543    1.1546 C   0  0  0  0  0  0  0  0  0  0  0  0
   -1.2227   -2.3443    1.9146 O   0  0  0  0  0  0  0  0  0  0  0  0
   -1.7517   -0.8483    0.3266 N   0  0  0  0  0  0  0  0  0  0  0  0
   -2.4847   -0.5123   -0.2804 H   0  0  0  0  0  0  0  0  0  0  0  0
   -0.4117   -0.2463    0.2186 C   0  0  1  0  0  0  0  0  0  0  0  0
    0.1554   -0.5152    1.1133 H   0  0  0  0  0  0  0  0  0  0  0  0
    0.3164   -0.8780   -0.9905 C   0  0  0  0  0  0  0  0  0  0  0  0
   -0.3648   -0.8795   -1.8452 H   0  0  0  0  0  0  0  0  0  0  0  0
    1.1677   -0.2494   -1.2602 H   0  0  0  0  0  0  0  0  0  0  0  0
    0.8232   -2.2878   -0.7718 C   0  0  0  0  0  0  0  0  0  0  0  0
    1.4944   -2.7296    0.3519 N   0  3  0  0  0  0  0  0  0  0  0  0
    1.6557   -2.1477    1.1790 H   0  0  0  0  0  0  0  0  0  0  0  0
    1.7869   -4.0350    0.1873 C   0  0  0  0  0  0  0  0  0  0  0  0
    2.3028   -4.6607    0.9128 H   0  0  0  0  0  0  0  0  0  0  0  0
    1.3169   -4.4309   -1.0171 N   0  0  0  0  0  0  0  0  0  0  0  0
    1.3908   -5.3662   -1.4087 H   0  0  0  0  0  0  0  0  0  0  0  0
    0.7088   -3.3456   -1.6328 C   0  0  0  0  0  0  0  0  0  0  0  0
    0.2310   -3.3287   -2.6085 H   0  0  0  0  0  0  0  0  0  0  0  0
   -0.4874    1.2908    0.1962 C   0  0  0  0  0  0  0  0  0  0  0  0
   -1.3116    1.8673   -0.5151 O   0  0  0  0  0  0  0  0  0  0  0  0
    0.3889    1.9422    0.9708 N   0  0  0  0  0  0  0  0  0  0  0  0
    1.0197    1.3866    1.5283 H   0  0  0  0  0  0  0  0  0  0  0  0
    0.5081    3.3999    1.0720 C   0  0  0  0  0  0  0  0  0  0  0  0
    0.0188    3.7538    1.9817 H   0  0  0  0  0  0  0  0  0  0  0  0
    1.5607    3.6858    1.1098 H   0  0  0  0  0  0  0  0  0  0  0  0
    0.0459    3.8890    0.2119 H   0  0  0  0  0  0  0  0  0  0  0  0
  5  6  2  0  0  0  0
  5  7  1  0  0  0  0
  2  3  1  0  0  0  0
  2  4  1  0  0  0  0
  2  5  1  0  0  0  0
  1  2  1  0  0  0  0
 23 24  2  0  0  0  0
 23 25  1  0  0  0  0
 21 22  1  0  0  0  0
 19 20  1  0  0  0  0
 19 21  1  0  0  0  0
 17 18  1  0  0  0  0
 17 19  1  0  0  0  0
 15 16  1  0  0  0  0
 15 17  2  0  0  0  0
 14 15  1  0  0  0  0
 14 21  2  0  0  0  0
 11 12  1  0  0  0  0
 11 13  1  0  0  0  0
 11 14  1  0  0  0  0
  9 10  1  0  0  0  0
  9 11  1  0  0  0  0
  9 23  1  0  0  0  0
  7  8  1  0  0  0  0
  7  9  1  0  0  0  0
 27 28  1  0  0  0  0
 27 29  1  0  0  0  0
 27 30  1  0  0  0  0
 25 26  1  0  0  0  0
 25 27  1  0  0  0  0
M  CHG  1  15   1
M  END
$$$$
default_name
  -OEChem-02102213163D

 30 30  0     1  0  0  0  0  0999 V2000
   -3.5507   -3.2183    1.8116 H   0  0  0  0  0  0  0  0  0  0  0  0
   -3.4597   -2.3913    1.1076 C   0  0  0  0  0  0  0  0  0  0  0  0
   -4.1577   -1.6043    1.3866 H   0  0  0  0  0  0  0  0  0  0  0  0
   -3.6807   -2.7523    0.1036 H   0  0  0  0  0  0  0  0  0  0  0  0
   -2.0477   -1.8543    1.1546 C   0  0  0  0  0  0  0  0  0  0  0  0
   -1.2227   -2.3443    1.9146 O   0  0  0  0  0  0  0  0  0  0  0  0
   -1.7517   -0.8483    0.3266 N   0  0  0  0  0  0  0  0  0  0  0  0
   -2.4847   -0.5123   -0.2804 H   0  0  0  0  0  0  0  0  0  0  0  0
   -0.4117   -0.2463    0.2186 C   0  0  1  0  0  0  0  0  0  0  0  0
    0.1554   -0.5152    1.1133 H   0  0  0  0  0  0  0  0  0  0  0  0
    0.3164   -0.8780   -0.9905 C   0  0  0  0  0  0  0  0  0  0  0  0
   -0.3648   -0.8795   -1.8452 H   0  0  0  0  0  0  0  0  0  0  0  0
    1.1677   -0.2494   -1.2602 H   0  0  0  0  0  0  0  0  0  0  0  0
    0.8232   -2.2878   -0.7718 C   0  0  0  0  0  0  0  0  0  0  0  0
    1.2263   -2.8121    0.4410 N   0  3  0  0  0  0  0  0  0  0  0  0
    1.1568   -2.3040    1.3274 H   0  0  0  0  0  0  0  0  0  0  0  0
    1.6121   -4.0887    0.2458 C   0  0  0  0  0  0  0  0  0  0  0  0
    1.9688   -4.7640    1.0209 H   0  0  0  0  0  0  0  0  0  0  0  0
    1.4635   -4.3856   -1.0650 N   0  0  0  0  0  0  0  0  0  0  0  0
    1.6739   -5.2789   -1.5023 H   0  0  0  0  0  0  0  0  0  0  0  0
    0.9691   -3.2654   -1.7187 C   0  0  0  0  0  0  0  0  0  0  0  0
    0.7385   -3.1723   -2.7763 H   0  0  0  0  0  0  0  0  0  0  0  0
   -0.4874    1.2908    0.1962 C   0  0  0  0  0  0  0  0  0  0  0  0
   -1.3116    1.8673   -0.5151 O   0  0  0  0  0  0  0  0  0  0  0  0
    0.3889    1.9422    0.9708 N   0  0  0  0  0  0  0  0  0  0  0  0
    1.0197    1.3866    1.5283 H   0  0  0  0  0  0  0  0  0  0  0  0
    0.5081    3.3999    1.0720 C   0  0  0  0  0  0  0  0  0  0  0  0
    0.0188    3.7538    1.9817 H   0  0  0  0  0  0  0  0  0  0  0  0
    1.5607    3.6858    1.1098 H   0  0  0  0  0  0  0  0  0  0  0  0
    0.0459    3.8890    0.2119 H   0  0  0  0  0  0  0  0  0  0  0  0
  5  6  2  0  0  0  0
  5  7  1  0  0  0  0
  2  3  1  0  0  0  0
  2  4  1  0  0  0  0
  2  5  1  0  0  0  0
  1  2  1  0  0  0  0
 23 24  2  0  0  0  0
 23 25  1  0  0  0  0
 21 22  1  0  0  0  0
 19 20  1  0  0  0  0
 19 21  1  0  0  0  0
 17 18  1  0  0  0  0
 17 19  1  0  0  0  0
 15 16  1  0  0  0  0
 15 17  2  0  0  0  0
 14 15  1  0  0  0  0
 14 21  2  0  0  0  0
 11 12  1  0  0  0  0
 11 13  1  0  0  0  0
 11 14  1  0  0  0  0
  9 10  1  0  0  0  0
  9 11  1  0  0  0  0
  9 23  1  0  0  0  0
  7  8  1  0  0  0  0
  7  9  1  0  0  0  0
 27 28  1  0  0  0  0
 27 29  1  0  0  0  0
 27 30  1  0  0  0  0
 25 26  1  0  0  0  0
 25 27  1  0  0  0  0
M  CHG  1  15   1
M  END
$$$$
default_name
  -OEChem-02102213163D

 30 30  0     1  0  0  0  0  0999 V2000
   -3.5507   -3.2183    1.8116 H   0  0  0  0  0  0  0  0  0  0  0  0
   -3.4597   -2.3913    1.1076 C   0  0  0  0  0  0  0  0  0  0  0  0
   -4.1577   -1.6043    1.3866 H   0  0  0  0  0  0  0  0  0  0  0  0
   -3.6807   -2.7523    0.1036 H   0  0  0  0  0  0  0  0  0  0  0  0
   -2.0477   -1.8543    1.1546 C   0  0  0  0  0  0  0  0  0  0  0  0
   -1.2227   -2.3443    1.9146 O   0  0  0  0  0  0  0  0  0  0  0  0
   -1.7517   -0.8483    0.3266 N   0  0  0  0  0  0  0  0  0  0  0  0
   -2.4847   -0.5123   -0.2804 H   0  0  0  0  0  0  0  0  0  0  0  0
   -0.4117   -0.2463    0.2186 C   0  0  1  0  0  0  0  0  0  0  0  0
    0.1554   -0.5152    1.1133 H   0  0  0  0  0  0  0  0  0  0  0  0
    0.3164   -0.8780   -0.9905 C   0  0  0  0  0  0  0  0  0  0  0  0
   -0.3648   -0.8795   -1.8452 H   0  0  0  0  0  0  0  0  0  0  0  0
    1.1677   -0.2494   -1.2602 H   0  0  0  0  0  0  0  0  0  0  0  0
    0.8232   -2.2878   -0.7718 C   0  0  0  0  0  0  0  0  0  0  0  0
    0.9490   -2.9096    0.4554 N   0  3  0  0  0  0  0  0  0  0  0  0
    0.6451   -2.4865    1.3370 H   0  0  0  0  0  0  0  0  0  0  0  0
    1.4311   -4.1523    0.2555 C   0  0  0  0  0  0  0  0  0  0  0  0
    1.6239   -4.8857    1.0358 H   0  0  0  0  0  0  0  0  0  0  0  0
    1.6151   -4.3322   -1.0720 N   0  0  0  0  0  0  0  0  0  0  0  0
    1.9666   -5.1760   -1.5170 H   0  0  0  0  0  0  0  0  0  0  0  0
    1.2383   -3.1707   -1.7319 C   0  0  0  0  0  0  0  0  0  0  0  0
    1.2633   -2.9877   -2.8026 H   0  0  0  0  0  0  0  0  0  0  0  0
   -0.4874    1.2908    0.1962 C   0  0  0  0  0  0  0  0  0  0  0  0
   -1.3116    1.8673   -0.5151 O   0  0  0  0  0  0  0  0  0  0  0  0
    0.3889    1.9422    0.9708 N   0  0  0  0  0  0  0  0  0  0  0  0
    1.0197    1.3866    1.5283 H   0  0  0  0  0  0  0  0  0  0  0  0
    0.5081    3.3999    1.0720 C   0  0  0  0  0  0  0  0  0  0  0  0
    0.0188    3.7538    1.9817 H   0  0  0  0  0  0  0  0  0  0  0  0
    1.5607    3.6858    1.1098 H   0  0  0  0  0  0  0  0  0  0  0  0
    0.0459    3.8890    0.2119 H   0  0  0  0  0  0  0  0  0  0  0  0
  5  6  2  0  0  0  0
  5  7  1  0  0  0  0
  2  3  1  0  0  0  0
  2  4  1  0  0  0  0
  2  5  1  0  0  0  0
  1  2  1  0  0  0  0
 23 24  2  0  0  0  0
 23 25  1  0  0  0  0
 21 22  1  0  0  0  0
 19 20  1  0  0  0  0
 19 21  1  0  0  0  0
 17 18  1  0  0  0  0
 17 19  1  0  0  0  0
 15 16  1  0  0  0  0
 15 17  2  0  0  0  0
 14 15  1  0  0  0  0
 14 21  2  0  0  0  0
 11 12  1  0  0  0  0
 11 13  1  0  0  0  0
 11 14  1  0  0  0  0
  9 10  1  0  0  0  0
  9 11  1  0  0  0  0
  9 23  1  0  0  0  0
  7  8  1  0  0  0  0
  7  9  1  0  0  0  0
 27 28  1  0  0  0  0
 27 29  1  0  0  0  0
 27 30  1  0  0  0  0
 25 26  1  0  0  0  0
 25 27  1  0  0  0  0
M  CHG  1  15   1
M  END
$$$$
default_name
  -OEChem-02102213163D

 30 30  0     1  0  0  0  0  0999 V2000
   -3.5507   -3.2183    1.8116 H   0  0  0  0  0  0  0  0  0  0  0  0
   -3.4597   -2.3913    1.1076 C   0  0  0  0  0  0  0  0  0  0  0  0
   -4.1577   -1.6043    1.3866 H   0  0  0  0  0  0  0  0  0  0  0  0
   -3.6807   -2.7523    0.1036 H   0  0  0  0  0  0  0  0  0  0  0  0
   -2.0477   -1.8543    1.1546 C   0  0  0  0  0  0  0  0  0  0  0  0
   -1.2227   -2.3443    1.9146 O   0  0  0  0  0  0  0  0  0  0  0  0
   -1.7517   -0.8483    0.3266 N   0  0  0  0  0  0  0  0  0  0  0  0
   -2.4847   -0.5123   -0.2804 H   0  0  0  0  0  0  0  0  0  0  0  0
   -0.4117   -0.2463    0.2186 C   0  0  1  0  0  0  0  0  0  0  0  0
    0.1554   -0.5152    1.1133 H   0  0  0  0  0  0  0  0  0  0  0  0
    0.3164   -0.8780   -0.9905 C   0  0  0  0  0  0  0  0  0  0  0  0
   -0.3648   -0.8795   -1.8452 H   0  0  0  0  0  0  0  0  0  0  0  0
    1.1677   -0.2494   -1.2602 H   0  0  0  0  0  0  0  0  0  0  0  0
    0.8232   -2.2878   -0.7718 C   0  0  0  0  0  0  0  0  0  0  0  0
    0.6813   -3.0154    0.3939 N   0  3  0  0  0  0  0  0  0  0  0  0
    0.1552   -2.6827    1.2071 H   0  0  0  0  0  0  0  0  0  0  0  0
    1.2564   -4.2213    0.2157 C   0  0  0  0  0  0  0  0  0  0  0  0
    1.2918   -5.0174    0.9566 H   0  0  0  0  0  0  0  0  0  0  0  0
    1.7611   -4.2743   -1.0376 N   0  0  0  0  0  0  0  0  0  0  0  0
    2.2490   -5.0643   -1.4517 H   0  0  0  0  0  0  0  0  0  0  0  0
    1.4979   -3.0680   -1.6716 C   0  0  0  0  0  0  0  0  0  0  0  0
    1.7697   -2.7875   -2.6855 H   0  0  0  0  0  0  0  0  0  0  0  0
   -0.4874    1.2908    0.1962 C   0  0  0  0  0  0  0  0  0  0  0  0
   -1.3116    1.8673   -0.5151 O   0  0  0  0  0  0  0  0  0  0  0  0
    0.3889    1.9422    0.9708 N   0  0  0  0  0  0  0  0  0  0  0  0
    1.0197    1.3866    1.5283 H   0  0  0  0  0  0  0  0  0  0  0  0
    0.5081    3.3999    1.0720 C   0  0  0  0  0  0  0  0  0  0  0  0
    0.0188    3.7538    1.9817 H   0  0  0  0  0  0  0  0  0  0  0  0
    1.5607    3.6858    1.1098 H   0  0  0  0  0  0  0  0  0  0  0  0
    0.0459    3.8890    0.2119 H   0  0  0  0  0  0  0  0  0  0  0  0
  5  6  2  0  0  0  0
  5  7  1  0  0  0  0
  2  3  1  0  0  0  0
  2  4  1  0  0  0  0
  2  5  1  0  0  0  0
  1  2  1  0  0  0  0
 23 24  2  0  0  0  0
 23 25  1  0  0  0  0
 21 22  1  0  0  0  0
 19 20  1  0  0  0  0
 19 21  1  0  0  0  0
 17 18  1  0  0  0  0
 17 19  1  0  0  0  0
 15 16  1  0  0  0  0
 15 17  2  0  0  0  0
 14 15  1  0  0  0  0
 14 21  2  0  0  0  0
 11 12  1  0  0  0  0
 11 13  1  0  0  0  0
 11 14  1  0  0  0  0
  9 10  1  0  0  0  0
  9 11  1  0  0  0  0
  9 23  1  0  0  0  0
  7  8  1  0  0  0  0
  7  9  1  0  0  0  0
 27 28  1  0  0  0  0
 27 29  1  0  0  0  0
 27 30  1  0  0  0  0
 25 26  1  0  0  0  0
 25 27  1  0  0  0  0
M  CHG  1  15   1
M  END
$$$$
default_name
  -OEChem-02102213163D

 30 30  0     1  0  0  0  0  0999 V2000
   -3.5507   -3.2183    1.8116 H   0  0  0  0  0  0  0  0  0  0  0  0
   -3.4597   -2.3913    1.1076 C   0  0  0  0  0  0  0  0  0  0  0  0
   -4.1577   -1.6043    1.3866 H   0  0  0  0  0  0  0  0  0  0  0  0
   -3.6807   -2.7523    0.1036 H   0  0  0  0  0  0  0  0  0  0  0  0
   -2.0477   -1.8543    1.1546 C   0  0  0  0  0  0  0  0  0  0  0  0
   -1.2227   -2.3443    1.9146 O   0  0  0  0  0  0  0  0  0  0  0  0
   -1.7517   -0.8483    0.3266 N   0  0  0  0  0  0  0  0  0  0  0  0
   -2.4847   -0.5123   -0.2804 H   0  0  0  0  0  0  0  0  0  0  0  0
   -0.4117   -0.2463    0.2186 C   0  0  1  0  0  0  0  0  0  0  0  0
    0.1554   -0.5152    1.1133 H   0  0  0  0  0  0  0  0  0  0  0  0
    0.3164   -0.8780   -0.9905 C   0  0  0  0  0  0  0  0  0  0  0  0
   -0.3648   -0.8795   -1.8452 H   0  0  0  0  0  0  0  0  0  0  0  0
    1.1677   -0.2494   -1.2602 H   0  0  0  0  0  0  0  0  0  0  0  0
    0.8232   -2.2878   -0.7718 C   0  0  0  0  0  0  0  0  0  0  0  0
    0.4415   -3.1222    0.2609 N   0  3  0  0  0  0  0  0  0  0  0  0
   -0.2793   -2.8794    0.9466 H   0  0  0  0  0  0  0  0  0  0  0  0
    1.0997   -4.2910    0.1292 C   0  0  0  0  0  0  0  0  0  0  0  0
    0.9949   -5.1502    0.7887 H   0  0  0  0  0  0  0  0  0  0  0  0
    1.8918   -4.2160   -0.9642 N   0  0  0  0  0  0  0  0  0  0  0  0
    2.5019   -4.9515   -1.3109 H   0  0  0  0  0  0  0  0  0  0  0  0
    1.7303   -2.9643   -1.5419 C   0  0  0  0  0  0  0  0  0  0  0  0
    2.2231   -2.5853   -2.4330 H   0  0  0  0  0  0  0  0  0  0  0  0
   -0.4874    1.2908    0.1962 C   0  0  0  0  0  0  0  0  0  0  0  0
   -1.3116    1.8673   -0.5151 O   0  0  0  0  0  0  0  0  0  0  0  0
    0.3889    1.9422    0.9708 N   0  0  0  0  0  0  0  0  0  0  0  0
    1.0197    1.3866    1.5283 H   0  0  0  0  0  0  0  0  0  0  0  0
    0.5081    3.3999    1.0720 C   0  0  0  0  0  0  0  0  0  0  0  0
    0.0188    3.7538    1.9817 H   0  0  0  0  0  0  0  0  0  0  0  0
    1.5607    3.6858    1.1098 H   0  0  0  0  0  0  0  0  0  0  0  0
    0.0459    3.8890    0.2119 H   0  0  0  0  0  0  0  0  0  0  0  0
  5  6  2  0  0  0  0
  5  7  1  0  0  0  0
  2  3  1  0  0  0  0
  2  4  1  0  0  0  0
  2  5  1  0  0  0  0
  1  2  1  0  0  0  0
 23 24  2  0  0  0  0
 23 25  1  0  0  0  0
 21 22  1  0  0  0  0
 19 20  1  0  0  0  0
 19 21  1  0  0  0  0
 17 18  1  0  0  0  0
 17 19  1  0  0  0  0
 15 16  1  0  0  0  0
 15 17  2  0  0  0  0
 14 15  1  0  0  0  0
 14 21  2  0  0  0  0
 11 12  1  0  0  0  0
 11 13  1  0  0  0  0
 11 14  1  0  0  0  0
  9 10  1  0  0  0  0
  9 11  1  0  0  0  0
  9 23  1  0  0  0  0
  7  8  1  0  0  0  0
  7  9  1  0  0  0  0
 27 28  1  0  0  0  0
 27 29  1  0  0  0  0
 27 30  1  0  0  0  0
 25 26  1  0  0  0  0
 25 27  1  0  0  0  0
M  CHG  1  15   1
M  END
$$$$
default_name
  -OEChem-02102213163D

 30 30  0     1  0  0  0  0  0999 V2000
   -3.5507   -3.2183    1.8116 H   0  0  0  0  0  0  0  0  0  0  0  0
   -3.4597   -2.3913    1.1076 C   0  0  0  0  0  0  0  0  0  0  0  0
   -4.1577   -1.6043    1.3866 H   0  0  0  0  0  0  0  0  0  0  0  0
   -3.6807   -2.7523    0.1036 H   0  0  0  0  0  0  0  0  0  0  0  0
   -2.0477   -1.8543    1.1546 C   0  0  0  0  0  0  0  0  0  0  0  0
   -1.2227   -2.3443    1.9146 O   0  0  0  0  0  0  0  0  0  0  0  0
   -1.7517   -0.8483    0.3266 N   0  0  0  0  0  0  0  0  0  0  0  0
   -2.4847   -0.5123   -0.2804 H   0  0  0  0  0  0  0  0  0  0  0  0
   -0.4117   -0.2463    0.2186 C   0  0  1  0  0  0  0  0  0  0  0  0
    0.1554   -0.5152    1.1133 H   0  0  0  0  0  0  0  0  0  0  0  0
    0.3164   -0.8780   -0.9905 C   0  0  0  0  0  0  0  0  0  0  0  0
   -0.3648   -0.8795   -1.8452 H   0  0  0  0  0  0  0  0  0  0  0  0
    1.1677   -0.2494   -1.2602 H   0  0  0  0  0  0  0  0  0  0  0  0
    0.8232   -2.2878   -0.7718 C   0  0  0  0  0  0  0  0  0  0  0  0
    0.2460   -3.2229    0.0654 N   0  3  0  0  0  0  0  0  0  0  0  0
   -0.6288   -3.0630    0.5732 H   0  0  0  0  0  0  0  0  0  0  0  0
    0.9719   -4.3567    0.0019 C   0  0  0  0  0  0  0  0  0  0  0  0
    0.7537   -5.2750    0.5434 H   0  0  0  0  0  0  0  0  0  0  0  0
    1.9981   -4.1611   -0.8567 N   0  0  0  0  0  0  0  0  0  0  0  0
    2.7081   -4.8453   -1.1041 H   0  0  0  0  0  0  0  0  0  0  0  0
    1.9197   -2.8667   -1.3516 C   0  0  0  0  0  0  0  0  0  0  0  0
    2.5926   -2.3949   -2.0623 H   0  0  0  0  0  0  0  0  0  0  0  0
   -0.4874    1.2908    0.1962 C   0  0  0  0  0  0  0  0  0  0  0  0
   -1.3116    1.8673   -0.5151 O   0  0  0  0  0  0  0  0  0  0  0  0
    0.3889    1.9422    0.9708 N   0  0  0  0  0  0  0  0  0  0  0  0
    1.0197    1.3866    1.5283 H   0  0  0  0  0  0  0  0  0  0  0  0
    0.5081    3.3999    1.0720 C   0  0  0  0  0  0  0  0  0  0  0  0
    0.0188    3.7538    1.9817 H   0  0  0  0  0  0  0  0  0  0  0  0
    1.5607    3.6858    1.1098 H   0  0  0  0  0  0  0  0  0  0  0  0
    0.0459    3.8890    0.2119 H   0  0  0  0  0  0  0  0  0  0  0  0
  5  6  2  0  0  0  0
  5  7  1  0  0  0  0
  2  3  1  0  0  0  0
  2  4  1  0  0  0  0
  2  5  1  0  0  0  0
  1  2  1  0  0  0  0
 23 24  2  0  0  0  0
 23 25  1  0  0  0  0
 21 22  1  0  0  0  0
 19 20  1  0  0  0  0
 19 21  1  0  0  0  0
 17 18  1  0  0  0  0
 17 19  1  0  0  0  0
 15 16  1  0  0  0  0
 15 17  2  0  0  0  0
 14 15  1  0  0  0  0
 14 21  2  0  0  0  0
 11 12  1  0  0  0  0
 11 13  1  0  0  0  0
 11 14  1  0  0  0  0
  9 10  1  0  0  0  0
  9 11  1  0  0  0  0
  9 23  1  0  0  0  0
  7  8  1  0  0  0  0
  7  9  1  0  0  0  0
 27 28  1  0  0  0  0
 27 29  1  0  0  0  0
 27 30  1  0  0  0  0
 25 26  1  0  0  0  0
 25 27  1  0  0  0  0
M  CHG  1  15   1
M  END
$$$$
default_name
  -OEChem-02102213163D

 30 30  0     1  0  0  0  0  0999 V2000
   -3.5507   -3.2183    1.8116 H   0  0  0  0  0  0  0  0  0  0  0  0
   -3.4597   -2.3913    1.1076 C   0  0  0  0  0  0  0  0  0  0  0  0
   -4.1577   -1.6043    1.3866 H   0  0  0  0  0  0  0  0  0  0  0  0
   -3.6807   -2.7523    0.1036 H   0  0  0  0  0  0  0  0  0  0  0  0
   -2.0477   -1.8543    1.1546 C   0  0  0  0  0  0  0  0  0  0  0  0
   -1.2227   -2.3443    1.9146 O   0  0  0  0  0  0  0  0  0  0  0  0
   -1.7517   -0.8483    0.3266 N   0  0  0  0  0  0  0  0  0  0  0  0
   -2.4847   -0.5123   -0.2804 H   0  0  0  0  0  0  0  0  0  0  0  0
   -0.4117   -0.2463    0.2186 C   0  0  1  0  0  0  0  0  0  0  0  0
    0.1554   -0.5152    1.1133 H   0  0  0  0  0  0  0  0  0  0  0  0
    0.3164   -0.8780   -0.9905 C   0  0  0  0  0  0  0  0  0  0  0  0
   -0.3648   -0.8795   -1.8452 H   0  0  0  0  0  0  0  0  0  0  0  0
    1.1677   -0.2494   -1.2602 H   0  0  0  0  0  0  0  0  0  0  0  0
    0.8232   -2.2878   -0.7718 C   0  0  0  0  0  0  0  0  0  0  0  0
    0.1080   -3.3105   -0.1794 N   0  3  0  0  0  0  0  0  0  0  0  0
   -0.8696   -3.2210    0.1124 H   0  0  0  0  0  0  0  0  0  0  0  0
    0.8816   -4.4140   -0.1577 C   0  0  0  0  0  0  0  0  0  0  0  0
    0.5844   -5.3833    0.2375 H   0  0  0  0  0  0  0  0  0  0  0  0
    2.0728   -4.1134   -0.7225 N   0  0  0  0  0  0  0  0  0  0  0  0
    2.8534   -4.7530   -0.8456 H   0  0  0  0  0  0  0  0  0  0  0  0
    2.0531   -2.7818   -1.1137 C   0  0  0  0  0  0  0  0  0  0  0  0
    2.8531   -2.2294   -1.5987 H   0  0  0  0  0  0  0  0  0  0  0  0
   -0.4874    1.2908    0.1962 C   0  0  0  0  0  0  0  0  0  0  0  0
   -1.3116    1.8673   -0.5151 O   0  0  0  0  0  0  0  0  0  0  0  0
    0.3889    1.9422    0.9708 N   0  0  0  0  0  0  0  0  0  0  0  0
    1.0197    1.3866    1.5283 H   0  0  0  0  0  0  0  0  0  0  0  0
    0.5081    3.3999    1.0720 C   0  0  0  0  0  0  0  0  0  0  0  0
    0.0188    3.7538    1.9817 H   0  0  0  0  0  0  0  0  0  0  0  0
    1.5607    3.6858    1.1098 H   0  0  0  0  0  0  0  0  0  0  0  0
    0.0459    3.8890    0.2119 H   0  0  0  0  0  0  0  0  0  0  0  0
  5  6  2  0  0  0  0
  5  7  1  0  0  0  0
  2  3  1  0  0  0  0
  2  4  1  0  0  0  0
  2  5  1  0  0  0  0
  1  2  1  0  0  0  0
 23 24  2  0  0  0  0
 23 25  1  0  0  0  0
 21 22  1  0  0  0  0
 19 20  1  0  0  0  0
 19 21  1  0  0  0  0
 17 18  1  0  0  0  0
 17 19  1  0  0  0  0
 15 16  1  0  0  0  0
 15 17  2  0  0  0  0
 14 15  1  0  0  0  0
 14 21  2  0  0  0  0
 11 12  1  0  0  0  0
 11 13  1  0  0  0  0
 11 14  1  0  0  0  0
  9 10  1  0  0  0  0
  9 11  1  0  0  0  0
  9 23  1  0  0  0  0
  7  8  1  0  0  0  0
  7  9  1  0  0  0  0
 27 28  1  0  0  0  0
 27 29  1  0  0  0  0
 27 30  1  0  0  0  0
 25 26  1  0  0  0  0
 25 27  1  0  0  0  0
M  CHG  1  15   1
M  END
$$$$
default_name
  -OEChem-02102213163D

 30 30  0     1  0  0  0  0  0999 V2000
   -3.5507   -3.2183    1.8116 H   0  0  0  0  0  0  0  0  0  0  0  0
   -3.4597   -2.3913    1.1076 C   0  0  0  0  0  0  0  0  0  0  0  0
   -4.1577   -1.6043    1.3866 H   0  0  0  0  0  0  0  0  0  0  0  0
   -3.6807   -2.7523    0.1036 H   0  0  0  0  0  0  0  0  0  0  0  0
   -2.0477   -1.8543    1.1546 C   0  0  0  0  0  0  0  0  0  0  0  0
   -1.2227   -2.3443    1.9146 O   0  0  0  0  0  0  0  0  0  0  0  0
   -1.7517   -0.8483    0.3266 N   0  0  0  0  0  0  0  0  0  0  0  0
   -2.4847   -0.5123   -0.2804 H   0  0  0  0  0  0  0  0  0  0  0  0
   -0.4117   -0.2463    0.2186 C   0  0  1  0  0  0  0  0  0  0  0  0
    0.1554   -0.5152    1.1133 H   0  0  0  0  0  0  0  0  0  0  0  0
    0.3164   -0.8780   -0.9905 C   0  0  0  0  0  0  0  0  0  0  0  0
   -0.3648   -0.8795   -1.8452 H   0  0  0  0  0  0  0  0  0  0  0  0
    1.1677   -0.2494   -1.2602 H   0  0  0  0  0  0  0  0  0  0  0  0
    0.8232   -2.2878   -0.7718 C   0  0  0  0  0  0  0  0  0  0  0  0
    0.0369   -3.3790   -0.4566 N   0  3  0  0  0  0  0  0  0  0  0  0
   -0.9852   -3.3428   -0.4045 H   0  0  0  0  0  0  0  0  0  0  0  0
    0.8349   -4.4588   -0.3385 C   0  0  0  0  0  0  0  0  0  0  0  0
    0.4987   -5.4677   -0.1081 H   0  0  0  0  0  0  0  0  0  0  0  0
    2.1108   -4.0762   -0.5708 N   0  0  0  0  0  0  0  0  0  0  0  0
    2.9280   -4.6807   -0.5528 H   0  0  0  0  0  0  0  0  0  0  0  0
    2.1214   -2.7155   -0.8444 C   0  0  0  0  0  0  0  0  0  0  0  0
    2.9868   -2.0998   -1.0737 H   0  0  0  0  0  0  0  0  0  0  0  0
   -0.4874    1.2908    0.1962 C   0  0  0  0  0  0  0  0  0  0  0  0
   -1.3116    1.8673   -0.5151 O   0  0  0  0  0  0  0  0  0  0  0  0
    0.3889    1.9422    0.9708 N   0  0  0  0  0  0  0  0  0  0  0  0
    1.0197    1.3866    1.5283 H   0  0  0  0  0  0  0  0  0  0  0  0
    0.5081    3.3999    1.0720 C   0  0  0  0  0  0  0  0  0  0  0  0
    0.0188    3.7538    1.9817 H   0  0  0  0  0  0  0  0  0  0  0  0
    1.5607    3.6858    1.1098 H   0  0  0  0  0  0  0  0  0  0  0  0
    0.0459    3.8890    0.2119 H   0  0  0  0  0  0  0  0  0  0  0  0
  5  6  2  0  0  0  0
  5  7  1  0  0  0  0
  2  3  1  0  0  0  0
  2  4  1  0  0  0  0
  2  5  1  0  0  0  0
  1  2  1  0  0  0  0
 23 24  2  0  0  0  0
 23 25  1  0  0  0  0
 21 22  1  0  0  0  0
 19 20  1  0  0  0  0
 19 21  1  0  0  0  0
 17 18  1  0  0  0  0
 17 19  1  0  0  0  0
 15 16  1  0  0  0  0
 15 17  2  0  0  0  0
 14 15  1  0  0  0  0
 14 21  2  0  0  0  0
 11 12  1  0  0  0  0
 11 13  1  0  0  0  0
 11 14  1  0  0  0  0
  9 10  1  0  0  0  0
  9 11  1  0  0  0  0
  9 23  1  0  0  0  0
  7  8  1  0  0  0  0
  7  9  1  0  0  0  0
 27 28  1  0  0  0  0
 27 29  1  0  0  0  0
 27 30  1  0  0  0  0
 25 26  1  0  0  0  0
 25 27  1  0  0  0  0
M  CHG  1  15   1
M  END
$$$$
default_name
  -OEChem-02102213163D

 30 30  0     1  0  0  0  0  0999 V2000
   -3.5507   -3.2183    1.8116 H   0  0  0  0  0  0  0  0  0  0  0  0
   -3.4597   -2.3913    1.1076 C   0  0  0  0  0  0  0  0  0  0  0  0
   -4.1577   -1.6043    1.3866 H   0  0  0  0  0  0  0  0  0  0  0  0
   -3.6807   -2.7523    0.1036 H   0  0  0  0  0  0  0  0  0  0  0  0
   -2.0477   -1.8543    1.1546 C   0  0  0  0  0  0  0  0  0  0  0  0
   -1.2227   -2.3443    1.9146 O   0  0  0  0  0  0  0  0  0  0  0  0
   -1.7517   -0.8483    0.3266 N   0  0  0  0  0  0  0  0  0  0  0  0
   -2.4847   -0.5123   -0.2804 H   0  0  0  0  0  0  0  0  0  0  0  0
   -0.4117   -0.2463    0.2186 C   0  0  1  0  0  0  0  0  0  0  0  0
    0.1554   -0.5152    1.1133 H   0  0  0  0  0  0  0  0  0  0  0  0
    0.3164   -0.8780   -0.9905 C   0  0  0  0  0  0  0  0  0  0  0  0
   -0.3648   -0.8795   -1.8452 H   0  0  0  0  0  0  0  0  0  0  0  0
    1.1677   -0.2494   -1.2602 H   0  0  0  0  0  0  0  0  0  0  0  0
    0.8232   -2.2878   -0.7718 C   0  0  0  0  0  0  0  0  0  0  0  0
    0.0376   -3.4239   -0.7475 N   0  3  0  0  0  0  0  0  0  0  0  0
   -0.9678   -3.4199   -0.9421 H   0  0  0  0  0  0  0  0  0  0  0  0
    0.8350   -4.4882   -0.5282 C   0  0  0  0  0  0  0  0  0  0  0  0
    0.5023   -5.5226   -0.4700 H   0  0  0  0  0  0  0  0  0  0  0  0
    2.1096   -4.0520   -0.4118 N   0  0  0  0  0  0  0  0  0  0  0  0
    2.9268   -4.6335   -0.2457 H   0  0  0  0  0  0  0  0  0  0  0  0
    2.1200   -2.6722   -0.5621 C   0  0  0  0  0  0  0  0  0  0  0  0
    2.9846   -2.0152   -0.5232 H   0  0  0  0  0  0  0  0  0  0  0  0
   -0.4874    1.2908    0.1962 C   0  0  0  0  0  0  0  0  0  0  0  0
   -1.3116    1.8673   -0.5151 O   0  0  0  0  0  0  0  0  0  0  0  0
    0.3889    1.9422    0.9708 N   0  0  0  0  0  0  0  0  0  0  0  0
    1.0197    1.3866    1.5283 H   0  0  0  0  0  0  0  0  0  0  0  0
    0.5081    3.3999    1.0720 C   0  0  0  0  0  0  0  0  0  0  0  0
    0.0188    3.7538    1.9817 H   0  0  0  0  0  0  0  0  0  0  0  0
    1.5607    3.6858    1.1098 H   0  0  0  0  0  0  0  0  0  0  0  0
    0.0459    3.8890    0.2119 H   0  0  0  0  0  0  0  0  0  0  0  0
  5  6  2  0  0  0  0
  5  7  1  0  0  0  0
  2  3  1  0  0  0  0
  2  4  1  0  0  0  0
  2  5  1  0  0  0  0
  1  2  1  0  0  0  0
 23 24  2  0  0  0  0
 23 25  1  0  0  0  0
 21 22  1  0  0  0  0
 19 20  1  0  0  0  0
 19 21  1  0  0  0  0
 17 18  1  0  0  0  0
 17 19  1  0  0  0  0
 15 16  1  0  0  0  0
 15 17  2  0  0  0  0
 14 15  1  0  0  0  0
 14 21  2  0  0  0  0
 11 12  1  0  0  0  0
 11 13  1  0  0  0  0
 11 14  1  0  0  0  0
  9 10  1  0  0  0  0
  9 11  1  0  0  0  0
  9 23  1  0  0  0  0
  7  8  1  0  0  0  0
  7  9  1  0  0  0  0
 27 28  1  0  0  0  0
 27 29  1  0  0  0  0
 27 30  1  0  0  0  0
 25 26  1  0  0  0  0
 25 27  1  0  0  0  0
M  CHG  1  15   1
M  END
$$$$
default_name
  -OEChem-02102213163D

 30 30  0     1  0  0  0  0  0999 V2000
   -3.5507   -3.2183    1.8116 H   0  0  0  0  0  0  0  0  0  0  0  0
   -3.4597   -2.3913    1.1076 C   0  0  0  0  0  0  0  0  0  0  0  0
   -4.1577   -1.6043    1.3866 H   0  0  0  0  0  0  0  0  0  0  0  0
   -3.6807   -2.7523    0.1036 H   0  0  0  0  0  0  0  0  0  0  0  0
   -2.0477   -1.8543    1.1546 C   0  0  0  0  0  0  0  0  0  0  0  0
   -1.2227   -2.3443    1.9146 O   0  0  0  0  0  0  0  0  0  0  0  0
   -1.7517   -0.8483    0.3266 N   0  0  0  0  0  0  0  0  0  0  0  0
   -2.4847   -0.5123   -0.2804 H   0  0  0  0  0  0  0  0  0  0  0  0
   -0.4117   -0.2463    0.2186 C   0  0  1  0  0  0  0  0  0  0  0  0
    0.1554   -0.5152    1.1133 H   0  0  0  0  0  0  0  0  0  0  0  0
    0.3164   -0.8780   -0.9905 C   0  0  0  0  0  0  0  0  0  0  0  0
   -0.3648   -0.8795   -1.8452 H   0  0  0  0  0  0  0  0  0  0  0  0
    1.1677   -0.2494   -1.2602 H   0  0  0  0  0  0  0  0  0  0  0  0
    0.8232   -2.2878   -0.7718 C   0  0  0  0  0  0  0  0  0  0  0  0
    0.1101   -3.4420   -1.0321 N   0  3  0  0  0  0  0  0  0  0  0  0
   -0.8185   -3.4472   -1.4639 H   0  0  0  0  0  0  0  0  0  0  0  0
    0.8820   -4.5001   -0.7141 C   0  0  0  0  0  0  0  0  0  0  0  0
    0.5951   -5.5440   -0.8234 H   0  0  0  0  0  0  0  0  0  0  0  0
    2.0692   -4.0424   -0.2564 N   0  0  0  0  0  0  0  0  0  0  0  0
    2.8498   -4.6146    0.0546 H   0  0  0  0  0  0  0  0  0  0  0  0
    2.0491   -2.6548   -0.2859 C   0  0  0  0  0  0  0  0  0  0  0  0
    2.8466   -1.9813    0.0153 H   0  0  0  0  0  0  0  0  0  0  0  0
   -0.4874    1.2908    0.1962 C   0  0  0  0  0  0  0  0  0  0  0  0
   -1.3116    1.8673   -0.5151 O   0  0  0  0  0  0  0  0  0  0  0  0
    0.3889    1.9422    0.9708 N   0  0  0  0  0  0  0  0  0  0  0  0
    1.0197    1.3866    1.5283 H   0  0  0  0  0  0  0  0  0  0  0  0
    0.5081    3.3999    1.0720 C   0  0  0  0  0  0  0  0  0  0  0  0
    0.0188    3.7538    1.9817 H   0  0  0  0  0  0  0  0  0  0  0  0
    1.5607    3.6858    1.1098 H   0  0  0  0  0  0  0  0  0  0  0  0
    0.0459    3.8890    0.2119 H   0  0  0  0  0  0  0  0  0  0  0  0
  5  6  2  0  0  0  0
  5  7  1  0  0  0  0
  2  3  1  0  0  0  0
  2  4  1  0  0  0  0
  2  5  1  0  0  0  0
  1  2  1  0  0  0  0
 23 24  2  0  0  0  0
 23 25  1  0  0  0  0
 21 22  1  0  0  0  0
 19 20  1  0  0  0  0
 19 21  1  0  0  0  0
 17 18  1  0  0  0  0
 17 19  1  0  0  0  0
 15 16  1  0  0  0  0
 15 17  2  0  0  0  0
 14 15  1  0  0  0  0
 14 21  2  0  0  0  0
 11 12  1  0  0  0  0
 11 13  1  0  0  0  0
 11 14  1  0  0  0  0
  9 10  1  0  0  0  0
  9 11  1  0  0  0  0
  9 23  1  0  0  0  0
  7  8  1  0  0  0  0
  7  9  1  0  0  0  0
 27 28  1  0  0  0  0
 27 29  1  0  0  0  0
 27 30  1  0  0  0  0
 25 26  1  0  0  0  0
 25 27  1  0  0  0  0
M  CHG  1  15   1
M  END
$$$$
default_name
  -OEChem-02102213163D

 30 30  0     1  0  0  0  0  0999 V2000
   -3.5507   -3.2183    1.8116 H   0  0  0  0  0  0  0  0  0  0  0  0
   -3.4597   -2.3913    1.1076 C   0  0  0  0  0  0  0  0  0  0  0  0
   -4.1577   -1.6043    1.3866 H   0  0  0  0  0  0  0  0  0  0  0  0
   -3.6807   -2.7523    0.1036 H   0  0  0  0  0  0  0  0  0  0  0  0
   -2.0477   -1.8543    1.1546 C   0  0  0  0  0  0  0  0  0  0  0  0
   -1.2227   -2.3443    1.9146 O   0  0  0  0  0  0  0  0  0  0  0  0
   -1.7517   -0.8483    0.3266 N   0  0  0  0  0  0  0  0  0  0  0  0
   -2.4847   -0.5123   -0.2804 H   0  0  0  0  0  0  0  0  0  0  0  0
   -0.4117   -0.2463    0.2186 C   0  0  1  0  0  0  0  0  0  0  0  0
    0.1554   -0.5152    1.1133 H   0  0  0  0  0  0  0  0  0  0  0  0
    0.3164   -0.8780   -0.9905 C   0  0  0  0  0  0  0  0  0  0  0  0
   -0.3648   -0.8795   -1.8452 H   0  0  0  0  0  0  0  0  0  0  0  0
    1.1677   -0.2494   -1.2602 H   0  0  0  0  0  0  0  0  0  0  0  0
    0.8232   -2.2878   -0.7718 C   0  0  0  0  0  0  0  0  0  0  0  0
    0.2494   -3.4321   -1.2912 N   0  3  0  0  0  0  0  0  0  0  0  0
   -0.5475   -3.4228   -1.9343 H   0  0  0  0  0  0  0  0  0  0  0  0
    0.9727   -4.4938   -0.8833 C   0  0  0  0  0  0  0  0  0  0  0  0
    0.7707   -5.5307   -1.1442 H   0  0  0  0  0  0  0  0  0  0  0  0
    1.9924   -4.0481   -0.1153 N   0  0  0  0  0  0  0  0  0  0  0  0
    2.7024   -4.6252    0.3279 H   0  0  0  0  0  0  0  0  0  0  0  0
    1.9133   -2.6647   -0.0348 C   0  0  0  0  0  0  0  0  0  0  0  0
    2.5823   -2.0003    0.5052 H   0  0  0  0  0  0  0  0  0  0  0  0
   -0.4874    1.2908    0.1962 C   0  0  0  0  0  0  0  0  0  0  0  0
   -1.3116    1.8673   -0.5151 O   0  0  0  0  0  0  0  0  0  0  0  0
    0.3889    1.9422    0.9708 N   0  0  0  0  0  0  0  0  0  0  0  0
    1.0197    1.3866    1.5283 H   0  0  0  0  0  0  0  0  0  0  0  0
    0.5081    3.3999    1.0720 C   0  0  0  0  0  0  0  0  0  0  0  0
    0.0188    3.7538    1.9817 H   0  0  0  0  0  0  0  0  0  0  0  0
    1.5607    3.6858    1.1098 H   0  0  0  0  0  0  0  0  0  0  0  0
    0.0459    3.8890    0.2119 H   0  0  0  0  0  0  0  0  0  0  0  0
  5  6  2  0  0  0  0
  5  7  1  0  0  0  0
  2  3  1  0  0  0  0
  2  4  1  0  0  0  0
  2  5  1  0  0  0  0
  1  2  1  0  0  0  0
 23 24  2  0  0  0  0
 23 25  1  0  0  0  0
 21 22  1  0  0  0  0
 19 20  1  0  0  0  0
 19 21  1  0  0  0  0
 17 18  1  0  0  0  0
 17 19  1  0  0  0  0
 15 16  1  0  0  0  0
 15 17  2  0  0  0  0
 14 15  1  0  0  0  0
 14 21  2  0  0  0  0
 11 12  1  0  0  0  0
 11 13  1  0  0  0  0
 11 14  1  0  0  0  0
  9 10  1  0  0  0  0
  9 11  1  0  0  0  0
  9 23  1  0  0  0  0
  7  8  1  0  0  0  0
  7  9  1  0  0  0  0
 27 28  1  0  0  0  0
 27 29  1  0  0  0  0
 27 30  1  0  0  0  0
 25 26  1  0  0  0  0
 25 27  1  0  0  0  0
M  CHG  1  15   1
M  END
$$$$
default_name
  -OEChem-02102213163D

 30 30  0     1  0  0  0  0  0999 V2000
   -3.5507   -3.2183    1.8116 H   0  0  0  0  0  0  0  0  0  0  0  0
   -3.4597   -2.3913    1.1076 C   0  0  0  0  0  0  0  0  0  0  0  0
   -4.1577   -1.6043    1.3866 H   0  0  0  0  0  0  0  0  0  0  0  0
   -3.6807   -2.7523    0.1036 H   0  0  0  0  0  0  0  0  0  0  0  0
   -2.0477   -1.8543    1.1546 C   0  0  0  0  0  0  0  0  0  0  0  0
   -1.2227   -2.3443    1.9146 O   0  0  0  0  0  0  0  0  0  0  0  0
   -1.7517   -0.8483    0.3266 N   0  0  0  0  0  0  0  0  0  0  0  0
   -2.4847   -0.5123   -0.2804 H   0  0  0  0  0  0  0  0  0  0  0  0
   -0.4117   -0.2463    0.2186 C   0  0  1  0  0  0  0  0  0  0  0  0
    0.1554   -0.5152    1.1133 H   0  0  0  0  0  0  0  0  0  0  0  0
    0.3164   -0.8780   -0.9905 C   0  0  0  0  0  0  0  0  0  0  0  0
   -0.3648   -0.8795   -1.8452 H   0  0  0  0  0  0  0  0  0  0  0  0
    1.1677   -0.2494   -1.2602 H   0  0  0  0  0  0  0  0  0  0  0  0
    0.8232   -2.2878   -0.7718 C   0  0  0  0  0  0  0  0  0  0  0  0
    0.4461   -3.3949   -1.5070 N   0  3  0  0  0  0  0  0  0  0  0  0
   -0.1733   -3.3483   -2.3213 H   0  0  0  0  0  0  0  0  0  0  0  0
    1.1007   -4.4696   -1.0243 C   0  0  0  0  0  0  0  0  0  0  0  0
    1.0171   -5.4834   -1.4106 H   0  0  0  0  0  0  0  0  0  0  0  0
    1.8844   -4.0687    0.0021 N   0  0  0  0  0  0  0  0  0  0  0  0
    2.4946   -4.6646    0.5554 H   0  0  0  0  0  0  0  0  0  0  0  0
    1.7220   -2.7010    0.1742 C   0  0  0  0  0  0  0  0  0  0  0  0
    2.2096   -2.0710    0.9130 H   0  0  0  0  0  0  0  0  0  0  0  0
   -0.4874    1.2908    0.1962 C   0  0  0  0  0  0  0  0  0  0  0  0
   -1.3116    1.8673   -0.5151 O   0  0  0  0  0  0  0  0  0  0  0  0
    0.3889    1.9422    0.9708 N   0  0  0  0  0  0  0  0  0  0  0  0
    1.0197    1.3866    1.5283 H   0  0  0  0  0  0  0  0  0  0  0  0
    0.5081    3.3999    1.0720 C   0  0  0  0  0  0  0  0  0  0  0  0
    0.0188    3.7538    1.9817 H   0  0  0  0  0  0  0  0  0  0  0  0
    1.5607    3.6858    1.1098 H   0  0  0  0  0  0  0  0  0  0  0  0
    0.0459    3.8890    0.2119 H   0  0  0  0  0  0  0  0  0  0  0  0
  5  6  2  0  0  0  0
  5  7  1  0  0  0  0
  2  3  1  0  0  0  0
  2  4  1  0  0  0  0
  2  5  1  0  0  0  0
  1  2  1  0  0  0  0
 23 24  2  0  0  0  0
 23 25  1  0  0  0  0
 21 22  1  0  0  0  0
 19 20  1  0  0  0  0
 19 21  1  0  0  0  0
 17 18  1  0  0  0  0
 17 19  1  0  0  0  0
 15 16  1  0  0  0  0
 15 17  2  0  0  0  0
 14 15  1  0  0  0  0
 14 21  2  0  0  0  0
 11 12  1  0  0  0  0
 11 13  1  0  0  0  0
 11 14  1  0  0  0  0
  9 10  1  0  0  0  0
  9 11  1  0  0  0  0
  9 23  1  0  0  0  0
  7  8  1  0  0  0  0
  7  9  1  0  0  0  0
 27 28  1  0  0  0  0
 27 29  1  0  0  0  0
 27 30  1  0  0  0  0
 25 26  1  0  0  0  0
 25 27  1  0  0  0  0
M  CHG  1  15   1
M  END
$$$$
default_name
  -OEChem-02102213163D

 30 30  0     1  0  0  0  0  0999 V2000
   -3.5507   -3.2183    1.8116 H   0  0  0  0  0  0  0  0  0  0  0  0
   -3.4597   -2.3913    1.1076 C   0  0  0  0  0  0  0  0  0  0  0  0
   -4.1577   -1.6043    1.3866 H   0  0  0  0  0  0  0  0  0  0  0  0
   -3.6807   -2.7523    0.1036 H   0  0  0  0  0  0  0  0  0  0  0  0
   -2.0477   -1.8543    1.1546 C   0  0  0  0  0  0  0  0  0  0  0  0
   -1.2227   -2.3443    1.9146 O   0  0  0  0  0  0  0  0  0  0  0  0
   -1.7517   -0.8483    0.3266 N   0  0  0  0  0  0  0  0  0  0  0  0
   -2.4847   -0.5123   -0.2804 H   0  0  0  0  0  0  0  0  0  0  0  0
   -0.4117   -0.2463    0.2186 C   0  0  1  0  0  0  0  0  0  0  0  0
    0.1554   -0.5152    1.1133 H   0  0  0  0  0  0  0  0  0  0  0  0
    0.3164   -0.8780   -0.9905 C   0  0  0  0  0  0  0  0  0  0  0  0
   -0.3648   -0.8795   -1.8452 H   0  0  0  0  0  0  0  0  0  0  0  0
    1.1677   -0.2494   -1.2602 H   0  0  0  0  0  0  0  0  0  0  0  0
    0.8232   -2.2878   -0.7718 C   0  0  0  0  0  0  0  0  0  0  0  0
    0.6866   -3.3329   -1.6648 N   0  3  0  0  0  0  0  0  0  0  0  0
    0.2787   -3.2288   -2.5984 H   0  0  0  0  0  0  0  0  0  0  0  0
    1.2575   -4.4293   -1.1276 C   0  0  0  0  0  0  0  0  0  0  0  0
    1.3176   -5.4055   -1.6045 H   0  0  0  0  0  0  0  0  0  0  0  0
    1.7526   -4.1028    0.0876 N   0  0  0  0  0  0  0  0  0  0  0  0
    2.2404   -4.7302    0.7216 H   0  0  0  0  0  0  0  0  0  0  0  0
    1.4882   -2.7614    0.3268 C   0  0  0  0  0  0  0  0  0  0  0  0
    1.7540   -2.1886    1.2110 H   0  0  0  0  0  0  0  0  0  0  0  0
   -0.4874    1.2908    0.1962 C   0  0  0  0  0  0  0  0  0  0  0  0
   -1.3116    1.8673   -0.5151 O   0  0  0  0  0  0  0  0  0  0  0  0
    0.3889    1.9422    0.9708 N   0  0  0  0  0  0  0  0  0  0  0  0
    1.0197    1.3866    1.5283 H   0  0  0  0  0  0  0  0  0  0  0  0
    0.5081    3.3999    1.0720 C   0  0  0  0  0  0  0  0  0  0  0  0
    0.0188    3.7538    1.9817 H   0  0  0  0  0  0  0  0  0  0  0  0
    1.5607    3.6858    1.1098 H   0  0  0  0  0  0  0  0  0  0  0  0
    0.0459    3.8890    0.2119 H   0  0  0  0  0  0  0  0  0  0  0  0
  5  6  2  0  0  0  0
  5  7  1  0  0  0  0
  2  3  1  0  0  0  0
  2  4  1  0  0  0  0
  2  5  1  0  0  0  0
  1  2  1  0  0  0  0
 23 24  2  0  0  0  0
 23 25  1  0  0  0  0
 21 22  1  0  0  0  0
 19 20  1  0  0  0  0
 19 21  1  0  0  0  0
 17 18  1  0  0  0  0
 17 19  1  0  0  0  0
 15 16  1  0  0  0  0
 15 17  2  0  0  0  0
 14 15  1  0  0  0  0
 14 21  2  0  0  0  0
 11 12  1  0  0  0  0
 11 13  1  0  0  0  0
 11 14  1  0  0  0  0
  9 10  1  0  0  0  0
  9 11  1  0  0  0  0
  9 23  1  0  0  0  0
  7  8  1  0  0  0  0
  7  9  1  0  0  0  0
 27 28  1  0  0  0  0
 27 29  1  0  0  0  0
 27 30  1  0  0  0  0
 25 26  1  0  0  0  0
 25 27  1  0  0  0  0
M  CHG  1  15   1
M  END
$$$$
default_name
  -OEChem-02102213163D

 30 30  0     1  0  0  0  0  0999 V2000
   -3.5507   -3.2183    1.8116 H   0  0  0  0  0  0  0  0  0  0  0  0
   -3.4597   -2.3913    1.1076 C   0  0  0  0  0  0  0  0  0  0  0  0
   -4.1577   -1.6043    1.3866 H   0  0  0  0  0  0  0  0  0  0  0  0
   -3.6807   -2.7523    0.1036 H   0  0  0  0  0  0  0  0  0  0  0  0
   -2.0477   -1.8543    1.1546 C   0  0  0  0  0  0  0  0  0  0  0  0
   -1.2227   -2.3443    1.9146 O   0  0  0  0  0  0  0  0  0  0  0  0
   -1.7517   -0.8483    0.3266 N   0  0  0  0  0  0  0  0  0  0  0  0
   -2.4847   -0.5123   -0.2804 H   0  0  0  0  0  0  0  0  0  0  0  0
   -0.4117   -0.2463    0.2186 C   0  0  1  0  0  0  0  0  0  0  0  0
    0.1554   -0.5152    1.1133 H   0  0  0  0  0  0  0  0  0  0  0  0
    0.3164   -0.8780   -0.9905 C   0  0  0  0  0  0  0  0  0  0  0  0
   -0.3648   -0.8795   -1.8452 H   0  0  0  0  0  0  0  0  0  0  0  0
    1.1677   -0.2494   -1.2602 H   0  0  0  0  0  0  0  0  0  0  0  0
    0.8232   -2.2878   -0.7718 C   0  0  0  0  0  0  0  0  0  0  0  0
    0.9547   -3.2504   -1.7540 N   0  3  0  0  0  0  0  0  0  0  0  0
    0.7775   -3.0725   -2.7468 H   0  0  0  0  0  0  0  0  0  0  0  0
    1.4324   -4.3755   -1.1861 C   0  0  0  0  0  0  0  0  0  0  0  0
    1.6516   -5.3022   -1.7126 H   0  0  0  0  0  0  0  0  0  0  0  0
    1.6059   -4.1481    0.1355 N   0  0  0  0  0  0  0  0  0  0  0  0
    1.9574   -4.8174    0.8153 H   0  0  0  0  0  0  0  0  0  0  0  0
    1.2279   -2.8417    0.4127 C   0  0  0  0  0  0  0  0  0  0  0  0
    1.2465   -2.3450    1.3788 H   0  0  0  0  0  0  0  0  0  0  0  0
   -0.4874    1.2908    0.1962 C   0  0  0  0  0  0  0  0  0  0  0  0
   -1.3116    1.8673   -0.5151 O   0  0  0  0  0  0  0  0  0  0  0  0
    0.3889    1.9422    0.9708 N   0  0  0  0  0  0  0  0  0  0  0  0
    1.0197    1.3866    1.5283 H   0  0  0  0  0  0  0  0  0  0  0  0
    0.5081    3.3999    1.0720 C   0  0  0  0  0  0  0  0  0  0  0  0
    0.0188    3.7538    1.9817 H   0  0  0  0  0  0  0  0  0  0  0  0
    1.5607    3.6858    1.1098 H   0  0  0  0  0  0  0  0  0  0  0  0
    0.0459    3.8890    0.2119 H   0  0  0  0  0  0  0  0  0  0  0  0
  5  6  2  0  0  0  0
  5  7  1  0  0  0  0
  2  3  1  0  0  0  0
  2  4  1  0  0  0  0
  2  5  1  0  0  0  0
  1  2  1  0  0  0  0
 23 24  2  0  0  0  0
 23 25  1  0  0  0  0
 21 22  1  0  0  0  0
 19 20  1  0  0  0  0
 19 21  1  0  0  0  0
 17 18  1  0  0  0  0
 17 19  1  0  0  0  0
 15 16  1  0  0  0  0
 15 17  2  0  0  0  0
 14 15  1  0  0  0  0
 14 21  2  0  0  0  0
 11 12  1  0  0  0  0
 11 13  1  0  0  0  0
 11 14  1  0  0  0  0
  9 10  1  0  0  0  0
  9 11  1  0  0  0  0
  9 23  1  0  0  0  0
  7  8  1  0  0  0  0
  7  9  1  0  0  0  0
 27 28  1  0  0  0  0
 27 29  1  0  0  0  0
 27 30  1  0  0  0  0
 25 26  1  0  0  0  0
 25 27  1  0  0  0  0
M  CHG  1  15   1
M  END
$$$$
default_name
  -OEChem-02102213163D

 30 30  0     1  0  0  0  0  0999 V2000
   -3.5507   -3.2183    1.8116 H   0  0  0  0  0  0  0  0  0  0  0  0
   -3.4597   -2.3913    1.1076 C   0  0  0  0  0  0  0  0  0  0  0  0
   -4.1577   -1.6043    1.3866 H   0  0  0  0  0  0  0  0  0  0  0  0
   -3.6807   -2.7523    0.1036 H   0  0  0  0  0  0  0  0  0  0  0  0
   -2.0477   -1.8543    1.1546 C   0  0  0  0  0  0  0  0  0  0  0  0
   -1.2227   -2.3443    1.9146 O   0  0  0  0  0  0  0  0  0  0  0  0
   -1.7517   -0.8483    0.3266 N   0  0  0  0  0  0  0  0  0  0  0  0
   -2.4847   -0.5123   -0.2804 H   0  0  0  0  0  0  0  0  0  0  0  0
   -0.4117   -0.2463    0.2186 C   0  0  1  0  0  0  0  0  0  0  0  0
    0.1554   -0.5152    1.1133 H   0  0  0  0  0  0  0  0  0  0  0  0
    0.3164   -0.8780   -0.9905 C   0  0  0  0  0  0  0  0  0  0  0  0
   -0.3648   -0.8795   -1.8452 H   0  0  0  0  0  0  0  0  0  0  0  0
    1.1677   -0.2494   -1.2602 H   0  0  0  0  0  0  0  0  0  0  0  0
    0.8232   -2.2878   -0.7718 C   0  0  0  0  0  0  0  0  0  0  0  0
    1.2320   -3.1529   -1.7683 N   0  3  0  0  0  0  0  0  0  0  0  0
    1.2893   -2.8900   -2.7564 H   0  0  0  0  0  0  0  0  0  0  0  0
    1.6133   -4.3119   -1.1958 C   0  0  0  0  0  0  0  0  0  0  0  0
    1.9965   -5.1805   -1.7276 H   0  0  0  0  0  0  0  0  0  0  0  0
    1.4544   -4.2015    0.1425 N   0  0  0  0  0  0  0  0  0  0  0  0
    1.6647   -4.9204    0.8299 H   0  0  0  0  0  0  0  0  0  0  0  0
    0.9587   -2.9364    0.4259 C   0  0  0  0  0  0  0  0  0  0  0  0
    0.7217   -2.5296    1.4051 H   0  0  0  0  0  0  0  0  0  0  0  0
   -0.4874    1.2908    0.1962 C   0  0  0  0  0  0  0  0  0  0  0  0
   -1.3116    1.8673   -0.5151 O   0  0  0  0  0  0  0  0  0  0  0  0
    0.3889    1.9422    0.9708 N   0  0  0  0  0  0  0  0  0  0  0  0
    1.0197    1.3866    1.5283 H   0  0  0  0  0  0  0  0  0  0  0  0
    0.5081    3.3999    1.0720 C   0  0  0  0  0  0  0  0  0  0  0  0
    0.0188    3.7538    1.9817 H   0  0  0  0  0  0  0  0  0  0  0  0
    1.5607    3.6858    1.1098 H   0  0  0  0  0  0  0  0  0  0  0  0
    0.0459    3.8890    0.2119 H   0  0  0  0  0  0  0  0  0  0  0  0
  5  6  2  0  0  0  0
  5  7  1  0  0  0  0
  2  3  1  0  0  0  0
  2  4  1  0  0  0  0
  2  5  1  0  0  0  0
  1  2  1  0  0  0  0
 23 24  2  0  0  0  0
 23 25  1  0  0  0  0
 21 22  1  0  0  0  0
 19 20  1  0  0  0  0
 19 21  1  0  0  0  0
 17 18  1  0  0  0  0
 17 19  1  0  0  0  0
 15 16  1  0  0  0  0
 15 17  2  0  0  0  0
 14 15  1  0  0  0  0
 14 21  2  0  0  0  0
 11 12  1  0  0  0  0
 11 13  1  0  0  0  0
 11 14  1  0  0  0  0
  9 10  1  0  0  0  0
  9 11  1  0  0  0  0
  9 23  1  0  0  0  0
  7  8  1  0  0  0  0
  7  9  1  0  0  0  0
 27 28  1  0  0  0  0
 27 29  1  0  0  0  0
 27 30  1  0  0  0  0
 25 26  1  0  0  0  0
 25 27  1  0  0  0  0
M  CHG  1  15   1
M  END
$$$$
default_name
  -OEChem-02102213163D

 30 30  0     1  0  0  0  0  0999 V2000
   -3.5507   -3.2183    1.8116 H   0  0  0  0  0  0  0  0  0  0  0  0
   -3.4597   -2.3913    1.1076 C   0  0  0  0  0  0  0  0  0  0  0  0
   -4.1577   -1.6043    1.3866 H   0  0  0  0  0  0  0  0  0  0  0  0
   -3.6807   -2.7523    0.1036 H   0  0  0  0  0  0  0  0  0  0  0  0
   -2.0477   -1.8543    1.1546 C   0  0  0  0  0  0  0  0  0  0  0  0
   -1.2227   -2.3443    1.9146 O   0  0  0  0  0  0  0  0  0  0  0  0
   -1.7517   -0.8483    0.3266 N   0  0  0  0  0  0  0  0  0  0  0  0
   -2.4847   -0.5123   -0.2804 H   0  0  0  0  0  0  0  0  0  0  0  0
   -0.4117   -0.2463    0.2186 C   0  0  1  0  0  0  0  0  0  0  0  0
    0.1554   -0.5152    1.1133 H   0  0  0  0  0  0  0  0  0  0  0  0
    0.3164   -0.8780   -0.9905 C   0  0  0  0  0  0  0  0  0  0  0  0
   -0.2460   -0.6423   -1.8976 H   0  0  0  0  0  0  0  0  0  0  0  0
    1.3001   -0.4152   -1.0939 H   0  0  0  0  0  0  0  0  0  0  0  0
    0.5078   -2.3780   -0.9146 C   0  0  0  0  0  0  0  0  0  0  0  0
    1.1282   -3.1533   -1.8750 N   0  3  0  0  0  0  0  0  0  0  0  0
    1.5783   -2.7662   -2.7095 H   0  0  0  0  0  0  0  0  0  0  0  0
    1.1097   -4.4366   -1.4633 C   0  0  0  0  0  0  0  0  0  0  0  0
    1.5363   -5.2778   -2.0058 H   0  0  0  0  0  0  0  0  0  0  0  0
    0.4899   -4.4926   -0.2628 N   0  0  0  0  0  0  0  0  0  0  0  0
    0.3329   -5.3316    0.2893 H   0  0  0  0  0  0  0  0  0  0  0  0
    0.1053   -3.2082    0.0964 C   0  0  0  0  0  0  0  0  0  0  0  0
   -0.4142   -2.9090    1.0026 H   0  0  0  0  0  0  0  0  0  0  0  0
   -0.4874    1.2908    0.1962 C   0  0  0  0  0  0  0  0  0  0  0  0
   -1.3116    1.8673   -0.5151 O   0  0  0  0  0  0  0  0  0  0  0  0
    0.3889    1.9422    0.9708 N   0  0  0  0  0  0  0  0  0  0  0  0
    1.0197    1.3866    1.5283 H   0  0  0  0  0  0  0  0  0  0  0  0
    0.5081    3.3999    1.0720 C   0  0  0  0  0  0  0  0  0  0  0  0
    0.0188    3.7538    1.9817 H   0  0  0  0  0  0  0  0  0  0  0  0
    1.5607    3.6858    1.1098 H   0  0  0  0  0  0  0  0  0  0  0  0
    0.0459    3.8890    0.2119 H   0  0  0  0  0  0  0  0  0  0  0  0
  5  6  2  0  0  0  0
  5  7  1  0  0  0  0
  2  3  1  0  0  0  0
  2  4  1  0  0  0  0
  2  5  1  0  0  0  0
  1  2  1  0  0  0  0
 23 24  2  0  0  0  0
 23 25  1  0  0  0  0
 21 22  1  0  0  0  0
 19 20  1  0  0  0  0
 19 21  1  0  0  0  0
 17 18  1  0  0  0  0
 17 19  1  0  0  0  0
 15 16  1  0  0  0  0
 15 17  2  0  0  0  0
 14 15  1  0  0  0  0
 14 21  2  0  0  0  0
 11 12  1  0  0  0  0
 11 13  1  0  0  0  0
 11 14  1  0  0  0  0
  9 10  1  0  0  0  0
  9 11  1  0  0  0  0
  9 23  1  0  0  0  0
  7  8  1  0  0  0  0
  7  9  1  0  0  0  0
 27 28  1  0  0  0  0
 27 29  1  0  0  0  0
 27 30  1  0  0  0  0
 25 26  1  0  0  0  0
 25 27  1  0  0  0  0
M  CHG  1  15   1
M  END
$$$$
default_name
  -OEChem-02102213163D

 30 30  0     1  0  0  0  0  0999 V2000
   -3.5507   -3.2183    1.8116 H   0  0  0  0  0  0  0  0  0  0  0  0
   -3.4597   -2.3913    1.1076 C   0  0  0  0  0  0  0  0  0  0  0  0
   -4.1577   -1.6043    1.3866 H   0  0  0  0  0  0  0  0  0  0  0  0
   -3.6807   -2.7523    0.1036 H   0  0  0  0  0  0  0  0  0  0  0  0
   -2.0477   -1.8543    1.1546 C   0  0  0  0  0  0  0  0  0  0  0  0
   -1.2227   -2.3443    1.9146 O   0  0  0  0  0  0  0  0  0  0  0  0
   -1.7517   -0.8483    0.3266 N   0  0  0  0  0  0  0  0  0  0  0  0
   -2.4847   -0.5123   -0.2804 H   0  0  0  0  0  0  0  0  0  0  0  0
   -0.4117   -0.2463    0.2186 C   0  0  1  0  0  0  0  0  0  0  0  0
    0.1554   -0.5152    1.1133 H   0  0  0  0  0  0  0  0  0  0  0  0
    0.3164   -0.8780   -0.9905 C   0  0  0  0  0  0  0  0  0  0  0  0
   -0.2460   -0.6423   -1.8976 H   0  0  0  0  0  0  0  0  0  0  0  0
    1.3001   -0.4152   -1.0939 H   0  0  0  0  0  0  0  0  0  0  0  0
    0.5078   -2.3780   -0.9146 C   0  0  0  0  0  0  0  0  0  0  0  0
    1.3669   -3.1143   -1.7072 N   0  3  0  0  0  0  0  0  0  0  0  0
    2.0089   -2.6949   -2.3859 H   0  0  0  0  0  0  0  0  0  0  0  0
    1.2656   -4.4111   -1.3541 C   0  0  0  0  0  0  0  0  0  0  0  0
    1.8314   -5.2295   -1.7947 H   0  0  0  0  0  0  0  0  0  0  0  0
    0.3600   -4.5138   -0.3552 N   0  0  0  0  0  0  0  0  0  0  0  0
    0.0812   -5.3727    0.1118 H   0  0  0  0  0  0  0  0  0  0  0  0
   -0.1259   -3.2460   -0.0670 C   0  0  0  0  0  0  0  0  0  0  0  0
   -0.8653   -2.9827    0.6843 H   0  0  0  0  0  0  0  0  0  0  0  0
   -0.4874    1.2908    0.1962 C   0  0  0  0  0  0  0  0  0  0  0  0
   -1.3116    1.8673   -0.5151 O   0  0  0  0  0  0  0  0  0  0  0  0
    0.3889    1.9422    0.9708 N   0  0  0  0  0  0  0  0  0  0  0  0
    1.0197    1.3866    1.5283 H   0  0  0  0  0  0  0  0  0  0  0  0
    0.5081    3.3999    1.0720 C   0  0  0  0  0  0  0  0  0  0  0  0
    0.0188    3.7538    1.9817 H   0  0  0  0  0  0  0  0  0  0  0  0
    1.5607    3.6858    1.1098 H   0  0  0  0  0  0  0  0  0  0  0  0
    0.0459    3.8890    0.2119 H   0  0  0  0  0  0  0  0  0  0  0  0
  5  6  2  0  0  0  0
  5  7  1  0  0  0  0
  2  3  1  0  0  0  0
  2  4  1  0  0  0  0
  2  5  1  0  0  0  0
  1  2  1  0  0  0  0
 23 24  2  0  0  0  0
 23 25  1  0  0  0  0
 21 22  1  0  0  0  0
 19 20  1  0  0  0  0
 19 21  1  0  0  0  0
 17 18  1  0  0  0  0
 17 19  1  0  0  0  0
 15 16  1  0  0  0  0
 15 17  2  0  0  0  0
 14 15  1  0  0  0  0
 14 21  2  0  0  0  0
 11 12  1  0  0  0  0
 11 13  1  0  0  0  0
 11 14  1  0  0  0  0
  9 10  1  0  0  0  0
  9 11  1  0  0  0  0
  9 23  1  0  0  0  0
  7  8  1  0  0  0  0
  7  9  1  0  0  0  0
 27 28  1  0  0  0  0
 27 29  1  0  0  0  0
 27 30  1  0  0  0  0
 25 26  1  0  0  0  0
 25 27  1  0  0  0  0
M  CHG  1  15   1
M  END
$$$$
default_name
  -OEChem-02102213163D

 30 30  0     1  0  0  0  0  0999 V2000
   -3.5507   -3.2183    1.8116 H   0  0  0  0  0  0  0  0  0  0  0  0
   -3.4597   -2.3913    1.1076 C   0  0  0  0  0  0  0  0  0  0  0  0
   -4.1577   -1.6043    1.3866 H   0  0  0  0  0  0  0  0  0  0  0  0
   -3.6807   -2.7523    0.1036 H   0  0  0  0  0  0  0  0  0  0  0  0
   -2.0477   -1.8543    1.1546 C   0  0  0  0  0  0  0  0  0  0  0  0
   -1.2227   -2.3443    1.9146 O   0  0  0  0  0  0  0  0  0  0  0  0
   -1.7517   -0.8483    0.3266 N   0  0  0  0  0  0  0  0  0  0  0  0
   -2.4847   -0.5123   -0.2804 H   0  0  0  0  0  0  0  0  0  0  0  0
   -0.4117   -0.2463    0.2186 C   0  0  1  0  0  0  0  0  0  0  0  0
    0.1554   -0.5152    1.1133 H   0  0  0  0  0  0  0  0  0  0  0  0
    0.3164   -0.8780   -0.9905 C   0  0  0  0  0  0  0  0  0  0  0  0
   -0.2460   -0.6423   -1.8976 H   0  0  0  0  0  0  0  0  0  0  0  0
    1.3001   -0.4152   -1.0939 H   0  0  0  0  0  0  0  0  0  0  0  0
    0.5078   -2.3780   -0.9146 C   0  0  0  0  0  0  0  0  0  0  0  0
    1.5538   -3.0791   -1.4827 N   0  3  0  0  0  0  0  0  0  0  0  0
    2.3410   -2.6310   -1.9605 H   0  0  0  0  0  0  0  0  0  0  0  0
    1.3878   -4.3881   -1.2078 C   0  0  0  0  0  0  0  0  0  0  0  0
    2.0617   -5.1859   -1.5137 H   0  0  0  0  0  0  0  0  0  0  0  0
    0.2585   -4.5330   -0.4785 N   0  0  0  0  0  0  0  0  0  0  0  0
   -0.1158   -5.4099   -0.1255 H   0  0  0  0  0  0  0  0  0  0  0  0
   -0.3068   -3.2801   -0.2854 C   0  0  0  0  0  0  0  0  0  0  0  0
   -1.2184   -3.0493    0.2588 H   0  0  0  0  0  0  0  0  0  0  0  0
   -0.4874    1.2908    0.1962 C   0  0  0  0  0  0  0  0  0  0  0  0
   -1.3116    1.8673   -0.5151 O   0  0  0  0  0  0  0  0  0  0  0  0
    0.3889    1.9422    0.9708 N   0  0  0  0  0  0  0  0  0  0  0  0
    1.0197    1.3866    1.5283 H   0  0  0  0  0  0  0  0  0  0  0  0
    0.5081    3.3999    1.0720 C   0  0  0  0  0  0  0  0  0  0  0  0
    0.0188    3.7538    1.9817 H   0  0  0  0  0  0  0  0  0  0  0  0
    1.5607    3.6858    1.1098 H   0  0  0  0  0  0  0  0  0  0  0  0
    0.0459    3.8890    0.2119 H   0  0  0  0  0  0  0  0  0  0  0  0
  5  6  2  0  0  0  0
  5  7  1  0  0  0  0
  2  3  1  0  0  0  0
  2  4  1  0  0  0  0
  2  5  1  0  0  0  0
  1  2  1  0  0  0  0
 23 24  2  0  0  0  0
 23 25  1  0  0  0  0
 21 22  1  0  0  0  0
 19 20  1  0  0  0  0
 19 21  1  0  0  0  0
 17 18  1  0  0  0  0
 17 19  1  0  0  0  0
 15 16  1  0  0  0  0
 15 17  2  0  0  0  0
 14 15  1  0  0  0  0
 14 21  2  0  0  0  0
 11 12  1  0  0  0  0
 11 13  1  0  0  0  0
 11 14  1  0  0  0  0
  9 10  1  0  0  0  0
  9 11  1  0  0  0  0
  9 23  1  0  0  0  0
  7  8  1  0  0  0  0
  7  9  1  0  0  0  0
 27 28  1  0  0  0  0
 27 29  1  0  0  0  0
 27 30  1  0  0  0  0
 25 26  1  0  0  0  0
 25 27  1  0  0  0  0
M  CHG  1  15   1
M  END
$$$$
default_name
  -OEChem-02102213163D

 30 30  0     1  0  0  0  0  0999 V2000
   -3.5507   -3.2183    1.8116 H   0  0  0  0  0  0  0  0  0  0  0  0
   -3.4597   -2.3913    1.1076 C   0  0  0  0  0  0  0  0  0  0  0  0
   -4.1577   -1.6043    1.3866 H   0  0  0  0  0  0  0  0  0  0  0  0
   -3.6807   -2.7523    0.1036 H   0  0  0  0  0  0  0  0  0  0  0  0
   -2.0477   -1.8543    1.1546 C   0  0  0  0  0  0  0  0  0  0  0  0
   -1.2227   -2.3443    1.9146 O   0  0  0  0  0  0  0  0  0  0  0  0
   -1.7517   -0.8483    0.3266 N   0  0  0  0  0  0  0  0  0  0  0  0
   -2.4847   -0.5123   -0.2804 H   0  0  0  0  0  0  0  0  0  0  0  0
   -0.4117   -0.2463    0.2186 C   0  0  1  0  0  0  0  0  0  0  0  0
    0.1554   -0.5152    1.1133 H   0  0  0  0  0  0  0  0  0  0  0  0
    0.3164   -0.8780   -0.9905 C   0  0  0  0  0  0  0  0  0  0  0  0
   -0.2460   -0.6423   -1.8976 H   0  0  0  0  0  0  0  0  0  0  0  0
    1.3001   -0.4152   -1.0939 H   0  0  0  0  0  0  0  0  0  0  0  0
    0.5078   -2.3780   -0.9146 C   0  0  0  0  0  0  0  0  0  0  0  0
    1.6764   -3.0500   -1.2167 N   0  3  0  0  0  0  0  0  0  0  0  0
    2.5518   -2.5788   -1.4623 H   0  0  0  0  0  0  0  0  0  0  0  0
    1.4681   -4.3691   -1.0344 C   0  0  0  0  0  0  0  0  0  0  0  0
    2.2115   -5.1499   -1.1817 H   0  0  0  0  0  0  0  0  0  0  0  0
    0.1923   -4.5488   -0.6242 N   0  0  0  0  0  0  0  0  0  0  0  0
   -0.2447   -5.4405   -0.4064 H   0  0  0  0  0  0  0  0  0  0  0  0
   -0.4251   -3.3083   -0.5438 C   0  0  0  0  0  0  0  0  0  0  0  0
   -1.4496   -3.1043   -0.2449 H   0  0  0  0  0  0  0  0  0  0  0  0
   -0.4874    1.2908    0.1962 C   0  0  0  0  0  0  0  0  0  0  0  0
   -1.3116    1.8673   -0.5151 O   0  0  0  0  0  0  0  0  0  0  0  0
    0.3889    1.9422    0.9708 N   0  0  0  0  0  0  0  0  0  0  0  0
    1.0197    1.3866    1.5283 H   0  0  0  0  0  0  0  0  0  0  0  0
    0.5081    3.3999    1.0720 C   0  0  0  0  0  0  0  0  0  0  0  0
    0.0188    3.7538    1.9817 H   0  0  0  0  0  0  0  0  0  0  0  0
    1.5607    3.6858    1.1098 H   0  0  0  0  0  0  0  0  0  0  0  0
    0.0459    3.8890    0.2119 H   0  0  0  0  0  0  0  0  0  0  0  0
  5  6  2  0  0  0  0
  5  7  1  0  0  0  0
  2  3  1  0  0  0  0
  2  4  1  0  0  0  0
  2  5  1  0  0  0  0
  1  2  1  0  0  0  0
 23 24  2  0  0  0  0
 23 25  1  0  0  0  0
 21 22  1  0  0  0  0
 19 20  1  0  0  0  0
 19 21  1  0  0  0  0
 17 18  1  0  0  0  0
 17 19  1  0  0  0  0
 15 16  1  0  0  0  0
 15 17  2  0  0  0  0
 14 15  1  0  0  0  0
 14 21  2  0  0  0  0
 11 12  1  0  0  0  0
 11 13  1  0  0  0  0
 11 14  1  0  0  0  0
  9 10  1  0  0  0  0
  9 11  1  0  0  0  0
  9 23  1  0  0  0  0
  7  8  1  0  0  0  0
  7  9  1  0  0  0  0
 27 28  1  0  0  0  0
 27 29  1  0  0  0  0
 27 30  1  0  0  0  0
 25 26  1  0  0  0  0
 25 27  1  0  0  0  0
M  CHG  1  15   1
M  END
$$$$
default_name
  -OEChem-02102213163D

 30 30  0     1  0  0  0  0  0999 V2000
   -3.5507   -3.2183    1.8116 H   0  0  0  0  0  0  0  0  0  0  0  0
   -3.4597   -2.3913    1.1076 C   0  0  0  0  0  0  0  0  0  0  0  0
   -4.1577   -1.6043    1.3866 H   0  0  0  0  0  0  0  0  0  0  0  0
   -3.6807   -2.7523    0.1036 H   0  0  0  0  0  0  0  0  0  0  0  0
   -2.0477   -1.8543    1.1546 C   0  0  0  0  0  0  0  0  0  0  0  0
   -1.2227   -2.3443    1.9146 O   0  0  0  0  0  0  0  0  0  0  0  0
   -1.7517   -0.8483    0.3266 N   0  0  0  0  0  0  0  0  0  0  0  0
   -2.4847   -0.5123   -0.2804 H   0  0  0  0  0  0  0  0  0  0  0  0
   -0.4117   -0.2463    0.2186 C   0  0  1  0  0  0  0  0  0  0  0  0
    0.1554   -0.5152    1.1133 H   0  0  0  0  0  0  0  0  0  0  0  0
    0.3164   -0.8780   -0.9905 C   0  0  0  0  0  0  0  0  0  0  0  0
   -0.2460   -0.6423   -1.8976 H   0  0  0  0  0  0  0  0  0  0  0  0
    1.3001   -0.4152   -1.0939 H   0  0  0  0  0  0  0  0  0  0  0  0
    0.5078   -2.3780   -0.9146 C   0  0  0  0  0  0  0  0  0  0  0  0
    1.7262   -3.0290   -0.9274 N   0  3  0  0  0  0  0  0  0  0  0  0
    2.6271   -2.5421   -0.9254 H   0  0  0  0  0  0  0  0  0  0  0  0
    1.5010   -4.3554   -0.8457 C   0  0  0  0  0  0  0  0  0  0  0  0
    2.2706   -5.1242   -0.8214 H   0  0  0  0  0  0  0  0  0  0  0  0
    0.1659   -4.5602   -0.7824 N   0  0  0  0  0  0  0  0  0  0  0  0
   -0.2969   -5.4627   -0.7119 H   0  0  0  0  0  0  0  0  0  0  0  0
   -0.4728   -3.3286   -0.8247 C   0  0  0  0  0  0  0  0  0  0  0  0
   -1.5430   -3.1439   -0.7925 H   0  0  0  0  0  0  0  0  0  0  0  0
   -0.4874    1.2908    0.1962 C   0  0  0  0  0  0  0  0  0  0  0  0
   -1.3116    1.8673   -0.5151 O   0  0  0  0  0  0  0  0  0  0  0  0
    0.3889    1.9422    0.9708 N   0  0  0  0  0  0  0  0  0  0  0  0
    1.0197    1.3866    1.5283 H   0  0  0  0  0  0  0  0  0  0  0  0
    0.5081    3.3999    1.0720 C   0  0  0  0  0  0  0  0  0  0  0  0
    0.0188    3.7538    1.9817 H   0  0  0  0  0  0  0  0  0  0  0  0
    1.5607    3.6858    1.1098 H   0  0  0  0  0  0  0  0  0  0  0  0
    0.0459    3.8890    0.2119 H   0  0  0  0  0  0  0  0  0  0  0  0
  5  6  2  0  0  0  0
  5  7  1  0  0  0  0
  2  3  1  0  0  0  0
  2  4  1  0  0  0  0
  2  5  1  0  0  0  0
  1  2  1  0  0  0  0
 23 24  2  0  0  0  0
 23 25  1  0  0  0  0
 21 22  1  0  0  0  0
 19 20  1  0  0  0  0
 19 21  1  0  0  0  0
 17 18  1  0  0  0  0
 17 19  1  0  0  0  0
 15 16  1  0  0  0  0
 15 17  2  0  0  0  0
 14 15  1  0  0  0  0
 14 21  2  0  0  0  0
 11 12  1  0  0  0  0
 11 13  1  0  0  0  0
 11 14  1  0  0  0  0
  9 10  1  0  0  0  0
  9 11  1  0  0  0  0
  9 23  1  0  0  0  0
  7  8  1  0  0  0  0
  7  9  1  0  0  0  0
 27 28  1  0  0  0  0
 27 29  1  0  0  0  0
 27 30  1  0  0  0  0
 25 26  1  0  0  0  0
 25 27  1  0  0  0  0
M  CHG  1  15   1
M  END
$$$$
default_name
  -OEChem-02102213163D

 30 30  0     1  0  0  0  0  0999 V2000
   -3.5507   -3.2183    1.8116 H   0  0  0  0  0  0  0  0  0  0  0  0
   -3.4597   -2.3913    1.1076 C   0  0  0  0  0  0  0  0  0  0  0  0
   -4.1577   -1.6043    1.3866 H   0  0  0  0  0  0  0  0  0  0  0  0
   -3.6807   -2.7523    0.1036 H   0  0  0  0  0  0  0  0  0  0  0  0
   -2.0477   -1.8543    1.1546 C   0  0  0  0  0  0  0  0  0  0  0  0
   -1.2227   -2.3443    1.9146 O   0  0  0  0  0  0  0  0  0  0  0  0
   -1.7517   -0.8483    0.3266 N   0  0  0  0  0  0  0  0  0  0  0  0
   -2.4847   -0.5123   -0.2804 H   0  0  0  0  0  0  0  0  0  0  0  0
   -0.4117   -0.2463    0.2186 C   0  0  1  0  0  0  0  0  0  0  0  0
    0.1554   -0.5152    1.1133 H   0  0  0  0  0  0  0  0  0  0  0  0
    0.3164   -0.8780   -0.9905 C   0  0  0  0  0  0  0  0  0  0  0  0
   -0.2460   -0.6423   -1.8976 H   0  0  0  0  0  0  0  0  0  0  0  0
    1.3001   -0.4152   -1.0939 H   0  0  0  0  0  0  0  0  0  0  0  0
    0.5078   -2.3780   -0.9146 C   0  0  0  0  0  0  0  0  0  0  0  0
    1.6999   -3.0175   -0.6345 N   0  3  0  0  0  0  0  0  0  0  0  0
    2.5616   -2.5231   -0.3863 H   0  0  0  0  0  0  0  0  0  0  0  0
    1.4841   -4.3478   -0.6545 C   0  0  0  0  0  0  0  0  0  0  0  0
    2.2350   -5.1103   -0.4574 H   0  0  0  0  0  0  0  0  0  0  0  0
    0.1811   -4.5664   -0.9424 N   0  0  0  0  0  0  0  0  0  0  0  0
   -0.2686   -5.4747   -1.0210 H   0  0  0  0  0  0  0  0  0  0  0  0
   -0.4466   -3.3396   -1.1089 C   0  0  0  0  0  0  0  0  0  0  0  0
   -1.4923   -3.1655   -1.3468 H   0  0  0  0  0  0  0  0  0  0  0  0
   -0.4874    1.2908    0.1962 C   0  0  0  0  0  0  0  0  0  0  0  0
   -1.3116    1.8673   -0.5151 O   0  0  0  0  0  0  0  0  0  0  0  0
    0.3889    1.9422    0.9708 N   0  0  0  0  0  0  0  0  0  0  0  0
    1.0197    1.3866    1.5283 H   0  0  0  0  0  0  0  0  0  0  0  0
    0.5081    3.3999    1.0720 C   0  0  0  0  0  0  0  0  0  0  0  0
    0.0188    3.7538    1.9817 H   0  0  0  0  0  0  0  0  0  0  0  0
    1.5607    3.6858    1.1098 H   0  0  0  0  0  0  0  0  0  0  0  0
    0.0459    3.8890    0.2119 H   0  0  0  0  0  0  0  0  0  0  0  0
  5  6  2  0  0  0  0
  5  7  1  0  0  0  0
  2  3  1  0  0  0  0
  2  4  1  0  0  0  0
  2  5  1  0  0  0  0
  1  2  1  0  0  0  0
 23 24  2  0  0  0  0
 23 25  1  0  0  0  0
 21 22  1  0  0  0  0
 19 20  1  0  0  0  0
 19 21  1  0  0  0  0
 17 18  1  0  0  0  0
 17 19  1  0  0  0  0
 15 16  1  0  0  0  0
 15 17  2  0  0  0  0
 14 15  1  0  0  0  0
 14 21  2  0  0  0  0
 11 12  1  0  0  0  0
 11 13  1  0  0  0  0
 11 14  1  0  0  0  0
  9 10  1  0  0  0  0
  9 11  1  0  0  0  0
  9 23  1  0  0  0  0
  7  8  1  0  0  0  0
  7  9  1  0  0  0  0
 27 28  1  0  0  0  0
 27 29  1  0  0  0  0
 27 30  1  0  0  0  0
 25 26  1  0  0  0  0
 25 27  1  0  0  0  0
M  CHG  1  15   1
M  END
$$$$
default_name
  -OEChem-02102213163D

 30 30  0     1  0  0  0  0  0999 V2000
   -3.5507   -3.2183    1.8116 H   0  0  0  0  0  0  0  0  0  0  0  0
   -3.4597   -2.3913    1.1076 C   0  0  0  0  0  0  0  0  0  0  0  0
   -4.1577   -1.6043    1.3866 H   0  0  0  0  0  0  0  0  0  0  0  0
   -3.6807   -2.7523    0.1036 H   0  0  0  0  0  0  0  0  0  0  0  0
   -2.0477   -1.8543    1.1546 C   0  0  0  0  0  0  0  0  0  0  0  0
   -1.2227   -2.3443    1.9146 O   0  0  0  0  0  0  0  0  0  0  0  0
   -1.7517   -0.8483    0.3266 N   0  0  0  0  0  0  0  0  0  0  0  0
   -2.4847   -0.5123   -0.2804 H   0  0  0  0  0  0  0  0  0  0  0  0
   -0.4117   -0.2463    0.2186 C   0  0  1  0  0  0  0  0  0  0  0  0
    0.1554   -0.5152    1.1133 H   0  0  0  0  0  0  0  0  0  0  0  0
    0.3164   -0.8780   -0.9905 C   0  0  0  0  0  0  0  0  0  0  0  0
   -0.2460   -0.6423   -1.8976 H   0  0  0  0  0  0  0  0  0  0  0  0
    1.3001   -0.4152   -1.0939 H   0  0  0  0  0  0  0  0  0  0  0  0
    0.5078   -2.3780   -0.9146 C   0  0  0  0  0  0  0  0  0  0  0  0
    1.5992   -3.0164   -0.3580 N   0  3  0  0  0  0  0  0  0  0  0  0
    2.3599   -2.5233    0.1183 H   0  0  0  0  0  0  0  0  0  0  0  0
    1.4187   -4.3470   -0.4739 C   0  0  0  0  0  0  0  0  0  0  0  0
    2.1071   -5.1092   -0.1145 H   0  0  0  0  0  0  0  0  0  0  0  0
    0.2369   -4.5669   -1.0932 N   0  0  0  0  0  0  0  0  0  0  0  0
   -0.1619   -5.4758   -1.3128 H   0  0  0  0  0  0  0  0  0  0  0  0
   -0.3482   -3.3407   -1.3771 C   0  0  0  0  0  0  0  0  0  0  0  0
   -1.3009   -3.1676   -1.8698 H   0  0  0  0  0  0  0  0  0  0  0  0
   -0.4874    1.2908    0.1962 C   0  0  0  0  0  0  0  0  0  0  0  0
   -1.3116    1.8673   -0.5151 O   0  0  0  0  0  0  0  0  0  0  0  0
    0.3889    1.9422    0.9708 N   0  0  0  0  0  0  0  0  0  0  0  0
    1.0197    1.3866    1.5283 H   0  0  0  0  0  0  0  0  0  0  0  0
    0.5081    3.3999    1.0720 C   0  0  0  0  0  0  0  0  0  0  0  0
    0.0188    3.7538    1.9817 H   0  0  0  0  0  0  0  0  0  0  0  0
    1.5607    3.6858    1.1098 H   0  0  0  0  0  0  0  0  0  0  0  0
    0.0459    3.8890    0.2119 H   0  0  0  0  0  0  0  0  0  0  0  0
  5  6  2  0  0  0  0
  5  7  1  0  0  0  0
  2  3  1  0  0  0  0
  2  4  1  0  0  0  0
  2  5  1  0  0  0  0
  1  2  1  0  0  0  0
 23 24  2  0  0  0  0
 23 25  1  0  0  0  0
 21 22  1  0  0  0  0
 19 20  1  0  0  0  0
 19 21  1  0  0  0  0
 17 18  1  0  0  0  0
 17 19  1  0  0  0  0
 15 16  1  0  0  0  0
 15 17  2  0  0  0  0
 14 15  1  0  0  0  0
 14 21  2  0  0  0  0
 11 12  1  0  0  0  0
 11 13  1  0  0  0  0
 11 14  1  0  0  0  0
  9 10  1  0  0  0  0
  9 11  1  0  0  0  0
  9 23  1  0  0  0  0
  7  8  1  0  0  0  0
  7  9  1  0  0  0  0
 27 28  1  0  0  0  0
 27 29  1  0  0  0  0
 27 30  1  0  0  0  0
 25 26  1  0  0  0  0
 25 27  1  0  0  0  0
M  CHG  1  15   1
M  END
$$$$
default_name
  -OEChem-02102213163D

 30 30  0     1  0  0  0  0  0999 V2000
   -3.5507   -3.2183    1.8116 H   0  0  0  0  0  0  0  0  0  0  0  0
   -3.4597   -2.3913    1.1076 C   0  0  0  0  0  0  0  0  0  0  0  0
   -4.1577   -1.6043    1.3866 H   0  0  0  0  0  0  0  0  0  0  0  0
   -3.6807   -2.7523    0.1036 H   0  0  0  0  0  0  0  0  0  0  0  0
   -2.0477   -1.8543    1.1546 C   0  0  0  0  0  0  0  0  0  0  0  0
   -1.2227   -2.3443    1.9146 O   0  0  0  0  0  0  0  0  0  0  0  0
   -1.7517   -0.8483    0.3266 N   0  0  0  0  0  0  0  0  0  0  0  0
   -2.4847   -0.5123   -0.2804 H   0  0  0  0  0  0  0  0  0  0  0  0
   -0.4117   -0.2463    0.2186 C   0  0  1  0  0  0  0  0  0  0  0  0
    0.1554   -0.5152    1.1133 H   0  0  0  0  0  0  0  0  0  0  0  0
    0.3164   -0.8780   -0.9905 C   0  0  0  0  0  0  0  0  0  0  0  0
   -0.2460   -0.6423   -1.8976 H   0  0  0  0  0  0  0  0  0  0  0  0
    1.3001   -0.4152   -1.0939 H   0  0  0  0  0  0  0  0  0  0  0  0
    0.5078   -2.3780   -0.9146 C   0  0  0  0  0  0  0  0  0  0  0  0
    1.4310   -3.0256   -0.1166 N   0  3  0  0  0  0  0  0  0  0  0  0
    2.0357   -2.5426    0.5540 H   0  0  0  0  0  0  0  0  0  0  0  0
    1.3093   -4.3530   -0.3163 C   0  0  0  0  0  0  0  0  0  0  0  0
    1.8956   -5.1211    0.1840 H   0  0  0  0  0  0  0  0  0  0  0  0
    0.3295   -4.5617   -1.2246 N   0  0  0  0  0  0  0  0  0  0  0  0
    0.0160   -5.4660   -1.5672 H   0  0  0  0  0  0  0  0  0  0  0  0
   -0.1844   -3.3316   -1.6109 C   0  0  0  0  0  0  0  0  0  0  0  0
   -0.9819   -3.1500   -2.3260 H   0  0  0  0  0  0  0  0  0  0  0  0
   -0.4874    1.2908    0.1962 C   0  0  0  0  0  0  0  0  0  0  0  0
   -1.3116    1.8673   -0.5151 O   0  0  0  0  0  0  0  0  0  0  0  0
    0.3889    1.9422    0.9708 N   0  0  0  0  0  0  0  0  0  0  0  0
    1.0197    1.3866    1.5283 H   0  0  0  0  0  0  0  0  0  0  0  0
    0.5081    3.3999    1.0720 C   0  0  0  0  0  0  0  0  0  0  0  0
    0.0188    3.7538    1.9817 H   0  0  0  0  0  0  0  0  0  0  0  0
    1.5607    3.6858    1.1098 H   0  0  0  0  0  0  0  0  0  0  0  0
    0.0459    3.8890    0.2119 H   0  0  0  0  0  0  0  0  0  0  0  0
  5  6  2  0  0  0  0
  5  7  1  0  0  0  0
  2  3  1  0  0  0  0
  2  4  1  0  0  0  0
  2  5  1  0  0  0  0
  1  2  1  0  0  0  0
 23 24  2  0  0  0  0
 23 25  1  0  0  0  0
 21 22  1  0  0  0  0
 19 20  1  0  0  0  0
 19 21  1  0  0  0  0
 17 18  1  0  0  0  0
 17 19  1  0  0  0  0
 15 16  1  0  0  0  0
 15 17  2  0  0  0  0
 14 15  1  0  0  0  0
 14 21  2  0  0  0  0
 11 12  1  0  0  0  0
 11 13  1  0  0  0  0
 11 14  1  0  0  0  0
  9 10  1  0  0  0  0
  9 11  1  0  0  0  0
  9 23  1  0  0  0  0
  7  8  1  0  0  0  0
  7  9  1  0  0  0  0
 27 28  1  0  0  0  0
 27 29  1  0  0  0  0
 27 30  1  0  0  0  0
 25 26  1  0  0  0  0
 25 27  1  0  0  0  0
M  CHG  1  15   1
M  END
$$$$
default_name
  -OEChem-02102213163D

 30 30  0     1  0  0  0  0  0999 V2000
   -3.5507   -3.2183    1.8116 H   0  0  0  0  0  0  0  0  0  0  0  0
   -3.4597   -2.3913    1.1076 C   0  0  0  0  0  0  0  0  0  0  0  0
   -4.1577   -1.6043    1.3866 H   0  0  0  0  0  0  0  0  0  0  0  0
   -3.6807   -2.7523    0.1036 H   0  0  0  0  0  0  0  0  0  0  0  0
   -2.0477   -1.8543    1.1546 C   0  0  0  0  0  0  0  0  0  0  0  0
   -1.2227   -2.3443    1.9146 O   0  0  0  0  0  0  0  0  0  0  0  0
   -1.7517   -0.8483    0.3266 N   0  0  0  0  0  0  0  0  0  0  0  0
   -2.4847   -0.5123   -0.2804 H   0  0  0  0  0  0  0  0  0  0  0  0
   -0.4117   -0.2463    0.2186 C   0  0  1  0  0  0  0  0  0  0  0  0
    0.1554   -0.5152    1.1133 H   0  0  0  0  0  0  0  0  0  0  0  0
    0.3164   -0.8780   -0.9905 C   0  0  0  0  0  0  0  0  0  0  0  0
   -0.2460   -0.6423   -1.8976 H   0  0  0  0  0  0  0  0  0  0  0  0
    1.3001   -0.4152   -1.0939 H   0  0  0  0  0  0  0  0  0  0  0  0
    0.5078   -2.3780   -0.9146 C   0  0  0  0  0  0  0  0  0  0  0  0
    1.2068   -3.0446    0.0730 N   0  3  0  0  0  0  0  0  0  0  0  0
    1.6110   -2.5798    0.8911 H   0  0  0  0  0  0  0  0  0  0  0  0
    1.1632   -4.3654   -0.1922 C   0  0  0  0  0  0  0  0  0  0  0  0
    1.6150   -5.1451    0.4176 H   0  0  0  0  0  0  0  0  0  0  0  0
    0.4526   -4.5512   -1.3276 N   0  0  0  0  0  0  0  0  0  0  0  0
    0.2530   -5.4459   -1.7671 H   0  0  0  0  0  0  0  0  0  0  0  0
    0.0337   -3.3131   -1.7945 C   0  0  0  0  0  0  0  0  0  0  0  0
   -0.5571   -3.1139   -2.6843 H   0  0  0  0  0  0  0  0  0  0  0  0
   -0.4874    1.2908    0.1962 C   0  0  0  0  0  0  0  0  0  0  0  0
   -1.3116    1.8673   -0.5151 O   0  0  0  0  0  0  0  0  0  0  0  0
    0.3889    1.9422    0.9708 N   0  0  0  0  0  0  0  0  0  0  0  0
    1.0197    1.3866    1.5283 H   0  0  0  0  0  0  0  0  0  0  0  0
    0.5081    3.3999    1.0720 C   0  0  0  0  0  0  0  0  0  0  0  0
    0.0188    3.7538    1.9817 H   0  0  0  0  0  0  0  0  0  0  0  0
    1.5607    3.6858    1.1098 H   0  0  0  0  0  0  0  0  0  0  0  0
    0.0459    3.8890    0.2119 H   0  0  0  0  0  0  0  0  0  0  0  0
  5  6  2  0  0  0  0
  5  7  1  0  0  0  0
  2  3  1  0  0  0  0
  2  4  1  0  0  0  0
  2  5  1  0  0  0  0
  1  2  1  0  0  0  0
 23 24  2  0  0  0  0
 23 25  1  0  0  0  0
 21 22  1  0  0  0  0
 19 20  1  0  0  0  0
 19 21  1  0  0  0  0
 17 18  1  0  0  0  0
 17 19  1  0  0  0  0
 15 16  1  0  0  0  0
 15 17  2  0  0  0  0
 14 15  1  0  0  0  0
 14 21  2  0  0  0  0
 11 12  1  0  0  0  0
 11 13  1  0  0  0  0
 11 14  1  0  0  0  0
  9 10  1  0  0  0  0
  9 11  1  0  0  0  0
  9 23  1  0  0  0  0
  7  8  1  0  0  0  0
  7  9  1  0  0  0  0
 27 28  1  0  0  0  0
 27 29  1  0  0  0  0
 27 30  1  0  0  0  0
 25 26  1  0  0  0  0
 25 27  1  0  0  0  0
M  CHG  1  15   1
M  END
$$$$
default_name
  -OEChem-02102213163D

 30 30  0     1  0  0  0  0  0999 V2000
   -3.5507   -3.2183    1.8116 H   0  0  0  0  0  0  0  0  0  0  0  0
   -3.4597   -2.3913    1.1076 C   0  0  0  0  0  0  0  0  0  0  0  0
   -4.1577   -1.6043    1.3866 H   0  0  0  0  0  0  0  0  0  0  0  0
   -3.6807   -2.7523    0.1036 H   0  0  0  0  0  0  0  0  0  0  0  0
   -2.0477   -1.8543    1.1546 C   0  0  0  0  0  0  0  0  0  0  0  0
   -1.2227   -2.3443    1.9146 O   0  0  0  0  0  0  0  0  0  0  0  0
   -1.7517   -0.8483    0.3266 N   0  0  0  0  0  0  0  0  0  0  0  0
   -2.4847   -0.5123   -0.2804 H   0  0  0  0  0  0  0  0  0  0  0  0
   -0.4117   -0.2463    0.2186 C   0  0  1  0  0  0  0  0  0  0  0  0
    0.1554   -0.5152    1.1133 H   0  0  0  0  0  0  0  0  0  0  0  0
    0.3164   -0.8780   -0.9905 C   0  0  0  0  0  0  0  0  0  0  0  0
   -0.2460   -0.6423   -1.8976 H   0  0  0  0  0  0  0  0  0  0  0  0
    1.3001   -0.4152   -1.0939 H   0  0  0  0  0  0  0  0  0  0  0  0
    0.5078   -2.3780   -0.9146 C   0  0  0  0  0  0  0  0  0  0  0  0
    0.9418   -3.0721    0.1982 N   0  3  0  0  0  0  0  0  0  0  0  0
    1.1149   -2.6322    1.1066 H   0  0  0  0  0  0  0  0  0  0  0  0
    0.9904   -4.3833   -0.1103 C   0  0  0  0  0  0  0  0  0  0  0  0
    1.2843   -5.1796    0.5706 H   0  0  0  0  0  0  0  0  0  0  0  0
    0.5977   -4.5361   -1.3952 N   0  0  0  0  0  0  0  0  0  0  0  0
    0.5328   -5.4168   -1.8988 H   0  0  0  0  0  0  0  0  0  0  0  0
    0.2911   -3.2863   -1.9153 C   0  0  0  0  0  0  0  0  0  0  0  0
   -0.0553   -3.0618   -2.9203 H   0  0  0  0  0  0  0  0  0  0  0  0
   -0.4874    1.2908    0.1962 C   0  0  0  0  0  0  0  0  0  0  0  0
   -1.3116    1.8673   -0.5151 O   0  0  0  0  0  0  0  0  0  0  0  0
    0.3889    1.9422    0.9708 N   0  0  0  0  0  0  0  0  0  0  0  0
    1.0197    1.3866    1.5283 H   0  0  0  0  0  0  0  0  0  0  0  0
    0.5081    3.3999    1.0720 C   0  0  0  0  0  0  0  0  0  0  0  0
    0.0188    3.7538    1.9817 H   0  0  0  0  0  0  0  0  0  0  0  0
    1.5607    3.6858    1.1098 H   0  0  0  0  0  0  0  0  0  0  0  0
    0.0459    3.8890    0.2119 H   0  0  0  0  0  0  0  0  0  0  0  0
  5  6  2  0  0  0  0
  5  7  1  0  0  0  0
  2  3  1  0  0  0  0
  2  4  1  0  0  0  0
  2  5  1  0  0  0  0
  1  2  1  0  0  0  0
 23 24  2  0  0  0  0
 23 25  1  0  0  0  0
 21 22  1  0  0  0  0
 19 20  1  0  0  0  0
 19 21  1  0  0  0  0
 17 18  1  0  0  0  0
 17 19  1  0  0  0  0
 15 16  1  0  0  0  0
 15 17  2  0  0  0  0
 14 15  1  0  0  0  0
 14 21  2  0  0  0  0
 11 12  1  0  0  0  0
 11 13  1  0  0  0  0
 11 14  1  0  0  0  0
  9 10  1  0  0  0  0
  9 11  1  0  0  0  0
  9 23  1  0  0  0  0
  7  8  1  0  0  0  0
  7  9  1  0  0  0  0
 27 28  1  0  0  0  0
 27 29  1  0  0  0  0
 27 30  1  0  0  0  0
 25 26  1  0  0  0  0
 25 27  1  0  0  0  0
M  CHG  1  15   1
M  END
$$$$
default_name
  -OEChem-02102213163D

 30 30  0     1  0  0  0  0  0999 V2000
   -3.5507   -3.2183    1.8116 H   0  0  0  0  0  0  0  0  0  0  0  0
   -3.4597   -2.3913    1.1076 C   0  0  0  0  0  0  0  0  0  0  0  0
   -4.1577   -1.6043    1.3866 H   0  0  0  0  0  0  0  0  0  0  0  0
   -3.6807   -2.7523    0.1036 H   0  0  0  0  0  0  0  0  0  0  0  0
   -2.0477   -1.8543    1.1546 C   0  0  0  0  0  0  0  0  0  0  0  0
   -1.2227   -2.3443    1.9146 O   0  0  0  0  0  0  0  0  0  0  0  0
   -1.7517   -0.8483    0.3266 N   0  0  0  0  0  0  0  0  0  0  0  0
   -2.4847   -0.5123   -0.2804 H   0  0  0  0  0  0  0  0  0  0  0  0
   -0.4117   -0.2463    0.2186 C   0  0  1  0  0  0  0  0  0  0  0  0
    0.1554   -0.5152    1.1133 H   0  0  0  0  0  0  0  0  0  0  0  0
    0.3164   -0.8780   -0.9905 C   0  0  0  0  0  0  0  0  0  0  0  0
   -0.2460   -0.6423   -1.8976 H   0  0  0  0  0  0  0  0  0  0  0  0
    1.3001   -0.4152   -1.0939 H   0  0  0  0  0  0  0  0  0  0  0  0
    0.5078   -2.3780   -0.9146 C   0  0  0  0  0  0  0  0  0  0  0  0
    0.6541   -3.1062    0.2502 N   0  3  0  0  0  0  0  0  0  0  0  0
    0.5811   -2.6963    1.1858 H   0  0  0  0  0  0  0  0  0  0  0  0
    0.8027   -4.4055   -0.0760 C   0  0  0  0  0  0  0  0  0  0  0  0
    0.9260   -5.2222    0.6324 H   0  0  0  0  0  0  0  0  0  0  0  0
    0.7550   -4.5174   -1.4227 N   0  0  0  0  0  0  0  0  0  0  0  0
    0.8366   -5.3808   -1.9532 H   0  0  0  0  0  0  0  0  0  0  0  0
    0.5704   -3.2532   -1.9651 C   0  0  0  0  0  0  0  0  0  0  0  0
    0.4893   -2.9972   -3.0179 H   0  0  0  0  0  0  0  0  0  0  0  0
   -0.4874    1.2908    0.1962 C   0  0  0  0  0  0  0  0  0  0  0  0
   -1.3116    1.8673   -0.5151 O   0  0  0  0  0  0  0  0  0  0  0  0
    0.3889    1.9422    0.9708 N   0  0  0  0  0  0  0  0  0  0  0  0
    1.0197    1.3866    1.5283 H   0  0  0  0  0  0  0  0  0  0  0  0
    0.5081    3.3999    1.0720 C   0  0  0  0  0  0  0  0  0  0  0  0
    0.0188    3.7538    1.9817 H   0  0  0  0  0  0  0  0  0  0  0  0
    1.5607    3.6858    1.1098 H   0  0  0  0  0  0  0  0  0  0  0  0
    0.0459    3.8890    0.2119 H   0  0  0  0  0  0  0  0  0  0  0  0
  5  6  2  0  0  0  0
  5  7  1  0  0  0  0
  2  3  1  0  0  0  0
  2  4  1  0  0  0  0
  2  5  1  0  0  0  0
  1  2  1  0  0  0  0
 23 24  2  0  0  0  0
 23 25  1  0  0  0  0
 21 22  1  0  0  0  0
 19 20  1  0  0  0  0
 19 21  1  0  0  0  0
 17 18  1  0  0  0  0
 17 19  1  0  0  0  0
 15 16  1  0  0  0  0
 15 17  2  0  0  0  0
 14 15  1  0  0  0  0
 14 21  2  0  0  0  0
 11 12  1  0  0  0  0
 11 13  1  0  0  0  0
 11 14  1  0  0  0  0
  9 10  1  0  0  0  0
  9 11  1  0  0  0  0
  9 23  1  0  0  0  0
  7  8  1  0  0  0  0
  7  9  1  0  0  0  0
 27 28  1  0  0  0  0
 27 29  1  0  0  0  0
 27 30  1  0  0  0  0
 25 26  1  0  0  0  0
 25 27  1  0  0  0  0
M  CHG  1  15   1
M  END
$$$$
default_name
  -OEChem-02102213163D

 30 30  0     1  0  0  0  0  0999 V2000
   -3.5507   -3.2183    1.8116 H   0  0  0  0  0  0  0  0  0  0  0  0
   -3.4597   -2.3913    1.1076 C   0  0  0  0  0  0  0  0  0  0  0  0
   -4.1577   -1.6043    1.3866 H   0  0  0  0  0  0  0  0  0  0  0  0
   -3.6807   -2.7523    0.1036 H   0  0  0  0  0  0  0  0  0  0  0  0
   -2.0477   -1.8543    1.1546 C   0  0  0  0  0  0  0  0  0  0  0  0
   -1.2227   -2.3443    1.9146 O   0  0  0  0  0  0  0  0  0  0  0  0
   -1.7517   -0.8483    0.3266 N   0  0  0  0  0  0  0  0  0  0  0  0
   -2.4847   -0.5123   -0.2804 H   0  0  0  0  0  0  0  0  0  0  0  0
   -0.4117   -0.2463    0.2186 C   0  0  1  0  0  0  0  0  0  0  0  0
    0.1554   -0.5152    1.1133 H   0  0  0  0  0  0  0  0  0  0  0  0
    0.3164   -0.8780   -0.9905 C   0  0  0  0  0  0  0  0  0  0  0  0
   -0.2460   -0.6423   -1.8976 H   0  0  0  0  0  0  0  0  0  0  0  0
    1.3001   -0.4152   -1.0939 H   0  0  0  0  0  0  0  0  0  0  0  0
    0.5078   -2.3780   -0.9146 C   0  0  0  0  0  0  0  0  0  0  0  0
    0.3634   -3.1446    0.2255 N   0  3  0  0  0  0  0  0  0  0  0  0
    0.0460   -2.7678    1.1233 H   0  0  0  0  0  0  0  0  0  0  0  0
    0.6130   -4.4305   -0.0918 C   0  0  0  0  0  0  0  0  0  0  0  0
    0.5647   -5.2700    0.5989 H   0  0  0  0  0  0  0  0  0  0  0  0
    0.9138   -4.4964   -1.4084 N   0  0  0  0  0  0  0  0  0  0  0  0
    1.1434   -5.3403   -1.9267 H   0  0  0  0  0  0  0  0  0  0  0  0
    0.8526   -3.2159   -1.9405 C   0  0  0  0  0  0  0  0  0  0  0  0
    1.0394   -2.9246   -2.9704 H   0  0  0  0  0  0  0  0  0  0  0  0
   -0.4874    1.2908    0.1962 C   0  0  0  0  0  0  0  0  0  0  0  0
   -1.3116    1.8673   -0.5151 O   0  0  0  0  0  0  0  0  0  0  0  0
    0.3889    1.9422    0.9708 N   0  0  0  0  0  0  0  0  0  0  0  0
    1.0197    1.3866    1.5283 H   0  0  0  0  0  0  0  0  0  0  0  0
    0.5081    3.3999    1.0720 C   0  0  0  0  0  0  0  0  0  0  0  0
    0.0188    3.7538    1.9817 H   0  0  0  0  0  0  0  0  0  0  0  0
    1.5607    3.6858    1.1098 H   0  0  0  0  0  0  0  0  0  0  0  0
    0.0459    3.8890    0.2119 H   0  0  0  0  0  0  0  0  0  0  0  0
  5  6  2  0  0  0  0
  5  7  1  0  0  0  0
  2  3  1  0  0  0  0
  2  4  1  0  0  0  0
  2  5  1  0  0  0  0
  1  2  1  0  0  0  0
 23 24  2  0  0  0  0
 23 25  1  0  0  0  0
 21 22  1  0  0  0  0
 19 20  1  0  0  0  0
 19 21  1  0  0  0  0
 17 18  1  0  0  0  0
 17 19  1  0  0  0  0
 15 16  1  0  0  0  0
 15 17  2  0  0  0  0
 14 15  1  0  0  0  0
 14 21  2  0  0  0  0
 11 12  1  0  0  0  0
 11 13  1  0  0  0  0
 11 14  1  0  0  0  0
  9 10  1  0  0  0  0
  9 11  1  0  0  0  0
  9 23  1  0  0  0  0
  7  8  1  0  0  0  0
  7  9  1  0  0  0  0
 27 28  1  0  0  0  0
 27 29  1  0  0  0  0
 27 30  1  0  0  0  0
 25 26  1  0  0  0  0
 25 27  1  0  0  0  0
M  CHG  1  15   1
M  END
$$$$
default_name
  -OEChem-02102213163D

 30 30  0     1  0  0  0  0  0999 V2000
   -3.5507   -3.2183    1.8116 H   0  0  0  0  0  0  0  0  0  0  0  0
   -3.4597   -2.3913    1.1076 C   0  0  0  0  0  0  0  0  0  0  0  0
   -4.1577   -1.6043    1.3866 H   0  0  0  0  0  0  0  0  0  0  0  0
   -3.6807   -2.7523    0.1036 H   0  0  0  0  0  0  0  0  0  0  0  0
   -2.0477   -1.8543    1.1546 C   0  0  0  0  0  0  0  0  0  0  0  0
   -1.2227   -2.3443    1.9146 O   0  0  0  0  0  0  0  0  0  0  0  0
   -1.7517   -0.8483    0.3266 N   0  0  0  0  0  0  0  0  0  0  0  0
   -2.4847   -0.5123   -0.2804 H   0  0  0  0  0  0  0  0  0  0  0  0
   -0.4117   -0.2463    0.2186 C   0  0  1  0  0  0  0  0  0  0  0  0
    0.1554   -0.5152    1.1133 H   0  0  0  0  0  0  0  0  0  0  0  0
    0.3164   -0.8780   -0.9905 C   0  0  0  0  0  0  0  0  0  0  0  0
   -0.2460   -0.6423   -1.8976 H   0  0  0  0  0  0  0  0  0  0  0  0
    1.3001   -0.4152   -1.0939 H   0  0  0  0  0  0  0  0  0  0  0  0
    0.5078   -2.3780   -0.9146 C   0  0  0  0  0  0  0  0  0  0  0  0
    0.0893   -3.1846    0.1259 N   0  3  0  0  0  0  0  0  0  0  0  0
   -0.4539   -2.8417    0.9234 H   0  0  0  0  0  0  0  0  0  0  0  0
    0.4341   -4.4566   -0.1565 C   0  0  0  0  0  0  0  0  0  0  0  0
    0.2250   -5.3198    0.4723 H   0  0  0  0  0  0  0  0  0  0  0  0
    1.0633   -4.4746   -1.3532 N   0  0  0  0  0  0  0  0  0  0  0  0
    1.4325   -5.2981   -1.8212 H   0  0  0  0  0  0  0  0  0  0  0  0
    1.1183   -3.1771   -1.8432 C   0  0  0  0  0  0  0  0  0  0  0  0
    1.5577   -2.8488   -2.7810 H   0  0  0  0  0  0  0  0  0  0  0  0
   -0.4874    1.2908    0.1962 C   0  0  0  0  0  0  0  0  0  0  0  0
   -1.3116    1.8673   -0.5151 O   0  0  0  0  0  0  0  0  0  0  0  0
    0.3889    1.9422    0.9708 N   0  0  0  0  0  0  0  0  0  0  0  0
    1.0197    1.3866    1.5283 H   0  0  0  0  0  0  0  0  0  0  0  0
    0.5081    3.3999    1.0720 C   0  0  0  0  0  0  0  0  0  0  0  0
    0.0188    3.7538    1.9817 H   0  0  0  0  0  0  0  0  0  0  0  0
    1.5607    3.6858    1.1098 H   0  0  0  0  0  0  0  0  0  0  0  0
    0.0459    3.8890    0.2119 H   0  0  0  0  0  0  0  0  0  0  0  0
  5  6  2  0  0  0  0
  5  7  1  0  0  0  0
  2  3  1  0  0  0  0
  2  4  1  0  0  0  0
  2  5  1  0  0  0  0
  1  2  1  0  0  0  0
 23 24  2  0  0  0  0
 23 25  1  0  0  0  0
 21 22  1  0  0  0  0
 19 20  1  0  0  0  0
 19 21  1  0  0  0  0
 17 18  1  0  0  0  0
 17 19  1  0  0  0  0
 15 16  1  0  0  0  0
 15 17  2  0  0  0  0
 14 15  1  0  0  0  0
 14 21  2  0  0  0  0
 11 12  1  0  0  0  0
 11 13  1  0  0  0  0
 11 14  1  0  0  0  0
  9 10  1  0  0  0  0
  9 11  1  0  0  0  0
  9 23  1  0  0  0  0
  7  8  1  0  0  0  0
  7  9  1  0  0  0  0
 27 28  1  0  0  0  0
 27 29  1  0  0  0  0
 27 30  1  0  0  0  0
 25 26  1  0  0  0  0
 25 27  1  0  0  0  0
M  CHG  1  15   1
M  END
$$$$
default_name
  -OEChem-02102213163D

 30 30  0     1  0  0  0  0  0999 V2000
   -3.5507   -3.2183    1.8116 H   0  0  0  0  0  0  0  0  0  0  0  0
   -3.4597   -2.3913    1.1076 C   0  0  0  0  0  0  0  0  0  0  0  0
   -4.1577   -1.6043    1.3866 H   0  0  0  0  0  0  0  0  0  0  0  0
   -3.6807   -2.7523    0.1036 H   0  0  0  0  0  0  0  0  0  0  0  0
   -2.0477   -1.8543    1.1546 C   0  0  0  0  0  0  0  0  0  0  0  0
   -1.2227   -2.3443    1.9146 O   0  0  0  0  0  0  0  0  0  0  0  0
   -1.7517   -0.8483    0.3266 N   0  0  0  0  0  0  0  0  0  0  0  0
   -2.4847   -0.5123   -0.2804 H   0  0  0  0  0  0  0  0  0  0  0  0
   -0.4117   -0.2463    0.2186 C   0  0  1  0  0  0  0  0  0  0  0  0
    0.1554   -0.5152    1.1133 H   0  0  0  0  0  0  0  0  0  0  0  0
    0.3164   -0.8780   -0.9905 C   0  0  0  0  0  0  0  0  0  0  0  0
   -0.2460   -0.6423   -1.8976 H   0  0  0  0  0  0  0  0  0  0  0  0
    1.3001   -0.4152   -1.0939 H   0  0  0  0  0  0  0  0  0  0  0  0
    0.5078   -2.3780   -0.9146 C   0  0  0  0  0  0  0  0  0  0  0  0
   -0.1493   -3.2235   -0.0419 N   0  3  0  0  0  0  0  0  0  0  0  0
   -0.8845   -2.9131    0.5998 H   0  0  0  0  0  0  0  0  0  0  0  0
    0.2782   -4.4821   -0.2657 C   0  0  0  0  0  0  0  0  0  0  0  0
   -0.0701   -5.3681    0.2613 H   0  0  0  0  0  0  0  0  0  0  0  0
    1.1932   -4.4533   -1.2608 N   0  0  0  0  0  0  0  0  0  0  0  0
    1.6841   -5.2570   -1.6437 H   0  0  0  0  0  0  0  0  0  0  0  0
    1.3495   -3.1393   -1.6797 C   0  0  0  0  0  0  0  0  0  0  0  0
    2.0088   -2.7751   -2.4628 H   0  0  0  0  0  0  0  0  0  0  0  0
   -0.4874    1.2908    0.1962 C   0  0  0  0  0  0  0  0  0  0  0  0
   -1.3116    1.8673   -0.5151 O   0  0  0  0  0  0  0  0  0  0  0  0
    0.3889    1.9422    0.9708 N   0  0  0  0  0  0  0  0  0  0  0  0
    1.0197    1.3866    1.5283 H   0  0  0  0  0  0  0  0  0  0  0  0
    0.5081    3.3999    1.0720 C   0  0  0  0  0  0  0  0  0  0  0  0
    0.0188    3.7538    1.9817 H   0  0  0  0  0  0  0  0  0  0  0  0
    1.5607    3.6858    1.1098 H   0  0  0  0  0  0  0  0  0  0  0  0
    0.0459    3.8890    0.2119 H   0  0  0  0  0  0  0  0  0  0  0  0
  5  6  2  0  0  0  0
  5  7  1  0  0  0  0
  2  3  1  0  0  0  0
  2  4  1  0  0  0  0
  2  5  1  0  0  0  0
  1  2  1  0  0  0  0
 23 24  2  0  0  0  0
 23 25  1  0  0  0  0
 21 22  1  0  0  0  0
 19 20  1  0  0  0  0
 19 21  1  0  0  0  0
 17 18  1  0  0  0  0
 17 19  1  0  0  0  0
 15 16  1  0  0  0  0
 15 17  2  0  0  0  0
 14 15  1  0  0  0  0
 14 21  2  0  0  0  0
 11 12  1  0  0  0  0
 11 13  1  0  0  0  0
 11 14  1  0  0  0  0
  9 10  1  0  0  0  0
  9 11  1  0  0  0  0
  9 23  1  0  0  0  0
  7  8  1  0  0  0  0
  7  9  1  0  0  0  0
 27 28  1  0  0  0  0
 27 29  1  0  0  0  0
 27 30  1  0  0  0  0
 25 26  1  0  0  0  0
 25 27  1  0  0  0  0
M  CHG  1  15   1
M  END
$$$$
default_name
  -OEChem-02102213163D

 30 30  0     1  0  0  0  0  0999 V2000
   -3.5507   -3.2183    1.8116 H   0  0  0  0  0  0  0  0  0  0  0  0
   -3.4597   -2.3913    1.1076 C   0  0  0  0  0  0  0  0  0  0  0  0
   -4.1577   -1.6043    1.3866 H   0  0  0  0  0  0  0  0  0  0  0  0
   -3.6807   -2.7523    0.1036 H   0  0  0  0  0  0  0  0  0  0  0  0
   -2.0477   -1.8543    1.1546 C   0  0  0  0  0  0  0  0  0  0  0  0
   -1.2227   -2.3443    1.9146 O   0  0  0  0  0  0  0  0  0  0  0  0
   -1.7517   -0.8483    0.3266 N   0  0  0  0  0  0  0  0  0  0  0  0
   -2.4847   -0.5123   -0.2804 H   0  0  0  0  0  0  0  0  0  0  0  0
   -0.4117   -0.2463    0.2186 C   0  0  1  0  0  0  0  0  0  0  0  0
    0.1554   -0.5152    1.1133 H   0  0  0  0  0  0  0  0  0  0  0  0
    0.3164   -0.8780   -0.9905 C   0  0  0  0  0  0  0  0  0  0  0  0
   -0.2460   -0.6423   -1.8976 H   0  0  0  0  0  0  0  0  0  0  0  0
    1.3001   -0.4152   -1.0939 H   0  0  0  0  0  0  0  0  0  0  0  0
    0.5078   -2.3780   -0.9146 C   0  0  0  0  0  0  0  0  0  0  0  0
   -0.3362   -3.2588   -0.2664 N   0  3  0  0  0  0  0  0  0  0  0  0
   -1.2166   -2.9770    0.1744 H   0  0  0  0  0  0  0  0  0  0  0  0
    0.1559   -4.5051   -0.4120 C   0  0  0  0  0  0  0  0  0  0  0  0
   -0.3004   -5.4117   -0.0198 H   0  0  0  0  0  0  0  0  0  0  0  0
    1.2947   -4.4341   -1.1376 N   0  0  0  0  0  0  0  0  0  0  0  0
    1.8811   -5.2198   -1.4064 H   0  0  0  0  0  0  0  0  0  0  0  0
    1.5304   -3.1052   -1.4614 C   0  0  0  0  0  0  0  0  0  0  0  0
    2.3620   -2.7085   -2.0373 H   0  0  0  0  0  0  0  0  0  0  0  0
   -0.4874    1.2908    0.1962 C   0  0  0  0  0  0  0  0  0  0  0  0
   -1.3116    1.8673   -0.5151 O   0  0  0  0  0  0  0  0  0  0  0  0
    0.3889    1.9422    0.9708 N   0  0  0  0  0  0  0  0  0  0  0  0
    1.0197    1.3866    1.5283 H   0  0  0  0  0  0  0  0  0  0  0  0
    0.5081    3.3999    1.0720 C   0  0  0  0  0  0  0  0  0  0  0  0
    0.0188    3.7538    1.9817 H   0  0  0  0  0  0  0  0  0  0  0  0
    1.5607    3.6858    1.1098 H   0  0  0  0  0  0  0  0  0  0  0  0
    0.0459    3.8890    0.2119 H   0  0  0  0  0  0  0  0  0  0  0  0
  5  6  2  0  0  0  0
  5  7  1  0  0  0  0
  2  3  1  0  0  0  0
  2  4  1  0  0  0  0
  2  5  1  0  0  0  0
  1  2  1  0  0  0  0
 23 24  2  0  0  0  0
 23 25  1  0  0  0  0
 21 22  1  0  0  0  0
 19 20  1  0  0  0  0
 19 21  1  0  0  0  0
 17 18  1  0  0  0  0
 17 19  1  0  0  0  0
 15 16  1  0  0  0  0
 15 17  2  0  0  0  0
 14 15  1  0  0  0  0
 14 21  2  0  0  0  0
 11 12  1  0  0  0  0
 11 13  1  0  0  0  0
 11 14  1  0  0  0  0
  9 10  1  0  0  0  0
  9 11  1  0  0  0  0
  9 23  1  0  0  0  0
  7  8  1  0  0  0  0
  7  9  1  0  0  0  0
 27 28  1  0  0  0  0
 27 29  1  0  0  0  0
 27 30  1  0  0  0  0
 25 26  1  0  0  0  0
 25 27  1  0  0  0  0
M  CHG  1  15   1
M  END
$$$$
default_name
  -OEChem-02102213163D

 30 30  0     1  0  0  0  0  0999 V2000
   -3.5507   -3.2183    1.8116 H   0  0  0  0  0  0  0  0  0  0  0  0
   -3.4597   -2.3913    1.1076 C   0  0  0  0  0  0  0  0  0  0  0  0
   -4.1577   -1.6043    1.3866 H   0  0  0  0  0  0  0  0  0  0  0  0
   -3.6807   -2.7523    0.1036 H   0  0  0  0  0  0  0  0  0  0  0  0
   -2.0477   -1.8543    1.1546 C   0  0  0  0  0  0  0  0  0  0  0  0
   -1.2227   -2.3443    1.9146 O   0  0  0  0  0  0  0  0  0  0  0  0
   -1.7517   -0.8483    0.3266 N   0  0  0  0  0  0  0  0  0  0  0  0
   -2.4847   -0.5123   -0.2804 H   0  0  0  0  0  0  0  0  0  0  0  0
   -0.4117   -0.2463    0.2186 C   0  0  1  0  0  0  0  0  0  0  0  0
    0.1554   -0.5152    1.1133 H   0  0  0  0  0  0  0  0  0  0  0  0
    0.3164   -0.8780   -0.9905 C   0  0  0  0  0  0  0  0  0  0  0  0
   -0.2460   -0.6423   -1.8976 H   0  0  0  0  0  0  0  0  0  0  0  0
    1.3001   -0.4152   -1.0939 H   0  0  0  0  0  0  0  0  0  0  0  0
    0.5078   -2.3780   -0.9146 C   0  0  0  0  0  0  0  0  0  0  0  0
   -0.4588   -3.2879   -0.5324 N   0  3  0  0  0  0  0  0  0  0  0  0
   -1.4274   -3.0291   -0.3238 H   0  0  0  0  0  0  0  0  0  0  0  0
    0.0756   -4.5241   -0.5854 C   0  0  0  0  0  0  0  0  0  0  0  0
   -0.4502   -5.4477   -0.3518 H   0  0  0  0  0  0  0  0  0  0  0  0
    1.3609   -4.4183   -0.9919 N   0  0  0  0  0  0  0  0  0  0  0  0
    2.0101   -5.1891   -1.1254 H   0  0  0  0  0  0  0  0  0  0  0  0
    1.6488   -3.0770   -1.2029 C   0  0  0  0  0  0  0  0  0  0  0  0
    2.5931   -2.6535   -1.5336 H   0  0  0  0  0  0  0  0  0  0  0  0
   -0.4874    1.2908    0.1962 C   0  0  0  0  0  0  0  0  0  0  0  0
   -1.3116    1.8673   -0.5151 O   0  0  0  0  0  0  0  0  0  0  0  0
    0.3889    1.9422    0.9708 N   0  0  0  0  0  0  0  0  0  0  0  0
    1.0197    1.3866    1.5283 H   0  0  0  0  0  0  0  0  0  0  0  0
    0.5081    3.3999    1.0720 C   0  0  0  0  0  0  0  0  0  0  0  0
    0.0188    3.7538    1.9817 H   0  0  0  0  0  0  0  0  0  0  0  0
    1.5607    3.6858    1.1098 H   0  0  0  0  0  0  0  0  0  0  0  0
    0.0459    3.8890    0.2119 H   0  0  0  0  0  0  0  0  0  0  0  0
  5  6  2  0  0  0  0
  5  7  1  0  0  0  0
  2  3  1  0  0  0  0
  2  4  1  0  0  0  0
  2  5  1  0  0  0  0
  1  2  1  0  0  0  0
 23 24  2  0  0  0  0
 23 25  1  0  0  0  0
 21 22  1  0  0  0  0
 19 20  1  0  0  0  0
 19 21  1  0  0  0  0
 17 18  1  0  0  0  0
 17 19  1  0  0  0  0
 15 16  1  0  0  0  0
 15 17  2  0  0  0  0
 14 15  1  0  0  0  0
 14 21  2  0  0  0  0
 11 12  1  0  0  0  0
 11 13  1  0  0  0  0
 11 14  1  0  0  0  0
  9 10  1  0  0  0  0
  9 11  1  0  0  0  0
  9 23  1  0  0  0  0
  7  8  1  0  0  0  0
  7  9  1  0  0  0  0
 27 28  1  0  0  0  0
 27 29  1  0  0  0  0
 27 30  1  0  0  0  0
 25 26  1  0  0  0  0
 25 27  1  0  0  0  0
M  CHG  1  15   1
M  END
$$$$
default_name
  -OEChem-02102213163D

 30 30  0     1  0  0  0  0  0999 V2000
   -3.5507   -3.2183    1.8116 H   0  0  0  0  0  0  0  0  0  0  0  0
   -3.4597   -2.3913    1.1076 C   0  0  0  0  0  0  0  0  0  0  0  0
   -4.1577   -1.6043    1.3866 H   0  0  0  0  0  0  0  0  0  0  0  0
   -3.6807   -2.7523    0.1036 H   0  0  0  0  0  0  0  0  0  0  0  0
   -2.0477   -1.8543    1.1546 C   0  0  0  0  0  0  0  0  0  0  0  0
   -1.2227   -2.3443    1.9146 O   0  0  0  0  0  0  0  0  0  0  0  0
   -1.7517   -0.8483    0.3266 N   0  0  0  0  0  0  0  0  0  0  0  0
   -2.4847   -0.5123   -0.2804 H   0  0  0  0  0  0  0  0  0  0  0  0
   -0.4117   -0.2463    0.2186 C   0  0  1  0  0  0  0  0  0  0  0  0
    0.1554   -0.5152    1.1133 H   0  0  0  0  0  0  0  0  0  0  0  0
    0.3164   -0.8780   -0.9905 C   0  0  0  0  0  0  0  0  0  0  0  0
   -0.2460   -0.6423   -1.8976 H   0  0  0  0  0  0  0  0  0  0  0  0
    1.3001   -0.4152   -1.0939 H   0  0  0  0  0  0  0  0  0  0  0  0
    0.5078   -2.3780   -0.9146 C   0  0  0  0  0  0  0  0  0  0  0  0
   -0.5086   -3.3089   -0.8217 N   0  3  0  0  0  0  0  0  0  0  0  0
   -1.5027   -3.0659   -0.8607 H   0  0  0  0  0  0  0  0  0  0  0  0
    0.0428   -4.5379   -0.7741 C   0  0  0  0  0  0  0  0  0  0  0  0
   -0.5093   -5.4735   -0.7121 H   0  0  0  0  0  0  0  0  0  0  0  0
    1.3873   -4.4069   -0.8336 N   0  0  0  0  0  0  0  0  0  0  0  0
    2.0622   -5.1670   -0.8200 H   0  0  0  0  0  0  0  0  0  0  0  0
    1.6964   -3.0567   -0.9220 C   0  0  0  0  0  0  0  0  0  0  0  0
    2.6865   -2.6139   -0.9859 H   0  0  0  0  0  0  0  0  0  0  0  0
   -0.4874    1.2908    0.1962 C   0  0  0  0  0  0  0  0  0  0  0  0
   -1.3116    1.8673   -0.5151 O   0  0  0  0  0  0  0  0  0  0  0  0
    0.3889    1.9422    0.9708 N   0  0  0  0  0  0  0  0  0  0  0  0
    1.0197    1.3866    1.5283 H   0  0  0  0  0  0  0  0  0  0  0  0
    0.5081    3.3999    1.0720 C   0  0  0  0  0  0  0  0  0  0  0  0
    0.0188    3.7538    1.9817 H   0  0  0  0  0  0  0  0  0  0  0  0
    1.5607    3.6858    1.1098 H   0  0  0  0  0  0  0  0  0  0  0  0
    0.0459    3.8890    0.2119 H   0  0  0  0  0  0  0  0  0  0  0  0
  5  6  2  0  0  0  0
  5  7  1  0  0  0  0
  2  3  1  0  0  0  0
  2  4  1  0  0  0  0
  2  5  1  0  0  0  0
  1  2  1  0  0  0  0
 23 24  2  0  0  0  0
 23 25  1  0  0  0  0
 21 22  1  0  0  0  0
 19 20  1  0  0  0  0
 19 21  1  0  0  0  0
 17 18  1  0  0  0  0
 17 19  1  0  0  0  0
 15 16  1  0  0  0  0
 15 17  2  0  0  0  0
 14 15  1  0  0  0  0
 14 21  2  0  0  0  0
 11 12  1  0  0  0  0
 11 13  1  0  0  0  0
 11 14  1  0  0  0  0
  9 10  1  0  0  0  0
  9 11  1  0  0  0  0
  9 23  1  0  0  0  0
  7  8  1  0  0  0  0
  7  9  1  0  0  0  0
 27 28  1  0  0  0  0
 27 29  1  0  0  0  0
 27 30  1  0  0  0  0
 25 26  1  0  0  0  0
 25 27  1  0  0  0  0
M  CHG  1  15   1
M  END
$$$$
default_name
  -OEChem-02102213163D

 30 30  0     1  0  0  0  0  0999 V2000
   -3.5507   -3.2183    1.8116 H   0  0  0  0  0  0  0  0  0  0  0  0
   -3.4597   -2.3913    1.1076 C   0  0  0  0  0  0  0  0  0  0  0  0
   -4.1577   -1.6043    1.3866 H   0  0  0  0  0  0  0  0  0  0  0  0
   -3.6807   -2.7523    0.1036 H   0  0  0  0  0  0  0  0  0  0  0  0
   -2.0477   -1.8543    1.1546 C   0  0  0  0  0  0  0  0  0  0  0  0
   -1.2227   -2.3443    1.9146 O   0  0  0  0  0  0  0  0  0  0  0  0
   -1.7517   -0.8483    0.3266 N   0  0  0  0  0  0  0  0  0  0  0  0
   -2.4847   -0.5123   -0.2804 H   0  0  0  0  0  0  0  0  0  0  0  0
   -0.4117   -0.2463    0.2186 C   0  0  1  0  0  0  0  0  0  0  0  0
    0.1554   -0.5152    1.1133 H   0  0  0  0  0  0  0  0  0  0  0  0
    0.3164   -0.8780   -0.9905 C   0  0  0  0  0  0  0  0  0  0  0  0
   -0.2460   -0.6423   -1.8976 H   0  0  0  0  0  0  0  0  0  0  0  0
    1.3001   -0.4152   -1.0939 H   0  0  0  0  0  0  0  0  0  0  0  0
    0.5078   -2.3780   -0.9146 C   0  0  0  0  0  0  0  0  0  0  0  0
   -0.4823   -3.3204   -1.1146 N   0  3  0  0  0  0  0  0  0  0  0  0
   -1.4372   -3.0848   -1.3998 H   0  0  0  0  0  0  0  0  0  0  0  0
    0.0596   -4.5454   -0.9653 C   0  0  0  0  0  0  0  0  0  0  0  0
   -0.4737   -5.4873   -1.0761 H   0  0  0  0  0  0  0  0  0  0  0  0
    1.3721   -4.4008   -0.6737 N   0  0  0  0  0  0  0  0  0  0  0  0
    2.0340   -5.1550   -0.5108 H   0  0  0  0  0  0  0  0  0  0  0  0
    1.6702   -3.0456   -0.6378 C   0  0  0  0  0  0  0  0  0  0  0  0
    2.6358   -2.5923   -0.4317 H   0  0  0  0  0  0  0  0  0  0  0  0
   -0.4874    1.2908    0.1962 C   0  0  0  0  0  0  0  0  0  0  0  0
   -1.3116    1.8673   -0.5151 O   0  0  0  0  0  0  0  0  0  0  0  0
    0.3889    1.9422    0.9708 N   0  0  0  0  0  0  0  0  0  0  0  0
    1.0197    1.3866    1.5283 H   0  0  0  0  0  0  0  0  0  0  0  0
    0.5081    3.3999    1.0720 C   0  0  0  0  0  0  0  0  0  0  0  0
    0.0188    3.7538    1.9817 H   0  0  0  0  0  0  0  0  0  0  0  0
    1.5607    3.6858    1.1098 H   0  0  0  0  0  0  0  0  0  0  0  0
    0.0459    3.8890    0.2119 H   0  0  0  0  0  0  0  0  0  0  0  0
  5  6  2  0  0  0  0
  5  7  1  0  0  0  0
  2  3  1  0  0  0  0
  2  4  1  0  0  0  0
  2  5  1  0  0  0  0
  1  2  1  0  0  0  0
 23 24  2  0  0  0  0
 23 25  1  0  0  0  0
 21 22  1  0  0  0  0
 19 20  1  0  0  0  0
 19 21  1  0  0  0  0
 17 18  1  0  0  0  0
 17 19  1  0  0  0  0
 15 16  1  0  0  0  0
 15 17  2  0  0  0  0
 14 15  1  0  0  0  0
 14 21  2  0  0  0  0
 11 12  1  0  0  0  0
 11 13  1  0  0  0  0
 11 14  1  0  0  0  0
  9 10  1  0  0  0  0
  9 11  1  0  0  0  0
  9 23  1  0  0  0  0
  7  8  1  0  0  0  0
  7  9  1  0  0  0  0
 27 28  1  0  0  0  0
 27 29  1  0  0  0  0
 27 30  1  0  0  0  0
 25 26  1  0  0  0  0
 25 27  1  0  0  0  0
M  CHG  1  15   1
M  END
$$$$
default_name
  -OEChem-02102213163D

 30 30  0     1  0  0  0  0  0999 V2000
   -3.5507   -3.2183    1.8116 H   0  0  0  0  0  0  0  0  0  0  0  0
   -3.4597   -2.3913    1.1076 C   0  0  0  0  0  0  0  0  0  0  0  0
   -4.1577   -1.6043    1.3866 H   0  0  0  0  0  0  0  0  0  0  0  0
   -3.6807   -2.7523    0.1036 H   0  0  0  0  0  0  0  0  0  0  0  0
   -2.0477   -1.8543    1.1546 C   0  0  0  0  0  0  0  0  0  0  0  0
   -1.2227   -2.3443    1.9146 O   0  0  0  0  0  0  0  0  0  0  0  0
   -1.7517   -0.8483    0.3266 N   0  0  0  0  0  0  0  0  0  0  0  0
   -2.4847   -0.5123   -0.2804 H   0  0  0  0  0  0  0  0  0  0  0  0
   -0.4117   -0.2463    0.2186 C   0  0  1  0  0  0  0  0  0  0  0  0
    0.1554   -0.5152    1.1133 H   0  0  0  0  0  0  0  0  0  0  0  0
    0.3164   -0.8780   -0.9905 C   0  0  0  0  0  0  0  0  0  0  0  0
   -0.2460   -0.6423   -1.8976 H   0  0  0  0  0  0  0  0  0  0  0  0
    1.3001   -0.4152   -1.0939 H   0  0  0  0  0  0  0  0  0  0  0  0
    0.5078   -2.3780   -0.9146 C   0  0  0  0  0  0  0  0  0  0  0  0
   -0.3816   -3.3215   -1.3912 N   0  3  0  0  0  0  0  0  0  0  0  0
   -1.2355   -3.0846   -1.9044 H   0  0  0  0  0  0  0  0  0  0  0  0
    0.1250   -4.5462   -1.1458 C   0  0  0  0  0  0  0  0  0  0  0  0
   -0.3458   -5.4884   -1.4190 H   0  0  0  0  0  0  0  0  0  0  0  0
    1.3162   -4.4002   -0.5228 N   0  0  0  0  0  0  0  0  0  0  0  0
    1.9273   -5.1538   -0.2191 H   0  0  0  0  0  0  0  0  0  0  0  0
    1.5718   -3.0446   -0.3696 C   0  0  0  0  0  0  0  0  0  0  0  0
    2.4445   -2.5902    0.0913 H   0  0  0  0  0  0  0  0  0  0  0  0
   -0.4874    1.2908    0.1962 C   0  0  0  0  0  0  0  0  0  0  0  0
   -1.3116    1.8673   -0.5151 O   0  0  0  0  0  0  0  0  0  0  0  0
    0.3889    1.9422    0.9708 N   0  0  0  0  0  0  0  0  0  0  0  0
    1.0197    1.3866    1.5283 H   0  0  0  0  0  0  0  0  0  0  0  0
    0.5081    3.3999    1.0720 C   0  0  0  0  0  0  0  0  0  0  0  0
    0.0188    3.7538    1.9817 H   0  0  0  0  0  0  0  0  0  0  0  0
    1.5607    3.6858    1.1098 H   0  0  0  0  0  0  0  0  0  0  0  0
    0.0459    3.8890    0.2119 H   0  0  0  0  0  0  0  0  0  0  0  0
  5  6  2  0  0  0  0
  5  7  1  0  0  0  0
  2  3  1  0  0  0  0
  2  4  1  0  0  0  0
  2  5  1  0  0  0  0
  1  2  1  0  0  0  0
 23 24  2  0  0  0  0
 23 25  1  0  0  0  0
 21 22  1  0  0  0  0
 19 20  1  0  0  0  0
 19 21  1  0  0  0  0
 17 18  1  0  0  0  0
 17 19  1  0  0  0  0
 15 16  1  0  0  0  0
 15 17  2  0  0  0  0
 14 15  1  0  0  0  0
 14 21  2  0  0  0  0
 11 12  1  0  0  0  0
 11 13  1  0  0  0  0
 11 14  1  0  0  0  0
  9 10  1  0  0  0  0
  9 11  1  0  0  0  0
  9 23  1  0  0  0  0
  7  8  1  0  0  0  0
  7  9  1  0  0  0  0
 27 28  1  0  0  0  0
 27 29  1  0  0  0  0
 27 30  1  0  0  0  0
 25 26  1  0  0  0  0
 25 27  1  0  0  0  0
M  CHG  1  15   1
M  END
$$$$
default_name
  -OEChem-02102213163D

 30 30  0     1  0  0  0  0  0999 V2000
   -3.5507   -3.2183    1.8116 H   0  0  0  0  0  0  0  0  0  0  0  0
   -3.4597   -2.3913    1.1076 C   0  0  0  0  0  0  0  0  0  0  0  0
   -4.1577   -1.6043    1.3866 H   0  0  0  0  0  0  0  0  0  0  0  0
   -3.6807   -2.7523    0.1036 H   0  0  0  0  0  0  0  0  0  0  0  0
   -2.0477   -1.8543    1.1546 C   0  0  0  0  0  0  0  0  0  0  0  0
   -1.2227   -2.3443    1.9146 O   0  0  0  0  0  0  0  0  0  0  0  0
   -1.7517   -0.8483    0.3266 N   0  0  0  0  0  0  0  0  0  0  0  0
   -2.4847   -0.5123   -0.2804 H   0  0  0  0  0  0  0  0  0  0  0  0
   -0.4117   -0.2463    0.2186 C   0  0  1  0  0  0  0  0  0  0  0  0
    0.1554   -0.5152    1.1133 H   0  0  0  0  0  0  0  0  0  0  0  0
    0.3164   -0.8780   -0.9905 C   0  0  0  0  0  0  0  0  0  0  0  0
   -0.2460   -0.6423   -1.8976 H   0  0  0  0  0  0  0  0  0  0  0  0
    1.3001   -0.4152   -1.0939 H   0  0  0  0  0  0  0  0  0  0  0  0
    0.5078   -2.3780   -0.9146 C   0  0  0  0  0  0  0  0  0  0  0  0
   -0.2134   -3.3123   -1.6325 N   0  3  0  0  0  0  0  0  0  0  0  0
   -0.9113   -3.0653   -2.3401 H   0  0  0  0  0  0  0  0  0  0  0  0
    0.2345   -4.5402   -1.3035 C   0  0  0  0  0  0  0  0  0  0  0  0
   -0.1343   -5.4765   -1.7174 H   0  0  0  0  0  0  0  0  0  0  0  0
    1.2237   -4.4054   -0.3915 N   0  0  0  0  0  0  0  0  0  0  0  0
    1.7494   -5.1636    0.0354 H   0  0  0  0  0  0  0  0  0  0  0  0
    1.4080   -3.0537   -0.1358 C   0  0  0  0  0  0  0  0  0  0  0  0
    2.1255   -2.6079    0.5475 H   0  0  0  0  0  0  0  0  0  0  0  0
   -0.4874    1.2908    0.1962 C   0  0  0  0  0  0  0  0  0  0  0  0
   -1.3116    1.8673   -0.5151 O   0  0  0  0  0  0  0  0  0  0  0  0
    0.3889    1.9422    0.9708 N   0  0  0  0  0  0  0  0  0  0  0  0
    1.0197    1.3866    1.5283 H   0  0  0  0  0  0  0  0  0  0  0  0
    0.5081    3.3999    1.0720 C   0  0  0  0  0  0  0  0  0  0  0  0
    0.0188    3.7538    1.9817 H   0  0  0  0  0  0  0  0  0  0  0  0
    1.5607    3.6858    1.1098 H   0  0  0  0  0  0  0  0  0  0  0  0
    0.0459    3.8890    0.2119 H   0  0  0  0  0  0  0  0  0  0  0  0
  5  6  2  0  0  0  0
  5  7  1  0  0  0  0
  2  3  1  0  0  0  0
  2  4  1  0  0  0  0
  2  5  1  0  0  0  0
  1  2  1  0  0  0  0
 23 24  2  0  0  0  0
 23 25  1  0  0  0  0
 21 22  1  0  0  0  0
 19 20  1  0  0  0  0
 19 21  1  0  0  0  0
 17 18  1  0  0  0  0
 17 19  1  0  0  0  0
 15 16  1  0  0  0  0
 15 17  2  0  0  0  0
 14 15  1  0  0  0  0
 14 21  2  0  0  0  0
 11 12  1  0  0  0  0
 11 13  1  0  0  0  0
 11 14  1  0  0  0  0
  9 10  1  0  0  0  0
  9 11  1  0  0  0  0
  9 23  1  0  0  0  0
  7  8  1  0  0  0  0
  7  9  1  0  0  0  0
 27 28  1  0  0  0  0
 27 29  1  0  0  0  0
 27 30  1  0  0  0  0
 25 26  1  0  0  0  0
 25 27  1  0  0  0  0
M  CHG  1  15   1
M  END
$$$$
default_name
  -OEChem-02102213163D

 30 30  0     1  0  0  0  0  0999 V2000
   -3.5507   -3.2183    1.8116 H   0  0  0  0  0  0  0  0  0  0  0  0
   -3.4597   -2.3913    1.1076 C   0  0  0  0  0  0  0  0  0  0  0  0
   -4.1577   -1.6043    1.3866 H   0  0  0  0  0  0  0  0  0  0  0  0
   -3.6807   -2.7523    0.1036 H   0  0  0  0  0  0  0  0  0  0  0  0
   -2.0477   -1.8543    1.1546 C   0  0  0  0  0  0  0  0  0  0  0  0
   -1.2227   -2.3443    1.9146 O   0  0  0  0  0  0  0  0  0  0  0  0
   -1.7517   -0.8483    0.3266 N   0  0  0  0  0  0  0  0  0  0  0  0
   -2.4847   -0.5123   -0.2804 H   0  0  0  0  0  0  0  0  0  0  0  0
   -0.4117   -0.2463    0.2186 C   0  0  1  0  0  0  0  0  0  0  0  0
    0.1554   -0.5152    1.1133 H   0  0  0  0  0  0  0  0  0  0  0  0
    0.3164   -0.8780   -0.9905 C   0  0  0  0  0  0  0  0  0  0  0  0
   -0.2460   -0.6423   -1.8976 H   0  0  0  0  0  0  0  0  0  0  0  0
    1.3001   -0.4152   -1.0939 H   0  0  0  0  0  0  0  0  0  0  0  0
    0.5078   -2.3780   -0.9146 C   0  0  0  0  0  0  0  0  0  0  0  0
    0.0108   -3.2932   -1.8222 N   0  3  0  0  0  0  0  0  0  0  0  0
   -0.4866   -3.0282   -2.6772 H   0  0  0  0  0  0  0  0  0  0  0  0
    0.3806   -4.5278   -1.4275 C   0  0  0  0  0  0  0  0  0  0  0  0
    0.1463   -5.4525   -1.9511 H   0  0  0  0  0  0  0  0  0  0  0  0
    1.1006   -4.4159   -0.2885 N   0  0  0  0  0  0  0  0  0  0  0  0
    1.5124   -5.1838    0.2353 H   0  0  0  0  0  0  0  0  0  0  0  0
    1.1900   -3.0722    0.0478 C   0  0  0  0  0  0  0  0  0  0  0  0
    1.7006   -2.6439    0.9059 H   0  0  0  0  0  0  0  0  0  0  0  0
   -0.4874    1.2908    0.1962 C   0  0  0  0  0  0  0  0  0  0  0  0
   -1.3116    1.8673   -0.5151 O   0  0  0  0  0  0  0  0  0  0  0  0
    0.3889    1.9422    0.9708 N   0  0  0  0  0  0  0  0  0  0  0  0
    1.0197    1.3866    1.5283 H   0  0  0  0  0  0  0  0  0  0  0  0
    0.5081    3.3999    1.0720 C   0  0  0  0  0  0  0  0  0  0  0  0
    0.0188    3.7538    1.9817 H   0  0  0  0  0  0  0  0  0  0  0  0
    1.5607    3.6858    1.1098 H   0  0  0  0  0  0  0  0  0  0  0  0
    0.0459    3.8890    0.2119 H   0  0  0  0  0  0  0  0  0  0  0  0
  5  6  2  0  0  0  0
  5  7  1  0  0  0  0
  2  3  1  0  0  0  0
  2  4  1  0  0  0  0
  2  5  1  0  0  0  0
  1  2  1  0  0  0  0
 23 24  2  0  0  0  0
 23 25  1  0  0  0  0
 21 22  1  0  0  0  0
 19 20  1  0  0  0  0
 19 21  1  0  0  0  0
 17 18  1  0  0  0  0
 17 19  1  0  0  0  0
 15 16  1  0  0  0  0
 15 17  2  0  0  0  0
 14 15  1  0  0  0  0
 14 21  2  0  0  0  0
 11 12  1  0  0  0  0
 11 13  1  0  0  0  0
 11 14  1  0  0  0  0
  9 10  1  0  0  0  0
  9 11  1  0  0  0  0
  9 23  1  0  0  0  0
  7  8  1  0  0  0  0
  7  9  1  0  0  0  0
 27 28  1  0  0  0  0
 27 29  1  0  0  0  0
 27 30  1  0  0  0  0
 25 26  1  0  0  0  0
 25 27  1  0  0  0  0
M  CHG  1  15   1
M  END
$$$$
default_name
  -OEChem-02102213163D

 30 30  0     1  0  0  0  0  0999 V2000
   -3.5507   -3.2183    1.8116 H   0  0  0  0  0  0  0  0  0  0  0  0
   -3.4597   -2.3913    1.1076 C   0  0  0  0  0  0  0  0  0  0  0  0
   -4.1577   -1.6043    1.3866 H   0  0  0  0  0  0  0  0  0  0  0  0
   -3.6807   -2.7523    0.1036 H   0  0  0  0  0  0  0  0  0  0  0  0
   -2.0477   -1.8543    1.1546 C   0  0  0  0  0  0  0  0  0  0  0  0
   -1.2227   -2.3443    1.9146 O   0  0  0  0  0  0  0  0  0  0  0  0
   -1.7517   -0.8483    0.3266 N   0  0  0  0  0  0  0  0  0  0  0  0
   -2.4847   -0.5123   -0.2804 H   0  0  0  0  0  0  0  0  0  0  0  0
   -0.4117   -0.2463    0.2186 C   0  0  1  0  0  0  0  0  0  0  0  0
    0.1554   -0.5152    1.1133 H   0  0  0  0  0  0  0  0  0  0  0  0
    0.3164   -0.8780   -0.9905 C   0  0  0  0  0  0  0  0  0  0  0  0
   -0.2460   -0.6423   -1.8976 H   0  0  0  0  0  0  0  0  0  0  0  0
    1.3001   -0.4152   -1.0939 H   0  0  0  0  0  0  0  0  0  0  0  0
    0.5078   -2.3780   -0.9146 C   0  0  0  0  0  0  0  0  0  0  0  0
    0.2758   -3.2658   -1.9473 N   0  3  0  0  0  0  0  0  0  0  0  0
    0.0095   -2.9758   -2.8926 H   0  0  0  0  0  0  0  0  0  0  0  0
    0.5533   -4.5099   -1.5095 C   0  0  0  0  0  0  0  0  0  0  0  0
    0.4770   -5.4180   -2.1041 H   0  0  0  0  0  0  0  0  0  0  0  0
    0.9555   -4.4310   -0.2209 N   0  0  0  0  0  0  0  0  0  0  0  0
    1.2325   -5.2128    0.3669 H   0  0  0  0  0  0  0  0  0  0  0  0
    0.9325   -3.0990    0.1686 C   0  0  0  0  0  0  0  0  0  0  0  0
    1.1988   -2.6961    1.1418 H   0  0  0  0  0  0  0  0  0  0  0  0
   -0.4874    1.2908    0.1962 C   0  0  0  0  0  0  0  0  0  0  0  0
   -1.3116    1.8673   -0.5151 O   0  0  0  0  0  0  0  0  0  0  0  0
    0.3889    1.9422    0.9708 N   0  0  0  0  0  0  0  0  0  0  0  0
    1.0197    1.3866    1.5283 H   0  0  0  0  0  0  0  0  0  0  0  0
    0.5081    3.3999    1.0720 C   0  0  0  0  0  0  0  0  0  0  0  0
    0.0188    3.7538    1.9817 H   0  0  0  0  0  0  0  0  0  0  0  0
    1.5607    3.6858    1.1098 H   0  0  0  0  0  0  0  0  0  0  0  0
    0.0459    3.8890    0.2119 H   0  0  0  0  0  0  0  0  0  0  0  0
  5  6  2  0  0  0  0
  5  7  1  0  0  0  0
  2  3  1  0  0  0  0
  2  4  1  0  0  0  0
  2  5  1  0  0  0  0
  1  2  1  0  0  0  0
 23 24  2  0  0  0  0
 23 25  1  0  0  0  0
 21 22  1  0  0  0  0
 19 20  1  0  0  0  0
 19 21  1  0  0  0  0
 17 18  1  0  0  0  0
 17 19  1  0  0  0  0
 15 16  1  0  0  0  0
 15 17  2  0  0  0  0
 14 15  1  0  0  0  0
 14 21  2  0  0  0  0
 11 12  1  0  0  0  0
 11 13  1  0  0  0  0
 11 14  1  0  0  0  0
  9 10  1  0  0  0  0
  9 11  1  0  0  0  0
  9 23  1  0  0  0  0
  7  8  1  0  0  0  0
  7  9  1  0  0  0  0
 27 28  1  0  0  0  0
 27 29  1  0  0  0  0
 27 30  1  0  0  0  0
 25 26  1  0  0  0  0
 25 27  1  0  0  0  0
M  CHG  1  15   1
M  END
$$$$
default_name
  -OEChem-02102213163D

 30 30  0     1  0  0  0  0  0999 V2000
   -3.5507   -3.2183    1.8116 H   0  0  0  0  0  0  0  0  0  0  0  0
   -3.4597   -2.3913    1.1076 C   0  0  0  0  0  0  0  0  0  0  0  0
   -4.1577   -1.6043    1.3866 H   0  0  0  0  0  0  0  0  0  0  0  0
   -3.6807   -2.7523    0.1036 H   0  0  0  0  0  0  0  0  0  0  0  0
   -2.0477   -1.8543    1.1546 C   0  0  0  0  0  0  0  0  0  0  0  0
   -1.2227   -2.3443    1.9146 O   0  0  0  0  0  0  0  0  0  0  0  0
   -1.7517   -0.8483    0.3266 N   0  0  0  0  0  0  0  0  0  0  0  0
   -2.4847   -0.5123   -0.2804 H   0  0  0  0  0  0  0  0  0  0  0  0
   -0.4117   -0.2463    0.2186 C   0  0  1  0  0  0  0  0  0  0  0  0
    0.1554   -0.5152    1.1133 H   0  0  0  0  0  0  0  0  0  0  0  0
    0.3164   -0.8780   -0.9905 C   0  0  0  0  0  0  0  0  0  0  0  0
   -0.2460   -0.6423   -1.8976 H   0  0  0  0  0  0  0  0  0  0  0  0
    1.3001   -0.4152   -1.0939 H   0  0  0  0  0  0  0  0  0  0  0  0
    0.5078   -2.3780   -0.9146 C   0  0  0  0  0  0  0  0  0  0  0  0
    0.5635   -3.2317   -1.9993 N   0  3  0  0  0  0  0  0  0  0  0  0
    0.5433   -2.9116   -2.9718 H   0  0  0  0  0  0  0  0  0  0  0  0
    0.7410   -4.4877   -1.5437 C   0  0  0  0  0  0  0  0  0  0  0  0
    0.8352   -5.3754   -2.1659 H   0  0  0  0  0  0  0  0  0  0  0  0
    0.7981   -4.4497   -0.1933 N   0  0  0  0  0  0  0  0  0  0  0  0
    0.9288   -5.2488    0.4214 H   0  0  0  0  0  0  0  0  0  0  0  0
    0.6532   -3.1321    0.2184 C   0  0  0  0  0  0  0  0  0  0  0  0
    0.6543   -2.7606    1.2394 H   0  0  0  0  0  0  0  0  0  0  0  0
   -0.4874    1.2908    0.1962 C   0  0  0  0  0  0  0  0  0  0  0  0
   -1.3116    1.8673   -0.5151 O   0  0  0  0  0  0  0  0  0  0  0  0
    0.3889    1.9422    0.9708 N   0  0  0  0  0  0  0  0  0  0  0  0
    1.0197    1.3866    1.5283 H   0  0  0  0  0  0  0  0  0  0  0  0
    0.5081    3.3999    1.0720 C   0  0  0  0  0  0  0  0  0  0  0  0
    0.0188    3.7538    1.9817 H   0  0  0  0  0  0  0  0  0  0  0  0
    1.5607    3.6858    1.1098 H   0  0  0  0  0  0  0  0  0  0  0  0
    0.0459    3.8890    0.2119 H   0  0  0  0  0  0  0  0  0  0  0  0
  5  6  2  0  0  0  0
  5  7  1  0  0  0  0
  2  3  1  0  0  0  0
  2  4  1  0  0  0  0
  2  5  1  0  0  0  0
  1  2  1  0  0  0  0
 23 24  2  0  0  0  0
 23 25  1  0  0  0  0
 21 22  1  0  0  0  0
 19 20  1  0  0  0  0
 19 21  1  0  0  0  0
 17 18  1  0  0  0  0
 17 19  1  0  0  0  0
 15 16  1  0  0  0  0
 15 17  2  0  0  0  0
 14 15  1  0  0  0  0
 14 21  2  0  0  0  0
 11 12  1  0  0  0  0
 11 13  1  0  0  0  0
 11 14  1  0  0  0  0
  9 10  1  0  0  0  0
  9 11  1  0  0  0  0
  9 23  1  0  0  0  0
  7  8  1  0  0  0  0
  7  9  1  0  0  0  0
 27 28  1  0  0  0  0
 27 29  1  0  0  0  0
 27 30  1  0  0  0  0
 25 26  1  0  0  0  0
 25 27  1  0  0  0  0
M  CHG  1  15   1
M  END
$$$$
default_name
  -OEChem-02102213163D

 30 30  0     1  0  0  0  0  0999 V2000
   -3.5507   -3.2183    1.8116 H   0  0  0  0  0  0  0  0  0  0  0  0
   -3.4597   -2.3913    1.1076 C   0  0  0  0  0  0  0  0  0  0  0  0
   -4.1577   -1.6043    1.3866 H   0  0  0  0  0  0  0  0  0  0  0  0
   -3.6807   -2.7523    0.1036 H   0  0  0  0  0  0  0  0  0  0  0  0
   -2.0477   -1.8543    1.1546 C   0  0  0  0  0  0  0  0  0  0  0  0
   -1.2227   -2.3443    1.9146 O   0  0  0  0  0  0  0  0  0  0  0  0
   -1.7517   -0.8483    0.3266 N   0  0  0  0  0  0  0  0  0  0  0  0
   -2.4847   -0.5123   -0.2804 H   0  0  0  0  0  0  0  0  0  0  0  0
   -0.4117   -0.2463    0.2186 C   0  0  1  0  0  0  0  0  0  0  0  0
    0.1554   -0.5152    1.1133 H   0  0  0  0  0  0  0  0  0  0  0  0
    0.3164   -0.8780   -0.9905 C   0  0  0  0  0  0  0  0  0  0  0  0
   -0.2460   -0.6423   -1.8976 H   0  0  0  0  0  0  0  0  0  0  0  0
    1.3001   -0.4152   -1.0939 H   0  0  0  0  0  0  0  0  0  0  0  0
    0.5078   -2.3780   -0.9146 C   0  0  0  0  0  0  0  0  0  0  0  0
    0.8542   -3.1933   -1.9746 N   0  3  0  0  0  0  0  0  0  0  0  0
    1.0784   -2.8402   -2.9094 H   0  0  0  0  0  0  0  0  0  0  0  0
    0.9307   -4.4627   -1.5280 C   0  0  0  0  0  0  0  0  0  0  0  0
    1.1965   -5.3276   -2.1324 H   0  0  0  0  0  0  0  0  0  0  0  0
    0.6393   -4.4707   -0.2076 N   0  0  0  0  0  0  0  0  0  0  0  0
    0.6220   -5.2893    0.3949 H   0  0  0  0  0  0  0  0  0  0  0  0
    0.3711   -3.1693    0.1938 C   0  0  0  0  0  0  0  0  0  0  0  0
    0.1041   -2.8332    1.1919 H   0  0  0  0  0  0  0  0  0  0  0  0
   -0.4874    1.2908    0.1962 C   0  0  0  0  0  0  0  0  0  0  0  0
   -1.3116    1.8673   -0.5151 O   0  0  0  0  0  0  0  0  0  0  0  0
    0.3889    1.9422    0.9708 N   0  0  0  0  0  0  0  0  0  0  0  0
    1.0197    1.3866    1.5283 H   0  0  0  0  0  0  0  0  0  0  0  0
    0.5081    3.3999    1.0720 C   0  0  0  0  0  0  0  0  0  0  0  0
    0.0188    3.7538    1.9817 H   0  0  0  0  0  0  0  0  0  0  0  0
    1.5607    3.6858    1.1098 H   0  0  0  0  0  0  0  0  0  0  0  0
    0.0459    3.8890    0.2119 H   0  0  0  0  0  0  0  0  0  0  0  0
  5  6  2  0  0  0  0
  5  7  1  0  0  0  0
  2  3  1  0  0  0  0
  2  4  1  0  0  0  0
  2  5  1  0  0  0  0
  1  2  1  0  0  0  0
 23 24  2  0  0  0  0
 23 25  1  0  0  0  0
 21 22  1  0  0  0  0
 19 20  1  0  0  0  0
 19 21  1  0  0  0  0
 17 18  1  0  0  0  0
 17 19  1  0  0  0  0
 15 16  1  0  0  0  0
 15 17  2  0  0  0  0
 14 15  1  0  0  0  0
 14 21  2  0  0  0  0
 11 12  1  0  0  0  0
 11 13  1  0  0  0  0
 11 14  1  0  0  0  0
  9 10  1  0  0  0  0
  9 11  1  0  0  0  0
  9 23  1  0  0  0  0
  7  8  1  0  0  0  0
  7  9  1  0  0  0  0
 27 28  1  0  0  0  0
 27 29  1  0  0  0  0
 27 30  1  0  0  0  0
 25 26  1  0  0  0  0
 25 27  1  0  0  0  0
M  CHG  1  15   1
M  END
$$$$
default_name
  -OEChem-02102213163D

 30 30  0     1  0  0  0  0  0999 V2000
   -3.5507   -3.2183    1.8116 H   0  0  0  0  0  0  0  0  0  0  0  0
   -3.4597   -2.3913    1.1076 C   0  0  0  0  0  0  0  0  0  0  0  0
   -4.1577   -1.6043    1.3866 H   0  0  0  0  0  0  0  0  0  0  0  0
   -3.6807   -2.7523    0.1036 H   0  0  0  0  0  0  0  0  0  0  0  0
   -2.0477   -1.8543    1.1546 C   0  0  0  0  0  0  0  0  0  0  0  0
   -1.2227   -2.3443    1.9146 O   0  0  0  0  0  0  0  0  0  0  0  0
   -1.7517   -0.8483    0.3266 N   0  0  0  0  0  0  0  0  0  0  0  0
   -2.4847   -0.5123   -0.2804 H   0  0  0  0  0  0  0  0  0  0  0  0
   -0.4117   -0.2463    0.2186 C   0  0  1  0  0  0  0  0  0  0  0  0
    0.1554   -0.5152    1.1133 H   0  0  0  0  0  0  0  0  0  0  0  0
    0.3164   -0.8780   -0.9905 C   0  0  0  0  0  0  0  0  0  0  0  0
   -0.0776   -0.4308   -1.9067 H   0  0  0  0  0  0  0  0  0  0  0  0
    1.3769   -0.6224   -0.9394 H   0  0  0  0  0  0  0  0  0  0  0  0
    0.2000   -2.3838   -1.0969 C   0  0  0  0  0  0  0  0  0  0  0  0
    0.7657   -3.1602   -2.0897 N   0  3  0  0  0  0  0  0  0  0  0  0
    1.3783   -2.7855   -2.8198 H   0  0  0  0  0  0  0  0  0  0  0  0
    0.4477   -4.4488   -1.8555 C   0  0  0  0  0  0  0  0  0  0  0  0
    0.7624   -5.2952   -2.4627 H   0  0  0  0  0  0  0  0  0  0  0  0
   -0.3086   -4.5070   -0.7361 N   0  0  0  0  0  0  0  0  0  0  0  0
   -0.6911   -5.3506   -0.3173 H   0  0  0  0  0  0  0  0  0  0  0  0
   -0.4739   -3.2186   -0.2469 C   0  0  0  0  0  0  0  0  0  0  0  0
   -1.0283   -2.9199    0.6385 H   0  0  0  0  0  0  0  0  0  0  0  0
   -0.4874    1.2908    0.1962 C   0  0  0  0  0  0  0  0  0  0  0  0
   -1.3116    1.8673   -0.5151 O   0  0  0  0  0  0  0  0  0  0  0  0
    0.3889    1.9422    0.9708 N   0  0  0  0  0  0  0  0  0  0  0  0
    1.0197    1.3866    1.5283 H   0  0  0  0  0  0  0  0  0  0  0  0
    0.5081    3.3999    1.0720 C   0  0  0  0  0  0  0  0  0  0  0  0
    0.0188    3.7538    1.9817 H   0  0  0  0  0  0  0  0  0  0  0  0
    1.5607    3.6858    1.1098 H   0  0  0  0  0  0  0  0  0  0  0  0
    0.0459    3.8890    0.2119 H   0  0  0  0  0  0  0  0  0  0  0  0
  5  6  2  0  0  0  0
  5  7  1  0  0  0  0
  2  3  1  0  0  0  0
  2  4  1  0  0  0  0
  2  5  1  0  0  0  0
  1  2  1  0  0  0  0
 23 24  2  0  0  0  0
 23 25  1  0  0  0  0
 21 22  1  0  0  0  0
 19 20  1  0  0  0  0
 19 21  1  0  0  0  0
 17 18  1  0  0  0  0
 17 19  1  0  0  0  0
 15 16  1  0  0  0  0
 15 17  2  0  0  0  0
 14 15  1  0  0  0  0
 14 21  2  0  0  0  0
 11 12  1  0  0  0  0
 11 13  1  0  0  0  0
 11 14  1  0  0  0  0
  9 10  1  0  0  0  0
  9 11  1  0  0  0  0
  9 23  1  0  0  0  0
  7  8  1  0  0  0  0
  7  9  1  0  0  0  0
 27 28  1  0  0  0  0
 27 29  1  0  0  0  0
 27 30  1  0  0  0  0
 25 26  1  0  0  0  0
 25 27  1  0  0  0  0
M  CHG  1  15   1
M  END
$$$$
default_name
  -OEChem-02102213163D

 30 30  0     1  0  0  0  0  0999 V2000
   -3.5507   -3.2183    1.8116 H   0  0  0  0  0  0  0  0  0  0  0  0
   -3.4597   -2.3913    1.1076 C   0  0  0  0  0  0  0  0  0  0  0  0
   -4.1577   -1.6043    1.3866 H   0  0  0  0  0  0  0  0  0  0  0  0
   -3.6807   -2.7523    0.1036 H   0  0  0  0  0  0  0  0  0  0  0  0
   -2.0477   -1.8543    1.1546 C   0  0  0  0  0  0  0  0  0  0  0  0
   -1.2227   -2.3443    1.9146 O   0  0  0  0  0  0  0  0  0  0  0  0
   -1.7517   -0.8483    0.3266 N   0  0  0  0  0  0  0  0  0  0  0  0
   -2.4847   -0.5123   -0.2804 H   0  0  0  0  0  0  0  0  0  0  0  0
   -0.4117   -0.2463    0.2186 C   0  0  1  0  0  0  0  0  0  0  0  0
    0.1554   -0.5152    1.1133 H   0  0  0  0  0  0  0  0  0  0  0  0
    0.3164   -0.8780   -0.9905 C   0  0  0  0  0  0  0  0  0  0  0  0
   -0.0776   -0.4308   -1.9067 H   0  0  0  0  0  0  0  0  0  0  0  0
    1.3769   -0.6224   -0.9394 H   0  0  0  0  0  0  0  0  0  0  0  0
    0.2000   -2.3838   -1.0969 C   0  0  0  0  0  0  0  0  0  0  0  0
    0.9858   -3.1908   -1.8967 N   0  3  0  0  0  0  0  0  0  0  0  0
    1.7733   -2.8421   -2.4508 H   0  0  0  0  0  0  0  0  0  0  0  0
    0.5915   -4.4688   -1.7298 C   0  0  0  0  0  0  0  0  0  0  0  0
    1.0342   -5.3333   -2.2205 H   0  0  0  0  0  0  0  0  0  0  0  0
   -0.4283   -4.4902   -0.8422 N   0  0  0  0  0  0  0  0  0  0  0  0
   -0.9231   -5.3183   -0.5213 H   0  0  0  0  0  0  0  0  0  0  0  0
   -0.6871   -3.1888   -0.4348 C   0  0  0  0  0  0  0  0  0  0  0  0
   -1.4442   -2.8619    0.2726 H   0  0  0  0  0  0  0  0  0  0  0  0
   -0.4874    1.2908    0.1962 C   0  0  0  0  0  0  0  0  0  0  0  0
   -1.3116    1.8673   -0.5151 O   0  0  0  0  0  0  0  0  0  0  0  0
    0.3889    1.9422    0.9708 N   0  0  0  0  0  0  0  0  0  0  0  0
    1.0197    1.3866    1.5283 H   0  0  0  0  0  0  0  0  0  0  0  0
    0.5081    3.3999    1.0720 C   0  0  0  0  0  0  0  0  0  0  0  0
    0.0188    3.7538    1.9817 H   0  0  0  0  0  0  0  0  0  0  0  0
    1.5607    3.6858    1.1098 H   0  0  0  0  0  0  0  0  0  0  0  0
    0.0459    3.8890    0.2119 H   0  0  0  0  0  0  0  0  0  0  0  0
  5  6  2  0  0  0  0
  5  7  1  0  0  0  0
  2  3  1  0  0  0  0
  2  4  1  0  0  0  0
  2  5  1  0  0  0  0
  1  2  1  0  0  0  0
 23 24  2  0  0  0  0
 23 25  1  0  0  0  0
 21 22  1  0  0  0  0
 19 20  1  0  0  0  0
 19 21  1  0  0  0  0
 17 18  1  0  0  0  0
 17 19  1  0  0  0  0
 15 16  1  0  0  0  0
 15 17  2  0  0  0  0
 14 15  1  0  0  0  0
 14 21  2  0  0  0  0
 11 12  1  0  0  0  0
 11 13  1  0  0  0  0
 11 14  1  0  0  0  0
  9 10  1  0  0  0  0
  9 11  1  0  0  0  0
  9 23  1  0  0  0  0
  7  8  1  0  0  0  0
  7  9  1  0  0  0  0
 27 28  1  0  0  0  0
 27 29  1  0  0  0  0
 27 30  1  0  0  0  0
 25 26  1  0  0  0  0
 25 27  1  0  0  0  0
M  CHG  1  15   1
M  END
$$$$
default_name
  -OEChem-02102213163D

 30 30  0     1  0  0  0  0  0999 V2000
   -3.5507   -3.2183    1.8116 H   0  0  0  0  0  0  0  0  0  0  0  0
   -3.4597   -2.3913    1.1076 C   0  0  0  0  0  0  0  0  0  0  0  0
   -4.1577   -1.6043    1.3866 H   0  0  0  0  0  0  0  0  0  0  0  0
   -3.6807   -2.7523    0.1036 H   0  0  0  0  0  0  0  0  0  0  0  0
   -2.0477   -1.8543    1.1546 C   0  0  0  0  0  0  0  0  0  0  0  0
   -1.2227   -2.3443    1.9146 O   0  0  0  0  0  0  0  0  0  0  0  0
   -1.7517   -0.8483    0.3266 N   0  0  0  0  0  0  0  0  0  0  0  0
   -2.4847   -0.5123   -0.2804 H   0  0  0  0  0  0  0  0  0  0  0  0
   -0.4117   -0.2463    0.2186 C   0  0  1  0  0  0  0  0  0  0  0  0
    0.1554   -0.5152    1.1133 H   0  0  0  0  0  0  0  0  0  0  0  0
    0.3164   -0.8780   -0.9905 C   0  0  0  0  0  0  0  0  0  0  0  0
   -0.0776   -0.4308   -1.9067 H   0  0  0  0  0  0  0  0  0  0  0  0
    1.3769   -0.6224   -0.9394 H   0  0  0  0  0  0  0  0  0  0  0  0
    0.2000   -2.3838   -1.0969 C   0  0  0  0  0  0  0  0  0  0  0  0
    1.1482   -3.2206   -1.6530 N   0  3  0  0  0  0  0  0  0  0  0  0
    2.0587   -2.8966   -1.9916 H   0  0  0  0  0  0  0  0  0  0  0  0
    0.6977   -4.4882   -1.5710 C   0  0  0  0  0  0  0  0  0  0  0  0
    1.2337   -5.3702   -1.9159 H   0  0  0  0  0  0  0  0  0  0  0  0
   -0.5163   -4.4740   -0.9758 N   0  0  0  0  0  0  0  0  0  0  0  0
   -1.0941   -5.2869   -0.7788 H   0  0  0  0  0  0  0  0  0  0  0  0
   -0.8441   -3.1600   -0.6716 C   0  0  0  0  0  0  0  0  0  0  0  0
   -1.7507   -2.8056   -0.1890 H   0  0  0  0  0  0  0  0  0  0  0  0
   -0.4874    1.2908    0.1962 C   0  0  0  0  0  0  0  0  0  0  0  0
   -1.3116    1.8673   -0.5151 O   0  0  0  0  0  0  0  0  0  0  0  0
    0.3889    1.9422    0.9708 N   0  0  0  0  0  0  0  0  0  0  0  0
    1.0197    1.3866    1.5283 H   0  0  0  0  0  0  0  0  0  0  0  0
    0.5081    3.3999    1.0720 C   0  0  0  0  0  0  0  0  0  0  0  0
    0.0188    3.7538    1.9817 H   0  0  0  0  0  0  0  0  0  0  0  0
    1.5607    3.6858    1.1098 H   0  0  0  0  0  0  0  0  0  0  0  0
    0.0459    3.8890    0.2119 H   0  0  0  0  0  0  0  0  0  0  0  0
  5  6  2  0  0  0  0
  5  7  1  0  0  0  0
  2  3  1  0  0  0  0
  2  4  1  0  0  0  0
  2  5  1  0  0  0  0
  1  2  1  0  0  0  0
 23 24  2  0  0  0  0
 23 25  1  0  0  0  0
 21 22  1  0  0  0  0
 19 20  1  0  0  0  0
 19 21  1  0  0  0  0
 17 18  1  0  0  0  0
 17 19  1  0  0  0  0
 15 16  1  0  0  0  0
 15 17  2  0  0  0  0
 14 15  1  0  0  0  0
 14 21  2  0  0  0  0
 11 12  1  0  0  0  0
 11 13  1  0  0  0  0
 11 14  1  0  0  0  0
  9 10  1  0  0  0  0
  9 11  1  0  0  0  0
  9 23  1  0  0  0  0
  7  8  1  0  0  0  0
  7  9  1  0  0  0  0
 27 28  1  0  0  0  0
 27 29  1  0  0  0  0
 27 30  1  0  0  0  0
 25 26  1  0  0  0  0
 25 27  1  0  0  0  0
M  CHG  1  15   1
M  END
$$$$
default_name
  -OEChem-02102213163D

 30 30  0     1  0  0  0  0  0999 V2000
   -3.5507   -3.2183    1.8116 H   0  0  0  0  0  0  0  0  0  0  0  0
   -3.4597   -2.3913    1.1076 C   0  0  0  0  0  0  0  0  0  0  0  0
   -4.1577   -1.6043    1.3866 H   0  0  0  0  0  0  0  0  0  0  0  0
   -3.6807   -2.7523    0.1036 H   0  0  0  0  0  0  0  0  0  0  0  0
   -2.0477   -1.8543    1.1546 C   0  0  0  0  0  0  0  0  0  0  0  0
   -1.2227   -2.3443    1.9146 O   0  0  0  0  0  0  0  0  0  0  0  0
   -1.7517   -0.8483    0.3266 N   0  0  0  0  0  0  0  0  0  0  0  0
   -2.4847   -0.5123   -0.2804 H   0  0  0  0  0  0  0  0  0  0  0  0
   -0.4117   -0.2463    0.2186 C   0  0  1  0  0  0  0  0  0  0  0  0
    0.1554   -0.5152    1.1133 H   0  0  0  0  0  0  0  0  0  0  0  0
    0.3164   -0.8780   -0.9905 C   0  0  0  0  0  0  0  0  0  0  0  0
   -0.0776   -0.4308   -1.9067 H   0  0  0  0  0  0  0  0  0  0  0  0
    1.3769   -0.6224   -0.9394 H   0  0  0  0  0  0  0  0  0  0  0  0
    0.2000   -2.3838   -1.0969 C   0  0  0  0  0  0  0  0  0  0  0  0
    1.2417   -3.2474   -1.3753 N   0  3  0  0  0  0  0  0  0  0  0  0
    2.2153   -2.9453   -1.4735 H   0  0  0  0  0  0  0  0  0  0  0  0
    0.7591   -4.5058   -1.3899 C   0  0  0  0  0  0  0  0  0  0  0  0
    1.3473   -5.4034   -1.5696 H   0  0  0  0  0  0  0  0  0  0  0  0
   -0.5666   -4.4594   -1.1278 N   0  0  0  0  0  0  0  0  0  0  0  0
   -1.1924   -5.2586   -1.0721 H   0  0  0  0  0  0  0  0  0  0  0  0
   -0.9342   -3.1340   -0.9414 C   0  0  0  0  0  0  0  0  0  0  0  0
   -1.9269   -2.7549   -0.7149 H   0  0  0  0  0  0  0  0  0  0  0  0
   -0.4874    1.2908    0.1962 C   0  0  0  0  0  0  0  0  0  0  0  0
   -1.3116    1.8673   -0.5151 O   0  0  0  0  0  0  0  0  0  0  0  0
    0.3889    1.9422    0.9708 N   0  0  0  0  0  0  0  0  0  0  0  0
    1.0197    1.3866    1.5283 H   0  0  0  0  0  0  0  0  0  0  0  0
    0.5081    3.3999    1.0720 C   0  0  0  0  0  0  0  0  0  0  0  0
    0.0188    3.7538    1.9817 H   0  0  0  0  0  0  0  0  0  0  0  0
    1.5607    3.6858    1.1098 H   0  0  0  0  0  0  0  0  0  0  0  0
    0.0459    3.8890    0.2119 H   0  0  0  0  0  0  0  0  0  0  0  0
  5  6  2  0  0  0  0
  5  7  1  0  0  0  0
  2  3  1  0  0  0  0
  2  4  1  0  0  0  0
  2  5  1  0  0  0  0
  1  2  1  0  0  0  0
 23 24  2  0  0  0  0
 23 25  1  0  0  0  0
 21 22  1  0  0  0  0
 19 20  1  0  0  0  0
 19 21  1  0  0  0  0
 17 18  1  0  0  0  0
 17 19  1  0  0  0  0
 15 16  1  0  0  0  0
 15 17  2  0  0  0  0
 14 15  1  0  0  0  0
 14 21  2  0  0  0  0
 11 12  1  0  0  0  0
 11 13  1  0  0  0  0
 11 14  1  0  0  0  0
  9 10  1  0  0  0  0
  9 11  1  0  0  0  0
  9 23  1  0  0  0  0
  7  8  1  0  0  0  0
  7  9  1  0  0  0  0
 27 28  1  0  0  0  0
 27 29  1  0  0  0  0
 27 30  1  0  0  0  0
 25 26  1  0  0  0  0
 25 27  1  0  0  0  0
M  CHG  1  15   1
M  END
$$$$
default_name
  -OEChem-02102213163D

 30 30  0     1  0  0  0  0  0999 V2000
   -3.5507   -3.2183    1.8116 H   0  0  0  0  0  0  0  0  0  0  0  0
   -3.4597   -2.3913    1.1076 C   0  0  0  0  0  0  0  0  0  0  0  0
   -4.1577   -1.6043    1.3866 H   0  0  0  0  0  0  0  0  0  0  0  0
   -3.6807   -2.7523    0.1036 H   0  0  0  0  0  0  0  0  0  0  0  0
   -2.0477   -1.8543    1.1546 C   0  0  0  0  0  0  0  0  0  0  0  0
   -1.2227   -2.3443    1.9146 O   0  0  0  0  0  0  0  0  0  0  0  0
   -1.7517   -0.8483    0.3266 N   0  0  0  0  0  0  0  0  0  0  0  0
   -2.4847   -0.5123   -0.2804 H   0  0  0  0  0  0  0  0  0  0  0  0
   -0.4117   -0.2463    0.2186 C   0  0  1  0  0  0  0  0  0  0  0  0
    0.1554   -0.5152    1.1133 H   0  0  0  0  0  0  0  0  0  0  0  0
    0.3164   -0.8780   -0.9905 C   0  0  0  0  0  0  0  0  0  0  0  0
   -0.0776   -0.4308   -1.9067 H   0  0  0  0  0  0  0  0  0  0  0  0
    1.3769   -0.6224   -0.9394 H   0  0  0  0  0  0  0  0  0  0  0  0
    0.2000   -2.3838   -1.0969 C   0  0  0  0  0  0  0  0  0  0  0  0
    1.2601   -3.2695   -1.0824 N   0  3  0  0  0  0  0  0  0  0  0  0
    2.2322   -2.9848   -0.9318 H   0  0  0  0  0  0  0  0  0  0  0  0
    0.7714   -4.5202   -1.1988 C   0  0  0  0  0  0  0  0  0  0  0  0
    1.3673   -5.4307   -1.2052 H   0  0  0  0  0  0  0  0  0  0  0  0
   -0.5758   -4.4473   -1.2879 N   0  0  0  0  0  0  0  0  0  0  0  0
   -1.2114   -5.2353   -1.3813 H   0  0  0  0  0  0  0  0  0  0  0  0
   -0.9514   -3.1126   -1.2257 C   0  0  0  0  0  0  0  0  0  0  0  0
   -1.9608   -2.7131   -1.2692 H   0  0  0  0  0  0  0  0  0  0  0  0
   -0.4874    1.2908    0.1962 C   0  0  0  0  0  0  0  0  0  0  0  0
   -1.3116    1.8673   -0.5151 O   0  0  0  0  0  0  0  0  0  0  0  0
    0.3889    1.9422    0.9708 N   0  0  0  0  0  0  0  0  0  0  0  0
    1.0197    1.3866    1.5283 H   0  0  0  0  0  0  0  0  0  0  0  0
    0.5081    3.3999    1.0720 C   0  0  0  0  0  0  0  0  0  0  0  0
    0.0188    3.7538    1.9817 H   0  0  0  0  0  0  0  0  0  0  0  0
    1.5607    3.6858    1.1098 H   0  0  0  0  0  0  0  0  0  0  0  0
    0.0459    3.8890    0.2119 H   0  0  0  0  0  0  0  0  0  0  0  0
  5  6  2  0  0  0  0
  5  7  1  0  0  0  0
  2  3  1  0  0  0  0
  2  4  1  0  0  0  0
  2  5  1  0  0  0  0
  1  2  1  0  0  0  0
 23 24  2  0  0  0  0
 23 25  1  0  0  0  0
 21 22  1  0  0  0  0
 19 20  1  0  0  0  0
 19 21  1  0  0  0  0
 17 18  1  0  0  0  0
 17 19  1  0  0  0  0
 15 16  1  0  0  0  0
 15 17  2  0  0  0  0
 14 15  1  0  0  0  0
 14 21  2  0  0  0  0
 11 12  1  0  0  0  0
 11 13  1  0  0  0  0
 11 14  1  0  0  0  0
  9 10  1  0  0  0  0
  9 11  1  0  0  0  0
  9 23  1  0  0  0  0
  7  8  1  0  0  0  0
  7  9  1  0  0  0  0
 27 28  1  0  0  0  0
 27 29  1  0  0  0  0
 27 30  1  0  0  0  0
 25 26  1  0  0  0  0
 25 27  1  0  0  0  0
M  CHG  1  15   1
M  END
$$$$
default_name
  -OEChem-02102213163D

 30 30  0     1  0  0  0  0  0999 V2000
   -3.5507   -3.2183    1.8116 H   0  0  0  0  0  0  0  0  0  0  0  0
   -3.4597   -2.3913    1.1076 C   0  0  0  0  0  0  0  0  0  0  0  0
   -4.1577   -1.6043    1.3866 H   0  0  0  0  0  0  0  0  0  0  0  0
   -3.6807   -2.7523    0.1036 H   0  0  0  0  0  0  0  0  0  0  0  0
   -2.0477   -1.8543    1.1546 C   0  0  0  0  0  0  0  0  0  0  0  0
   -1.2227   -2.3443    1.9146 O   0  0  0  0  0  0  0  0  0  0  0  0
   -1.7517   -0.8483    0.3266 N   0  0  0  0  0  0  0  0  0  0  0  0
   -2.4847   -0.5123   -0.2804 H   0  0  0  0  0  0  0  0  0  0  0  0
   -0.4117   -0.2463    0.2186 C   0  0  1  0  0  0  0  0  0  0  0  0
    0.1554   -0.5152    1.1133 H   0  0  0  0  0  0  0  0  0  0  0  0
    0.3164   -0.8780   -0.9905 C   0  0  0  0  0  0  0  0  0  0  0  0
   -0.0776   -0.4308   -1.9067 H   0  0  0  0  0  0  0  0  0  0  0  0
    1.3769   -0.6224   -0.9394 H   0  0  0  0  0  0  0  0  0  0  0  0
    0.2000   -2.3838   -1.0969 C   0  0  0  0  0  0  0  0  0  0  0  0
    1.2021   -3.2854   -0.7943 N   0  3  0  0  0  0  0  0  0  0  0  0
    2.1084   -3.0126   -0.4034 H   0  0  0  0  0  0  0  0  0  0  0  0
    0.7339   -4.5306   -1.0107 C   0  0  0  0  0  0  0  0  0  0  0  0
    1.2923   -5.4502   -0.8475 H   0  0  0  0  0  0  0  0  0  0  0  0
   -0.5433   -4.4388   -1.4452 N   0  0  0  0  0  0  0  0  0  0  0  0
   -1.1497   -5.2186   -1.6853 H   0  0  0  0  0  0  0  0  0  0  0  0
   -0.8944   -3.0972   -1.5052 C   0  0  0  0  0  0  0  0  0  0  0  0
   -1.8502   -2.6832   -1.8143 H   0  0  0  0  0  0  0  0  0  0  0  0
   -0.4874    1.2908    0.1962 C   0  0  0  0  0  0  0  0  0  0  0  0
   -1.3116    1.8673   -0.5151 O   0  0  0  0  0  0  0  0  0  0  0  0
    0.3889    1.9422    0.9708 N   0  0  0  0  0  0  0  0  0  0  0  0
    1.0197    1.3866    1.5283 H   0  0  0  0  0  0  0  0  0  0  0  0
    0.5081    3.3999    1.0720 C   0  0  0  0  0  0  0  0  0  0  0  0
    0.0188    3.7538    1.9817 H   0  0  0  0  0  0  0  0  0  0  0  0
    1.5607    3.6858    1.1098 H   0  0  0  0  0  0  0  0  0  0  0  0
    0.0459    3.8890    0.2119 H   0  0  0  0  0  0  0  0  0  0  0  0
  5  6  2  0  0  0  0
  5  7  1  0  0  0  0
  2  3  1  0  0  0  0
  2  4  1  0  0  0  0
  2  5  1  0  0  0  0
  1  2  1  0  0  0  0
 23 24  2  0  0  0  0
 23 25  1  0  0  0  0
 21 22  1  0  0  0  0
 19 20  1  0  0  0  0
 19 21  1  0  0  0  0
 17 18  1  0  0  0  0
 17 19  1  0  0  0  0
 15 16  1  0  0  0  0
 15 17  2  0  0  0  0
 14 15  1  0  0  0  0
 14 21  2  0  0  0  0
 11 12  1  0  0  0  0
 11 13  1  0  0  0  0
 11 14  1  0  0  0  0
  9 10  1  0  0  0  0
  9 11  1  0  0  0  0
  9 23  1  0  0  0  0
  7  8  1  0  0  0  0
  7  9  1  0  0  0  0
 27 28  1  0  0  0  0
 27 29  1  0  0  0  0
 27 30  1  0  0  0  0
 25 26  1  0  0  0  0
 25 27  1  0  0  0  0
M  CHG  1  15   1
M  END
$$$$
default_name
  -OEChem-02102213163D

 30 30  0     1  0  0  0  0  0999 V2000
   -3.5507   -3.2183    1.8116 H   0  0  0  0  0  0  0  0  0  0  0  0
   -3.4597   -2.3913    1.1076 C   0  0  0  0  0  0  0  0  0  0  0  0
   -4.1577   -1.6043    1.3866 H   0  0  0  0  0  0  0  0  0  0  0  0
   -3.6807   -2.7523    0.1036 H   0  0  0  0  0  0  0  0  0  0  0  0
   -2.0477   -1.8543    1.1546 C   0  0  0  0  0  0  0  0  0  0  0  0
   -1.2227   -2.3443    1.9146 O   0  0  0  0  0  0  0  0  0  0  0  0
   -1.7517   -0.8483    0.3266 N   0  0  0  0  0  0  0  0  0  0  0  0
   -2.4847   -0.5123   -0.2804 H   0  0  0  0  0  0  0  0  0  0  0  0
   -0.4117   -0.2463    0.2186 C   0  0  1  0  0  0  0  0  0  0  0  0
    0.1554   -0.5152    1.1133 H   0  0  0  0  0  0  0  0  0  0  0  0
    0.3164   -0.8780   -0.9905 C   0  0  0  0  0  0  0  0  0  0  0  0
   -0.0776   -0.4308   -1.9067 H   0  0  0  0  0  0  0  0  0  0  0  0
    1.3769   -0.6224   -0.9394 H   0  0  0  0  0  0  0  0  0  0  0  0
    0.2000   -2.3838   -1.0969 C   0  0  0  0  0  0  0  0  0  0  0  0
    1.0716   -3.2939   -0.5306 N   0  3  0  0  0  0  0  0  0  0  0  0
    1.8523   -3.0266    0.0757 H   0  0  0  0  0  0  0  0  0  0  0  0
    0.6490   -4.5362   -0.8385 C   0  0  0  0  0  0  0  0  0  0  0  0
    1.1274   -5.4605   -0.5209 H   0  0  0  0  0  0  0  0  0  0  0  0
   -0.4712   -4.4342   -1.5889 N   0  0  0  0  0  0  0  0  0  0  0  0
   -1.0115   -5.2096   -1.9634 H   0  0  0  0  0  0  0  0  0  0  0  0
   -0.7671   -3.0890   -1.7608 C   0  0  0  0  0  0  0  0  0  0  0  0
   -1.6024   -2.6671   -2.3128 H   0  0  0  0  0  0  0  0  0  0  0  0
   -0.4874    1.2908    0.1962 C   0  0  0  0  0  0  0  0  0  0  0  0
   -1.3116    1.8673   -0.5151 O   0  0  0  0  0  0  0  0  0  0  0  0
    0.3889    1.9422    0.9708 N   0  0  0  0  0  0  0  0  0  0  0  0
    1.0197    1.3866    1.5283 H   0  0  0  0  0  0  0  0  0  0  0  0
    0.5081    3.3999    1.0720 C   0  0  0  0  0  0  0  0  0  0  0  0
    0.0188    3.7538    1.9817 H   0  0  0  0  0  0  0  0  0  0  0  0
    1.5607    3.6858    1.1098 H   0  0  0  0  0  0  0  0  0  0  0  0
    0.0459    3.8890    0.2119 H   0  0  0  0  0  0  0  0  0  0  0  0
  5  6  2  0  0  0  0
  5  7  1  0  0  0  0
  2  3  1  0  0  0  0
  2  4  1  0  0  0  0
  2  5  1  0  0  0  0
  1  2  1  0  0  0  0
 23 24  2  0  0  0  0
 23 25  1  0  0  0  0
 21 22  1  0  0  0  0
 19 20  1  0  0  0  0
 19 21  1  0  0  0  0
 17 18  1  0  0  0  0
 17 19  1  0  0  0  0
 15 16  1  0  0  0  0
 15 17  2  0  0  0  0
 14 15  1  0  0  0  0
 14 21  2  0  0  0  0
 11 12  1  0  0  0  0
 11 13  1  0  0  0  0
 11 14  1  0  0  0  0
  9 10  1  0  0  0  0
  9 11  1  0  0  0  0
  9 23  1  0  0  0  0
  7  8  1  0  0  0  0
  7  9  1  0  0  0  0
 27 28  1  0  0  0  0
 27 29  1  0  0  0  0
 27 30  1  0  0  0  0
 25 26  1  0  0  0  0
 25 27  1  0  0  0  0
M  CHG  1  15   1
M  END
$$$$
default_name
  -OEChem-02102213163D

 30 30  0     1  0  0  0  0  0999 V2000
   -3.5507   -3.2183    1.8116 H   0  0  0  0  0  0  0  0  0  0  0  0
   -3.4597   -2.3913    1.1076 C   0  0  0  0  0  0  0  0  0  0  0  0
   -4.1577   -1.6043    1.3866 H   0  0  0  0  0  0  0  0  0  0  0  0
   -3.6807   -2.7523    0.1036 H   0  0  0  0  0  0  0  0  0  0  0  0
   -2.0477   -1.8543    1.1546 C   0  0  0  0  0  0  0  0  0  0  0  0
   -1.2227   -2.3443    1.9146 O   0  0  0  0  0  0  0  0  0  0  0  0
   -1.7517   -0.8483    0.3266 N   0  0  0  0  0  0  0  0  0  0  0  0
   -2.4847   -0.5123   -0.2804 H   0  0  0  0  0  0  0  0  0  0  0  0
   -0.4117   -0.2463    0.2186 C   0  0  1  0  0  0  0  0  0  0  0  0
    0.1554   -0.5152    1.1133 H   0  0  0  0  0  0  0  0  0  0  0  0
    0.3164   -0.8780   -0.9905 C   0  0  0  0  0  0  0  0  0  0  0  0
   -0.0776   -0.4308   -1.9067 H   0  0  0  0  0  0  0  0  0  0  0  0
    1.3769   -0.6224   -0.9394 H   0  0  0  0  0  0  0  0  0  0  0  0
    0.2000   -2.3838   -1.0969 C   0  0  0  0  0  0  0  0  0  0  0  0
    0.8775   -3.2945   -0.3094 N   0  3  0  0  0  0  0  0  0  0  0  0
    1.4814   -3.0260    0.4728 H   0  0  0  0  0  0  0  0  0  0  0  0
    0.5227   -4.5366   -0.6939 C   0  0  0  0  0  0  0  0  0  0  0  0
    0.8839   -5.4610   -0.2477 H   0  0  0  0  0  0  0  0  0  0  0  0
   -0.3645   -4.4339   -1.7092 N   0  0  0  0  0  0  0  0  0  0  0  0
   -0.8063   -5.2090   -2.1966 H   0  0  0  0  0  0  0  0  0  0  0  0
   -0.5782   -3.0885   -1.9751 C   0  0  0  0  0  0  0  0  0  0  0  0
   -1.2345   -2.6660   -2.7309 H   0  0  0  0  0  0  0  0  0  0  0  0
   -0.4874    1.2908    0.1962 C   0  0  0  0  0  0  0  0  0  0  0  0
   -1.3116    1.8673   -0.5151 O   0  0  0  0  0  0  0  0  0  0  0  0
    0.3889    1.9422    0.9708 N   0  0  0  0  0  0  0  0  0  0  0  0
    1.0197    1.3866    1.5283 H   0  0  0  0  0  0  0  0  0  0  0  0
    0.5081    3.3999    1.0720 C   0  0  0  0  0  0  0  0  0  0  0  0
    0.0188    3.7538    1.9817 H   0  0  0  0  0  0  0  0  0  0  0  0
    1.5607    3.6858    1.1098 H   0  0  0  0  0  0  0  0  0  0  0  0
    0.0459    3.8890    0.2119 H   0  0  0  0  0  0  0  0  0  0  0  0
  5  6  2  0  0  0  0
  5  7  1  0  0  0  0
  2  3  1  0  0  0  0
  2  4  1  0  0  0  0
  2  5  1  0  0  0  0
  1  2  1  0  0  0  0
 23 24  2  0  0  0  0
 23 25  1  0  0  0  0
 21 22  1  0  0  0  0
 19 20  1  0  0  0  0
 19 21  1  0  0  0  0
 17 18  1  0  0  0  0
 17 19  1  0  0  0  0
 15 16  1  0  0  0  0
 15 17  2  0  0  0  0
 14 15  1  0  0  0  0
 14 21  2  0  0  0  0
 11 12  1  0  0  0  0
 11 13  1  0  0  0  0
 11 14  1  0  0  0  0
  9 10  1  0  0  0  0
  9 11  1  0  0  0  0
  9 23  1  0  0  0  0
  7  8  1  0  0  0  0
  7  9  1  0  0  0  0
 27 28  1  0  0  0  0
 27 29  1  0  0  0  0
 27 30  1  0  0  0  0
 25 26  1  0  0  0  0
 25 27  1  0  0  0  0
M  CHG  1  15   1
M  END
$$$$
default_name
  -OEChem-02102213163D

 30 30  0     1  0  0  0  0  0999 V2000
   -3.5507   -3.2183    1.8116 H   0  0  0  0  0  0  0  0  0  0  0  0
   -3.4597   -2.3913    1.1076 C   0  0  0  0  0  0  0  0  0  0  0  0
   -4.1577   -1.6043    1.3866 H   0  0  0  0  0  0  0  0  0  0  0  0
   -3.6807   -2.7523    0.1036 H   0  0  0  0  0  0  0  0  0  0  0  0
   -2.0477   -1.8543    1.1546 C   0  0  0  0  0  0  0  0  0  0  0  0
   -1.2227   -2.3443    1.9146 O   0  0  0  0  0  0  0  0  0  0  0  0
   -1.7517   -0.8483    0.3266 N   0  0  0  0  0  0  0  0  0  0  0  0
   -2.4847   -0.5123   -0.2804 H   0  0  0  0  0  0  0  0  0  0  0  0
   -0.4117   -0.2463    0.2186 C   0  0  1  0  0  0  0  0  0  0  0  0
    0.1554   -0.5152    1.1133 H   0  0  0  0  0  0  0  0  0  0  0  0
    0.3164   -0.8780   -0.9905 C   0  0  0  0  0  0  0  0  0  0  0  0
   -0.0776   -0.4308   -1.9067 H   0  0  0  0  0  0  0  0  0  0  0  0
    1.3769   -0.6224   -0.9394 H   0  0  0  0  0  0  0  0  0  0  0  0
    0.2000   -2.3838   -1.0969 C   0  0  0  0  0  0  0  0  0  0  0  0
    0.6330   -3.2872   -0.1457 N   0  3  0  0  0  0  0  0  0  0  0  0
    1.0209   -3.0108    0.7609 H   0  0  0  0  0  0  0  0  0  0  0  0
    0.3633   -4.5319   -0.5868 C   0  0  0  0  0  0  0  0  0  0  0  0
    0.5783   -5.4516   -0.0464 H   0  0  0  0  0  0  0  0  0  0  0  0
   -0.2305   -4.4380   -1.7980 N   0  0  0  0  0  0  0  0  0  0  0  0
   -0.5480   -5.2168   -2.3691 H   0  0  0  0  0  0  0  0  0  0  0  0
   -0.3406   -3.0957   -2.1334 C   0  0  0  0  0  0  0  0  0  0  0  0
   -0.7714   -2.6799   -3.0401 H   0  0  0  0  0  0  0  0  0  0  0  0
   -0.4874    1.2908    0.1962 C   0  0  0  0  0  0  0  0  0  0  0  0
   -1.3116    1.8673   -0.5151 O   0  0  0  0  0  0  0  0  0  0  0  0
    0.3889    1.9422    0.9708 N   0  0  0  0  0  0  0  0  0  0  0  0
    1.0197    1.3866    1.5283 H   0  0  0  0  0  0  0  0  0  0  0  0
    0.5081    3.3999    1.0720 C   0  0  0  0  0  0  0  0  0  0  0  0
    0.0188    3.7538    1.9817 H   0  0  0  0  0  0  0  0  0  0  0  0
    1.5607    3.6858    1.1098 H   0  0  0  0  0  0  0  0  0  0  0  0
    0.0459    3.8890    0.2119 H   0  0  0  0  0  0  0  0  0  0  0  0
  5  6  2  0  0  0  0
  5  7  1  0  0  0  0
  2  3  1  0  0  0  0
  2  4  1  0  0  0  0
  2  5  1  0  0  0  0
  1  2  1  0  0  0  0
 23 24  2  0  0  0  0
 23 25  1  0  0  0  0
 21 22  1  0  0  0  0
 19 20  1  0  0  0  0
 19 21  1  0  0  0  0
 17 18  1  0  0  0  0
 17 19  1  0  0  0  0
 15 16  1  0  0  0  0
 15 17  2  0  0  0  0
 14 15  1  0  0  0  0
 14 21  2  0  0  0  0
 11 12  1  0  0  0  0
 11 13  1  0  0  0  0
 11 14  1  0  0  0  0
  9 10  1  0  0  0  0
  9 11  1  0  0  0  0
  9 23  1  0  0  0  0
  7  8  1  0  0  0  0
  7  9  1  0  0  0  0
 27 28  1  0  0  0  0
 27 29  1  0  0  0  0
 27 30  1  0  0  0  0
 25 26  1  0  0  0  0
 25 27  1  0  0  0  0
M  CHG  1  15   1
M  END
$$$$
default_name
  -OEChem-02102213163D

 30 30  0     1  0  0  0  0  0999 V2000
   -3.5507   -3.2183    1.8116 H   0  0  0  0  0  0  0  0  0  0  0  0
   -3.4597   -2.3913    1.1076 C   0  0  0  0  0  0  0  0  0  0  0  0
   -4.1577   -1.6043    1.3866 H   0  0  0  0  0  0  0  0  0  0  0  0
   -3.6807   -2.7523    0.1036 H   0  0  0  0  0  0  0  0  0  0  0  0
   -2.0477   -1.8543    1.1546 C   0  0  0  0  0  0  0  0  0  0  0  0
   -1.2227   -2.3443    1.9146 O   0  0  0  0  0  0  0  0  0  0  0  0
   -1.7517   -0.8483    0.3266 N   0  0  0  0  0  0  0  0  0  0  0  0
   -2.4847   -0.5123   -0.2804 H   0  0  0  0  0  0  0  0  0  0  0  0
   -0.4117   -0.2463    0.2186 C   0  0  1  0  0  0  0  0  0  0  0  0
    0.1554   -0.5152    1.1133 H   0  0  0  0  0  0  0  0  0  0  0  0
    0.3164   -0.8780   -0.9905 C   0  0  0  0  0  0  0  0  0  0  0  0
   -0.0776   -0.4308   -1.9067 H   0  0  0  0  0  0  0  0  0  0  0  0
    1.3769   -0.6224   -0.9394 H   0  0  0  0  0  0  0  0  0  0  0  0
    0.2000   -2.3838   -1.0969 C   0  0  0  0  0  0  0  0  0  0  0  0
    0.3549   -3.2724   -0.0506 N   0  3  0  0  0  0  0  0  0  0  0  0
    0.5022   -2.9820    0.9204 H   0  0  0  0  0  0  0  0  0  0  0  0
    0.1820   -4.5223   -0.5244 C   0  0  0  0  0  0  0  0  0  0  0  0
    0.2316   -5.4329    0.0691 H   0  0  0  0  0  0  0  0  0  0  0  0
   -0.0783   -4.4462   -1.8492 N   0  0  0  0  0  0  0  0  0  0  0  0
   -0.2543   -5.2324   -2.4691 H   0  0  0  0  0  0  0  0  0  0  0  0
   -0.0704   -3.1101   -2.2251 C   0  0  0  0  0  0  0  0  0  0  0  0
   -0.2448   -2.7080   -3.2193 H   0  0  0  0  0  0  0  0  0  0  0  0
   -0.4874    1.2908    0.1962 C   0  0  0  0  0  0  0  0  0  0  0  0
   -1.3116    1.8673   -0.5151 O   0  0  0  0  0  0  0  0  0  0  0  0
    0.3889    1.9422    0.9708 N   0  0  0  0  0  0  0  0  0  0  0  0
    1.0197    1.3866    1.5283 H   0  0  0  0  0  0  0  0  0  0  0  0
    0.5081    3.3999    1.0720 C   0  0  0  0  0  0  0  0  0  0  0  0
    0.0188    3.7538    1.9817 H   0  0  0  0  0  0  0  0  0  0  0  0
    1.5607    3.6858    1.1098 H   0  0  0  0  0  0  0  0  0  0  0  0
    0.0459    3.8890    0.2119 H   0  0  0  0  0  0  0  0  0  0  0  0
  5  6  2  0  0  0  0
  5  7  1  0  0  0  0
  2  3  1  0  0  0  0
  2  4  1  0  0  0  0
  2  5  1  0  0  0  0
  1  2  1  0  0  0  0
 23 24  2  0  0  0  0
 23 25  1  0  0  0  0
 21 22  1  0  0  0  0
 19 20  1  0  0  0  0
 19 21  1  0  0  0  0
 17 18  1  0  0  0  0
 17 19  1  0  0  0  0
 15 16  1  0  0  0  0
 15 17  2  0  0  0  0
 14 15  1  0  0  0  0
 14 21  2  0  0  0  0
 11 12  1  0  0  0  0
 11 13  1  0  0  0  0
 11 14  1  0  0  0  0
  9 10  1  0  0  0  0
  9 11  1  0  0  0  0
  9 23  1  0  0  0  0
  7  8  1  0  0  0  0
  7  9  1  0  0  0  0
 27 28  1  0  0  0  0
 27 29  1  0  0  0  0
 27 30  1  0  0  0  0
 25 26  1  0  0  0  0
 25 27  1  0  0  0  0
M  CHG  1  15   1
M  END
$$$$
default_name
  -OEChem-02102213163D

 30 30  0     1  0  0  0  0  0999 V2000
   -3.5507   -3.2183    1.8116 H   0  0  0  0  0  0  0  0  0  0  0  0
   -3.4597   -2.3913    1.1076 C   0  0  0  0  0  0  0  0  0  0  0  0
   -4.1577   -1.6043    1.3866 H   0  0  0  0  0  0  0  0  0  0  0  0
   -3.6807   -2.7523    0.1036 H   0  0  0  0  0  0  0  0  0  0  0  0
   -2.0477   -1.8543    1.1546 C   0  0  0  0  0  0  0  0  0  0  0  0
   -1.2227   -2.3443    1.9146 O   0  0  0  0  0  0  0  0  0  0  0  0
   -1.7517   -0.8483    0.3266 N   0  0  0  0  0  0  0  0  0  0  0  0
   -2.4847   -0.5123   -0.2804 H   0  0  0  0  0  0  0  0  0  0  0  0
   -0.4117   -0.2463    0.2186 C   0  0  1  0  0  0  0  0  0  0  0  0
    0.1554   -0.5152    1.1133 H   0  0  0  0  0  0  0  0  0  0  0  0
    0.3164   -0.8780   -0.9905 C   0  0  0  0  0  0  0  0  0  0  0  0
   -0.0776   -0.4308   -1.9067 H   0  0  0  0  0  0  0  0  0  0  0  0
    1.3769   -0.6224   -0.9394 H   0  0  0  0  0  0  0  0  0  0  0  0
    0.2000   -2.3838   -1.0969 C   0  0  0  0  0  0  0  0  0  0  0  0
    0.0621   -3.2512   -0.0306 N   0  3  0  0  0  0  0  0  0  0  0  0
   -0.0394   -2.9415    0.9403 H   0  0  0  0  0  0  0  0  0  0  0  0
   -0.0091   -4.5085   -0.5110 C   0  0  0  0  0  0  0  0  0  0  0  0
   -0.1328   -5.4063    0.0911 H   0  0  0  0  0  0  0  0  0  0  0  0
    0.0818   -4.4578   -1.8592 N   0  0  0  0  0  0  0  0  0  0  0  0
    0.0548   -5.2549   -2.4897 H   0  0  0  0  0  0  0  0  0  0  0  0
    0.2138   -3.1307   -2.2438 C   0  0  0  0  0  0  0  0  0  0  0  0
    0.3095   -2.7482   -3.2562 H   0  0  0  0  0  0  0  0  0  0  0  0
   -0.4874    1.2908    0.1962 C   0  0  0  0  0  0  0  0  0  0  0  0
   -1.3116    1.8673   -0.5151 O   0  0  0  0  0  0  0  0  0  0  0  0
    0.3889    1.9422    0.9708 N   0  0  0  0  0  0  0  0  0  0  0  0
    1.0197    1.3866    1.5283 H   0  0  0  0  0  0  0  0  0  0  0  0
    0.5081    3.3999    1.0720 C   0  0  0  0  0  0  0  0  0  0  0  0
    0.0188    3.7538    1.9817 H   0  0  0  0  0  0  0  0  0  0  0  0
    1.5607    3.6858    1.1098 H   0  0  0  0  0  0  0  0  0  0  0  0
    0.0459    3.8890    0.2119 H   0  0  0  0  0  0  0  0  0  0  0  0
  5  6  2  0  0  0  0
  5  7  1  0  0  0  0
  2  3  1  0  0  0  0
  2  4  1  0  0  0  0
  2  5  1  0  0  0  0
  1  2  1  0  0  0  0
 23 24  2  0  0  0  0
 23 25  1  0  0  0  0
 21 22  1  0  0  0  0
 19 20  1  0  0  0  0
 19 21  1  0  0  0  0
 17 18  1  0  0  0  0
 17 19  1  0  0  0  0
 15 16  1  0  0  0  0
 15 17  2  0  0  0  0
 14 15  1  0  0  0  0
 14 21  2  0  0  0  0
 11 12  1  0  0  0  0
 11 13  1  0  0  0  0
 11 14  1  0  0  0  0
  9 10  1  0  0  0  0
  9 11  1  0  0  0  0
  9 23  1  0  0  0  0
  7  8  1  0  0  0  0
  7  9  1  0  0  0  0
 27 28  1  0  0  0  0
 27 29  1  0  0  0  0
 27 30  1  0  0  0  0
 25 26  1  0  0  0  0
 25 27  1  0  0  0  0
M  CHG  1  15   1
M  END
$$$$
default_name
  -OEChem-02102213163D

 30 30  0     1  0  0  0  0  0999 V2000
   -3.5507   -3.2183    1.8116 H   0  0  0  0  0  0  0  0  0  0  0  0
   -3.4597   -2.3913    1.1076 C   0  0  0  0  0  0  0  0  0  0  0  0
   -4.1577   -1.6043    1.3866 H   0  0  0  0  0  0  0  0  0  0  0  0
   -3.6807   -2.7523    0.1036 H   0  0  0  0  0  0  0  0  0  0  0  0
   -2.0477   -1.8543    1.1546 C   0  0  0  0  0  0  0  0  0  0  0  0
   -1.2227   -2.3443    1.9146 O   0  0  0  0  0  0  0  0  0  0  0  0
   -1.7517   -0.8483    0.3266 N   0  0  0  0  0  0  0  0  0  0  0  0
   -2.4847   -0.5123   -0.2804 H   0  0  0  0  0  0  0  0  0  0  0  0
   -0.4117   -0.2463    0.2186 C   0  0  1  0  0  0  0  0  0  0  0  0
    0.1554   -0.5152    1.1133 H   0  0  0  0  0  0  0  0  0  0  0  0
    0.3164   -0.8780   -0.9905 C   0  0  0  0  0  0  0  0  0  0  0  0
   -0.0776   -0.4308   -1.9067 H   0  0  0  0  0  0  0  0  0  0  0  0
    1.3769   -0.6224   -0.9394 H   0  0  0  0  0  0  0  0  0  0  0  0
    0.2000   -2.3838   -1.0969 C   0  0  0  0  0  0  0  0  0  0  0  0
   -0.2256   -3.2250   -0.0871 N   0  3  0  0  0  0  0  0  0  0  0  0
   -0.5669   -2.8922    0.8193 H   0  0  0  0  0  0  0  0  0  0  0  0
   -0.1969   -4.4914   -0.5476 C   0  0  0  0  0  0  0  0  0  0  0  0
   -0.4899   -5.3736    0.0180 H   0  0  0  0  0  0  0  0  0  0  0  0
    0.2388   -4.4722   -1.8275 N   0  0  0  0  0  0  0  0  0  0  0  0
    0.3584   -5.2826   -2.4296 H   0  0  0  0  0  0  0  0  0  0  0  0
    0.4929   -3.1562   -2.1883 C   0  0  0  0  0  0  0  0  0  0  0  0
    0.8536   -2.7978   -3.1484 H   0  0  0  0  0  0  0  0  0  0  0  0
   -0.4874    1.2908    0.1962 C   0  0  0  0  0  0  0  0  0  0  0  0
   -1.3116    1.8673   -0.5151 O   0  0  0  0  0  0  0  0  0  0  0  0
    0.3889    1.9422    0.9708 N   0  0  0  0  0  0  0  0  0  0  0  0
    1.0197    1.3866    1.5283 H   0  0  0  0  0  0  0  0  0  0  0  0
    0.5081    3.3999    1.0720 C   0  0  0  0  0  0  0  0  0  0  0  0
    0.0188    3.7538    1.9817 H   0  0  0  0  0  0  0  0  0  0  0  0
    1.5607    3.6858    1.1098 H   0  0  0  0  0  0  0  0  0  0  0  0
    0.0459    3.8890    0.2119 H   0  0  0  0  0  0  0  0  0  0  0  0
  5  6  2  0  0  0  0
  5  7  1  0  0  0  0
  2  3  1  0  0  0  0
  2  4  1  0  0  0  0
  2  5  1  0  0  0  0
  1  2  1  0  0  0  0
 23 24  2  0  0  0  0
 23 25  1  0  0  0  0
 21 22  1  0  0  0  0
 19 20  1  0  0  0  0
 19 21  1  0  0  0  0
 17 18  1  0  0  0  0
 17 19  1  0  0  0  0
 15 16  1  0  0  0  0
 15 17  2  0  0  0  0
 14 15  1  0  0  0  0
 14 21  2  0  0  0  0
 11 12  1  0  0  0  0
 11 13  1  0  0  0  0
 11 14  1  0  0  0  0
  9 10  1  0  0  0  0
  9 11  1  0  0  0  0
  9 23  1  0  0  0  0
  7  8  1  0  0  0  0
  7  9  1  0  0  0  0
 27 28  1  0  0  0  0
 27 29  1  0  0  0  0
 27 30  1  0  0  0  0
 25 26  1  0  0  0  0
 25 27  1  0  0  0  0
M  CHG  1  15   1
M  END
$$$$
default_name
  -OEChem-02102213163D

 30 30  0     1  0  0  0  0  0999 V2000
   -3.5507   -3.2183    1.8116 H   0  0  0  0  0  0  0  0  0  0  0  0
   -3.4597   -2.3913    1.1076 C   0  0  0  0  0  0  0  0  0  0  0  0
   -4.1577   -1.6043    1.3866 H   0  0  0  0  0  0  0  0  0  0  0  0
   -3.6807   -2.7523    0.1036 H   0  0  0  0  0  0  0  0  0  0  0  0
   -2.0477   -1.8543    1.1546 C   0  0  0  0  0  0  0  0  0  0  0  0
   -1.2227   -2.3443    1.9146 O   0  0  0  0  0  0  0  0  0  0  0  0
   -1.7517   -0.8483    0.3266 N   0  0  0  0  0  0  0  0  0  0  0  0
   -2.4847   -0.5123   -0.2804 H   0  0  0  0  0  0  0  0  0  0  0  0
   -0.4117   -0.2463    0.2186 C   0  0  1  0  0  0  0  0  0  0  0  0
    0.1554   -0.5152    1.1133 H   0  0  0  0  0  0  0  0  0  0  0  0
    0.3164   -0.8780   -0.9905 C   0  0  0  0  0  0  0  0  0  0  0  0
   -0.0776   -0.4308   -1.9067 H   0  0  0  0  0  0  0  0  0  0  0  0
    1.3769   -0.6224   -0.9394 H   0  0  0  0  0  0  0  0  0  0  0  0
    0.2000   -2.3838   -1.0969 C   0  0  0  0  0  0  0  0  0  0  0  0
   -0.4884   -3.1956   -0.2162 N   0  3  0  0  0  0  0  0  0  0  0  0
   -1.0444   -2.8374    0.5657 H   0  0  0  0  0  0  0  0  0  0  0  0
   -0.3685   -4.4722   -0.6316 C   0  0  0  0  0  0  0  0  0  0  0  0
   -0.8155   -5.3369   -0.1452 H   0  0  0  0  0  0  0  0  0  0  0  0
    0.3821   -4.4883   -1.7562 N   0  0  0  0  0  0  0  0  0  0  0  0
    0.6356   -5.3136   -2.2929 H   0  0  0  0  0  0  0  0  0  0  0  0
    0.7476   -3.1848   -2.0623 C   0  0  0  0  0  0  0  0  0  0  0  0
    1.3506   -2.8536   -2.9033 H   0  0  0  0  0  0  0  0  0  0  0  0
   -0.4874    1.2908    0.1962 C   0  0  0  0  0  0  0  0  0  0  0  0
   -1.3116    1.8673   -0.5151 O   0  0  0  0  0  0  0  0  0  0  0  0
    0.3889    1.9422    0.9708 N   0  0  0  0  0  0  0  0  0  0  0  0
    1.0197    1.3866    1.5283 H   0  0  0  0  0  0  0  0  0  0  0  0
    0.5081    3.3999    1.0720 C   0  0  0  0  0  0  0  0  0  0  0  0
    0.0188    3.7538    1.9817 H   0  0  0  0  0  0  0  0  0  0  0  0
    1.5607    3.6858    1.1098 H   0  0  0  0  0  0  0  0  0  0  0  0
    0.0459    3.8890    0.2119 H   0  0  0  0  0  0  0  0  0  0  0  0
  5  6  2  0  0  0  0
  5  7  1  0  0  0  0
  2  3  1  0  0  0  0
  2  4  1  0  0  0  0
  2  5  1  0  0  0  0
  1  2  1  0  0  0  0
 23 24  2  0  0  0  0
 23 25  1  0  0  0  0
 21 22  1  0  0  0  0
 19 20  1  0  0  0  0
 19 21  1  0  0  0  0
 17 18  1  0  0  0  0
 17 19  1  0  0  0  0
 15 16  1  0  0  0  0
 15 17  2  0  0  0  0
 14 15  1  0  0  0  0
 14 21  2  0  0  0  0
 11 12  1  0  0  0  0
 11 13  1  0  0  0  0
 11 14  1  0  0  0  0
  9 10  1  0  0  0  0
  9 11  1  0  0  0  0
  9 23  1  0  0  0  0
  7  8  1  0  0  0  0
  7  9  1  0  0  0  0
 27 28  1  0  0  0  0
 27 29  1  0  0  0  0
 27 30  1  0  0  0  0
 25 26  1  0  0  0  0
 25 27  1  0  0  0  0
M  CHG  1  15   1
M  END
$$$$
default_name
  -OEChem-02102213163D

 30 30  0     1  0  0  0  0  0999 V2000
   -3.5507   -3.2183    1.8116 H   0  0  0  0  0  0  0  0  0  0  0  0
   -3.4597   -2.3913    1.1076 C   0  0  0  0  0  0  0  0  0  0  0  0
   -4.1577   -1.6043    1.3866 H   0  0  0  0  0  0  0  0  0  0  0  0
   -3.6807   -2.7523    0.1036 H   0  0  0  0  0  0  0  0  0  0  0  0
   -2.0477   -1.8543    1.1546 C   0  0  0  0  0  0  0  0  0  0  0  0
   -1.2227   -2.3443    1.9146 O   0  0  0  0  0  0  0  0  0  0  0  0
   -1.7517   -0.8483    0.3266 N   0  0  0  0  0  0  0  0  0  0  0  0
   -2.4847   -0.5123   -0.2804 H   0  0  0  0  0  0  0  0  0  0  0  0
   -0.4117   -0.2463    0.2186 C   0  0  1  0  0  0  0  0  0  0  0  0
    0.1554   -0.5152    1.1133 H   0  0  0  0  0  0  0  0  0  0  0  0
    0.3164   -0.8780   -0.9905 C   0  0  0  0  0  0  0  0  0  0  0  0
   -0.0776   -0.4308   -1.9067 H   0  0  0  0  0  0  0  0  0  0  0  0
    1.3769   -0.6224   -0.9394 H   0  0  0  0  0  0  0  0  0  0  0  0
    0.2000   -2.3838   -1.0969 C   0  0  0  0  0  0  0  0  0  0  0  0
   -0.7085   -3.1649   -0.4092 N   0  3  0  0  0  0  0  0  0  0  0  0
   -1.4393   -2.7809    0.1967 H   0  0  0  0  0  0  0  0  0  0  0  0
   -0.5124   -4.4522   -0.7572 C   0  0  0  0  0  0  0  0  0  0  0  0
   -1.0872   -5.2988   -0.3873 H   0  0  0  0  0  0  0  0  0  0  0  0
    0.5018   -4.5050   -1.6501 N   0  0  0  0  0  0  0  0  0  0  0  0
    0.8676   -5.3460   -2.0888 H   0  0  0  0  0  0  0  0  0  0  0  0
    0.9608   -3.2145   -1.8745 C   0  0  0  0  0  0  0  0  0  0  0  0
    1.7665   -2.9115   -2.5374 H   0  0  0  0  0  0  0  0  0  0  0  0
   -0.4874    1.2908    0.1962 C   0  0  0  0  0  0  0  0  0  0  0  0
   -1.3116    1.8673   -0.5151 O   0  0  0  0  0  0  0  0  0  0  0  0
    0.3889    1.9422    0.9708 N   0  0  0  0  0  0  0  0  0  0  0  0
    1.0197    1.3866    1.5283 H   0  0  0  0  0  0  0  0  0  0  0  0
    0.5081    3.3999    1.0720 C   0  0  0  0  0  0  0  0  0  0  0  0
    0.0188    3.7538    1.9817 H   0  0  0  0  0  0  0  0  0  0  0  0
    1.5607    3.6858    1.1098 H   0  0  0  0  0  0  0  0  0  0  0  0
    0.0459    3.8890    0.2119 H   0  0  0  0  0  0  0  0  0  0  0  0
  5  6  2  0  0  0  0
  5  7  1  0  0  0  0
  2  3  1  0  0  0  0
  2  4  1  0  0  0  0
  2  5  1  0  0  0  0
  1  2  1  0  0  0  0
 23 24  2  0  0  0  0
 23 25  1  0  0  0  0
 21 22  1  0  0  0  0
 19 20  1  0  0  0  0
 19 21  1  0  0  0  0
 17 18  1  0  0  0  0
 17 19  1  0  0  0  0
 15 16  1  0  0  0  0
 15 17  2  0  0  0  0
 14 15  1  0  0  0  0
 14 21  2  0  0  0  0
 11 12  1  0  0  0  0
 11 13  1  0  0  0  0
 11 14  1  0  0  0  0
  9 10  1  0  0  0  0
  9 11  1  0  0  0  0
  9 23  1  0  0  0  0
  7  8  1  0  0  0  0
  7  9  1  0  0  0  0
 27 28  1  0  0  0  0
 27 29  1  0  0  0  0
 27 30  1  0  0  0  0
 25 26  1  0  0  0  0
 25 27  1  0  0  0  0
M  CHG  1  15   1
M  END
$$$$
default_name
  -OEChem-02102213163D

 30 30  0     1  0  0  0  0  0999 V2000
   -3.5507   -3.2183    1.8116 H   0  0  0  0  0  0  0  0  0  0  0  0
   -3.4597   -2.3913    1.1076 C   0  0  0  0  0  0  0  0  0  0  0  0
   -4.1577   -1.6043    1.3866 H   0  0  0  0  0  0  0  0  0  0  0  0
   -3.6807   -2.7523    0.1036 H   0  0  0  0  0  0  0  0  0  0  0  0
   -2.0477   -1.8543    1.1546 C   0  0  0  0  0  0  0  0  0  0  0  0
   -1.2227   -2.3443    1.9146 O   0  0  0  0  0  0  0  0  0  0  0  0
   -1.7517   -0.8483    0.3266 N   0  0  0  0  0  0  0  0  0  0  0  0
   -2.4847   -0.5123   -0.2804 H   0  0  0  0  0  0  0  0  0  0  0  0
   -0.4117   -0.2463    0.2186 C   0  0  1  0  0  0  0  0  0  0  0  0
    0.1554   -0.5152    1.1133 H   0  0  0  0  0  0  0  0  0  0  0  0
    0.3164   -0.8780   -0.9905 C   0  0  0  0  0  0  0  0  0  0  0  0
   -0.0776   -0.4308   -1.9067 H   0  0  0  0  0  0  0  0  0  0  0  0
    1.3769   -0.6224   -0.9394 H   0  0  0  0  0  0  0  0  0  0  0  0
    0.2000   -2.3838   -1.0969 C   0  0  0  0  0  0  0  0  0  0  0  0
   -0.8708   -3.1352   -0.6529 N   0  3  0  0  0  0  0  0  0  0  0  0
   -1.7247   -2.7264   -0.2625 H   0  0  0  0  0  0  0  0  0  0  0  0
   -0.6186   -4.4328   -0.9160 C   0  0  0  0  0  0  0  0  0  0  0  0
   -1.2867   -5.2619   -0.6920 H   0  0  0  0  0  0  0  0  0  0  0  0
    0.5898   -4.5213   -1.5165 N   0  0  0  0  0  0  0  0  0  0  0  0
    1.0386   -5.3774   -1.8314 H   0  0  0  0  0  0  0  0  0  0  0  0
    1.1178   -3.2433   -1.6376 C   0  0  0  0  0  0  0  0  0  0  0  0
    2.0731   -2.9678   -2.0758 H   0  0  0  0  0  0  0  0  0  0  0  0
   -0.4874    1.2908    0.1962 C   0  0  0  0  0  0  0  0  0  0  0  0
   -1.3116    1.8673   -0.5151 O   0  0  0  0  0  0  0  0  0  0  0  0
    0.3889    1.9422    0.9708 N   0  0  0  0  0  0  0  0  0  0  0  0
    1.0197    1.3866    1.5283 H   0  0  0  0  0  0  0  0  0  0  0  0
    0.5081    3.3999    1.0720 C   0  0  0  0  0  0  0  0  0  0  0  0
    0.0188    3.7538    1.9817 H   0  0  0  0  0  0  0  0  0  0  0  0
    1.5607    3.6858    1.1098 H   0  0  0  0  0  0  0  0  0  0  0  0
    0.0459    3.8890    0.2119 H   0  0  0  0  0  0  0  0  0  0  0  0
  5  6  2  0  0  0  0
  5  7  1  0  0  0  0
  2  3  1  0  0  0  0
  2  4  1  0  0  0  0
  2  5  1  0  0  0  0
  1  2  1  0  0  0  0
 23 24  2  0  0  0  0
 23 25  1  0  0  0  0
 21 22  1  0  0  0  0
 19 20  1  0  0  0  0
 19 21  1  0  0  0  0
 17 18  1  0  0  0  0
 17 19  1  0  0  0  0
 15 16  1  0  0  0  0
 15 17  2  0  0  0  0
 14 15  1  0  0  0  0
 14 21  2  0  0  0  0
 11 12  1  0  0  0  0
 11 13  1  0  0  0  0
 11 14  1  0  0  0  0
  9 10  1  0  0  0  0
  9 11  1  0  0  0  0
  9 23  1  0  0  0  0
  7  8  1  0  0  0  0
  7  9  1  0  0  0  0
 27 28  1  0  0  0  0
 27 29  1  0  0  0  0
 27 30  1  0  0  0  0
 25 26  1  0  0  0  0
 25 27  1  0  0  0  0
M  CHG  1  15   1
M  END
$$$$
default_name
  -OEChem-02102213163D

 30 30  0     1  0  0  0  0  0999 V2000
   -3.5507   -3.2183    1.8116 H   0  0  0  0  0  0  0  0  0  0  0  0
   -3.4597   -2.3913    1.1076 C   0  0  0  0  0  0  0  0  0  0  0  0
   -4.1577   -1.6043    1.3866 H   0  0  0  0  0  0  0  0  0  0  0  0
   -3.6807   -2.7523    0.1036 H   0  0  0  0  0  0  0  0  0  0  0  0
   -2.0477   -1.8543    1.1546 C   0  0  0  0  0  0  0  0  0  0  0  0
   -1.2227   -2.3443    1.9146 O   0  0  0  0  0  0  0  0  0  0  0  0
   -1.7517   -0.8483    0.3266 N   0  0  0  0  0  0  0  0  0  0  0  0
   -2.4847   -0.5123   -0.2804 H   0  0  0  0  0  0  0  0  0  0  0  0
   -0.4117   -0.2463    0.2186 C   0  0  1  0  0  0  0  0  0  0  0  0
    0.1554   -0.5152    1.1133 H   0  0  0  0  0  0  0  0  0  0  0  0
    0.3164   -0.8780   -0.9905 C   0  0  0  0  0  0  0  0  0  0  0  0
   -0.0776   -0.4308   -1.9067 H   0  0  0  0  0  0  0  0  0  0  0  0
    1.3769   -0.6224   -0.9394 H   0  0  0  0  0  0  0  0  0  0  0  0
    0.2000   -2.3838   -1.0969 C   0  0  0  0  0  0  0  0  0  0  0  0
   -0.9644   -3.1083   -0.9306 N   0  3  0  0  0  0  0  0  0  0  0  0
   -1.8813   -2.6777   -0.7806 H   0  0  0  0  0  0  0  0  0  0  0  0
   -0.6799   -4.4153   -1.0972 C   0  0  0  0  0  0  0  0  0  0  0  0
   -1.4003   -5.2287   -1.0383 H   0  0  0  0  0  0  0  0  0  0  0  0
    0.6401   -4.5359   -1.3644 N   0  0  0  0  0  0  0  0  0  0  0  0
    1.1369   -5.4057   -1.5381 H   0  0  0  0  0  0  0  0  0  0  0  0
    1.2079   -3.2694   -1.3678 C   0  0  0  0  0  0  0  0  0  0  0  0
    2.2493   -3.0186   -1.5499 H   0  0  0  0  0  0  0  0  0  0  0  0
   -0.4874    1.2908    0.1962 C   0  0  0  0  0  0  0  0  0  0  0  0
   -1.3116    1.8673   -0.5151 O   0  0  0  0  0  0  0  0  0  0  0  0
    0.3889    1.9422    0.9708 N   0  0  0  0  0  0  0  0  0  0  0  0
    1.0197    1.3866    1.5283 H   0  0  0  0  0  0  0  0  0  0  0  0
    0.5081    3.3999    1.0720 C   0  0  0  0  0  0  0  0  0  0  0  0
    0.0188    3.7538    1.9817 H   0  0  0  0  0  0  0  0  0  0  0  0
    1.5607    3.6858    1.1098 H   0  0  0  0  0  0  0  0  0  0  0  0
    0.0459    3.8890    0.2119 H   0  0  0  0  0  0  0  0  0  0  0  0
  5  6  2  0  0  0  0
  5  7  1  0  0  0  0
  2  3  1  0  0  0  0
  2  4  1  0  0  0  0
  2  5  1  0  0  0  0
  1  2  1  0  0  0  0
 23 24  2  0  0  0  0
 23 25  1  0  0  0  0
 21 22  1  0  0  0  0
 19 20  1  0  0  0  0
 19 21  1  0  0  0  0
 17 18  1  0  0  0  0
 17 19  1  0  0  0  0
 15 16  1  0  0  0  0
 15 17  2  0  0  0  0
 14 15  1  0  0  0  0
 14 21  2  0  0  0  0
 11 12  1  0  0  0  0
 11 13  1  0  0  0  0
 11 14  1  0  0  0  0
  9 10  1  0  0  0  0
  9 11  1  0  0  0  0
  9 23  1  0  0  0  0
  7  8  1  0  0  0  0
  7  9  1  0  0  0  0
 27 28  1  0  0  0  0
 27 29  1  0  0  0  0
 27 30  1  0  0  0  0
 25 26  1  0  0  0  0
 25 27  1  0  0  0  0
M  CHG  1  15   1
M  END
$$$$
default_name
  -OEChem-02102213163D

 30 30  0     1  0  0  0  0  0999 V2000
   -3.5507   -3.2183    1.8116 H   0  0  0  0  0  0  0  0  0  0  0  0
   -3.4597   -2.3913    1.1076 C   0  0  0  0  0  0  0  0  0  0  0  0
   -4.1577   -1.6043    1.3866 H   0  0  0  0  0  0  0  0  0  0  0  0
   -3.6807   -2.7523    0.1036 H   0  0  0  0  0  0  0  0  0  0  0  0
   -2.0477   -1.8543    1.1546 C   0  0  0  0  0  0  0  0  0  0  0  0
   -1.2227   -2.3443    1.9146 O   0  0  0  0  0  0  0  0  0  0  0  0
   -1.7517   -0.8483    0.3266 N   0  0  0  0  0  0  0  0  0  0  0  0
   -2.4847   -0.5123   -0.2804 H   0  0  0  0  0  0  0  0  0  0  0  0
   -0.4117   -0.2463    0.2186 C   0  0  1  0  0  0  0  0  0  0  0  0
    0.1554   -0.5152    1.1133 H   0  0  0  0  0  0  0  0  0  0  0  0
    0.3164   -0.8780   -0.9905 C   0  0  0  0  0  0  0  0  0  0  0  0
   -0.0776   -0.4308   -1.9067 H   0  0  0  0  0  0  0  0  0  0  0  0
    1.3769   -0.6224   -0.9394 H   0  0  0  0  0  0  0  0  0  0  0  0
    0.2000   -2.3838   -1.0969 C   0  0  0  0  0  0  0  0  0  0  0  0
   -0.9827   -3.0862   -1.2235 N   0  3  0  0  0  0  0  0  0  0  0  0
   -1.8982   -2.6381   -1.3223 H   0  0  0  0  0  0  0  0  0  0  0  0
   -0.6923   -4.4008   -1.2883 C   0  0  0  0  0  0  0  0  0  0  0  0
   -1.4203   -5.2014   -1.4027 H   0  0  0  0  0  0  0  0  0  0  0  0
    0.6493   -4.5479   -1.2043 N   0  0  0  0  0  0  0  0  0  0  0  0
    1.1559   -5.4290   -1.2289 H   0  0  0  0  0  0  0  0  0  0  0  0
    1.2251   -3.2908   -1.0835 C   0  0  0  0  0  0  0  0  0  0  0  0
    2.2832   -3.0603   -0.9956 H   0  0  0  0  0  0  0  0  0  0  0  0
   -0.4874    1.2908    0.1962 C   0  0  0  0  0  0  0  0  0  0  0  0
   -1.3116    1.8673   -0.5151 O   0  0  0  0  0  0  0  0  0  0  0  0
    0.3889    1.9422    0.9708 N   0  0  0  0  0  0  0  0  0  0  0  0
    1.0197    1.3866    1.5283 H   0  0  0  0  0  0  0  0  0  0  0  0
    0.5081    3.3999    1.0720 C   0  0  0  0  0  0  0  0  0  0  0  0
    0.0188    3.7538    1.9817 H   0  0  0  0  0  0  0  0  0  0  0  0
    1.5607    3.6858    1.1098 H   0  0  0  0  0  0  0  0  0  0  0  0
    0.0459    3.8890    0.2119 H   0  0  0  0  0  0  0  0  0  0  0  0
  5  6  2  0  0  0  0
  5  7  1  0  0  0  0
  2  3  1  0  0  0  0
  2  4  1  0  0  0  0
  2  5  1  0  0  0  0
  1  2  1  0  0  0  0
 23 24  2  0  0  0  0
 23 25  1  0  0  0  0
 21 22  1  0  0  0  0
 19 20  1  0  0  0  0
 19 21  1  0  0  0  0
 17 18  1  0  0  0  0
 17 19  1  0  0  0  0
 15 16  1  0  0  0  0
 15 17  2  0  0  0  0
 14 15  1  0  0  0  0
 14 21  2  0  0  0  0
 11 12  1  0  0  0  0
 11 13  1  0  0  0  0
 11 14  1  0  0  0  0
  9 10  1  0  0  0  0
  9 11  1  0  0  0  0
  9 23  1  0  0  0  0
  7  8  1  0  0  0  0
  7  9  1  0  0  0  0
 27 28  1  0  0  0  0
 27 29  1  0  0  0  0
 27 30  1  0  0  0  0
 25 26  1  0  0  0  0
 25 27  1  0  0  0  0
M  CHG  1  15   1
M  END
$$$$
default_name
  -OEChem-02102213163D

 30 30  0     1  0  0  0  0  0999 V2000
   -3.5507   -3.2183    1.8116 H   0  0  0  0  0  0  0  0  0  0  0  0
   -3.4597   -2.3913    1.1076 C   0  0  0  0  0  0  0  0  0  0  0  0
   -4.1577   -1.6043    1.3866 H   0  0  0  0  0  0  0  0  0  0  0  0
   -3.6807   -2.7523    0.1036 H   0  0  0  0  0  0  0  0  0  0  0  0
   -2.0477   -1.8543    1.1546 C   0  0  0  0  0  0  0  0  0  0  0  0
   -1.2227   -2.3443    1.9146 O   0  0  0  0  0  0  0  0  0  0  0  0
   -1.7517   -0.8483    0.3266 N   0  0  0  0  0  0  0  0  0  0  0  0
   -2.4847   -0.5123   -0.2804 H   0  0  0  0  0  0  0  0  0  0  0  0
   -0.4117   -0.2463    0.2186 C   0  0  1  0  0  0  0  0  0  0  0  0
    0.1554   -0.5152    1.1133 H   0  0  0  0  0  0  0  0  0  0  0  0
    0.3164   -0.8780   -0.9905 C   0  0  0  0  0  0  0  0  0  0  0  0
   -0.0776   -0.4308   -1.9067 H   0  0  0  0  0  0  0  0  0  0  0  0
    1.3769   -0.6224   -0.9394 H   0  0  0  0  0  0  0  0  0  0  0  0
    0.2000   -2.3838   -1.0969 C   0  0  0  0  0  0  0  0  0  0  0  0
   -0.9247   -3.0704   -1.5116 N   0  3  0  0  0  0  0  0  0  0  0  0
   -1.7745   -2.6104   -1.8508 H   0  0  0  0  0  0  0  0  0  0  0  0
   -0.6547   -4.3904   -1.4763 C   0  0  0  0  0  0  0  0  0  0  0  0
   -1.3453   -5.1819   -1.7604 H   0  0  0  0  0  0  0  0  0  0  0  0
    0.6167   -4.5565   -1.0471 N   0  0  0  0  0  0  0  0  0  0  0  0
    1.0941   -5.4457   -0.9248 H   0  0  0  0  0  0  0  0  0  0  0  0
    1.1681   -3.3061   -0.8040 C   0  0  0  0  0  0  0  0  0  0  0  0
    2.1725   -3.0903   -0.4505 H   0  0  0  0  0  0  0  0  0  0  0  0
   -0.4874    1.2908    0.1962 C   0  0  0  0  0  0  0  0  0  0  0  0
   -1.3116    1.8673   -0.5151 O   0  0  0  0  0  0  0  0  0  0  0  0
    0.3889    1.9422    0.9708 N   0  0  0  0  0  0  0  0  0  0  0  0
    1.0197    1.3866    1.5283 H   0  0  0  0  0  0  0  0  0  0  0  0
    0.5081    3.3999    1.0720 C   0  0  0  0  0  0  0  0  0  0  0  0
    0.0188    3.7538    1.9817 H   0  0  0  0  0  0  0  0  0  0  0  0
    1.5607    3.6858    1.1098 H   0  0  0  0  0  0  0  0  0  0  0  0
    0.0459    3.8890    0.2119 H   0  0  0  0  0  0  0  0  0  0  0  0
  5  6  2  0  0  0  0
  5  7  1  0  0  0  0
  2  3  1  0  0  0  0
  2  4  1  0  0  0  0
  2  5  1  0  0  0  0
  1  2  1  0  0  0  0
 23 24  2  0  0  0  0
 23 25  1  0  0  0  0
 21 22  1  0  0  0  0
 19 20  1  0  0  0  0
 19 21  1  0  0  0  0
 17 18  1  0  0  0  0
 17 19  1  0  0  0  0
 15 16  1  0  0  0  0
 15 17  2  0  0  0  0
 14 15  1  0  0  0  0
 14 21  2  0  0  0  0
 11 12  1  0  0  0  0
 11 13  1  0  0  0  0
 11 14  1  0  0  0  0
  9 10  1  0  0  0  0
  9 11  1  0  0  0  0
  9 23  1  0  0  0  0
  7  8  1  0  0  0  0
  7  9  1  0  0  0  0
 27 28  1  0  0  0  0
 27 29  1  0  0  0  0
 27 30  1  0  0  0  0
 25 26  1  0  0  0  0
 25 27  1  0  0  0  0
M  CHG  1  15   1
M  END
$$$$
default_name
  -OEChem-02102213163D

 30 30  0     1  0  0  0  0  0999 V2000
   -3.5507   -3.2183    1.8116 H   0  0  0  0  0  0  0  0  0  0  0  0
   -3.4597   -2.3913    1.1076 C   0  0  0  0  0  0  0  0  0  0  0  0
   -4.1577   -1.6043    1.3866 H   0  0  0  0  0  0  0  0  0  0  0  0
   -3.6807   -2.7523    0.1036 H   0  0  0  0  0  0  0  0  0  0  0  0
   -2.0477   -1.8543    1.1546 C   0  0  0  0  0  0  0  0  0  0  0  0
   -1.2227   -2.3443    1.9146 O   0  0  0  0  0  0  0  0  0  0  0  0
   -1.7517   -0.8483    0.3266 N   0  0  0  0  0  0  0  0  0  0  0  0
   -2.4847   -0.5123   -0.2804 H   0  0  0  0  0  0  0  0  0  0  0  0
   -0.4117   -0.2463    0.2186 C   0  0  1  0  0  0  0  0  0  0  0  0
    0.1554   -0.5152    1.1133 H   0  0  0  0  0  0  0  0  0  0  0  0
    0.3164   -0.8780   -0.9905 C   0  0  0  0  0  0  0  0  0  0  0  0
   -0.0776   -0.4308   -1.9067 H   0  0  0  0  0  0  0  0  0  0  0  0
    1.3769   -0.6224   -0.9394 H   0  0  0  0  0  0  0  0  0  0  0  0
    0.2000   -2.3838   -1.0969 C   0  0  0  0  0  0  0  0  0  0  0  0
   -0.7942   -3.0619   -1.7752 N   0  3  0  0  0  0  0  0  0  0  0  0
   -1.5184   -2.5963   -2.3299 H   0  0  0  0  0  0  0  0  0  0  0  0
   -0.5699   -4.3848   -1.6485 C   0  0  0  0  0  0  0  0  0  0  0  0
   -1.1804   -5.1716   -2.0870 H   0  0  0  0  0  0  0  0  0  0  0  0
    0.5446   -4.5611   -0.9034 N   0  0  0  0  0  0  0  0  0  0  0  0
    0.9560   -5.4546   -0.6468 H   0  0  0  0  0  0  0  0  0  0  0  0
    1.0408   -3.3143   -0.5485 C   0  0  0  0  0  0  0  0  0  0  0  0
    1.9248   -3.1063    0.0480 H   0  0  0  0  0  0  0  0  0  0  0  0
   -0.4874    1.2908    0.1962 C   0  0  0  0  0  0  0  0  0  0  0  0
   -1.3116    1.8673   -0.5151 O   0  0  0  0  0  0  0  0  0  0  0  0
    0.3889    1.9422    0.9708 N   0  0  0  0  0  0  0  0  0  0  0  0
    1.0197    1.3866    1.5283 H   0  0  0  0  0  0  0  0  0  0  0  0
    0.5081    3.3999    1.0720 C   0  0  0  0  0  0  0  0  0  0  0  0
    0.0188    3.7538    1.9817 H   0  0  0  0  0  0  0  0  0  0  0  0
    1.5607    3.6858    1.1098 H   0  0  0  0  0  0  0  0  0  0  0  0
    0.0459    3.8890    0.2119 H   0  0  0  0  0  0  0  0  0  0  0  0
  5  6  2  0  0  0  0
  5  7  1  0  0  0  0
  2  3  1  0  0  0  0
  2  4  1  0  0  0  0
  2  5  1  0  0  0  0
  1  2  1  0  0  0  0
 23 24  2  0  0  0  0
 23 25  1  0  0  0  0
 21 22  1  0  0  0  0
 19 20  1  0  0  0  0
 19 21  1  0  0  0  0
 17 18  1  0  0  0  0
 17 19  1  0  0  0  0
 15 16  1  0  0  0  0
 15 17  2  0  0  0  0
 14 15  1  0  0  0  0
 14 21  2  0  0  0  0
 11 12  1  0  0  0  0
 11 13  1  0  0  0  0
 11 14  1  0  0  0  0
  9 10  1  0  0  0  0
  9 11  1  0  0  0  0
  9 23  1  0  0  0  0
  7  8  1  0  0  0  0
  7  9  1  0  0  0  0
 27 28  1  0  0  0  0
 27 29  1  0  0  0  0
 27 30  1  0  0  0  0
 25 26  1  0  0  0  0
 25 27  1  0  0  0  0
M  CHG  1  15   1
M  END
$$$$
default_name
  -OEChem-02102213163D

 30 30  0     1  0  0  0  0  0999 V2000
   -3.5507   -3.2183    1.8116 H   0  0  0  0  0  0  0  0  0  0  0  0
   -3.4597   -2.3913    1.1076 C   0  0  0  0  0  0  0  0  0  0  0  0
   -4.1577   -1.6043    1.3866 H   0  0  0  0  0  0  0  0  0  0  0  0
   -3.6807   -2.7523    0.1036 H   0  0  0  0  0  0  0  0  0  0  0  0
   -2.0477   -1.8543    1.1546 C   0  0  0  0  0  0  0  0  0  0  0  0
   -1.2227   -2.3443    1.9146 O   0  0  0  0  0  0  0  0  0  0  0  0
   -1.7517   -0.8483    0.3266 N   0  0  0  0  0  0  0  0  0  0  0  0
   -2.4847   -0.5123   -0.2804 H   0  0  0  0  0  0  0  0  0  0  0  0
   -0.4117   -0.2463    0.2186 C   0  0  1  0  0  0  0  0  0  0  0  0
    0.1554   -0.5152    1.1133 H   0  0  0  0  0  0  0  0  0  0  0  0
    0.3164   -0.8780   -0.9905 C   0  0  0  0  0  0  0  0  0  0  0  0
   -0.0776   -0.4308   -1.9067 H   0  0  0  0  0  0  0  0  0  0  0  0
    1.3769   -0.6224   -0.9394 H   0  0  0  0  0  0  0  0  0  0  0  0
    0.2000   -2.3838   -1.0969 C   0  0  0  0  0  0  0  0  0  0  0  0
   -0.6001   -3.0612   -1.9965 N   0  3  0  0  0  0  0  0  0  0  0  0
   -1.1474   -2.5970   -2.7270 H   0  0  0  0  0  0  0  0  0  0  0  0
   -0.4435   -4.3844   -1.7931 C   0  0  0  0  0  0  0  0  0  0  0  0
   -0.9369   -5.1711   -2.3602 H   0  0  0  0  0  0  0  0  0  0  0  0
    0.4380   -4.5613   -0.7831 N   0  0  0  0  0  0  0  0  0  0  0  0
    0.7508   -5.4552   -0.4135 H   0  0  0  0  0  0  0  0  0  0  0  0
    0.8519   -3.3148   -0.3342 C   0  0  0  0  0  0  0  0  0  0  0  0
    1.5568   -3.1074    0.4662 H   0  0  0  0  0  0  0  0  0  0  0  0
   -0.4874    1.2908    0.1962 C   0  0  0  0  0  0  0  0  0  0  0  0
   -1.3116    1.8673   -0.5151 O   0  0  0  0  0  0  0  0  0  0  0  0
    0.3889    1.9422    0.9708 N   0  0  0  0  0  0  0  0  0  0  0  0
    1.0197    1.3866    1.5283 H   0  0  0  0  0  0  0  0  0  0  0  0
    0.5081    3.3999    1.0720 C   0  0  0  0  0  0  0  0  0  0  0  0
    0.0188    3.7538    1.9817 H   0  0  0  0  0  0  0  0  0  0  0  0
    1.5607    3.6858    1.1098 H   0  0  0  0  0  0  0  0  0  0  0  0
    0.0459    3.8890    0.2119 H   0  0  0  0  0  0  0  0  0  0  0  0
  5  6  2  0  0  0  0
  5  7  1  0  0  0  0
  2  3  1  0  0  0  0
  2  4  1  0  0  0  0
  2  5  1  0  0  0  0
  1  2  1  0  0  0  0
 23 24  2  0  0  0  0
 23 25  1  0  0  0  0
 21 22  1  0  0  0  0
 19 20  1  0  0  0  0
 19 21  1  0  0  0  0
 17 18  1  0  0  0  0
 17 19  1  0  0  0  0
 15 16  1  0  0  0  0
 15 17  2  0  0  0  0
 14 15  1  0  0  0  0
 14 21  2  0  0  0  0
 11 12  1  0  0  0  0
 11 13  1  0  0  0  0
 11 14  1  0  0  0  0
  9 10  1  0  0  0  0
  9 11  1  0  0  0  0
  9 23  1  0  0  0  0
  7  8  1  0  0  0  0
  7  9  1  0  0  0  0
 27 28  1  0  0  0  0
 27 29  1  0  0  0  0
 27 30  1  0  0  0  0
 25 26  1  0  0  0  0
 25 27  1  0  0  0  0
M  CHG  1  15   1
M  END
$$$$
default_name
  -OEChem-02102213163D

 30 30  0     1  0  0  0  0  0999 V2000
   -3.5507   -3.2183    1.8116 H   0  0  0  0  0  0  0  0  0  0  0  0
   -3.4597   -2.3913    1.1076 C   0  0  0  0  0  0  0  0  0  0  0  0
   -4.1577   -1.6043    1.3866 H   0  0  0  0  0  0  0  0  0  0  0  0
   -3.6807   -2.7523    0.1036 H   0  0  0  0  0  0  0  0  0  0  0  0
   -2.0477   -1.8543    1.1546 C   0  0  0  0  0  0  0  0  0  0  0  0
   -1.2227   -2.3443    1.9146 O   0  0  0  0  0  0  0  0  0  0  0  0
   -1.7517   -0.8483    0.3266 N   0  0  0  0  0  0  0  0  0  0  0  0
   -2.4847   -0.5123   -0.2804 H   0  0  0  0  0  0  0  0  0  0  0  0
   -0.4117   -0.2463    0.2186 C   0  0  1  0  0  0  0  0  0  0  0  0
    0.1554   -0.5152    1.1133 H   0  0  0  0  0  0  0  0  0  0  0  0
    0.3164   -0.8780   -0.9905 C   0  0  0  0  0  0  0  0  0  0  0  0
   -0.0776   -0.4308   -1.9067 H   0  0  0  0  0  0  0  0  0  0  0  0
    1.3769   -0.6224   -0.9394 H   0  0  0  0  0  0  0  0  0  0  0  0
    0.2000   -2.3838   -1.0969 C   0  0  0  0  0  0  0  0  0  0  0  0
   -0.3557   -3.0685   -2.1602 N   0  3  0  0  0  0  0  0  0  0  0  0
   -0.6869   -2.6122   -3.0151 H   0  0  0  0  0  0  0  0  0  0  0  0
   -0.2842   -4.3891   -1.9002 C   0  0  0  0  0  0  0  0  0  0  0  0
   -0.6314   -5.1805   -2.5614 H   0  0  0  0  0  0  0  0  0  0  0  0
    0.3039   -4.5572   -0.6943 N   0  0  0  0  0  0  0  0  0  0  0  0
    0.4925   -5.4475   -0.2410 H   0  0  0  0  0  0  0  0  0  0  0  0
    0.6143   -3.3077   -0.1758 C   0  0  0  0  0  0  0  0  0  0  0  0
    1.0938   -3.0935    0.7753 H   0  0  0  0  0  0  0  0  0  0  0  0
   -0.4874    1.2908    0.1962 C   0  0  0  0  0  0  0  0  0  0  0  0
   -1.3116    1.8673   -0.5151 O   0  0  0  0  0  0  0  0  0  0  0  0
    0.3889    1.9422    0.9708 N   0  0  0  0  0  0  0  0  0  0  0  0
    1.0197    1.3866    1.5283 H   0  0  0  0  0  0  0  0  0  0  0  0
    0.5081    3.3999    1.0720 C   0  0  0  0  0  0  0  0  0  0  0  0
    0.0188    3.7538    1.9817 H   0  0  0  0  0  0  0  0  0  0  0  0
    1.5607    3.6858    1.1098 H   0  0  0  0  0  0  0  0  0  0  0  0
    0.0459    3.8890    0.2119 H   0  0  0  0  0  0  0  0  0  0  0  0
  5  6  2  0  0  0  0
  5  7  1  0  0  0  0
  2  3  1  0  0  0  0
  2  4  1  0  0  0  0
  2  5  1  0  0  0  0
  1  2  1  0  0  0  0
 23 24  2  0  0  0  0
 23 25  1  0  0  0  0
 21 22  1  0  0  0  0
 19 20  1  0  0  0  0
 19 21  1  0  0  0  0
 17 18  1  0  0  0  0
 17 19  1  0  0  0  0
 15 16  1  0  0  0  0
 15 17  2  0  0  0  0
 14 15  1  0  0  0  0
 14 21  2  0  0  0  0
 11 12  1  0  0  0  0
 11 13  1  0  0  0  0
 11 14  1  0  0  0  0
  9 10  1  0  0  0  0
  9 11  1  0  0  0  0
  9 23  1  0  0  0  0
  7  8  1  0  0  0  0
  7  9  1  0  0  0  0
 27 28  1  0  0  0  0
 27 29  1  0  0  0  0
 27 30  1  0  0  0  0
 25 26  1  0  0  0  0
 25 27  1  0  0  0  0
M  CHG  1  15   1
M  END
$$$$
default_name
  -OEChem-02102213163D

 30 30  0     1  0  0  0  0  0999 V2000
   -3.5507   -3.2183    1.8116 H   0  0  0  0  0  0  0  0  0  0  0  0
   -3.4597   -2.3913    1.1076 C   0  0  0  0  0  0  0  0  0  0  0  0
   -4.1577   -1.6043    1.3866 H   0  0  0  0  0  0  0  0  0  0  0  0
   -3.6807   -2.7523    0.1036 H   0  0  0  0  0  0  0  0  0  0  0  0
   -2.0477   -1.8543    1.1546 C   0  0  0  0  0  0  0  0  0  0  0  0
   -1.2227   -2.3443    1.9146 O   0  0  0  0  0  0  0  0  0  0  0  0
   -1.7517   -0.8483    0.3266 N   0  0  0  0  0  0  0  0  0  0  0  0
   -2.4847   -0.5123   -0.2804 H   0  0  0  0  0  0  0  0  0  0  0  0
   -0.4117   -0.2463    0.2186 C   0  0  1  0  0  0  0  0  0  0  0  0
    0.1554   -0.5152    1.1133 H   0  0  0  0  0  0  0  0  0  0  0  0
    0.3164   -0.8780   -0.9905 C   0  0  0  0  0  0  0  0  0  0  0  0
   -0.0776   -0.4308   -1.9067 H   0  0  0  0  0  0  0  0  0  0  0  0
    1.3769   -0.6224   -0.9394 H   0  0  0  0  0  0  0  0  0  0  0  0
    0.2000   -2.3838   -1.0969 C   0  0  0  0  0  0  0  0  0  0  0  0
   -0.0776   -3.0833   -2.2553 N   0  3  0  0  0  0  0  0  0  0  0  0
   -0.1682   -2.6410   -3.1745 H   0  0  0  0  0  0  0  0  0  0  0  0
   -0.1028   -4.3987   -1.9626 C   0  0  0  0  0  0  0  0  0  0  0  0
   -0.2846   -5.1992   -2.6770 H   0  0  0  0  0  0  0  0  0  0  0  0
    0.1517   -4.5491   -0.6431 N   0  0  0  0  0  0  0  0  0  0  0  0
    0.1988   -5.4318   -0.1411 H   0  0  0  0  0  0  0  0  0  0  0  0
    0.3441   -3.2933   -0.0842 C   0  0  0  0  0  0  0  0  0  0  0  0
    0.5672   -3.0654    0.9545 H   0  0  0  0  0  0  0  0  0  0  0  0
   -0.4874    1.2908    0.1962 C   0  0  0  0  0  0  0  0  0  0  0  0
   -1.3116    1.8673   -0.5151 O   0  0  0  0  0  0  0  0  0  0  0  0
    0.3889    1.9422    0.9708 N   0  0  0  0  0  0  0  0  0  0  0  0
    1.0197    1.3866    1.5283 H   0  0  0  0  0  0  0  0  0  0  0  0
    0.5081    3.3999    1.0720 C   0  0  0  0  0  0  0  0  0  0  0  0
    0.0188    3.7538    1.9817 H   0  0  0  0  0  0  0  0  0  0  0  0
    1.5607    3.6858    1.1098 H   0  0  0  0  0  0  0  0  0  0  0  0
    0.0459    3.8890    0.2119 H   0  0  0  0  0  0  0  0  0  0  0  0
  5  6  2  0  0  0  0
  5  7  1  0  0  0  0
  2  3  1  0  0  0  0
  2  4  1  0  0  0  0
  2  5  1  0  0  0  0
  1  2  1  0  0  0  0
 23 24  2  0  0  0  0
 23 25  1  0  0  0  0
 21 22  1  0  0  0  0
 19 20  1  0  0  0  0
 19 21  1  0  0  0  0
 17 18  1  0  0  0  0
 17 19  1  0  0  0  0
 15 16  1  0  0  0  0
 15 17  2  0  0  0  0
 14 15  1  0  0  0  0
 14 21  2  0  0  0  0
 11 12  1  0  0  0  0
 11 13  1  0  0  0  0
 11 14  1  0  0  0  0
  9 10  1  0  0  0  0
  9 11  1  0  0  0  0
  9 23  1  0  0  0  0
  7  8  1  0  0  0  0
  7  9  1  0  0  0  0
 27 28  1  0  0  0  0
 27 29  1  0  0  0  0
 27 30  1  0  0  0  0
 25 26  1  0  0  0  0
 25 27  1  0  0  0  0
M  CHG  1  15   1
M  END
$$$$
default_name
  -OEChem-02102213163D

 30 30  0     1  0  0  0  0  0999 V2000
   -3.5507   -3.2183    1.8116 H   0  0  0  0  0  0  0  0  0  0  0  0
   -3.4597   -2.3913    1.1076 C   0  0  0  0  0  0  0  0  0  0  0  0
   -4.1577   -1.6043    1.3866 H   0  0  0  0  0  0  0  0  0  0  0  0
   -3.6807   -2.7523    0.1036 H   0  0  0  0  0  0  0  0  0  0  0  0
   -2.0477   -1.8543    1.1546 C   0  0  0  0  0  0  0  0  0  0  0  0
   -1.2227   -2.3443    1.9146 O   0  0  0  0  0  0  0  0  0  0  0  0
   -1.7517   -0.8483    0.3266 N   0  0  0  0  0  0  0  0  0  0  0  0
   -2.4847   -0.5123   -0.2804 H   0  0  0  0  0  0  0  0  0  0  0  0
   -0.4117   -0.2463    0.2186 C   0  0  1  0  0  0  0  0  0  0  0  0
    0.1554   -0.5152    1.1133 H   0  0  0  0  0  0  0  0  0  0  0  0
    0.3164   -0.8780   -0.9905 C   0  0  0  0  0  0  0  0  0  0  0  0
   -0.0776   -0.4308   -1.9067 H   0  0  0  0  0  0  0  0  0  0  0  0
    1.3769   -0.6224   -0.9394 H   0  0  0  0  0  0  0  0  0  0  0  0
    0.2000   -2.3838   -1.0969 C   0  0  0  0  0  0  0  0  0  0  0  0
    0.2153   -3.1045   -2.2753 N   0  3  0  0  0  0  0  0  0  0  0  0
    0.3734   -2.6814   -3.1944 H   0  0  0  0  0  0  0  0  0  0  0  0
    0.0883   -4.4126   -1.9760 C   0  0  0  0  0  0  0  0  0  0  0  0
    0.0798   -5.2258   -2.6990 H   0  0  0  0  0  0  0  0  0  0  0  0
   -0.0084   -4.5374   -0.6331 N   0  0  0  0  0  0  0  0  0  0  0  0
   -0.1104   -5.4094   -0.1204 H   0  0  0  0  0  0  0  0  0  0  0  0
    0.0599   -3.2726   -0.0655 C   0  0  0  0  0  0  0  0  0  0  0  0
    0.0129   -3.0252    0.9915 H   0  0  0  0  0  0  0  0  0  0  0  0
   -0.4874    1.2908    0.1962 C   0  0  0  0  0  0  0  0  0  0  0  0
   -1.3116    1.8673   -0.5151 O   0  0  0  0  0  0  0  0  0  0  0  0
    0.3889    1.9422    0.9708 N   0  0  0  0  0  0  0  0  0  0  0  0
    1.0197    1.3866    1.5283 H   0  0  0  0  0  0  0  0  0  0  0  0
    0.5081    3.3999    1.0720 C   0  0  0  0  0  0  0  0  0  0  0  0
    0.0188    3.7538    1.9817 H   0  0  0  0  0  0  0  0  0  0  0  0
    1.5607    3.6858    1.1098 H   0  0  0  0  0  0  0  0  0  0  0  0
    0.0459    3.8890    0.2119 H   0  0  0  0  0  0  0  0  0  0  0  0
  5  6  2  0  0  0  0
  5  7  1  0  0  0  0
  2  3  1  0  0  0  0
  2  4  1  0  0  0  0
  2  5  1  0  0  0  0
  1  2  1  0  0  0  0
 23 24  2  0  0  0  0
 23 25  1  0  0  0  0
 21 22  1  0  0  0  0
 19 20  1  0  0  0  0
 19 21  1  0  0  0  0
 17 18  1  0  0  0  0
 17 19  1  0  0  0  0
 15 16  1  0  0  0  0
 15 17  2  0  0  0  0
 14 15  1  0  0  0  0
 14 21  2  0  0  0  0
 11 12  1  0  0  0  0
 11 13  1  0  0  0  0
 11 14  1  0  0  0  0
  9 10  1  0  0  0  0
  9 11  1  0  0  0  0
  9 23  1  0  0  0  0
  7  8  1  0  0  0  0
  7  9  1  0  0  0  0
 27 28  1  0  0  0  0
 27 29  1  0  0  0  0
 27 30  1  0  0  0  0
 25 26  1  0  0  0  0
 25 27  1  0  0  0  0
M  CHG  1  15   1
M  END
$$$$
default_name
  -OEChem-02102213163D

 30 30  0     1  0  0  0  0  0999 V2000
   -3.5507   -3.2183    1.8116 H   0  0  0  0  0  0  0  0  0  0  0  0
   -3.4597   -2.3913    1.1076 C   0  0  0  0  0  0  0  0  0  0  0  0
   -4.1577   -1.6043    1.3866 H   0  0  0  0  0  0  0  0  0  0  0  0
   -3.6807   -2.7523    0.1036 H   0  0  0  0  0  0  0  0  0  0  0  0
   -2.0477   -1.8543    1.1546 C   0  0  0  0  0  0  0  0  0  0  0  0
   -1.2227   -2.3443    1.9146 O   0  0  0  0  0  0  0  0  0  0  0  0
   -1.7517   -0.8483    0.3266 N   0  0  0  0  0  0  0  0  0  0  0  0
   -2.4847   -0.5123   -0.2804 H   0  0  0  0  0  0  0  0  0  0  0  0
   -0.4117   -0.2463    0.2186 C   0  0  1  0  0  0  0  0  0  0  0  0
    0.1554   -0.5152    1.1133 H   0  0  0  0  0  0  0  0  0  0  0  0
    0.3164   -0.8780   -0.9905 C   0  0  0  0  0  0  0  0  0  0  0  0
   -0.0776   -0.4308   -1.9067 H   0  0  0  0  0  0  0  0  0  0  0  0
    1.3769   -0.6224   -0.9394 H   0  0  0  0  0  0  0  0  0  0  0  0
    0.2000   -2.3838   -1.0969 C   0  0  0  0  0  0  0  0  0  0  0  0
    0.5029   -3.1308   -2.2188 N   0  3  0  0  0  0  0  0  0  0  0  0
    0.9009   -2.7307   -3.0734 H   0  0  0  0  0  0  0  0  0  0  0  0
    0.2760   -4.4296   -1.9395 C   0  0  0  0  0  0  0  0  0  0  0  0
    0.4369   -5.2585   -2.6259 H   0  0  0  0  0  0  0  0  0  0  0  0
   -0.1654   -4.5231   -0.6648 N   0  0  0  0  0  0  0  0  0  0  0  0
   -0.4139   -5.3817   -0.1805 H   0  0  0  0  0  0  0  0  0  0  0  0
   -0.2192   -3.2471   -0.1210 C   0  0  0  0  0  0  0  0  0  0  0  0
   -0.5313   -2.9756    0.8837 H   0  0  0  0  0  0  0  0  0  0  0  0
   -0.4874    1.2908    0.1962 C   0  0  0  0  0  0  0  0  0  0  0  0
   -1.3116    1.8673   -0.5151 O   0  0  0  0  0  0  0  0  0  0  0  0
    0.3889    1.9422    0.9708 N   0  0  0  0  0  0  0  0  0  0  0  0
    1.0197    1.3866    1.5283 H   0  0  0  0  0  0  0  0  0  0  0  0
    0.5081    3.3999    1.0720 C   0  0  0  0  0  0  0  0  0  0  0  0
    0.0188    3.7538    1.9817 H   0  0  0  0  0  0  0  0  0  0  0  0
    1.5607    3.6858    1.1098 H   0  0  0  0  0  0  0  0  0  0  0  0
    0.0459    3.8890    0.2119 H   0  0  0  0  0  0  0  0  0  0  0  0
  5  6  2  0  0  0  0
  5  7  1  0  0  0  0
  2  3  1  0  0  0  0
  2  4  1  0  0  0  0
  2  5  1  0  0  0  0
  1  2  1  0  0  0  0
 23 24  2  0  0  0  0
 23 25  1  0  0  0  0
 21 22  1  0  0  0  0
 19 20  1  0  0  0  0
 19 21  1  0  0  0  0
 17 18  1  0  0  0  0
 17 19  1  0  0  0  0
 15 16  1  0  0  0  0
 15 17  2  0  0  0  0
 14 15  1  0  0  0  0
 14 21  2  0  0  0  0
 11 12  1  0  0  0  0
 11 13  1  0  0  0  0
 11 14  1  0  0  0  0
  9 10  1  0  0  0  0
  9 11  1  0  0  0  0
  9 23  1  0  0  0  0
  7  8  1  0  0  0  0
  7  9  1  0  0  0  0
 27 28  1  0  0  0  0
 27 29  1  0  0  0  0
 27 30  1  0  0  0  0
 25 26  1  0  0  0  0
 25 27  1  0  0  0  0
M  CHG  1  15   1
M  END
$$$$
default_name
  -OEChem-02102213163D

 30 30  0     1  0  0  0  0  0999 V2000
   -3.5507   -3.2183    1.8116 H   0  0  0  0  0  0  0  0  0  0  0  0
   -3.4597   -2.3913    1.1076 C   0  0  0  0  0  0  0  0  0  0  0  0
   -4.1577   -1.6043    1.3866 H   0  0  0  0  0  0  0  0  0  0  0  0
   -3.6807   -2.7523    0.1036 H   0  0  0  0  0  0  0  0  0  0  0  0
   -2.0477   -1.8543    1.1546 C   0  0  0  0  0  0  0  0  0  0  0  0
   -1.2227   -2.3443    1.9146 O   0  0  0  0  0  0  0  0  0  0  0  0
   -1.7517   -0.8483    0.3266 N   0  0  0  0  0  0  0  0  0  0  0  0
   -2.4847   -0.5123   -0.2804 H   0  0  0  0  0  0  0  0  0  0  0  0
   -0.4117   -0.2463    0.2186 C   0  0  1  0  0  0  0  0  0  0  0  0
    0.1554   -0.5152    1.1133 H   0  0  0  0  0  0  0  0  0  0  0  0
    0.3164   -0.8780   -0.9905 C   0  0  0  0  0  0  0  0  0  0  0  0
    0.1288   -0.2595   -1.8719 H   0  0  0  0  0  0  0  0  0  0  0  0
    1.3928   -0.8569   -0.8073 H   0  0  0  0  0  0  0  0  0  0  0  0
   -0.0792   -2.3050   -1.3062 C   0  0  0  0  0  0  0  0  0  0  0  0
    0.4369   -3.0673   -2.3362 N   0  3  0  0  0  0  0  0  0  0  0  0
    1.1930   -2.7503   -2.9498 H   0  0  0  0  0  0  0  0  0  0  0  0
   -0.1528   -4.2789   -2.3058 C   0  0  0  0  0  0  0  0  0  0  0  0
    0.0597   -5.0996   -2.9880 H   0  0  0  0  0  0  0  0  0  0  0  0
   -1.0328   -4.3016   -1.2794 N   0  0  0  0  0  0  0  0  0  0  0  0
   -1.6199   -5.0879   -1.0138 H   0  0  0  0  0  0  0  0  0  0  0  0
   -0.9993   -3.0695   -0.6411 C   0  0  0  0  0  0  0  0  0  0  0  0
   -1.5851   -2.7617    0.2206 H   0  0  0  0  0  0  0  0  0  0  0  0
   -0.4874    1.2908    0.1962 C   0  0  0  0  0  0  0  0  0  0  0  0
   -1.3116    1.8673   -0.5151 O   0  0  0  0  0  0  0  0  0  0  0  0
    0.3889    1.9422    0.9708 N   0  0  0  0  0  0  0  0  0  0  0  0
    1.0197    1.3866    1.5283 H   0  0  0  0  0  0  0  0  0  0  0  0
    0.5081    3.3999    1.0720 C   0  0  0  0  0  0  0  0  0  0  0  0
    0.0188    3.7538    1.9817 H   0  0  0  0  0  0  0  0  0  0  0  0
    1.5607    3.6858    1.1098 H   0  0  0  0  0  0  0  0  0  0  0  0
    0.0459    3.8890    0.2119 H   0  0  0  0  0  0  0  0  0  0  0  0
  5  6  2  0  0  0  0
  5  7  1  0  0  0  0
  2  3  1  0  0  0  0
  2  4  1  0  0  0  0
  2  5  1  0  0  0  0
  1  2  1  0  0  0  0
 23 24  2  0  0  0  0
 23 25  1  0  0  0  0
 21 22  1  0  0  0  0
 19 20  1  0  0  0  0
 19 21  1  0  0  0  0
 17 18  1  0  0  0  0
 17 19  1  0  0  0  0
 15 16  1  0  0  0  0
 15 17  2  0  0  0  0
 14 15  1  0  0  0  0
 14 21  2  0  0  0  0
 11 12  1  0  0  0  0
 11 13  1  0  0  0  0
 11 14  1  0  0  0  0
  9 10  1  0  0  0  0
  9 11  1  0  0  0  0
  9 23  1  0  0  0  0
  7  8  1  0  0  0  0
  7  9  1  0  0  0  0
 27 28  1  0  0  0  0
 27 29  1  0  0  0  0
 27 30  1  0  0  0  0
 25 26  1  0  0  0  0
 25 27  1  0  0  0  0
M  CHG  1  15   1
M  END
$$$$
default_name
  -OEChem-02102213163D

 30 30  0     1  0  0  0  0  0999 V2000
   -3.5507   -3.2183    1.8116 H   0  0  0  0  0  0  0  0  0  0  0  0
   -3.4597   -2.3913    1.1076 C   0  0  0  0  0  0  0  0  0  0  0  0
   -4.1577   -1.6043    1.3866 H   0  0  0  0  0  0  0  0  0  0  0  0
   -3.6807   -2.7523    0.1036 H   0  0  0  0  0  0  0  0  0  0  0  0
   -2.0477   -1.8543    1.1546 C   0  0  0  0  0  0  0  0  0  0  0  0
   -1.2227   -2.3443    1.9146 O   0  0  0  0  0  0  0  0  0  0  0  0
   -1.7517   -0.8483    0.3266 N   0  0  0  0  0  0  0  0  0  0  0  0
   -2.4847   -0.5123   -0.2804 H   0  0  0  0  0  0  0  0  0  0  0  0
   -0.4117   -0.2463    0.2186 C   0  0  1  0  0  0  0  0  0  0  0  0
    0.1554   -0.5152    1.1133 H   0  0  0  0  0  0  0  0  0  0  0  0
    0.3164   -0.8780   -0.9905 C   0  0  0  0  0  0  0  0  0  0  0  0
    0.1288   -0.2595   -1.8719 H   0  0  0  0  0  0  0  0  0  0  0  0
    1.3928   -0.8569   -0.8073 H   0  0  0  0  0  0  0  0  0  0  0  0
   -0.0792   -2.3050   -1.3062 C   0  0  0  0  0  0  0  0  0  0  0  0
    0.6223   -3.1645   -2.1293 N   0  3  0  0  0  0  0  0  0  0  0  0
    1.5227   -2.9287   -2.5564 H   0  0  0  0  0  0  0  0  0  0  0  0
   -0.0315   -4.3423   -2.1710 C   0  0  0  0  0  0  0  0  0  0  0  0
    0.2882   -5.2203   -2.7287 H   0  0  0  0  0  0  0  0  0  0  0  0
   -1.1335   -4.2485   -1.3930 N   0  0  0  0  0  0  0  0  0  0  0  0
   -1.8153   -4.9854   -1.2324 H   0  0  0  0  0  0  0  0  0  0  0  0
   -1.1787   -2.9753   -0.8424 C   0  0  0  0  0  0  0  0  0  0  0  0
   -1.9354   -2.5779   -0.1715 H   0  0  0  0  0  0  0  0  0  0  0  0
   -0.4874    1.2908    0.1962 C   0  0  0  0  0  0  0  0  0  0  0  0
   -1.3116    1.8673   -0.5151 O   0  0  0  0  0  0  0  0  0  0  0  0
    0.3889    1.9422    0.9708 N   0  0  0  0  0  0  0  0  0  0  0  0
    1.0197    1.3866    1.5283 H   0  0  0  0  0  0  0  0  0  0  0  0
    0.5081    3.3999    1.0720 C   0  0  0  0  0  0  0  0  0  0  0  0
    0.0188    3.7538    1.9817 H   0  0  0  0  0  0  0  0  0  0  0  0
    1.5607    3.6858    1.1098 H   0  0  0  0  0  0  0  0  0  0  0  0
    0.0459    3.8890    0.2119 H   0  0  0  0  0  0  0  0  0  0  0  0
  5  6  2  0  0  0  0
  5  7  1  0  0  0  0
  2  3  1  0  0  0  0
  2  4  1  0  0  0  0
  2  5  1  0  0  0  0
  1  2  1  0  0  0  0
 23 24  2  0  0  0  0
 23 25  1  0  0  0  0
 21 22  1  0  0  0  0
 19 20  1  0  0  0  0
 19 21  1  0  0  0  0
 17 18  1  0  0  0  0
 17 19  1  0  0  0  0
 15 16  1  0  0  0  0
 15 17  2  0  0  0  0
 14 15  1  0  0  0  0
 14 21  2  0  0  0  0
 11 12  1  0  0  0  0
 11 13  1  0  0  0  0
 11 14  1  0  0  0  0
  9 10  1  0  0  0  0
  9 11  1  0  0  0  0
  9 23  1  0  0  0  0
  7  8  1  0  0  0  0
  7  9  1  0  0  0  0
 27 28  1  0  0  0  0
 27 29  1  0  0  0  0
 27 30  1  0  0  0  0
 25 26  1  0  0  0  0
 25 27  1  0  0  0  0
M  CHG  1  15   1
M  END
$$$$
default_name
  -OEChem-02102213163D

 30 30  0     1  0  0  0  0  0999 V2000
   -3.5507   -3.2183    1.8116 H   0  0  0  0  0  0  0  0  0  0  0  0
   -3.4597   -2.3913    1.1076 C   0  0  0  0  0  0  0  0  0  0  0  0
   -4.1577   -1.6043    1.3866 H   0  0  0  0  0  0  0  0  0  0  0  0
   -3.6807   -2.7523    0.1036 H   0  0  0  0  0  0  0  0  0  0  0  0
   -2.0477   -1.8543    1.1546 C   0  0  0  0  0  0  0  0  0  0  0  0
   -1.2227   -2.3443    1.9146 O   0  0  0  0  0  0  0  0  0  0  0  0
   -1.7517   -0.8483    0.3266 N   0  0  0  0  0  0  0  0  0  0  0  0
   -2.4847   -0.5123   -0.2804 H   0  0  0  0  0  0  0  0  0  0  0  0
   -0.4117   -0.2463    0.2186 C   0  0  1  0  0  0  0  0  0  0  0  0
    0.1554   -0.5152    1.1133 H   0  0  0  0  0  0  0  0  0  0  0  0
    0.3164   -0.8780   -0.9905 C   0  0  0  0  0  0  0  0  0  0  0  0
    0.1288   -0.2595   -1.8719 H   0  0  0  0  0  0  0  0  0  0  0  0
    1.3928   -0.8569   -0.8073 H   0  0  0  0  0  0  0  0  0  0  0  0
   -0.0792   -2.3050   -1.3062 C   0  0  0  0  0  0  0  0  0  0  0  0
    0.7457   -3.2543   -1.8777 N   0  3  0  0  0  0  0  0  0  0  0  0
    1.7356   -3.0922   -2.0840 H   0  0  0  0  0  0  0  0  0  0  0  0
    0.0493   -4.4010   -2.0070 C   0  0  0  0  0  0  0  0  0  0  0  0
    0.4391   -5.3316   -2.4145 H   0  0  0  0  0  0  0  0  0  0  0  0
   -1.2002   -4.1996   -1.5309 N   0  0  0  0  0  0  0  0  0  0  0  0
   -1.9451   -4.8906   -1.4982 H   0  0  0  0  0  0  0  0  0  0  0  0
   -1.2979   -2.8881   -1.0869 C   0  0  0  0  0  0  0  0  0  0  0  0
   -2.1682   -2.4080   -0.6481 H   0  0  0  0  0  0  0  0  0  0  0  0
   -0.4874    1.2908    0.1962 C   0  0  0  0  0  0  0  0  0  0  0  0
   -1.3116    1.8673   -0.5151 O   0  0  0  0  0  0  0  0  0  0  0  0
    0.3889    1.9422    0.9708 N   0  0  0  0  0  0  0  0  0  0  0  0
    1.0197    1.3866    1.5283 H   0  0  0  0  0  0  0  0  0  0  0  0
    0.5081    3.3999    1.0720 C   0  0  0  0  0  0  0  0  0  0  0  0
    0.0188    3.7538    1.9817 H   0  0  0  0  0  0  0  0  0  0  0  0
    1.5607    3.6858    1.1098 H   0  0  0  0  0  0  0  0  0  0  0  0
    0.0459    3.8890    0.2119 H   0  0  0  0  0  0  0  0  0  0  0  0
  5  6  2  0  0  0  0
  5  7  1  0  0  0  0
  2  3  1  0  0  0  0
  2  4  1  0  0  0  0
  2  5  1  0  0  0  0
  1  2  1  0  0  0  0
 23 24  2  0  0  0  0
 23 25  1  0  0  0  0
 21 22  1  0  0  0  0
 19 20  1  0  0  0  0
 19 21  1  0  0  0  0
 17 18  1  0  0  0  0
 17 19  1  0  0  0  0
 15 16  1  0  0  0  0
 15 17  2  0  0  0  0
 14 15  1  0  0  0  0
 14 21  2  0  0  0  0
 11 12  1  0  0  0  0
 11 13  1  0  0  0  0
 11 14  1  0  0  0  0
  9 10  1  0  0  0  0
  9 11  1  0  0  0  0
  9 23  1  0  0  0  0
  7  8  1  0  0  0  0
  7  9  1  0  0  0  0
 27 28  1  0  0  0  0
 27 29  1  0  0  0  0
 27 30  1  0  0  0  0
 25 26  1  0  0  0  0
 25 27  1  0  0  0  0
M  CHG  1  15   1
M  END
$$$$
default_name
  -OEChem-02102213163D

 30 30  0     1  0  0  0  0  0999 V2000
   -3.5507   -3.2183    1.8116 H   0  0  0  0  0  0  0  0  0  0  0  0
   -3.4597   -2.3913    1.1076 C   0  0  0  0  0  0  0  0  0  0  0  0
   -4.1577   -1.6043    1.3866 H   0  0  0  0  0  0  0  0  0  0  0  0
   -3.6807   -2.7523    0.1036 H   0  0  0  0  0  0  0  0  0  0  0  0
   -2.0477   -1.8543    1.1546 C   0  0  0  0  0  0  0  0  0  0  0  0
   -1.2227   -2.3443    1.9146 O   0  0  0  0  0  0  0  0  0  0  0  0
   -1.7517   -0.8483    0.3266 N   0  0  0  0  0  0  0  0  0  0  0  0
   -2.4847   -0.5123   -0.2804 H   0  0  0  0  0  0  0  0  0  0  0  0
   -0.4117   -0.2463    0.2186 C   0  0  1  0  0  0  0  0  0  0  0  0
    0.1554   -0.5152    1.1133 H   0  0  0  0  0  0  0  0  0  0  0  0
    0.3164   -0.8780   -0.9905 C   0  0  0  0  0  0  0  0  0  0  0  0
    0.1288   -0.2595   -1.8719 H   0  0  0  0  0  0  0  0  0  0  0  0
    1.3928   -0.8569   -0.8073 H   0  0  0  0  0  0  0  0  0  0  0  0
   -0.0792   -2.3050   -1.3062 C   0  0  0  0  0  0  0  0  0  0  0  0
    0.7987   -3.3308   -1.5985 N   0  3  0  0  0  0  0  0  0  0  0  0
    1.8172   -3.2297   -1.5646 H   0  0  0  0  0  0  0  0  0  0  0  0
    0.0842   -4.4510   -1.8249 C   0  0  0  0  0  0  0  0  0  0  0  0
    0.5022   -5.4261   -2.0666 H   0  0  0  0  0  0  0  0  0  0  0  0
   -1.2283   -4.1580   -1.6837 N   0  0  0  0  0  0  0  0  0  0  0  0
   -2.0006   -4.8100   -1.7931 H   0  0  0  0  0  0  0  0  0  0  0  0
   -1.3487   -2.8141   -1.3581 C   0  0  0  0  0  0  0  0  0  0  0  0
   -2.2676   -2.2635   -1.1767 H   0  0  0  0  0  0  0  0  0  0  0  0
   -0.4874    1.2908    0.1962 C   0  0  0  0  0  0  0  0  0  0  0  0
   -1.3116    1.8673   -0.5151 O   0  0  0  0  0  0  0  0  0  0  0  0
    0.3889    1.9422    0.9708 N   0  0  0  0  0  0  0  0  0  0  0  0
    1.0197    1.3866    1.5283 H   0  0  0  0  0  0  0  0  0  0  0  0
    0.5081    3.3999    1.0720 C   0  0  0  0  0  0  0  0  0  0  0  0
    0.0188    3.7538    1.9817 H   0  0  0  0  0  0  0  0  0  0  0  0
    1.5607    3.6858    1.1098 H   0  0  0  0  0  0  0  0  0  0  0  0
    0.0459    3.8890    0.2119 H   0  0  0  0  0  0  0  0  0  0  0  0
  5  6  2  0  0  0  0
  5  7  1  0  0  0  0
  2  3  1  0  0  0  0
  2  4  1  0  0  0  0
  2  5  1  0  0  0  0
  1  2  1  0  0  0  0
 23 24  2  0  0  0  0
 23 25  1  0  0  0  0
 21 22  1  0  0  0  0
 19 20  1  0  0  0  0
 19 21  1  0  0  0  0
 17 18  1  0  0  0  0
 17 19  1  0  0  0  0
 15 16  1  0  0  0  0
 15 17  2  0  0  0  0
 14 15  1  0  0  0  0
 14 21  2  0  0  0  0
 11 12  1  0  0  0  0
 11 13  1  0  0  0  0
 11 14  1  0  0  0  0
  9 10  1  0  0  0  0
  9 11  1  0  0  0  0
  9 23  1  0  0  0  0
  7  8  1  0  0  0  0
  7  9  1  0  0  0  0
 27 28  1  0  0  0  0
 27 29  1  0  0  0  0
 27 30  1  0  0  0  0
 25 26  1  0  0  0  0
 25 27  1  0  0  0  0
M  CHG  1  15   1
M  END
$$$$
default_name
  -OEChem-02102213163D

 30 30  0     1  0  0  0  0  0999 V2000
   -3.5507   -3.2183    1.8116 H   0  0  0  0  0  0  0  0  0  0  0  0
   -3.4597   -2.3913    1.1076 C   0  0  0  0  0  0  0  0  0  0  0  0
   -4.1577   -1.6043    1.3866 H   0  0  0  0  0  0  0  0  0  0  0  0
   -3.6807   -2.7523    0.1036 H   0  0  0  0  0  0  0  0  0  0  0  0
   -2.0477   -1.8543    1.1546 C   0  0  0  0  0  0  0  0  0  0  0  0
   -1.2227   -2.3443    1.9146 O   0  0  0  0  0  0  0  0  0  0  0  0
   -1.7517   -0.8483    0.3266 N   0  0  0  0  0  0  0  0  0  0  0  0
   -2.4847   -0.5123   -0.2804 H   0  0  0  0  0  0  0  0  0  0  0  0
   -0.4117   -0.2463    0.2186 C   0  0  1  0  0  0  0  0  0  0  0  0
    0.1554   -0.5152    1.1133 H   0  0  0  0  0  0  0  0  0  0  0  0
    0.3164   -0.8780   -0.9905 C   0  0  0  0  0  0  0  0  0  0  0  0
    0.1288   -0.2595   -1.8719 H   0  0  0  0  0  0  0  0  0  0  0  0
    1.3928   -0.8569   -0.8073 H   0  0  0  0  0  0  0  0  0  0  0  0
   -0.0792   -2.3050   -1.3062 C   0  0  0  0  0  0  0  0  0  0  0  0
    0.7776   -3.3886   -1.3107 N   0  3  0  0  0  0  0  0  0  0  0  0
    1.7619   -3.3318   -1.0337 H   0  0  0  0  0  0  0  0  0  0  0  0
    0.0708   -4.4888   -1.6371 C   0  0  0  0  0  0  0  0  0  0  0  0
    0.4732   -5.4972   -1.7087 H   0  0  0  0  0  0  0  0  0  0  0  0
   -1.2160   -4.1266   -1.8409 N   0  0  0  0  0  0  0  0  0  0  0  0
   -1.9779   -4.7491   -2.0969 H   0  0  0  0  0  0  0  0  0  0  0  0
   -1.3275   -2.7581   -1.6374 C   0  0  0  0  0  0  0  0  0  0  0  0
   -2.2269   -2.1543   -1.7213 H   0  0  0  0  0  0  0  0  0  0  0  0
   -0.4874    1.2908    0.1962 C   0  0  0  0  0  0  0  0  0  0  0  0
   -1.3116    1.8673   -0.5151 O   0  0  0  0  0  0  0  0  0  0  0  0
    0.3889    1.9422    0.9708 N   0  0  0  0  0  0  0  0  0  0  0  0
    1.0197    1.3866    1.5283 H   0  0  0  0  0  0  0  0  0  0  0  0
    0.5081    3.3999    1.0720 C   0  0  0  0  0  0  0  0  0  0  0  0
    0.0188    3.7538    1.9817 H   0  0  0  0  0  0  0  0  0  0  0  0
    1.5607    3.6858    1.1098 H   0  0  0  0  0  0  0  0  0  0  0  0
    0.0459    3.8890    0.2119 H   0  0  0  0  0  0  0  0  0  0  0  0
  5  6  2  0  0  0  0
  5  7  1  0  0  0  0
  2  3  1  0  0  0  0
  2  4  1  0  0  0  0
  2  5  1  0  0  0  0
  1  2  1  0  0  0  0
 23 24  2  0  0  0  0
 23 25  1  0  0  0  0
 21 22  1  0  0  0  0
 19 20  1  0  0  0  0
 19 21  1  0  0  0  0
 17 18  1  0  0  0  0
 17 19  1  0  0  0  0
 15 16  1  0  0  0  0
 15 17  2  0  0  0  0
 14 15  1  0  0  0  0
 14 21  2  0  0  0  0
 11 12  1  0  0  0  0
 11 13  1  0  0  0  0
 11 14  1  0  0  0  0
  9 10  1  0  0  0  0
  9 11  1  0  0  0  0
  9 23  1  0  0  0  0
  7  8  1  0  0  0  0
  7  9  1  0  0  0  0
 27 28  1  0  0  0  0
 27 29  1  0  0  0  0
 27 30  1  0  0  0  0
 25 26  1  0  0  0  0
 25 27  1  0  0  0  0
M  CHG  1  15   1
M  END
$$$$
default_name
  -OEChem-02102213163D

 30 30  0     1  0  0  0  0  0999 V2000
   -3.5507   -3.2183    1.8116 H   0  0  0  0  0  0  0  0  0  0  0  0
   -3.4597   -2.3913    1.1076 C   0  0  0  0  0  0  0  0  0  0  0  0
   -4.1577   -1.6043    1.3866 H   0  0  0  0  0  0  0  0  0  0  0  0
   -3.6807   -2.7523    0.1036 H   0  0  0  0  0  0  0  0  0  0  0  0
   -2.0477   -1.8543    1.1546 C   0  0  0  0  0  0  0  0  0  0  0  0
   -1.2227   -2.3443    1.9146 O   0  0  0  0  0  0  0  0  0  0  0  0
   -1.7517   -0.8483    0.3266 N   0  0  0  0  0  0  0  0  0  0  0  0
   -2.4847   -0.5123   -0.2804 H   0  0  0  0  0  0  0  0  0  0  0  0
   -0.4117   -0.2463    0.2186 C   0  0  1  0  0  0  0  0  0  0  0  0
    0.1554   -0.5152    1.1133 H   0  0  0  0  0  0  0  0  0  0  0  0
    0.3164   -0.8780   -0.9905 C   0  0  0  0  0  0  0  0  0  0  0  0
    0.1288   -0.2595   -1.8719 H   0  0  0  0  0  0  0  0  0  0  0  0
    1.3928   -0.8569   -0.8073 H   0  0  0  0  0  0  0  0  0  0  0  0
   -0.0792   -2.3050   -1.3062 C   0  0  0  0  0  0  0  0  0  0  0  0
    0.6839   -3.4239   -1.0339 N   0  3  0  0  0  0  0  0  0  0  0  0
    1.5735   -3.3916   -0.5275 H   0  0  0  0  0  0  0  0  0  0  0  0
    0.0099   -4.5119   -1.4564 C   0  0  0  0  0  0  0  0  0  0  0  0
    0.3541   -5.5402   -1.3653 H   0  0  0  0  0  0  0  0  0  0  0  0
   -1.1640   -4.1076   -1.9919 N   0  0  0  0  0  0  0  0  0  0  0  0
   -1.8786   -4.7120   -2.3889 H   0  0  0  0  0  0  0  0  0  0  0  0
   -1.2360   -2.7241   -1.9058 C   0  0  0  0  0  0  0  0  0  0  0  0
   -2.0488   -2.0878   -2.2449 H   0  0  0  0  0  0  0  0  0  0  0  0
   -0.4874    1.2908    0.1962 C   0  0  0  0  0  0  0  0  0  0  0  0
   -1.3116    1.8673   -0.5151 O   0  0  0  0  0  0  0  0  0  0  0  0
    0.3889    1.9422    0.9708 N   0  0  0  0  0  0  0  0  0  0  0  0
    1.0197    1.3866    1.5283 H   0  0  0  0  0  0  0  0  0  0  0  0
    0.5081    3.3999    1.0720 C   0  0  0  0  0  0  0  0  0  0  0  0
    0.0188    3.7538    1.9817 H   0  0  0  0  0  0  0  0  0  0  0  0
    1.5607    3.6858    1.1098 H   0  0  0  0  0  0  0  0  0  0  0  0
    0.0459    3.8890    0.2119 H   0  0  0  0  0  0  0  0  0  0  0  0
  5  6  2  0  0  0  0
  5  7  1  0  0  0  0
  2  3  1  0  0  0  0
  2  4  1  0  0  0  0
  2  5  1  0  0  0  0
  1  2  1  0  0  0  0
 23 24  2  0  0  0  0
 23 25  1  0  0  0  0
 21 22  1  0  0  0  0
 19 20  1  0  0  0  0
 19 21  1  0  0  0  0
 17 18  1  0  0  0  0
 17 19  1  0  0  0  0
 15 16  1  0  0  0  0
 15 17  2  0  0  0  0
 14 15  1  0  0  0  0
 14 21  2  0  0  0  0
 11 12  1  0  0  0  0
 11 13  1  0  0  0  0
 11 14  1  0  0  0  0
  9 10  1  0  0  0  0
  9 11  1  0  0  0  0
  9 23  1  0  0  0  0
  7  8  1  0  0  0  0
  7  9  1  0  0  0  0
 27 28  1  0  0  0  0
 27 29  1  0  0  0  0
 27 30  1  0  0  0  0
 25 26  1  0  0  0  0
 25 27  1  0  0  0  0
M  CHG  1  15   1
M  END
$$$$
default_name
  -OEChem-02102213163D

 30 30  0     1  0  0  0  0  0999 V2000
   -3.5507   -3.2183    1.8116 H   0  0  0  0  0  0  0  0  0  0  0  0
   -3.4597   -2.3913    1.1076 C   0  0  0  0  0  0  0  0  0  0  0  0
   -4.1577   -1.6043    1.3866 H   0  0  0  0  0  0  0  0  0  0  0  0
   -3.6807   -2.7523    0.1036 H   0  0  0  0  0  0  0  0  0  0  0  0
   -2.0477   -1.8543    1.1546 C   0  0  0  0  0  0  0  0  0  0  0  0
   -1.2227   -2.3443    1.9146 O   0  0  0  0  0  0  0  0  0  0  0  0
   -1.7517   -0.8483    0.3266 N   0  0  0  0  0  0  0  0  0  0  0  0
   -2.4847   -0.5123   -0.2804 H   0  0  0  0  0  0  0  0  0  0  0  0
   -0.4117   -0.2463    0.2186 C   0  0  1  0  0  0  0  0  0  0  0  0
    0.1554   -0.5152    1.1133 H   0  0  0  0  0  0  0  0  0  0  0  0
    0.3164   -0.8780   -0.9905 C   0  0  0  0  0  0  0  0  0  0  0  0
    0.1288   -0.2595   -1.8719 H   0  0  0  0  0  0  0  0  0  0  0  0
    1.3928   -0.8569   -0.8073 H   0  0  0  0  0  0  0  0  0  0  0  0
   -0.0792   -2.3050   -1.3062 C   0  0  0  0  0  0  0  0  0  0  0  0
    0.5240   -3.4341   -0.7870 N   0  3  0  0  0  0  0  0  0  0  0  0
    1.2647   -3.4049   -0.0805 H   0  0  0  0  0  0  0  0  0  0  0  0
   -0.0941   -4.5187   -1.2951 C   0  0  0  0  0  0  0  0  0  0  0  0
    0.1530   -5.5520   -1.0598 H   0  0  0  0  0  0  0  0  0  0  0  0
   -1.0760   -4.1023   -2.1264 N   0  0  0  0  0  0  0  0  0  0  0  0
   -1.7095   -4.7013   -2.6492 H   0  0  0  0  0  0  0  0  0  0  0  0
   -1.0802   -2.7144   -2.1451 C   0  0  0  0  0  0  0  0  0  0  0  0
   -1.7455   -2.0687   -2.7116 H   0  0  0  0  0  0  0  0  0  0  0  0
   -0.4874    1.2908    0.1962 C   0  0  0  0  0  0  0  0  0  0  0  0
   -1.3116    1.8673   -0.5151 O   0  0  0  0  0  0  0  0  0  0  0  0
    0.3889    1.9422    0.9708 N   0  0  0  0  0  0  0  0  0  0  0  0
    1.0197    1.3866    1.5283 H   0  0  0  0  0  0  0  0  0  0  0  0
    0.5081    3.3999    1.0720 C   0  0  0  0  0  0  0  0  0  0  0  0
    0.0188    3.7538    1.9817 H   0  0  0  0  0  0  0  0  0  0  0  0
    1.5607    3.6858    1.1098 H   0  0  0  0  0  0  0  0  0  0  0  0
    0.0459    3.8890    0.2119 H   0  0  0  0  0  0  0  0  0  0  0  0
  5  6  2  0  0  0  0
  5  7  1  0  0  0  0
  2  3  1  0  0  0  0
  2  4  1  0  0  0  0
  2  5  1  0  0  0  0
  1  2  1  0  0  0  0
 23 24  2  0  0  0  0
 23 25  1  0  0  0  0
 21 22  1  0  0  0  0
 19 20  1  0  0  0  0
 19 21  1  0  0  0  0
 17 18  1  0  0  0  0
 17 19  1  0  0  0  0
 15 16  1  0  0  0  0
 15 17  2  0  0  0  0
 14 15  1  0  0  0  0
 14 21  2  0  0  0  0
 11 12  1  0  0  0  0
 11 13  1  0  0  0  0
 11 14  1  0  0  0  0
  9 10  1  0  0  0  0
  9 11  1  0  0  0  0
  9 23  1  0  0  0  0
  7  8  1  0  0  0  0
  7  9  1  0  0  0  0
 27 28  1  0  0  0  0
 27 29  1  0  0  0  0
 27 30  1  0  0  0  0
 25 26  1  0  0  0  0
 25 27  1  0  0  0  0
M  CHG  1  15   1
M  END
$$$$
default_name
  -OEChem-02102213163D

 30 30  0     1  0  0  0  0  0999 V2000
   -3.5507   -3.2183    1.8116 H   0  0  0  0  0  0  0  0  0  0  0  0
   -3.4597   -2.3913    1.1076 C   0  0  0  0  0  0  0  0  0  0  0  0
   -4.1577   -1.6043    1.3866 H   0  0  0  0  0  0  0  0  0  0  0  0
   -3.6807   -2.7523    0.1036 H   0  0  0  0  0  0  0  0  0  0  0  0
   -2.0477   -1.8543    1.1546 C   0  0  0  0  0  0  0  0  0  0  0  0
   -1.2227   -2.3443    1.9146 O   0  0  0  0  0  0  0  0  0  0  0  0
   -1.7517   -0.8483    0.3266 N   0  0  0  0  0  0  0  0  0  0  0  0
   -2.4847   -0.5123   -0.2804 H   0  0  0  0  0  0  0  0  0  0  0  0
   -0.4117   -0.2463    0.2186 C   0  0  1  0  0  0  0  0  0  0  0  0
    0.1554   -0.5152    1.1133 H   0  0  0  0  0  0  0  0  0  0  0  0
    0.3164   -0.8780   -0.9905 C   0  0  0  0  0  0  0  0  0  0  0  0
    0.1288   -0.2595   -1.8719 H   0  0  0  0  0  0  0  0  0  0  0  0
    1.3928   -0.8569   -0.8073 H   0  0  0  0  0  0  0  0  0  0  0  0
   -0.0792   -2.3050   -1.3062 C   0  0  0  0  0  0  0  0  0  0  0  0
    0.3088   -3.4187   -0.5869 N   0  3  0  0  0  0  0  0  0  0  0  0
    0.8568   -3.3708    0.2769 H   0  0  0  0  0  0  0  0  0  0  0  0
   -0.2344   -4.5088   -1.1643 C   0  0  0  0  0  0  0  0  0  0  0  0
   -0.1165   -5.5319   -0.8129 H   0  0  0  0  0  0  0  0  0  0  0  0
   -0.9578   -4.1110   -2.2352 N   0  0  0  0  0  0  0  0  0  0  0  0
   -1.4820   -4.7177   -2.8602 H   0  0  0  0  0  0  0  0  0  0  0  0
   -0.8709   -2.7296   -2.3388 C   0  0  0  0  0  0  0  0  0  0  0  0
   -1.3376   -2.0981   -3.0897 H   0  0  0  0  0  0  0  0  0  0  0  0
   -0.4874    1.2908    0.1962 C   0  0  0  0  0  0  0  0  0  0  0  0
   -1.3116    1.8673   -0.5151 O   0  0  0  0  0  0  0  0  0  0  0  0
    0.3889    1.9422    0.9708 N   0  0  0  0  0  0  0  0  0  0  0  0
    1.0197    1.3866    1.5283 H   0  0  0  0  0  0  0  0  0  0  0  0
    0.5081    3.3999    1.0720 C   0  0  0  0  0  0  0  0  0  0  0  0
    0.0188    3.7538    1.9817 H   0  0  0  0  0  0  0  0  0  0  0  0
    1.5607    3.6858    1.1098 H   0  0  0  0  0  0  0  0  0  0  0  0
    0.0459    3.8890    0.2119 H   0  0  0  0  0  0  0  0  0  0  0  0
  5  6  2  0  0  0  0
  5  7  1  0  0  0  0
  2  3  1  0  0  0  0
  2  4  1  0  0  0  0
  2  5  1  0  0  0  0
  1  2  1  0  0  0  0
 23 24  2  0  0  0  0
 23 25  1  0  0  0  0
 21 22  1  0  0  0  0
 19 20  1  0  0  0  0
 19 21  1  0  0  0  0
 17 18  1  0  0  0  0
 17 19  1  0  0  0  0
 15 16  1  0  0  0  0
 15 17  2  0  0  0  0
 14 15  1  0  0  0  0
 14 21  2  0  0  0  0
 11 12  1  0  0  0  0
 11 13  1  0  0  0  0
 11 14  1  0  0  0  0
  9 10  1  0  0  0  0
  9 11  1  0  0  0  0
  9 23  1  0  0  0  0
  7  8  1  0  0  0  0
  7  9  1  0  0  0  0
 27 28  1  0  0  0  0
 27 29  1  0  0  0  0
 27 30  1  0  0  0  0
 25 26  1  0  0  0  0
 25 27  1  0  0  0  0
M  CHG  1  15   1
M  END
$$$$
default_name
  -OEChem-02102213163D

 30 30  0     1  0  0  0  0  0999 V2000
   -3.5507   -3.2183    1.8116 H   0  0  0  0  0  0  0  0  0  0  0  0
   -3.4597   -2.3913    1.1076 C   0  0  0  0  0  0  0  0  0  0  0  0
   -4.1577   -1.6043    1.3866 H   0  0  0  0  0  0  0  0  0  0  0  0
   -3.6807   -2.7523    0.1036 H   0  0  0  0  0  0  0  0  0  0  0  0
   -2.0477   -1.8543    1.1546 C   0  0  0  0  0  0  0  0  0  0  0  0
   -1.2227   -2.3443    1.9146 O   0  0  0  0  0  0  0  0  0  0  0  0
   -1.7517   -0.8483    0.3266 N   0  0  0  0  0  0  0  0  0  0  0  0
   -2.4847   -0.5123   -0.2804 H   0  0  0  0  0  0  0  0  0  0  0  0
   -0.4117   -0.2463    0.2186 C   0  0  1  0  0  0  0  0  0  0  0  0
    0.1554   -0.5152    1.1133 H   0  0  0  0  0  0  0  0  0  0  0  0
    0.3164   -0.8780   -0.9905 C   0  0  0  0  0  0  0  0  0  0  0  0
    0.1288   -0.2595   -1.8719 H   0  0  0  0  0  0  0  0  0  0  0  0
    1.3928   -0.8569   -0.8073 H   0  0  0  0  0  0  0  0  0  0  0  0
   -0.0792   -2.3050   -1.3062 C   0  0  0  0  0  0  0  0  0  0  0  0
    0.0529   -3.3787   -0.4471 N   0  3  0  0  0  0  0  0  0  0  0  0
    0.3774   -3.2918    0.5203 H   0  0  0  0  0  0  0  0  0  0  0  0
   -0.4012   -4.4828   -1.0728 C   0  0  0  0  0  0  0  0  0  0  0  0
   -0.4359   -5.4812   -0.6416 H   0  0  0  0  0  0  0  0  0  0  0  0
   -0.8176   -4.1331   -2.3108 N   0  0  0  0  0  0  0  0  0  0  0  0
   -1.2117   -4.7601   -3.0073 H   0  0  0  0  0  0  0  0  0  0  0  0
   -0.6223   -2.7686   -2.4739 C   0  0  0  0  0  0  0  0  0  0  0  0
   -0.8530   -2.1741   -3.3535 H   0  0  0  0  0  0  0  0  0  0  0  0
   -0.4874    1.2908    0.1962 C   0  0  0  0  0  0  0  0  0  0  0  0
   -1.3116    1.8673   -0.5151 O   0  0  0  0  0  0  0  0  0  0  0  0
    0.3889    1.9422    0.9708 N   0  0  0  0  0  0  0  0  0  0  0  0
    1.0197    1.3866    1.5283 H   0  0  0  0  0  0  0  0  0  0  0  0
    0.5081    3.3999    1.0720 C   0  0  0  0  0  0  0  0  0  0  0  0
    0.0188    3.7538    1.9817 H   0  0  0  0  0  0  0  0  0  0  0  0
    1.5607    3.6858    1.1098 H   0  0  0  0  0  0  0  0  0  0  0  0
    0.0459    3.8890    0.2119 H   0  0  0  0  0  0  0  0  0  0  0  0
  5  6  2  0  0  0  0
  5  7  1  0  0  0  0
  2  3  1  0  0  0  0
  2  4  1  0  0  0  0
  2  5  1  0  0  0  0
  1  2  1  0  0  0  0
 23 24  2  0  0  0  0
 23 25  1  0  0  0  0
 21 22  1  0  0  0  0
 19 20  1  0  0  0  0
 19 21  1  0  0  0  0
 17 18  1  0  0  0  0
 17 19  1  0  0  0  0
 15 16  1  0  0  0  0
 15 17  2  0  0  0  0
 14 15  1  0  0  0  0
 14 21  2  0  0  0  0
 11 12  1  0  0  0  0
 11 13  1  0  0  0  0
 11 14  1  0  0  0  0
  9 10  1  0  0  0  0
  9 11  1  0  0  0  0
  9 23  1  0  0  0  0
  7  8  1  0  0  0  0
  7  9  1  0  0  0  0
 27 28  1  0  0  0  0
 27 29  1  0  0  0  0
 27 30  1  0  0  0  0
 25 26  1  0  0  0  0
 25 27  1  0  0  0  0
M  CHG  1  15   1
M  END
$$$$
default_name
  -OEChem-02102213163D

 30 30  0     1  0  0  0  0  0999 V2000
   -3.5507   -3.2183    1.8116 H   0  0  0  0  0  0  0  0  0  0  0  0
   -3.4597   -2.3913    1.1076 C   0  0  0  0  0  0  0  0  0  0  0  0
   -4.1577   -1.6043    1.3866 H   0  0  0  0  0  0  0  0  0  0  0  0
   -3.6807   -2.7523    0.1036 H   0  0  0  0  0  0  0  0  0  0  0  0
   -2.0477   -1.8543    1.1546 C   0  0  0  0  0  0  0  0  0  0  0  0
   -1.2227   -2.3443    1.9146 O   0  0  0  0  0  0  0  0  0  0  0  0
   -1.7517   -0.8483    0.3266 N   0  0  0  0  0  0  0  0  0  0  0  0
   -2.4847   -0.5123   -0.2804 H   0  0  0  0  0  0  0  0  0  0  0  0
   -0.4117   -0.2463    0.2186 C   0  0  1  0  0  0  0  0  0  0  0  0
    0.1554   -0.5152    1.1133 H   0  0  0  0  0  0  0  0  0  0  0  0
    0.3164   -0.8780   -0.9905 C   0  0  0  0  0  0  0  0  0  0  0  0
    0.1288   -0.2595   -1.8719 H   0  0  0  0  0  0  0  0  0  0  0  0
    1.3928   -0.8569   -0.8073 H   0  0  0  0  0  0  0  0  0  0  0  0
   -0.0792   -2.3050   -1.3062 C   0  0  0  0  0  0  0  0  0  0  0  0
   -0.2262   -3.3168   -0.3772 N   0  3  0  0  0  0  0  0  0  0  0  0
   -0.1408   -3.1731    0.6331 H   0  0  0  0  0  0  0  0  0  0  0  0
   -0.5833   -4.4425   -1.0269 C   0  0  0  0  0  0  0  0  0  0  0  0
   -0.7835   -5.4035   -0.5574 H   0  0  0  0  0  0  0  0  0  0  0  0
   -0.6650   -4.1671   -2.3482 N   0  0  0  0  0  0  0  0  0  0  0  0
   -0.9170   -4.8255   -3.0807 H   0  0  0  0  0  0  0  0  0  0  0  0
   -0.3513   -2.8289   -2.5411 C   0  0  0  0  0  0  0  0  0  0  0  0
   -0.3247   -2.2915   -3.4850 H   0  0  0  0  0  0  0  0  0  0  0  0
   -0.4874    1.2908    0.1962 C   0  0  0  0  0  0  0  0  0  0  0  0
   -1.3116    1.8673   -0.5151 O   0  0  0  0  0  0  0  0  0  0  0  0
    0.3889    1.9422    0.9708 N   0  0  0  0  0  0  0  0  0  0  0  0
    1.0197    1.3866    1.5283 H   0  0  0  0  0  0  0  0  0  0  0  0
    0.5081    3.3999    1.0720 C   0  0  0  0  0  0  0  0  0  0  0  0
    0.0188    3.7538    1.9817 H   0  0  0  0  0  0  0  0  0  0  0  0
    1.5607    3.6858    1.1098 H   0  0  0  0  0  0  0  0  0  0  0  0
    0.0459    3.8890    0.2119 H   0  0  0  0  0  0  0  0  0  0  0  0
  5  6  2  0  0  0  0
  5  7  1  0  0  0  0
  2  3  1  0  0  0  0
  2  4  1  0  0  0  0
  2  5  1  0  0  0  0
  1  2  1  0  0  0  0
 23 24  2  0  0  0  0
 23 25  1  0  0  0  0
 21 22  1  0  0  0  0
 19 20  1  0  0  0  0
 19 21  1  0  0  0  0
 17 18  1  0  0  0  0
 17 19  1  0  0  0  0
 15 16  1  0  0  0  0
 15 17  2  0  0  0  0
 14 15  1  0  0  0  0
 14 21  2  0  0  0  0
 11 12  1  0  0  0  0
 11 13  1  0  0  0  0
 11 14  1  0  0  0  0
  9 10  1  0  0  0  0
  9 11  1  0  0  0  0
  9 23  1  0  0  0  0
  7  8  1  0  0  0  0
  7  9  1  0  0  0  0
 27 28  1  0  0  0  0
 27 29  1  0  0  0  0
 27 30  1  0  0  0  0
 25 26  1  0  0  0  0
 25 27  1  0  0  0  0
M  CHG  1  15   1
M  END
$$$$
default_name
  -OEChem-02102213163D

 30 30  0     1  0  0  0  0  0999 V2000
   -3.5507   -3.2183    1.8116 H   0  0  0  0  0  0  0  0  0  0  0  0
   -3.4597   -2.3913    1.1076 C   0  0  0  0  0  0  0  0  0  0  0  0
   -4.1577   -1.6043    1.3866 H   0  0  0  0  0  0  0  0  0  0  0  0
   -3.6807   -2.7523    0.1036 H   0  0  0  0  0  0  0  0  0  0  0  0
   -2.0477   -1.8543    1.1546 C   0  0  0  0  0  0  0  0  0  0  0  0
   -1.2227   -2.3443    1.9146 O   0  0  0  0  0  0  0  0  0  0  0  0
   -1.7517   -0.8483    0.3266 N   0  0  0  0  0  0  0  0  0  0  0  0
   -2.4847   -0.5123   -0.2804 H   0  0  0  0  0  0  0  0  0  0  0  0
   -0.4117   -0.2463    0.2186 C   0  0  1  0  0  0  0  0  0  0  0  0
    0.1554   -0.5152    1.1133 H   0  0  0  0  0  0  0  0  0  0  0  0
    0.3164   -0.8780   -0.9905 C   0  0  0  0  0  0  0  0  0  0  0  0
    0.1288   -0.2595   -1.8719 H   0  0  0  0  0  0  0  0  0  0  0  0
    1.3928   -0.8569   -0.8073 H   0  0  0  0  0  0  0  0  0  0  0  0
   -0.0792   -2.3050   -1.3062 C   0  0  0  0  0  0  0  0  0  0  0  0
   -0.5095   -3.2372   -0.3820 N   0  3  0  0  0  0  0  0  0  0  0  0
   -0.6624   -3.0229    0.6076 H   0  0  0  0  0  0  0  0  0  0  0  0
   -0.7681   -4.3906   -1.0296 C   0  0  0  0  0  0  0  0  0  0  0  0
   -1.1356   -5.3040   -0.5662 H   0  0  0  0  0  0  0  0  0  0  0  0
   -0.5102   -4.2108   -2.3448 N   0  0  0  0  0  0  0  0  0  0  0  0
   -0.6180   -4.9096   -3.0752 H   0  0  0  0  0  0  0  0  0  0  0  0
   -0.0764   -2.9063   -2.5358 C   0  0  0  0  0  0  0  0  0  0  0  0
    0.2114   -2.4422   -3.4751 H   0  0  0  0  0  0  0  0  0  0  0  0
   -0.4874    1.2908    0.1962 C   0  0  0  0  0  0  0  0  0  0  0  0
   -1.3116    1.8673   -0.5151 O   0  0  0  0  0  0  0  0  0  0  0  0
    0.3889    1.9422    0.9708 N   0  0  0  0  0  0  0  0  0  0  0  0
    1.0197    1.3866    1.5283 H   0  0  0  0  0  0  0  0  0  0  0  0
    0.5081    3.3999    1.0720 C   0  0  0  0  0  0  0  0  0  0  0  0
    0.0188    3.7538    1.9817 H   0  0  0  0  0  0  0  0  0  0  0  0
    1.5607    3.6858    1.1098 H   0  0  0  0  0  0  0  0  0  0  0  0
    0.0459    3.8890    0.2119 H   0  0  0  0  0  0  0  0  0  0  0  0
  5  6  2  0  0  0  0
  5  7  1  0  0  0  0
  2  3  1  0  0  0  0
  2  4  1  0  0  0  0
  2  5  1  0  0  0  0
  1  2  1  0  0  0  0
 23 24  2  0  0  0  0
 23 25  1  0  0  0  0
 21 22  1  0  0  0  0
 19 20  1  0  0  0  0
 19 21  1  0  0  0  0
 17 18  1  0  0  0  0
 17 19  1  0  0  0  0
 15 16  1  0  0  0  0
 15 17  2  0  0  0  0
 14 15  1  0  0  0  0
 14 21  2  0  0  0  0
 11 12  1  0  0  0  0
 11 13  1  0  0  0  0
 11 14  1  0  0  0  0
  9 10  1  0  0  0  0
  9 11  1  0  0  0  0
  9 23  1  0  0  0  0
  7  8  1  0  0  0  0
  7  9  1  0  0  0  0
 27 28  1  0  0  0  0
 27 29  1  0  0  0  0
 27 30  1  0  0  0  0
 25 26  1  0  0  0  0
 25 27  1  0  0  0  0
M  CHG  1  15   1
M  END
$$$$
default_name
  -OEChem-02102213163D

 30 30  0     1  0  0  0  0  0999 V2000
   -3.5507   -3.2183    1.8116 H   0  0  0  0  0  0  0  0  0  0  0  0
   -3.4597   -2.3913    1.1076 C   0  0  0  0  0  0  0  0  0  0  0  0
   -4.1577   -1.6043    1.3866 H   0  0  0  0  0  0  0  0  0  0  0  0
   -3.6807   -2.7523    0.1036 H   0  0  0  0  0  0  0  0  0  0  0  0
   -2.0477   -1.8543    1.1546 C   0  0  0  0  0  0  0  0  0  0  0  0
   -1.2227   -2.3443    1.9146 O   0  0  0  0  0  0  0  0  0  0  0  0
   -1.7517   -0.8483    0.3266 N   0  0  0  0  0  0  0  0  0  0  0  0
   -2.4847   -0.5123   -0.2804 H   0  0  0  0  0  0  0  0  0  0  0  0
   -0.4117   -0.2463    0.2186 C   0  0  1  0  0  0  0  0  0  0  0  0
    0.1554   -0.5152    1.1133 H   0  0  0  0  0  0  0  0  0  0  0  0
    0.3164   -0.8780   -0.9905 C   0  0  0  0  0  0  0  0  0  0  0  0
    0.1288   -0.2595   -1.8719 H   0  0  0  0  0  0  0  0  0  0  0  0
    1.3928   -0.8569   -0.8073 H   0  0  0  0  0  0  0  0  0  0  0  0
   -0.0792   -2.3050   -1.3062 C   0  0  0  0  0  0  0  0  0  0  0  0
   -0.7777   -3.1454   -0.4611 N   0  3  0  0  0  0  0  0  0  0  0  0
   -1.1520   -2.8513    0.4456 H   0  0  0  0  0  0  0  0  0  0  0  0
   -0.9433   -4.3307   -1.0809 C   0  0  0  0  0  0  0  0  0  0  0  0
   -1.4682   -5.1894   -0.6672 H   0  0  0  0  0  0  0  0  0  0  0  0
   -0.3640   -4.2611   -2.3008 N   0  0  0  0  0  0  0  0  0  0  0  0
   -0.3351   -5.0066   -2.9913 H   0  0  0  0  0  0  0  0  0  0  0  0
    0.1837   -2.9955   -2.4584 C   0  0  0  0  0  0  0  0  0  0  0  0
    0.7187   -2.6161   -3.3246 H   0  0  0  0  0  0  0  0  0  0  0  0
   -0.4874    1.2908    0.1962 C   0  0  0  0  0  0  0  0  0  0  0  0
   -1.3116    1.8673   -0.5151 O   0  0  0  0  0  0  0  0  0  0  0  0
    0.3889    1.9422    0.9708 N   0  0  0  0  0  0  0  0  0  0  0  0
    1.0197    1.3866    1.5283 H   0  0  0  0  0  0  0  0  0  0  0  0
    0.5081    3.3999    1.0720 C   0  0  0  0  0  0  0  0  0  0  0  0
    0.0188    3.7538    1.9817 H   0  0  0  0  0  0  0  0  0  0  0  0
    1.5607    3.6858    1.1098 H   0  0  0  0  0  0  0  0  0  0  0  0
    0.0459    3.8890    0.2119 H   0  0  0  0  0  0  0  0  0  0  0  0
  5  6  2  0  0  0  0
  5  7  1  0  0  0  0
  2  3  1  0  0  0  0
  2  4  1  0  0  0  0
  2  5  1  0  0  0  0
  1  2  1  0  0  0  0
 23 24  2  0  0  0  0
 23 25  1  0  0  0  0
 21 22  1  0  0  0  0
 19 20  1  0  0  0  0
 19 21  1  0  0  0  0
 17 18  1  0  0  0  0
 17 19  1  0  0  0  0
 15 16  1  0  0  0  0
 15 17  2  0  0  0  0
 14 15  1  0  0  0  0
 14 21  2  0  0  0  0
 11 12  1  0  0  0  0
 11 13  1  0  0  0  0
 11 14  1  0  0  0  0
  9 10  1  0  0  0  0
  9 11  1  0  0  0  0
  9 23  1  0  0  0  0
  7  8  1  0  0  0  0
  7  9  1  0  0  0  0
 27 28  1  0  0  0  0
 27 29  1  0  0  0  0
 27 30  1  0  0  0  0
 25 26  1  0  0  0  0
 25 27  1  0  0  0  0
M  CHG  1  15   1
M  END
$$$$
default_name
  -OEChem-02102213163D

 30 30  0     1  0  0  0  0  0999 V2000
   -3.5507   -3.2183    1.8116 H   0  0  0  0  0  0  0  0  0  0  0  0
   -3.4597   -2.3913    1.1076 C   0  0  0  0  0  0  0  0  0  0  0  0
   -4.1577   -1.6043    1.3866 H   0  0  0  0  0  0  0  0  0  0  0  0
   -3.6807   -2.7523    0.1036 H   0  0  0  0  0  0  0  0  0  0  0  0
   -2.0477   -1.8543    1.1546 C   0  0  0  0  0  0  0  0  0  0  0  0
   -1.2227   -2.3443    1.9146 O   0  0  0  0  0  0  0  0  0  0  0  0
   -1.7517   -0.8483    0.3266 N   0  0  0  0  0  0  0  0  0  0  0  0
   -2.4847   -0.5123   -0.2804 H   0  0  0  0  0  0  0  0  0  0  0  0
   -0.4117   -0.2463    0.2186 C   0  0  1  0  0  0  0  0  0  0  0  0
    0.1554   -0.5152    1.1133 H   0  0  0  0  0  0  0  0  0  0  0  0
    0.3164   -0.8780   -0.9905 C   0  0  0  0  0  0  0  0  0  0  0  0
    0.1288   -0.2595   -1.8719 H   0  0  0  0  0  0  0  0  0  0  0  0
    1.3928   -0.8569   -0.8073 H   0  0  0  0  0  0  0  0  0  0  0  0
   -0.0792   -2.3050   -1.3062 C   0  0  0  0  0  0  0  0  0  0  0  0
   -1.0125   -3.0476   -0.6091 N   0  3  0  0  0  0  0  0  0  0  0  0
   -1.5760   -2.6702    0.1582 H   0  0  0  0  0  0  0  0  0  0  0  0
   -1.0967   -4.2669   -1.1772 C   0  0  0  0  0  0  0  0  0  0  0  0
   -1.7586   -5.0677   -0.8537 H   0  0  0  0  0  0  0  0  0  0  0  0
   -0.2361   -4.3146   -2.2192 N   0  0  0  0  0  0  0  0  0  0  0  0
   -0.0875   -5.1099   -2.8347 H   0  0  0  0  0  0  0  0  0  0  0  0
    0.4112   -3.0904   -2.3141 C   0  0  0  0  0  0  0  0  0  0  0  0
    1.1625   -2.8013   -3.0438 H   0  0  0  0  0  0  0  0  0  0  0  0
   -0.4874    1.2908    0.1962 C   0  0  0  0  0  0  0  0  0  0  0  0
   -1.3116    1.8673   -0.5151 O   0  0  0  0  0  0  0  0  0  0  0  0
    0.3889    1.9422    0.9708 N   0  0  0  0  0  0  0  0  0  0  0  0
    1.0197    1.3866    1.5283 H   0  0  0  0  0  0  0  0  0  0  0  0
    0.5081    3.3999    1.0720 C   0  0  0  0  0  0  0  0  0  0  0  0
    0.0188    3.7538    1.9817 H   0  0  0  0  0  0  0  0  0  0  0  0
    1.5607    3.6858    1.1098 H   0  0  0  0  0  0  0  0  0  0  0  0
    0.0459    3.8890    0.2119 H   0  0  0  0  0  0  0  0  0  0  0  0
  5  6  2  0  0  0  0
  5  7  1  0  0  0  0
  2  3  1  0  0  0  0
  2  4  1  0  0  0  0
  2  5  1  0  0  0  0
  1  2  1  0  0  0  0
 23 24  2  0  0  0  0
 23 25  1  0  0  0  0
 21 22  1  0  0  0  0
 19 20  1  0  0  0  0
 19 21  1  0  0  0  0
 17 18  1  0  0  0  0
 17 19  1  0  0  0  0
 15 16  1  0  0  0  0
 15 17  2  0  0  0  0
 14 15  1  0  0  0  0
 14 21  2  0  0  0  0
 11 12  1  0  0  0  0
 11 13  1  0  0  0  0
 11 14  1  0  0  0  0
  9 10  1  0  0  0  0
  9 11  1  0  0  0  0
  9 23  1  0  0  0  0
  7  8  1  0  0  0  0
  7  9  1  0  0  0  0
 27 28  1  0  0  0  0
 27 29  1  0  0  0  0
 27 30  1  0  0  0  0
 25 26  1  0  0  0  0
 25 27  1  0  0  0  0
M  CHG  1  15   1
M  END
$$$$
default_name
  -OEChem-02102213163D

 30 30  0     1  0  0  0  0  0999 V2000
   -3.5507   -3.2183    1.8116 H   0  0  0  0  0  0  0  0  0  0  0  0
   -3.4597   -2.3913    1.1076 C   0  0  0  0  0  0  0  0  0  0  0  0
   -4.1577   -1.6043    1.3866 H   0  0  0  0  0  0  0  0  0  0  0  0
   -3.6807   -2.7523    0.1036 H   0  0  0  0  0  0  0  0  0  0  0  0
   -2.0477   -1.8543    1.1546 C   0  0  0  0  0  0  0  0  0  0  0  0
   -1.2227   -2.3443    1.9146 O   0  0  0  0  0  0  0  0  0  0  0  0
   -1.7517   -0.8483    0.3266 N   0  0  0  0  0  0  0  0  0  0  0  0
   -2.4847   -0.5123   -0.2804 H   0  0  0  0  0  0  0  0  0  0  0  0
   -0.4117   -0.2463    0.2186 C   0  0  1  0  0  0  0  0  0  0  0  0
    0.1554   -0.5152    1.1133 H   0  0  0  0  0  0  0  0  0  0  0  0
    0.3164   -0.8780   -0.9905 C   0  0  0  0  0  0  0  0  0  0  0  0
    0.1288   -0.2595   -1.8719 H   0  0  0  0  0  0  0  0  0  0  0  0
    1.3928   -0.8569   -0.8073 H   0  0  0  0  0  0  0  0  0  0  0  0
   -0.0792   -2.3050   -1.3062 C   0  0  0  0  0  0  0  0  0  0  0  0
   -1.1979   -2.9504   -0.8160 N   0  3  0  0  0  0  0  0  0  0  0  0
   -1.9058   -2.4918   -0.2352 H   0  0  0  0  0  0  0  0  0  0  0  0
   -1.2179   -4.2035   -1.3120 C   0  0  0  0  0  0  0  0  0  0  0  0
   -1.9871   -4.9470   -1.1129 H   0  0  0  0  0  0  0  0  0  0  0  0
   -0.1354   -4.3676   -2.1055 N   0  0  0  0  0  0  0  0  0  0  0  0
    0.1079   -5.2124   -2.6160 H   0  0  0  0  0  0  0  0  0  0  0  0
    0.5907   -3.1847   -2.1129 C   0  0  0  0  0  0  0  0  0  0  0  0
    1.5128   -2.9851   -2.6517 H   0  0  0  0  0  0  0  0  0  0  0  0
   -0.4874    1.2908    0.1962 C   0  0  0  0  0  0  0  0  0  0  0  0
   -1.3116    1.8673   -0.5151 O   0  0  0  0  0  0  0  0  0  0  0  0
    0.3889    1.9422    0.9708 N   0  0  0  0  0  0  0  0  0  0  0  0
    1.0197    1.3866    1.5283 H   0  0  0  0  0  0  0  0  0  0  0  0
    0.5081    3.3999    1.0720 C   0  0  0  0  0  0  0  0  0  0  0  0
    0.0188    3.7538    1.9817 H   0  0  0  0  0  0  0  0  0  0  0  0
    1.5607    3.6858    1.1098 H   0  0  0  0  0  0  0  0  0  0  0  0
    0.0459    3.8890    0.2119 H   0  0  0  0  0  0  0  0  0  0  0  0
  5  6  2  0  0  0  0
  5  7  1  0  0  0  0
  2  3  1  0  0  0  0
  2  4  1  0  0  0  0
  2  5  1  0  0  0  0
  1  2  1  0  0  0  0
 23 24  2  0  0  0  0
 23 25  1  0  0  0  0
 21 22  1  0  0  0  0
 19 20  1  0  0  0  0
 19 21  1  0  0  0  0
 17 18  1  0  0  0  0
 17 19  1  0  0  0  0
 15 16  1  0  0  0  0
 15 17  2  0  0  0  0
 14 15  1  0  0  0  0
 14 21  2  0  0  0  0
 11 12  1  0  0  0  0
 11 13  1  0  0  0  0
 11 14  1  0  0  0  0
  9 10  1  0  0  0  0
  9 11  1  0  0  0  0
  9 23  1  0  0  0  0
  7  8  1  0  0  0  0
  7  9  1  0  0  0  0
 27 28  1  0  0  0  0
 27 29  1  0  0  0  0
 27 30  1  0  0  0  0
 25 26  1  0  0  0  0
 25 27  1  0  0  0  0
M  CHG  1  15   1
M  END
$$$$
default_name
  -OEChem-02102213163D

 30 30  0     1  0  0  0  0  0999 V2000
   -3.5507   -3.2183    1.8116 H   0  0  0  0  0  0  0  0  0  0  0  0
   -3.4597   -2.3913    1.1076 C   0  0  0  0  0  0  0  0  0  0  0  0
   -4.1577   -1.6043    1.3866 H   0  0  0  0  0  0  0  0  0  0  0  0
   -3.6807   -2.7523    0.1036 H   0  0  0  0  0  0  0  0  0  0  0  0
   -2.0477   -1.8543    1.1546 C   0  0  0  0  0  0  0  0  0  0  0  0
   -1.2227   -2.3443    1.9146 O   0  0  0  0  0  0  0  0  0  0  0  0
   -1.7517   -0.8483    0.3266 N   0  0  0  0  0  0  0  0  0  0  0  0
   -2.4847   -0.5123   -0.2804 H   0  0  0  0  0  0  0  0  0  0  0  0
   -0.4117   -0.2463    0.2186 C   0  0  1  0  0  0  0  0  0  0  0  0
    0.1554   -0.5152    1.1133 H   0  0  0  0  0  0  0  0  0  0  0  0
    0.3164   -0.8780   -0.9905 C   0  0  0  0  0  0  0  0  0  0  0  0
    0.1288   -0.2595   -1.8719 H   0  0  0  0  0  0  0  0  0  0  0  0
    1.3928   -0.8569   -0.8073 H   0  0  0  0  0  0  0  0  0  0  0  0
   -0.0792   -2.3050   -1.3062 C   0  0  0  0  0  0  0  0  0  0  0  0
   -1.3213   -2.8605   -1.0676 N   0  3  0  0  0  0  0  0  0  0  0  0
   -2.1187   -2.3282   -0.7077 H   0  0  0  0  0  0  0  0  0  0  0  0
   -1.2987   -4.1448   -1.4760 C   0  0  0  0  0  0  0  0  0  0  0  0
   -2.1380   -4.8356   -1.4272 H   0  0  0  0  0  0  0  0  0  0  0  0
   -0.0687   -4.4166   -1.9676 N   0  0  0  0  0  0  0  0  0  0  0  0
    0.2378   -5.3072   -2.3502 H   0  0  0  0  0  0  0  0  0  0  0  0
    0.7099   -3.2718   -1.8683 C   0  0  0  0  0  0  0  0  0  0  0  0
    1.7456   -3.1551   -2.1751 H   0  0  0  0  0  0  0  0  0  0  0  0
   -0.4874    1.2908    0.1962 C   0  0  0  0  0  0  0  0  0  0  0  0
   -1.3116    1.8673   -0.5151 O   0  0  0  0  0  0  0  0  0  0  0  0
    0.3889    1.9422    0.9708 N   0  0  0  0  0  0  0  0  0  0  0  0
    1.0197    1.3866    1.5283 H   0  0  0  0  0  0  0  0  0  0  0  0
    0.5081    3.3999    1.0720 C   0  0  0  0  0  0  0  0  0  0  0  0
    0.0188    3.7538    1.9817 H   0  0  0  0  0  0  0  0  0  0  0  0
    1.5607    3.6858    1.1098 H   0  0  0  0  0  0  0  0  0  0  0  0
    0.0459    3.8890    0.2119 H   0  0  0  0  0  0  0  0  0  0  0  0
  5  6  2  0  0  0  0
  5  7  1  0  0  0  0
  2  3  1  0  0  0  0
  2  4  1  0  0  0  0
  2  5  1  0  0  0  0
  1  2  1  0  0  0  0
 23 24  2  0  0  0  0
 23 25  1  0  0  0  0
 21 22  1  0  0  0  0
 19 20  1  0  0  0  0
 19 21  1  0  0  0  0
 17 18  1  0  0  0  0
 17 19  1  0  0  0  0
 15 16  1  0  0  0  0
 15 17  2  0  0  0  0
 14 15  1  0  0  0  0
 14 21  2  0  0  0  0
 11 12  1  0  0  0  0
 11 13  1  0  0  0  0
 11 14  1  0  0  0  0
  9 10  1  0  0  0  0
  9 11  1  0  0  0  0
  9 23  1  0  0  0  0
  7  8  1  0  0  0  0
  7  9  1  0  0  0  0
 27 28  1  0  0  0  0
 27 29  1  0  0  0  0
 27 30  1  0  0  0  0
 25 26  1  0  0  0  0
 25 27  1  0  0  0  0
M  CHG  1  15   1
M  END
$$$$
default_name
  -OEChem-02102213163D

 30 30  0     1  0  0  0  0  0999 V2000
   -3.5507   -3.2183    1.8116 H   0  0  0  0  0  0  0  0  0  0  0  0
   -3.4597   -2.3913    1.1076 C   0  0  0  0  0  0  0  0  0  0  0  0
   -4.1577   -1.6043    1.3866 H   0  0  0  0  0  0  0  0  0  0  0  0
   -3.6807   -2.7523    0.1036 H   0  0  0  0  0  0  0  0  0  0  0  0
   -2.0477   -1.8543    1.1546 C   0  0  0  0  0  0  0  0  0  0  0  0
   -1.2227   -2.3443    1.9146 O   0  0  0  0  0  0  0  0  0  0  0  0
   -1.7517   -0.8483    0.3266 N   0  0  0  0  0  0  0  0  0  0  0  0
   -2.4847   -0.5123   -0.2804 H   0  0  0  0  0  0  0  0  0  0  0  0
   -0.4117   -0.2463    0.2186 C   0  0  1  0  0  0  0  0  0  0  0  0
    0.1554   -0.5152    1.1133 H   0  0  0  0  0  0  0  0  0  0  0  0
    0.3164   -0.8780   -0.9905 C   0  0  0  0  0  0  0  0  0  0  0  0
    0.1288   -0.2595   -1.8719 H   0  0  0  0  0  0  0  0  0  0  0  0
    1.3928   -0.8569   -0.8073 H   0  0  0  0  0  0  0  0  0  0  0  0
   -0.0792   -2.3050   -1.3062 C   0  0  0  0  0  0  0  0  0  0  0  0
   -1.3743   -2.7841   -1.3468 N   0  3  0  0  0  0  0  0  0  0  0  0
   -2.2003   -2.1907   -1.2271 H   0  0  0  0  0  0  0  0  0  0  0  0
   -1.3336   -4.0948   -1.6581 C   0  0  0  0  0  0  0  0  0  0  0  0
   -2.2011   -4.7412   -1.7751 H   0  0  0  0  0  0  0  0  0  0  0  0
   -0.0406   -4.4582   -1.8149 N   0  0  0  0  0  0  0  0  0  0  0  0
    0.2933   -5.3878   -2.0553 H   0  0  0  0  0  0  0  0  0  0  0  0
    0.7606   -3.3459   -1.5972 C   0  0  0  0  0  0  0  0  0  0  0  0
    1.8450   -3.2996   -1.6465 H   0  0  0  0  0  0  0  0  0  0  0  0
   -0.4874    1.2908    0.1962 C   0  0  0  0  0  0  0  0  0  0  0  0
   -1.3116    1.8673   -0.5151 O   0  0  0  0  0  0  0  0  0  0  0  0
    0.3889    1.9422    0.9708 N   0  0  0  0  0  0  0  0  0  0  0  0
    1.0197    1.3866    1.5283 H   0  0  0  0  0  0  0  0  0  0  0  0
    0.5081    3.3999    1.0720 C   0  0  0  0  0  0  0  0  0  0  0  0
    0.0188    3.7538    1.9817 H   0  0  0  0  0  0  0  0  0  0  0  0
    1.5607    3.6858    1.1098 H   0  0  0  0  0  0  0  0  0  0  0  0
    0.0459    3.8890    0.2119 H   0  0  0  0  0  0  0  0  0  0  0  0
  5  6  2  0  0  0  0
  5  7  1  0  0  0  0
  2  3  1  0  0  0  0
  2  4  1  0  0  0  0
  2  5  1  0  0  0  0
  1  2  1  0  0  0  0
 23 24  2  0  0  0  0
 23 25  1  0  0  0  0
 21 22  1  0  0  0  0
 19 20  1  0  0  0  0
 19 21  1  0  0  0  0
 17 18  1  0  0  0  0
 17 19  1  0  0  0  0
 15 16  1  0  0  0  0
 15 17  2  0  0  0  0
 14 15  1  0  0  0  0
 14 21  2  0  0  0  0
 11 12  1  0  0  0  0
 11 13  1  0  0  0  0
 11 14  1  0  0  0  0
  9 10  1  0  0  0  0
  9 11  1  0  0  0  0
  9 23  1  0  0  0  0
  7  8  1  0  0  0  0
  7  9  1  0  0  0  0
 27 28  1  0  0  0  0
 27 29  1  0  0  0  0
 27 30  1  0  0  0  0
 25 26  1  0  0  0  0
 25 27  1  0  0  0  0
M  CHG  1  15   1
M  END
$$$$
default_name
  -OEChem-02102213163D

 30 30  0     1  0  0  0  0  0999 V2000
   -3.5507   -3.2183    1.8116 H   0  0  0  0  0  0  0  0  0  0  0  0
   -3.4597   -2.3913    1.1076 C   0  0  0  0  0  0  0  0  0  0  0  0
   -4.1577   -1.6043    1.3866 H   0  0  0  0  0  0  0  0  0  0  0  0
   -3.6807   -2.7523    0.1036 H   0  0  0  0  0  0  0  0  0  0  0  0
   -2.0477   -1.8543    1.1546 C   0  0  0  0  0  0  0  0  0  0  0  0
   -1.2227   -2.3443    1.9146 O   0  0  0  0  0  0  0  0  0  0  0  0
   -1.7517   -0.8483    0.3266 N   0  0  0  0  0  0  0  0  0  0  0  0
   -2.4847   -0.5123   -0.2804 H   0  0  0  0  0  0  0  0  0  0  0  0
   -0.4117   -0.2463    0.2186 C   0  0  1  0  0  0  0  0  0  0  0  0
    0.1554   -0.5152    1.1133 H   0  0  0  0  0  0  0  0  0  0  0  0
    0.3164   -0.8780   -0.9905 C   0  0  0  0  0  0  0  0  0  0  0  0
    0.1288   -0.2595   -1.8719 H   0  0  0  0  0  0  0  0  0  0  0  0
    1.3928   -0.8569   -0.8073 H   0  0  0  0  0  0  0  0  0  0  0  0
   -0.0792   -2.3050   -1.3062 C   0  0  0  0  0  0  0  0  0  0  0  0
   -1.3532   -2.7263   -1.6346 N   0  3  0  0  0  0  0  0  0  0  0  0
   -2.1450   -2.0886   -1.7580 H   0  0  0  0  0  0  0  0  0  0  0  0
   -1.3202   -4.0570   -1.8459 C   0  0  0  0  0  0  0  0  0  0  0  0
   -2.1721   -4.6701   -2.1330 H   0  0  0  0  0  0  0  0  0  0  0  0
   -0.0529   -4.4896   -1.6576 N   0  0  0  0  0  0  0  0  0  0  0  0
    0.2706   -5.4487   -1.7516 H   0  0  0  0  0  0  0  0  0  0  0  0
    0.7395   -3.4018   -1.3179 C   0  0  0  0  0  0  0  0  0  0  0  0
    1.8043   -3.4088   -1.1019 H   0  0  0  0  0  0  0  0  0  0  0  0
   -0.4874    1.2908    0.1962 C   0  0  0  0  0  0  0  0  0  0  0  0
   -1.3116    1.8673   -0.5151 O   0  0  0  0  0  0  0  0  0  0  0  0
    0.3889    1.9422    0.9708 N   0  0  0  0  0  0  0  0  0  0  0  0
    1.0197    1.3866    1.5283 H   0  0  0  0  0  0  0  0  0  0  0  0
    0.5081    3.3999    1.0720 C   0  0  0  0  0  0  0  0  0  0  0  0
    0.0188    3.7538    1.9817 H   0  0  0  0  0  0  0  0  0  0  0  0
    1.5607    3.6858    1.1098 H   0  0  0  0  0  0  0  0  0  0  0  0
    0.0459    3.8890    0.2119 H   0  0  0  0  0  0  0  0  0  0  0  0
  5  6  2  0  0  0  0
  5  7  1  0  0  0  0
  2  3  1  0  0  0  0
  2  4  1  0  0  0  0
  2  5  1  0  0  0  0
  1  2  1  0  0  0  0
 23 24  2  0  0  0  0
 23 25  1  0  0  0  0
 21 22  1  0  0  0  0
 19 20  1  0  0  0  0
 19 21  1  0  0  0  0
 17 18  1  0  0  0  0
 17 19  1  0  0  0  0
 15 16  1  0  0  0  0
 15 17  2  0  0  0  0
 14 15  1  0  0  0  0
 14 21  2  0  0  0  0
 11 12  1  0  0  0  0
 11 13  1  0  0  0  0
 11 14  1  0  0  0  0
  9 10  1  0  0  0  0
  9 11  1  0  0  0  0
  9 23  1  0  0  0  0
  7  8  1  0  0  0  0
  7  9  1  0  0  0  0
 27 28  1  0  0  0  0
 27 29  1  0  0  0  0
 27 30  1  0  0  0  0
 25 26  1  0  0  0  0
 25 27  1  0  0  0  0
M  CHG  1  15   1
M  END
$$$$
default_name
  -OEChem-02102213163D

 30 30  0     1  0  0  0  0  0999 V2000
   -3.5507   -3.2183    1.8116 H   0  0  0  0  0  0  0  0  0  0  0  0
   -3.4597   -2.3913    1.1076 C   0  0  0  0  0  0  0  0  0  0  0  0
   -4.1577   -1.6043    1.3866 H   0  0  0  0  0  0  0  0  0  0  0  0
   -3.6807   -2.7523    0.1036 H   0  0  0  0  0  0  0  0  0  0  0  0
   -2.0477   -1.8543    1.1546 C   0  0  0  0  0  0  0  0  0  0  0  0
   -1.2227   -2.3443    1.9146 O   0  0  0  0  0  0  0  0  0  0  0  0
   -1.7517   -0.8483    0.3266 N   0  0  0  0  0  0  0  0  0  0  0  0
   -2.4847   -0.5123   -0.2804 H   0  0  0  0  0  0  0  0  0  0  0  0
   -0.4117   -0.2463    0.2186 C   0  0  1  0  0  0  0  0  0  0  0  0
    0.1554   -0.5152    1.1133 H   0  0  0  0  0  0  0  0  0  0  0  0
    0.3164   -0.8780   -0.9905 C   0  0  0  0  0  0  0  0  0  0  0  0
    0.1288   -0.2595   -1.8719 H   0  0  0  0  0  0  0  0  0  0  0  0
    1.3928   -0.8569   -0.8073 H   0  0  0  0  0  0  0  0  0  0  0  0
   -0.0792   -2.3050   -1.3062 C   0  0  0  0  0  0  0  0  0  0  0  0
   -1.2595   -2.6910   -1.9114 N   0  3  0  0  0  0  0  0  0  0  0  0
   -1.9565   -2.0289   -2.2642 H   0  0  0  0  0  0  0  0  0  0  0  0
   -1.2594   -4.0339   -2.0266 C   0  0  0  0  0  0  0  0  0  0  0  0
   -2.0530   -4.6271   -2.4764 H   0  0  0  0  0  0  0  0  0  0  0  0
   -0.1049   -4.5085   -1.5066 N   0  0  0  0  0  0  0  0  0  0  0  0
    0.1713   -5.4858   -1.4595 H   0  0  0  0  0  0  0  0  0  0  0  0
    0.6479   -3.4358   -1.0494 C   0  0  0  0  0  0  0  0  0  0  0  0
    1.6262   -3.4752   -0.5784 H   0  0  0  0  0  0  0  0  0  0  0  0
   -0.4874    1.2908    0.1962 C   0  0  0  0  0  0  0  0  0  0  0  0
   -1.3116    1.8673   -0.5151 O   0  0  0  0  0  0  0  0  0  0  0  0
    0.3889    1.9422    0.9708 N   0  0  0  0  0  0  0  0  0  0  0  0
    1.0197    1.3866    1.5283 H   0  0  0  0  0  0  0  0  0  0  0  0
    0.5081    3.3999    1.0720 C   0  0  0  0  0  0  0  0  0  0  0  0
    0.0188    3.7538    1.9817 H   0  0  0  0  0  0  0  0  0  0  0  0
    1.5607    3.6858    1.1098 H   0  0  0  0  0  0  0  0  0  0  0  0
    0.0459    3.8890    0.2119 H   0  0  0  0  0  0  0  0  0  0  0  0
  5  6  2  0  0  0  0
  5  7  1  0  0  0  0
  2  3  1  0  0  0  0
  2  4  1  0  0  0  0
  2  5  1  0  0  0  0
  1  2  1  0  0  0  0
 23 24  2  0  0  0  0
 23 25  1  0  0  0  0
 21 22  1  0  0  0  0
 19 20  1  0  0  0  0
 19 21  1  0  0  0  0
 17 18  1  0  0  0  0
 17 19  1  0  0  0  0
 15 16  1  0  0  0  0
 15 17  2  0  0  0  0
 14 15  1  0  0  0  0
 14 21  2  0  0  0  0
 11 12  1  0  0  0  0
 11 13  1  0  0  0  0
 11 14  1  0  0  0  0
  9 10  1  0  0  0  0
  9 11  1  0  0  0  0
  9 23  1  0  0  0  0
  7  8  1  0  0  0  0
  7  9  1  0  0  0  0
 27 28  1  0  0  0  0
 27 29  1  0  0  0  0
 27 30  1  0  0  0  0
 25 26  1  0  0  0  0
 25 27  1  0  0  0  0
M  CHG  1  15   1
M  END
$$$$
default_name
  -OEChem-02102213163D

 30 30  0     1  0  0  0  0  0999 V2000
   -3.5507   -3.2183    1.8116 H   0  0  0  0  0  0  0  0  0  0  0  0
   -3.4597   -2.3913    1.1076 C   0  0  0  0  0  0  0  0  0  0  0  0
   -4.1577   -1.6043    1.3866 H   0  0  0  0  0  0  0  0  0  0  0  0
   -3.6807   -2.7523    0.1036 H   0  0  0  0  0  0  0  0  0  0  0  0
   -2.0477   -1.8543    1.1546 C   0  0  0  0  0  0  0  0  0  0  0  0
   -1.2227   -2.3443    1.9146 O   0  0  0  0  0  0  0  0  0  0  0  0
   -1.7517   -0.8483    0.3266 N   0  0  0  0  0  0  0  0  0  0  0  0
   -2.4847   -0.5123   -0.2804 H   0  0  0  0  0  0  0  0  0  0  0  0
   -0.4117   -0.2463    0.2186 C   0  0  1  0  0  0  0  0  0  0  0  0
    0.1554   -0.5152    1.1133 H   0  0  0  0  0  0  0  0  0  0  0  0
    0.3164   -0.8780   -0.9905 C   0  0  0  0  0  0  0  0  0  0  0  0
    0.1288   -0.2595   -1.8719 H   0  0  0  0  0  0  0  0  0  0  0  0
    1.3928   -0.8569   -0.8073 H   0  0  0  0  0  0  0  0  0  0  0  0
   -0.0792   -2.3050   -1.3062 C   0  0  0  0  0  0  0  0  0  0  0  0
   -1.0996   -2.6807   -2.1582 N   0  3  0  0  0  0  0  0  0  0  0  0
   -1.6478   -2.0156   -2.7112 H   0  0  0  0  0  0  0  0  0  0  0  0
   -1.1553   -4.0271   -2.1879 C   0  0  0  0  0  0  0  0  0  0  0  0
   -1.8519   -4.6153   -2.7819 H   0  0  0  0  0  0  0  0  0  0  0  0
   -0.1930   -4.5139   -1.3722 N   0  0  0  0  0  0  0  0  0  0  0  0
    0.0021   -5.4965   -1.1992 H   0  0  0  0  0  0  0  0  0  0  0  0
    0.4922   -3.4456   -0.8102 C   0  0  0  0  0  0  0  0  0  0  0  0
    1.3229   -3.4944   -0.1116 H   0  0  0  0  0  0  0  0  0  0  0  0
   -0.4874    1.2908    0.1962 C   0  0  0  0  0  0  0  0  0  0  0  0
   -1.3116    1.8673   -0.5151 O   0  0  0  0  0  0  0  0  0  0  0  0
    0.3889    1.9422    0.9708 N   0  0  0  0  0  0  0  0  0  0  0  0
    1.0197    1.3866    1.5283 H   0  0  0  0  0  0  0  0  0  0  0  0
    0.5081    3.3999    1.0720 C   0  0  0  0  0  0  0  0  0  0  0  0
    0.0188    3.7538    1.9817 H   0  0  0  0  0  0  0  0  0  0  0  0
    1.5607    3.6858    1.1098 H   0  0  0  0  0  0  0  0  0  0  0  0
    0.0459    3.8890    0.2119 H   0  0  0  0  0  0  0  0  0  0  0  0
  5  6  2  0  0  0  0
  5  7  1  0  0  0  0
  2  3  1  0  0  0  0
  2  4  1  0  0  0  0
  2  5  1  0  0  0  0
  1  2  1  0  0  0  0
 23 24  2  0  0  0  0
 23 25  1  0  0  0  0
 21 22  1  0  0  0  0
 19 20  1  0  0  0  0
 19 21  1  0  0  0  0
 17 18  1  0  0  0  0
 17 19  1  0  0  0  0
 15 16  1  0  0  0  0
 15 17  2  0  0  0  0
 14 15  1  0  0  0  0
 14 21  2  0  0  0  0
 11 12  1  0  0  0  0
 11 13  1  0  0  0  0
 11 14  1  0  0  0  0
  9 10  1  0  0  0  0
  9 11  1  0  0  0  0
  9 23  1  0  0  0  0
  7  8  1  0  0  0  0
  7  9  1  0  0  0  0
 27 28  1  0  0  0  0
 27 29  1  0  0  0  0
 27 30  1  0  0  0  0
 25 26  1  0  0  0  0
 25 27  1  0  0  0  0
M  CHG  1  15   1
M  END
$$$$
default_name
  -OEChem-02102213163D

 30 30  0     1  0  0  0  0  0999 V2000
   -3.5507   -3.2183    1.8116 H   0  0  0  0  0  0  0  0  0  0  0  0
   -3.4597   -2.3913    1.1076 C   0  0  0  0  0  0  0  0  0  0  0  0
   -4.1577   -1.6043    1.3866 H   0  0  0  0  0  0  0  0  0  0  0  0
   -3.6807   -2.7523    0.1036 H   0  0  0  0  0  0  0  0  0  0  0  0
   -2.0477   -1.8543    1.1546 C   0  0  0  0  0  0  0  0  0  0  0  0
   -1.2227   -2.3443    1.9146 O   0  0  0  0  0  0  0  0  0  0  0  0
   -1.7517   -0.8483    0.3266 N   0  0  0  0  0  0  0  0  0  0  0  0
   -2.4847   -0.5123   -0.2804 H   0  0  0  0  0  0  0  0  0  0  0  0
   -0.4117   -0.2463    0.2186 C   0  0  1  0  0  0  0  0  0  0  0  0
    0.1554   -0.5152    1.1133 H   0  0  0  0  0  0  0  0  0  0  0  0
    0.3164   -0.8780   -0.9905 C   0  0  0  0  0  0  0  0  0  0  0  0
    0.1288   -0.2595   -1.8719 H   0  0  0  0  0  0  0  0  0  0  0  0
    1.3928   -0.8569   -0.8073 H   0  0  0  0  0  0  0  0  0  0  0  0
   -0.0792   -2.3050   -1.3062 C   0  0  0  0  0  0  0  0  0  0  0  0
   -0.8844   -2.6961   -2.3584 N   0  3  0  0  0  0  0  0  0  0  0  0
   -1.2398   -2.0496   -3.0686 H   0  0  0  0  0  0  0  0  0  0  0  0
   -1.0151   -4.0370   -2.3187 C   0  0  0  0  0  0  0  0  0  0  0  0
   -1.5824   -4.6354   -3.0287 H   0  0  0  0  0  0  0  0  0  0  0  0
   -0.3111   -4.5052   -1.2634 N   0  0  0  0  0  0  0  0  0  0  0  0
   -0.2254   -5.4801   -0.9883 H   0  0  0  0  0  0  0  0  0  0  0  0
    0.2829   -3.4304   -0.6164 C   0  0  0  0  0  0  0  0  0  0  0  0
    0.9150   -3.4650    0.2665 H   0  0  0  0  0  0  0  0  0  0  0  0
   -0.4874    1.2908    0.1962 C   0  0  0  0  0  0  0  0  0  0  0  0
   -1.3116    1.8673   -0.5151 O   0  0  0  0  0  0  0  0  0  0  0  0
    0.3889    1.9422    0.9708 N   0  0  0  0  0  0  0  0  0  0  0  0
    1.0197    1.3866    1.5283 H   0  0  0  0  0  0  0  0  0  0  0  0
    0.5081    3.3999    1.0720 C   0  0  0  0  0  0  0  0  0  0  0  0
    0.0188    3.7538    1.9817 H   0  0  0  0  0  0  0  0  0  0  0  0
    1.5607    3.6858    1.1098 H   0  0  0  0  0  0  0  0  0  0  0  0
    0.0459    3.8890    0.2119 H   0  0  0  0  0  0  0  0  0  0  0  0
  5  6  2  0  0  0  0
  5  7  1  0  0  0  0
  2  3  1  0  0  0  0
  2  4  1  0  0  0  0
  2  5  1  0  0  0  0
  1  2  1  0  0  0  0
 23 24  2  0  0  0  0
 23 25  1  0  0  0  0
 21 22  1  0  0  0  0
 19 20  1  0  0  0  0
 19 21  1  0  0  0  0
 17 18  1  0  0  0  0
 17 19  1  0  0  0  0
 15 16  1  0  0  0  0
 15 17  2  0  0  0  0
 14 15  1  0  0  0  0
 14 21  2  0  0  0  0
 11 12  1  0  0  0  0
 11 13  1  0  0  0  0
 11 14  1  0  0  0  0
  9 10  1  0  0  0  0
  9 11  1  0  0  0  0
  9 23  1  0  0  0  0
  7  8  1  0  0  0  0
  7  9  1  0  0  0  0
 27 28  1  0  0  0  0
 27 29  1  0  0  0  0
 27 30  1  0  0  0  0
 25 26  1  0  0  0  0
 25 27  1  0  0  0  0
M  CHG  1  15   1
M  END
$$$$
default_name
  -OEChem-02102213163D

 30 30  0     1  0  0  0  0  0999 V2000
   -3.5507   -3.2183    1.8116 H   0  0  0  0  0  0  0  0  0  0  0  0
   -3.4597   -2.3913    1.1076 C   0  0  0  0  0  0  0  0  0  0  0  0
   -4.1577   -1.6043    1.3866 H   0  0  0  0  0  0  0  0  0  0  0  0
   -3.6807   -2.7523    0.1036 H   0  0  0  0  0  0  0  0  0  0  0  0
   -2.0477   -1.8543    1.1546 C   0  0  0  0  0  0  0  0  0  0  0  0
   -1.2227   -2.3443    1.9146 O   0  0  0  0  0  0  0  0  0  0  0  0
   -1.7517   -0.8483    0.3266 N   0  0  0  0  0  0  0  0  0  0  0  0
   -2.4847   -0.5123   -0.2804 H   0  0  0  0  0  0  0  0  0  0  0  0
   -0.4117   -0.2463    0.2186 C   0  0  1  0  0  0  0  0  0  0  0  0
    0.1554   -0.5152    1.1133 H   0  0  0  0  0  0  0  0  0  0  0  0
    0.3164   -0.8780   -0.9905 C   0  0  0  0  0  0  0  0  0  0  0  0
    0.1288   -0.2595   -1.8719 H   0  0  0  0  0  0  0  0  0  0  0  0
    1.3928   -0.8569   -0.8073 H   0  0  0  0  0  0  0  0  0  0  0  0
   -0.0792   -2.3050   -1.3062 C   0  0  0  0  0  0  0  0  0  0  0  0
   -0.6285   -2.7361   -2.4982 N   0  3  0  0  0  0  0  0  0  0  0  0
   -0.7604   -2.1287   -3.3120 H   0  0  0  0  0  0  0  0  0  0  0  0
   -0.8482   -4.0630   -2.4102 C   0  0  0  0  0  0  0  0  0  0  0  0
   -1.2630   -4.6860   -3.2001 H   0  0  0  0  0  0  0  0  0  0  0  0
   -0.4513   -4.4831   -1.1877 N   0  0  0  0  0  0  0  0  0  0  0  0
   -0.4956   -5.4377   -0.8411 H   0  0  0  0  0  0  0  0  0  0  0  0
    0.0342   -3.3913   -0.4814 C   0  0  0  0  0  0  0  0  0  0  0  0
    0.4304   -3.3890    0.5303 H   0  0  0  0  0  0  0  0  0  0  0  0
   -0.4874    1.2908    0.1962 C   0  0  0  0  0  0  0  0  0  0  0  0
   -1.3116    1.8673   -0.5151 O   0  0  0  0  0  0  0  0  0  0  0  0
    0.3889    1.9422    0.9708 N   0  0  0  0  0  0  0  0  0  0  0  0
    1.0197    1.3866    1.5283 H   0  0  0  0  0  0  0  0  0  0  0  0
    0.5081    3.3999    1.0720 C   0  0  0  0  0  0  0  0  0  0  0  0
    0.0188    3.7538    1.9817 H   0  0  0  0  0  0  0  0  0  0  0  0
    1.5607    3.6858    1.1098 H   0  0  0  0  0  0  0  0  0  0  0  0
    0.0459    3.8890    0.2119 H   0  0  0  0  0  0  0  0  0  0  0  0
  5  6  2  0  0  0  0
  5  7  1  0  0  0  0
  2  3  1  0  0  0  0
  2  4  1  0  0  0  0
  2  5  1  0  0  0  0
  1  2  1  0  0  0  0
 23 24  2  0  0  0  0
 23 25  1  0  0  0  0
 21 22  1  0  0  0  0
 19 20  1  0  0  0  0
 19 21  1  0  0  0  0
 17 18  1  0  0  0  0
 17 19  1  0  0  0  0
 15 16  1  0  0  0  0
 15 17  2  0  0  0  0
 14 15  1  0  0  0  0
 14 21  2  0  0  0  0
 11 12  1  0  0  0  0
 11 13  1  0  0  0  0
 11 14  1  0  0  0  0
  9 10  1  0  0  0  0
  9 11  1  0  0  0  0
  9 23  1  0  0  0  0
  7  8  1  0  0  0  0
  7  9  1  0  0  0  0
 27 28  1  0  0  0  0
 27 29  1  0  0  0  0
 27 30  1  0  0  0  0
 25 26  1  0  0  0  0
 25 27  1  0  0  0  0
M  CHG  1  15   1
M  END
$$$$
default_name
  -OEChem-02102213163D

 30 30  0     1  0  0  0  0  0999 V2000
   -3.5507   -3.2183    1.8116 H   0  0  0  0  0  0  0  0  0  0  0  0
   -3.4597   -2.3913    1.1076 C   0  0  0  0  0  0  0  0  0  0  0  0
   -4.1577   -1.6043    1.3866 H   0  0  0  0  0  0  0  0  0  0  0  0
   -3.6807   -2.7523    0.1036 H   0  0  0  0  0  0  0  0  0  0  0  0
   -2.0477   -1.8543    1.1546 C   0  0  0  0  0  0  0  0  0  0  0  0
   -1.2227   -2.3443    1.9146 O   0  0  0  0  0  0  0  0  0  0  0  0
   -1.7517   -0.8483    0.3266 N   0  0  0  0  0  0  0  0  0  0  0  0
   -2.4847   -0.5123   -0.2804 H   0  0  0  0  0  0  0  0  0  0  0  0
   -0.4117   -0.2463    0.2186 C   0  0  1  0  0  0  0  0  0  0  0  0
    0.1554   -0.5152    1.1133 H   0  0  0  0  0  0  0  0  0  0  0  0
    0.3164   -0.8780   -0.9905 C   0  0  0  0  0  0  0  0  0  0  0  0
    0.1288   -0.2595   -1.8719 H   0  0  0  0  0  0  0  0  0  0  0  0
    1.3928   -0.8569   -0.8073 H   0  0  0  0  0  0  0  0  0  0  0  0
   -0.0792   -2.3050   -1.3062 C   0  0  0  0  0  0  0  0  0  0  0  0
   -0.3494   -2.7981   -2.5680 N   0  3  0  0  0  0  0  0  0  0  0  0
   -0.2423   -2.2474   -3.4248 H   0  0  0  0  0  0  0  0  0  0  0  0
   -0.6662   -4.1033   -2.4561 C   0  0  0  0  0  0  0  0  0  0  0  0
   -0.9154   -4.7638   -3.2843 H   0  0  0  0  0  0  0  0  0  0  0  0
   -0.6039   -4.4490   -1.1504 N   0  0  0  0  0  0  0  0  0  0  0  0
   -0.7903   -5.3723   -0.7678 H   0  0  0  0  0  0  0  0  0  0  0  0
   -0.2368   -3.3311   -0.4142 C   0  0  0  0  0  0  0  0  0  0  0  0
   -0.0979   -3.2716    0.6618 H   0  0  0  0  0  0  0  0  0  0  0  0
   -0.4874    1.2908    0.1962 C   0  0  0  0  0  0  0  0  0  0  0  0
   -1.3116    1.8673   -0.5151 O   0  0  0  0  0  0  0  0  0  0  0  0
    0.3889    1.9422    0.9708 N   0  0  0  0  0  0  0  0  0  0  0  0
    1.0197    1.3866    1.5283 H   0  0  0  0  0  0  0  0  0  0  0  0
    0.5081    3.3999    1.0720 C   0  0  0  0  0  0  0  0  0  0  0  0
    0.0188    3.7538    1.9817 H   0  0  0  0  0  0  0  0  0  0  0  0
    1.5607    3.6858    1.1098 H   0  0  0  0  0  0  0  0  0  0  0  0
    0.0459    3.8890    0.2119 H   0  0  0  0  0  0  0  0  0  0  0  0
  5  6  2  0  0  0  0
  5  7  1  0  0  0  0
  2  3  1  0  0  0  0
  2  4  1  0  0  0  0
  2  5  1  0  0  0  0
  1  2  1  0  0  0  0
 23 24  2  0  0  0  0
 23 25  1  0  0  0  0
 21 22  1  0  0  0  0
 19 20  1  0  0  0  0
 19 21  1  0  0  0  0
 17 18  1  0  0  0  0
 17 19  1  0  0  0  0
 15 16  1  0  0  0  0
 15 17  2  0  0  0  0
 14 15  1  0  0  0  0
 14 21  2  0  0  0  0
 11 12  1  0  0  0  0
 11 13  1  0  0  0  0
 11 14  1  0  0  0  0
  9 10  1  0  0  0  0
  9 11  1  0  0  0  0
  9 23  1  0  0  0  0
  7  8  1  0  0  0  0
  7  9  1  0  0  0  0
 27 28  1  0  0  0  0
 27 29  1  0  0  0  0
 27 30  1  0  0  0  0
 25 26  1  0  0  0  0
 25 27  1  0  0  0  0
M  CHG  1  15   1
M  END
$$$$
default_name
  -OEChem-02102213163D

 30 30  0     1  0  0  0  0  0999 V2000
   -3.5507   -3.2183    1.8116 H   0  0  0  0  0  0  0  0  0  0  0  0
   -3.4597   -2.3913    1.1076 C   0  0  0  0  0  0  0  0  0  0  0  0
   -4.1577   -1.6043    1.3866 H   0  0  0  0  0  0  0  0  0  0  0  0
   -3.6807   -2.7523    0.1036 H   0  0  0  0  0  0  0  0  0  0  0  0
   -2.0477   -1.8543    1.1546 C   0  0  0  0  0  0  0  0  0  0  0  0
   -1.2227   -2.3443    1.9146 O   0  0  0  0  0  0  0  0  0  0  0  0
   -1.7517   -0.8483    0.3266 N   0  0  0  0  0  0  0  0  0  0  0  0
   -2.4847   -0.5123   -0.2804 H   0  0  0  0  0  0  0  0  0  0  0  0
   -0.4117   -0.2463    0.2186 C   0  0  1  0  0  0  0  0  0  0  0  0
    0.1554   -0.5152    1.1133 H   0  0  0  0  0  0  0  0  0  0  0  0
    0.3164   -0.8780   -0.9905 C   0  0  0  0  0  0  0  0  0  0  0  0
    0.1288   -0.2595   -1.8719 H   0  0  0  0  0  0  0  0  0  0  0  0
    1.3928   -0.8569   -0.8073 H   0  0  0  0  0  0  0  0  0  0  0  0
   -0.0792   -2.3050   -1.3062 C   0  0  0  0  0  0  0  0  0  0  0  0
   -0.0661   -2.8776   -2.5633 N   0  3  0  0  0  0  0  0  0  0  0  0
    0.2794   -2.3976   -3.3993 H   0  0  0  0  0  0  0  0  0  0  0  0
   -0.4813   -4.1552   -2.4534 C   0  0  0  0  0  0  0  0  0  0  0  0
   -0.5633   -4.8633   -3.2755 H   0  0  0  0  0  0  0  0  0  0  0  0
   -0.7587   -4.4054   -1.1538 N   0  0  0  0  0  0  0  0  0  0  0  0
   -1.0893   -5.2882   -0.7732 H   0  0  0  0  0  0  0  0  0  0  0  0
   -0.5117   -3.2537   -0.4195 C   0  0  0  0  0  0  0  0  0  0  0  0
   -0.6340   -3.1208    0.6519 H   0  0  0  0  0  0  0  0  0  0  0  0
   -0.4874    1.2908    0.1962 C   0  0  0  0  0  0  0  0  0  0  0  0
   -1.3116    1.8673   -0.5151 O   0  0  0  0  0  0  0  0  0  0  0  0
    0.3889    1.9422    0.9708 N   0  0  0  0  0  0  0  0  0  0  0  0
    1.0197    1.3866    1.5283 H   0  0  0  0  0  0  0  0  0  0  0  0
    0.5081    3.3999    1.0720 C   0  0  0  0  0  0  0  0  0  0  0  0
    0.0188    3.7538    1.9817 H   0  0  0  0  0  0  0  0  0  0  0  0
    1.5607    3.6858    1.1098 H   0  0  0  0  0  0  0  0  0  0  0  0
    0.0459    3.8890    0.2119 H   0  0  0  0  0  0  0  0  0  0  0  0
  5  6  2  0  0  0  0
  5  7  1  0  0  0  0
  2  3  1  0  0  0  0
  2  4  1  0  0  0  0
  2  5  1  0  0  0  0
  1  2  1  0  0  0  0
 23 24  2  0  0  0  0
 23 25  1  0  0  0  0
 21 22  1  0  0  0  0
 19 20  1  0  0  0  0
 19 21  1  0  0  0  0
 17 18  1  0  0  0  0
 17 19  1  0  0  0  0
 15 16  1  0  0  0  0
 15 17  2  0  0  0  0
 14 15  1  0  0  0  0
 14 21  2  0  0  0  0
 11 12  1  0  0  0  0
 11 13  1  0  0  0  0
 11 14  1  0  0  0  0
  9 10  1  0  0  0  0
  9 11  1  0  0  0  0
  9 23  1  0  0  0  0
  7  8  1  0  0  0  0
  7  9  1  0  0  0  0
 27 28  1  0  0  0  0
 27 29  1  0  0  0  0
 27 30  1  0  0  0  0
 25 26  1  0  0  0  0
 25 27  1  0  0  0  0
M  CHG  1  15   1
M  END
$$$$
default_name
  -OEChem-02102213163D

 30 30  0     1  0  0  0  0  0999 V2000
   -3.5507   -3.2183    1.8116 H   0  0  0  0  0  0  0  0  0  0  0  0
   -3.4597   -2.3913    1.1076 C   0  0  0  0  0  0  0  0  0  0  0  0
   -4.1577   -1.6043    1.3866 H   0  0  0  0  0  0  0  0  0  0  0  0
   -3.6807   -2.7523    0.1036 H   0  0  0  0  0  0  0  0  0  0  0  0
   -2.0477   -1.8543    1.1546 C   0  0  0  0  0  0  0  0  0  0  0  0
   -1.2227   -2.3443    1.9146 O   0  0  0  0  0  0  0  0  0  0  0  0
   -1.7517   -0.8483    0.3266 N   0  0  0  0  0  0  0  0  0  0  0  0
   -2.4847   -0.5123   -0.2804 H   0  0  0  0  0  0  0  0  0  0  0  0
   -0.4117   -0.2463    0.2186 C   0  0  1  0  0  0  0  0  0  0  0  0
    0.1554   -0.5152    1.1133 H   0  0  0  0  0  0  0  0  0  0  0  0
    0.3164   -0.8780   -0.9905 C   0  0  0  0  0  0  0  0  0  0  0  0
    0.1288   -0.2595   -1.8719 H   0  0  0  0  0  0  0  0  0  0  0  0
    1.3928   -0.8569   -0.8073 H   0  0  0  0  0  0  0  0  0  0  0  0
   -0.0792   -2.3050   -1.3062 C   0  0  0  0  0  0  0  0  0  0  0  0
    0.2021   -2.9695   -2.4842 N   0  3  0  0  0  0  0  0  0  0  0  0
    0.7689   -2.5691   -3.2373 H   0  0  0  0  0  0  0  0  0  0  0  0
   -0.3062   -4.2151   -2.4021 C   0  0  0  0  0  0  0  0  0  0  0  0
   -0.2307   -4.9779   -3.1744 H   0  0  0  0  0  0  0  0  0  0  0  0
   -0.9050   -4.3551   -1.1978 N   0  0  0  0  0  0  0  0  0  0  0  0
   -1.3723   -5.1912   -0.8571 H   0  0  0  0  0  0  0  0  0  0  0  0
   -0.7718   -3.1645   -0.4969 C   0  0  0  0  0  0  0  0  0  0  0  0
   -1.1412   -2.9469    0.5014 H   0  0  0  0  0  0  0  0  0  0  0  0
   -0.4874    1.2908    0.1962 C   0  0  0  0  0  0  0  0  0  0  0  0
   -1.3116    1.8673   -0.5151 O   0  0  0  0  0  0  0  0  0  0  0  0
    0.3889    1.9422    0.9708 N   0  0  0  0  0  0  0  0  0  0  0  0
    1.0197    1.3866    1.5283 H   0  0  0  0  0  0  0  0  0  0  0  0
    0.5081    3.3999    1.0720 C   0  0  0  0  0  0  0  0  0  0  0  0
    0.0188    3.7538    1.9817 H   0  0  0  0  0  0  0  0  0  0  0  0
    1.5607    3.6858    1.1098 H   0  0  0  0  0  0  0  0  0  0  0  0
    0.0459    3.8890    0.2119 H   0  0  0  0  0  0  0  0  0  0  0  0
  5  6  2  0  0  0  0
  5  7  1  0  0  0  0
  2  3  1  0  0  0  0
  2  4  1  0  0  0  0
  2  5  1  0  0  0  0
  1  2  1  0  0  0  0
 23 24  2  0  0  0  0
 23 25  1  0  0  0  0
 21 22  1  0  0  0  0
 19 20  1  0  0  0  0
 19 21  1  0  0  0  0
 17 18  1  0  0  0  0
 17 19  1  0  0  0  0
 15 16  1  0  0  0  0
 15 17  2  0  0  0  0
 14 15  1  0  0  0  0
 14 21  2  0  0  0  0
 11 12  1  0  0  0  0
 11 13  1  0  0  0  0
 11 14  1  0  0  0  0
  9 10  1  0  0  0  0
  9 11  1  0  0  0  0
  9 23  1  0  0  0  0
  7  8  1  0  0  0  0
  7  9  1  0  0  0  0
 27 28  1  0  0  0  0
 27 29  1  0  0  0  0
 27 30  1  0  0  0  0
 25 26  1  0  0  0  0
 25 27  1  0  0  0  0
M  CHG  1  15   1
M  END
$$$$
default_name
  -OEChem-02102213163D

 30 30  0     1  0  0  0  0  0999 V2000
   -3.5507   -3.2183    1.8116 H   0  0  0  0  0  0  0  0  0  0  0  0
   -3.4597   -2.3913    1.1076 C   0  0  0  0  0  0  0  0  0  0  0  0
   -4.1577   -1.6043    1.3866 H   0  0  0  0  0  0  0  0  0  0  0  0
   -3.6807   -2.7523    0.1036 H   0  0  0  0  0  0  0  0  0  0  0  0
   -2.0477   -1.8543    1.1546 C   0  0  0  0  0  0  0  0  0  0  0  0
   -1.2227   -2.3443    1.9146 O   0  0  0  0  0  0  0  0  0  0  0  0
   -1.7517   -0.8483    0.3266 N   0  0  0  0  0  0  0  0  0  0  0  0
   -2.4847   -0.5123   -0.2804 H   0  0  0  0  0  0  0  0  0  0  0  0
   -0.4117   -0.2463    0.2186 C   0  0  1  0  0  0  0  0  0  0  0  0
    0.1554   -0.5152    1.1133 H   0  0  0  0  0  0  0  0  0  0  0  0
    0.3164   -0.8780   -0.9905 C   0  0  0  0  0  0  0  0  0  0  0  0
    0.3591   -0.1401   -1.7956 H   0  0  0  0  0  0  0  0  0  0  0  0
    1.3467   -1.1027   -0.7066 H   0  0  0  0  0  0  0  0  0  0  0  0
   -0.3108   -2.1468   -1.5283 C   0  0  0  0  0  0  0  0  0  0  0  0
    0.1642   -2.8810   -2.5977 N   0  3  0  0  0  0  0  0  0  0  0  0
    1.0348   -2.6629   -3.0907 H   0  0  0  0  0  0  0  0  0  0  0  0
   -0.6508   -3.9384   -2.7835 C   0  0  0  0  0  0  0  0  0  0  0  0
   -0.5239   -4.7045   -3.5458 H   0  0  0  0  0  0  0  0  0  0  0  0
   -1.6333   -3.8905   -1.8558 N   0  0  0  0  0  0  0  0  0  0  0  0
   -2.3902   -4.5612   -1.7527 H   0  0  0  0  0  0  0  0  0  0  0  0
   -1.4349   -2.7712   -1.0593 C   0  0  0  0  0  0  0  0  0  0  0  0
   -2.0468   -2.4454   -0.2227 H   0  0  0  0  0  0  0  0  0  0  0  0
   -0.4874    1.2908    0.1962 C   0  0  0  0  0  0  0  0  0  0  0  0
   -1.3116    1.8673   -0.5151 O   0  0  0  0  0  0  0  0  0  0  0  0
    0.3889    1.9422    0.9708 N   0  0  0  0  0  0  0  0  0  0  0  0
    1.0197    1.3866    1.5283 H   0  0  0  0  0  0  0  0  0  0  0  0
    0.5081    3.3999    1.0720 C   0  0  0  0  0  0  0  0  0  0  0  0
    0.0188    3.7538    1.9817 H   0  0  0  0  0  0  0  0  0  0  0  0
    1.5607    3.6858    1.1098 H   0  0  0  0  0  0  0  0  0  0  0  0
    0.0459    3.8890    0.2119 H   0  0  0  0  0  0  0  0  0  0  0  0
  5  6  2  0  0  0  0
  5  7  1  0  0  0  0
  2  3  1  0  0  0  0
  2  4  1  0  0  0  0
  2  5  1  0  0  0  0
  1  2  1  0  0  0  0
 23 24  2  0  0  0  0
 23 25  1  0  0  0  0
 21 22  1  0  0  0  0
 19 20  1  0  0  0  0
 19 21  1  0  0  0  0
 17 18  1  0  0  0  0
 17 19  1  0  0  0  0
 15 16  1  0  0  0  0
 15 17  2  0  0  0  0
 14 15  1  0  0  0  0
 14 21  2  0  0  0  0
 11 12  1  0  0  0  0
 11 13  1  0  0  0  0
 11 14  1  0  0  0  0
  9 10  1  0  0  0  0
  9 11  1  0  0  0  0
  9 23  1  0  0  0  0
  7  8  1  0  0  0  0
  7  9  1  0  0  0  0
 27 28  1  0  0  0  0
 27 29  1  0  0  0  0
 27 30  1  0  0  0  0
 25 26  1  0  0  0  0
 25 27  1  0  0  0  0
M  CHG  1  15   1
M  END
$$$$
default_name
  -OEChem-02102213163D

 30 30  0     1  0  0  0  0  0999 V2000
   -3.5507   -3.2183    1.8116 H   0  0  0  0  0  0  0  0  0  0  0  0
   -3.4597   -2.3913    1.1076 C   0  0  0  0  0  0  0  0  0  0  0  0
   -4.1577   -1.6043    1.3866 H   0  0  0  0  0  0  0  0  0  0  0  0
   -3.6807   -2.7523    0.1036 H   0  0  0  0  0  0  0  0  0  0  0  0
   -2.0477   -1.8543    1.1546 C   0  0  0  0  0  0  0  0  0  0  0  0
   -1.2227   -2.3443    1.9146 O   0  0  0  0  0  0  0  0  0  0  0  0
   -1.7517   -0.8483    0.3266 N   0  0  0  0  0  0  0  0  0  0  0  0
   -2.4847   -0.5123   -0.2804 H   0  0  0  0  0  0  0  0  0  0  0  0
   -0.4117   -0.2463    0.2186 C   0  0  1  0  0  0  0  0  0  0  0  0
    0.1554   -0.5152    1.1133 H   0  0  0  0  0  0  0  0  0  0  0  0
    0.3164   -0.8780   -0.9905 C   0  0  0  0  0  0  0  0  0  0  0  0
    0.3591   -0.1401   -1.7956 H   0  0  0  0  0  0  0  0  0  0  0  0
    1.3467   -1.1027   -0.7066 H   0  0  0  0  0  0  0  0  0  0  0  0
   -0.3108   -2.1468   -1.5283 C   0  0  0  0  0  0  0  0  0  0  0  0
    0.3012   -3.0371   -2.3892 N   0  3  0  0  0  0  0  0  0  0  0  0
    1.2744   -2.9488   -2.6955 H   0  0  0  0  0  0  0  0  0  0  0  0
   -0.5611   -4.0403   -2.6477 C   0  0  0  0  0  0  0  0  0  0  0  0
   -0.3558   -4.8982   -3.2847 H   0  0  0  0  0  0  0  0  0  0  0  0
   -1.7075   -3.8053   -1.9702 N   0  0  0  0  0  0  0  0  0  0  0  0
   -2.5345   -4.3965   -1.9731 H   0  0  0  0  0  0  0  0  0  0  0  0
   -1.5673   -2.6198   -1.2620 C   0  0  0  0  0  0  0  0  0  0  0  0
   -2.3054   -2.1501   -0.6178 H   0  0  0  0  0  0  0  0  0  0  0  0
   -0.4874    1.2908    0.1962 C   0  0  0  0  0  0  0  0  0  0  0  0
   -1.3116    1.8673   -0.5151 O   0  0  0  0  0  0  0  0  0  0  0  0
    0.3889    1.9422    0.9708 N   0  0  0  0  0  0  0  0  0  0  0  0
    1.0197    1.3866    1.5283 H   0  0  0  0  0  0  0  0  0  0  0  0
    0.5081    3.3999    1.0720 C   0  0  0  0  0  0  0  0  0  0  0  0
    0.0188    3.7538    1.9817 H   0  0  0  0  0  0  0  0  0  0  0  0
    1.5607    3.6858    1.1098 H   0  0  0  0  0  0  0  0  0  0  0  0
    0.0459    3.8890    0.2119 H   0  0  0  0  0  0  0  0  0  0  0  0
  5  6  2  0  0  0  0
  5  7  1  0  0  0  0
  2  3  1  0  0  0  0
  2  4  1  0  0  0  0
  2  5  1  0  0  0  0
  1  2  1  0  0  0  0
 23 24  2  0  0  0  0
 23 25  1  0  0  0  0
 21 22  1  0  0  0  0
 19 20  1  0  0  0  0
 19 21  1  0  0  0  0
 17 18  1  0  0  0  0
 17 19  1  0  0  0  0
 15 16  1  0  0  0  0
 15 17  2  0  0  0  0
 14 15  1  0  0  0  0
 14 21  2  0  0  0  0
 11 12  1  0  0  0  0
 11 13  1  0  0  0  0
 11 14  1  0  0  0  0
  9 10  1  0  0  0  0
  9 11  1  0  0  0  0
  9 23  1  0  0  0  0
  7  8  1  0  0  0  0
  7  9  1  0  0  0  0
 27 28  1  0  0  0  0
 27 29  1  0  0  0  0
 27 30  1  0  0  0  0
 25 26  1  0  0  0  0
 25 27  1  0  0  0  0
M  CHG  1  15   1
M  END
$$$$
default_name
  -OEChem-02102213163D

 30 30  0     1  0  0  0  0  0999 V2000
   -3.5507   -3.2183    1.8116 H   0  0  0  0  0  0  0  0  0  0  0  0
   -3.4597   -2.3913    1.1076 C   0  0  0  0  0  0  0  0  0  0  0  0
   -4.1577   -1.6043    1.3866 H   0  0  0  0  0  0  0  0  0  0  0  0
   -3.6807   -2.7523    0.1036 H   0  0  0  0  0  0  0  0  0  0  0  0
   -2.0477   -1.8543    1.1546 C   0  0  0  0  0  0  0  0  0  0  0  0
   -1.2227   -2.3443    1.9146 O   0  0  0  0  0  0  0  0  0  0  0  0
   -1.7517   -0.8483    0.3266 N   0  0  0  0  0  0  0  0  0  0  0  0
   -2.4847   -0.5123   -0.2804 H   0  0  0  0  0  0  0  0  0  0  0  0
   -0.4117   -0.2463    0.2186 C   0  0  1  0  0  0  0  0  0  0  0  0
    0.1554   -0.5152    1.1133 H   0  0  0  0  0  0  0  0  0  0  0  0
    0.3164   -0.8780   -0.9905 C   0  0  0  0  0  0  0  0  0  0  0  0
    0.3591   -0.1401   -1.7956 H   0  0  0  0  0  0  0  0  0  0  0  0
    1.3467   -1.1027   -0.7066 H   0  0  0  0  0  0  0  0  0  0  0  0
   -0.3108   -2.1468   -1.5283 C   0  0  0  0  0  0  0  0  0  0  0  0
    0.3739   -3.1781   -2.1414 N   0  3  0  0  0  0  0  0  0  0  0  0
    1.3937   -3.2046   -2.2311 H   0  0  0  0  0  0  0  0  0  0  0  0
   -0.5133   -4.1324   -2.4861 C   0  0  0  0  0  0  0  0  0  0  0  0
   -0.2679   -5.0729   -2.9753 H   0  0  0  0  0  0  0  0  0  0  0  0
   -1.7465   -3.7284   -2.1060 N   0  0  0  0  0  0  0  0  0  0  0  0
   -2.6109   -4.2478   -2.2349 H   0  0  0  0  0  0  0  0  0  0  0  0
   -1.6373   -2.4831   -1.5029 C   0  0  0  0  0  0  0  0  0  0  0  0
   -2.4424   -1.8834   -1.0872 H   0  0  0  0  0  0  0  0  0  0  0  0
   -0.4874    1.2908    0.1962 C   0  0  0  0  0  0  0  0  0  0  0  0
   -1.3116    1.8673   -0.5151 O   0  0  0  0  0  0  0  0  0  0  0  0
    0.3889    1.9422    0.9708 N   0  0  0  0  0  0  0  0  0  0  0  0
    1.0197    1.3866    1.5283 H   0  0  0  0  0  0  0  0  0  0  0  0
    0.5081    3.3999    1.0720 C   0  0  0  0  0  0  0  0  0  0  0  0
    0.0188    3.7538    1.9817 H   0  0  0  0  0  0  0  0  0  0  0  0
    1.5607    3.6858    1.1098 H   0  0  0  0  0  0  0  0  0  0  0  0
    0.0459    3.8890    0.2119 H   0  0  0  0  0  0  0  0  0  0  0  0
  5  6  2  0  0  0  0
  5  7  1  0  0  0  0
  2  3  1  0  0  0  0
  2  4  1  0  0  0  0
  2  5  1  0  0  0  0
  1  2  1  0  0  0  0
 23 24  2  0  0  0  0
 23 25  1  0  0  0  0
 21 22  1  0  0  0  0
 19 20  1  0  0  0  0
 19 21  1  0  0  0  0
 17 18  1  0  0  0  0
 17 19  1  0  0  0  0
 15 16  1  0  0  0  0
 15 17  2  0  0  0  0
 14 15  1  0  0  0  0
 14 21  2  0  0  0  0
 11 12  1  0  0  0  0
 11 13  1  0  0  0  0
 11 14  1  0  0  0  0
  9 10  1  0  0  0  0
  9 11  1  0  0  0  0
  9 23  1  0  0  0  0
  7  8  1  0  0  0  0
  7  9  1  0  0  0  0
 27 28  1  0  0  0  0
 27 29  1  0  0  0  0
 27 30  1  0  0  0  0
 25 26  1  0  0  0  0
 25 27  1  0  0  0  0
M  CHG  1  15   1
M  END
$$$$
default_name
  -OEChem-02102213163D

 30 30  0     1  0  0  0  0  0999 V2000
   -3.5507   -3.2183    1.8116 H   0  0  0  0  0  0  0  0  0  0  0  0
   -3.4597   -2.3913    1.1076 C   0  0  0  0  0  0  0  0  0  0  0  0
   -4.1577   -1.6043    1.3866 H   0  0  0  0  0  0  0  0  0  0  0  0
   -3.6807   -2.7523    0.1036 H   0  0  0  0  0  0  0  0  0  0  0  0
   -2.0477   -1.8543    1.1546 C   0  0  0  0  0  0  0  0  0  0  0  0
   -1.2227   -2.3443    1.9146 O   0  0  0  0  0  0  0  0  0  0  0  0
   -1.7517   -0.8483    0.3266 N   0  0  0  0  0  0  0  0  0  0  0  0
   -2.4847   -0.5123   -0.2804 H   0  0  0  0  0  0  0  0  0  0  0  0
   -0.4117   -0.2463    0.2186 C   0  0  1  0  0  0  0  0  0  0  0  0
    0.1554   -0.5152    1.1133 H   0  0  0  0  0  0  0  0  0  0  0  0
    0.3164   -0.8780   -0.9905 C   0  0  0  0  0  0  0  0  0  0  0  0
    0.3591   -0.1401   -1.7956 H   0  0  0  0  0  0  0  0  0  0  0  0
    1.3467   -1.1027   -0.7066 H   0  0  0  0  0  0  0  0  0  0  0  0
   -0.3108   -2.1468   -1.5283 C   0  0  0  0  0  0  0  0  0  0  0  0
    0.3775   -3.2945   -1.8710 N   0  3  0  0  0  0  0  0  0  0  0  0
    1.3848   -3.4129   -1.7293 H   0  0  0  0  0  0  0  0  0  0  0  0
   -0.5107   -4.2085   -2.3097 C   0  0  0  0  0  0  0  0  0  0  0  0
   -0.2661   -5.2164   -2.6387 H   0  0  0  0  0  0  0  0  0  0  0  0
   -1.7477   -3.6652   -2.2539 N   0  0  0  0  0  0  0  0  0  0  0  0
   -2.6142   -4.1252   -2.5203 H   0  0  0  0  0  0  0  0  0  0  0  0
   -1.6402   -2.3704   -1.7654 C   0  0  0  0  0  0  0  0  0  0  0  0
   -2.4483   -1.6636   -1.5989 H   0  0  0  0  0  0  0  0  0  0  0  0
   -0.4874    1.2908    0.1962 C   0  0  0  0  0  0  0  0  0  0  0  0
   -1.3116    1.8673   -0.5151 O   0  0  0  0  0  0  0  0  0  0  0  0
    0.3889    1.9422    0.9708 N   0  0  0  0  0  0  0  0  0  0  0  0
    1.0197    1.3866    1.5283 H   0  0  0  0  0  0  0  0  0  0  0  0
    0.5081    3.3999    1.0720 C   0  0  0  0  0  0  0  0  0  0  0  0
    0.0188    3.7538    1.9817 H   0  0  0  0  0  0  0  0  0  0  0  0
    1.5607    3.6858    1.1098 H   0  0  0  0  0  0  0  0  0  0  0  0
    0.0459    3.8890    0.2119 H   0  0  0  0  0  0  0  0  0  0  0  0
  5  6  2  0  0  0  0
  5  7  1  0  0  0  0
  2  3  1  0  0  0  0
  2  4  1  0  0  0  0
  2  5  1  0  0  0  0
  1  2  1  0  0  0  0
 23 24  2  0  0  0  0
 23 25  1  0  0  0  0
 21 22  1  0  0  0  0
 19 20  1  0  0  0  0
 19 21  1  0  0  0  0
 17 18  1  0  0  0  0
 17 19  1  0  0  0  0
 15 16  1  0  0  0  0
 15 17  2  0  0  0  0
 14 15  1  0  0  0  0
 14 21  2  0  0  0  0
 11 12  1  0  0  0  0
 11 13  1  0  0  0  0
 11 14  1  0  0  0  0
  9 10  1  0  0  0  0
  9 11  1  0  0  0  0
  9 23  1  0  0  0  0
  7  8  1  0  0  0  0
  7  9  1  0  0  0  0
 27 28  1  0  0  0  0
 27 29  1  0  0  0  0
 27 30  1  0  0  0  0
 25 26  1  0  0  0  0
 25 27  1  0  0  0  0
M  CHG  1  15   1
M  END
$$$$
default_name
  -OEChem-02102213163D

 30 30  0     1  0  0  0  0  0999 V2000
   -3.5507   -3.2183    1.8116 H   0  0  0  0  0  0  0  0  0  0  0  0
   -3.4597   -2.3913    1.1076 C   0  0  0  0  0  0  0  0  0  0  0  0
   -4.1577   -1.6043    1.3866 H   0  0  0  0  0  0  0  0  0  0  0  0
   -3.6807   -2.7523    0.1036 H   0  0  0  0  0  0  0  0  0  0  0  0
   -2.0477   -1.8543    1.1546 C   0  0  0  0  0  0  0  0  0  0  0  0
   -1.2227   -2.3443    1.9146 O   0  0  0  0  0  0  0  0  0  0  0  0
   -1.7517   -0.8483    0.3266 N   0  0  0  0  0  0  0  0  0  0  0  0
   -2.4847   -0.5123   -0.2804 H   0  0  0  0  0  0  0  0  0  0  0  0
   -0.4117   -0.2463    0.2186 C   0  0  1  0  0  0  0  0  0  0  0  0
    0.1554   -0.5152    1.1133 H   0  0  0  0  0  0  0  0  0  0  0  0
    0.3164   -0.8780   -0.9905 C   0  0  0  0  0  0  0  0  0  0  0  0
    0.3591   -0.1401   -1.7956 H   0  0  0  0  0  0  0  0  0  0  0  0
    1.3467   -1.1027   -0.7066 H   0  0  0  0  0  0  0  0  0  0  0  0
   -0.3108   -2.1468   -1.5283 C   0  0  0  0  0  0  0  0  0  0  0  0
    0.3116   -3.3782   -1.5967 N   0  3  0  0  0  0  0  0  0  0  0  0
    1.2481   -3.5594   -1.2241 H   0  0  0  0  0  0  0  0  0  0  0  0
   -0.5534   -4.2632   -2.1307 C   0  0  0  0  0  0  0  0  0  0  0  0
   -0.3506   -5.3192   -2.2977 H   0  0  0  0  0  0  0  0  0  0  0  0
   -1.7109   -3.6198   -2.4037 N   0  0  0  0  0  0  0  0  0  0  0  0
   -2.5443   -4.0370   -2.8099 H   0  0  0  0  0  0  0  0  0  0  0  0
   -1.5756   -2.2895   -2.0316 C   0  0  0  0  0  0  0  0  0  0  0  0
   -2.3229   -1.5056   -2.1181 H   0  0  0  0  0  0  0  0  0  0  0  0
   -0.4874    1.2908    0.1962 C   0  0  0  0  0  0  0  0  0  0  0  0
   -1.3116    1.8673   -0.5151 O   0  0  0  0  0  0  0  0  0  0  0  0
    0.3889    1.9422    0.9708 N   0  0  0  0  0  0  0  0  0  0  0  0
    1.0197    1.3866    1.5283 H   0  0  0  0  0  0  0  0  0  0  0  0
    0.5081    3.3999    1.0720 C   0  0  0  0  0  0  0  0  0  0  0  0
    0.0188    3.7538    1.9817 H   0  0  0  0  0  0  0  0  0  0  0  0
    1.5607    3.6858    1.1098 H   0  0  0  0  0  0  0  0  0  0  0  0
    0.0459    3.8890    0.2119 H   0  0  0  0  0  0  0  0  0  0  0  0
  5  6  2  0  0  0  0
  5  7  1  0  0  0  0
  2  3  1  0  0  0  0
  2  4  1  0  0  0  0
  2  5  1  0  0  0  0
  1  2  1  0  0  0  0
 23 24  2  0  0  0  0
 23 25  1  0  0  0  0
 21 22  1  0  0  0  0
 19 20  1  0  0  0  0
 19 21  1  0  0  0  0
 17 18  1  0  0  0  0
 17 19  1  0  0  0  0
 15 16  1  0  0  0  0
 15 17  2  0  0  0  0
 14 15  1  0  0  0  0
 14 21  2  0  0  0  0
 11 12  1  0  0  0  0
 11 13  1  0  0  0  0
 11 14  1  0  0  0  0
  9 10  1  0  0  0  0
  9 11  1  0  0  0  0
  9 23  1  0  0  0  0
  7  8  1  0  0  0  0
  7  9  1  0  0  0  0
 27 28  1  0  0  0  0
 27 29  1  0  0  0  0
 27 30  1  0  0  0  0
 25 26  1  0  0  0  0
 25 27  1  0  0  0  0
M  CHG  1  15   1
M  END
$$$$
default_name
  -OEChem-02102213163D

 30 30  0     1  0  0  0  0  0999 V2000
   -3.5507   -3.2183    1.8116 H   0  0  0  0  0  0  0  0  0  0  0  0
   -3.4597   -2.3913    1.1076 C   0  0  0  0  0  0  0  0  0  0  0  0
   -4.1577   -1.6043    1.3866 H   0  0  0  0  0  0  0  0  0  0  0  0
   -3.6807   -2.7523    0.1036 H   0  0  0  0  0  0  0  0  0  0  0  0
   -2.0477   -1.8543    1.1546 C   0  0  0  0  0  0  0  0  0  0  0  0
   -1.2227   -2.3443    1.9146 O   0  0  0  0  0  0  0  0  0  0  0  0
   -1.7517   -0.8483    0.3266 N   0  0  0  0  0  0  0  0  0  0  0  0
   -2.4847   -0.5123   -0.2804 H   0  0  0  0  0  0  0  0  0  0  0  0
   -0.4117   -0.2463    0.2186 C   0  0  1  0  0  0  0  0  0  0  0  0
    0.1554   -0.5152    1.1133 H   0  0  0  0  0  0  0  0  0  0  0  0
    0.3164   -0.8780   -0.9905 C   0  0  0  0  0  0  0  0  0  0  0  0
    0.3591   -0.1401   -1.7956 H   0  0  0  0  0  0  0  0  0  0  0  0
    1.3467   -1.1027   -0.7066 H   0  0  0  0  0  0  0  0  0  0  0  0
   -0.3108   -2.1468   -1.5283 C   0  0  0  0  0  0  0  0  0  0  0  0
    0.1808   -3.4236   -1.3370 N   0  3  0  0  0  0  0  0  0  0  0  0
    0.9931   -3.6343   -0.7501 H   0  0  0  0  0  0  0  0  0  0  0  0
   -0.6385   -4.2930   -1.9611 C   0  0  0  0  0  0  0  0  0  0  0  0
   -0.5156   -5.3741   -1.9757 H   0  0  0  0  0  0  0  0  0  0  0  0
   -1.6388   -3.5955   -2.5453 N   0  0  0  0  0  0  0  0  0  0  0  0
   -2.4058   -3.9894   -3.0838 H   0  0  0  0  0  0  0  0  0  0  0  0
   -1.4481   -2.2458   -2.2834 C   0  0  0  0  0  0  0  0  0  0  0  0
   -2.0746   -1.4201   -2.6093 H   0  0  0  0  0  0  0  0  0  0  0  0
   -0.4874    1.2908    0.1962 C   0  0  0  0  0  0  0  0  0  0  0  0
   -1.3116    1.8673   -0.5151 O   0  0  0  0  0  0  0  0  0  0  0  0
    0.3889    1.9422    0.9708 N   0  0  0  0  0  0  0  0  0  0  0  0
    1.0197    1.3866    1.5283 H   0  0  0  0  0  0  0  0  0  0  0  0
    0.5081    3.3999    1.0720 C   0  0  0  0  0  0  0  0  0  0  0  0
    0.0188    3.7538    1.9817 H   0  0  0  0  0  0  0  0  0  0  0  0
    1.5607    3.6858    1.1098 H   0  0  0  0  0  0  0  0  0  0  0  0
    0.0459    3.8890    0.2119 H   0  0  0  0  0  0  0  0  0  0  0  0
  5  6  2  0  0  0  0
  5  7  1  0  0  0  0
  2  3  1  0  0  0  0
  2  4  1  0  0  0  0
  2  5  1  0  0  0  0
  1  2  1  0  0  0  0
 23 24  2  0  0  0  0
 23 25  1  0  0  0  0
 21 22  1  0  0  0  0
 19 20  1  0  0  0  0
 19 21  1  0  0  0  0
 17 18  1  0  0  0  0
 17 19  1  0  0  0  0
 15 16  1  0  0  0  0
 15 17  2  0  0  0  0
 14 15  1  0  0  0  0
 14 21  2  0  0  0  0
 11 12  1  0  0  0  0
 11 13  1  0  0  0  0
 11 14  1  0  0  0  0
  9 10  1  0  0  0  0
  9 11  1  0  0  0  0
  9 23  1  0  0  0  0
  7  8  1  0  0  0  0
  7  9  1  0  0  0  0
 27 28  1  0  0  0  0
 27 29  1  0  0  0  0
 27 30  1  0  0  0  0
 25 26  1  0  0  0  0
 25 27  1  0  0  0  0
M  CHG  1  15   1
M  END
$$$$
default_name
  -OEChem-02102213163D

 30 30  0     1  0  0  0  0  0999 V2000
   -3.5507   -3.2183    1.8116 H   0  0  0  0  0  0  0  0  0  0  0  0
   -3.4597   -2.3913    1.1076 C   0  0  0  0  0  0  0  0  0  0  0  0
   -4.1577   -1.6043    1.3866 H   0  0  0  0  0  0  0  0  0  0  0  0
   -3.6807   -2.7523    0.1036 H   0  0  0  0  0  0  0  0  0  0  0  0
   -2.0477   -1.8543    1.1546 C   0  0  0  0  0  0  0  0  0  0  0  0
   -1.2227   -2.3443    1.9146 O   0  0  0  0  0  0  0  0  0  0  0  0
   -1.7517   -0.8483    0.3266 N   0  0  0  0  0  0  0  0  0  0  0  0
   -2.4847   -0.5123   -0.2804 H   0  0  0  0  0  0  0  0  0  0  0  0
   -0.4117   -0.2463    0.2186 C   0  0  1  0  0  0  0  0  0  0  0  0
    0.1554   -0.5152    1.1133 H   0  0  0  0  0  0  0  0  0  0  0  0
    0.3164   -0.8780   -0.9905 C   0  0  0  0  0  0  0  0  0  0  0  0
    0.3591   -0.1401   -1.7956 H   0  0  0  0  0  0  0  0  0  0  0  0
    1.3467   -1.1027   -0.7066 H   0  0  0  0  0  0  0  0  0  0  0  0
   -0.3108   -2.1468   -1.5283 C   0  0  0  0  0  0  0  0  0  0  0  0
   -0.0061   -3.4275   -1.1097 N   0  3  0  0  0  0  0  0  0  0  0  0
    0.6371   -3.6323   -0.3396 H   0  0  0  0  0  0  0  0  0  0  0  0
   -0.7602   -4.2958   -1.8126 C   0  0  0  0  0  0  0  0  0  0  0  0
   -0.7498   -5.3775   -1.6945 H   0  0  0  0  0  0  0  0  0  0  0  0
   -1.5361   -3.5938   -2.6691 N   0  0  0  0  0  0  0  0  0  0  0  0
   -2.2083   -3.9854   -3.3236 H   0  0  0  0  0  0  0  0  0  0  0  0
   -1.2663   -2.2423   -2.5037 C   0  0  0  0  0  0  0  0  0  0  0  0
   -1.7204   -1.4131   -3.0390 H   0  0  0  0  0  0  0  0  0  0  0  0
   -0.4874    1.2908    0.1962 C   0  0  0  0  0  0  0  0  0  0  0  0
   -1.3116    1.8673   -0.5151 O   0  0  0  0  0  0  0  0  0  0  0  0
    0.3889    1.9422    0.9708 N   0  0  0  0  0  0  0  0  0  0  0  0
    1.0197    1.3866    1.5283 H   0  0  0  0  0  0  0  0  0  0  0  0
    0.5081    3.3999    1.0720 C   0  0  0  0  0  0  0  0  0  0  0  0
    0.0188    3.7538    1.9817 H   0  0  0  0  0  0  0  0  0  0  0  0
    1.5607    3.6858    1.1098 H   0  0  0  0  0  0  0  0  0  0  0  0
    0.0459    3.8890    0.2119 H   0  0  0  0  0  0  0  0  0  0  0  0
  5  6  2  0  0  0  0
  5  7  1  0  0  0  0
  2  3  1  0  0  0  0
  2  4  1  0  0  0  0
  2  5  1  0  0  0  0
  1  2  1  0  0  0  0
 23 24  2  0  0  0  0
 23 25  1  0  0  0  0
 21 22  1  0  0  0  0
 19 20  1  0  0  0  0
 19 21  1  0  0  0  0
 17 18  1  0  0  0  0
 17 19  1  0  0  0  0
 15 16  1  0  0  0  0
 15 17  2  0  0  0  0
 14 15  1  0  0  0  0
 14 21  2  0  0  0  0
 11 12  1  0  0  0  0
 11 13  1  0  0  0  0
 11 14  1  0  0  0  0
  9 10  1  0  0  0  0
  9 11  1  0  0  0  0
  9 23  1  0  0  0  0
  7  8  1  0  0  0  0
  7  9  1  0  0  0  0
 27 28  1  0  0  0  0
 27 29  1  0  0  0  0
 27 30  1  0  0  0  0
 25 26  1  0  0  0  0
 25 27  1  0  0  0  0
M  CHG  1  15   1
M  END
$$$$
default_name
  -OEChem-02102213163D

 30 30  0     1  0  0  0  0  0999 V2000
   -3.5507   -3.2183    1.8116 H   0  0  0  0  0  0  0  0  0  0  0  0
   -3.4597   -2.3913    1.1076 C   0  0  0  0  0  0  0  0  0  0  0  0
   -4.1577   -1.6043    1.3866 H   0  0  0  0  0  0  0  0  0  0  0  0
   -3.6807   -2.7523    0.1036 H   0  0  0  0  0  0  0  0  0  0  0  0
   -2.0477   -1.8543    1.1546 C   0  0  0  0  0  0  0  0  0  0  0  0
   -1.2227   -2.3443    1.9146 O   0  0  0  0  0  0  0  0  0  0  0  0
   -1.7517   -0.8483    0.3266 N   0  0  0  0  0  0  0  0  0  0  0  0
   -2.4847   -0.5123   -0.2804 H   0  0  0  0  0  0  0  0  0  0  0  0
   -0.4117   -0.2463    0.2186 C   0  0  1  0  0  0  0  0  0  0  0  0
    0.1554   -0.5152    1.1133 H   0  0  0  0  0  0  0  0  0  0  0  0
    0.3164   -0.8780   -0.9905 C   0  0  0  0  0  0  0  0  0  0  0  0
    0.3591   -0.1401   -1.7956 H   0  0  0  0  0  0  0  0  0  0  0  0
    1.3467   -1.1027   -0.7066 H   0  0  0  0  0  0  0  0  0  0  0  0
   -0.3108   -2.1468   -1.5283 C   0  0  0  0  0  0  0  0  0  0  0  0
   -0.2363   -3.3898   -0.9302 N   0  3  0  0  0  0  0  0  0  0  0  0
    0.2044   -3.5536   -0.0204 H   0  0  0  0  0  0  0  0  0  0  0  0
   -0.9102   -4.2714   -1.6953 C   0  0  0  0  0  0  0  0  0  0  0  0
   -1.0374   -5.3290   -1.4734 H   0  0  0  0  0  0  0  0  0  0  0  0
   -1.4099   -3.6148   -2.7666 N   0  0  0  0  0  0  0  0  0  0  0  0
   -1.9651   -4.0255   -3.5127 H   0  0  0  0  0  0  0  0  0  0  0  0
   -1.0425   -2.2793   -2.6774 C   0  0  0  0  0  0  0  0  0  0  0  0
   -1.2844   -1.4849   -3.3780 H   0  0  0  0  0  0  0  0  0  0  0  0
   -0.4874    1.2908    0.1962 C   0  0  0  0  0  0  0  0  0  0  0  0
   -1.3116    1.8673   -0.5151 O   0  0  0  0  0  0  0  0  0  0  0  0
    0.3889    1.9422    0.9708 N   0  0  0  0  0  0  0  0  0  0  0  0
    1.0197    1.3866    1.5283 H   0  0  0  0  0  0  0  0  0  0  0  0
    0.5081    3.3999    1.0720 C   0  0  0  0  0  0  0  0  0  0  0  0
    0.0188    3.7538    1.9817 H   0  0  0  0  0  0  0  0  0  0  0  0
    1.5607    3.6858    1.1098 H   0  0  0  0  0  0  0  0  0  0  0  0
    0.0459    3.8890    0.2119 H   0  0  0  0  0  0  0  0  0  0  0  0
  5  6  2  0  0  0  0
  5  7  1  0  0  0  0
  2  3  1  0  0  0  0
  2  4  1  0  0  0  0
  2  5  1  0  0  0  0
  1  2  1  0  0  0  0
 23 24  2  0  0  0  0
 23 25  1  0  0  0  0
 21 22  1  0  0  0  0
 19 20  1  0  0  0  0
 19 21  1  0  0  0  0
 17 18  1  0  0  0  0
 17 19  1  0  0  0  0
 15 16  1  0  0  0  0
 15 17  2  0  0  0  0
 14 15  1  0  0  0  0
 14 21  2  0  0  0  0
 11 12  1  0  0  0  0
 11 13  1  0  0  0  0
 11 14  1  0  0  0  0
  9 10  1  0  0  0  0
  9 11  1  0  0  0  0
  9 23  1  0  0  0  0
  7  8  1  0  0  0  0
  7  9  1  0  0  0  0
 27 28  1  0  0  0  0
 27 29  1  0  0  0  0
 27 30  1  0  0  0  0
 25 26  1  0  0  0  0
 25 27  1  0  0  0  0
M  CHG  1  15   1
M  END
$$$$
default_name
  -OEChem-02102213163D

 30 30  0     1  0  0  0  0  0999 V2000
   -3.5507   -3.2183    1.8116 H   0  0  0  0  0  0  0  0  0  0  0  0
   -3.4597   -2.3913    1.1076 C   0  0  0  0  0  0  0  0  0  0  0  0
   -4.1577   -1.6043    1.3866 H   0  0  0  0  0  0  0  0  0  0  0  0
   -3.6807   -2.7523    0.1036 H   0  0  0  0  0  0  0  0  0  0  0  0
   -2.0477   -1.8543    1.1546 C   0  0  0  0  0  0  0  0  0  0  0  0
   -1.2227   -2.3443    1.9146 O   0  0  0  0  0  0  0  0  0  0  0  0
   -1.7517   -0.8483    0.3266 N   0  0  0  0  0  0  0  0  0  0  0  0
   -2.4847   -0.5123   -0.2804 H   0  0  0  0  0  0  0  0  0  0  0  0
   -0.4117   -0.2463    0.2186 C   0  0  1  0  0  0  0  0  0  0  0  0
    0.1554   -0.5152    1.1133 H   0  0  0  0  0  0  0  0  0  0  0  0
    0.3164   -0.8780   -0.9905 C   0  0  0  0  0  0  0  0  0  0  0  0
    0.3591   -0.1401   -1.7956 H   0  0  0  0  0  0  0  0  0  0  0  0
    1.3467   -1.1027   -0.7066 H   0  0  0  0  0  0  0  0  0  0  0  0
   -0.3108   -2.1468   -1.5283 C   0  0  0  0  0  0  0  0  0  0  0  0
   -0.4941   -3.3130   -0.8108 N   0  3  0  0  0  0  0  0  0  0  0  0
   -0.2756   -3.4037    0.1856 H   0  0  0  0  0  0  0  0  0  0  0  0
   -1.0784   -4.2214   -1.6171 C   0  0  0  0  0  0  0  0  0  0  0  0
   -1.3587   -5.2321   -1.3274 H   0  0  0  0  0  0  0  0  0  0  0  0
   -1.2688   -3.6572   -2.8311 N   0  0  0  0  0  0  0  0  0  0  0  0
   -1.6929   -4.1068   -3.6383 H   0  0  0  0  0  0  0  0  0  0  0  0
   -0.7922   -2.3542   -2.7927 C   0  0  0  0  0  0  0  0  0  0  0  0
   -0.7963   -1.6307   -3.6033 H   0  0  0  0  0  0  0  0  0  0  0  0
   -0.4874    1.2908    0.1962 C   0  0  0  0  0  0  0  0  0  0  0  0
   -1.3116    1.8673   -0.5151 O   0  0  0  0  0  0  0  0  0  0  0  0
    0.3889    1.9422    0.9708 N   0  0  0  0  0  0  0  0  0  0  0  0
    1.0197    1.3866    1.5283 H   0  0  0  0  0  0  0  0  0  0  0  0
    0.5081    3.3999    1.0720 C   0  0  0  0  0  0  0  0  0  0  0  0
    0.0188    3.7538    1.9817 H   0  0  0  0  0  0  0  0  0  0  0  0
    1.5607    3.6858    1.1098 H   0  0  0  0  0  0  0  0  0  0  0  0
    0.0459    3.8890    0.2119 H   0  0  0  0  0  0  0  0  0  0  0  0
  5  6  2  0  0  0  0
  5  7  1  0  0  0  0
  2  3  1  0  0  0  0
  2  4  1  0  0  0  0
  2  5  1  0  0  0  0
  1  2  1  0  0  0  0
 23 24  2  0  0  0  0
 23 25  1  0  0  0  0
 21 22  1  0  0  0  0
 19 20  1  0  0  0  0
 19 21  1  0  0  0  0
 17 18  1  0  0  0  0
 17 19  1  0  0  0  0
 15 16  1  0  0  0  0
 15 17  2  0  0  0  0
 14 15  1  0  0  0  0
 14 21  2  0  0  0  0
 11 12  1  0  0  0  0
 11 13  1  0  0  0  0
 11 14  1  0  0  0  0
  9 10  1  0  0  0  0
  9 11  1  0  0  0  0
  9 23  1  0  0  0  0
  7  8  1  0  0  0  0
  7  9  1  0  0  0  0
 27 28  1  0  0  0  0
 27 29  1  0  0  0  0
 27 30  1  0  0  0  0
 25 26  1  0  0  0  0
 25 27  1  0  0  0  0
M  CHG  1  15   1
M  END
$$$$
default_name
  -OEChem-02102213163D

 30 30  0     1  0  0  0  0  0999 V2000
   -3.5507   -3.2183    1.8116 H   0  0  0  0  0  0  0  0  0  0  0  0
   -3.4597   -2.3913    1.1076 C   0  0  0  0  0  0  0  0  0  0  0  0
   -4.1577   -1.6043    1.3866 H   0  0  0  0  0  0  0  0  0  0  0  0
   -3.6807   -2.7523    0.1036 H   0  0  0  0  0  0  0  0  0  0  0  0
   -2.0477   -1.8543    1.1546 C   0  0  0  0  0  0  0  0  0  0  0  0
   -1.2227   -2.3443    1.9146 O   0  0  0  0  0  0  0  0  0  0  0  0
   -1.7517   -0.8483    0.3266 N   0  0  0  0  0  0  0  0  0  0  0  0
   -2.4847   -0.5123   -0.2804 H   0  0  0  0  0  0  0  0  0  0  0  0
   -0.4117   -0.2463    0.2186 C   0  0  1  0  0  0  0  0  0  0  0  0
    0.1554   -0.5152    1.1133 H   0  0  0  0  0  0  0  0  0  0  0  0
    0.3164   -0.8780   -0.9905 C   0  0  0  0  0  0  0  0  0  0  0  0
    0.3591   -0.1401   -1.7956 H   0  0  0  0  0  0  0  0  0  0  0  0
    1.3467   -1.1027   -0.7066 H   0  0  0  0  0  0  0  0  0  0  0  0
   -0.3108   -2.1468   -1.5283 C   0  0  0  0  0  0  0  0  0  0  0  0
   -0.7619   -3.2023   -0.7596 N   0  3  0  0  0  0  0  0  0  0  0  0
   -0.7702   -3.1926    0.2643 H   0  0  0  0  0  0  0  0  0  0  0  0
   -1.2531   -4.1493   -1.5834 C   0  0  0  0  0  0  0  0  0  0  0  0
   -1.6918   -5.0933   -1.2664 H   0  0  0  0  0  0  0  0  0  0  0  0
   -1.1225   -3.7181   -2.8583 N   0  0  0  0  0  0  0  0  0  0  0  0
   -1.4101   -4.2238   -3.6919 H   0  0  0  0  0  0  0  0  0  0  0  0
   -0.5322   -2.4619   -2.8417 C   0  0  0  0  0  0  0  0  0  0  0  0
   -0.2894   -1.8406   -3.6993 H   0  0  0  0  0  0  0  0  0  0  0  0
   -0.4874    1.2908    0.1962 C   0  0  0  0  0  0  0  0  0  0  0  0
   -1.3116    1.8673   -0.5151 O   0  0  0  0  0  0  0  0  0  0  0  0
    0.3889    1.9422    0.9708 N   0  0  0  0  0  0  0  0  0  0  0  0
    1.0197    1.3866    1.5283 H   0  0  0  0  0  0  0  0  0  0  0  0
    0.5081    3.3999    1.0720 C   0  0  0  0  0  0  0  0  0  0  0  0
    0.0188    3.7538    1.9817 H   0  0  0  0  0  0  0  0  0  0  0  0
    1.5607    3.6858    1.1098 H   0  0  0  0  0  0  0  0  0  0  0  0
    0.0459    3.8890    0.2119 H   0  0  0  0  0  0  0  0  0  0  0  0
  5  6  2  0  0  0  0
  5  7  1  0  0  0  0
  2  3  1  0  0  0  0
  2  4  1  0  0  0  0
  2  5  1  0  0  0  0
  1  2  1  0  0  0  0
 23 24  2  0  0  0  0
 23 25  1  0  0  0  0
 21 22  1  0  0  0  0
 19 20  1  0  0  0  0
 19 21  1  0  0  0  0
 17 18  1  0  0  0  0
 17 19  1  0  0  0  0
 15 16  1  0  0  0  0
 15 17  2  0  0  0  0
 14 15  1  0  0  0  0
 14 21  2  0  0  0  0
 11 12  1  0  0  0  0
 11 13  1  0  0  0  0
 11 14  1  0  0  0  0
  9 10  1  0  0  0  0
  9 11  1  0  0  0  0
  9 23  1  0  0  0  0
  7  8  1  0  0  0  0
  7  9  1  0  0  0  0
 27 28  1  0  0  0  0
 27 29  1  0  0  0  0
 27 30  1  0  0  0  0
 25 26  1  0  0  0  0
 25 27  1  0  0  0  0
M  CHG  1  15   1
M  END
$$$$
default_name
  -OEChem-02102213163D

 30 30  0     1  0  0  0  0  0999 V2000
   -3.5507   -3.2183    1.8116 H   0  0  0  0  0  0  0  0  0  0  0  0
   -3.4597   -2.3913    1.1076 C   0  0  0  0  0  0  0  0  0  0  0  0
   -4.1577   -1.6043    1.3866 H   0  0  0  0  0  0  0  0  0  0  0  0
   -3.6807   -2.7523    0.1036 H   0  0  0  0  0  0  0  0  0  0  0  0
   -2.0477   -1.8543    1.1546 C   0  0  0  0  0  0  0  0  0  0  0  0
   -1.2227   -2.3443    1.9146 O   0  0  0  0  0  0  0  0  0  0  0  0
   -1.7517   -0.8483    0.3266 N   0  0  0  0  0  0  0  0  0  0  0  0
   -2.4847   -0.5123   -0.2804 H   0  0  0  0  0  0  0  0  0  0  0  0
   -0.4117   -0.2463    0.2186 C   0  0  1  0  0  0  0  0  0  0  0  0
    0.1554   -0.5152    1.1133 H   0  0  0  0  0  0  0  0  0  0  0  0
    0.3164   -0.8780   -0.9905 C   0  0  0  0  0  0  0  0  0  0  0  0
    0.3591   -0.1401   -1.7956 H   0  0  0  0  0  0  0  0  0  0  0  0
    1.3467   -1.1027   -0.7066 H   0  0  0  0  0  0  0  0  0  0  0  0
   -0.3108   -2.1468   -1.5283 C   0  0  0  0  0  0  0  0  0  0  0  0
   -1.0216   -3.0652   -0.7802 N   0  3  0  0  0  0  0  0  0  0  0  0
   -1.2455   -2.9348    0.2106 H   0  0  0  0  0  0  0  0  0  0  0  0
   -1.4226   -4.0600   -1.5964 C   0  0  0  0  0  0  0  0  0  0  0  0
   -2.0140   -4.9221   -1.2946 H   0  0  0  0  0  0  0  0  0  0  0  0
   -0.9808   -3.7932   -2.8463 N   0  0  0  0  0  0  0  0  0  0  0  0
   -1.1362   -4.3686   -3.6698 H   0  0  0  0  0  0  0  0  0  0  0  0
   -0.2804   -2.5951   -2.8211 C   0  0  0  0  0  0  0  0  0  0  0  0
    0.2017   -2.1002   -3.6596 H   0  0  0  0  0  0  0  0  0  0  0  0
   -0.4874    1.2908    0.1962 C   0  0  0  0  0  0  0  0  0  0  0  0
   -1.3116    1.8673   -0.5151 O   0  0  0  0  0  0  0  0  0  0  0  0
    0.3889    1.9422    0.9708 N   0  0  0  0  0  0  0  0  0  0  0  0
    1.0197    1.3866    1.5283 H   0  0  0  0  0  0  0  0  0  0  0  0
    0.5081    3.3999    1.0720 C   0  0  0  0  0  0  0  0  0  0  0  0
    0.0188    3.7538    1.9817 H   0  0  0  0  0  0  0  0  0  0  0  0
    1.5607    3.6858    1.1098 H   0  0  0  0  0  0  0  0  0  0  0  0
    0.0459    3.8890    0.2119 H   0  0  0  0  0  0  0  0  0  0  0  0
  5  6  2  0  0  0  0
  5  7  1  0  0  0  0
  2  3  1  0  0  0  0
  2  4  1  0  0  0  0
  2  5  1  0  0  0  0
  1  2  1  0  0  0  0
 23 24  2  0  0  0  0
 23 25  1  0  0  0  0
 21 22  1  0  0  0  0
 19 20  1  0  0  0  0
 19 21  1  0  0  0  0
 17 18  1  0  0  0  0
 17 19  1  0  0  0  0
 15 16  1  0  0  0  0
 15 17  2  0  0  0  0
 14 15  1  0  0  0  0
 14 21  2  0  0  0  0
 11 12  1  0  0  0  0
 11 13  1  0  0  0  0
 11 14  1  0  0  0  0
  9 10  1  0  0  0  0
  9 11  1  0  0  0  0
  9 23  1  0  0  0  0
  7  8  1  0  0  0  0
  7  9  1  0  0  0  0
 27 28  1  0  0  0  0
 27 29  1  0  0  0  0
 27 30  1  0  0  0  0
 25 26  1  0  0  0  0
 25 27  1  0  0  0  0
M  CHG  1  15   1
M  END
$$$$
default_name
  -OEChem-02102213163D

 30 30  0     1  0  0  0  0  0999 V2000
   -3.5507   -3.2183    1.8116 H   0  0  0  0  0  0  0  0  0  0  0  0
   -3.4597   -2.3913    1.1076 C   0  0  0  0  0  0  0  0  0  0  0  0
   -4.1577   -1.6043    1.3866 H   0  0  0  0  0  0  0  0  0  0  0  0
   -3.6807   -2.7523    0.1036 H   0  0  0  0  0  0  0  0  0  0  0  0
   -2.0477   -1.8543    1.1546 C   0  0  0  0  0  0  0  0  0  0  0  0
   -1.2227   -2.3443    1.9146 O   0  0  0  0  0  0  0  0  0  0  0  0
   -1.7517   -0.8483    0.3266 N   0  0  0  0  0  0  0  0  0  0  0  0
   -2.4847   -0.5123   -0.2804 H   0  0  0  0  0  0  0  0  0  0  0  0
   -0.4117   -0.2463    0.2186 C   0  0  1  0  0  0  0  0  0  0  0  0
    0.1554   -0.5152    1.1133 H   0  0  0  0  0  0  0  0  0  0  0  0
    0.3164   -0.8780   -0.9905 C   0  0  0  0  0  0  0  0  0  0  0  0
    0.3591   -0.1401   -1.7956 H   0  0  0  0  0  0  0  0  0  0  0  0
    1.3467   -1.1027   -0.7066 H   0  0  0  0  0  0  0  0  0  0  0  0
   -0.3108   -2.1468   -1.5283 C   0  0  0  0  0  0  0  0  0  0  0  0
   -1.2553   -2.9112   -0.8710 N   0  3  0  0  0  0  0  0  0  0  0  0
   -1.6693   -2.6479    0.0279 H   0  0  0  0  0  0  0  0  0  0  0  0
   -1.5753   -3.9595   -1.6554 C   0  0  0  0  0  0  0  0  0  0  0  0
   -2.3034   -4.7301   -1.4101 H   0  0  0  0  0  0  0  0  0  0  0  0
   -0.8535   -3.8775   -2.7959 N   0  0  0  0  0  0  0  0  0  0  0  0
   -0.8897   -4.5313   -3.5735 H   0  0  0  0  0  0  0  0  0  0  0  0
   -0.0538   -2.7448   -2.7324 C   0  0  0  0  0  0  0  0  0  0  0  0
    0.6437   -2.3918   -3.4870 H   0  0  0  0  0  0  0  0  0  0  0  0
   -0.4874    1.2908    0.1962 C   0  0  0  0  0  0  0  0  0  0  0  0
   -1.3116    1.8673   -0.5151 O   0  0  0  0  0  0  0  0  0  0  0  0
    0.3889    1.9422    0.9708 N   0  0  0  0  0  0  0  0  0  0  0  0
    1.0197    1.3866    1.5283 H   0  0  0  0  0  0  0  0  0  0  0  0
    0.5081    3.3999    1.0720 C   0  0  0  0  0  0  0  0  0  0  0  0
    0.0188    3.7538    1.9817 H   0  0  0  0  0  0  0  0  0  0  0  0
    1.5607    3.6858    1.1098 H   0  0  0  0  0  0  0  0  0  0  0  0
    0.0459    3.8890    0.2119 H   0  0  0  0  0  0  0  0  0  0  0  0
  5  6  2  0  0  0  0
  5  7  1  0  0  0  0
  2  3  1  0  0  0  0
  2  4  1  0  0  0  0
  2  5  1  0  0  0  0
  1  2  1  0  0  0  0
 23 24  2  0  0  0  0
 23 25  1  0  0  0  0
 21 22  1  0  0  0  0
 19 20  1  0  0  0  0
 19 21  1  0  0  0  0
 17 18  1  0  0  0  0
 17 19  1  0  0  0  0
 15 16  1  0  0  0  0
 15 17  2  0  0  0  0
 14 15  1  0  0  0  0
 14 21  2  0  0  0  0
 11 12  1  0  0  0  0
 11 13  1  0  0  0  0
 11 14  1  0  0  0  0
  9 10  1  0  0  0  0
  9 11  1  0  0  0  0
  9 23  1  0  0  0  0
  7  8  1  0  0  0  0
  7  9  1  0  0  0  0
 27 28  1  0  0  0  0
 27 29  1  0  0  0  0
 27 30  1  0  0  0  0
 25 26  1  0  0  0  0
 25 27  1  0  0  0  0
M  CHG  1  15   1
M  END
$$$$
default_name
  -OEChem-02102213163D

 30 30  0     1  0  0  0  0  0999 V2000
   -3.5507   -3.2183    1.8116 H   0  0  0  0  0  0  0  0  0  0  0  0
   -3.4597   -2.3913    1.1076 C   0  0  0  0  0  0  0  0  0  0  0  0
   -4.1577   -1.6043    1.3866 H   0  0  0  0  0  0  0  0  0  0  0  0
   -3.6807   -2.7523    0.1036 H   0  0  0  0  0  0  0  0  0  0  0  0
   -2.0477   -1.8543    1.1546 C   0  0  0  0  0  0  0  0  0  0  0  0
   -1.2227   -2.3443    1.9146 O   0  0  0  0  0  0  0  0  0  0  0  0
   -1.7517   -0.8483    0.3266 N   0  0  0  0  0  0  0  0  0  0  0  0
   -2.4847   -0.5123   -0.2804 H   0  0  0  0  0  0  0  0  0  0  0  0
   -0.4117   -0.2463    0.2186 C   0  0  1  0  0  0  0  0  0  0  0  0
    0.1554   -0.5152    1.1133 H   0  0  0  0  0  0  0  0  0  0  0  0
    0.3164   -0.8780   -0.9905 C   0  0  0  0  0  0  0  0  0  0  0  0
    0.3591   -0.1401   -1.7956 H   0  0  0  0  0  0  0  0  0  0  0  0
    1.3467   -1.1027   -0.7066 H   0  0  0  0  0  0  0  0  0  0  0  0
   -0.3108   -2.1468   -1.5283 C   0  0  0  0  0  0  0  0  0  0  0  0
   -1.4472   -2.7507   -1.0260 N   0  3  0  0  0  0  0  0  0  0  0  0
   -2.0127   -2.3514   -0.2713 H   0  0  0  0  0  0  0  0  0  0  0  0
   -1.7008   -3.8548   -1.7563 C   0  0  0  0  0  0  0  0  0  0  0  0
   -2.5402   -4.5304   -1.6050 H   0  0  0  0  0  0  0  0  0  0  0  0
   -0.7491   -3.9652   -2.7105 N   0  0  0  0  0  0  0  0  0  0  0  0
   -0.6874   -4.7007   -3.4096 H   0  0  0  0  0  0  0  0  0  0  0  0
    0.1320   -2.9006   -2.5814 C   0  0  0  0  0  0  0  0  0  0  0  0
    1.0063   -2.6957   -3.1931 H   0  0  0  0  0  0  0  0  0  0  0  0
   -0.4874    1.2908    0.1962 C   0  0  0  0  0  0  0  0  0  0  0  0
   -1.3116    1.8673   -0.5151 O   0  0  0  0  0  0  0  0  0  0  0  0
    0.3889    1.9422    0.9708 N   0  0  0  0  0  0  0  0  0  0  0  0
    1.0197    1.3866    1.5283 H   0  0  0  0  0  0  0  0  0  0  0  0
    0.5081    3.3999    1.0720 C   0  0  0  0  0  0  0  0  0  0  0  0
    0.0188    3.7538    1.9817 H   0  0  0  0  0  0  0  0  0  0  0  0
    1.5607    3.6858    1.1098 H   0  0  0  0  0  0  0  0  0  0  0  0
    0.0459    3.8890    0.2119 H   0  0  0  0  0  0  0  0  0  0  0  0
  5  6  2  0  0  0  0
  5  7  1  0  0  0  0
  2  3  1  0  0  0  0
  2  4  1  0  0  0  0
  2  5  1  0  0  0  0
  1  2  1  0  0  0  0
 23 24  2  0  0  0  0
 23 25  1  0  0  0  0
 21 22  1  0  0  0  0
 19 20  1  0  0  0  0
 19 21  1  0  0  0  0
 17 18  1  0  0  0  0
 17 19  1  0  0  0  0
 15 16  1  0  0  0  0
 15 17  2  0  0  0  0
 14 15  1  0  0  0  0
 14 21  2  0  0  0  0
 11 12  1  0  0  0  0
 11 13  1  0  0  0  0
 11 14  1  0  0  0  0
  9 10  1  0  0  0  0
  9 11  1  0  0  0  0
  9 23  1  0  0  0  0
  7  8  1  0  0  0  0
  7  9  1  0  0  0  0
 27 28  1  0  0  0  0
 27 29  1  0  0  0  0
 27 30  1  0  0  0  0
 25 26  1  0  0  0  0
 25 27  1  0  0  0  0
M  CHG  1  15   1
M  END
$$$$
default_name
  -OEChem-02102213163D

 30 30  0     1  0  0  0  0  0999 V2000
   -3.5507   -3.2183    1.8116 H   0  0  0  0  0  0  0  0  0  0  0  0
   -3.4597   -2.3913    1.1076 C   0  0  0  0  0  0  0  0  0  0  0  0
   -4.1577   -1.6043    1.3866 H   0  0  0  0  0  0  0  0  0  0  0  0
   -3.6807   -2.7523    0.1036 H   0  0  0  0  0  0  0  0  0  0  0  0
   -2.0477   -1.8543    1.1546 C   0  0  0  0  0  0  0  0  0  0  0  0
   -1.2227   -2.3443    1.9146 O   0  0  0  0  0  0  0  0  0  0  0  0
   -1.7517   -0.8483    0.3266 N   0  0  0  0  0  0  0  0  0  0  0  0
   -2.4847   -0.5123   -0.2804 H   0  0  0  0  0  0  0  0  0  0  0  0
   -0.4117   -0.2463    0.2186 C   0  0  1  0  0  0  0  0  0  0  0  0
    0.1554   -0.5152    1.1133 H   0  0  0  0  0  0  0  0  0  0  0  0
    0.3164   -0.8780   -0.9905 C   0  0  0  0  0  0  0  0  0  0  0  0
    0.3591   -0.1401   -1.7956 H   0  0  0  0  0  0  0  0  0  0  0  0
    1.3467   -1.1027   -0.7066 H   0  0  0  0  0  0  0  0  0  0  0  0
   -0.3108   -2.1468   -1.5283 C   0  0  0  0  0  0  0  0  0  0  0  0
   -1.5842   -2.5946   -1.2345 N   0  3  0  0  0  0  0  0  0  0  0  0
   -2.2522   -2.0655   -0.6665 H   0  0  0  0  0  0  0  0  0  0  0  0
   -1.7904   -3.7529   -1.8921 C   0  0  0  0  0  0  0  0  0  0  0  0
   -2.7083   -4.3366   -1.8661 H   0  0  0  0  0  0  0  0  0  0  0  0
   -0.6749   -4.0504   -2.5961 N   0  0  0  0  0  0  0  0  0  0  0  0
   -0.5431   -4.8655   -3.1893 H   0  0  0  0  0  0  0  0  0  0  0  0
    0.2644   -3.0520   -2.3787 C   0  0  0  0  0  0  0  0  0  0  0  0
    1.2649   -2.9910   -2.7979 H   0  0  0  0  0  0  0  0  0  0  0  0
   -0.4874    1.2908    0.1962 C   0  0  0  0  0  0  0  0  0  0  0  0
   -1.3116    1.8673   -0.5151 O   0  0  0  0  0  0  0  0  0  0  0  0
    0.3889    1.9422    0.9708 N   0  0  0  0  0  0  0  0  0  0  0  0
    1.0197    1.3866    1.5283 H   0  0  0  0  0  0  0  0  0  0  0  0
    0.5081    3.3999    1.0720 C   0  0  0  0  0  0  0  0  0  0  0  0
    0.0188    3.7538    1.9817 H   0  0  0  0  0  0  0  0  0  0  0  0
    1.5607    3.6858    1.1098 H   0  0  0  0  0  0  0  0  0  0  0  0
    0.0459    3.8890    0.2119 H   0  0  0  0  0  0  0  0  0  0  0  0
  5  6  2  0  0  0  0
  5  7  1  0  0  0  0
  2  3  1  0  0  0  0
  2  4  1  0  0  0  0
  2  5  1  0  0  0  0
  1  2  1  0  0  0  0
 23 24  2  0  0  0  0
 23 25  1  0  0  0  0
 21 22  1  0  0  0  0
 19 20  1  0  0  0  0
 19 21  1  0  0  0  0
 17 18  1  0  0  0  0
 17 19  1  0  0  0  0
 15 16  1  0  0  0  0
 15 17  2  0  0  0  0
 14 15  1  0  0  0  0
 14 21  2  0  0  0  0
 11 12  1  0  0  0  0
 11 13  1  0  0  0  0
 11 14  1  0  0  0  0
  9 10  1  0  0  0  0
  9 11  1  0  0  0  0
  9 23  1  0  0  0  0
  7  8  1  0  0  0  0
  7  9  1  0  0  0  0
 27 28  1  0  0  0  0
 27 29  1  0  0  0  0
 27 30  1  0  0  0  0
 25 26  1  0  0  0  0
 25 27  1  0  0  0  0
M  CHG  1  15   1
M  END
$$$$
default_name
  -OEChem-02102213163D

 30 30  0     1  0  0  0  0  0999 V2000
   -3.5507   -3.2183    1.8116 H   0  0  0  0  0  0  0  0  0  0  0  0
   -3.4597   -2.3913    1.1076 C   0  0  0  0  0  0  0  0  0  0  0  0
   -4.1577   -1.6043    1.3866 H   0  0  0  0  0  0  0  0  0  0  0  0
   -3.6807   -2.7523    0.1036 H   0  0  0  0  0  0  0  0  0  0  0  0
   -2.0477   -1.8543    1.1546 C   0  0  0  0  0  0  0  0  0  0  0  0
   -1.2227   -2.3443    1.9146 O   0  0  0  0  0  0  0  0  0  0  0  0
   -1.7517   -0.8483    0.3266 N   0  0  0  0  0  0  0  0  0  0  0  0
   -2.4847   -0.5123   -0.2804 H   0  0  0  0  0  0  0  0  0  0  0  0
   -0.4117   -0.2463    0.2186 C   0  0  1  0  0  0  0  0  0  0  0  0
    0.1554   -0.5152    1.1133 H   0  0  0  0  0  0  0  0  0  0  0  0
    0.3164   -0.8780   -0.9905 C   0  0  0  0  0  0  0  0  0  0  0  0
    0.3591   -0.1401   -1.7956 H   0  0  0  0  0  0  0  0  0  0  0  0
    1.3467   -1.1027   -0.7066 H   0  0  0  0  0  0  0  0  0  0  0  0
   -0.3108   -2.1468   -1.5283 C   0  0  0  0  0  0  0  0  0  0  0  0
   -1.6570   -2.4535   -1.4823 N   0  3  0  0  0  0  0  0  0  0  0  0
   -2.3716   -1.8097   -1.1309 H   0  0  0  0  0  0  0  0  0  0  0  0
   -1.8382   -3.6607   -2.0537 C   0  0  0  0  0  0  0  0  0  0  0  0
   -2.7963   -4.1620   -2.1755 H   0  0  0  0  0  0  0  0  0  0  0  0
   -0.6359   -4.1273   -2.4603 N   0  0  0  0  0  0  0  0  0  0  0  0
   -0.4667   -5.0142   -2.9274 H   0  0  0  0  0  0  0  0  0  0  0  0
    0.3345   -3.1887   -2.1378 C   0  0  0  0  0  0  0  0  0  0  0  0
    1.4019   -3.2576   -2.3285 H   0  0  0  0  0  0  0  0  0  0  0  0
   -0.4874    1.2908    0.1962 C   0  0  0  0  0  0  0  0  0  0  0  0
   -1.3116    1.8673   -0.5151 O   0  0  0  0  0  0  0  0  0  0  0  0
    0.3889    1.9422    0.9708 N   0  0  0  0  0  0  0  0  0  0  0  0
    1.0197    1.3866    1.5283 H   0  0  0  0  0  0  0  0  0  0  0  0
    0.5081    3.3999    1.0720 C   0  0  0  0  0  0  0  0  0  0  0  0
    0.0188    3.7538    1.9817 H   0  0  0  0  0  0  0  0  0  0  0  0
    1.5607    3.6858    1.1098 H   0  0  0  0  0  0  0  0  0  0  0  0
    0.0459    3.8890    0.2119 H   0  0  0  0  0  0  0  0  0  0  0  0
  5  6  2  0  0  0  0
  5  7  1  0  0  0  0
  2  3  1  0  0  0  0
  2  4  1  0  0  0  0
  2  5  1  0  0  0  0
  1  2  1  0  0  0  0
 23 24  2  0  0  0  0
 23 25  1  0  0  0  0
 21 22  1  0  0  0  0
 19 20  1  0  0  0  0
 19 21  1  0  0  0  0
 17 18  1  0  0  0  0
 17 19  1  0  0  0  0
 15 16  1  0  0  0  0
 15 17  2  0  0  0  0
 14 15  1  0  0  0  0
 14 21  2  0  0  0  0
 11 12  1  0  0  0  0
 11 13  1  0  0  0  0
 11 14  1  0  0  0  0
  9 10  1  0  0  0  0
  9 11  1  0  0  0  0
  9 23  1  0  0  0  0
  7  8  1  0  0  0  0
  7  9  1  0  0  0  0
 27 28  1  0  0  0  0
 27 29  1  0  0  0  0
 27 30  1  0  0  0  0
 25 26  1  0  0  0  0
 25 27  1  0  0  0  0
M  CHG  1  15   1
M  END
$$$$
default_name
  -OEChem-02102213163D

 30 30  0     1  0  0  0  0  0999 V2000
   -3.5507   -3.2183    1.8116 H   0  0  0  0  0  0  0  0  0  0  0  0
   -3.4597   -2.3913    1.1076 C   0  0  0  0  0  0  0  0  0  0  0  0
   -4.1577   -1.6043    1.3866 H   0  0  0  0  0  0  0  0  0  0  0  0
   -3.6807   -2.7523    0.1036 H   0  0  0  0  0  0  0  0  0  0  0  0
   -2.0477   -1.8543    1.1546 C   0  0  0  0  0  0  0  0  0  0  0  0
   -1.2227   -2.3443    1.9146 O   0  0  0  0  0  0  0  0  0  0  0  0
   -1.7517   -0.8483    0.3266 N   0  0  0  0  0  0  0  0  0  0  0  0
   -2.4847   -0.5123   -0.2804 H   0  0  0  0  0  0  0  0  0  0  0  0
   -0.4117   -0.2463    0.2186 C   0  0  1  0  0  0  0  0  0  0  0  0
    0.1554   -0.5152    1.1133 H   0  0  0  0  0  0  0  0  0  0  0  0
    0.3164   -0.8780   -0.9905 C   0  0  0  0  0  0  0  0  0  0  0  0
    0.3591   -0.1401   -1.7956 H   0  0  0  0  0  0  0  0  0  0  0  0
    1.3467   -1.1027   -0.7066 H   0  0  0  0  0  0  0  0  0  0  0  0
   -0.3108   -2.1468   -1.5283 C   0  0  0  0  0  0  0  0  0  0  0  0
   -1.6605   -2.3372   -1.7527 N   0  3  0  0  0  0  0  0  0  0  0  0
   -2.3626   -1.6014   -1.6327 H   0  0  0  0  0  0  0  0  0  0  0  0
   -1.8408   -3.5847   -2.2301 C   0  0  0  0  0  0  0  0  0  0  0  0
   -2.7981   -4.0184   -2.5121 H   0  0  0  0  0  0  0  0  0  0  0  0
   -0.6347   -4.1905   -2.3125 N   0  0  0  0  0  0  0  0  0  0  0  0
   -0.4633   -5.1368   -2.6420 H   0  0  0  0  0  0  0  0  0  0  0  0
    0.3373   -3.3013   -1.8753 C   0  0  0  0  0  0  0  0  0  0  0  0
    1.4078   -3.4774   -1.8168 H   0  0  0  0  0  0  0  0  0  0  0  0
   -0.4874    1.2908    0.1962 C   0  0  0  0  0  0  0  0  0  0  0  0
   -1.3116    1.8673   -0.5151 O   0  0  0  0  0  0  0  0  0  0  0  0
    0.3889    1.9422    0.9708 N   0  0  0  0  0  0  0  0  0  0  0  0
    1.0197    1.3866    1.5283 H   0  0  0  0  0  0  0  0  0  0  0  0
    0.5081    3.3999    1.0720 C   0  0  0  0  0  0  0  0  0  0  0  0
    0.0188    3.7538    1.9817 H   0  0  0  0  0  0  0  0  0  0  0  0
    1.5607    3.6858    1.1098 H   0  0  0  0  0  0  0  0  0  0  0  0
    0.0459    3.8890    0.2119 H   0  0  0  0  0  0  0  0  0  0  0  0
  5  6  2  0  0  0  0
  5  7  1  0  0  0  0
  2  3  1  0  0  0  0
  2  4  1  0  0  0  0
  2  5  1  0  0  0  0
  1  2  1  0  0  0  0
 23 24  2  0  0  0  0
 23 25  1  0  0  0  0
 21 22  1  0  0  0  0
 19 20  1  0  0  0  0
 19 21  1  0  0  0  0
 17 18  1  0  0  0  0
 17 19  1  0  0  0  0
 15 16  1  0  0  0  0
 15 17  2  0  0  0  0
 14 15  1  0  0  0  0
 14 21  2  0  0  0  0
 11 12  1  0  0  0  0
 11 13  1  0  0  0  0
 11 14  1  0  0  0  0
  9 10  1  0  0  0  0
  9 11  1  0  0  0  0
  9 23  1  0  0  0  0
  7  8  1  0  0  0  0
  7  9  1  0  0  0  0
 27 28  1  0  0  0  0
 27 29  1  0  0  0  0
 27 30  1  0  0  0  0
 25 26  1  0  0  0  0
 25 27  1  0  0  0  0
M  CHG  1  15   1
M  END
$$$$
default_name
  -OEChem-02102213163D

 30 30  0     1  0  0  0  0  0999 V2000
   -3.5507   -3.2183    1.8116 H   0  0  0  0  0  0  0  0  0  0  0  0
   -3.4597   -2.3913    1.1076 C   0  0  0  0  0  0  0  0  0  0  0  0
   -4.1577   -1.6043    1.3866 H   0  0  0  0  0  0  0  0  0  0  0  0
   -3.6807   -2.7523    0.1036 H   0  0  0  0  0  0  0  0  0  0  0  0
   -2.0477   -1.8543    1.1546 C   0  0  0  0  0  0  0  0  0  0  0  0
   -1.2227   -2.3443    1.9146 O   0  0  0  0  0  0  0  0  0  0  0  0
   -1.7517   -0.8483    0.3266 N   0  0  0  0  0  0  0  0  0  0  0  0
   -2.4847   -0.5123   -0.2804 H   0  0  0  0  0  0  0  0  0  0  0  0
   -0.4117   -0.2463    0.2186 C   0  0  1  0  0  0  0  0  0  0  0  0
    0.1554   -0.5152    1.1133 H   0  0  0  0  0  0  0  0  0  0  0  0
    0.3164   -0.8780   -0.9905 C   0  0  0  0  0  0  0  0  0  0  0  0
    0.3591   -0.1401   -1.7956 H   0  0  0  0  0  0  0  0  0  0  0  0
    1.3467   -1.1027   -0.7066 H   0  0  0  0  0  0  0  0  0  0  0  0
   -0.3108   -2.1468   -1.5283 C   0  0  0  0  0  0  0  0  0  0  0  0
   -1.5947   -2.2535   -2.0270 N   0  3  0  0  0  0  0  0  0  0  0  0
   -2.2260   -1.4548   -2.1379 H   0  0  0  0  0  0  0  0  0  0  0  0
   -1.7981   -3.5299   -2.4091 C   0  0  0  0  0  0  0  0  0  0  0  0
   -2.7136   -3.9157   -2.8531 H   0  0  0  0  0  0  0  0  0  0  0  0
   -0.6715   -4.2358   -2.1626 N   0  0  0  0  0  0  0  0  0  0  0  0
   -0.5333   -5.2250   -2.3525 H   0  0  0  0  0  0  0  0  0  0  0  0
    0.2727   -3.3822   -1.6091 C   0  0  0  0  0  0  0  0  0  0  0  0
    1.2824   -3.6354   -1.2977 H   0  0  0  0  0  0  0  0  0  0  0  0
   -0.4874    1.2908    0.1962 C   0  0  0  0  0  0  0  0  0  0  0  0
   -1.3116    1.8673   -0.5151 O   0  0  0  0  0  0  0  0  0  0  0  0
    0.3889    1.9422    0.9708 N   0  0  0  0  0  0  0  0  0  0  0  0
    1.0197    1.3866    1.5283 H   0  0  0  0  0  0  0  0  0  0  0  0
    0.5081    3.3999    1.0720 C   0  0  0  0  0  0  0  0  0  0  0  0
    0.0188    3.7538    1.9817 H   0  0  0  0  0  0  0  0  0  0  0  0
    1.5607    3.6858    1.1098 H   0  0  0  0  0  0  0  0  0  0  0  0
    0.0459    3.8890    0.2119 H   0  0  0  0  0  0  0  0  0  0  0  0
  5  6  2  0  0  0  0
  5  7  1  0  0  0  0
  2  3  1  0  0  0  0
  2  4  1  0  0  0  0
  2  5  1  0  0  0  0
  1  2  1  0  0  0  0
 23 24  2  0  0  0  0
 23 25  1  0  0  0  0
 21 22  1  0  0  0  0
 19 20  1  0  0  0  0
 19 21  1  0  0  0  0
 17 18  1  0  0  0  0
 17 19  1  0  0  0  0
 15 16  1  0  0  0  0
 15 17  2  0  0  0  0
 14 15  1  0  0  0  0
 14 21  2  0  0  0  0
 11 12  1  0  0  0  0
 11 13  1  0  0  0  0
 11 14  1  0  0  0  0
  9 10  1  0  0  0  0
  9 11  1  0  0  0  0
  9 23  1  0  0  0  0
  7  8  1  0  0  0  0
  7  9  1  0  0  0  0
 27 28  1  0  0  0  0
 27 29  1  0  0  0  0
 27 30  1  0  0  0  0
 25 26  1  0  0  0  0
 25 27  1  0  0  0  0
M  CHG  1  15   1
M  END
$$$$
default_name
  -OEChem-02102213163D

 30 30  0     1  0  0  0  0  0999 V2000
   -3.5507   -3.2183    1.8116 H   0  0  0  0  0  0  0  0  0  0  0  0
   -3.4597   -2.3913    1.1076 C   0  0  0  0  0  0  0  0  0  0  0  0
   -4.1577   -1.6043    1.3866 H   0  0  0  0  0  0  0  0  0  0  0  0
   -3.6807   -2.7523    0.1036 H   0  0  0  0  0  0  0  0  0  0  0  0
   -2.0477   -1.8543    1.1546 C   0  0  0  0  0  0  0  0  0  0  0  0
   -1.2227   -2.3443    1.9146 O   0  0  0  0  0  0  0  0  0  0  0  0
   -1.7517   -0.8483    0.3266 N   0  0  0  0  0  0  0  0  0  0  0  0
   -2.4847   -0.5123   -0.2804 H   0  0  0  0  0  0  0  0  0  0  0  0
   -0.4117   -0.2463    0.2186 C   0  0  1  0  0  0  0  0  0  0  0  0
    0.1554   -0.5152    1.1133 H   0  0  0  0  0  0  0  0  0  0  0  0
    0.3164   -0.8780   -0.9905 C   0  0  0  0  0  0  0  0  0  0  0  0
    0.3591   -0.1401   -1.7956 H   0  0  0  0  0  0  0  0  0  0  0  0
    1.3467   -1.1027   -0.7066 H   0  0  0  0  0  0  0  0  0  0  0  0
   -0.3108   -2.1468   -1.5283 C   0  0  0  0  0  0  0  0  0  0  0  0
   -1.4638   -2.2081   -2.2867 N   0  3  0  0  0  0  0  0  0  0  0  0
   -1.9710   -1.3800   -2.6119 H   0  0  0  0  0  0  0  0  0  0  0  0
   -1.7130   -3.5001   -2.5787 C   0  0  0  0  0  0  0  0  0  0  0  0
   -2.5486   -3.8608   -3.1751 H   0  0  0  0  0  0  0  0  0  0  0  0
   -0.7437   -4.2602   -2.0210 N   0  0  0  0  0  0  0  0  0  0  0  0
   -0.6718   -5.2726   -2.0785 H   0  0  0  0  0  0  0  0  0  0  0  0
    0.1452   -3.4259   -1.3573 C   0  0  0  0  0  0  0  0  0  0  0  0
    1.0341   -3.7209   -0.8065 H   0  0  0  0  0  0  0  0  0  0  0  0
   -0.4874    1.2908    0.1962 C   0  0  0  0  0  0  0  0  0  0  0  0
   -1.3116    1.8673   -0.5151 O   0  0  0  0  0  0  0  0  0  0  0  0
    0.3889    1.9422    0.9708 N   0  0  0  0  0  0  0  0  0  0  0  0
    1.0197    1.3866    1.5283 H   0  0  0  0  0  0  0  0  0  0  0  0
    0.5081    3.3999    1.0720 C   0  0  0  0  0  0  0  0  0  0  0  0
    0.0188    3.7538    1.9817 H   0  0  0  0  0  0  0  0  0  0  0  0
    1.5607    3.6858    1.1098 H   0  0  0  0  0  0  0  0  0  0  0  0
    0.0459    3.8890    0.2119 H   0  0  0  0  0  0  0  0  0  0  0  0
  5  6  2  0  0  0  0
  5  7  1  0  0  0  0
  2  3  1  0  0  0  0
  2  4  1  0  0  0  0
  2  5  1  0  0  0  0
  1  2  1  0  0  0  0
 23 24  2  0  0  0  0
 23 25  1  0  0  0  0
 21 22  1  0  0  0  0
 19 20  1  0  0  0  0
 19 21  1  0  0  0  0
 17 18  1  0  0  0  0
 17 19  1  0  0  0  0
 15 16  1  0  0  0  0
 15 17  2  0  0  0  0
 14 15  1  0  0  0  0
 14 21  2  0  0  0  0
 11 12  1  0  0  0  0
 11 13  1  0  0  0  0
 11 14  1  0  0  0  0
  9 10  1  0  0  0  0
  9 11  1  0  0  0  0
  9 23  1  0  0  0  0
  7  8  1  0  0  0  0
  7  9  1  0  0  0  0
 27 28  1  0  0  0  0
 27 29  1  0  0  0  0
 27 30  1  0  0  0  0
 25 26  1  0  0  0  0
 25 27  1  0  0  0  0
M  CHG  1  15   1
M  END
$$$$
default_name
  -OEChem-02102213163D

 30 30  0     1  0  0  0  0  0999 V2000
   -3.5507   -3.2183    1.8116 H   0  0  0  0  0  0  0  0  0  0  0  0
   -3.4597   -2.3913    1.1076 C   0  0  0  0  0  0  0  0  0  0  0  0
   -4.1577   -1.6043    1.3866 H   0  0  0  0  0  0  0  0  0  0  0  0
   -3.6807   -2.7523    0.1036 H   0  0  0  0  0  0  0  0  0  0  0  0
   -2.0477   -1.8543    1.1546 C   0  0  0  0  0  0  0  0  0  0  0  0
   -1.2227   -2.3443    1.9146 O   0  0  0  0  0  0  0  0  0  0  0  0
   -1.7517   -0.8483    0.3266 N   0  0  0  0  0  0  0  0  0  0  0  0
   -2.4847   -0.5123   -0.2804 H   0  0  0  0  0  0  0  0  0  0  0  0
   -0.4117   -0.2463    0.2186 C   0  0  1  0  0  0  0  0  0  0  0  0
    0.1554   -0.5152    1.1133 H   0  0  0  0  0  0  0  0  0  0  0  0
    0.3164   -0.8780   -0.9905 C   0  0  0  0  0  0  0  0  0  0  0  0
    0.3591   -0.1401   -1.7956 H   0  0  0  0  0  0  0  0  0  0  0  0
    1.3467   -1.1027   -0.7066 H   0  0  0  0  0  0  0  0  0  0  0  0
   -0.3108   -2.1468   -1.5283 C   0  0  0  0  0  0  0  0  0  0  0  0
   -1.2769   -2.2041   -2.5140 N   0  3  0  0  0  0  0  0  0  0  0  0
   -1.6150   -1.3820   -3.0225 H   0  0  0  0  0  0  0  0  0  0  0  0
   -1.5913   -3.4973   -2.7272 C   0  0  0  0  0  0  0  0  0  0  0  0
   -2.3143   -3.8574   -3.4563 H   0  0  0  0  0  0  0  0  0  0  0  0
   -0.8463   -4.2619   -1.8972 N   0  0  0  0  0  0  0  0  0  0  0  0
   -0.8693   -5.2766   -1.8388 H   0  0  0  0  0  0  0  0  0  0  0  0
   -0.0366   -3.4294   -1.1370 C   0  0  0  0  0  0  0  0  0  0  0  0
    0.6799   -3.7279   -0.3767 H   0  0  0  0  0  0  0  0  0  0  0  0
   -0.4874    1.2908    0.1962 C   0  0  0  0  0  0  0  0  0  0  0  0
   -1.3116    1.8673   -0.5151 O   0  0  0  0  0  0  0  0  0  0  0  0
    0.3889    1.9422    0.9708 N   0  0  0  0  0  0  0  0  0  0  0  0
    1.0197    1.3866    1.5283 H   0  0  0  0  0  0  0  0  0  0  0  0
    0.5081    3.3999    1.0720 C   0  0  0  0  0  0  0  0  0  0  0  0
    0.0188    3.7538    1.9817 H   0  0  0  0  0  0  0  0  0  0  0  0
    1.5607    3.6858    1.1098 H   0  0  0  0  0  0  0  0  0  0  0  0
    0.0459    3.8890    0.2119 H   0  0  0  0  0  0  0  0  0  0  0  0
  5  6  2  0  0  0  0
  5  7  1  0  0  0  0
  2  3  1  0  0  0  0
  2  4  1  0  0  0  0
  2  5  1  0  0  0  0
  1  2  1  0  0  0  0
 23 24  2  0  0  0  0
 23 25  1  0  0  0  0
 21 22  1  0  0  0  0
 19 20  1  0  0  0  0
 19 21  1  0  0  0  0
 17 18  1  0  0  0  0
 17 19  1  0  0  0  0
 15 16  1  0  0  0  0
 15 17  2  0  0  0  0
 14 15  1  0  0  0  0
 14 21  2  0  0  0  0
 11 12  1  0  0  0  0
 11 13  1  0  0  0  0
 11 14  1  0  0  0  0
  9 10  1  0  0  0  0
  9 11  1  0  0  0  0
  9 23  1  0  0  0  0
  7  8  1  0  0  0  0
  7  9  1  0  0  0  0
 27 28  1  0  0  0  0
 27 29  1  0  0  0  0
 27 30  1  0  0  0  0
 25 26  1  0  0  0  0
 25 27  1  0  0  0  0
M  CHG  1  15   1
M  END
$$$$
default_name
  -OEChem-02102213163D

 30 30  0     1  0  0  0  0  0999 V2000
   -3.5507   -3.2183    1.8116 H   0  0  0  0  0  0  0  0  0  0  0  0
   -3.4597   -2.3913    1.1076 C   0  0  0  0  0  0  0  0  0  0  0  0
   -4.1577   -1.6043    1.3866 H   0  0  0  0  0  0  0  0  0  0  0  0
   -3.6807   -2.7523    0.1036 H   0  0  0  0  0  0  0  0  0  0  0  0
   -2.0477   -1.8543    1.1546 C   0  0  0  0  0  0  0  0  0  0  0  0
   -1.2227   -2.3443    1.9146 O   0  0  0  0  0  0  0  0  0  0  0  0
   -1.7517   -0.8483    0.3266 N   0  0  0  0  0  0  0  0  0  0  0  0
   -2.4847   -0.5123   -0.2804 H   0  0  0  0  0  0  0  0  0  0  0  0
   -0.4117   -0.2463    0.2186 C   0  0  1  0  0  0  0  0  0  0  0  0
    0.1554   -0.5152    1.1133 H   0  0  0  0  0  0  0  0  0  0  0  0
    0.3164   -0.8780   -0.9905 C   0  0  0  0  0  0  0  0  0  0  0  0
    0.3591   -0.1401   -1.7956 H   0  0  0  0  0  0  0  0  0  0  0  0
    1.3467   -1.1027   -0.7066 H   0  0  0  0  0  0  0  0  0  0  0  0
   -0.3108   -2.1468   -1.5283 C   0  0  0  0  0  0  0  0  0  0  0  0
   -1.0468   -2.2419   -2.6935 N   0  3  0  0  0  0  0  0  0  0  0  0
   -1.1822   -1.4606   -3.3416 H   0  0  0  0  0  0  0  0  0  0  0  0
   -1.4413   -3.5218   -2.8445 C   0  0  0  0  0  0  0  0  0  0  0  0
   -2.0268   -3.9058   -3.6775 H   0  0  0  0  0  0  0  0  0  0  0  0
   -0.9725   -4.2408   -1.7997 N   0  0  0  0  0  0  0  0  0  0  0  0
   -1.1125   -5.2365   -1.6497 H   0  0  0  0  0  0  0  0  0  0  0  0
   -0.2603   -3.3925   -0.9633 C   0  0  0  0  0  0  0  0  0  0  0  0
    0.2439   -3.6561   -0.0377 H   0  0  0  0  0  0  0  0  0  0  0  0
   -0.4874    1.2908    0.1962 C   0  0  0  0  0  0  0  0  0  0  0  0
   -1.3116    1.8673   -0.5151 O   0  0  0  0  0  0  0  0  0  0  0  0
    0.3889    1.9422    0.9708 N   0  0  0  0  0  0  0  0  0  0  0  0
    1.0197    1.3866    1.5283 H   0  0  0  0  0  0  0  0  0  0  0  0
    0.5081    3.3999    1.0720 C   0  0  0  0  0  0  0  0  0  0  0  0
    0.0188    3.7538    1.9817 H   0  0  0  0  0  0  0  0  0  0  0  0
    1.5607    3.6858    1.1098 H   0  0  0  0  0  0  0  0  0  0  0  0
    0.0459    3.8890    0.2119 H   0  0  0  0  0  0  0  0  0  0  0  0
  5  6  2  0  0  0  0
  5  7  1  0  0  0  0
  2  3  1  0  0  0  0
  2  4  1  0  0  0  0
  2  5  1  0  0  0  0
  1  2  1  0  0  0  0
 23 24  2  0  0  0  0
 23 25  1  0  0  0  0
 21 22  1  0  0  0  0
 19 20  1  0  0  0  0
 19 21  1  0  0  0  0
 17 18  1  0  0  0  0
 17 19  1  0  0  0  0
 15 16  1  0  0  0  0
 15 17  2  0  0  0  0
 14 15  1  0  0  0  0
 14 21  2  0  0  0  0
 11 12  1  0  0  0  0
 11 13  1  0  0  0  0
 11 14  1  0  0  0  0
  9 10  1  0  0  0  0
  9 11  1  0  0  0  0
  9 23  1  0  0  0  0
  7  8  1  0  0  0  0
  7  9  1  0  0  0  0
 27 28  1  0  0  0  0
 27 29  1  0  0  0  0
 27 30  1  0  0  0  0
 25 26  1  0  0  0  0
 25 27  1  0  0  0  0
M  CHG  1  15   1
M  END
$$$$
default_name
  -OEChem-02102213163D

 30 30  0     1  0  0  0  0  0999 V2000
   -3.5507   -3.2183    1.8116 H   0  0  0  0  0  0  0  0  0  0  0  0
   -3.4597   -2.3913    1.1076 C   0  0  0  0  0  0  0  0  0  0  0  0
   -4.1577   -1.6043    1.3866 H   0  0  0  0  0  0  0  0  0  0  0  0
   -3.6807   -2.7523    0.1036 H   0  0  0  0  0  0  0  0  0  0  0  0
   -2.0477   -1.8543    1.1546 C   0  0  0  0  0  0  0  0  0  0  0  0
   -1.2227   -2.3443    1.9146 O   0  0  0  0  0  0  0  0  0  0  0  0
   -1.7517   -0.8483    0.3266 N   0  0  0  0  0  0  0  0  0  0  0  0
   -2.4847   -0.5123   -0.2804 H   0  0  0  0  0  0  0  0  0  0  0  0
   -0.4117   -0.2463    0.2186 C   0  0  1  0  0  0  0  0  0  0  0  0
    0.1554   -0.5152    1.1133 H   0  0  0  0  0  0  0  0  0  0  0  0
    0.3164   -0.8780   -0.9905 C   0  0  0  0  0  0  0  0  0  0  0  0
    0.3591   -0.1401   -1.7956 H   0  0  0  0  0  0  0  0  0  0  0  0
    1.3467   -1.1027   -0.7066 H   0  0  0  0  0  0  0  0  0  0  0  0
   -0.3108   -2.1468   -1.5283 C   0  0  0  0  0  0  0  0  0  0  0  0
   -0.7890   -2.3187   -2.8129 N   0  3  0  0  0  0  0  0  0  0  0  0
   -0.7022   -1.6106   -3.5476 H   0  0  0  0  0  0  0  0  0  0  0  0
   -1.2731   -3.5717   -2.9227 C   0  0  0  0  0  0  0  0  0  0  0  0
   -1.7055   -4.0028   -3.8235 H   0  0  0  0  0  0  0  0  0  0  0  0
   -1.1136   -4.1985   -1.7352 N   0  0  0  0  0  0  0  0  0  0  0  0
   -1.3847   -5.1552   -1.5240 H   0  0  0  0  0  0  0  0  0  0  0  0
   -0.5107   -3.3176   -0.8480 C   0  0  0  0  0  0  0  0  0  0  0  0
   -0.2442   -3.5103    0.1875 H   0  0  0  0  0  0  0  0  0  0  0  0
   -0.4874    1.2908    0.1962 C   0  0  0  0  0  0  0  0  0  0  0  0
   -1.3116    1.8673   -0.5151 O   0  0  0  0  0  0  0  0  0  0  0  0
    0.3889    1.9422    0.9708 N   0  0  0  0  0  0  0  0  0  0  0  0
    1.0197    1.3866    1.5283 H   0  0  0  0  0  0  0  0  0  0  0  0
    0.5081    3.3999    1.0720 C   0  0  0  0  0  0  0  0  0  0  0  0
    0.0188    3.7538    1.9817 H   0  0  0  0  0  0  0  0  0  0  0  0
    1.5607    3.6858    1.1098 H   0  0  0  0  0  0  0  0  0  0  0  0
    0.0459    3.8890    0.2119 H   0  0  0  0  0  0  0  0  0  0  0  0
  5  6  2  0  0  0  0
  5  7  1  0  0  0  0
  2  3  1  0  0  0  0
  2  4  1  0  0  0  0
  2  5  1  0  0  0  0
  1  2  1  0  0  0  0
 23 24  2  0  0  0  0
 23 25  1  0  0  0  0
 21 22  1  0  0  0  0
 19 20  1  0  0  0  0
 19 21  1  0  0  0  0
 17 18  1  0  0  0  0
 17 19  1  0  0  0  0
 15 16  1  0  0  0  0
 15 17  2  0  0  0  0
 14 15  1  0  0  0  0
 14 21  2  0  0  0  0
 11 12  1  0  0  0  0
 11 13  1  0  0  0  0
 11 14  1  0  0  0  0
  9 10  1  0  0  0  0
  9 11  1  0  0  0  0
  9 23  1  0  0  0  0
  7  8  1  0  0  0  0
  7  9  1  0  0  0  0
 27 28  1  0  0  0  0
 27 29  1  0  0  0  0
 27 30  1  0  0  0  0
 25 26  1  0  0  0  0
 25 27  1  0  0  0  0
M  CHG  1  15   1
M  END
$$$$
default_name
  -OEChem-02102213163D

 30 30  0     1  0  0  0  0  0999 V2000
   -3.5507   -3.2183    1.8116 H   0  0  0  0  0  0  0  0  0  0  0  0
   -3.4597   -2.3913    1.1076 C   0  0  0  0  0  0  0  0  0  0  0  0
   -4.1577   -1.6043    1.3866 H   0  0  0  0  0  0  0  0  0  0  0  0
   -3.6807   -2.7523    0.1036 H   0  0  0  0  0  0  0  0  0  0  0  0
   -2.0477   -1.8543    1.1546 C   0  0  0  0  0  0  0  0  0  0  0  0
   -1.2227   -2.3443    1.9146 O   0  0  0  0  0  0  0  0  0  0  0  0
   -1.7517   -0.8483    0.3266 N   0  0  0  0  0  0  0  0  0  0  0  0
   -2.4847   -0.5123   -0.2804 H   0  0  0  0  0  0  0  0  0  0  0  0
   -0.4117   -0.2463    0.2186 C   0  0  1  0  0  0  0  0  0  0  0  0
    0.1554   -0.5152    1.1133 H   0  0  0  0  0  0  0  0  0  0  0  0
    0.3164   -0.8780   -0.9905 C   0  0  0  0  0  0  0  0  0  0  0  0
    0.3591   -0.1401   -1.7956 H   0  0  0  0  0  0  0  0  0  0  0  0
    1.3467   -1.1027   -0.7066 H   0  0  0  0  0  0  0  0  0  0  0  0
   -0.3108   -2.1468   -1.5283 C   0  0  0  0  0  0  0  0  0  0  0  0
   -0.5211   -2.4294   -2.8641 N   0  3  0  0  0  0  0  0  0  0  0  0
   -0.2077   -1.8217   -3.6264 H   0  0  0  0  0  0  0  0  0  0  0  0
   -1.0984   -3.6439   -2.9564 C   0  0  0  0  0  0  0  0  0  0  0  0
   -1.3724   -4.1416   -3.8845 H   0  0  0  0  0  0  0  0  0  0  0  0
   -1.2599   -4.1376   -1.7080 N   0  0  0  0  0  0  0  0  0  0  0  0
   -1.6674   -5.0382   -1.4704 H   0  0  0  0  0  0  0  0  0  0  0  0
   -0.7707   -3.2098   -0.7990 C   0  0  0  0  0  0  0  0  0  0  0  0
   -0.7511   -3.3004    0.2836 H   0  0  0  0  0  0  0  0  0  0  0  0
   -0.4874    1.2908    0.1962 C   0  0  0  0  0  0  0  0  0  0  0  0
   -1.3116    1.8673   -0.5151 O   0  0  0  0  0  0  0  0  0  0  0  0
    0.3889    1.9422    0.9708 N   0  0  0  0  0  0  0  0  0  0  0  0
    1.0197    1.3866    1.5283 H   0  0  0  0  0  0  0  0  0  0  0  0
    0.5081    3.3999    1.0720 C   0  0  0  0  0  0  0  0  0  0  0  0
    0.0188    3.7538    1.9817 H   0  0  0  0  0  0  0  0  0  0  0  0
    1.5607    3.6858    1.1098 H   0  0  0  0  0  0  0  0  0  0  0  0
    0.0459    3.8890    0.2119 H   0  0  0  0  0  0  0  0  0  0  0  0
  5  6  2  0  0  0  0
  5  7  1  0  0  0  0
  2  3  1  0  0  0  0
  2  4  1  0  0  0  0
  2  5  1  0  0  0  0
  1  2  1  0  0  0  0
 23 24  2  0  0  0  0
 23 25  1  0  0  0  0
 21 22  1  0  0  0  0
 19 20  1  0  0  0  0
 19 21  1  0  0  0  0
 17 18  1  0  0  0  0
 17 19  1  0  0  0  0
 15 16  1  0  0  0  0
 15 17  2  0  0  0  0
 14 15  1  0  0  0  0
 14 21  2  0  0  0  0
 11 12  1  0  0  0  0
 11 13  1  0  0  0  0
 11 14  1  0  0  0  0
  9 10  1  0  0  0  0
  9 11  1  0  0  0  0
  9 23  1  0  0  0  0
  7  8  1  0  0  0  0
  7  9  1  0  0  0  0
 27 28  1  0  0  0  0
 27 29  1  0  0  0  0
 27 30  1  0  0  0  0
 25 26  1  0  0  0  0
 25 27  1  0  0  0  0
M  CHG  1  15   1
M  END
$$$$
default_name
  -OEChem-02102213163D

 30 30  0     1  0  0  0  0  0999 V2000
   -3.5507   -3.2183    1.8116 H   0  0  0  0  0  0  0  0  0  0  0  0
   -3.4597   -2.3913    1.1076 C   0  0  0  0  0  0  0  0  0  0  0  0
   -4.1577   -1.6043    1.3866 H   0  0  0  0  0  0  0  0  0  0  0  0
   -3.6807   -2.7523    0.1036 H   0  0  0  0  0  0  0  0  0  0  0  0
   -2.0477   -1.8543    1.1546 C   0  0  0  0  0  0  0  0  0  0  0  0
   -1.2227   -2.3443    1.9146 O   0  0  0  0  0  0  0  0  0  0  0  0
   -1.7517   -0.8483    0.3266 N   0  0  0  0  0  0  0  0  0  0  0  0
   -2.4847   -0.5123   -0.2804 H   0  0  0  0  0  0  0  0  0  0  0  0
   -0.4117   -0.2463    0.2186 C   0  0  1  0  0  0  0  0  0  0  0  0
    0.1554   -0.5152    1.1133 H   0  0  0  0  0  0  0  0  0  0  0  0
    0.3164   -0.8780   -0.9905 C   0  0  0  0  0  0  0  0  0  0  0  0
    0.3591   -0.1401   -1.7956 H   0  0  0  0  0  0  0  0  0  0  0  0
    1.3467   -1.1027   -0.7066 H   0  0  0  0  0  0  0  0  0  0  0  0
   -0.3108   -2.1468   -1.5283 C   0  0  0  0  0  0  0  0  0  0  0  0
   -0.2615   -2.5664   -2.8435 N   0  3  0  0  0  0  0  0  0  0  0  0
    0.2677   -2.0794   -3.5726 H   0  0  0  0  0  0  0  0  0  0  0  0
   -0.9289   -3.7332   -2.9434 C   0  0  0  0  0  0  0  0  0  0  0  0
   -1.0501   -4.3128   -3.8562 H   0  0  0  0  0  0  0  0  0  0  0  0
   -1.4016   -4.0625   -1.7200 N   0  0  0  0  0  0  0  0  0  0  0  0
   -1.9414   -4.8934   -1.4925 H   0  0  0  0  0  0  0  0  0  0  0  0
   -1.0225   -3.0766   -0.8196 C   0  0  0  0  0  0  0  0  0  0  0  0
   -1.2422   -3.0408    0.2439 H   0  0  0  0  0  0  0  0  0  0  0  0
   -0.4874    1.2908    0.1962 C   0  0  0  0  0  0  0  0  0  0  0  0
   -1.3116    1.8673   -0.5151 O   0  0  0  0  0  0  0  0  0  0  0  0
    0.3889    1.9422    0.9708 N   0  0  0  0  0  0  0  0  0  0  0  0
    1.0197    1.3866    1.5283 H   0  0  0  0  0  0  0  0  0  0  0  0
    0.5081    3.3999    1.0720 C   0  0  0  0  0  0  0  0  0  0  0  0
    0.0188    3.7538    1.9817 H   0  0  0  0  0  0  0  0  0  0  0  0
    1.5607    3.6858    1.1098 H   0  0  0  0  0  0  0  0  0  0  0  0
    0.0459    3.8890    0.2119 H   0  0  0  0  0  0  0  0  0  0  0  0
  5  6  2  0  0  0  0
  5  7  1  0  0  0  0
  2  3  1  0  0  0  0
  2  4  1  0  0  0  0
  2  5  1  0  0  0  0
  1  2  1  0  0  0  0
 23 24  2  0  0  0  0
 23 25  1  0  0  0  0
 21 22  1  0  0  0  0
 19 20  1  0  0  0  0
 19 21  1  0  0  0  0
 17 18  1  0  0  0  0
 17 19  1  0  0  0  0
 15 16  1  0  0  0  0
 15 17  2  0  0  0  0
 14 15  1  0  0  0  0
 14 21  2  0  0  0  0
 11 12  1  0  0  0  0
 11 13  1  0  0  0  0
 11 14  1  0  0  0  0
  9 10  1  0  0  0  0
  9 11  1  0  0  0  0
  9 23  1  0  0  0  0
  7  8  1  0  0  0  0
  7  9  1  0  0  0  0
 27 28  1  0  0  0  0
 27 29  1  0  0  0  0
 27 30  1  0  0  0  0
 25 26  1  0  0  0  0
 25 27  1  0  0  0  0
M  CHG  1  15   1
M  END
$$$$
default_name
  -OEChem-02102213163D

 30 30  0     1  0  0  0  0  0999 V2000
   -3.5507   -3.2183    1.8116 H   0  0  0  0  0  0  0  0  0  0  0  0
   -3.4597   -2.3913    1.1076 C   0  0  0  0  0  0  0  0  0  0  0  0
   -4.1577   -1.6043    1.3866 H   0  0  0  0  0  0  0  0  0  0  0  0
   -3.6807   -2.7523    0.1036 H   0  0  0  0  0  0  0  0  0  0  0  0
   -2.0477   -1.8543    1.1546 C   0  0  0  0  0  0  0  0  0  0  0  0
   -1.2227   -2.3443    1.9146 O   0  0  0  0  0  0  0  0  0  0  0  0
   -1.7517   -0.8483    0.3266 N   0  0  0  0  0  0  0  0  0  0  0  0
   -2.4847   -0.5123   -0.2804 H   0  0  0  0  0  0  0  0  0  0  0  0
   -0.4117   -0.2463    0.2186 C   0  0  1  0  0  0  0  0  0  0  0  0
    0.1554   -0.5152    1.1133 H   0  0  0  0  0  0  0  0  0  0  0  0
    0.3164   -0.8780   -0.9905 C   0  0  0  0  0  0  0  0  0  0  0  0
    0.3591   -0.1401   -1.7956 H   0  0  0  0  0  0  0  0  0  0  0  0
    1.3467   -1.1027   -0.7066 H   0  0  0  0  0  0  0  0  0  0  0  0
   -0.3108   -2.1468   -1.5283 C   0  0  0  0  0  0  0  0  0  0  0  0
   -0.0278   -2.7205   -2.7527 N   0  3  0  0  0  0  0  0  0  0  0  0
    0.6915   -2.3664   -3.3899 H   0  0  0  0  0  0  0  0  0  0  0  0
   -0.7762   -3.8337   -2.8844 C   0  0  0  0  0  0  0  0  0  0  0  0
   -0.7608   -4.5048   -3.7407 H   0  0  0  0  0  0  0  0  0  0  0  0
   -1.5290   -3.9782   -1.7704 N   0  0  0  0  0  0  0  0  0  0  0  0
   -2.1879   -4.7307   -1.5888 H   0  0  0  0  0  0  0  0  0  0  0  0
   -1.2491   -2.9270   -0.9083 C   0  0  0  0  0  0  0  0  0  0  0  0
   -1.6842   -2.7492    0.0712 H   0  0  0  0  0  0  0  0  0  0  0  0
   -0.4874    1.2908    0.1962 C   0  0  0  0  0  0  0  0  0  0  0  0
   -1.3116    1.8673   -0.5151 O   0  0  0  0  0  0  0  0  0  0  0  0
    0.3889    1.9422    0.9708 N   0  0  0  0  0  0  0  0  0  0  0  0
    1.0197    1.3866    1.5283 H   0  0  0  0  0  0  0  0  0  0  0  0
    0.5081    3.3999    1.0720 C   0  0  0  0  0  0  0  0  0  0  0  0
    0.0188    3.7538    1.9817 H   0  0  0  0  0  0  0  0  0  0  0  0
    1.5607    3.6858    1.1098 H   0  0  0  0  0  0  0  0  0  0  0  0
    0.0459    3.8890    0.2119 H   0  0  0  0  0  0  0  0  0  0  0  0
  5  6  2  0  0  0  0
  5  7  1  0  0  0  0
  2  3  1  0  0  0  0
  2  4  1  0  0  0  0
  2  5  1  0  0  0  0
  1  2  1  0  0  0  0
 23 24  2  0  0  0  0
 23 25  1  0  0  0  0
 21 22  1  0  0  0  0
 19 20  1  0  0  0  0
 19 21  1  0  0  0  0
 17 18  1  0  0  0  0
 17 19  1  0  0  0  0
 15 16  1  0  0  0  0
 15 17  2  0  0  0  0
 14 15  1  0  0  0  0
 14 21  2  0  0  0  0
 11 12  1  0  0  0  0
 11 13  1  0  0  0  0
 11 14  1  0  0  0  0
  9 10  1  0  0  0  0
  9 11  1  0  0  0  0
  9 23  1  0  0  0  0
  7  8  1  0  0  0  0
  7  9  1  0  0  0  0
 27 28  1  0  0  0  0
 27 29  1  0  0  0  0
 27 30  1  0  0  0  0
 25 26  1  0  0  0  0
 25 27  1  0  0  0  0
M  CHG  1  15   1
M  END
$$$$
default_name
  -OEChem-02102213163D

 30 30  0     1  0  0  0  0  0999 V2000
   -3.5507   -3.2183    1.8116 H   0  0  0  0  0  0  0  0  0  0  0  0
   -3.4597   -2.3913    1.1076 C   0  0  0  0  0  0  0  0  0  0  0  0
   -4.1577   -1.6043    1.3866 H   0  0  0  0  0  0  0  0  0  0  0  0
   -3.6807   -2.7523    0.1036 H   0  0  0  0  0  0  0  0  0  0  0  0
   -2.0477   -1.8543    1.1546 C   0  0  0  0  0  0  0  0  0  0  0  0
   -1.2227   -2.3443    1.9146 O   0  0  0  0  0  0  0  0  0  0  0  0
   -1.7517   -0.8483    0.3266 N   0  0  0  0  0  0  0  0  0  0  0  0
   -2.4847   -0.5123   -0.2804 H   0  0  0  0  0  0  0  0  0  0  0  0
   -0.4117   -0.2463    0.2186 C   0  0  1  0  0  0  0  0  0  0  0  0
    0.1554   -0.5152    1.1133 H   0  0  0  0  0  0  0  0  0  0  0  0
    0.3164   -0.8780   -0.9905 C   0  0  0  0  0  0  0  0  0  0  0  0
    0.5977   -0.0806   -1.6830 H   0  0  0  0  0  0  0  0  0  0  0  0
    1.2418   -1.3431   -0.6442 H   0  0  0  0  0  0  0  0  0  0  0  0
   -0.4790   -1.9200   -1.7480 C   0  0  0  0  0  0  0  0  0  0  0  0
   -0.0340   -2.6140   -2.8565 N   0  3  0  0  0  0  0  0  0  0  0  0
    0.9147   -2.5293   -3.2329 H   0  0  0  0  0  0  0  0  0  0  0  0
   -1.0123   -3.4505   -3.2562 C   0  0  0  0  0  0  0  0  0  0  0  0
   -0.9488   -4.1367   -4.0982 H   0  0  0  0  0  0  0  0  0  0  0  0
   -2.0692   -3.3016   -2.4259 N   0  0  0  0  0  0  0  0  0  0  0  0
   -2.9496   -3.8066   -2.4838 H   0  0  0  0  0  0  0  0  0  0  0  0
   -1.7511   -2.3439   -1.4728 C   0  0  0  0  0  0  0  0  0  0  0  0
   -2.3819   -1.9923   -0.6611 H   0  0  0  0  0  0  0  0  0  0  0  0
   -0.4874    1.2908    0.1962 C   0  0  0  0  0  0  0  0  0  0  0  0
   -1.3116    1.8673   -0.5151 O   0  0  0  0  0  0  0  0  0  0  0  0
    0.3889    1.9422    0.9708 N   0  0  0  0  0  0  0  0  0  0  0  0
    1.0197    1.3866    1.5283 H   0  0  0  0  0  0  0  0  0  0  0  0
    0.5081    3.3999    1.0720 C   0  0  0  0  0  0  0  0  0  0  0  0
    0.0188    3.7538    1.9817 H   0  0  0  0  0  0  0  0  0  0  0  0
    1.5607    3.6858    1.1098 H   0  0  0  0  0  0  0  0  0  0  0  0
    0.0459    3.8890    0.2119 H   0  0  0  0  0  0  0  0  0  0  0  0
  5  6  2  0  0  0  0
  5  7  1  0  0  0  0
  2  3  1  0  0  0  0
  2  4  1  0  0  0  0
  2  5  1  0  0  0  0
  1  2  1  0  0  0  0
 23 24  2  0  0  0  0
 23 25  1  0  0  0  0
 21 22  1  0  0  0  0
 19 20  1  0  0  0  0
 19 21  1  0  0  0  0
 17 18  1  0  0  0  0
 17 19  1  0  0  0  0
 15 16  1  0  0  0  0
 15 17  2  0  0  0  0
 14 15  1  0  0  0  0
 14 21  2  0  0  0  0
 11 12  1  0  0  0  0
 11 13  1  0  0  0  0
 11 14  1  0  0  0  0
  9 10  1  0  0  0  0
  9 11  1  0  0  0  0
  9 23  1  0  0  0  0
  7  8  1  0  0  0  0
  7  9  1  0  0  0  0
 27 28  1  0  0  0  0
 27 29  1  0  0  0  0
 27 30  1  0  0  0  0
 25 26  1  0  0  0  0
 25 27  1  0  0  0  0
M  CHG  1  15   1
M  END
$$$$
default_name
  -OEChem-02102213163D

 30 30  0     1  0  0  0  0  0999 V2000
   -3.5507   -3.2183    1.8116 H   0  0  0  0  0  0  0  0  0  0  0  0
   -3.4597   -2.3913    1.1076 C   0  0  0  0  0  0  0  0  0  0  0  0
   -4.1577   -1.6043    1.3866 H   0  0  0  0  0  0  0  0  0  0  0  0
   -3.6807   -2.7523    0.1036 H   0  0  0  0  0  0  0  0  0  0  0  0
   -2.0477   -1.8543    1.1546 C   0  0  0  0  0  0  0  0  0  0  0  0
   -1.2227   -2.3443    1.9146 O   0  0  0  0  0  0  0  0  0  0  0  0
   -1.7517   -0.8483    0.3266 N   0  0  0  0  0  0  0  0  0  0  0  0
   -2.4847   -0.5123   -0.2804 H   0  0  0  0  0  0  0  0  0  0  0  0
   -0.4117   -0.2463    0.2186 C   0  0  1  0  0  0  0  0  0  0  0  0
    0.1554   -0.5152    1.1133 H   0  0  0  0  0  0  0  0  0  0  0  0
    0.3164   -0.8780   -0.9905 C   0  0  0  0  0  0  0  0  0  0  0  0
    0.5977   -0.0806   -1.6830 H   0  0  0  0  0  0  0  0  0  0  0  0
    1.2418   -1.3431   -0.6442 H   0  0  0  0  0  0  0  0  0  0  0  0
   -0.4790   -1.9200   -1.7480 C   0  0  0  0  0  0  0  0  0  0  0  0
    0.0442   -2.8174   -2.6587 N   0  3  0  0  0  0  0  0  0  0  0  0
    1.0451   -2.9010   -2.8585 H   0  0  0  0  0  0  0  0  0  0  0  0
   -0.9611   -3.5833   -3.1273 C   0  0  0  0  0  0  0  0  0  0  0  0
   -0.8539   -4.3891   -3.8507 H   0  0  0  0  0  0  0  0  0  0  0  0
   -2.1112   -3.1906   -2.5344 N   0  0  0  0  0  0  0  0  0  0  0  0
   -3.0317   -3.5920   -2.6928 H   0  0  0  0  0  0  0  0  0  0  0  0
   -1.8263   -2.1466   -1.6652 C   0  0  0  0  0  0  0  0  0  0  0  0
   -2.5291   -1.6075   -1.0359 H   0  0  0  0  0  0  0  0  0  0  0  0
   -0.4874    1.2908    0.1962 C   0  0  0  0  0  0  0  0  0  0  0  0
   -1.3116    1.8673   -0.5151 O   0  0  0  0  0  0  0  0  0  0  0  0
    0.3889    1.9422    0.9708 N   0  0  0  0  0  0  0  0  0  0  0  0
    1.0197    1.3866    1.5283 H   0  0  0  0  0  0  0  0  0  0  0  0
    0.5081    3.3999    1.0720 C   0  0  0  0  0  0  0  0  0  0  0  0
    0.0188    3.7538    1.9817 H   0  0  0  0  0  0  0  0  0  0  0  0
    1.5607    3.6858    1.1098 H   0  0  0  0  0  0  0  0  0  0  0  0
    0.0459    3.8890    0.2119 H   0  0  0  0  0  0  0  0  0  0  0  0
  5  6  2  0  0  0  0
  5  7  1  0  0  0  0
  2  3  1  0  0  0  0
  2  4  1  0  0  0  0
  2  5  1  0  0  0  0
  1  2  1  0  0  0  0
 23 24  2  0  0  0  0
 23 25  1  0  0  0  0
 21 22  1  0  0  0  0
 19 20  1  0  0  0  0
 19 21  1  0  0  0  0
 17 18  1  0  0  0  0
 17 19  1  0  0  0  0
 15 16  1  0  0  0  0
 15 17  2  0  0  0  0
 14 15  1  0  0  0  0
 14 21  2  0  0  0  0
 11 12  1  0  0  0  0
 11 13  1  0  0  0  0
 11 14  1  0  0  0  0
  9 10  1  0  0  0  0
  9 11  1  0  0  0  0
  9 23  1  0  0  0  0
  7  8  1  0  0  0  0
  7  9  1  0  0  0  0
 27 28  1  0  0  0  0
 27 29  1  0  0  0  0
 27 30  1  0  0  0  0
 25 26  1  0  0  0  0
 25 27  1  0  0  0  0
M  CHG  1  15   1
M  END
$$$$
default_name
  -OEChem-02102213163D

 30 30  0     1  0  0  0  0  0999 V2000
   -3.5507   -3.2183    1.8116 H   0  0  0  0  0  0  0  0  0  0  0  0
   -3.4597   -2.3913    1.1076 C   0  0  0  0  0  0  0  0  0  0  0  0
   -4.1577   -1.6043    1.3866 H   0  0  0  0  0  0  0  0  0  0  0  0
   -3.6807   -2.7523    0.1036 H   0  0  0  0  0  0  0  0  0  0  0  0
   -2.0477   -1.8543    1.1546 C   0  0  0  0  0  0  0  0  0  0  0  0
   -1.2227   -2.3443    1.9146 O   0  0  0  0  0  0  0  0  0  0  0  0
   -1.7517   -0.8483    0.3266 N   0  0  0  0  0  0  0  0  0  0  0  0
   -2.4847   -0.5123   -0.2804 H   0  0  0  0  0  0  0  0  0  0  0  0
   -0.4117   -0.2463    0.2186 C   0  0  1  0  0  0  0  0  0  0  0  0
    0.1554   -0.5152    1.1133 H   0  0  0  0  0  0  0  0  0  0  0  0
    0.3164   -0.8780   -0.9905 C   0  0  0  0  0  0  0  0  0  0  0  0
    0.5977   -0.0806   -1.6830 H   0  0  0  0  0  0  0  0  0  0  0  0
    1.2418   -1.3431   -0.6442 H   0  0  0  0  0  0  0  0  0  0  0  0
   -0.4790   -1.9200   -1.7480 C   0  0  0  0  0  0  0  0  0  0  0  0
    0.0581   -2.9972   -2.4261 N   0  3  0  0  0  0  0  0  0  0  0  0
    1.0563   -3.2260   -2.4231 H   0  0  0  0  0  0  0  0  0  0  0  0
   -0.9517   -3.7007   -2.9756 C   0  0  0  0  0  0  0  0  0  0  0  0
   -0.8391   -4.6114   -3.5603 H   0  0  0  0  0  0  0  0  0  0  0  0
   -2.1181   -3.0927   -2.6618 N   0  0  0  0  0  0  0  0  0  0  0  0
   -3.0460   -3.4024   -2.9385 H   0  0  0  0  0  0  0  0  0  0  0  0
   -1.8392   -1.9725   -1.8912 C   0  0  0  0  0  0  0  0  0  0  0  0
   -2.5547   -1.2677   -1.4765 H   0  0  0  0  0  0  0  0  0  0  0  0
   -0.4874    1.2908    0.1962 C   0  0  0  0  0  0  0  0  0  0  0  0
   -1.3116    1.8673   -0.5151 O   0  0  0  0  0  0  0  0  0  0  0  0
    0.3889    1.9422    0.9708 N   0  0  0  0  0  0  0  0  0  0  0  0
    1.0197    1.3866    1.5283 H   0  0  0  0  0  0  0  0  0  0  0  0
    0.5081    3.3999    1.0720 C   0  0  0  0  0  0  0  0  0  0  0  0
    0.0188    3.7538    1.9817 H   0  0  0  0  0  0  0  0  0  0  0  0
    1.5607    3.6858    1.1098 H   0  0  0  0  0  0  0  0  0  0  0  0
    0.0459    3.8890    0.2119 H   0  0  0  0  0  0  0  0  0  0  0  0
  5  6  2  0  0  0  0
  5  7  1  0  0  0  0
  2  3  1  0  0  0  0
  2  4  1  0  0  0  0
  2  5  1  0  0  0  0
  1  2  1  0  0  0  0
 23 24  2  0  0  0  0
 23 25  1  0  0  0  0
 21 22  1  0  0  0  0
 19 20  1  0  0  0  0
 19 21  1  0  0  0  0
 17 18  1  0  0  0  0
 17 19  1  0  0  0  0
 15 16  1  0  0  0  0
 15 17  2  0  0  0  0
 14 15  1  0  0  0  0
 14 21  2  0  0  0  0
 11 12  1  0  0  0  0
 11 13  1  0  0  0  0
 11 14  1  0  0  0  0
  9 10  1  0  0  0  0
  9 11  1  0  0  0  0
  9 23  1  0  0  0  0
  7  8  1  0  0  0  0
  7  9  1  0  0  0  0
 27 28  1  0  0  0  0
 27 29  1  0  0  0  0
 27 30  1  0  0  0  0
 25 26  1  0  0  0  0
 25 27  1  0  0  0  0
M  CHG  1  15   1
M  END
$$$$
default_name
  -OEChem-02102213163D

 30 30  0     1  0  0  0  0  0999 V2000
   -3.5507   -3.2183    1.8116 H   0  0  0  0  0  0  0  0  0  0  0  0
   -3.4597   -2.3913    1.1076 C   0  0  0  0  0  0  0  0  0  0  0  0
   -4.1577   -1.6043    1.3866 H   0  0  0  0  0  0  0  0  0  0  0  0
   -3.6807   -2.7523    0.1036 H   0  0  0  0  0  0  0  0  0  0  0  0
   -2.0477   -1.8543    1.1546 C   0  0  0  0  0  0  0  0  0  0  0  0
   -1.2227   -2.3443    1.9146 O   0  0  0  0  0  0  0  0  0  0  0  0
   -1.7517   -0.8483    0.3266 N   0  0  0  0  0  0  0  0  0  0  0  0
   -2.4847   -0.5123   -0.2804 H   0  0  0  0  0  0  0  0  0  0  0  0
   -0.4117   -0.2463    0.2186 C   0  0  1  0  0  0  0  0  0  0  0  0
    0.1554   -0.5152    1.1133 H   0  0  0  0  0  0  0  0  0  0  0  0
    0.3164   -0.8780   -0.9905 C   0  0  0  0  0  0  0  0  0  0  0  0
    0.5977   -0.0806   -1.6830 H   0  0  0  0  0  0  0  0  0  0  0  0
    1.2418   -1.3431   -0.6442 H   0  0  0  0  0  0  0  0  0  0  0  0
   -0.4790   -1.9200   -1.7480 C   0  0  0  0  0  0  0  0  0  0  0  0
    0.0068   -3.1409   -2.1745 N   0  3  0  0  0  0  0  0  0  0  0  0
    0.9474   -3.4822   -1.9564 H   0  0  0  0  0  0  0  0  0  0  0  0
   -0.9849   -3.7947   -2.8114 C   0  0  0  0  0  0  0  0  0  0  0  0
   -0.9053   -4.7887   -3.2470 H   0  0  0  0  0  0  0  0  0  0  0  0
   -2.0893   -3.0146   -2.7994 N   0  0  0  0  0  0  0  0  0  0  0  0
   -2.9915   -3.2509   -3.2042 H   0  0  0  0  0  0  0  0  0  0  0  0
   -1.7889   -1.8333   -2.1355 C   0  0  0  0  0  0  0  0  0  0  0  0
   -2.4569   -0.9961   -1.9528 H   0  0  0  0  0  0  0  0  0  0  0  0
   -0.4874    1.2908    0.1962 C   0  0  0  0  0  0  0  0  0  0  0  0
   -1.3116    1.8673   -0.5151 O   0  0  0  0  0  0  0  0  0  0  0  0
    0.3889    1.9422    0.9708 N   0  0  0  0  0  0  0  0  0  0  0  0
    1.0197    1.3866    1.5283 H   0  0  0  0  0  0  0  0  0  0  0  0
    0.5081    3.3999    1.0720 C   0  0  0  0  0  0  0  0  0  0  0  0
    0.0188    3.7538    1.9817 H   0  0  0  0  0  0  0  0  0  0  0  0
    1.5607    3.6858    1.1098 H   0  0  0  0  0  0  0  0  0  0  0  0
    0.0459    3.8890    0.2119 H   0  0  0  0  0  0  0  0  0  0  0  0
  5  6  2  0  0  0  0
  5  7  1  0  0  0  0
  2  3  1  0  0  0  0
  2  4  1  0  0  0  0
  2  5  1  0  0  0  0
  1  2  1  0  0  0  0
 23 24  2  0  0  0  0
 23 25  1  0  0  0  0
 21 22  1  0  0  0  0
 19 20  1  0  0  0  0
 19 21  1  0  0  0  0
 17 18  1  0  0  0  0
 17 19  1  0  0  0  0
 15 16  1  0  0  0  0
 15 17  2  0  0  0  0
 14 15  1  0  0  0  0
 14 21  2  0  0  0  0
 11 12  1  0  0  0  0
 11 13  1  0  0  0  0
 11 14  1  0  0  0  0
  9 10  1  0  0  0  0
  9 11  1  0  0  0  0
  9 23  1  0  0  0  0
  7  8  1  0  0  0  0
  7  9  1  0  0  0  0
 27 28  1  0  0  0  0
 27 29  1  0  0  0  0
 27 30  1  0  0  0  0
 25 26  1  0  0  0  0
 25 27  1  0  0  0  0
M  CHG  1  15   1
M  END
$$$$
default_name
  -OEChem-02102213163D

 30 30  0     1  0  0  0  0  0999 V2000
   -3.5507   -3.2183    1.8116 H   0  0  0  0  0  0  0  0  0  0  0  0
   -3.4597   -2.3913    1.1076 C   0  0  0  0  0  0  0  0  0  0  0  0
   -4.1577   -1.6043    1.3866 H   0  0  0  0  0  0  0  0  0  0  0  0
   -3.6807   -2.7523    0.1036 H   0  0  0  0  0  0  0  0  0  0  0  0
   -2.0477   -1.8543    1.1546 C   0  0  0  0  0  0  0  0  0  0  0  0
   -1.2227   -2.3443    1.9146 O   0  0  0  0  0  0  0  0  0  0  0  0
   -1.7517   -0.8483    0.3266 N   0  0  0  0  0  0  0  0  0  0  0  0
   -2.4847   -0.5123   -0.2804 H   0  0  0  0  0  0  0  0  0  0  0  0
   -0.4117   -0.2463    0.2186 C   0  0  1  0  0  0  0  0  0  0  0  0
    0.1554   -0.5152    1.1133 H   0  0  0  0  0  0  0  0  0  0  0  0
    0.3164   -0.8780   -0.9905 C   0  0  0  0  0  0  0  0  0  0  0  0
    0.5977   -0.0806   -1.6830 H   0  0  0  0  0  0  0  0  0  0  0  0
    1.2418   -1.3431   -0.6442 H   0  0  0  0  0  0  0  0  0  0  0  0
   -0.4790   -1.9200   -1.7480 C   0  0  0  0  0  0  0  0  0  0  0  0
   -0.1062   -3.2389   -1.9210 N   0  3  0  0  0  0  0  0  0  0  0  0
    0.7259   -3.6521   -1.4901 H   0  0  0  0  0  0  0  0  0  0  0  0
   -1.0584   -3.8589   -2.6460 C   0  0  0  0  0  0  0  0  0  0  0  0
   -1.0480   -4.9087   -2.9321 H   0  0  0  0  0  0  0  0  0  0  0  0
   -2.0269   -2.9616   -2.9379 N   0  0  0  0  0  0  0  0  0  0  0  0
   -2.8719   -3.1478   -3.4717 H   0  0  0  0  0  0  0  0  0  0  0  0
   -1.6787   -1.7386   -2.3815 C   0  0  0  0  0  0  0  0  0  0  0  0
   -2.2424   -0.8112   -2.4324 H   0  0  0  0  0  0  0  0  0  0  0  0
   -0.4874    1.2908    0.1962 C   0  0  0  0  0  0  0  0  0  0  0  0
   -1.3116    1.8673   -0.5151 O   0  0  0  0  0  0  0  0  0  0  0  0
    0.3889    1.9422    0.9708 N   0  0  0  0  0  0  0  0  0  0  0  0
    1.0197    1.3866    1.5283 H   0  0  0  0  0  0  0  0  0  0  0  0
    0.5081    3.3999    1.0720 C   0  0  0  0  0  0  0  0  0  0  0  0
    0.0188    3.7538    1.9817 H   0  0  0  0  0  0  0  0  0  0  0  0
    1.5607    3.6858    1.1098 H   0  0  0  0  0  0  0  0  0  0  0  0
    0.0459    3.8890    0.2119 H   0  0  0  0  0  0  0  0  0  0  0  0
  5  6  2  0  0  0  0
  5  7  1  0  0  0  0
  2  3  1  0  0  0  0
  2  4  1  0  0  0  0
  2  5  1  0  0  0  0
  1  2  1  0  0  0  0
 23 24  2  0  0  0  0
 23 25  1  0  0  0  0
 21 22  1  0  0  0  0
 19 20  1  0  0  0  0
 19 21  1  0  0  0  0
 17 18  1  0  0  0  0
 17 19  1  0  0  0  0
 15 16  1  0  0  0  0
 15 17  2  0  0  0  0
 14 15  1  0  0  0  0
 14 21  2  0  0  0  0
 11 12  1  0  0  0  0
 11 13  1  0  0  0  0
 11 14  1  0  0  0  0
  9 10  1  0  0  0  0
  9 11  1  0  0  0  0
  9 23  1  0  0  0  0
  7  8  1  0  0  0  0
  7  9  1  0  0  0  0
 27 28  1  0  0  0  0
 27 29  1  0  0  0  0
 27 30  1  0  0  0  0
 25 26  1  0  0  0  0
 25 27  1  0  0  0  0
M  CHG  1  15   1
M  END
$$$$
default_name
  -OEChem-02102213163D

 30 30  0     1  0  0  0  0  0999 V2000
   -3.5507   -3.2183    1.8116 H   0  0  0  0  0  0  0  0  0  0  0  0
   -3.4597   -2.3913    1.1076 C   0  0  0  0  0  0  0  0  0  0  0  0
   -4.1577   -1.6043    1.3866 H   0  0  0  0  0  0  0  0  0  0  0  0
   -3.6807   -2.7523    0.1036 H   0  0  0  0  0  0  0  0  0  0  0  0
   -2.0477   -1.8543    1.1546 C   0  0  0  0  0  0  0  0  0  0  0  0
   -1.2227   -2.3443    1.9146 O   0  0  0  0  0  0  0  0  0  0  0  0
   -1.7517   -0.8483    0.3266 N   0  0  0  0  0  0  0  0  0  0  0  0
   -2.4847   -0.5123   -0.2804 H   0  0  0  0  0  0  0  0  0  0  0  0
   -0.4117   -0.2463    0.2186 C   0  0  1  0  0  0  0  0  0  0  0  0
    0.1554   -0.5152    1.1133 H   0  0  0  0  0  0  0  0  0  0  0  0
    0.3164   -0.8780   -0.9905 C   0  0  0  0  0  0  0  0  0  0  0  0
    0.5977   -0.0806   -1.6830 H   0  0  0  0  0  0  0  0  0  0  0  0
    1.2418   -1.3431   -0.6442 H   0  0  0  0  0  0  0  0  0  0  0  0
   -0.4790   -1.9200   -1.7480 C   0  0  0  0  0  0  0  0  0  0  0  0
   -0.2732   -3.2845   -1.6830 N   0  3  0  0  0  0  0  0  0  0  0  0
    0.4070   -3.7241   -1.0561 H   0  0  0  0  0  0  0  0  0  0  0  0
   -1.1671   -3.8889   -2.4906 C   0  0  0  0  0  0  0  0  0  0  0  0
   -1.2574   -4.9633   -2.6370 H   0  0  0  0  0  0  0  0  0  0  0  0
   -1.9352   -2.9373   -3.0677 N   0  0  0  0  0  0  0  0  0  0  0  0
   -2.6953   -3.1000   -3.7228 H   0  0  0  0  0  0  0  0  0  0  0  0
   -1.5162   -1.6949   -2.6123 C   0  0  0  0  0  0  0  0  0  0  0  0
   -1.9259   -0.7256   -2.8826 H   0  0  0  0  0  0  0  0  0  0  0  0
   -0.4874    1.2908    0.1962 C   0  0  0  0  0  0  0  0  0  0  0  0
   -1.3116    1.8673   -0.5151 O   0  0  0  0  0  0  0  0  0  0  0  0
    0.3889    1.9422    0.9708 N   0  0  0  0  0  0  0  0  0  0  0  0
    1.0197    1.3866    1.5283 H   0  0  0  0  0  0  0  0  0  0  0  0
    0.5081    3.3999    1.0720 C   0  0  0  0  0  0  0  0  0  0  0  0
    0.0188    3.7538    1.9817 H   0  0  0  0  0  0  0  0  0  0  0  0
    1.5607    3.6858    1.1098 H   0  0  0  0  0  0  0  0  0  0  0  0
    0.0459    3.8890    0.2119 H   0  0  0  0  0  0  0  0  0  0  0  0
  5  6  2  0  0  0  0
  5  7  1  0  0  0  0
  2  3  1  0  0  0  0
  2  4  1  0  0  0  0
  2  5  1  0  0  0  0
  1  2  1  0  0  0  0
 23 24  2  0  0  0  0
 23 25  1  0  0  0  0
 21 22  1  0  0  0  0
 19 20  1  0  0  0  0
 19 21  1  0  0  0  0
 17 18  1  0  0  0  0
 17 19  1  0  0  0  0
 15 16  1  0  0  0  0
 15 17  2  0  0  0  0
 14 15  1  0  0  0  0
 14 21  2  0  0  0  0
 11 12  1  0  0  0  0
 11 13  1  0  0  0  0
 11 14  1  0  0  0  0
  9 10  1  0  0  0  0
  9 11  1  0  0  0  0
  9 23  1  0  0  0  0
  7  8  1  0  0  0  0
  7  9  1  0  0  0  0
 27 28  1  0  0  0  0
 27 29  1  0  0  0  0
 27 30  1  0  0  0  0
 25 26  1  0  0  0  0
 25 27  1  0  0  0  0
M  CHG  1  15   1
M  END
$$$$
default_name
  -OEChem-02102213163D

 30 30  0     1  0  0  0  0  0999 V2000
   -3.5507   -3.2183    1.8116 H   0  0  0  0  0  0  0  0  0  0  0  0
   -3.4597   -2.3913    1.1076 C   0  0  0  0  0  0  0  0  0  0  0  0
   -4.1577   -1.6043    1.3866 H   0  0  0  0  0  0  0  0  0  0  0  0
   -3.6807   -2.7523    0.1036 H   0  0  0  0  0  0  0  0  0  0  0  0
   -2.0477   -1.8543    1.1546 C   0  0  0  0  0  0  0  0  0  0  0  0
   -1.2227   -2.3443    1.9146 O   0  0  0  0  0  0  0  0  0  0  0  0
   -1.7517   -0.8483    0.3266 N   0  0  0  0  0  0  0  0  0  0  0  0
   -2.4847   -0.5123   -0.2804 H   0  0  0  0  0  0  0  0  0  0  0  0
   -0.4117   -0.2463    0.2186 C   0  0  1  0  0  0  0  0  0  0  0  0
    0.1554   -0.5152    1.1133 H   0  0  0  0  0  0  0  0  0  0  0  0
    0.3164   -0.8780   -0.9905 C   0  0  0  0  0  0  0  0  0  0  0  0
    0.5977   -0.0806   -1.6830 H   0  0  0  0  0  0  0  0  0  0  0  0
    1.2418   -1.3431   -0.6442 H   0  0  0  0  0  0  0  0  0  0  0  0
   -0.4790   -1.9200   -1.7480 C   0  0  0  0  0  0  0  0  0  0  0  0
   -0.4827   -3.2746   -1.4766 N   0  3  0  0  0  0  0  0  0  0  0  0
    0.0122   -3.6933   -0.6839 H   0  0  0  0  0  0  0  0  0  0  0  0
   -1.3037   -3.8826   -2.3557 C   0  0  0  0  0  0  0  0  0  0  0  0
   -1.5194   -4.9489   -2.3818 H   0  0  0  0  0  0  0  0  0  0  0  0
   -1.8202   -2.9434   -3.1800 N   0  0  0  0  0  0  0  0  0  0  0  0
   -2.4739   -3.1108   -3.9404 H   0  0  0  0  0  0  0  0  0  0  0  0
   -1.3125   -1.7050   -2.8122 C   0  0  0  0  0  0  0  0  0  0  0  0
   -1.5289   -0.7450   -3.2727 H   0  0  0  0  0  0  0  0  0  0  0  0
   -0.4874    1.2908    0.1962 C   0  0  0  0  0  0  0  0  0  0  0  0
   -1.3116    1.8673   -0.5151 O   0  0  0  0  0  0  0  0  0  0  0  0
    0.3889    1.9422    0.9708 N   0  0  0  0  0  0  0  0  0  0  0  0
    1.0197    1.3866    1.5283 H   0  0  0  0  0  0  0  0  0  0  0  0
    0.5081    3.3999    1.0720 C   0  0  0  0  0  0  0  0  0  0  0  0
    0.0188    3.7538    1.9817 H   0  0  0  0  0  0  0  0  0  0  0  0
    1.5607    3.6858    1.1098 H   0  0  0  0  0  0  0  0  0  0  0  0
    0.0459    3.8890    0.2119 H   0  0  0  0  0  0  0  0  0  0  0  0
  5  6  2  0  0  0  0
  5  7  1  0  0  0  0
  2  3  1  0  0  0  0
  2  4  1  0  0  0  0
  2  5  1  0  0  0  0
  1  2  1  0  0  0  0
 23 24  2  0  0  0  0
 23 25  1  0  0  0  0
 21 22  1  0  0  0  0
 19 20  1  0  0  0  0
 19 21  1  0  0  0  0
 17 18  1  0  0  0  0
 17 19  1  0  0  0  0
 15 16  1  0  0  0  0
 15 17  2  0  0  0  0
 14 15  1  0  0  0  0
 14 21  2  0  0  0  0
 11 12  1  0  0  0  0
 11 13  1  0  0  0  0
 11 14  1  0  0  0  0
  9 10  1  0  0  0  0
  9 11  1  0  0  0  0
  9 23  1  0  0  0  0
  7  8  1  0  0  0  0
  7  9  1  0  0  0  0
 27 28  1  0  0  0  0
 27 29  1  0  0  0  0
 27 30  1  0  0  0  0
 25 26  1  0  0  0  0
 25 27  1  0  0  0  0
M  CHG  1  15   1
M  END
$$$$
default_name
  -OEChem-02102213163D

 30 30  0     1  0  0  0  0  0999 V2000
   -3.5507   -3.2183    1.8116 H   0  0  0  0  0  0  0  0  0  0  0  0
   -3.4597   -2.3913    1.1076 C   0  0  0  0  0  0  0  0  0  0  0  0
   -4.1577   -1.6043    1.3866 H   0  0  0  0  0  0  0  0  0  0  0  0
   -3.6807   -2.7523    0.1036 H   0  0  0  0  0  0  0  0  0  0  0  0
   -2.0477   -1.8543    1.1546 C   0  0  0  0  0  0  0  0  0  0  0  0
   -1.2227   -2.3443    1.9146 O   0  0  0  0  0  0  0  0  0  0  0  0
   -1.7517   -0.8483    0.3266 N   0  0  0  0  0  0  0  0  0  0  0  0
   -2.4847   -0.5123   -0.2804 H   0  0  0  0  0  0  0  0  0  0  0  0
   -0.4117   -0.2463    0.2186 C   0  0  1  0  0  0  0  0  0  0  0  0
    0.1554   -0.5152    1.1133 H   0  0  0  0  0  0  0  0  0  0  0  0
    0.3164   -0.8780   -0.9905 C   0  0  0  0  0  0  0  0  0  0  0  0
    0.5977   -0.0806   -1.6830 H   0  0  0  0  0  0  0  0  0  0  0  0
    1.2418   -1.3431   -0.6442 H   0  0  0  0  0  0  0  0  0  0  0  0
   -0.4790   -1.9200   -1.7480 C   0  0  0  0  0  0  0  0  0  0  0  0
   -0.7207   -3.2097   -1.3159 N   0  3  0  0  0  0  0  0  0  0  0  0
   -0.4314   -3.5619   -0.3989 H   0  0  0  0  0  0  0  0  0  0  0  0
   -1.4589   -3.8406   -2.2507 C   0  0  0  0  0  0  0  0  0  0  0  0
   -1.8160   -4.8663   -2.1840 H   0  0  0  0  0  0  0  0  0  0  0  0
   -1.6900   -2.9794   -3.2672 N   0  0  0  0  0  0  0  0  0  0  0  0
   -2.2226   -3.1796   -4.1097 H   0  0  0  0  0  0  0  0  0  0  0  0
   -1.0814   -1.7684   -2.9677 C   0  0  0  0  0  0  0  0  0  0  0  0
   -1.0784   -0.8683   -3.5762 H   0  0  0  0  0  0  0  0  0  0  0  0
   -0.4874    1.2908    0.1962 C   0  0  0  0  0  0  0  0  0  0  0  0
   -1.3116    1.8673   -0.5151 O   0  0  0  0  0  0  0  0  0  0  0  0
    0.3889    1.9422    0.9708 N   0  0  0  0  0  0  0  0  0  0  0  0
    1.0197    1.3866    1.5283 H   0  0  0  0  0  0  0  0  0  0  0  0
    0.5081    3.3999    1.0720 C   0  0  0  0  0  0  0  0  0  0  0  0
    0.0188    3.7538    1.9817 H   0  0  0  0  0  0  0  0  0  0  0  0
    1.5607    3.6858    1.1098 H   0  0  0  0  0  0  0  0  0  0  0  0
    0.0459    3.8890    0.2119 H   0  0  0  0  0  0  0  0  0  0  0  0
  5  6  2  0  0  0  0
  5  7  1  0  0  0  0
  2  3  1  0  0  0  0
  2  4  1  0  0  0  0
  2  5  1  0  0  0  0
  1  2  1  0  0  0  0
 23 24  2  0  0  0  0
 23 25  1  0  0  0  0
 21 22  1  0  0  0  0
 19 20  1  0  0  0  0
 19 21  1  0  0  0  0
 17 18  1  0  0  0  0
 17 19  1  0  0  0  0
 15 16  1  0  0  0  0
 15 17  2  0  0  0  0
 14 15  1  0  0  0  0
 14 21  2  0  0  0  0
 11 12  1  0  0  0  0
 11 13  1  0  0  0  0
 11 14  1  0  0  0  0
  9 10  1  0  0  0  0
  9 11  1  0  0  0  0
  9 23  1  0  0  0  0
  7  8  1  0  0  0  0
  7  9  1  0  0  0  0
 27 28  1  0  0  0  0
 27 29  1  0  0  0  0
 27 30  1  0  0  0  0
 25 26  1  0  0  0  0
 25 27  1  0  0  0  0
M  CHG  1  15   1
M  END
$$$$
default_name
  -OEChem-02102213163D

 30 30  0     1  0  0  0  0  0999 V2000
   -3.5507   -3.2183    1.8116 H   0  0  0  0  0  0  0  0  0  0  0  0
   -3.4597   -2.3913    1.1076 C   0  0  0  0  0  0  0  0  0  0  0  0
   -4.1577   -1.6043    1.3866 H   0  0  0  0  0  0  0  0  0  0  0  0
   -3.6807   -2.7523    0.1036 H   0  0  0  0  0  0  0  0  0  0  0  0
   -2.0477   -1.8543    1.1546 C   0  0  0  0  0  0  0  0  0  0  0  0
   -1.2227   -2.3443    1.9146 O   0  0  0  0  0  0  0  0  0  0  0  0
   -1.7517   -0.8483    0.3266 N   0  0  0  0  0  0  0  0  0  0  0  0
   -2.4847   -0.5123   -0.2804 H   0  0  0  0  0  0  0  0  0  0  0  0
   -0.4117   -0.2463    0.2186 C   0  0  1  0  0  0  0  0  0  0  0  0
    0.1554   -0.5152    1.1133 H   0  0  0  0  0  0  0  0  0  0  0  0
    0.3164   -0.8780   -0.9905 C   0  0  0  0  0  0  0  0  0  0  0  0
    0.5977   -0.0806   -1.6830 H   0  0  0  0  0  0  0  0  0  0  0  0
    1.2418   -1.3431   -0.6442 H   0  0  0  0  0  0  0  0  0  0  0  0
   -0.4790   -1.9200   -1.7480 C   0  0  0  0  0  0  0  0  0  0  0  0
   -0.9707   -3.0945   -1.2119 N   0  3  0  0  0  0  0  0  0  0  0  0
   -0.8936   -3.3388   -0.2204 H   0  0  0  0  0  0  0  0  0  0  0  0
   -1.6220   -3.7656   -2.1826 C   0  0  0  0  0  0  0  0  0  0  0  0
   -2.1271   -4.7212   -2.0570 H   0  0  0  0  0  0  0  0  0  0  0  0
   -1.5534   -3.0429   -3.3234 N   0  0  0  0  0  0  0  0  0  0  0  0
   -1.9587   -3.3015   -4.2191 H   0  0  0  0  0  0  0  0  0  0  0  0
   -0.8387   -1.8807   -3.0681 C   0  0  0  0  0  0  0  0  0  0  0  0
   -0.6052   -1.0870   -3.7723 H   0  0  0  0  0  0  0  0  0  0  0  0
   -0.4874    1.2908    0.1962 C   0  0  0  0  0  0  0  0  0  0  0  0
   -1.3116    1.8673   -0.5151 O   0  0  0  0  0  0  0  0  0  0  0  0
    0.3889    1.9422    0.9708 N   0  0  0  0  0  0  0  0  0  0  0  0
    1.0197    1.3866    1.5283 H   0  0  0  0  0  0  0  0  0  0  0  0
    0.5081    3.3999    1.0720 C   0  0  0  0  0  0  0  0  0  0  0  0
    0.0188    3.7538    1.9817 H   0  0  0  0  0  0  0  0  0  0  0  0
    1.5607    3.6858    1.1098 H   0  0  0  0  0  0  0  0  0  0  0  0
    0.0459    3.8890    0.2119 H   0  0  0  0  0  0  0  0  0  0  0  0
  5  6  2  0  0  0  0
  5  7  1  0  0  0  0
  2  3  1  0  0  0  0
  2  4  1  0  0  0  0
  2  5  1  0  0  0  0
  1  2  1  0  0  0  0
 23 24  2  0  0  0  0
 23 25  1  0  0  0  0
 21 22  1  0  0  0  0
 19 20  1  0  0  0  0
 19 21  1  0  0  0  0
 17 18  1  0  0  0  0
 17 19  1  0  0  0  0
 15 16  1  0  0  0  0
 15 17  2  0  0  0  0
 14 15  1  0  0  0  0
 14 21  2  0  0  0  0
 11 12  1  0  0  0  0
 11 13  1  0  0  0  0
 11 14  1  0  0  0  0
  9 10  1  0  0  0  0
  9 11  1  0  0  0  0
  9 23  1  0  0  0  0
  7  8  1  0  0  0  0
  7  9  1  0  0  0  0
 27 28  1  0  0  0  0
 27 29  1  0  0  0  0
 27 30  1  0  0  0  0
 25 26  1  0  0  0  0
 25 27  1  0  0  0  0
M  CHG  1  15   1
M  END
$$$$
default_name
  -OEChem-02102213163D

 30 30  0     1  0  0  0  0  0999 V2000
   -3.5507   -3.2183    1.8116 H   0  0  0  0  0  0  0  0  0  0  0  0
   -3.4597   -2.3913    1.1076 C   0  0  0  0  0  0  0  0  0  0  0  0
   -4.1577   -1.6043    1.3866 H   0  0  0  0  0  0  0  0  0  0  0  0
   -3.6807   -2.7523    0.1036 H   0  0  0  0  0  0  0  0  0  0  0  0
   -2.0477   -1.8543    1.1546 C   0  0  0  0  0  0  0  0  0  0  0  0
   -1.2227   -2.3443    1.9146 O   0  0  0  0  0  0  0  0  0  0  0  0
   -1.7517   -0.8483    0.3266 N   0  0  0  0  0  0  0  0  0  0  0  0
   -2.4847   -0.5123   -0.2804 H   0  0  0  0  0  0  0  0  0  0  0  0
   -0.4117   -0.2463    0.2186 C   0  0  1  0  0  0  0  0  0  0  0  0
    0.1554   -0.5152    1.1133 H   0  0  0  0  0  0  0  0  0  0  0  0
    0.3164   -0.8780   -0.9905 C   0  0  0  0  0  0  0  0  0  0  0  0
    0.5977   -0.0806   -1.6830 H   0  0  0  0  0  0  0  0  0  0  0  0
    1.2418   -1.3431   -0.6442 H   0  0  0  0  0  0  0  0  0  0  0  0
   -0.4790   -1.9200   -1.7480 C   0  0  0  0  0  0  0  0  0  0  0  0
   -1.2158   -2.9366   -1.1717 N   0  3  0  0  0  0  0  0  0  0  0  0
   -1.3430   -3.0391   -0.1608 H   0  0  0  0  0  0  0  0  0  0  0  0
   -1.7820   -3.6627   -2.1560 C   0  0  0  0  0  0  0  0  0  0  0  0
   -2.4314   -4.5234   -2.0094 H   0  0  0  0  0  0  0  0  0  0  0  0
   -1.4196   -3.1296   -3.3446 N   0  0  0  0  0  0  0  0  0  0  0  0
   -1.7000   -3.4683   -4.2612 H   0  0  0  0  0  0  0  0  0  0  0  0
   -0.6009   -2.0343   -3.1065 C   0  0  0  0  0  0  0  0  0  0  0  0
   -0.1415   -1.3861   -3.8477 H   0  0  0  0  0  0  0  0  0  0  0  0
   -0.4874    1.2908    0.1962 C   0  0  0  0  0  0  0  0  0  0  0  0
   -1.3116    1.8673   -0.5151 O   0  0  0  0  0  0  0  0  0  0  0  0
    0.3889    1.9422    0.9708 N   0  0  0  0  0  0  0  0  0  0  0  0
    1.0197    1.3866    1.5283 H   0  0  0  0  0  0  0  0  0  0  0  0
    0.5081    3.3999    1.0720 C   0  0  0  0  0  0  0  0  0  0  0  0
    0.0188    3.7538    1.9817 H   0  0  0  0  0  0  0  0  0  0  0  0
    1.5607    3.6858    1.1098 H   0  0  0  0  0  0  0  0  0  0  0  0
    0.0459    3.8890    0.2119 H   0  0  0  0  0  0  0  0  0  0  0  0
  5  6  2  0  0  0  0
  5  7  1  0  0  0  0
  2  3  1  0  0  0  0
  2  4  1  0  0  0  0
  2  5  1  0  0  0  0
  1  2  1  0  0  0  0
 23 24  2  0  0  0  0
 23 25  1  0  0  0  0
 21 22  1  0  0  0  0
 19 20  1  0  0  0  0
 19 21  1  0  0  0  0
 17 18  1  0  0  0  0
 17 19  1  0  0  0  0
 15 16  1  0  0  0  0
 15 17  2  0  0  0  0
 14 15  1  0  0  0  0
 14 21  2  0  0  0  0
 11 12  1  0  0  0  0
 11 13  1  0  0  0  0
 11 14  1  0  0  0  0
  9 10  1  0  0  0  0
  9 11  1  0  0  0  0
  9 23  1  0  0  0  0
  7  8  1  0  0  0  0
  7  9  1  0  0  0  0
 27 28  1  0  0  0  0
 27 29  1  0  0  0  0
 27 30  1  0  0  0  0
 25 26  1  0  0  0  0
 25 27  1  0  0  0  0
M  CHG  1  15   1
M  END
$$$$
default_name
  -OEChem-02102213163D

 30 30  0     1  0  0  0  0  0999 V2000
   -3.5507   -3.2183    1.8116 H   0  0  0  0  0  0  0  0  0  0  0  0
   -3.4597   -2.3913    1.1076 C   0  0  0  0  0  0  0  0  0  0  0  0
   -4.1577   -1.6043    1.3866 H   0  0  0  0  0  0  0  0  0  0  0  0
   -3.6807   -2.7523    0.1036 H   0  0  0  0  0  0  0  0  0  0  0  0
   -2.0477   -1.8543    1.1546 C   0  0  0  0  0  0  0  0  0  0  0  0
   -1.2227   -2.3443    1.9146 O   0  0  0  0  0  0  0  0  0  0  0  0
   -1.7517   -0.8483    0.3266 N   0  0  0  0  0  0  0  0  0  0  0  0
   -2.4847   -0.5123   -0.2804 H   0  0  0  0  0  0  0  0  0  0  0  0
   -0.4117   -0.2463    0.2186 C   0  0  1  0  0  0  0  0  0  0  0  0
    0.1554   -0.5152    1.1133 H   0  0  0  0  0  0  0  0  0  0  0  0
    0.3164   -0.8780   -0.9905 C   0  0  0  0  0  0  0  0  0  0  0  0
    0.5977   -0.0806   -1.6830 H   0  0  0  0  0  0  0  0  0  0  0  0
    1.2418   -1.3431   -0.6442 H   0  0  0  0  0  0  0  0  0  0  0  0
   -0.4790   -1.9200   -1.7480 C   0  0  0  0  0  0  0  0  0  0  0  0
   -1.4393   -2.7470   -1.1980 N   0  3  0  0  0  0  0  0  0  0  0  0
   -1.7490   -2.6834   -0.2239 H   0  0  0  0  0  0  0  0  0  0  0  0
   -1.9280   -3.5391   -2.1729 C   0  0  0  0  0  0  0  0  0  0  0  0
   -2.7082   -4.2866   -2.0446 H   0  0  0  0  0  0  0  0  0  0  0  0
   -1.2978   -3.2335   -3.3295 N   0  0  0  0  0  0  0  0  0  0  0  0
   -1.4643   -3.6687   -4.2331 H   0  0  0  0  0  0  0  0  0  0  0  0
   -0.3843   -2.2186   -3.0805 C   0  0  0  0  0  0  0  0  0  0  0  0
    0.2811   -1.7454   -3.7972 H   0  0  0  0  0  0  0  0  0  0  0  0
   -0.4874    1.2908    0.1962 C   0  0  0  0  0  0  0  0  0  0  0  0
   -1.3116    1.8673   -0.5151 O   0  0  0  0  0  0  0  0  0  0  0  0
    0.3889    1.9422    0.9708 N   0  0  0  0  0  0  0  0  0  0  0  0
    1.0197    1.3866    1.5283 H   0  0  0  0  0  0  0  0  0  0  0  0
    0.5081    3.3999    1.0720 C   0  0  0  0  0  0  0  0  0  0  0  0
    0.0188    3.7538    1.9817 H   0  0  0  0  0  0  0  0  0  0  0  0
    1.5607    3.6858    1.1098 H   0  0  0  0  0  0  0  0  0  0  0  0
    0.0459    3.8890    0.2119 H   0  0  0  0  0  0  0  0  0  0  0  0
  5  6  2  0  0  0  0
  5  7  1  0  0  0  0
  2  3  1  0  0  0  0
  2  4  1  0  0  0  0
  2  5  1  0  0  0  0
  1  2  1  0  0  0  0
 23 24  2  0  0  0  0
 23 25  1  0  0  0  0
 21 22  1  0  0  0  0
 19 20  1  0  0  0  0
 19 21  1  0  0  0  0
 17 18  1  0  0  0  0
 17 19  1  0  0  0  0
 15 16  1  0  0  0  0
 15 17  2  0  0  0  0
 14 15  1  0  0  0  0
 14 21  2  0  0  0  0
 11 12  1  0  0  0  0
 11 13  1  0  0  0  0
 11 14  1  0  0  0  0
  9 10  1  0  0  0  0
  9 11  1  0  0  0  0
  9 23  1  0  0  0  0
  7  8  1  0  0  0  0
  7  9  1  0  0  0  0
 27 28  1  0  0  0  0
 27 29  1  0  0  0  0
 27 30  1  0  0  0  0
 25 26  1  0  0  0  0
 25 27  1  0  0  0  0
M  CHG  1  15   1
M  END
$$$$
default_name
  -OEChem-02102213163D

 30 30  0     1  0  0  0  0  0999 V2000
   -3.5507   -3.2183    1.8116 H   0  0  0  0  0  0  0  0  0  0  0  0
   -3.4597   -2.3913    1.1076 C   0  0  0  0  0  0  0  0  0  0  0  0
   -4.1577   -1.6043    1.3866 H   0  0  0  0  0  0  0  0  0  0  0  0
   -3.6807   -2.7523    0.1036 H   0  0  0  0  0  0  0  0  0  0  0  0
   -2.0477   -1.8543    1.1546 C   0  0  0  0  0  0  0  0  0  0  0  0
   -1.2227   -2.3443    1.9146 O   0  0  0  0  0  0  0  0  0  0  0  0
   -1.7517   -0.8483    0.3266 N   0  0  0  0  0  0  0  0  0  0  0  0
   -2.4847   -0.5123   -0.2804 H   0  0  0  0  0  0  0  0  0  0  0  0
   -0.4117   -0.2463    0.2186 C   0  0  1  0  0  0  0  0  0  0  0  0
    0.1554   -0.5152    1.1133 H   0  0  0  0  0  0  0  0  0  0  0  0
    0.3164   -0.8780   -0.9905 C   0  0  0  0  0  0  0  0  0  0  0  0
    0.5977   -0.0806   -1.6830 H   0  0  0  0  0  0  0  0  0  0  0  0
    1.2418   -1.3431   -0.6442 H   0  0  0  0  0  0  0  0  0  0  0  0
   -0.4790   -1.9200   -1.7480 C   0  0  0  0  0  0  0  0  0  0  0  0
   -1.6259   -2.5384   -1.2890 N   0  3  0  0  0  0  0  0  0  0  0  0
   -2.0837   -2.2958   -0.4056 H   0  0  0  0  0  0  0  0  0  0  0  0
   -2.0499   -3.4030   -2.2319 C   0  0  0  0  0  0  0  0  0  0  0  0
   -2.9386   -4.0268   -2.1600 H   0  0  0  0  0  0  0  0  0  0  0  0
   -1.1963   -3.3476   -3.2791 N   0  0  0  0  0  0  0  0  0  0  0  0
   -1.2676   -3.8889   -4.1367 H   0  0  0  0  0  0  0  0  0  0  0  0
   -0.2035   -2.4211   -2.9916 C   0  0  0  0  0  0  0  0  0  0  0  0
    0.6338   -2.1402   -3.6244 H   0  0  0  0  0  0  0  0  0  0  0  0
   -0.4874    1.2908    0.1962 C   0  0  0  0  0  0  0  0  0  0  0  0
   -1.3116    1.8673   -0.5151 O   0  0  0  0  0  0  0  0  0  0  0  0
    0.3889    1.9422    0.9708 N   0  0  0  0  0  0  0  0  0  0  0  0
    1.0197    1.3866    1.5283 H   0  0  0  0  0  0  0  0  0  0  0  0
    0.5081    3.3999    1.0720 C   0  0  0  0  0  0  0  0  0  0  0  0
    0.0188    3.7538    1.9817 H   0  0  0  0  0  0  0  0  0  0  0  0
    1.5607    3.6858    1.1098 H   0  0  0  0  0  0  0  0  0  0  0  0
    0.0459    3.8890    0.2119 H   0  0  0  0  0  0  0  0  0  0  0  0
  5  6  2  0  0  0  0
  5  7  1  0  0  0  0
  2  3  1  0  0  0  0
  2  4  1  0  0  0  0
  2  5  1  0  0  0  0
  1  2  1  0  0  0  0
 23 24  2  0  0  0  0
 23 25  1  0  0  0  0
 21 22  1  0  0  0  0
 19 20  1  0  0  0  0
 19 21  1  0  0  0  0
 17 18  1  0  0  0  0
 17 19  1  0  0  0  0
 15 16  1  0  0  0  0
 15 17  2  0  0  0  0
 14 15  1  0  0  0  0
 14 21  2  0  0  0  0
 11 12  1  0  0  0  0
 11 13  1  0  0  0  0
 11 14  1  0  0  0  0
  9 10  1  0  0  0  0
  9 11  1  0  0  0  0
  9 23  1  0  0  0  0
  7  8  1  0  0  0  0
  7  9  1  0  0  0  0
 27 28  1  0  0  0  0
 27 29  1  0  0  0  0
 27 30  1  0  0  0  0
 25 26  1  0  0  0  0
 25 27  1  0  0  0  0
M  CHG  1  15   1
M  END
$$$$
default_name
  -OEChem-02102213163D

 30 30  0     1  0  0  0  0  0999 V2000
   -3.5507   -3.2183    1.8116 H   0  0  0  0  0  0  0  0  0  0  0  0
   -3.4597   -2.3913    1.1076 C   0  0  0  0  0  0  0  0  0  0  0  0
   -4.1577   -1.6043    1.3866 H   0  0  0  0  0  0  0  0  0  0  0  0
   -3.6807   -2.7523    0.1036 H   0  0  0  0  0  0  0  0  0  0  0  0
   -2.0477   -1.8543    1.1546 C   0  0  0  0  0  0  0  0  0  0  0  0
   -1.2227   -2.3443    1.9146 O   0  0  0  0  0  0  0  0  0  0  0  0
   -1.7517   -0.8483    0.3266 N   0  0  0  0  0  0  0  0  0  0  0  0
   -2.4847   -0.5123   -0.2804 H   0  0  0  0  0  0  0  0  0  0  0  0
   -0.4117   -0.2463    0.2186 C   0  0  1  0  0  0  0  0  0  0  0  0
    0.1554   -0.5152    1.1133 H   0  0  0  0  0  0  0  0  0  0  0  0
    0.3164   -0.8780   -0.9905 C   0  0  0  0  0  0  0  0  0  0  0  0
    0.5977   -0.0806   -1.6830 H   0  0  0  0  0  0  0  0  0  0  0  0
    1.2418   -1.3431   -0.6442 H   0  0  0  0  0  0  0  0  0  0  0  0
   -0.4790   -1.9200   -1.7480 C   0  0  0  0  0  0  0  0  0  0  0  0
   -1.7630   -2.3251   -1.4384 N   0  3  0  0  0  0  0  0  0  0  0  0
   -2.3245   -1.9027   -0.6935 H   0  0  0  0  0  0  0  0  0  0  0  0
   -2.1396   -3.2638   -2.3292 C   0  0  0  0  0  0  0  0  0  0  0  0
   -3.1070   -3.7617   -2.3479 H   0  0  0  0  0  0  0  0  0  0  0  0
   -1.1220   -3.4641   -3.1969 N   0  0  0  0  0  0  0  0  0  0  0  0
   -1.1232   -4.1141   -3.9786 H   0  0  0  0  0  0  0  0  0  0  0  0
   -0.0710   -2.6281   -2.8460 C   0  0  0  0  0  0  0  0  0  0  0  0
    0.8926   -2.5438   -3.3409 H   0  0  0  0  0  0  0  0  0  0  0  0
   -0.4874    1.2908    0.1962 C   0  0  0  0  0  0  0  0  0  0  0  0
   -1.3116    1.8673   -0.5151 O   0  0  0  0  0  0  0  0  0  0  0  0
    0.3889    1.9422    0.9708 N   0  0  0  0  0  0  0  0  0  0  0  0
    1.0197    1.3866    1.5283 H   0  0  0  0  0  0  0  0  0  0  0  0
    0.5081    3.3999    1.0720 C   0  0  0  0  0  0  0  0  0  0  0  0
    0.0188    3.7538    1.9817 H   0  0  0  0  0  0  0  0  0  0  0  0
    1.5607    3.6858    1.1098 H   0  0  0  0  0  0  0  0  0  0  0  0
    0.0459    3.8890    0.2119 H   0  0  0  0  0  0  0  0  0  0  0  0
  5  6  2  0  0  0  0
  5  7  1  0  0  0  0
  2  3  1  0  0  0  0
  2  4  1  0  0  0  0
  2  5  1  0  0  0  0
  1  2  1  0  0  0  0
 23 24  2  0  0  0  0
 23 25  1  0  0  0  0
 21 22  1  0  0  0  0
 19 20  1  0  0  0  0
 19 21  1  0  0  0  0
 17 18  1  0  0  0  0
 17 19  1  0  0  0  0
 15 16  1  0  0  0  0
 15 17  2  0  0  0  0
 14 15  1  0  0  0  0
 14 21  2  0  0  0  0
 11 12  1  0  0  0  0
 11 13  1  0  0  0  0
 11 14  1  0  0  0  0
  9 10  1  0  0  0  0
  9 11  1  0  0  0  0
  9 23  1  0  0  0  0
  7  8  1  0  0  0  0
  7  9  1  0  0  0  0
 27 28  1  0  0  0  0
 27 29  1  0  0  0  0
 27 30  1  0  0  0  0
 25 26  1  0  0  0  0
 25 27  1  0  0  0  0
M  CHG  1  15   1
M  END
$$$$
default_name
  -OEChem-02102213163D

 30 30  0     1  0  0  0  0  0999 V2000
   -3.5507   -3.2183    1.8116 H   0  0  0  0  0  0  0  0  0  0  0  0
   -3.4597   -2.3913    1.1076 C   0  0  0  0  0  0  0  0  0  0  0  0
   -4.1577   -1.6043    1.3866 H   0  0  0  0  0  0  0  0  0  0  0  0
   -3.6807   -2.7523    0.1036 H   0  0  0  0  0  0  0  0  0  0  0  0
   -2.0477   -1.8543    1.1546 C   0  0  0  0  0  0  0  0  0  0  0  0
   -1.2227   -2.3443    1.9146 O   0  0  0  0  0  0  0  0  0  0  0  0
   -1.7517   -0.8483    0.3266 N   0  0  0  0  0  0  0  0  0  0  0  0
   -2.4847   -0.5123   -0.2804 H   0  0  0  0  0  0  0  0  0  0  0  0
   -0.4117   -0.2463    0.2186 C   0  0  1  0  0  0  0  0  0  0  0  0
    0.1554   -0.5152    1.1133 H   0  0  0  0  0  0  0  0  0  0  0  0
    0.3164   -0.8780   -0.9905 C   0  0  0  0  0  0  0  0  0  0  0  0
    0.5977   -0.0806   -1.6830 H   0  0  0  0  0  0  0  0  0  0  0  0
    1.2418   -1.3431   -0.6442 H   0  0  0  0  0  0  0  0  0  0  0  0
   -0.4790   -1.9200   -1.7480 C   0  0  0  0  0  0  0  0  0  0  0  0
   -1.8411   -2.1217   -1.6362 N   0  3  0  0  0  0  0  0  0  0  0  0
   -2.4550   -1.5311   -1.0678 H   0  0  0  0  0  0  0  0  0  0  0  0
   -2.1909   -3.1310   -2.4581 C   0  0  0  0  0  0  0  0  0  0  0  0
   -3.2019   -3.5093   -2.5955 H   0  0  0  0  0  0  0  0  0  0  0  0
   -1.0800   -3.5751   -3.0883 N   0  0  0  0  0  0  0  0  0  0  0  0
   -1.0411   -4.3287   -3.7695 H   0  0  0  0  0  0  0  0  0  0  0  0
    0.0043   -2.8254   -2.6537 C   0  0  0  0  0  0  0  0  0  0  0  0
    1.0398   -2.9286   -2.9661 H   0  0  0  0  0  0  0  0  0  0  0  0
   -0.4874    1.2908    0.1962 C   0  0  0  0  0  0  0  0  0  0  0  0
   -1.3116    1.8673   -0.5151 O   0  0  0  0  0  0  0  0  0  0  0  0
    0.3889    1.9422    0.9708 N   0  0  0  0  0  0  0  0  0  0  0  0
    1.0197    1.3866    1.5283 H   0  0  0  0  0  0  0  0  0  0  0  0
    0.5081    3.3999    1.0720 C   0  0  0  0  0  0  0  0  0  0  0  0
    0.0188    3.7538    1.9817 H   0  0  0  0  0  0  0  0  0  0  0  0
    1.5607    3.6858    1.1098 H   0  0  0  0  0  0  0  0  0  0  0  0
    0.0459    3.8890    0.2119 H   0  0  0  0  0  0  0  0  0  0  0  0
  5  6  2  0  0  0  0
  5  7  1  0  0  0  0
  2  3  1  0  0  0  0
  2  4  1  0  0  0  0
  2  5  1  0  0  0  0
  1  2  1  0  0  0  0
 23 24  2  0  0  0  0
 23 25  1  0  0  0  0
 21 22  1  0  0  0  0
 19 20  1  0  0  0  0
 19 21  1  0  0  0  0
 17 18  1  0  0  0  0
 17 19  1  0  0  0  0
 15 16  1  0  0  0  0
 15 17  2  0  0  0  0
 14 15  1  0  0  0  0
 14 21  2  0  0  0  0
 11 12  1  0  0  0  0
 11 13  1  0  0  0  0
 11 14  1  0  0  0  0
  9 10  1  0  0  0  0
  9 11  1  0  0  0  0
  9 23  1  0  0  0  0
  7  8  1  0  0  0  0
  7  9  1  0  0  0  0
 27 28  1  0  0  0  0
 27 29  1  0  0  0  0
 27 30  1  0  0  0  0
 25 26  1  0  0  0  0
 25 27  1  0  0  0  0
M  CHG  1  15   1
M  END
$$$$
default_name
  -OEChem-02102213163D

 30 30  0     1  0  0  0  0  0999 V2000
   -3.5507   -3.2183    1.8116 H   0  0  0  0  0  0  0  0  0  0  0  0
   -3.4597   -2.3913    1.1076 C   0  0  0  0  0  0  0  0  0  0  0  0
   -4.1577   -1.6043    1.3866 H   0  0  0  0  0  0  0  0  0  0  0  0
   -3.6807   -2.7523    0.1036 H   0  0  0  0  0  0  0  0  0  0  0  0
   -2.0477   -1.8543    1.1546 C   0  0  0  0  0  0  0  0  0  0  0  0
   -1.2227   -2.3443    1.9146 O   0  0  0  0  0  0  0  0  0  0  0  0
   -1.7517   -0.8483    0.3266 N   0  0  0  0  0  0  0  0  0  0  0  0
   -2.4847   -0.5123   -0.2804 H   0  0  0  0  0  0  0  0  0  0  0  0
   -0.4117   -0.2463    0.2186 C   0  0  1  0  0  0  0  0  0  0  0  0
    0.1554   -0.5152    1.1133 H   0  0  0  0  0  0  0  0  0  0  0  0
    0.3164   -0.8780   -0.9905 C   0  0  0  0  0  0  0  0  0  0  0  0
    0.5977   -0.0806   -1.6830 H   0  0  0  0  0  0  0  0  0  0  0  0
    1.2418   -1.3431   -0.6442 H   0  0  0  0  0  0  0  0  0  0  0  0
   -0.4790   -1.9200   -1.7480 C   0  0  0  0  0  0  0  0  0  0  0  0
   -1.8550   -1.9419   -1.8689 N   0  3  0  0  0  0  0  0  0  0  0  0
   -2.4661   -1.2060   -1.5032 H   0  0  0  0  0  0  0  0  0  0  0  0
   -2.2002   -3.0136   -2.6098 C   0  0  0  0  0  0  0  0  0  0  0  0
   -3.2167   -3.2870   -2.8858 H   0  0  0  0  0  0  0  0  0  0  0  0
   -1.0731   -3.6729   -2.9609 N   0  0  0  0  0  0  0  0  0  0  0  0
   -1.0268   -4.5182   -3.5238 H   0  0  0  0  0  0  0  0  0  0  0  0
    0.0172   -2.9996   -2.4277 C   0  0  0  0  0  0  0  0  0  0  0  0
    1.0653   -3.2684   -2.5255 H   0  0  0  0  0  0  0  0  0  0  0  0
   -0.4874    1.2908    0.1962 C   0  0  0  0  0  0  0  0  0  0  0  0
   -1.3116    1.8673   -0.5151 O   0  0  0  0  0  0  0  0  0  0  0  0
    0.3889    1.9422    0.9708 N   0  0  0  0  0  0  0  0  0  0  0  0
    1.0197    1.3866    1.5283 H   0  0  0  0  0  0  0  0  0  0  0  0
    0.5081    3.3999    1.0720 C   0  0  0  0  0  0  0  0  0  0  0  0
    0.0188    3.7538    1.9817 H   0  0  0  0  0  0  0  0  0  0  0  0
    1.5607    3.6858    1.1098 H   0  0  0  0  0  0  0  0  0  0  0  0
    0.0459    3.8890    0.2119 H   0  0  0  0  0  0  0  0  0  0  0  0
  5  6  2  0  0  0  0
  5  7  1  0  0  0  0
  2  3  1  0  0  0  0
  2  4  1  0  0  0  0
  2  5  1  0  0  0  0
  1  2  1  0  0  0  0
 23 24  2  0  0  0  0
 23 25  1  0  0  0  0
 21 22  1  0  0  0  0
 19 20  1  0  0  0  0
 19 21  1  0  0  0  0
 17 18  1  0  0  0  0
 17 19  1  0  0  0  0
 15 16  1  0  0  0  0
 15 17  2  0  0  0  0
 14 15  1  0  0  0  0
 14 21  2  0  0  0  0
 11 12  1  0  0  0  0
 11 13  1  0  0  0  0
 11 14  1  0  0  0  0
  9 10  1  0  0  0  0
  9 11  1  0  0  0  0
  9 23  1  0  0  0  0
  7  8  1  0  0  0  0
  7  9  1  0  0  0  0
 27 28  1  0  0  0  0
 27 29  1  0  0  0  0
 27 30  1  0  0  0  0
 25 26  1  0  0  0  0
 25 27  1  0  0  0  0
M  CHG  1  15   1
M  END
$$$$
default_name
  -OEChem-02102213163D

 30 30  0     1  0  0  0  0  0999 V2000
   -3.5507   -3.2183    1.8116 H   0  0  0  0  0  0  0  0  0  0  0  0
   -3.4597   -2.3913    1.1076 C   0  0  0  0  0  0  0  0  0  0  0  0
   -4.1577   -1.6043    1.3866 H   0  0  0  0  0  0  0  0  0  0  0  0
   -3.6807   -2.7523    0.1036 H   0  0  0  0  0  0  0  0  0  0  0  0
   -2.0477   -1.8543    1.1546 C   0  0  0  0  0  0  0  0  0  0  0  0
   -1.2227   -2.3443    1.9146 O   0  0  0  0  0  0  0  0  0  0  0  0
   -1.7517   -0.8483    0.3266 N   0  0  0  0  0  0  0  0  0  0  0  0
   -2.4847   -0.5123   -0.2804 H   0  0  0  0  0  0  0  0  0  0  0  0
   -0.4117   -0.2463    0.2186 C   0  0  1  0  0  0  0  0  0  0  0  0
    0.1554   -0.5152    1.1133 H   0  0  0  0  0  0  0  0  0  0  0  0
    0.3164   -0.8780   -0.9905 C   0  0  0  0  0  0  0  0  0  0  0  0
    0.5977   -0.0806   -1.6830 H   0  0  0  0  0  0  0  0  0  0  0  0
    1.2418   -1.3431   -0.6442 H   0  0  0  0  0  0  0  0  0  0  0  0
   -0.4790   -1.9200   -1.7480 C   0  0  0  0  0  0  0  0  0  0  0  0
   -1.8037   -1.7982   -2.1205 N   0  3  0  0  0  0  0  0  0  0  0  0
   -2.3573   -0.9499   -1.9699 H   0  0  0  0  0  0  0  0  0  0  0  0
   -2.1671   -2.9196   -2.7740 C   0  0  0  0  0  0  0  0  0  0  0  0
   -3.1505   -3.1097   -3.1991 H   0  0  0  0  0  0  0  0  0  0  0  0
   -1.1018   -3.7510   -2.8233 N   0  0  0  0  0  0  0  0  0  0  0  0
   -1.0813   -4.6697   -3.2581 H   0  0  0  0  0  0  0  0  0  0  0  0
   -0.0332   -3.1387   -2.1833 C   0  0  0  0  0  0  0  0  0  0  0  0
    0.9676   -3.5400   -2.0492 H   0  0  0  0  0  0  0  0  0  0  0  0
   -0.4874    1.2908    0.1962 C   0  0  0  0  0  0  0  0  0  0  0  0
   -1.3116    1.8673   -0.5151 O   0  0  0  0  0  0  0  0  0  0  0  0
    0.3889    1.9422    0.9708 N   0  0  0  0  0  0  0  0  0  0  0  0
    1.0197    1.3866    1.5283 H   0  0  0  0  0  0  0  0  0  0  0  0
    0.5081    3.3999    1.0720 C   0  0  0  0  0  0  0  0  0  0  0  0
    0.0188    3.7538    1.9817 H   0  0  0  0  0  0  0  0  0  0  0  0
    1.5607    3.6858    1.1098 H   0  0  0  0  0  0  0  0  0  0  0  0
    0.0459    3.8890    0.2119 H   0  0  0  0  0  0  0  0  0  0  0  0
  5  6  2  0  0  0  0
  5  7  1  0  0  0  0
  2  3  1  0  0  0  0
  2  4  1  0  0  0  0
  2  5  1  0  0  0  0
  1  2  1  0  0  0  0
 23 24  2  0  0  0  0
 23 25  1  0  0  0  0
 21 22  1  0  0  0  0
 19 20  1  0  0  0  0
 19 21  1  0  0  0  0
 17 18  1  0  0  0  0
 17 19  1  0  0  0  0
 15 16  1  0  0  0  0
 15 17  2  0  0  0  0
 14 15  1  0  0  0  0
 14 21  2  0  0  0  0
 11 12  1  0  0  0  0
 11 13  1  0  0  0  0
 11 14  1  0  0  0  0
  9 10  1  0  0  0  0
  9 11  1  0  0  0  0
  9 23  1  0  0  0  0
  7  8  1  0  0  0  0
  7  9  1  0  0  0  0
 27 28  1  0  0  0  0
 27 29  1  0  0  0  0
 27 30  1  0  0  0  0
 25 26  1  0  0  0  0
 25 27  1  0  0  0  0
M  CHG  1  15   1
M  END
$$$$
default_name
  -OEChem-02102213163D

 30 30  0     1  0  0  0  0  0999 V2000
   -3.5507   -3.2183    1.8116 H   0  0  0  0  0  0  0  0  0  0  0  0
   -3.4597   -2.3913    1.1076 C   0  0  0  0  0  0  0  0  0  0  0  0
   -4.1577   -1.6043    1.3866 H   0  0  0  0  0  0  0  0  0  0  0  0
   -3.6807   -2.7523    0.1036 H   0  0  0  0  0  0  0  0  0  0  0  0
   -2.0477   -1.8543    1.1546 C   0  0  0  0  0  0  0  0  0  0  0  0
   -1.2227   -2.3443    1.9146 O   0  0  0  0  0  0  0  0  0  0  0  0
   -1.7517   -0.8483    0.3266 N   0  0  0  0  0  0  0  0  0  0  0  0
   -2.4847   -0.5123   -0.2804 H   0  0  0  0  0  0  0  0  0  0  0  0
   -0.4117   -0.2463    0.2186 C   0  0  1  0  0  0  0  0  0  0  0  0
    0.1554   -0.5152    1.1133 H   0  0  0  0  0  0  0  0  0  0  0  0
    0.3164   -0.8780   -0.9905 C   0  0  0  0  0  0  0  0  0  0  0  0
    0.5977   -0.0806   -1.6830 H   0  0  0  0  0  0  0  0  0  0  0  0
    1.2418   -1.3431   -0.6442 H   0  0  0  0  0  0  0  0  0  0  0  0
   -0.4790   -1.9200   -1.7480 C   0  0  0  0  0  0  0  0  0  0  0  0
   -1.6907   -1.7002   -2.3740 N   0  3  0  0  0  0  0  0  0  0  0  0
   -2.1358   -0.7800   -2.4362 H   0  0  0  0  0  0  0  0  0  0  0  0
   -2.0936   -2.8554   -2.9394 C   0  0  0  0  0  0  0  0  0  0  0  0
   -3.0078   -2.9897   -3.5140 H   0  0  0  0  0  0  0  0  0  0  0  0
   -1.1642   -3.8041   -2.6849 N   0  0  0  0  0  0  0  0  0  0  0  0
   -1.2009   -4.7729   -2.9906 H   0  0  0  0  0  0  0  0  0  0  0  0
   -0.1433   -3.2334   -1.9374 C   0  0  0  0  0  0  0  0  0  0  0  0
    0.7531   -3.7249   -1.5696 H   0  0  0  0  0  0  0  0  0  0  0  0
   -0.4874    1.2908    0.1962 C   0  0  0  0  0  0  0  0  0  0  0  0
   -1.3116    1.8673   -0.5151 O   0  0  0  0  0  0  0  0  0  0  0  0
    0.3889    1.9422    0.9708 N   0  0  0  0  0  0  0  0  0  0  0  0
    1.0197    1.3866    1.5283 H   0  0  0  0  0  0  0  0  0  0  0  0
    0.5081    3.3999    1.0720 C   0  0  0  0  0  0  0  0  0  0  0  0
    0.0188    3.7538    1.9817 H   0  0  0  0  0  0  0  0  0  0  0  0
    1.5607    3.6858    1.1098 H   0  0  0  0  0  0  0  0  0  0  0  0
    0.0459    3.8890    0.2119 H   0  0  0  0  0  0  0  0  0  0  0  0
  5  6  2  0  0  0  0
  5  7  1  0  0  0  0
  2  3  1  0  0  0  0
  2  4  1  0  0  0  0
  2  5  1  0  0  0  0
  1  2  1  0  0  0  0
 23 24  2  0  0  0  0
 23 25  1  0  0  0  0
 21 22  1  0  0  0  0
 19 20  1  0  0  0  0
 19 21  1  0  0  0  0
 17 18  1  0  0  0  0
 17 19  1  0  0  0  0
 15 16  1  0  0  0  0
 15 17  2  0  0  0  0
 14 15  1  0  0  0  0
 14 21  2  0  0  0  0
 11 12  1  0  0  0  0
 11 13  1  0  0  0  0
 11 14  1  0  0  0  0
  9 10  1  0  0  0  0
  9 11  1  0  0  0  0
  9 23  1  0  0  0  0
  7  8  1  0  0  0  0
  7  9  1  0  0  0  0
 27 28  1  0  0  0  0
 27 29  1  0  0  0  0
 27 30  1  0  0  0  0
 25 26  1  0  0  0  0
 25 27  1  0  0  0  0
M  CHG  1  15   1
M  END
$$$$
default_name
  -OEChem-02102213163D

 30 30  0     1  0  0  0  0  0999 V2000
   -3.5507   -3.2183    1.8116 H   0  0  0  0  0  0  0  0  0  0  0  0
   -3.4597   -2.3913    1.1076 C   0  0  0  0  0  0  0  0  0  0  0  0
   -4.1577   -1.6043    1.3866 H   0  0  0  0  0  0  0  0  0  0  0  0
   -3.6807   -2.7523    0.1036 H   0  0  0  0  0  0  0  0  0  0  0  0
   -2.0477   -1.8543    1.1546 C   0  0  0  0  0  0  0  0  0  0  0  0
   -1.2227   -2.3443    1.9146 O   0  0  0  0  0  0  0  0  0  0  0  0
   -1.7517   -0.8483    0.3266 N   0  0  0  0  0  0  0  0  0  0  0  0
   -2.4847   -0.5123   -0.2804 H   0  0  0  0  0  0  0  0  0  0  0  0
   -0.4117   -0.2463    0.2186 C   0  0  1  0  0  0  0  0  0  0  0  0
    0.1554   -0.5152    1.1133 H   0  0  0  0  0  0  0  0  0  0  0  0
    0.3164   -0.8780   -0.9905 C   0  0  0  0  0  0  0  0  0  0  0  0
    0.5977   -0.0806   -1.6830 H   0  0  0  0  0  0  0  0  0  0  0  0
    1.2418   -1.3431   -0.6442 H   0  0  0  0  0  0  0  0  0  0  0  0
   -0.4790   -1.9200   -1.7480 C   0  0  0  0  0  0  0  0  0  0  0  0
   -1.5238   -1.6546   -2.6120 N   0  3  0  0  0  0  0  0  0  0  0  0
   -1.8168   -0.7079   -2.8702 H   0  0  0  0  0  0  0  0  0  0  0  0
   -1.9849   -2.8254   -3.0948 C   0  0  0  0  0  0  0  0  0  0  0  0
   -2.7984   -2.9351   -3.8091 H   0  0  0  0  0  0  0  0  0  0  0  0
   -1.2560   -3.8284   -2.5551 N   0  0  0  0  0  0  0  0  0  0  0  0
   -1.3775   -4.8207   -2.7395 H   0  0  0  0  0  0  0  0  0  0  0  0
   -0.3058   -3.2772   -1.7066 C   0  0  0  0  0  0  0  0  0  0  0  0
    0.4366   -3.8106   -1.1194 H   0  0  0  0  0  0  0  0  0  0  0  0
   -0.4874    1.2908    0.1962 C   0  0  0  0  0  0  0  0  0  0  0  0
   -1.3116    1.8673   -0.5151 O   0  0  0  0  0  0  0  0  0  0  0  0
    0.3889    1.9422    0.9708 N   0  0  0  0  0  0  0  0  0  0  0  0
    1.0197    1.3866    1.5283 H   0  0  0  0  0  0  0  0  0  0  0  0
    0.5081    3.3999    1.0720 C   0  0  0  0  0  0  0  0  0  0  0  0
    0.0188    3.7538    1.9817 H   0  0  0  0  0  0  0  0  0  0  0  0
    1.5607    3.6858    1.1098 H   0  0  0  0  0  0  0  0  0  0  0  0
    0.0459    3.8890    0.2119 H   0  0  0  0  0  0  0  0  0  0  0  0
  5  6  2  0  0  0  0
  5  7  1  0  0  0  0
  2  3  1  0  0  0  0
  2  4  1  0  0  0  0
  2  5  1  0  0  0  0
  1  2  1  0  0  0  0
 23 24  2  0  0  0  0
 23 25  1  0  0  0  0
 21 22  1  0  0  0  0
 19 20  1  0  0  0  0
 19 21  1  0  0  0  0
 17 18  1  0  0  0  0
 17 19  1  0  0  0  0
 15 16  1  0  0  0  0
 15 17  2  0  0  0  0
 14 15  1  0  0  0  0
 14 21  2  0  0  0  0
 11 12  1  0  0  0  0
 11 13  1  0  0  0  0
 11 14  1  0  0  0  0
  9 10  1  0  0  0  0
  9 11  1  0  0  0  0
  9 23  1  0  0  0  0
  7  8  1  0  0  0  0
  7  9  1  0  0  0  0
 27 28  1  0  0  0  0
 27 29  1  0  0  0  0
 27 30  1  0  0  0  0
 25 26  1  0  0  0  0
 25 27  1  0  0  0  0
M  CHG  1  15   1
M  END
$$$$
default_name
  -OEChem-02102213163D

 30 30  0     1  0  0  0  0  0999 V2000
   -3.5507   -3.2183    1.8116 H   0  0  0  0  0  0  0  0  0  0  0  0
   -3.4597   -2.3913    1.1076 C   0  0  0  0  0  0  0  0  0  0  0  0
   -4.1577   -1.6043    1.3866 H   0  0  0  0  0  0  0  0  0  0  0  0
   -3.6807   -2.7523    0.1036 H   0  0  0  0  0  0  0  0  0  0  0  0
   -2.0477   -1.8543    1.1546 C   0  0  0  0  0  0  0  0  0  0  0  0
   -1.2227   -2.3443    1.9146 O   0  0  0  0  0  0  0  0  0  0  0  0
   -1.7517   -0.8483    0.3266 N   0  0  0  0  0  0  0  0  0  0  0  0
   -2.4847   -0.5123   -0.2804 H   0  0  0  0  0  0  0  0  0  0  0  0
   -0.4117   -0.2463    0.2186 C   0  0  1  0  0  0  0  0  0  0  0  0
    0.1554   -0.5152    1.1133 H   0  0  0  0  0  0  0  0  0  0  0  0
    0.3164   -0.8780   -0.9905 C   0  0  0  0  0  0  0  0  0  0  0  0
    0.5977   -0.0806   -1.6830 H   0  0  0  0  0  0  0  0  0  0  0  0
    1.2418   -1.3431   -0.6442 H   0  0  0  0  0  0  0  0  0  0  0  0
   -0.4790   -1.9200   -1.7480 C   0  0  0  0  0  0  0  0  0  0  0  0
   -1.3142   -1.6645   -2.8184 N   0  3  0  0  0  0  0  0  0  0  0  0
   -1.4221   -0.7387   -3.2424 H   0  0  0  0  0  0  0  0  0  0  0  0
   -1.8483   -2.8317   -3.2297 C   0  0  0  0  0  0  0  0  0  0  0  0
   -2.5364   -2.9495   -4.0643 H   0  0  0  0  0  0  0  0  0  0  0  0
   -1.3709   -3.8223   -2.4427 N   0  0  0  0  0  0  0  0  0  0  0  0
   -1.5989   -4.8098   -2.5219 H   0  0  0  0  0  0  0  0  0  0  0  0
   -0.5096   -3.2670   -1.5066 C   0  0  0  0  0  0  0  0  0  0  0  0
    0.0395   -3.7911   -0.7293 H   0  0  0  0  0  0  0  0  0  0  0  0
   -0.4874    1.2908    0.1962 C   0  0  0  0  0  0  0  0  0  0  0  0
   -1.3116    1.8673   -0.5151 O   0  0  0  0  0  0  0  0  0  0  0  0
    0.3889    1.9422    0.9708 N   0  0  0  0  0  0  0  0  0  0  0  0
    1.0197    1.3866    1.5283 H   0  0  0  0  0  0  0  0  0  0  0  0
    0.5081    3.3999    1.0720 C   0  0  0  0  0  0  0  0  0  0  0  0
    0.0188    3.7538    1.9817 H   0  0  0  0  0  0  0  0  0  0  0  0
    1.5607    3.6858    1.1098 H   0  0  0  0  0  0  0  0  0  0  0  0
    0.0459    3.8890    0.2119 H   0  0  0  0  0  0  0  0  0  0  0  0
  5  6  2  0  0  0  0
  5  7  1  0  0  0  0
  2  3  1  0  0  0  0
  2  4  1  0  0  0  0
  2  5  1  0  0  0  0
  1  2  1  0  0  0  0
 23 24  2  0  0  0  0
 23 25  1  0  0  0  0
 21 22  1  0  0  0  0
 19 20  1  0  0  0  0
 19 21  1  0  0  0  0
 17 18  1  0  0  0  0
 17 19  1  0  0  0  0
 15 16  1  0  0  0  0
 15 17  2  0  0  0  0
 14 15  1  0  0  0  0
 14 21  2  0  0  0  0
 11 12  1  0  0  0  0
 11 13  1  0  0  0  0
 11 14  1  0  0  0  0
  9 10  1  0  0  0  0
  9 11  1  0  0  0  0
  9 23  1  0  0  0  0
  7  8  1  0  0  0  0
  7  9  1  0  0  0  0
 27 28  1  0  0  0  0
 27 29  1  0  0  0  0
 27 30  1  0  0  0  0
 25 26  1  0  0  0  0
 25 27  1  0  0  0  0
M  CHG  1  15   1
M  END
$$$$
default_name
  -OEChem-02102213163D

 30 30  0     1  0  0  0  0  0999 V2000
   -3.5507   -3.2183    1.8116 H   0  0  0  0  0  0  0  0  0  0  0  0
   -3.4597   -2.3913    1.1076 C   0  0  0  0  0  0  0  0  0  0  0  0
   -4.1577   -1.6043    1.3866 H   0  0  0  0  0  0  0  0  0  0  0  0
   -3.6807   -2.7523    0.1036 H   0  0  0  0  0  0  0  0  0  0  0  0
   -2.0477   -1.8543    1.1546 C   0  0  0  0  0  0  0  0  0  0  0  0
   -1.2227   -2.3443    1.9146 O   0  0  0  0  0  0  0  0  0  0  0  0
   -1.7517   -0.8483    0.3266 N   0  0  0  0  0  0  0  0  0  0  0  0
   -2.4847   -0.5123   -0.2804 H   0  0  0  0  0  0  0  0  0  0  0  0
   -0.4117   -0.2463    0.2186 C   0  0  1  0  0  0  0  0  0  0  0  0
    0.1554   -0.5152    1.1133 H   0  0  0  0  0  0  0  0  0  0  0  0
    0.3164   -0.8780   -0.9905 C   0  0  0  0  0  0  0  0  0  0  0  0
    0.5977   -0.0806   -1.6830 H   0  0  0  0  0  0  0  0  0  0  0  0
    1.2418   -1.3431   -0.6442 H   0  0  0  0  0  0  0  0  0  0  0  0
   -0.4790   -1.9200   -1.7480 C   0  0  0  0  0  0  0  0  0  0  0  0
   -1.0763   -1.7294   -2.9790 N   0  3  0  0  0  0  0  0  0  0  0  0
   -0.9785   -0.8701   -3.5275 H   0  0  0  0  0  0  0  0  0  0  0  0
   -1.6931   -2.8738   -3.3347 C   0  0  0  0  0  0  0  0  0  0  0  0
   -2.2398   -3.0322   -4.2622 H   0  0  0  0  0  0  0  0  0  0  0  0
   -1.5011   -3.7863   -2.3555 N   0  0  0  0  0  0  0  0  0  0  0  0
   -1.8501   -4.7411   -2.3526 H   0  0  0  0  0  0  0  0  0  0  0  0
   -0.7407   -3.2036   -1.3512 C   0  0  0  0  0  0  0  0  0  0  0  0
   -0.4109   -3.6678   -0.4258 H   0  0  0  0  0  0  0  0  0  0  0  0
   -0.4874    1.2908    0.1962 C   0  0  0  0  0  0  0  0  0  0  0  0
   -1.3116    1.8673   -0.5151 O   0  0  0  0  0  0  0  0  0  0  0  0
    0.3889    1.9422    0.9708 N   0  0  0  0  0  0  0  0  0  0  0  0
    1.0197    1.3866    1.5283 H   0  0  0  0  0  0  0  0  0  0  0  0
    0.5081    3.3999    1.0720 C   0  0  0  0  0  0  0  0  0  0  0  0
    0.0188    3.7538    1.9817 H   0  0  0  0  0  0  0  0  0  0  0  0
    1.5607    3.6858    1.1098 H   0  0  0  0  0  0  0  0  0  0  0  0
    0.0459    3.8890    0.2119 H   0  0  0  0  0  0  0  0  0  0  0  0
  5  6  2  0  0  0  0
  5  7  1  0  0  0  0
  2  3  1  0  0  0  0
  2  4  1  0  0  0  0
  2  5  1  0  0  0  0
  1  2  1  0  0  0  0
 23 24  2  0  0  0  0
 23 25  1  0  0  0  0
 21 22  1  0  0  0  0
 19 20  1  0  0  0  0
 19 21  1  0  0  0  0
 17 18  1  0  0  0  0
 17 19  1  0  0  0  0
 15 16  1  0  0  0  0
 15 17  2  0  0  0  0
 14 15  1  0  0  0  0
 14 21  2  0  0  0  0
 11 12  1  0  0  0  0
 11 13  1  0  0  0  0
 11 14  1  0  0  0  0
  9 10  1  0  0  0  0
  9 11  1  0  0  0  0
  9 23  1  0  0  0  0
  7  8  1  0  0  0  0
  7  9  1  0  0  0  0
 27 28  1  0  0  0  0
 27 29  1  0  0  0  0
 27 30  1  0  0  0  0
 25 26  1  0  0  0  0
 25 27  1  0  0  0  0
M  CHG  1  15   1
M  END
$$$$
default_name
  -OEChem-02102213163D

 30 30  0     1  0  0  0  0  0999 V2000
   -3.5507   -3.2183    1.8116 H   0  0  0  0  0  0  0  0  0  0  0  0
   -3.4597   -2.3913    1.1076 C   0  0  0  0  0  0  0  0  0  0  0  0
   -4.1577   -1.6043    1.3866 H   0  0  0  0  0  0  0  0  0  0  0  0
   -3.6807   -2.7523    0.1036 H   0  0  0  0  0  0  0  0  0  0  0  0
   -2.0477   -1.8543    1.1546 C   0  0  0  0  0  0  0  0  0  0  0  0
   -1.2227   -2.3443    1.9146 O   0  0  0  0  0  0  0  0  0  0  0  0
   -1.7517   -0.8483    0.3266 N   0  0  0  0  0  0  0  0  0  0  0  0
   -2.4847   -0.5123   -0.2804 H   0  0  0  0  0  0  0  0  0  0  0  0
   -0.4117   -0.2463    0.2186 C   0  0  1  0  0  0  0  0  0  0  0  0
    0.1554   -0.5152    1.1133 H   0  0  0  0  0  0  0  0  0  0  0  0
    0.3164   -0.8780   -0.9905 C   0  0  0  0  0  0  0  0  0  0  0  0
    0.5977   -0.0806   -1.6830 H   0  0  0  0  0  0  0  0  0  0  0  0
    1.2418   -1.3431   -0.6442 H   0  0  0  0  0  0  0  0  0  0  0  0
   -0.4790   -1.9200   -1.7480 C   0  0  0  0  0  0  0  0  0  0  0  0
   -0.8262   -1.8446   -3.0830 N   0  3  0  0  0  0  0  0  0  0  0  0
   -0.5162   -1.0932   -3.7059 H   0  0  0  0  0  0  0  0  0  0  0  0
   -1.5300   -2.9488   -3.4028 C   0  0  0  0  0  0  0  0  0  0  0  0
   -1.9287   -3.1773   -4.3892 H   0  0  0  0  0  0  0  0  0  0  0  0
   -1.6378   -3.7228   -2.2994 N   0  0  0  0  0  0  0  0  0  0  0  0
   -2.1141   -4.6192   -2.2432 H   0  0  0  0  0  0  0  0  0  0  0  0
   -0.9834   -3.0913   -1.2508 C   0  0  0  0  0  0  0  0  0  0  0  0
   -0.8841   -3.4492   -0.2297 H   0  0  0  0  0  0  0  0  0  0  0  0
   -0.4874    1.2908    0.1962 C   0  0  0  0  0  0  0  0  0  0  0  0
   -1.3116    1.8673   -0.5151 O   0  0  0  0  0  0  0  0  0  0  0  0
    0.3889    1.9422    0.9708 N   0  0  0  0  0  0  0  0  0  0  0  0
    1.0197    1.3866    1.5283 H   0  0  0  0  0  0  0  0  0  0  0  0
    0.5081    3.3999    1.0720 C   0  0  0  0  0  0  0  0  0  0  0  0
    0.0188    3.7538    1.9817 H   0  0  0  0  0  0  0  0  0  0  0  0
    1.5607    3.6858    1.1098 H   0  0  0  0  0  0  0  0  0  0  0  0
    0.0459    3.8890    0.2119 H   0  0  0  0  0  0  0  0  0  0  0  0
  5  6  2  0  0  0  0
  5  7  1  0  0  0  0
  2  3  1  0  0  0  0
  2  4  1  0  0  0  0
  2  5  1  0  0  0  0
  1  2  1  0  0  0  0
 23 24  2  0  0  0  0
 23 25  1  0  0  0  0
 21 22  1  0  0  0  0
 19 20  1  0  0  0  0
 19 21  1  0  0  0  0
 17 18  1  0  0  0  0
 17 19  1  0  0  0  0
 15 16  1  0  0  0  0
 15 17  2  0  0  0  0
 14 15  1  0  0  0  0
 14 21  2  0  0  0  0
 11 12  1  0  0  0  0
 11 13  1  0  0  0  0
 11 14  1  0  0  0  0
  9 10  1  0  0  0  0
  9 11  1  0  0  0  0
  9 23  1  0  0  0  0
  7  8  1  0  0  0  0
  7  9  1  0  0  0  0
 27 28  1  0  0  0  0
 27 29  1  0  0  0  0
 27 30  1  0  0  0  0
 25 26  1  0  0  0  0
 25 27  1  0  0  0  0
M  CHG  1  15   1
M  END
$$$$
default_name
  -OEChem-02102213163D

 30 30  0     1  0  0  0  0  0999 V2000
   -3.5507   -3.2183    1.8116 H   0  0  0  0  0  0  0  0  0  0  0  0
   -3.4597   -2.3913    1.1076 C   0  0  0  0  0  0  0  0  0  0  0  0
   -4.1577   -1.6043    1.3866 H   0  0  0  0  0  0  0  0  0  0  0  0
   -3.6807   -2.7523    0.1036 H   0  0  0  0  0  0  0  0  0  0  0  0
   -2.0477   -1.8543    1.1546 C   0  0  0  0  0  0  0  0  0  0  0  0
   -1.2227   -2.3443    1.9146 O   0  0  0  0  0  0  0  0  0  0  0  0
   -1.7517   -0.8483    0.3266 N   0  0  0  0  0  0  0  0  0  0  0  0
   -2.4847   -0.5123   -0.2804 H   0  0  0  0  0  0  0  0  0  0  0  0
   -0.4117   -0.2463    0.2186 C   0  0  1  0  0  0  0  0  0  0  0  0
    0.1554   -0.5152    1.1133 H   0  0  0  0  0  0  0  0  0  0  0  0
    0.3164   -0.8780   -0.9905 C   0  0  0  0  0  0  0  0  0  0  0  0
    0.5977   -0.0806   -1.6830 H   0  0  0  0  0  0  0  0  0  0  0  0
    1.2418   -1.3431   -0.6442 H   0  0  0  0  0  0  0  0  0  0  0  0
   -0.4790   -1.9200   -1.7480 C   0  0  0  0  0  0  0  0  0  0  0  0
   -0.5811   -2.0025   -3.1232 N   0  3  0  0  0  0  0  0  0  0  0  0
   -0.0668   -1.3929   -3.7656 H   0  0  0  0  0  0  0  0  0  0  0  0
   -1.3700   -3.0516   -3.4294 C   0  0  0  0  0  0  0  0  0  0  0  0
   -1.6244   -3.3750   -4.4367 H   0  0  0  0  0  0  0  0  0  0  0  0
   -1.7716   -3.6361   -2.2781 N   0  0  0  0  0  0  0  0  0  0  0  0
   -2.3727   -4.4523   -2.2011 H   0  0  0  0  0  0  0  0  0  0  0  0
   -1.2211   -2.9378   -1.2123 C   0  0  0  0  0  0  0  0  0  0  0  0
   -1.3479   -3.1500   -0.1543 H   0  0  0  0  0  0  0  0  0  0  0  0
   -0.4874    1.2908    0.1962 C   0  0  0  0  0  0  0  0  0  0  0  0
   -1.3116    1.8673   -0.5151 O   0  0  0  0  0  0  0  0  0  0  0  0
    0.3889    1.9422    0.9708 N   0  0  0  0  0  0  0  0  0  0  0  0
    1.0197    1.3866    1.5283 H   0  0  0  0  0  0  0  0  0  0  0  0
    0.5081    3.3999    1.0720 C   0  0  0  0  0  0  0  0  0  0  0  0
    0.0188    3.7538    1.9817 H   0  0  0  0  0  0  0  0  0  0  0  0
    1.5607    3.6858    1.1098 H   0  0  0  0  0  0  0  0  0  0  0  0
    0.0459    3.8890    0.2119 H   0  0  0  0  0  0  0  0  0  0  0  0
  5  6  2  0  0  0  0
  5  7  1  0  0  0  0
  2  3  1  0  0  0  0
  2  4  1  0  0  0  0
  2  5  1  0  0  0  0
  1  2  1  0  0  0  0
 23 24  2  0  0  0  0
 23 25  1  0  0  0  0
 21 22  1  0  0  0  0
 19 20  1  0  0  0  0
 19 21  1  0  0  0  0
 17 18  1  0  0  0  0
 17 19  1  0  0  0  0
 15 16  1  0  0  0  0
 15 17  2  0  0  0  0
 14 15  1  0  0  0  0
 14 21  2  0  0  0  0
 11 12  1  0  0  0  0
 11 13  1  0  0  0  0
 11 14  1  0  0  0  0
  9 10  1  0  0  0  0
  9 11  1  0  0  0  0
  9 23  1  0  0  0  0
  7  8  1  0  0  0  0
  7  9  1  0  0  0  0
 27 28  1  0  0  0  0
 27 29  1  0  0  0  0
 27 30  1  0  0  0  0
 25 26  1  0  0  0  0
 25 27  1  0  0  0  0
M  CHG  1  15   1
M  END
$$$$
default_name
  -OEChem-02102213163D

 30 30  0     1  0  0  0  0  0999 V2000
   -3.5507   -3.2183    1.8116 H   0  0  0  0  0  0  0  0  0  0  0  0
   -3.4597   -2.3913    1.1076 C   0  0  0  0  0  0  0  0  0  0  0  0
   -4.1577   -1.6043    1.3866 H   0  0  0  0  0  0  0  0  0  0  0  0
   -3.6807   -2.7523    0.1036 H   0  0  0  0  0  0  0  0  0  0  0  0
   -2.0477   -1.8543    1.1546 C   0  0  0  0  0  0  0  0  0  0  0  0
   -1.2227   -2.3443    1.9146 O   0  0  0  0  0  0  0  0  0  0  0  0
   -1.7517   -0.8483    0.3266 N   0  0  0  0  0  0  0  0  0  0  0  0
   -2.4847   -0.5123   -0.2804 H   0  0  0  0  0  0  0  0  0  0  0  0
   -0.4117   -0.2463    0.2186 C   0  0  1  0  0  0  0  0  0  0  0  0
    0.1554   -0.5152    1.1133 H   0  0  0  0  0  0  0  0  0  0  0  0
    0.3164   -0.8780   -0.9905 C   0  0  0  0  0  0  0  0  0  0  0  0
    0.5977   -0.0806   -1.6830 H   0  0  0  0  0  0  0  0  0  0  0  0
    1.2418   -1.3431   -0.6442 H   0  0  0  0  0  0  0  0  0  0  0  0
   -0.4790   -1.9200   -1.7480 C   0  0  0  0  0  0  0  0  0  0  0  0
   -0.3576   -2.1921   -3.0970 N   0  3  0  0  0  0  0  0  0  0  0  0
    0.3391   -1.7486   -3.7024 H   0  0  0  0  0  0  0  0  0  0  0  0
   -1.2240   -3.1753   -3.4125 C   0  0  0  0  0  0  0  0  0  0  0  0
   -1.3476   -3.6118   -4.4016 H   0  0  0  0  0  0  0  0  0  0  0  0
   -1.8934   -3.5322   -2.2932 N   0  0  0  0  0  0  0  0  0  0  0  0
   -2.6085   -4.2520   -2.2293 H   0  0  0  0  0  0  0  0  0  0  0  0
   -1.4378   -2.7534   -1.2384 C   0  0  0  0  0  0  0  0  0  0  0  0
   -1.7705   -2.7908   -0.2048 H   0  0  0  0  0  0  0  0  0  0  0  0
   -0.4874    1.2908    0.1962 C   0  0  0  0  0  0  0  0  0  0  0  0
   -1.3116    1.8673   -0.5151 O   0  0  0  0  0  0  0  0  0  0  0  0
    0.3889    1.9422    0.9708 N   0  0  0  0  0  0  0  0  0  0  0  0
    1.0197    1.3866    1.5283 H   0  0  0  0  0  0  0  0  0  0  0  0
    0.5081    3.3999    1.0720 C   0  0  0  0  0  0  0  0  0  0  0  0
    0.0188    3.7538    1.9817 H   0  0  0  0  0  0  0  0  0  0  0  0
    1.5607    3.6858    1.1098 H   0  0  0  0  0  0  0  0  0  0  0  0
    0.0459    3.8890    0.2119 H   0  0  0  0  0  0  0  0  0  0  0  0
  5  6  2  0  0  0  0
  5  7  1  0  0  0  0
  2  3  1  0  0  0  0
  2  4  1  0  0  0  0
  2  5  1  0  0  0  0
  1  2  1  0  0  0  0
 23 24  2  0  0  0  0
 23 25  1  0  0  0  0
 21 22  1  0  0  0  0
 19 20  1  0  0  0  0
 19 21  1  0  0  0  0
 17 18  1  0  0  0  0
 17 19  1  0  0  0  0
 15 16  1  0  0  0  0
 15 17  2  0  0  0  0
 14 15  1  0  0  0  0
 14 21  2  0  0  0  0
 11 12  1  0  0  0  0
 11 13  1  0  0  0  0
 11 14  1  0  0  0  0
  9 10  1  0  0  0  0
  9 11  1  0  0  0  0
  9 23  1  0  0  0  0
  7  8  1  0  0  0  0
  7  9  1  0  0  0  0
 27 28  1  0  0  0  0
 27 29  1  0  0  0  0
 27 30  1  0  0  0  0
 25 26  1  0  0  0  0
 25 27  1  0  0  0  0
M  CHG  1  15   1
M  END
$$$$
default_name
  -OEChem-02102213163D

 30 30  0     1  0  0  0  0  0999 V2000
   -3.5507   -3.2183    1.8116 H   0  0  0  0  0  0  0  0  0  0  0  0
   -3.4597   -2.3913    1.1076 C   0  0  0  0  0  0  0  0  0  0  0  0
   -4.1577   -1.6043    1.3866 H   0  0  0  0  0  0  0  0  0  0  0  0
   -3.6807   -2.7523    0.1036 H   0  0  0  0  0  0  0  0  0  0  0  0
   -2.0477   -1.8543    1.1546 C   0  0  0  0  0  0  0  0  0  0  0  0
   -1.2227   -2.3443    1.9146 O   0  0  0  0  0  0  0  0  0  0  0  0
   -1.7517   -0.8483    0.3266 N   0  0  0  0  0  0  0  0  0  0  0  0
   -2.4847   -0.5123   -0.2804 H   0  0  0  0  0  0  0  0  0  0  0  0
   -0.4117   -0.2463    0.2186 C   0  0  1  0  0  0  0  0  0  0  0  0
    0.1554   -0.5152    1.1133 H   0  0  0  0  0  0  0  0  0  0  0  0
    0.3164   -0.8780   -0.9905 C   0  0  0  0  0  0  0  0  0  0  0  0
    0.5977   -0.0806   -1.6830 H   0  0  0  0  0  0  0  0  0  0  0  0
    1.2418   -1.3431   -0.6442 H   0  0  0  0  0  0  0  0  0  0  0  0
   -0.4790   -1.9200   -1.7480 C   0  0  0  0  0  0  0  0  0  0  0  0
   -0.1710   -2.4007   -3.0060 N   0  3  0  0  0  0  0  0  0  0  0  0
    0.6739   -2.1362   -3.5207 H   0  0  0  0  0  0  0  0  0  0  0  0
   -1.1020   -3.3113   -3.3535 C   0  0  0  0  0  0  0  0  0  0  0  0
   -1.1171   -3.8716   -4.2861 H   0  0  0  0  0  0  0  0  0  0  0  0
   -1.9949   -3.4181   -2.3436 N   0  0  0  0  0  0  0  0  0  0  0  0
   -2.8052   -4.0317   -2.3257 H   0  0  0  0  0  0  0  0  0  0  0  0
   -1.6185   -2.5509   -1.3273 C   0  0  0  0  0  0  0  0  0  0  0  0
   -2.1232   -2.3959   -0.3777 H   0  0  0  0  0  0  0  0  0  0  0  0
   -0.4874    1.2908    0.1962 C   0  0  0  0  0  0  0  0  0  0  0  0
   -1.3116    1.8673   -0.5151 O   0  0  0  0  0  0  0  0  0  0  0  0
    0.3889    1.9422    0.9708 N   0  0  0  0  0  0  0  0  0  0  0  0
    1.0197    1.3866    1.5283 H   0  0  0  0  0  0  0  0  0  0  0  0
    0.5081    3.3999    1.0720 C   0  0  0  0  0  0  0  0  0  0  0  0
    0.0188    3.7538    1.9817 H   0  0  0  0  0  0  0  0  0  0  0  0
    1.5607    3.6858    1.1098 H   0  0  0  0  0  0  0  0  0  0  0  0
    0.0459    3.8890    0.2119 H   0  0  0  0  0  0  0  0  0  0  0  0
  5  6  2  0  0  0  0
  5  7  1  0  0  0  0
  2  3  1  0  0  0  0
  2  4  1  0  0  0  0
  2  5  1  0  0  0  0
  1  2  1  0  0  0  0
 23 24  2  0  0  0  0
 23 25  1  0  0  0  0
 21 22  1  0  0  0  0
 19 20  1  0  0  0  0
 19 21  1  0  0  0  0
 17 18  1  0  0  0  0
 17 19  1  0  0  0  0
 15 16  1  0  0  0  0
 15 17  2  0  0  0  0
 14 15  1  0  0  0  0
 14 21  2  0  0  0  0
 11 12  1  0  0  0  0
 11 13  1  0  0  0  0
 11 14  1  0  0  0  0
  9 10  1  0  0  0  0
  9 11  1  0  0  0  0
  9 23  1  0  0  0  0
  7  8  1  0  0  0  0
  7  9  1  0  0  0  0
 27 28  1  0  0  0  0
 27 29  1  0  0  0  0
 27 30  1  0  0  0  0
 25 26  1  0  0  0  0
 25 27  1  0  0  0  0
M  CHG  1  15   1
M  END
$$$$
default_name
  -OEChem-02102213163D

 30 30  0     1  0  0  0  0  0999 V2000
   -3.5507   -3.2183    1.8116 H   0  0  0  0  0  0  0  0  0  0  0  0
   -3.4597   -2.3913    1.1076 C   0  0  0  0  0  0  0  0  0  0  0  0
   -4.1577   -1.6043    1.3866 H   0  0  0  0  0  0  0  0  0  0  0  0
   -3.6807   -2.7523    0.1036 H   0  0  0  0  0  0  0  0  0  0  0  0
   -2.0477   -1.8543    1.1546 C   0  0  0  0  0  0  0  0  0  0  0  0
   -1.2227   -2.3443    1.9146 O   0  0  0  0  0  0  0  0  0  0  0  0
   -1.7517   -0.8483    0.3266 N   0  0  0  0  0  0  0  0  0  0  0  0
   -2.4847   -0.5123   -0.2804 H   0  0  0  0  0  0  0  0  0  0  0  0
   -0.4117   -0.2463    0.2186 C   0  0  1  0  0  0  0  0  0  0  0  0
    0.1554   -0.5152    1.1133 H   0  0  0  0  0  0  0  0  0  0  0  0
    0.3164   -0.8780   -0.9905 C   0  0  0  0  0  0  0  0  0  0  0  0
    0.8283   -0.0852   -1.5418 H   0  0  0  0  0  0  0  0  0  0  0  0
    1.0852   -1.5617   -0.6243 H   0  0  0  0  0  0  0  0  0  0  0  0
   -0.5724   -1.6402   -1.9504 C   0  0  0  0  0  0  0  0  0  0  0  0
   -0.1439   -2.2845   -3.0949 N   0  3  0  0  0  0  0  0  0  0  0  0
    0.8407   -2.3586   -3.3666 H   0  0  0  0  0  0  0  0  0  0  0  0
   -1.2129   -2.8484   -3.6915 C   0  0  0  0  0  0  0  0  0  0  0  0
   -1.1858   -3.4351   -4.6075 H   0  0  0  0  0  0  0  0  0  0  0  0
   -2.3107   -2.5751   -2.9509 N   0  0  0  0  0  0  0  0  0  0  0  0
   -3.2598   -2.8754   -3.1571 H   0  0  0  0  0  0  0  0  0  0  0  0
   -1.9262   -1.8168   -1.8537 C   0  0  0  0  0  0  0  0  0  0  0  0
   -2.5675   -1.4335   -1.0649 H   0  0  0  0  0  0  0  0  0  0  0  0
   -0.4874    1.2908    0.1962 C   0  0  0  0  0  0  0  0  0  0  0  0
   -1.3116    1.8673   -0.5151 O   0  0  0  0  0  0  0  0  0  0  0  0
    0.3889    1.9422    0.9708 N   0  0  0  0  0  0  0  0  0  0  0  0
    1.0197    1.3866    1.5283 H   0  0  0  0  0  0  0  0  0  0  0  0
    0.5081    3.3999    1.0720 C   0  0  0  0  0  0  0  0  0  0  0  0
    0.0188    3.7538    1.9817 H   0  0  0  0  0  0  0  0  0  0  0  0
    1.5607    3.6858    1.1098 H   0  0  0  0  0  0  0  0  0  0  0  0
    0.0459    3.8890    0.2119 H   0  0  0  0  0  0  0  0  0  0  0  0
  5  6  2  0  0  0  0
  5  7  1  0  0  0  0
  2  3  1  0  0  0  0
  2  4  1  0  0  0  0
  2  5  1  0  0  0  0
  1  2  1  0  0  0  0
 23 24  2  0  0  0  0
 23 25  1  0  0  0  0
 21 22  1  0  0  0  0
 19 20  1  0  0  0  0
 19 21  1  0  0  0  0
 17 18  1  0  0  0  0
 17 19  1  0  0  0  0
 15 16  1  0  0  0  0
 15 17  2  0  0  0  0
 14 15  1  0  0  0  0
 14 21  2  0  0  0  0
 11 12  1  0  0  0  0
 11 13  1  0  0  0  0
 11 14  1  0  0  0  0
  9 10  1  0  0  0  0
  9 11  1  0  0  0  0
  9 23  1  0  0  0  0
  7  8  1  0  0  0  0
  7  9  1  0  0  0  0
 27 28  1  0  0  0  0
 27 29  1  0  0  0  0
 27 30  1  0  0  0  0
 25 26  1  0  0  0  0
 25 27  1  0  0  0  0
M  CHG  1  15   1
M  END
$$$$
default_name
  -OEChem-02102213163D

 30 30  0     1  0  0  0  0  0999 V2000
   -3.5507   -3.2183    1.8116 H   0  0  0  0  0  0  0  0  0  0  0  0
   -3.4597   -2.3913    1.1076 C   0  0  0  0  0  0  0  0  0  0  0  0
   -4.1577   -1.6043    1.3866 H   0  0  0  0  0  0  0  0  0  0  0  0
   -3.6807   -2.7523    0.1036 H   0  0  0  0  0  0  0  0  0  0  0  0
   -2.0477   -1.8543    1.1546 C   0  0  0  0  0  0  0  0  0  0  0  0
   -1.2227   -2.3443    1.9146 O   0  0  0  0  0  0  0  0  0  0  0  0
   -1.7517   -0.8483    0.3266 N   0  0  0  0  0  0  0  0  0  0  0  0
   -2.4847   -0.5123   -0.2804 H   0  0  0  0  0  0  0  0  0  0  0  0
   -0.4117   -0.2463    0.2186 C   0  0  1  0  0  0  0  0  0  0  0  0
    0.1554   -0.5152    1.1133 H   0  0  0  0  0  0  0  0  0  0  0  0
    0.3164   -0.8780   -0.9905 C   0  0  0  0  0  0  0  0  0  0  0  0
    0.8283   -0.0852   -1.5418 H   0  0  0  0  0  0  0  0  0  0  0  0
    1.0852   -1.5617   -0.6243 H   0  0  0  0  0  0  0  0  0  0  0  0
   -0.5724   -1.6402   -1.9504 C   0  0  0  0  0  0  0  0  0  0  0  0
   -0.1311   -2.5204   -2.9194 N   0  3  0  0  0  0  0  0  0  0  0  0
    0.8506   -2.7885   -3.0344 H   0  0  0  0  0  0  0  0  0  0  0  0
   -1.2042   -3.0025   -3.5771 C   0  0  0  0  0  0  0  0  0  0  0  0
   -1.1722   -3.7275   -4.3879 H   0  0  0  0  0  0  0  0  0  0  0  0
   -2.3171   -2.4464   -3.0472 N   0  0  0  0  0  0  0  0  0  0  0  0
   -3.2730   -2.6265   -3.3425 H   0  0  0  0  0  0  0  0  0  0  0  0
   -1.9381   -1.5881   -2.0243 C   0  0  0  0  0  0  0  0  0  0  0  0
   -2.5911   -0.9872   -1.3974 H   0  0  0  0  0  0  0  0  0  0  0  0
   -0.4874    1.2908    0.1962 C   0  0  0  0  0  0  0  0  0  0  0  0
   -1.3116    1.8673   -0.5151 O   0  0  0  0  0  0  0  0  0  0  0  0
    0.3889    1.9422    0.9708 N   0  0  0  0  0  0  0  0  0  0  0  0
    1.0197    1.3866    1.5283 H   0  0  0  0  0  0  0  0  0  0  0  0
    0.5081    3.3999    1.0720 C   0  0  0  0  0  0  0  0  0  0  0  0
    0.0188    3.7538    1.9817 H   0  0  0  0  0  0  0  0  0  0  0  0
    1.5607    3.6858    1.1098 H   0  0  0  0  0  0  0  0  0  0  0  0
    0.0459    3.8890    0.2119 H   0  0  0  0  0  0  0  0  0  0  0  0
  5  6  2  0  0  0  0
  5  7  1  0  0  0  0
  2  3  1  0  0  0  0
  2  4  1  0  0  0  0
  2  5  1  0  0  0  0
  1  2  1  0  0  0  0
 23 24  2  0  0  0  0
 23 25  1  0  0  0  0
 21 22  1  0  0  0  0
 19 20  1  0  0  0  0
 19 21  1  0  0  0  0
 17 18  1  0  0  0  0
 17 19  1  0  0  0  0
 15 16  1  0  0  0  0
 15 17  2  0  0  0  0
 14 15  1  0  0  0  0
 14 21  2  0  0  0  0
 11 12  1  0  0  0  0
 11 13  1  0  0  0  0
 11 14  1  0  0  0  0
  9 10  1  0  0  0  0
  9 11  1  0  0  0  0
  9 23  1  0  0  0  0
  7  8  1  0  0  0  0
  7  9  1  0  0  0  0
 27 28  1  0  0  0  0
 27 29  1  0  0  0  0
 27 30  1  0  0  0  0
 25 26  1  0  0  0  0
 25 27  1  0  0  0  0
M  CHG  1  15   1
M  END
$$$$
default_name
  -OEChem-02102213163D

 30 30  0     1  0  0  0  0  0999 V2000
   -3.5507   -3.2183    1.8116 H   0  0  0  0  0  0  0  0  0  0  0  0
   -3.4597   -2.3913    1.1076 C   0  0  0  0  0  0  0  0  0  0  0  0
   -4.1577   -1.6043    1.3866 H   0  0  0  0  0  0  0  0  0  0  0  0
   -3.6807   -2.7523    0.1036 H   0  0  0  0  0  0  0  0  0  0  0  0
   -2.0477   -1.8543    1.1546 C   0  0  0  0  0  0  0  0  0  0  0  0
   -1.2227   -2.3443    1.9146 O   0  0  0  0  0  0  0  0  0  0  0  0
   -1.7517   -0.8483    0.3266 N   0  0  0  0  0  0  0  0  0  0  0  0
   -2.4847   -0.5123   -0.2804 H   0  0  0  0  0  0  0  0  0  0  0  0
   -0.4117   -0.2463    0.2186 C   0  0  1  0  0  0  0  0  0  0  0  0
    0.1554   -0.5152    1.1133 H   0  0  0  0  0  0  0  0  0  0  0  0
    0.3164   -0.8780   -0.9905 C   0  0  0  0  0  0  0  0  0  0  0  0
    0.8283   -0.0852   -1.5418 H   0  0  0  0  0  0  0  0  0  0  0  0
    1.0852   -1.5617   -0.6243 H   0  0  0  0  0  0  0  0  0  0  0  0
   -0.5724   -1.6402   -1.9504 C   0  0  0  0  0  0  0  0  0  0  0  0
   -0.1803   -2.7237   -2.7124 N   0  3  0  0  0  0  0  0  0  0  0  0
    0.7463   -3.1549   -2.6469 H   0  0  0  0  0  0  0  0  0  0  0  0
   -1.2361   -3.1354   -3.4422 C   0  0  0  0  0  0  0  0  0  0  0  0
   -1.2356   -3.9789   -4.1296 H   0  0  0  0  0  0  0  0  0  0  0  0
   -2.2895   -2.3358   -3.1606 N   0  0  0  0  0  0  0  0  0  0  0  0
   -3.2207   -2.4121   -3.5612 H   0  0  0  0  0  0  0  0  0  0  0  0
   -1.8899   -1.3911   -2.2255 C   0  0  0  0  0  0  0  0  0  0  0  0
   -2.4974   -0.6029   -1.7894 H   0  0  0  0  0  0  0  0  0  0  0  0
   -0.4874    1.2908    0.1962 C   0  0  0  0  0  0  0  0  0  0  0  0
   -1.3116    1.8673   -0.5151 O   0  0  0  0  0  0  0  0  0  0  0  0
    0.3889    1.9422    0.9708 N   0  0  0  0  0  0  0  0  0  0  0  0
    1.0197    1.3866    1.5283 H   0  0  0  0  0  0  0  0  0  0  0  0
    0.5081    3.3999    1.0720 C   0  0  0  0  0  0  0  0  0  0  0  0
    0.0188    3.7538    1.9817 H   0  0  0  0  0  0  0  0  0  0  0  0
    1.5607    3.6858    1.1098 H   0  0  0  0  0  0  0  0  0  0  0  0
    0.0459    3.8890    0.2119 H   0  0  0  0  0  0  0  0  0  0  0  0
  5  6  2  0  0  0  0
  5  7  1  0  0  0  0
  2  3  1  0  0  0  0
  2  4  1  0  0  0  0
  2  5  1  0  0  0  0
  1  2  1  0  0  0  0
 23 24  2  0  0  0  0
 23 25  1  0  0  0  0
 21 22  1  0  0  0  0
 19 20  1  0  0  0  0
 19 21  1  0  0  0  0
 17 18  1  0  0  0  0
 17 19  1  0  0  0  0
 15 16  1  0  0  0  0
 15 17  2  0  0  0  0
 14 15  1  0  0  0  0
 14 21  2  0  0  0  0
 11 12  1  0  0  0  0
 11 13  1  0  0  0  0
 11 14  1  0  0  0  0
  9 10  1  0  0  0  0
  9 11  1  0  0  0  0
  9 23  1  0  0  0  0
  7  8  1  0  0  0  0
  7  9  1  0  0  0  0
 27 28  1  0  0  0  0
 27 29  1  0  0  0  0
 27 30  1  0  0  0  0
 25 26  1  0  0  0  0
 25 27  1  0  0  0  0
M  CHG  1  15   1
M  END
$$$$
default_name
  -OEChem-02102213163D

 30 30  0     1  0  0  0  0  0999 V2000
   -3.5507   -3.2183    1.8116 H   0  0  0  0  0  0  0  0  0  0  0  0
   -3.4597   -2.3913    1.1076 C   0  0  0  0  0  0  0  0  0  0  0  0
   -4.1577   -1.6043    1.3866 H   0  0  0  0  0  0  0  0  0  0  0  0
   -3.6807   -2.7523    0.1036 H   0  0  0  0  0  0  0  0  0  0  0  0
   -2.0477   -1.8543    1.1546 C   0  0  0  0  0  0  0  0  0  0  0  0
   -1.2227   -2.3443    1.9146 O   0  0  0  0  0  0  0  0  0  0  0  0
   -1.7517   -0.8483    0.3266 N   0  0  0  0  0  0  0  0  0  0  0  0
   -2.4847   -0.5123   -0.2804 H   0  0  0  0  0  0  0  0  0  0  0  0
   -0.4117   -0.2463    0.2186 C   0  0  1  0  0  0  0  0  0  0  0  0
    0.1554   -0.5152    1.1133 H   0  0  0  0  0  0  0  0  0  0  0  0
    0.3164   -0.8780   -0.9905 C   0  0  0  0  0  0  0  0  0  0  0  0
    0.8283   -0.0852   -1.5418 H   0  0  0  0  0  0  0  0  0  0  0  0
    1.0852   -1.5617   -0.6243 H   0  0  0  0  0  0  0  0  0  0  0  0
   -0.5724   -1.6402   -1.9504 C   0  0  0  0  0  0  0  0  0  0  0  0
   -0.2881   -2.8806   -2.4880 N   0  3  0  0  0  0  0  0  0  0  0  0
    0.5349   -3.4329   -2.2305 H   0  0  0  0  0  0  0  0  0  0  0  0
   -1.3062   -3.2380   -3.2958 C   0  0  0  0  0  0  0  0  0  0  0  0
   -1.3718   -4.1720   -3.8501 H   0  0  0  0  0  0  0  0  0  0  0  0
   -2.2300   -2.2506   -3.2833 N   0  0  0  0  0  0  0  0  0  0  0  0
   -3.1066   -2.2468   -3.7981 H   0  0  0  0  0  0  0  0  0  0  0  0
   -1.7847   -1.2393   -2.4434 C   0  0  0  0  0  0  0  0  0  0  0  0
   -2.2927   -0.3066   -2.2142 H   0  0  0  0  0  0  0  0  0  0  0  0
   -0.4874    1.2908    0.1962 C   0  0  0  0  0  0  0  0  0  0  0  0
   -1.3116    1.8673   -0.5151 O   0  0  0  0  0  0  0  0  0  0  0  0
    0.3889    1.9422    0.9708 N   0  0  0  0  0  0  0  0  0  0  0  0
    1.0197    1.3866    1.5283 H   0  0  0  0  0  0  0  0  0  0  0  0
    0.5081    3.3999    1.0720 C   0  0  0  0  0  0  0  0  0  0  0  0
    0.0188    3.7538    1.9817 H   0  0  0  0  0  0  0  0  0  0  0  0
    1.5607    3.6858    1.1098 H   0  0  0  0  0  0  0  0  0  0  0  0
    0.0459    3.8890    0.2119 H   0  0  0  0  0  0  0  0  0  0  0  0
  5  6  2  0  0  0  0
  5  7  1  0  0  0  0
  2  3  1  0  0  0  0
  2  4  1  0  0  0  0
  2  5  1  0  0  0  0
  1  2  1  0  0  0  0
 23 24  2  0  0  0  0
 23 25  1  0  0  0  0
 21 22  1  0  0  0  0
 19 20  1  0  0  0  0
 19 21  1  0  0  0  0
 17 18  1  0  0  0  0
 17 19  1  0  0  0  0
 15 16  1  0  0  0  0
 15 17  2  0  0  0  0
 14 15  1  0  0  0  0
 14 21  2  0  0  0  0
 11 12  1  0  0  0  0
 11 13  1  0  0  0  0
 11 14  1  0  0  0  0
  9 10  1  0  0  0  0
  9 11  1  0  0  0  0
  9 23  1  0  0  0  0
  7  8  1  0  0  0  0
  7  9  1  0  0  0  0
 27 28  1  0  0  0  0
 27 29  1  0  0  0  0
 27 30  1  0  0  0  0
 25 26  1  0  0  0  0
 25 27  1  0  0  0  0
M  CHG  1  15   1
M  END
$$$$
default_name
  -OEChem-02102213163D

 30 30  0     1  0  0  0  0  0999 V2000
   -3.5507   -3.2183    1.8116 H   0  0  0  0  0  0  0  0  0  0  0  0
   -3.4597   -2.3913    1.1076 C   0  0  0  0  0  0  0  0  0  0  0  0
   -4.1577   -1.6043    1.3866 H   0  0  0  0  0  0  0  0  0  0  0  0
   -3.6807   -2.7523    0.1036 H   0  0  0  0  0  0  0  0  0  0  0  0
   -2.0477   -1.8543    1.1546 C   0  0  0  0  0  0  0  0  0  0  0  0
   -1.2227   -2.3443    1.9146 O   0  0  0  0  0  0  0  0  0  0  0  0
   -1.7517   -0.8483    0.3266 N   0  0  0  0  0  0  0  0  0  0  0  0
   -2.4847   -0.5123   -0.2804 H   0  0  0  0  0  0  0  0  0  0  0  0
   -0.4117   -0.2463    0.2186 C   0  0  1  0  0  0  0  0  0  0  0  0
    0.1554   -0.5152    1.1133 H   0  0  0  0  0  0  0  0  0  0  0  0
    0.3164   -0.8780   -0.9905 C   0  0  0  0  0  0  0  0  0  0  0  0
    0.8283   -0.0852   -1.5418 H   0  0  0  0  0  0  0  0  0  0  0  0
    1.0852   -1.5617   -0.6243 H   0  0  0  0  0  0  0  0  0  0  0  0
   -0.5724   -1.6402   -1.9504 C   0  0  0  0  0  0  0  0  0  0  0  0
   -0.4473   -2.9804   -2.2614 N   0  3  0  0  0  0  0  0  0  0  0  0
    0.2309   -3.6034   -1.8136 H   0  0  0  0  0  0  0  0  0  0  0  0
   -1.4098   -3.3033   -3.1479 C   0  0  0  0  0  0  0  0  0  0  0  0
   -1.5715   -4.2938   -3.5686 H   0  0  0  0  0  0  0  0  0  0  0  0
   -2.1425   -2.1968   -3.4070 N   0  0  0  0  0  0  0  0  0  0  0  0
   -2.9383   -2.1419   -4.0372 H   0  0  0  0  0  0  0  0  0  0  0  0
   -1.6298   -1.1430   -2.6632 C   0  0  0  0  0  0  0  0  0  0  0  0
   -1.9909   -0.1185   -2.6429 H   0  0  0  0  0  0  0  0  0  0  0  0
   -0.4874    1.2908    0.1962 C   0  0  0  0  0  0  0  0  0  0  0  0
   -1.3116    1.8673   -0.5151 O   0  0  0  0  0  0  0  0  0  0  0  0
    0.3889    1.9422    0.9708 N   0  0  0  0  0  0  0  0  0  0  0  0
    1.0197    1.3866    1.5283 H   0  0  0  0  0  0  0  0  0  0  0  0
    0.5081    3.3999    1.0720 C   0  0  0  0  0  0  0  0  0  0  0  0
    0.0188    3.7538    1.9817 H   0  0  0  0  0  0  0  0  0  0  0  0
    1.5607    3.6858    1.1098 H   0  0  0  0  0  0  0  0  0  0  0  0
    0.0459    3.8890    0.2119 H   0  0  0  0  0  0  0  0  0  0  0  0
  5  6  2  0  0  0  0
  5  7  1  0  0  0  0
  2  3  1  0  0  0  0
  2  4  1  0  0  0  0
  2  5  1  0  0  0  0
  1  2  1  0  0  0  0
 23 24  2  0  0  0  0
 23 25  1  0  0  0  0
 21 22  1  0  0  0  0
 19 20  1  0  0  0  0
 19 21  1  0  0  0  0
 17 18  1  0  0  0  0
 17 19  1  0  0  0  0
 15 16  1  0  0  0  0
 15 17  2  0  0  0  0
 14 15  1  0  0  0  0
 14 21  2  0  0  0  0
 11 12  1  0  0  0  0
 11 13  1  0  0  0  0
 11 14  1  0  0  0  0
  9 10  1  0  0  0  0
  9 11  1  0  0  0  0
  9 23  1  0  0  0  0
  7  8  1  0  0  0  0
  7  9  1  0  0  0  0
 27 28  1  0  0  0  0
 27 29  1  0  0  0  0
 27 30  1  0  0  0  0
 25 26  1  0  0  0  0
 25 27  1  0  0  0  0
M  CHG  1  15   1
M  END
$$$$
default_name
  -OEChem-02102213163D

 30 30  0     1  0  0  0  0  0999 V2000
   -3.5507   -3.2183    1.8116 H   0  0  0  0  0  0  0  0  0  0  0  0
   -3.4597   -2.3913    1.1076 C   0  0  0  0  0  0  0  0  0  0  0  0
   -4.1577   -1.6043    1.3866 H   0  0  0  0  0  0  0  0  0  0  0  0
   -3.6807   -2.7523    0.1036 H   0  0  0  0  0  0  0  0  0  0  0  0
   -2.0477   -1.8543    1.1546 C   0  0  0  0  0  0  0  0  0  0  0  0
   -1.2227   -2.3443    1.9146 O   0  0  0  0  0  0  0  0  0  0  0  0
   -1.7517   -0.8483    0.3266 N   0  0  0  0  0  0  0  0  0  0  0  0
   -2.4847   -0.5123   -0.2804 H   0  0  0  0  0  0  0  0  0  0  0  0
   -0.4117   -0.2463    0.2186 C   0  0  1  0  0  0  0  0  0  0  0  0
    0.1554   -0.5152    1.1133 H   0  0  0  0  0  0  0  0  0  0  0  0
    0.3164   -0.8780   -0.9905 C   0  0  0  0  0  0  0  0  0  0  0  0
    0.8283   -0.0852   -1.5418 H   0  0  0  0  0  0  0  0  0  0  0  0
    1.0852   -1.5617   -0.6243 H   0  0  0  0  0  0  0  0  0  0  0  0
   -0.5724   -1.6402   -1.9504 C   0  0  0  0  0  0  0  0  0  0  0  0
   -0.6469   -3.0162   -2.0482 N   0  3  0  0  0  0  0  0  0  0  0  0
   -0.1450   -3.6549   -1.4246 H   0  0  0  0  0  0  0  0  0  0  0  0
   -1.5399   -3.3270   -3.0086 C   0  0  0  0  0  0  0  0  0  0  0  0
   -1.8210   -4.3358   -3.3041 H   0  0  0  0  0  0  0  0  0  0  0  0
   -2.0330   -2.1779   -3.5233 N   0  0  0  0  0  0  0  0  0  0  0  0
   -2.7274   -2.1044   -4.2622 H   0  0  0  0  0  0  0  0  0  0  0  0
   -1.4358   -1.1088   -2.8700 C   0  0  0  0  0  0  0  0  0  0  0  0
   -1.6128   -0.0514   -3.0463 H   0  0  0  0  0  0  0  0  0  0  0  0
   -0.4874    1.2908    0.1962 C   0  0  0  0  0  0  0  0  0  0  0  0
   -1.3116    1.8673   -0.5151 O   0  0  0  0  0  0  0  0  0  0  0  0
    0.3889    1.9422    0.9708 N   0  0  0  0  0  0  0  0  0  0  0  0
    1.0197    1.3866    1.5283 H   0  0  0  0  0  0  0  0  0  0  0  0
    0.5081    3.3999    1.0720 C   0  0  0  0  0  0  0  0  0  0  0  0
    0.0188    3.7538    1.9817 H   0  0  0  0  0  0  0  0  0  0  0  0
    1.5607    3.6858    1.1098 H   0  0  0  0  0  0  0  0  0  0  0  0
    0.0459    3.8890    0.2119 H   0  0  0  0  0  0  0  0  0  0  0  0
  5  6  2  0  0  0  0
  5  7  1  0  0  0  0
  2  3  1  0  0  0  0
  2  4  1  0  0  0  0
  2  5  1  0  0  0  0
  1  2  1  0  0  0  0
 23 24  2  0  0  0  0
 23 25  1  0  0  0  0
 21 22  1  0  0  0  0
 19 20  1  0  0  0  0
 19 21  1  0  0  0  0
 17 18  1  0  0  0  0
 17 19  1  0  0  0  0
 15 16  1  0  0  0  0
 15 17  2  0  0  0  0
 14 15  1  0  0  0  0
 14 21  2  0  0  0  0
 11 12  1  0  0  0  0
 11 13  1  0  0  0  0
 11 14  1  0  0  0  0
  9 10  1  0  0  0  0
  9 11  1  0  0  0  0
  9 23  1  0  0  0  0
  7  8  1  0  0  0  0
  7  9  1  0  0  0  0
 27 28  1  0  0  0  0
 27 29  1  0  0  0  0
 27 30  1  0  0  0  0
 25 26  1  0  0  0  0
 25 27  1  0  0  0  0
M  CHG  1  15   1
M  END
$$$$
default_name
  -OEChem-02102213163D

 30 30  0     1  0  0  0  0  0999 V2000
   -3.5507   -3.2183    1.8116 H   0  0  0  0  0  0  0  0  0  0  0  0
   -3.4597   -2.3913    1.1076 C   0  0  0  0  0  0  0  0  0  0  0  0
   -4.1577   -1.6043    1.3866 H   0  0  0  0  0  0  0  0  0  0  0  0
   -3.6807   -2.7523    0.1036 H   0  0  0  0  0  0  0  0  0  0  0  0
   -2.0477   -1.8543    1.1546 C   0  0  0  0  0  0  0  0  0  0  0  0
   -1.2227   -2.3443    1.9146 O   0  0  0  0  0  0  0  0  0  0  0  0
   -1.7517   -0.8483    0.3266 N   0  0  0  0  0  0  0  0  0  0  0  0
   -2.4847   -0.5123   -0.2804 H   0  0  0  0  0  0  0  0  0  0  0  0
   -0.4117   -0.2463    0.2186 C   0  0  1  0  0  0  0  0  0  0  0  0
    0.1554   -0.5152    1.1133 H   0  0  0  0  0  0  0  0  0  0  0  0
    0.3164   -0.8780   -0.9905 C   0  0  0  0  0  0  0  0  0  0  0  0
    0.8283   -0.0852   -1.5418 H   0  0  0  0  0  0  0  0  0  0  0  0
    1.0852   -1.5617   -0.6243 H   0  0  0  0  0  0  0  0  0  0  0  0
   -0.5724   -1.6402   -1.9504 C   0  0  0  0  0  0  0  0  0  0  0  0
   -0.8734   -2.9856   -1.8627 N   0  3  0  0  0  0  0  0  0  0  0  0
   -0.5673   -3.5839   -1.0900 H   0  0  0  0  0  0  0  0  0  0  0  0
   -1.6877   -3.3073   -2.8875 C   0  0  0  0  0  0  0  0  0  0  0  0
   -2.1033   -4.2953   -3.0748 H   0  0  0  0  0  0  0  0  0  0  0  0
   -1.9091   -2.1954   -3.6243 N   0  0  0  0  0  0  0  0  0  0  0  0
   -2.4882   -2.1371   -4.4578 H   0  0  0  0  0  0  0  0  0  0  0  0
   -1.2158   -1.1391   -3.0497 C   0  0  0  0  0  0  0  0  0  0  0  0
   -1.1840   -0.1100   -3.3968 H   0  0  0  0  0  0  0  0  0  0  0  0
   -0.4874    1.2908    0.1962 C   0  0  0  0  0  0  0  0  0  0  0  0
   -1.3116    1.8673   -0.5151 O   0  0  0  0  0  0  0  0  0  0  0  0
    0.3889    1.9422    0.9708 N   0  0  0  0  0  0  0  0  0  0  0  0
    1.0197    1.3866    1.5283 H   0  0  0  0  0  0  0  0  0  0  0  0
    0.5081    3.3999    1.0720 C   0  0  0  0  0  0  0  0  0  0  0  0
    0.0188    3.7538    1.9817 H   0  0  0  0  0  0  0  0  0  0  0  0
    1.5607    3.6858    1.1098 H   0  0  0  0  0  0  0  0  0  0  0  0
    0.0459    3.8890    0.2119 H   0  0  0  0  0  0  0  0  0  0  0  0
  5  6  2  0  0  0  0
  5  7  1  0  0  0  0
  2  3  1  0  0  0  0
  2  4  1  0  0  0  0
  2  5  1  0  0  0  0
  1  2  1  0  0  0  0
 23 24  2  0  0  0  0
 23 25  1  0  0  0  0
 21 22  1  0  0  0  0
 19 20  1  0  0  0  0
 19 21  1  0  0  0  0
 17 18  1  0  0  0  0
 17 19  1  0  0  0  0
 15 16  1  0  0  0  0
 15 17  2  0  0  0  0
 14 15  1  0  0  0  0
 14 21  2  0  0  0  0
 11 12  1  0  0  0  0
 11 13  1  0  0  0  0
 11 14  1  0  0  0  0
  9 10  1  0  0  0  0
  9 11  1  0  0  0  0
  9 23  1  0  0  0  0
  7  8  1  0  0  0  0
  7  9  1  0  0  0  0
 27 28  1  0  0  0  0
 27 29  1  0  0  0  0
 27 30  1  0  0  0  0
 25 26  1  0  0  0  0
 25 27  1  0  0  0  0
M  CHG  1  15   1
M  END
$$$$
default_name
  -OEChem-02102213163D

 30 30  0     1  0  0  0  0  0999 V2000
   -3.5507   -3.2183    1.8116 H   0  0  0  0  0  0  0  0  0  0  0  0
   -3.4597   -2.3913    1.1076 C   0  0  0  0  0  0  0  0  0  0  0  0
   -4.1577   -1.6043    1.3866 H   0  0  0  0  0  0  0  0  0  0  0  0
   -3.6807   -2.7523    0.1036 H   0  0  0  0  0  0  0  0  0  0  0  0
   -2.0477   -1.8543    1.1546 C   0  0  0  0  0  0  0  0  0  0  0  0
   -1.2227   -2.3443    1.9146 O   0  0  0  0  0  0  0  0  0  0  0  0
   -1.7517   -0.8483    0.3266 N   0  0  0  0  0  0  0  0  0  0  0  0
   -2.4847   -0.5123   -0.2804 H   0  0  0  0  0  0  0  0  0  0  0  0
   -0.4117   -0.2463    0.2186 C   0  0  1  0  0  0  0  0  0  0  0  0
    0.1554   -0.5152    1.1133 H   0  0  0  0  0  0  0  0  0  0  0  0
    0.3164   -0.8780   -0.9905 C   0  0  0  0  0  0  0  0  0  0  0  0
    0.8283   -0.0852   -1.5418 H   0  0  0  0  0  0  0  0  0  0  0  0
    1.0852   -1.5617   -0.6243 H   0  0  0  0  0  0  0  0  0  0  0  0
   -0.5724   -1.6402   -1.9504 C   0  0  0  0  0  0  0  0  0  0  0  0
   -1.1113   -2.8908   -1.7178 N   0  3  0  0  0  0  0  0  0  0  0  0
   -1.0071   -3.3952   -0.8326 H   0  0  0  0  0  0  0  0  0  0  0  0
   -1.8429   -3.2457   -2.7927 C   0  0  0  0  0  0  0  0  0  0  0  0
   -2.3993   -4.1751   -2.8963 H   0  0  0  0  0  0  0  0  0  0  0  0
   -1.7790   -2.2479   -3.7030 N   0  0  0  0  0  0  0  0  0  0  0  0
   -2.2371   -2.2376   -4.6105 H   0  0  0  0  0  0  0  0  0  0  0  0
   -0.9848   -1.2317   -3.1900 C   0  0  0  0  0  0  0  0  0  0  0  0
   -0.7337   -0.2902   -3.6706 H   0  0  0  0  0  0  0  0  0  0  0  0
   -0.4874    1.2908    0.1962 C   0  0  0  0  0  0  0  0  0  0  0  0
   -1.3116    1.8673   -0.5151 O   0  0  0  0  0  0  0  0  0  0  0  0
    0.3889    1.9422    0.9708 N   0  0  0  0  0  0  0  0  0  0  0  0
    1.0197    1.3866    1.5283 H   0  0  0  0  0  0  0  0  0  0  0  0
    0.5081    3.3999    1.0720 C   0  0  0  0  0  0  0  0  0  0  0  0
    0.0188    3.7538    1.9817 H   0  0  0  0  0  0  0  0  0  0  0  0
    1.5607    3.6858    1.1098 H   0  0  0  0  0  0  0  0  0  0  0  0
    0.0459    3.8890    0.2119 H   0  0  0  0  0  0  0  0  0  0  0  0
  5  6  2  0  0  0  0
  5  7  1  0  0  0  0
  2  3  1  0  0  0  0
  2  4  1  0  0  0  0
  2  5  1  0  0  0  0
  1  2  1  0  0  0  0
 23 24  2  0  0  0  0
 23 25  1  0  0  0  0
 21 22  1  0  0  0  0
 19 20  1  0  0  0  0
 19 21  1  0  0  0  0
 17 18  1  0  0  0  0
 17 19  1  0  0  0  0
 15 16  1  0  0  0  0
 15 17  2  0  0  0  0
 14 15  1  0  0  0  0
 14 21  2  0  0  0  0
 11 12  1  0  0  0  0
 11 13  1  0  0  0  0
 11 14  1  0  0  0  0
  9 10  1  0  0  0  0
  9 11  1  0  0  0  0
  9 23  1  0  0  0  0
  7  8  1  0  0  0  0
  7  9  1  0  0  0  0
 27 28  1  0  0  0  0
 27 29  1  0  0  0  0
 27 30  1  0  0  0  0
 25 26  1  0  0  0  0
 25 27  1  0  0  0  0
M  CHG  1  15   1
M  END
$$$$
default_name
  -OEChem-02102213163D

 30 30  0     1  0  0  0  0  0999 V2000
   -3.5507   -3.2183    1.8116 H   0  0  0  0  0  0  0  0  0  0  0  0
   -3.4597   -2.3913    1.1076 C   0  0  0  0  0  0  0  0  0  0  0  0
   -4.1577   -1.6043    1.3866 H   0  0  0  0  0  0  0  0  0  0  0  0
   -3.6807   -2.7523    0.1036 H   0  0  0  0  0  0  0  0  0  0  0  0
   -2.0477   -1.8543    1.1546 C   0  0  0  0  0  0  0  0  0  0  0  0
   -1.2227   -2.3443    1.9146 O   0  0  0  0  0  0  0  0  0  0  0  0
   -1.7517   -0.8483    0.3266 N   0  0  0  0  0  0  0  0  0  0  0  0
   -2.4847   -0.5123   -0.2804 H   0  0  0  0  0  0  0  0  0  0  0  0
   -0.4117   -0.2463    0.2186 C   0  0  1  0  0  0  0  0  0  0  0  0
    0.1554   -0.5152    1.1133 H   0  0  0  0  0  0  0  0  0  0  0  0
    0.3164   -0.8780   -0.9905 C   0  0  0  0  0  0  0  0  0  0  0  0
    0.8283   -0.0852   -1.5418 H   0  0  0  0  0  0  0  0  0  0  0  0
    1.0852   -1.5617   -0.6243 H   0  0  0  0  0  0  0  0  0  0  0  0
   -0.5724   -1.6402   -1.9504 C   0  0  0  0  0  0  0  0  0  0  0  0
   -1.3444   -2.7381   -1.6232 N   0  3  0  0  0  0  0  0  0  0  0  0
   -1.4345   -3.1016   -0.6700 H   0  0  0  0  0  0  0  0  0  0  0  0
   -1.9951   -3.1463   -2.7307 C   0  0  0  0  0  0  0  0  0  0  0  0
   -2.6888   -3.9832   -2.7807 H   0  0  0  0  0  0  0  0  0  0  0  0
   -1.6518   -2.3319   -3.7541 N   0  0  0  0  0  0  0  0  0  0  0  0
   -1.9911   -2.3991   -4.7101 H   0  0  0  0  0  0  0  0  0  0  0  0
   -0.7587   -1.3804   -3.2813 C   0  0  0  0  0  0  0  0  0  0  0  0
   -0.2926   -0.5798   -3.8491 H   0  0  0  0  0  0  0  0  0  0  0  0
   -0.4874    1.2908    0.1962 C   0  0  0  0  0  0  0  0  0  0  0  0
   -1.3116    1.8673   -0.5151 O   0  0  0  0  0  0  0  0  0  0  0  0
    0.3889    1.9422    0.9708 N   0  0  0  0  0  0  0  0  0  0  0  0
    1.0197    1.3866    1.5283 H   0  0  0  0  0  0  0  0  0  0  0  0
    0.5081    3.3999    1.0720 C   0  0  0  0  0  0  0  0  0  0  0  0
    0.0188    3.7538    1.9817 H   0  0  0  0  0  0  0  0  0  0  0  0
    1.5607    3.6858    1.1098 H   0  0  0  0  0  0  0  0  0  0  0  0
    0.0459    3.8890    0.2119 H   0  0  0  0  0  0  0  0  0  0  0  0
  5  6  2  0  0  0  0
  5  7  1  0  0  0  0
  2  3  1  0  0  0  0
  2  4  1  0  0  0  0
  2  5  1  0  0  0  0
  1  2  1  0  0  0  0
 23 24  2  0  0  0  0
 23 25  1  0  0  0  0
 21 22  1  0  0  0  0
 19 20  1  0  0  0  0
 19 21  1  0  0  0  0
 17 18  1  0  0  0  0
 17 19  1  0  0  0  0
 15 16  1  0  0  0  0
 15 17  2  0  0  0  0
 14 15  1  0  0  0  0
 14 21  2  0  0  0  0
 11 12  1  0  0  0  0
 11 13  1  0  0  0  0
 11 14  1  0  0  0  0
  9 10  1  0  0  0  0
  9 11  1  0  0  0  0
  9 23  1  0  0  0  0
  7  8  1  0  0  0  0
  7  9  1  0  0  0  0
 27 28  1  0  0  0  0
 27 29  1  0  0  0  0
 27 30  1  0  0  0  0
 25 26  1  0  0  0  0
 25 27  1  0  0  0  0
M  CHG  1  15   1
M  END
$$$$
default_name
  -OEChem-02102213163D

 30 30  0     1  0  0  0  0  0999 V2000
   -3.5507   -3.2183    1.8116 H   0  0  0  0  0  0  0  0  0  0  0  0
   -3.4597   -2.3913    1.1076 C   0  0  0  0  0  0  0  0  0  0  0  0
   -4.1577   -1.6043    1.3866 H   0  0  0  0  0  0  0  0  0  0  0  0
   -3.6807   -2.7523    0.1036 H   0  0  0  0  0  0  0  0  0  0  0  0
   -2.0477   -1.8543    1.1546 C   0  0  0  0  0  0  0  0  0  0  0  0
   -1.2227   -2.3443    1.9146 O   0  0  0  0  0  0  0  0  0  0  0  0
   -1.7517   -0.8483    0.3266 N   0  0  0  0  0  0  0  0  0  0  0  0
   -2.4847   -0.5123   -0.2804 H   0  0  0  0  0  0  0  0  0  0  0  0
   -0.4117   -0.2463    0.2186 C   0  0  1  0  0  0  0  0  0  0  0  0
    0.1554   -0.5152    1.1133 H   0  0  0  0  0  0  0  0  0  0  0  0
    0.3164   -0.8780   -0.9905 C   0  0  0  0  0  0  0  0  0  0  0  0
    0.8283   -0.0852   -1.5418 H   0  0  0  0  0  0  0  0  0  0  0  0
    1.0852   -1.5617   -0.6243 H   0  0  0  0  0  0  0  0  0  0  0  0
   -0.5724   -1.6402   -1.9504 C   0  0  0  0  0  0  0  0  0  0  0  0
   -1.5569   -2.5380   -1.5854 N   0  3  0  0  0  0  0  0  0  0  0  0
   -1.8204   -2.7232   -0.6133 H   0  0  0  0  0  0  0  0  0  0  0  0
   -2.1338   -3.0159   -2.7058 C   0  0  0  0  0  0  0  0  0  0  0  0
   -2.9519   -3.7328   -2.7359 H   0  0  0  0  0  0  0  0  0  0  0  0
   -1.5360   -2.4417   -3.7741 N   0  0  0  0  0  0  0  0  0  0  0  0
   -1.7670   -2.6106   -4.7496 H   0  0  0  0  0  0  0  0  0  0  0  0
   -0.5527   -1.5750   -3.3175 C   0  0  0  0  0  0  0  0  0  0  0  0
    0.1091   -0.9590   -3.9200 H   0  0  0  0  0  0  0  0  0  0  0  0
   -0.4874    1.2908    0.1962 C   0  0  0  0  0  0  0  0  0  0  0  0
   -1.3116    1.8673   -0.5151 O   0  0  0  0  0  0  0  0  0  0  0  0
    0.3889    1.9422    0.9708 N   0  0  0  0  0  0  0  0  0  0  0  0
    1.0197    1.3866    1.5283 H   0  0  0  0  0  0  0  0  0  0  0  0
    0.5081    3.3999    1.0720 C   0  0  0  0  0  0  0  0  0  0  0  0
    0.0188    3.7538    1.9817 H   0  0  0  0  0  0  0  0  0  0  0  0
    1.5607    3.6858    1.1098 H   0  0  0  0  0  0  0  0  0  0  0  0
    0.0459    3.8890    0.2119 H   0  0  0  0  0  0  0  0  0  0  0  0
  5  6  2  0  0  0  0
  5  7  1  0  0  0  0
  2  3  1  0  0  0  0
  2  4  1  0  0  0  0
  2  5  1  0  0  0  0
  1  2  1  0  0  0  0
 23 24  2  0  0  0  0
 23 25  1  0  0  0  0
 21 22  1  0  0  0  0
 19 20  1  0  0  0  0
 19 21  1  0  0  0  0
 17 18  1  0  0  0  0
 17 19  1  0  0  0  0
 15 16  1  0  0  0  0
 15 17  2  0  0  0  0
 14 15  1  0  0  0  0
 14 21  2  0  0  0  0
 11 12  1  0  0  0  0
 11 13  1  0  0  0  0
 11 14  1  0  0  0  0
  9 10  1  0  0  0  0
  9 11  1  0  0  0  0
  9 23  1  0  0  0  0
  7  8  1  0  0  0  0
  7  9  1  0  0  0  0
 27 28  1  0  0  0  0
 27 29  1  0  0  0  0
 27 30  1  0  0  0  0
 25 26  1  0  0  0  0
 25 27  1  0  0  0  0
M  CHG  1  15   1
M  END
$$$$
default_name
  -OEChem-02102213163D

 30 30  0     1  0  0  0  0  0999 V2000
   -3.5507   -3.2183    1.8116 H   0  0  0  0  0  0  0  0  0  0  0  0
   -3.4597   -2.3913    1.1076 C   0  0  0  0  0  0  0  0  0  0  0  0
   -4.1577   -1.6043    1.3866 H   0  0  0  0  0  0  0  0  0  0  0  0
   -3.6807   -2.7523    0.1036 H   0  0  0  0  0  0  0  0  0  0  0  0
   -2.0477   -1.8543    1.1546 C   0  0  0  0  0  0  0  0  0  0  0  0
   -1.2227   -2.3443    1.9146 O   0  0  0  0  0  0  0  0  0  0  0  0
   -1.7517   -0.8483    0.3266 N   0  0  0  0  0  0  0  0  0  0  0  0
   -2.4847   -0.5123   -0.2804 H   0  0  0  0  0  0  0  0  0  0  0  0
   -0.4117   -0.2463    0.2186 C   0  0  1  0  0  0  0  0  0  0  0  0
    0.1554   -0.5152    1.1133 H   0  0  0  0  0  0  0  0  0  0  0  0
    0.3164   -0.8780   -0.9905 C   0  0  0  0  0  0  0  0  0  0  0  0
    0.8283   -0.0852   -1.5418 H   0  0  0  0  0  0  0  0  0  0  0  0
    1.0852   -1.5617   -0.6243 H   0  0  0  0  0  0  0  0  0  0  0  0
   -0.5724   -1.6402   -1.9504 C   0  0  0  0  0  0  0  0  0  0  0  0
   -1.7342   -2.3041   -1.6069 N   0  3  0  0  0  0  0  0  0  0  0  0
   -2.1384   -2.2857   -0.6662 H   0  0  0  0  0  0  0  0  0  0  0  0
   -2.2497   -2.8634   -2.7196 C   0  0  0  0  0  0  0  0  0  0  0  0
   -3.1708   -3.4409   -2.7649 H   0  0  0  0  0  0  0  0  0  0  0  0
   -1.4396   -2.5698   -3.7617 N   0  0  0  0  0  0  0  0  0  0  0  0
   -1.5801   -2.8576   -4.7265 H   0  0  0  0  0  0  0  0  0  0  0  0
   -0.3810   -1.8022   -3.2960 C   0  0  0  0  0  0  0  0  0  0  0  0
    0.4442   -1.4019   -3.8785 H   0  0  0  0  0  0  0  0  0  0  0  0
   -0.4874    1.2908    0.1962 C   0  0  0  0  0  0  0  0  0  0  0  0
   -1.3116    1.8673   -0.5151 O   0  0  0  0  0  0  0  0  0  0  0  0
    0.3889    1.9422    0.9708 N   0  0  0  0  0  0  0  0  0  0  0  0
    1.0197    1.3866    1.5283 H   0  0  0  0  0  0  0  0  0  0  0  0
    0.5081    3.3999    1.0720 C   0  0  0  0  0  0  0  0  0  0  0  0
    0.0188    3.7538    1.9817 H   0  0  0  0  0  0  0  0  0  0  0  0
    1.5607    3.6858    1.1098 H   0  0  0  0  0  0  0  0  0  0  0  0
    0.0459    3.8890    0.2119 H   0  0  0  0  0  0  0  0  0  0  0  0
  5  6  2  0  0  0  0
  5  7  1  0  0  0  0
  2  3  1  0  0  0  0
  2  4  1  0  0  0  0
  2  5  1  0  0  0  0
  1  2  1  0  0  0  0
 23 24  2  0  0  0  0
 23 25  1  0  0  0  0
 21 22  1  0  0  0  0
 19 20  1  0  0  0  0
 19 21  1  0  0  0  0
 17 18  1  0  0  0  0
 17 19  1  0  0  0  0
 15 16  1  0  0  0  0
 15 17  2  0  0  0  0
 14 15  1  0  0  0  0
 14 21  2  0  0  0  0
 11 12  1  0  0  0  0
 11 13  1  0  0  0  0
 11 14  1  0  0  0  0
  9 10  1  0  0  0  0
  9 11  1  0  0  0  0
  9 23  1  0  0  0  0
  7  8  1  0  0  0  0
  7  9  1  0  0  0  0
 27 28  1  0  0  0  0
 27 29  1  0  0  0  0
 27 30  1  0  0  0  0
 25 26  1  0  0  0  0
 25 27  1  0  0  0  0
M  CHG  1  15   1
M  END
$$$$
default_name
  -OEChem-02102213163D

 30 30  0     1  0  0  0  0  0999 V2000
   -3.5507   -3.2183    1.8116 H   0  0  0  0  0  0  0  0  0  0  0  0
   -3.4597   -2.3913    1.1076 C   0  0  0  0  0  0  0  0  0  0  0  0
   -4.1577   -1.6043    1.3866 H   0  0  0  0  0  0  0  0  0  0  0  0
   -3.6807   -2.7523    0.1036 H   0  0  0  0  0  0  0  0  0  0  0  0
   -2.0477   -1.8543    1.1546 C   0  0  0  0  0  0  0  0  0  0  0  0
   -1.2227   -2.3443    1.9146 O   0  0  0  0  0  0  0  0  0  0  0  0
   -1.7517   -0.8483    0.3266 N   0  0  0  0  0  0  0  0  0  0  0  0
   -2.4847   -0.5123   -0.2804 H   0  0  0  0  0  0  0  0  0  0  0  0
   -0.4117   -0.2463    0.2186 C   0  0  1  0  0  0  0  0  0  0  0  0
    0.1554   -0.5152    1.1133 H   0  0  0  0  0  0  0  0  0  0  0  0
    0.3164   -0.8780   -0.9905 C   0  0  0  0  0  0  0  0  0  0  0  0
    0.8283   -0.0852   -1.5418 H   0  0  0  0  0  0  0  0  0  0  0  0
    1.0852   -1.5617   -0.6243 H   0  0  0  0  0  0  0  0  0  0  0  0
   -0.5724   -1.6402   -1.9504 C   0  0  0  0  0  0  0  0  0  0  0  0
   -1.8643   -2.0523   -1.6864 N   0  3  0  0  0  0  0  0  0  0  0  0
   -2.3669   -1.8190   -0.8252 H   0  0  0  0  0  0  0  0  0  0  0  0
   -2.3348   -2.6992   -2.7712 C   0  0  0  0  0  0  0  0  0  0  0  0
   -3.3306   -3.1275   -2.8658 H   0  0  0  0  0  0  0  0  0  0  0  0
   -1.3691   -2.7075   -3.7176 N   0  0  0  0  0  0  0  0  0  0  0  0
   -1.4431   -3.1234   -4.6423 H   0  0  0  0  0  0  0  0  0  0  0  0
   -0.2552   -2.0466   -3.2184 C   0  0  0  0  0  0  0  0  0  0  0  0
    0.6898   -1.8784   -3.7275 H   0  0  0  0  0  0  0  0  0  0  0  0
   -0.4874    1.2908    0.1962 C   0  0  0  0  0  0  0  0  0  0  0  0
   -1.3116    1.8673   -0.5151 O   0  0  0  0  0  0  0  0  0  0  0  0
    0.3889    1.9422    0.9708 N   0  0  0  0  0  0  0  0  0  0  0  0
    1.0197    1.3866    1.5283 H   0  0  0  0  0  0  0  0  0  0  0  0
    0.5081    3.3999    1.0720 C   0  0  0  0  0  0  0  0  0  0  0  0
    0.0188    3.7538    1.9817 H   0  0  0  0  0  0  0  0  0  0  0  0
    1.5607    3.6858    1.1098 H   0  0  0  0  0  0  0  0  0  0  0  0
    0.0459    3.8890    0.2119 H   0  0  0  0  0  0  0  0  0  0  0  0
  5  6  2  0  0  0  0
  5  7  1  0  0  0  0
  2  3  1  0  0  0  0
  2  4  1  0  0  0  0
  2  5  1  0  0  0  0
  1  2  1  0  0  0  0
 23 24  2  0  0  0  0
 23 25  1  0  0  0  0
 21 22  1  0  0  0  0
 19 20  1  0  0  0  0
 19 21  1  0  0  0  0
 17 18  1  0  0  0  0
 17 19  1  0  0  0  0
 15 16  1  0  0  0  0
 15 17  2  0  0  0  0
 14 15  1  0  0  0  0
 14 21  2  0  0  0  0
 11 12  1  0  0  0  0
 11 13  1  0  0  0  0
 11 14  1  0  0  0  0
  9 10  1  0  0  0  0
  9 11  1  0  0  0  0
  9 23  1  0  0  0  0
  7  8  1  0  0  0  0
  7  9  1  0  0  0  0
 27 28  1  0  0  0  0
 27 29  1  0  0  0  0
 27 30  1  0  0  0  0
 25 26  1  0  0  0  0
 25 27  1  0  0  0  0
M  CHG  1  15   1
M  END
$$$$
default_name
  -OEChem-02102213163D

 30 30  0     1  0  0  0  0  0999 V2000
   -3.5507   -3.2183    1.8116 H   0  0  0  0  0  0  0  0  0  0  0  0
   -3.4597   -2.3913    1.1076 C   0  0  0  0  0  0  0  0  0  0  0  0
   -4.1577   -1.6043    1.3866 H   0  0  0  0  0  0  0  0  0  0  0  0
   -3.6807   -2.7523    0.1036 H   0  0  0  0  0  0  0  0  0  0  0  0
   -2.0477   -1.8543    1.1546 C   0  0  0  0  0  0  0  0  0  0  0  0
   -1.2227   -2.3443    1.9146 O   0  0  0  0  0  0  0  0  0  0  0  0
   -1.7517   -0.8483    0.3266 N   0  0  0  0  0  0  0  0  0  0  0  0
   -2.4847   -0.5123   -0.2804 H   0  0  0  0  0  0  0  0  0  0  0  0
   -0.4117   -0.2463    0.2186 C   0  0  1  0  0  0  0  0  0  0  0  0
    0.1554   -0.5152    1.1133 H   0  0  0  0  0  0  0  0  0  0  0  0
    0.3164   -0.8780   -0.9905 C   0  0  0  0  0  0  0  0  0  0  0  0
    0.8283   -0.0852   -1.5418 H   0  0  0  0  0  0  0  0  0  0  0  0
    1.0852   -1.5617   -0.6243 H   0  0  0  0  0  0  0  0  0  0  0  0
   -0.5724   -1.6402   -1.9504 C   0  0  0  0  0  0  0  0  0  0  0  0
   -1.9382   -1.7999   -1.8184 N   0  3  0  0  0  0  0  0  0  0  0  0
   -2.4903   -1.3548   -1.0795 H   0  0  0  0  0  0  0  0  0  0  0  0
   -2.3834   -2.5344   -2.8571 C   0  0  0  0  0  0  0  0  0  0  0  0
   -3.4204   -2.8139   -3.0318 H   0  0  0  0  0  0  0  0  0  0  0  0
   -1.3293   -2.8453   -3.6450 N   0  0  0  0  0  0  0  0  0  0  0  0
   -1.3653   -3.3898   -4.5027 H   0  0  0  0  0  0  0  0  0  0  0  0
   -0.1840   -2.2916   -3.0899 C   0  0  0  0  0  0  0  0  0  0  0  0
    0.8291   -2.3561   -3.4772 H   0  0  0  0  0  0  0  0  0  0  0  0
   -0.4874    1.2908    0.1962 C   0  0  0  0  0  0  0  0  0  0  0  0
   -1.3116    1.8673   -0.5151 O   0  0  0  0  0  0  0  0  0  0  0  0
    0.3889    1.9422    0.9708 N   0  0  0  0  0  0  0  0  0  0  0  0
    1.0197    1.3866    1.5283 H   0  0  0  0  0  0  0  0  0  0  0  0
    0.5081    3.3999    1.0720 C   0  0  0  0  0  0  0  0  0  0  0  0
    0.0188    3.7538    1.9817 H   0  0  0  0  0  0  0  0  0  0  0  0
    1.5607    3.6858    1.1098 H   0  0  0  0  0  0  0  0  0  0  0  0
    0.0459    3.8890    0.2119 H   0  0  0  0  0  0  0  0  0  0  0  0
  5  6  2  0  0  0  0
  5  7  1  0  0  0  0
  2  3  1  0  0  0  0
  2  4  1  0  0  0  0
  2  5  1  0  0  0  0
  1  2  1  0  0  0  0
 23 24  2  0  0  0  0
 23 25  1  0  0  0  0
 21 22  1  0  0  0  0
 19 20  1  0  0  0  0
 19 21  1  0  0  0  0
 17 18  1  0  0  0  0
 17 19  1  0  0  0  0
 15 16  1  0  0  0  0
 15 17  2  0  0  0  0
 14 15  1  0  0  0  0
 14 21  2  0  0  0  0
 11 12  1  0  0  0  0
 11 13  1  0  0  0  0
 11 14  1  0  0  0  0
  9 10  1  0  0  0  0
  9 11  1  0  0  0  0
  9 23  1  0  0  0  0
  7  8  1  0  0  0  0
  7  9  1  0  0  0  0
 27 28  1  0  0  0  0
 27 29  1  0  0  0  0
 27 30  1  0  0  0  0
 25 26  1  0  0  0  0
 25 27  1  0  0  0  0
M  CHG  1  15   1
M  END
$$$$
default_name
  -OEChem-02102213163D

 30 30  0     1  0  0  0  0  0999 V2000
   -3.5507   -3.2183    1.8116 H   0  0  0  0  0  0  0  0  0  0  0  0
   -3.4597   -2.3913    1.1076 C   0  0  0  0  0  0  0  0  0  0  0  0
   -4.1577   -1.6043    1.3866 H   0  0  0  0  0  0  0  0  0  0  0  0
   -3.6807   -2.7523    0.1036 H   0  0  0  0  0  0  0  0  0  0  0  0
   -2.0477   -1.8543    1.1546 C   0  0  0  0  0  0  0  0  0  0  0  0
   -1.2227   -2.3443    1.9146 O   0  0  0  0  0  0  0  0  0  0  0  0
   -1.7517   -0.8483    0.3266 N   0  0  0  0  0  0  0  0  0  0  0  0
   -2.4847   -0.5123   -0.2804 H   0  0  0  0  0  0  0  0  0  0  0  0
   -0.4117   -0.2463    0.2186 C   0  0  1  0  0  0  0  0  0  0  0  0
    0.1554   -0.5152    1.1133 H   0  0  0  0  0  0  0  0  0  0  0  0
    0.3164   -0.8780   -0.9905 C   0  0  0  0  0  0  0  0  0  0  0  0
    0.8283   -0.0852   -1.5418 H   0  0  0  0  0  0  0  0  0  0  0  0
    1.0852   -1.5617   -0.6243 H   0  0  0  0  0  0  0  0  0  0  0  0
   -0.5724   -1.6402   -1.9504 C   0  0  0  0  0  0  0  0  0  0  0  0
   -1.9511   -1.5639   -1.9938 N   0  3  0  0  0  0  0  0  0  0  0  0
   -2.5002   -0.9249   -1.4117 H   0  0  0  0  0  0  0  0  0  0  0  0
   -2.3920   -2.3803   -2.9714 C   0  0  0  0  0  0  0  0  0  0  0  0
   -3.4340   -2.5214   -3.2514 H   0  0  0  0  0  0  0  0  0  0  0  0
   -1.3230   -2.9740   -3.5487 N   0  0  0  0  0  0  0  0  0  0  0  0
   -1.3521   -3.6387   -4.3173 H   0  0  0  0  0  0  0  0  0  0  0  0
   -0.1721   -2.5203   -2.9192 C   0  0  0  0  0  0  0  0  0  0  0  0
    0.8527   -2.8023   -3.1447 H   0  0  0  0  0  0  0  0  0  0  0  0
   -0.4874    1.2908    0.1962 C   0  0  0  0  0  0  0  0  0  0  0  0
   -1.3116    1.8673   -0.5151 O   0  0  0  0  0  0  0  0  0  0  0  0
    0.3889    1.9422    0.9708 N   0  0  0  0  0  0  0  0  0  0  0  0
    1.0197    1.3866    1.5283 H   0  0  0  0  0  0  0  0  0  0  0  0
    0.5081    3.3999    1.0720 C   0  0  0  0  0  0  0  0  0  0  0  0
    0.0188    3.7538    1.9817 H   0  0  0  0  0  0  0  0  0  0  0  0
    1.5607    3.6858    1.1098 H   0  0  0  0  0  0  0  0  0  0  0  0
    0.0459    3.8890    0.2119 H   0  0  0  0  0  0  0  0  0  0  0  0
  5  6  2  0  0  0  0
  5  7  1  0  0  0  0
  2  3  1  0  0  0  0
  2  4  1  0  0  0  0
  2  5  1  0  0  0  0
  1  2  1  0  0  0  0
 23 24  2  0  0  0  0
 23 25  1  0  0  0  0
 21 22  1  0  0  0  0
 19 20  1  0  0  0  0
 19 21  1  0  0  0  0
 17 18  1  0  0  0  0
 17 19  1  0  0  0  0
 15 16  1  0  0  0  0
 15 17  2  0  0  0  0
 14 15  1  0  0  0  0
 14 21  2  0  0  0  0
 11 12  1  0  0  0  0
 11 13  1  0  0  0  0
 11 14  1  0  0  0  0
  9 10  1  0  0  0  0
  9 11  1  0  0  0  0
  9 23  1  0  0  0  0
  7  8  1  0  0  0  0
  7  9  1  0  0  0  0
 27 28  1  0  0  0  0
 27 29  1  0  0  0  0
 27 30  1  0  0  0  0
 25 26  1  0  0  0  0
 25 27  1  0  0  0  0
M  CHG  1  15   1
M  END
$$$$
default_name
  -OEChem-02102213163D

 30 30  0     1  0  0  0  0  0999 V2000
   -3.5507   -3.2183    1.8116 H   0  0  0  0  0  0  0  0  0  0  0  0
   -3.4597   -2.3913    1.1076 C   0  0  0  0  0  0  0  0  0  0  0  0
   -4.1577   -1.6043    1.3866 H   0  0  0  0  0  0  0  0  0  0  0  0
   -3.6807   -2.7523    0.1036 H   0  0  0  0  0  0  0  0  0  0  0  0
   -2.0477   -1.8543    1.1546 C   0  0  0  0  0  0  0  0  0  0  0  0
   -1.2227   -2.3443    1.9146 O   0  0  0  0  0  0  0  0  0  0  0  0
   -1.7517   -0.8483    0.3266 N   0  0  0  0  0  0  0  0  0  0  0  0
   -2.4847   -0.5123   -0.2804 H   0  0  0  0  0  0  0  0  0  0  0  0
   -0.4117   -0.2463    0.2186 C   0  0  1  0  0  0  0  0  0  0  0  0
    0.1554   -0.5152    1.1133 H   0  0  0  0  0  0  0  0  0  0  0  0
    0.3164   -0.8780   -0.9905 C   0  0  0  0  0  0  0  0  0  0  0  0
    0.8283   -0.0852   -1.5418 H   0  0  0  0  0  0  0  0  0  0  0  0
    1.0852   -1.5617   -0.6243 H   0  0  0  0  0  0  0  0  0  0  0  0
   -0.5724   -1.6402   -1.9504 C   0  0  0  0  0  0  0  0  0  0  0  0
   -1.9019   -1.3606   -2.2008 N   0  3  0  0  0  0  0  0  0  0  0  0
   -2.3959   -0.5585   -1.7993 H   0  0  0  0  0  0  0  0  0  0  0  0
   -2.3602   -2.2475   -3.1064 C   0  0  0  0  0  0  0  0  0  0  0  0
   -3.3706   -2.2701   -3.5097 H   0  0  0  0  0  0  0  0  0  0  0  0
   -1.3505   -3.0846   -3.4353 N   0  0  0  0  0  0  0  0  0  0  0  0
   -1.4044   -3.8531   -4.0986 H   0  0  0  0  0  0  0  0  0  0  0  0
   -0.2204   -2.7173   -2.7181 C   0  0  0  0  0  0  0  0  0  0  0  0
    0.7589   -3.1867   -2.7527 H   0  0  0  0  0  0  0  0  0  0  0  0
   -0.4874    1.2908    0.1962 C   0  0  0  0  0  0  0  0  0  0  0  0
   -1.3116    1.8673   -0.5151 O   0  0  0  0  0  0  0  0  0  0  0  0
    0.3889    1.9422    0.9708 N   0  0  0  0  0  0  0  0  0  0  0  0
    1.0197    1.3866    1.5283 H   0  0  0  0  0  0  0  0  0  0  0  0
    0.5081    3.3999    1.0720 C   0  0  0  0  0  0  0  0  0  0  0  0
    0.0188    3.7538    1.9817 H   0  0  0  0  0  0  0  0  0  0  0  0
    1.5607    3.6858    1.1098 H   0  0  0  0  0  0  0  0  0  0  0  0
    0.0459    3.8890    0.2119 H   0  0  0  0  0  0  0  0  0  0  0  0
  5  6  2  0  0  0  0
  5  7  1  0  0  0  0
  2  3  1  0  0  0  0
  2  4  1  0  0  0  0
  2  5  1  0  0  0  0
  1  2  1  0  0  0  0
 23 24  2  0  0  0  0
 23 25  1  0  0  0  0
 21 22  1  0  0  0  0
 19 20  1  0  0  0  0
 19 21  1  0  0  0  0
 17 18  1  0  0  0  0
 17 19  1  0  0  0  0
 15 16  1  0  0  0  0
 15 17  2  0  0  0  0
 14 15  1  0  0  0  0
 14 21  2  0  0  0  0
 11 12  1  0  0  0  0
 11 13  1  0  0  0  0
 11 14  1  0  0  0  0
  9 10  1  0  0  0  0
  9 11  1  0  0  0  0
  9 23  1  0  0  0  0
  7  8  1  0  0  0  0
  7  9  1  0  0  0  0
 27 28  1  0  0  0  0
 27 29  1  0  0  0  0
 27 30  1  0  0  0  0
 25 26  1  0  0  0  0
 25 27  1  0  0  0  0
M  CHG  1  15   1
M  END
$$$$
default_name
  -OEChem-02102213163D

 30 30  0     1  0  0  0  0  0999 V2000
   -3.5507   -3.2183    1.8116 H   0  0  0  0  0  0  0  0  0  0  0  0
   -3.4597   -2.3913    1.1076 C   0  0  0  0  0  0  0  0  0  0  0  0
   -4.1577   -1.6043    1.3866 H   0  0  0  0  0  0  0  0  0  0  0  0
   -3.6807   -2.7523    0.1036 H   0  0  0  0  0  0  0  0  0  0  0  0
   -2.0477   -1.8543    1.1546 C   0  0  0  0  0  0  0  0  0  0  0  0
   -1.2227   -2.3443    1.9146 O   0  0  0  0  0  0  0  0  0  0  0  0
   -1.7517   -0.8483    0.3266 N   0  0  0  0  0  0  0  0  0  0  0  0
   -2.4847   -0.5123   -0.2804 H   0  0  0  0  0  0  0  0  0  0  0  0
   -0.4117   -0.2463    0.2186 C   0  0  1  0  0  0  0  0  0  0  0  0
    0.1554   -0.5152    1.1133 H   0  0  0  0  0  0  0  0  0  0  0  0
    0.3164   -0.8780   -0.9905 C   0  0  0  0  0  0  0  0  0  0  0  0
    0.8283   -0.0852   -1.5418 H   0  0  0  0  0  0  0  0  0  0  0  0
    1.0852   -1.5617   -0.6243 H   0  0  0  0  0  0  0  0  0  0  0  0
   -0.5724   -1.6402   -1.9504 C   0  0  0  0  0  0  0  0  0  0  0  0
   -1.7940   -1.2037   -2.4253 N   0  3  0  0  0  0  0  0  0  0  0  0
   -2.1846   -0.2805   -2.2156 H   0  0  0  0  0  0  0  0  0  0  0  0
   -2.2901   -2.1449   -3.2528 C   0  0  0  0  0  0  0  0  0  0  0  0
   -3.2344   -2.0769   -3.7892 H   0  0  0  0  0  0  0  0  0  0  0  0
   -1.4101   -3.1698   -3.3126 N   0  0  0  0  0  0  0  0  0  0  0  0
   -1.5186   -4.0184   -3.8617 H   0  0  0  0  0  0  0  0  0  0  0  0
   -0.3255   -2.8691   -2.5002 C   0  0  0  0  0  0  0  0  0  0  0  0
    0.5542   -3.4830   -2.3278 H   0  0  0  0  0  0  0  0  0  0  0  0
   -0.4874    1.2908    0.1962 C   0  0  0  0  0  0  0  0  0  0  0  0
   -1.3116    1.8673   -0.5151 O   0  0  0  0  0  0  0  0  0  0  0  0
    0.3889    1.9422    0.9708 N   0  0  0  0  0  0  0  0  0  0  0  0
    1.0197    1.3866    1.5283 H   0  0  0  0  0  0  0  0  0  0  0  0
    0.5081    3.3999    1.0720 C   0  0  0  0  0  0  0  0  0  0  0  0
    0.0188    3.7538    1.9817 H   0  0  0  0  0  0  0  0  0  0  0  0
    1.5607    3.6858    1.1098 H   0  0  0  0  0  0  0  0  0  0  0  0
    0.0459    3.8890    0.2119 H   0  0  0  0  0  0  0  0  0  0  0  0
  5  6  2  0  0  0  0
  5  7  1  0  0  0  0
  2  3  1  0  0  0  0
  2  4  1  0  0  0  0
  2  5  1  0  0  0  0
  1  2  1  0  0  0  0
 23 24  2  0  0  0  0
 23 25  1  0  0  0  0
 21 22  1  0  0  0  0
 19 20  1  0  0  0  0
 19 21  1  0  0  0  0
 17 18  1  0  0  0  0
 17 19  1  0  0  0  0
 15 16  1  0  0  0  0
 15 17  2  0  0  0  0
 14 15  1  0  0  0  0
 14 21  2  0  0  0  0
 11 12  1  0  0  0  0
 11 13  1  0  0  0  0
 11 14  1  0  0  0  0
  9 10  1  0  0  0  0
  9 11  1  0  0  0  0
  9 23  1  0  0  0  0
  7  8  1  0  0  0  0
  7  9  1  0  0  0  0
 27 28  1  0  0  0  0
 27 29  1  0  0  0  0
 27 30  1  0  0  0  0
 25 26  1  0  0  0  0
 25 27  1  0  0  0  0
M  CHG  1  15   1
M  END
$$$$
default_name
  -OEChem-02102213163D

 30 30  0     1  0  0  0  0  0999 V2000
   -3.5507   -3.2183    1.8116 H   0  0  0  0  0  0  0  0  0  0  0  0
   -3.4597   -2.3913    1.1076 C   0  0  0  0  0  0  0  0  0  0  0  0
   -4.1577   -1.6043    1.3866 H   0  0  0  0  0  0  0  0  0  0  0  0
   -3.6807   -2.7523    0.1036 H   0  0  0  0  0  0  0  0  0  0  0  0
   -2.0477   -1.8543    1.1546 C   0  0  0  0  0  0  0  0  0  0  0  0
   -1.2227   -2.3443    1.9146 O   0  0  0  0  0  0  0  0  0  0  0  0
   -1.7517   -0.8483    0.3266 N   0  0  0  0  0  0  0  0  0  0  0  0
   -2.4847   -0.5123   -0.2804 H   0  0  0  0  0  0  0  0  0  0  0  0
   -0.4117   -0.2463    0.2186 C   0  0  1  0  0  0  0  0  0  0  0  0
    0.1554   -0.5152    1.1133 H   0  0  0  0  0  0  0  0  0  0  0  0
    0.3164   -0.8780   -0.9905 C   0  0  0  0  0  0  0  0  0  0  0  0
    0.8283   -0.0852   -1.5418 H   0  0  0  0  0  0  0  0  0  0  0  0
    1.0852   -1.5617   -0.6243 H   0  0  0  0  0  0  0  0  0  0  0  0
   -0.5724   -1.6402   -1.9504 C   0  0  0  0  0  0  0  0  0  0  0  0
   -1.6349   -1.1039   -2.6518 N   0  3  0  0  0  0  0  0  0  0  0  0
   -1.8806   -0.1100   -2.6326 H   0  0  0  0  0  0  0  0  0  0  0  0
   -2.1864   -2.0795   -3.4007 C   0  0  0  0  0  0  0  0  0  0  0  0
   -3.0347   -1.9552   -4.0707 H   0  0  0  0  0  0  0  0  0  0  0  0
   -1.4976   -3.2236   -3.1888 N   0  0  0  0  0  0  0  0  0  0  0  0
   -1.6868   -4.1234   -3.6226 H   0  0  0  0  0  0  0  0  0  0  0  0
   -0.4804   -2.9654   -2.2804 C   0  0  0  0  0  0  0  0  0  0  0  0
    0.2525   -3.6711   -1.8991 H   0  0  0  0  0  0  0  0  0  0  0  0
   -0.4874    1.2908    0.1962 C   0  0  0  0  0  0  0  0  0  0  0  0
   -1.3116    1.8673   -0.5151 O   0  0  0  0  0  0  0  0  0  0  0  0
    0.3889    1.9422    0.9708 N   0  0  0  0  0  0  0  0  0  0  0  0
    1.0197    1.3866    1.5283 H   0  0  0  0  0  0  0  0  0  0  0  0
    0.5081    3.3999    1.0720 C   0  0  0  0  0  0  0  0  0  0  0  0
    0.0188    3.7538    1.9817 H   0  0  0  0  0  0  0  0  0  0  0  0
    1.5607    3.6858    1.1098 H   0  0  0  0  0  0  0  0  0  0  0  0
    0.0459    3.8890    0.2119 H   0  0  0  0  0  0  0  0  0  0  0  0
  5  6  2  0  0  0  0
  5  7  1  0  0  0  0
  2  3  1  0  0  0  0
  2  4  1  0  0  0  0
  2  5  1  0  0  0  0
  1  2  1  0  0  0  0
 23 24  2  0  0  0  0
 23 25  1  0  0  0  0
 21 22  1  0  0  0  0
 19 20  1  0  0  0  0
 19 21  1  0  0  0  0
 17 18  1  0  0  0  0
 17 19  1  0  0  0  0
 15 16  1  0  0  0  0
 15 17  2  0  0  0  0
 14 15  1  0  0  0  0
 14 21  2  0  0  0  0
 11 12  1  0  0  0  0
 11 13  1  0  0  0  0
 11 14  1  0  0  0  0
  9 10  1  0  0  0  0
  9 11  1  0  0  0  0
  9 23  1  0  0  0  0
  7  8  1  0  0  0  0
  7  9  1  0  0  0  0
 27 28  1  0  0  0  0
 27 29  1  0  0  0  0
 27 30  1  0  0  0  0
 25 26  1  0  0  0  0
 25 27  1  0  0  0  0
M  CHG  1  15   1
M  END
$$$$
default_name
  -OEChem-02102213163D

 30 30  0     1  0  0  0  0  0999 V2000
   -3.5507   -3.2183    1.8116 H   0  0  0  0  0  0  0  0  0  0  0  0
   -3.4597   -2.3913    1.1076 C   0  0  0  0  0  0  0  0  0  0  0  0
   -4.1577   -1.6043    1.3866 H   0  0  0  0  0  0  0  0  0  0  0  0
   -3.6807   -2.7523    0.1036 H   0  0  0  0  0  0  0  0  0  0  0  0
   -2.0477   -1.8543    1.1546 C   0  0  0  0  0  0  0  0  0  0  0  0
   -1.2227   -2.3443    1.9146 O   0  0  0  0  0  0  0  0  0  0  0  0
   -1.7517   -0.8483    0.3266 N   0  0  0  0  0  0  0  0  0  0  0  0
   -2.4847   -0.5123   -0.2804 H   0  0  0  0  0  0  0  0  0  0  0  0
   -0.4117   -0.2463    0.2186 C   0  0  1  0  0  0  0  0  0  0  0  0
    0.1554   -0.5152    1.1133 H   0  0  0  0  0  0  0  0  0  0  0  0
    0.3164   -0.8780   -0.9905 C   0  0  0  0  0  0  0  0  0  0  0  0
    0.8283   -0.0852   -1.5418 H   0  0  0  0  0  0  0  0  0  0  0  0
    1.0852   -1.5617   -0.6243 H   0  0  0  0  0  0  0  0  0  0  0  0
   -0.5724   -1.6402   -1.9504 C   0  0  0  0  0  0  0  0  0  0  0  0
   -1.4353   -1.0681   -2.8651 N   0  3  0  0  0  0  0  0  0  0  0  0
   -1.5046   -0.0585   -3.0215 H   0  0  0  0  0  0  0  0  0  0  0  0
   -2.0563   -2.0558   -3.5399 C   0  0  0  0  0  0  0  0  0  0  0  0
   -2.7852   -1.9131   -4.3351 H   0  0  0  0  0  0  0  0  0  0  0  0
   -1.6070   -3.2425   -3.0725 N   0  0  0  0  0  0  0  0  0  0  0  0
   -1.8978   -4.1608   -3.3976 H   0  0  0  0  0  0  0  0  0  0  0  0
   -0.6745   -2.9996   -2.0736 C   0  0  0  0  0  0  0  0  0  0  0  0
   -0.1257   -3.7381   -1.4958 H   0  0  0  0  0  0  0  0  0  0  0  0
   -0.4874    1.2908    0.1962 C   0  0  0  0  0  0  0  0  0  0  0  0
   -1.3116    1.8673   -0.5151 O   0  0  0  0  0  0  0  0  0  0  0  0
    0.3889    1.9422    0.9708 N   0  0  0  0  0  0  0  0  0  0  0  0
    1.0197    1.3866    1.5283 H   0  0  0  0  0  0  0  0  0  0  0  0
    0.5081    3.3999    1.0720 C   0  0  0  0  0  0  0  0  0  0  0  0
    0.0188    3.7538    1.9817 H   0  0  0  0  0  0  0  0  0  0  0  0
    1.5607    3.6858    1.1098 H   0  0  0  0  0  0  0  0  0  0  0  0
    0.0459    3.8890    0.2119 H   0  0  0  0  0  0  0  0  0  0  0  0
  5  6  2  0  0  0  0
  5  7  1  0  0  0  0
  2  3  1  0  0  0  0
  2  4  1  0  0  0  0
  2  5  1  0  0  0  0
  1  2  1  0  0  0  0
 23 24  2  0  0  0  0
 23 25  1  0  0  0  0
 21 22  1  0  0  0  0
 19 20  1  0  0  0  0
 19 21  1  0  0  0  0
 17 18  1  0  0  0  0
 17 19  1  0  0  0  0
 15 16  1  0  0  0  0
 15 17  2  0  0  0  0
 14 15  1  0  0  0  0
 14 21  2  0  0  0  0
 11 12  1  0  0  0  0
 11 13  1  0  0  0  0
 11 14  1  0  0  0  0
  9 10  1  0  0  0  0
  9 11  1  0  0  0  0
  9 23  1  0  0  0  0
  7  8  1  0  0  0  0
  7  9  1  0  0  0  0
 27 28  1  0  0  0  0
 27 29  1  0  0  0  0
 27 30  1  0  0  0  0
 25 26  1  0  0  0  0
 25 27  1  0  0  0  0
M  CHG  1  15   1
M  END
$$$$
default_name
  -OEChem-02102213163D

 30 30  0     1  0  0  0  0  0999 V2000
   -3.5507   -3.2183    1.8116 H   0  0  0  0  0  0  0  0  0  0  0  0
   -3.4597   -2.3913    1.1076 C   0  0  0  0  0  0  0  0  0  0  0  0
   -4.1577   -1.6043    1.3866 H   0  0  0  0  0  0  0  0  0  0  0  0
   -3.6807   -2.7523    0.1036 H   0  0  0  0  0  0  0  0  0  0  0  0
   -2.0477   -1.8543    1.1546 C   0  0  0  0  0  0  0  0  0  0  0  0
   -1.2227   -2.3443    1.9146 O   0  0  0  0  0  0  0  0  0  0  0  0
   -1.7517   -0.8483    0.3266 N   0  0  0  0  0  0  0  0  0  0  0  0
   -2.4847   -0.5123   -0.2804 H   0  0  0  0  0  0  0  0  0  0  0  0
   -0.4117   -0.2463    0.2186 C   0  0  1  0  0  0  0  0  0  0  0  0
    0.1554   -0.5152    1.1133 H   0  0  0  0  0  0  0  0  0  0  0  0
    0.3164   -0.8780   -0.9905 C   0  0  0  0  0  0  0  0  0  0  0  0
    0.8283   -0.0852   -1.5418 H   0  0  0  0  0  0  0  0  0  0  0  0
    1.0852   -1.5617   -0.6243 H   0  0  0  0  0  0  0  0  0  0  0  0
   -0.5724   -1.6402   -1.9504 C   0  0  0  0  0  0  0  0  0  0  0  0
   -1.2088   -1.0987   -3.0505 N   0  3  0  0  0  0  0  0  0  0  0  0
   -1.0823   -0.1295   -3.3561 H   0  0  0  0  0  0  0  0  0  0  0  0
   -1.9086   -2.0755   -3.6611 C   0  0  0  0  0  0  0  0  0  0  0  0
   -2.5028   -1.9536   -4.5644 H   0  0  0  0  0  0  0  0  0  0  0  0
   -1.7310   -3.2250   -2.9716 N   0  0  0  0  0  0  0  0  0  0  0  0
   -2.1369   -4.1281   -3.2020 H   0  0  0  0  0  0  0  0  0  0  0  0
   -0.8944   -2.9693   -1.8939 C   0  0  0  0  0  0  0  0  0  0  0  0
   -0.5545   -3.6795   -1.1452 H   0  0  0  0  0  0  0  0  0  0  0  0
   -0.4874    1.2908    0.1962 C   0  0  0  0  0  0  0  0  0  0  0  0
   -1.3116    1.8673   -0.5151 O   0  0  0  0  0  0  0  0  0  0  0  0
    0.3889    1.9422    0.9708 N   0  0  0  0  0  0  0  0  0  0  0  0
    1.0197    1.3866    1.5283 H   0  0  0  0  0  0  0  0  0  0  0  0
    0.5081    3.3999    1.0720 C   0  0  0  0  0  0  0  0  0  0  0  0
    0.0188    3.7538    1.9817 H   0  0  0  0  0  0  0  0  0  0  0  0
    1.5607    3.6858    1.1098 H   0  0  0  0  0  0  0  0  0  0  0  0
    0.0459    3.8890    0.2119 H   0  0  0  0  0  0  0  0  0  0  0  0
  5  6  2  0  0  0  0
  5  7  1  0  0  0  0
  2  3  1  0  0  0  0
  2  4  1  0  0  0  0
  2  5  1  0  0  0  0
  1  2  1  0  0  0  0
 23 24  2  0  0  0  0
 23 25  1  0  0  0  0
 21 22  1  0  0  0  0
 19 20  1  0  0  0  0
 19 21  1  0  0  0  0
 17 18  1  0  0  0  0
 17 19  1  0  0  0  0
 15 16  1  0  0  0  0
 15 17  2  0  0  0  0
 14 15  1  0  0  0  0
 14 21  2  0  0  0  0
 11 12  1  0  0  0  0
 11 13  1  0  0  0  0
 11 14  1  0  0  0  0
  9 10  1  0  0  0  0
  9 11  1  0  0  0  0
  9 23  1  0  0  0  0
  7  8  1  0  0  0  0
  7  9  1  0  0  0  0
 27 28  1  0  0  0  0
 27 29  1  0  0  0  0
 27 30  1  0  0  0  0
 25 26  1  0  0  0  0
 25 27  1  0  0  0  0
M  CHG  1  15   1
M  END
$$$$
default_name
  -OEChem-02102213163D

 30 30  0     1  0  0  0  0  0999 V2000
   -3.5507   -3.2183    1.8116 H   0  0  0  0  0  0  0  0  0  0  0  0
   -3.4597   -2.3913    1.1076 C   0  0  0  0  0  0  0  0  0  0  0  0
   -4.1577   -1.6043    1.3866 H   0  0  0  0  0  0  0  0  0  0  0  0
   -3.6807   -2.7523    0.1036 H   0  0  0  0  0  0  0  0  0  0  0  0
   -2.0477   -1.8543    1.1546 C   0  0  0  0  0  0  0  0  0  0  0  0
   -1.2227   -2.3443    1.9146 O   0  0  0  0  0  0  0  0  0  0  0  0
   -1.7517   -0.8483    0.3266 N   0  0  0  0  0  0  0  0  0  0  0  0
   -2.4847   -0.5123   -0.2804 H   0  0  0  0  0  0  0  0  0  0  0  0
   -0.4117   -0.2463    0.2186 C   0  0  1  0  0  0  0  0  0  0  0  0
    0.1554   -0.5152    1.1133 H   0  0  0  0  0  0  0  0  0  0  0  0
    0.3164   -0.8780   -0.9905 C   0  0  0  0  0  0  0  0  0  0  0  0
    0.8283   -0.0852   -1.5418 H   0  0  0  0  0  0  0  0  0  0  0  0
    1.0852   -1.5617   -0.6243 H   0  0  0  0  0  0  0  0  0  0  0  0
   -0.5724   -1.6402   -1.9504 C   0  0  0  0  0  0  0  0  0  0  0  0
   -0.9709   -1.1935   -3.1955 N   0  3  0  0  0  0  0  0  0  0  0  0
   -0.6425   -0.3182   -3.6135 H   0  0  0  0  0  0  0  0  0  0  0  0
   -1.7534   -2.1371   -3.7559 C   0  0  0  0  0  0  0  0  0  0  0  0
   -2.2068   -2.0739   -4.7430 H   0  0  0  0  0  0  0  0  0  0  0  0
   -1.8610   -3.1725   -2.8929 N   0  0  0  0  0  0  0  0  0  0  0  0
   -2.3881   -4.0276   -3.0493 H   0  0  0  0  0  0  0  0  0  0  0  0
   -1.1254   -2.8767   -1.7536 C   0  0  0  0  0  0  0  0  0  0  0  0
   -1.0048   -3.4993   -0.8714 H   0  0  0  0  0  0  0  0  0  0  0  0
   -0.4874    1.2908    0.1962 C   0  0  0  0  0  0  0  0  0  0  0  0
   -1.3116    1.8673   -0.5151 O   0  0  0  0  0  0  0  0  0  0  0  0
    0.3889    1.9422    0.9708 N   0  0  0  0  0  0  0  0  0  0  0  0
    1.0197    1.3866    1.5283 H   0  0  0  0  0  0  0  0  0  0  0  0
    0.5081    3.3999    1.0720 C   0  0  0  0  0  0  0  0  0  0  0  0
    0.0188    3.7538    1.9817 H   0  0  0  0  0  0  0  0  0  0  0  0
    1.5607    3.6858    1.1098 H   0  0  0  0  0  0  0  0  0  0  0  0
    0.0459    3.8890    0.2119 H   0  0  0  0  0  0  0  0  0  0  0  0
  5  6  2  0  0  0  0
  5  7  1  0  0  0  0
  2  3  1  0  0  0  0
  2  4  1  0  0  0  0
  2  5  1  0  0  0  0
  1  2  1  0  0  0  0
 23 24  2  0  0  0  0
 23 25  1  0  0  0  0
 21 22  1  0  0  0  0
 19 20  1  0  0  0  0
 19 21  1  0  0  0  0
 17 18  1  0  0  0  0
 17 19  1  0  0  0  0
 15 16  1  0  0  0  0
 15 17  2  0  0  0  0
 14 15  1  0  0  0  0
 14 21  2  0  0  0  0
 11 12  1  0  0  0  0
 11 13  1  0  0  0  0
 11 14  1  0  0  0  0
  9 10  1  0  0  0  0
  9 11  1  0  0  0  0
  9 23  1  0  0  0  0
  7  8  1  0  0  0  0
  7  9  1  0  0  0  0
 27 28  1  0  0  0  0
 27 29  1  0  0  0  0
 27 30  1  0  0  0  0
 25 26  1  0  0  0  0
 25 27  1  0  0  0  0
M  CHG  1  15   1
M  END
$$$$
default_name
  -OEChem-02102213163D

 30 30  0     1  0  0  0  0  0999 V2000
   -3.5507   -3.2183    1.8116 H   0  0  0  0  0  0  0  0  0  0  0  0
   -3.4597   -2.3913    1.1076 C   0  0  0  0  0  0  0  0  0  0  0  0
   -4.1577   -1.6043    1.3866 H   0  0  0  0  0  0  0  0  0  0  0  0
   -3.6807   -2.7523    0.1036 H   0  0  0  0  0  0  0  0  0  0  0  0
   -2.0477   -1.8543    1.1546 C   0  0  0  0  0  0  0  0  0  0  0  0
   -1.2227   -2.3443    1.9146 O   0  0  0  0  0  0  0  0  0  0  0  0
   -1.7517   -0.8483    0.3266 N   0  0  0  0  0  0  0  0  0  0  0  0
   -2.4847   -0.5123   -0.2804 H   0  0  0  0  0  0  0  0  0  0  0  0
   -0.4117   -0.2463    0.2186 C   0  0  1  0  0  0  0  0  0  0  0  0
    0.1554   -0.5152    1.1133 H   0  0  0  0  0  0  0  0  0  0  0  0
    0.3164   -0.8780   -0.9905 C   0  0  0  0  0  0  0  0  0  0  0  0
    0.8283   -0.0852   -1.5418 H   0  0  0  0  0  0  0  0  0  0  0  0
    1.0852   -1.5617   -0.6243 H   0  0  0  0  0  0  0  0  0  0  0  0
   -0.5724   -1.6402   -1.9504 C   0  0  0  0  0  0  0  0  0  0  0  0
   -0.7377   -1.3462   -3.2901 N   0  3  0  0  0  0  0  0  0  0  0  0
   -0.2151   -0.6118   -3.7761 H   0  0  0  0  0  0  0  0  0  0  0  0
   -1.6012   -2.2365   -3.8178 C   0  0  0  0  0  0  0  0  0  0  0  0
   -1.9174   -2.2658   -4.8586 H   0  0  0  0  0  0  0  0  0  0  0  0
   -1.9883   -3.0885   -2.8418 N   0  0  0  0  0  0  0  0  0  0  0  0
   -2.6341   -3.8661   -2.9497 H   0  0  0  0  0  0  0  0  0  0  0  0
   -1.3515   -2.7280   -1.6623 C   0  0  0  0  0  0  0  0  0  0  0  0
   -1.4458   -3.2098   -0.6930 H   0  0  0  0  0  0  0  0  0  0  0  0
   -0.4874    1.2908    0.1962 C   0  0  0  0  0  0  0  0  0  0  0  0
   -1.3116    1.8673   -0.5151 O   0  0  0  0  0  0  0  0  0  0  0  0
    0.3889    1.9422    0.9708 N   0  0  0  0  0  0  0  0  0  0  0  0
    1.0197    1.3866    1.5283 H   0  0  0  0  0  0  0  0  0  0  0  0
    0.5081    3.3999    1.0720 C   0  0  0  0  0  0  0  0  0  0  0  0
    0.0188    3.7538    1.9817 H   0  0  0  0  0  0  0  0  0  0  0  0
    1.5607    3.6858    1.1098 H   0  0  0  0  0  0  0  0  0  0  0  0
    0.0459    3.8890    0.2119 H   0  0  0  0  0  0  0  0  0  0  0  0
  5  6  2  0  0  0  0
  5  7  1  0  0  0  0
  2  3  1  0  0  0  0
  2  4  1  0  0  0  0
  2  5  1  0  0  0  0
  1  2  1  0  0  0  0
 23 24  2  0  0  0  0
 23 25  1  0  0  0  0
 21 22  1  0  0  0  0
 19 20  1  0  0  0  0
 19 21  1  0  0  0  0
 17 18  1  0  0  0  0
 17 19  1  0  0  0  0
 15 16  1  0  0  0  0
 15 17  2  0  0  0  0
 14 15  1  0  0  0  0
 14 21  2  0  0  0  0
 11 12  1  0  0  0  0
 11 13  1  0  0  0  0
 11 14  1  0  0  0  0
  9 10  1  0  0  0  0
  9 11  1  0  0  0  0
  9 23  1  0  0  0  0
  7  8  1  0  0  0  0
  7  9  1  0  0  0  0
 27 28  1  0  0  0  0
 27 29  1  0  0  0  0
 27 30  1  0  0  0  0
 25 26  1  0  0  0  0
 25 27  1  0  0  0  0
M  CHG  1  15   1
M  END
$$$$
default_name
  -OEChem-02102213163D

 30 30  0     1  0  0  0  0  0999 V2000
   -3.5507   -3.2183    1.8116 H   0  0  0  0  0  0  0  0  0  0  0  0
   -3.4597   -2.3913    1.1076 C   0  0  0  0  0  0  0  0  0  0  0  0
   -4.1577   -1.6043    1.3866 H   0  0  0  0  0  0  0  0  0  0  0  0
   -3.6807   -2.7523    0.1036 H   0  0  0  0  0  0  0  0  0  0  0  0
   -2.0477   -1.8543    1.1546 C   0  0  0  0  0  0  0  0  0  0  0  0
   -1.2227   -2.3443    1.9146 O   0  0  0  0  0  0  0  0  0  0  0  0
   -1.7517   -0.8483    0.3266 N   0  0  0  0  0  0  0  0  0  0  0  0
   -2.4847   -0.5123   -0.2804 H   0  0  0  0  0  0  0  0  0  0  0  0
   -0.4117   -0.2463    0.2186 C   0  0  1  0  0  0  0  0  0  0  0  0
    0.1554   -0.5152    1.1133 H   0  0  0  0  0  0  0  0  0  0  0  0
    0.3164   -0.8780   -0.9905 C   0  0  0  0  0  0  0  0  0  0  0  0
    0.8283   -0.0852   -1.5418 H   0  0  0  0  0  0  0  0  0  0  0  0
    1.0852   -1.5617   -0.6243 H   0  0  0  0  0  0  0  0  0  0  0  0
   -0.5724   -1.6402   -1.9504 C   0  0  0  0  0  0  0  0  0  0  0  0
   -0.5253   -1.5464   -3.3279 N   0  3  0  0  0  0  0  0  0  0  0  0
    0.1708   -0.9902   -3.8329 H   0  0  0  0  0  0  0  0  0  0  0  0
   -1.4624   -2.3669   -3.8428 C   0  0  0  0  0  0  0  0  0  0  0  0
   -1.6543   -2.5162   -4.9034 H   0  0  0  0  0  0  0  0  0  0  0  0
   -2.1040   -2.9787   -2.8218 N   0  0  0  0  0  0  0  0  0  0  0  0
   -2.8582   -3.6547   -2.9102 H   0  0  0  0  0  0  0  0  0  0  0  0
   -1.5575   -2.5334   -1.6261 C   0  0  0  0  0  0  0  0  0  0  0  0
   -1.8476   -2.8306   -0.6221 H   0  0  0  0  0  0  0  0  0  0  0  0
   -0.4874    1.2908    0.1962 C   0  0  0  0  0  0  0  0  0  0  0  0
   -1.3116    1.8673   -0.5151 O   0  0  0  0  0  0  0  0  0  0  0  0
    0.3889    1.9422    0.9708 N   0  0  0  0  0  0  0  0  0  0  0  0
    1.0197    1.3866    1.5283 H   0  0  0  0  0  0  0  0  0  0  0  0
    0.5081    3.3999    1.0720 C   0  0  0  0  0  0  0  0  0  0  0  0
    0.0188    3.7538    1.9817 H   0  0  0  0  0  0  0  0  0  0  0  0
    1.5607    3.6858    1.1098 H   0  0  0  0  0  0  0  0  0  0  0  0
    0.0459    3.8890    0.2119 H   0  0  0  0  0  0  0  0  0  0  0  0
  5  6  2  0  0  0  0
  5  7  1  0  0  0  0
  2  3  1  0  0  0  0
  2  4  1  0  0  0  0
  2  5  1  0  0  0  0
  1  2  1  0  0  0  0
 23 24  2  0  0  0  0
 23 25  1  0  0  0  0
 21 22  1  0  0  0  0
 19 20  1  0  0  0  0
 19 21  1  0  0  0  0
 17 18  1  0  0  0  0
 17 19  1  0  0  0  0
 15 16  1  0  0  0  0
 15 17  2  0  0  0  0
 14 15  1  0  0  0  0
 14 21  2  0  0  0  0
 11 12  1  0  0  0  0
 11 13  1  0  0  0  0
 11 14  1  0  0  0  0
  9 10  1  0  0  0  0
  9 11  1  0  0  0  0
  9 23  1  0  0  0  0
  7  8  1  0  0  0  0
  7  9  1  0  0  0  0
 27 28  1  0  0  0  0
 27 29  1  0  0  0  0
 27 30  1  0  0  0  0
 25 26  1  0  0  0  0
 25 27  1  0  0  0  0
M  CHG  1  15   1
M  END
$$$$
default_name
  -OEChem-02102213163D

 30 30  0     1  0  0  0  0  0999 V2000
   -3.5507   -3.2183    1.8116 H   0  0  0  0  0  0  0  0  0  0  0  0
   -3.4597   -2.3913    1.1076 C   0  0  0  0  0  0  0  0  0  0  0  0
   -4.1577   -1.6043    1.3866 H   0  0  0  0  0  0  0  0  0  0  0  0
   -3.6807   -2.7523    0.1036 H   0  0  0  0  0  0  0  0  0  0  0  0
   -2.0477   -1.8543    1.1546 C   0  0  0  0  0  0  0  0  0  0  0  0
   -1.2227   -2.3443    1.9146 O   0  0  0  0  0  0  0  0  0  0  0  0
   -1.7517   -0.8483    0.3266 N   0  0  0  0  0  0  0  0  0  0  0  0
   -2.4847   -0.5123   -0.2804 H   0  0  0  0  0  0  0  0  0  0  0  0
   -0.4117   -0.2463    0.2186 C   0  0  1  0  0  0  0  0  0  0  0  0
    0.1554   -0.5152    1.1133 H   0  0  0  0  0  0  0  0  0  0  0  0
    0.3164   -0.8780   -0.9905 C   0  0  0  0  0  0  0  0  0  0  0  0
    0.8283   -0.0852   -1.5418 H   0  0  0  0  0  0  0  0  0  0  0  0
    1.0852   -1.5617   -0.6243 H   0  0  0  0  0  0  0  0  0  0  0  0
   -0.5724   -1.6402   -1.9504 C   0  0  0  0  0  0  0  0  0  0  0  0
   -0.3480   -1.7803   -3.3063 N   0  3  0  0  0  0  0  0  0  0  0  0
    0.4888   -1.4277   -3.7800 H   0  0  0  0  0  0  0  0  0  0  0  0
   -1.3465   -2.5194   -3.8290 C   0  0  0  0  0  0  0  0  0  0  0  0
   -1.4354   -2.8080   -4.8744 H   0  0  0  0  0  0  0  0  0  0  0  0
   -2.2005   -2.8506   -2.8342 N   0  0  0  0  0  0  0  0  0  0  0  0
   -3.0451   -3.4076   -2.9333 H   0  0  0  0  0  0  0  0  0  0  0  0
   -1.7292   -2.3062   -1.6476 C   0  0  0  0  0  0  0  0  0  0  0  0
   -2.1826   -2.3877   -0.6636 H   0  0  0  0  0  0  0  0  0  0  0  0
   -0.4874    1.2908    0.1962 C   0  0  0  0  0  0  0  0  0  0  0  0
   -1.3116    1.8673   -0.5151 O   0  0  0  0  0  0  0  0  0  0  0  0
    0.3889    1.9422    0.9708 N   0  0  0  0  0  0  0  0  0  0  0  0
    1.0197    1.3866    1.5283 H   0  0  0  0  0  0  0  0  0  0  0  0
    0.5081    3.3999    1.0720 C   0  0  0  0  0  0  0  0  0  0  0  0
    0.0188    3.7538    1.9817 H   0  0  0  0  0  0  0  0  0  0  0  0
    1.5607    3.6858    1.1098 H   0  0  0  0  0  0  0  0  0  0  0  0
    0.0459    3.8890    0.2119 H   0  0  0  0  0  0  0  0  0  0  0  0
  5  6  2  0  0  0  0
  5  7  1  0  0  0  0
  2  3  1  0  0  0  0
  2  4  1  0  0  0  0
  2  5  1  0  0  0  0
  1  2  1  0  0  0  0
 23 24  2  0  0  0  0
 23 25  1  0  0  0  0
 21 22  1  0  0  0  0
 19 20  1  0  0  0  0
 19 21  1  0  0  0  0
 17 18  1  0  0  0  0
 17 19  1  0  0  0  0
 15 16  1  0  0  0  0
 15 17  2  0  0  0  0
 14 15  1  0  0  0  0
 14 21  2  0  0  0  0
 11 12  1  0  0  0  0
 11 13  1  0  0  0  0
 11 14  1  0  0  0  0
  9 10  1  0  0  0  0
  9 11  1  0  0  0  0
  9 23  1  0  0  0  0
  7  8  1  0  0  0  0
  7  9  1  0  0  0  0
 27 28  1  0  0  0  0
 27 29  1  0  0  0  0
 27 30  1  0  0  0  0
 25 26  1  0  0  0  0
 25 27  1  0  0  0  0
M  CHG  1  15   1
M  END
$$$$
default_name
  -OEChem-02102213163D

 30 30  0     1  0  0  0  0  0999 V2000
   -3.5507   -3.2183    1.8116 H   0  0  0  0  0  0  0  0  0  0  0  0
   -3.4597   -2.3913    1.1076 C   0  0  0  0  0  0  0  0  0  0  0  0
   -4.1577   -1.6043    1.3866 H   0  0  0  0  0  0  0  0  0  0  0  0
   -3.6807   -2.7523    0.1036 H   0  0  0  0  0  0  0  0  0  0  0  0
   -2.0477   -1.8543    1.1546 C   0  0  0  0  0  0  0  0  0  0  0  0
   -1.2227   -2.3443    1.9146 O   0  0  0  0  0  0  0  0  0  0  0  0
   -1.7517   -0.8483    0.3266 N   0  0  0  0  0  0  0  0  0  0  0  0
   -2.4847   -0.5123   -0.2804 H   0  0  0  0  0  0  0  0  0  0  0  0
   -0.4117   -0.2463    0.2186 C   0  0  1  0  0  0  0  0  0  0  0  0
    0.1554   -0.5152    1.1133 H   0  0  0  0  0  0  0  0  0  0  0  0
    0.3164   -0.8780   -0.9905 C   0  0  0  0  0  0  0  0  0  0  0  0
    0.8283   -0.0852   -1.5418 H   0  0  0  0  0  0  0  0  0  0  0  0
    1.0852   -1.5617   -0.6243 H   0  0  0  0  0  0  0  0  0  0  0  0
   -0.5724   -1.6402   -1.9504 C   0  0  0  0  0  0  0  0  0  0  0  0
   -0.2179   -2.0320   -3.2269 N   0  3  0  0  0  0  0  0  0  0  0  0
    0.7173   -1.8944   -3.6209 H   0  0  0  0  0  0  0  0  0  0  0  0
   -1.2614   -2.6837   -3.7774 C   0  0  0  0  0  0  0  0  0  0  0  0
   -1.2756   -3.1214   -4.7734 H   0  0  0  0  0  0  0  0  0  0  0  0
   -2.2710   -2.7129   -2.8782 N   0  0  0  0  0  0  0  0  0  0  0  0
   -3.1821   -3.1418   -3.0175 H   0  0  0  0  0  0  0  0  0  0  0  0
   -1.8550   -2.0618   -1.7252 C   0  0  0  0  0  0  0  0  0  0  0  0
   -2.4282   -1.9111   -0.8146 H   0  0  0  0  0  0  0  0  0  0  0  0
   -0.4874    1.2908    0.1962 C   0  0  0  0  0  0  0  0  0  0  0  0
   -1.3116    1.8673   -0.5151 O   0  0  0  0  0  0  0  0  0  0  0  0
    0.3889    1.9422    0.9708 N   0  0  0  0  0  0  0  0  0  0  0  0
    1.0197    1.3866    1.5283 H   0  0  0  0  0  0  0  0  0  0  0  0
    0.5081    3.3999    1.0720 C   0  0  0  0  0  0  0  0  0  0  0  0
    0.0188    3.7538    1.9817 H   0  0  0  0  0  0  0  0  0  0  0  0
    1.5607    3.6858    1.1098 H   0  0  0  0  0  0  0  0  0  0  0  0
    0.0459    3.8890    0.2119 H   0  0  0  0  0  0  0  0  0  0  0  0
  5  6  2  0  0  0  0
  5  7  1  0  0  0  0
  2  3  1  0  0  0  0
  2  4  1  0  0  0  0
  2  5  1  0  0  0  0
  1  2  1  0  0  0  0
 23 24  2  0  0  0  0
 23 25  1  0  0  0  0
 21 22  1  0  0  0  0
 19 20  1  0  0  0  0
 19 21  1  0  0  0  0
 17 18  1  0  0  0  0
 17 19  1  0  0  0  0
 15 16  1  0  0  0  0
 15 17  2  0  0  0  0
 14 15  1  0  0  0  0
 14 21  2  0  0  0  0
 11 12  1  0  0  0  0
 11 13  1  0  0  0  0
 11 14  1  0  0  0  0
  9 10  1  0  0  0  0
  9 11  1  0  0  0  0
  9 23  1  0  0  0  0
  7  8  1  0  0  0  0
  7  9  1  0  0  0  0
 27 28  1  0  0  0  0
 27 29  1  0  0  0  0
 27 30  1  0  0  0  0
 25 26  1  0  0  0  0
 25 27  1  0  0  0  0
M  CHG  1  15   1
M  END
$$$$
default_name
  -OEChem-02102213163D

 30 30  0     1  0  0  0  0  0999 V2000
   -3.5507   -3.2183    1.8116 H   0  0  0  0  0  0  0  0  0  0  0  0
   -3.4597   -2.3913    1.1076 C   0  0  0  0  0  0  0  0  0  0  0  0
   -4.1577   -1.6043    1.3866 H   0  0  0  0  0  0  0  0  0  0  0  0
   -3.6807   -2.7523    0.1036 H   0  0  0  0  0  0  0  0  0  0  0  0
   -2.0477   -1.8543    1.1546 C   0  0  0  0  0  0  0  0  0  0  0  0
   -1.2227   -2.3443    1.9146 O   0  0  0  0  0  0  0  0  0  0  0  0
   -1.7517   -0.8483    0.3266 N   0  0  0  0  0  0  0  0  0  0  0  0
   -2.4847   -0.5123   -0.2804 H   0  0  0  0  0  0  0  0  0  0  0  0
   -0.4117   -0.2463    0.2186 C   0  0  1  0  0  0  0  0  0  0  0  0
    0.1554   -0.5152    1.1133 H   0  0  0  0  0  0  0  0  0  0  0  0
    0.3164   -0.8780   -0.9905 C   0  0  0  0  0  0  0  0  0  0  0  0
    1.0352   -0.1535   -1.3816 H   0  0  0  0  0  0  0  0  0  0  0  0
    0.8876   -1.7436   -0.6482 H   0  0  0  0  0  0  0  0  0  0  0  0
   -0.5846   -1.3264   -2.1217 C   0  0  0  0  0  0  0  0  0  0  0  0
   -0.1582   -1.9148   -3.2966 N   0  3  0  0  0  0  0  0  0  0  0  0
    0.8179   -2.1624   -3.4828 H   0  0  0  0  0  0  0  0  0  0  0  0
   -1.2387   -2.1733   -4.0598 C   0  0  0  0  0  0  0  0  0  0  0  0
   -1.2189   -2.6472   -5.0390 H   0  0  0  0  0  0  0  0  0  0  0  0
   -2.3415   -1.7605   -3.3950 N   0  0  0  0  0  0  0  0  0  0  0  0
   -3.2999   -1.8311   -3.7268 H   0  0  0  0  0  0  0  0  0  0  0  0
   -1.9485   -1.2258   -2.1759 C   0  0  0  0  0  0  0  0  0  0  0  0
   -2.5910   -0.8069   -1.4064 H   0  0  0  0  0  0  0  0  0  0  0  0
   -0.4874    1.2908    0.1962 C   0  0  0  0  0  0  0  0  0  0  0  0
   -1.3116    1.8673   -0.5151 O   0  0  0  0  0  0  0  0  0  0  0  0
    0.3889    1.9422    0.9708 N   0  0  0  0  0  0  0  0  0  0  0  0
    1.0197    1.3866    1.5283 H   0  0  0  0  0  0  0  0  0  0  0  0
    0.5081    3.3999    1.0720 C   0  0  0  0  0  0  0  0  0  0  0  0
    0.0188    3.7538    1.9817 H   0  0  0  0  0  0  0  0  0  0  0  0
    1.5607    3.6858    1.1098 H   0  0  0  0  0  0  0  0  0  0  0  0
    0.0459    3.8890    0.2119 H   0  0  0  0  0  0  0  0  0  0  0  0
  5  6  2  0  0  0  0
  5  7  1  0  0  0  0
  2  3  1  0  0  0  0
  2  4  1  0  0  0  0
  2  5  1  0  0  0  0
  1  2  1  0  0  0  0
 23 24  2  0  0  0  0
 23 25  1  0  0  0  0
 21 22  1  0  0  0  0
 19 20  1  0  0  0  0
 19 21  1  0  0  0  0
 17 18  1  0  0  0  0
 17 19  1  0  0  0  0
 15 16  1  0  0  0  0
 15 17  2  0  0  0  0
 14 15  1  0  0  0  0
 14 21  2  0  0  0  0
 11 12  1  0  0  0  0
 11 13  1  0  0  0  0
 11 14  1  0  0  0  0
  9 10  1  0  0  0  0
  9 11  1  0  0  0  0
  9 23  1  0  0  0  0
  7  8  1  0  0  0  0
  7  9  1  0  0  0  0
 27 28  1  0  0  0  0
 27 29  1  0  0  0  0
 27 30  1  0  0  0  0
 25 26  1  0  0  0  0
 25 27  1  0  0  0  0
M  CHG  1  15   1
M  END
$$$$
default_name
  -OEChem-02102213163D

 30 30  0     1  0  0  0  0  0999 V2000
   -3.5507   -3.2183    1.8116 H   0  0  0  0  0  0  0  0  0  0  0  0
   -3.4597   -2.3913    1.1076 C   0  0  0  0  0  0  0  0  0  0  0  0
   -4.1577   -1.6043    1.3866 H   0  0  0  0  0  0  0  0  0  0  0  0
   -3.6807   -2.7523    0.1036 H   0  0  0  0  0  0  0  0  0  0  0  0
   -2.0477   -1.8543    1.1546 C   0  0  0  0  0  0  0  0  0  0  0  0
   -1.2227   -2.3443    1.9146 O   0  0  0  0  0  0  0  0  0  0  0  0
   -1.7517   -0.8483    0.3266 N   0  0  0  0  0  0  0  0  0  0  0  0
   -2.4847   -0.5123   -0.2804 H   0  0  0  0  0  0  0  0  0  0  0  0
   -0.4117   -0.2463    0.2186 C   0  0  1  0  0  0  0  0  0  0  0  0
    0.1554   -0.5152    1.1133 H   0  0  0  0  0  0  0  0  0  0  0  0
    0.3164   -0.8780   -0.9905 C   0  0  0  0  0  0  0  0  0  0  0  0
    1.0352   -0.1535   -1.3816 H   0  0  0  0  0  0  0  0  0  0  0  0
    0.8876   -1.7436   -0.6482 H   0  0  0  0  0  0  0  0  0  0  0  0
   -0.5846   -1.3264   -2.1217 C   0  0  0  0  0  0  0  0  0  0  0  0
   -0.2127   -2.1662   -3.1536 N   0  3  0  0  0  0  0  0  0  0  0  0
    0.7040   -2.6191   -3.2112 H   0  0  0  0  0  0  0  0  0  0  0  0
   -1.2740   -2.3374   -3.9666 C   0  0  0  0  0  0  0  0  0  0  0  0
   -1.2889   -2.9586   -4.8599 H   0  0  0  0  0  0  0  0  0  0  0  0
   -2.3111   -1.6235   -3.4735 N   0  0  0  0  0  0  0  0  0  0  0  0
   -3.2420   -1.5659   -3.8780 H   0  0  0  0  0  0  0  0  0  0  0  0
   -1.8951   -0.9821   -2.3150 C   0  0  0  0  0  0  0  0  0  0  0  0
   -2.4873   -0.3315   -1.6774 H   0  0  0  0  0  0  0  0  0  0  0  0
   -0.4874    1.2908    0.1962 C   0  0  0  0  0  0  0  0  0  0  0  0
   -1.3116    1.8673   -0.5151 O   0  0  0  0  0  0  0  0  0  0  0  0
    0.3889    1.9422    0.9708 N   0  0  0  0  0  0  0  0  0  0  0  0
    1.0197    1.3866    1.5283 H   0  0  0  0  0  0  0  0  0  0  0  0
    0.5081    3.3999    1.0720 C   0  0  0  0  0  0  0  0  0  0  0  0
    0.0188    3.7538    1.9817 H   0  0  0  0  0  0  0  0  0  0  0  0
    1.5607    3.6858    1.1098 H   0  0  0  0  0  0  0  0  0  0  0  0
    0.0459    3.8890    0.2119 H   0  0  0  0  0  0  0  0  0  0  0  0
  5  6  2  0  0  0  0
  5  7  1  0  0  0  0
  2  3  1  0  0  0  0
  2  4  1  0  0  0  0
  2  5  1  0  0  0  0
  1  2  1  0  0  0  0
 23 24  2  0  0  0  0
 23 25  1  0  0  0  0
 21 22  1  0  0  0  0
 19 20  1  0  0  0  0
 19 21  1  0  0  0  0
 17 18  1  0  0  0  0
 17 19  1  0  0  0  0
 15 16  1  0  0  0  0
 15 17  2  0  0  0  0
 14 15  1  0  0  0  0
 14 21  2  0  0  0  0
 11 12  1  0  0  0  0
 11 13  1  0  0  0  0
 11 14  1  0  0  0  0
  9 10  1  0  0  0  0
  9 11  1  0  0  0  0
  9 23  1  0  0  0  0
  7  8  1  0  0  0  0
  7  9  1  0  0  0  0
 27 28  1  0  0  0  0
 27 29  1  0  0  0  0
 27 30  1  0  0  0  0
 25 26  1  0  0  0  0
 25 27  1  0  0  0  0
M  CHG  1  15   1
M  END
$$$$
default_name
  -OEChem-02102213163D

 30 30  0     1  0  0  0  0  0999 V2000
   -3.5507   -3.2183    1.8116 H   0  0  0  0  0  0  0  0  0  0  0  0
   -3.4597   -2.3913    1.1076 C   0  0  0  0  0  0  0  0  0  0  0  0
   -4.1577   -1.6043    1.3866 H   0  0  0  0  0  0  0  0  0  0  0  0
   -3.6807   -2.7523    0.1036 H   0  0  0  0  0  0  0  0  0  0  0  0
   -2.0477   -1.8543    1.1546 C   0  0  0  0  0  0  0  0  0  0  0  0
   -1.2227   -2.3443    1.9146 O   0  0  0  0  0  0  0  0  0  0  0  0
   -1.7517   -0.8483    0.3266 N   0  0  0  0  0  0  0  0  0  0  0  0
   -2.4847   -0.5123   -0.2804 H   0  0  0  0  0  0  0  0  0  0  0  0
   -0.4117   -0.2463    0.2186 C   0  0  1  0  0  0  0  0  0  0  0  0
    0.1554   -0.5152    1.1133 H   0  0  0  0  0  0  0  0  0  0  0  0
    0.3164   -0.8780   -0.9905 C   0  0  0  0  0  0  0  0  0  0  0  0
    1.0352   -0.1535   -1.3816 H   0  0  0  0  0  0  0  0  0  0  0  0
    0.8876   -1.7436   -0.6482 H   0  0  0  0  0  0  0  0  0  0  0  0
   -0.5846   -1.3264   -2.1217 C   0  0  0  0  0  0  0  0  0  0  0  0
   -0.3249   -2.3765   -2.9809 N   0  3  0  0  0  0  0  0  0  0  0  0
    0.4849   -2.9963   -2.8871 H   0  0  0  0  0  0  0  0  0  0  0  0
   -1.3470   -2.4749   -3.8540 C   0  0  0  0  0  0  0  0  0  0  0  0
   -1.4304   -3.2182   -4.6442 H   0  0  0  0  0  0  0  0  0  0  0  0
   -2.2492   -1.5091   -3.5682 N   0  0  0  0  0  0  0  0  0  0  0  0
   -3.1233   -1.3443   -4.0604 H   0  0  0  0  0  0  0  0  0  0  0  0
   -1.7858   -0.7785   -2.4828 C   0  0  0  0  0  0  0  0  0  0  0  0
   -2.2744    0.0658   -2.0045 H   0  0  0  0  0  0  0  0  0  0  0  0
   -0.4874    1.2908    0.1962 C   0  0  0  0  0  0  0  0  0  0  0  0
   -1.3116    1.8673   -0.5151 O   0  0  0  0  0  0  0  0  0  0  0  0
    0.3889    1.9422    0.9708 N   0  0  0  0  0  0  0  0  0  0  0  0
    1.0197    1.3866    1.5283 H   0  0  0  0  0  0  0  0  0  0  0  0
    0.5081    3.3999    1.0720 C   0  0  0  0  0  0  0  0  0  0  0  0
    0.0188    3.7538    1.9817 H   0  0  0  0  0  0  0  0  0  0  0  0
    1.5607    3.6858    1.1098 H   0  0  0  0  0  0  0  0  0  0  0  0
    0.0459    3.8890    0.2119 H   0  0  0  0  0  0  0  0  0  0  0  0
  5  6  2  0  0  0  0
  5  7  1  0  0  0  0
  2  3  1  0  0  0  0
  2  4  1  0  0  0  0
  2  5  1  0  0  0  0
  1  2  1  0  0  0  0
 23 24  2  0  0  0  0
 23 25  1  0  0  0  0
 21 22  1  0  0  0  0
 19 20  1  0  0  0  0
 19 21  1  0  0  0  0
 17 18  1  0  0  0  0
 17 19  1  0  0  0  0
 15 16  1  0  0  0  0
 15 17  2  0  0  0  0
 14 15  1  0  0  0  0
 14 21  2  0  0  0  0
 11 12  1  0  0  0  0
 11 13  1  0  0  0  0
 11 14  1  0  0  0  0
  9 10  1  0  0  0  0
  9 11  1  0  0  0  0
  9 23  1  0  0  0  0
  7  8  1  0  0  0  0
  7  9  1  0  0  0  0
 27 28  1  0  0  0  0
 27 29  1  0  0  0  0
 27 30  1  0  0  0  0
 25 26  1  0  0  0  0
 25 27  1  0  0  0  0
M  CHG  1  15   1
M  END
$$$$
default_name
  -OEChem-02102213163D

 30 30  0     1  0  0  0  0  0999 V2000
   -3.5507   -3.2183    1.8116 H   0  0  0  0  0  0  0  0  0  0  0  0
   -3.4597   -2.3913    1.1076 C   0  0  0  0  0  0  0  0  0  0  0  0
   -4.1577   -1.6043    1.3866 H   0  0  0  0  0  0  0  0  0  0  0  0
   -3.6807   -2.7523    0.1036 H   0  0  0  0  0  0  0  0  0  0  0  0
   -2.0477   -1.8543    1.1546 C   0  0  0  0  0  0  0  0  0  0  0  0
   -1.2227   -2.3443    1.9146 O   0  0  0  0  0  0  0  0  0  0  0  0
   -1.7517   -0.8483    0.3266 N   0  0  0  0  0  0  0  0  0  0  0  0
   -2.4847   -0.5123   -0.2804 H   0  0  0  0  0  0  0  0  0  0  0  0
   -0.4117   -0.2463    0.2186 C   0  0  1  0  0  0  0  0  0  0  0  0
    0.1554   -0.5152    1.1133 H   0  0  0  0  0  0  0  0  0  0  0  0
    0.3164   -0.8780   -0.9905 C   0  0  0  0  0  0  0  0  0  0  0  0
    1.0352   -0.1535   -1.3816 H   0  0  0  0  0  0  0  0  0  0  0  0
    0.8876   -1.7436   -0.6482 H   0  0  0  0  0  0  0  0  0  0  0  0
   -0.5846   -1.3264   -2.1217 C   0  0  0  0  0  0  0  0  0  0  0  0
   -0.4871   -2.5313   -2.7903 N   0  3  0  0  0  0  0  0  0  0  0  0
    0.1755   -3.2684   -2.5328 H   0  0  0  0  0  0  0  0  0  0  0  0
   -1.4526   -2.5762   -3.7297 C   0  0  0  0  0  0  0  0  0  0  0  0
   -1.6339   -3.4085   -4.4068 H   0  0  0  0  0  0  0  0  0  0  0  0
   -2.1600   -1.4252   -3.6724 N   0  0  0  0  0  0  0  0  0  0  0  0
   -2.9518   -1.1812   -4.2616 H   0  0  0  0  0  0  0  0  0  0  0  0
   -1.6279   -0.6288   -2.6679 C   0  0  0  0  0  0  0  0  0  0  0  0
   -1.9668    0.3581   -2.3653 H   0  0  0  0  0  0  0  0  0  0  0  0
   -0.4874    1.2908    0.1962 C   0  0  0  0  0  0  0  0  0  0  0  0
   -1.3116    1.8673   -0.5151 O   0  0  0  0  0  0  0  0  0  0  0  0
    0.3889    1.9422    0.9708 N   0  0  0  0  0  0  0  0  0  0  0  0
    1.0197    1.3866    1.5283 H   0  0  0  0  0  0  0  0  0  0  0  0
    0.5081    3.3999    1.0720 C   0  0  0  0  0  0  0  0  0  0  0  0
    0.0188    3.7538    1.9817 H   0  0  0  0  0  0  0  0  0  0  0  0
    1.5607    3.6858    1.1098 H   0  0  0  0  0  0  0  0  0  0  0  0
    0.0459    3.8890    0.2119 H   0  0  0  0  0  0  0  0  0  0  0  0
  5  6  2  0  0  0  0
  5  7  1  0  0  0  0
  2  3  1  0  0  0  0
  2  4  1  0  0  0  0
  2  5  1  0  0  0  0
  1  2  1  0  0  0  0
 23 24  2  0  0  0  0
 23 25  1  0  0  0  0
 21 22  1  0  0  0  0
 19 20  1  0  0  0  0
 19 21  1  0  0  0  0
 17 18  1  0  0  0  0
 17 19  1  0  0  0  0
 15 16  1  0  0  0  0
 15 17  2  0  0  0  0
 14 15  1  0  0  0  0
 14 21  2  0  0  0  0
 11 12  1  0  0  0  0
 11 13  1  0  0  0  0
 11 14  1  0  0  0  0
  9 10  1  0  0  0  0
  9 11  1  0  0  0  0
  9 23  1  0  0  0  0
  7  8  1  0  0  0  0
  7  9  1  0  0  0  0
 27 28  1  0  0  0  0
 27 29  1  0  0  0  0
 27 30  1  0  0  0  0
 25 26  1  0  0  0  0
 25 27  1  0  0  0  0
M  CHG  1  15   1
M  END
$$$$
default_name
  -OEChem-02102213163D

 30 30  0     1  0  0  0  0  0999 V2000
   -3.5507   -3.2183    1.8116 H   0  0  0  0  0  0  0  0  0  0  0  0
   -3.4597   -2.3913    1.1076 C   0  0  0  0  0  0  0  0  0  0  0  0
   -4.1577   -1.6043    1.3866 H   0  0  0  0  0  0  0  0  0  0  0  0
   -3.6807   -2.7523    0.1036 H   0  0  0  0  0  0  0  0  0  0  0  0
   -2.0477   -1.8543    1.1546 C   0  0  0  0  0  0  0  0  0  0  0  0
   -1.2227   -2.3443    1.9146 O   0  0  0  0  0  0  0  0  0  0  0  0
   -1.7517   -0.8483    0.3266 N   0  0  0  0  0  0  0  0  0  0  0  0
   -2.4847   -0.5123   -0.2804 H   0  0  0  0  0  0  0  0  0  0  0  0
   -0.4117   -0.2463    0.2186 C   0  0  1  0  0  0  0  0  0  0  0  0
    0.1554   -0.5152    1.1133 H   0  0  0  0  0  0  0  0  0  0  0  0
    0.3164   -0.8780   -0.9905 C   0  0  0  0  0  0  0  0  0  0  0  0
    1.0352   -0.1535   -1.3816 H   0  0  0  0  0  0  0  0  0  0  0  0
    0.8876   -1.7436   -0.6482 H   0  0  0  0  0  0  0  0  0  0  0  0
   -0.5846   -1.3264   -2.1217 C   0  0  0  0  0  0  0  0  0  0  0  0
   -0.6884   -2.6201   -2.5948 N   0  3  0  0  0  0  0  0  0  0  0  0
   -0.2032   -3.4169   -2.1724 H   0  0  0  0  0  0  0  0  0  0  0  0
   -1.5838   -2.6344   -3.6021 C   0  0  0  0  0  0  0  0  0  0  0  0
   -1.8854   -3.5163   -4.1638 H   0  0  0  0  0  0  0  0  0  0  0  0
   -2.0497   -1.3774   -3.7792 N   0  0  0  0  0  0  0  0  0  0  0  0
   -2.7391   -1.0879   -4.4680 H   0  0  0  0  0  0  0  0  0  0  0  0
   -1.4322   -0.5432   -2.8576 C   0  0  0  0  0  0  0  0  0  0  0  0
   -1.5856    0.5254   -2.7352 H   0  0  0  0  0  0  0  0  0  0  0  0
   -0.4874    1.2908    0.1962 C   0  0  0  0  0  0  0  0  0  0  0  0
   -1.3116    1.8673   -0.5151 O   0  0  0  0  0  0  0  0  0  0  0  0
    0.3889    1.9422    0.9708 N   0  0  0  0  0  0  0  0  0  0  0  0
    1.0197    1.3866    1.5283 H   0  0  0  0  0  0  0  0  0  0  0  0
    0.5081    3.3999    1.0720 C   0  0  0  0  0  0  0  0  0  0  0  0
    0.0188    3.7538    1.9817 H   0  0  0  0  0  0  0  0  0  0  0  0
    1.5607    3.6858    1.1098 H   0  0  0  0  0  0  0  0  0  0  0  0
    0.0459    3.8890    0.2119 H   0  0  0  0  0  0  0  0  0  0  0  0
  5  6  2  0  0  0  0
  5  7  1  0  0  0  0
  2  3  1  0  0  0  0
  2  4  1  0  0  0  0
  2  5  1  0  0  0  0
  1  2  1  0  0  0  0
 23 24  2  0  0  0  0
 23 25  1  0  0  0  0
 21 22  1  0  0  0  0
 19 20  1  0  0  0  0
 19 21  1  0  0  0  0
 17 18  1  0  0  0  0
 17 19  1  0  0  0  0
 15 16  1  0  0  0  0
 15 17  2  0  0  0  0
 14 15  1  0  0  0  0
 14 21  2  0  0  0  0
 11 12  1  0  0  0  0
 11 13  1  0  0  0  0
 11 14  1  0  0  0  0
  9 10  1  0  0  0  0
  9 11  1  0  0  0  0
  9 23  1  0  0  0  0
  7  8  1  0  0  0  0
  7  9  1  0  0  0  0
 27 28  1  0  0  0  0
 27 29  1  0  0  0  0
 27 30  1  0  0  0  0
 25 26  1  0  0  0  0
 25 27  1  0  0  0  0
M  CHG  1  15   1
M  END
$$$$
default_name
  -OEChem-02102213163D

 30 30  0     1  0  0  0  0  0999 V2000
   -3.5507   -3.2183    1.8116 H   0  0  0  0  0  0  0  0  0  0  0  0
   -3.4597   -2.3913    1.1076 C   0  0  0  0  0  0  0  0  0  0  0  0
   -4.1577   -1.6043    1.3866 H   0  0  0  0  0  0  0  0  0  0  0  0
   -3.6807   -2.7523    0.1036 H   0  0  0  0  0  0  0  0  0  0  0  0
   -2.0477   -1.8543    1.1546 C   0  0  0  0  0  0  0  0  0  0  0  0
   -1.2227   -2.3443    1.9146 O   0  0  0  0  0  0  0  0  0  0  0  0
   -1.7517   -0.8483    0.3266 N   0  0  0  0  0  0  0  0  0  0  0  0
   -2.4847   -0.5123   -0.2804 H   0  0  0  0  0  0  0  0  0  0  0  0
   -0.4117   -0.2463    0.2186 C   0  0  1  0  0  0  0  0  0  0  0  0
    0.1554   -0.5152    1.1133 H   0  0  0  0  0  0  0  0  0  0  0  0
    0.3164   -0.8780   -0.9905 C   0  0  0  0  0  0  0  0  0  0  0  0
    1.0352   -0.1535   -1.3816 H   0  0  0  0  0  0  0  0  0  0  0  0
    0.8876   -1.7436   -0.6482 H   0  0  0  0  0  0  0  0  0  0  0  0
   -0.5846   -1.3264   -2.1217 C   0  0  0  0  0  0  0  0  0  0  0  0
   -0.9150   -2.6369   -2.4078 N   0  3  0  0  0  0  0  0  0  0  0  0
   -0.6252   -3.4316   -1.8305 H   0  0  0  0  0  0  0  0  0  0  0  0
   -1.7316   -2.6457   -3.4800 C   0  0  0  0  0  0  0  0  0  0  0  0
   -2.1678   -3.5344   -3.9317 H   0  0  0  0  0  0  0  0  0  0  0  0
   -1.9257   -1.3691   -3.8813 N   0  0  0  0  0  0  0  0  0  0  0  0
   -2.4999   -1.0706   -4.6654 H   0  0  0  0  0  0  0  0  0  0  0  0
   -1.2122   -0.5276   -3.0391 C   0  0  0  0  0  0  0  0  0  0  0  0
   -1.1566    0.5563   -3.0891 H   0  0  0  0  0  0  0  0  0  0  0  0
   -0.4874    1.2908    0.1962 C   0  0  0  0  0  0  0  0  0  0  0  0
   -1.3116    1.8673   -0.5151 O   0  0  0  0  0  0  0  0  0  0  0  0
    0.3889    1.9422    0.9708 N   0  0  0  0  0  0  0  0  0  0  0  0
    1.0197    1.3866    1.5283 H   0  0  0  0  0  0  0  0  0  0  0  0
    0.5081    3.3999    1.0720 C   0  0  0  0  0  0  0  0  0  0  0  0
    0.0188    3.7538    1.9817 H   0  0  0  0  0  0  0  0  0  0  0  0
    1.5607    3.6858    1.1098 H   0  0  0  0  0  0  0  0  0  0  0  0
    0.0459    3.8890    0.2119 H   0  0  0  0  0  0  0  0  0  0  0  0
  5  6  2  0  0  0  0
  5  7  1  0  0  0  0
  2  3  1  0  0  0  0
  2  4  1  0  0  0  0
  2  5  1  0  0  0  0
  1  2  1  0  0  0  0
 23 24  2  0  0  0  0
 23 25  1  0  0  0  0
 21 22  1  0  0  0  0
 19 20  1  0  0  0  0
 19 21  1  0  0  0  0
 17 18  1  0  0  0  0
 17 19  1  0  0  0  0
 15 16  1  0  0  0  0
 15 17  2  0  0  0  0
 14 15  1  0  0  0  0
 14 21  2  0  0  0  0
 11 12  1  0  0  0  0
 11 13  1  0  0  0  0
 11 14  1  0  0  0  0
  9 10  1  0  0  0  0
  9 11  1  0  0  0  0
  9 23  1  0  0  0  0
  7  8  1  0  0  0  0
  7  9  1  0  0  0  0
 27 28  1  0  0  0  0
 27 29  1  0  0  0  0
 27 30  1  0  0  0  0
 25 26  1  0  0  0  0
 25 27  1  0  0  0  0
M  CHG  1  15   1
M  END
$$$$
default_name
  -OEChem-02102213163D

 30 30  0     1  0  0  0  0  0999 V2000
   -3.5507   -3.2183    1.8116 H   0  0  0  0  0  0  0  0  0  0  0  0
   -3.4597   -2.3913    1.1076 C   0  0  0  0  0  0  0  0  0  0  0  0
   -4.1577   -1.6043    1.3866 H   0  0  0  0  0  0  0  0  0  0  0  0
   -3.6807   -2.7523    0.1036 H   0  0  0  0  0  0  0  0  0  0  0  0
   -2.0477   -1.8543    1.1546 C   0  0  0  0  0  0  0  0  0  0  0  0
   -1.2227   -2.3443    1.9146 O   0  0  0  0  0  0  0  0  0  0  0  0
   -1.7517   -0.8483    0.3266 N   0  0  0  0  0  0  0  0  0  0  0  0
   -2.4847   -0.5123   -0.2804 H   0  0  0  0  0  0  0  0  0  0  0  0
   -0.4117   -0.2463    0.2186 C   0  0  1  0  0  0  0  0  0  0  0  0
    0.1554   -0.5152    1.1133 H   0  0  0  0  0  0  0  0  0  0  0  0
    0.3164   -0.8780   -0.9905 C   0  0  0  0  0  0  0  0  0  0  0  0
    1.0352   -0.1535   -1.3816 H   0  0  0  0  0  0  0  0  0  0  0  0
    0.8876   -1.7436   -0.6482 H   0  0  0  0  0  0  0  0  0  0  0  0
   -0.5846   -1.3264   -2.1217 C   0  0  0  0  0  0  0  0  0  0  0  0
   -1.1514   -2.5804   -2.2418 N   0  3  0  0  0  0  0  0  0  0  0  0
   -1.0620   -3.3114   -1.5302 H   0  0  0  0  0  0  0  0  0  0  0  0
   -1.8859   -2.6092   -3.3716 C   0  0  0  0  0  0  0  0  0  0  0  0
   -2.4619   -3.4615   -3.7264 H   0  0  0  0  0  0  0  0  0  0  0  0
   -1.7965   -1.4007   -3.9717 N   0  0  0  0  0  0  0  0  0  0  0  0
   -2.2503   -1.1306   -4.8404 H   0  0  0  0  0  0  0  0  0  0  0  0
   -0.9827   -0.5830   -3.1999 C   0  0  0  0  0  0  0  0  0  0  0  0
   -0.7092    0.4487   -3.4028 H   0  0  0  0  0  0  0  0  0  0  0  0
   -0.4874    1.2908    0.1962 C   0  0  0  0  0  0  0  0  0  0  0  0
   -1.3116    1.8673   -0.5151 O   0  0  0  0  0  0  0  0  0  0  0  0
    0.3889    1.9422    0.9708 N   0  0  0  0  0  0  0  0  0  0  0  0
    1.0197    1.3866    1.5283 H   0  0  0  0  0  0  0  0  0  0  0  0
    0.5081    3.3999    1.0720 C   0  0  0  0  0  0  0  0  0  0  0  0
    0.0188    3.7538    1.9817 H   0  0  0  0  0  0  0  0  0  0  0  0
    1.5607    3.6858    1.1098 H   0  0  0  0  0  0  0  0  0  0  0  0
    0.0459    3.8890    0.2119 H   0  0  0  0  0  0  0  0  0  0  0  0
  5  6  2  0  0  0  0
  5  7  1  0  0  0  0
  2  3  1  0  0  0  0
  2  4  1  0  0  0  0
  2  5  1  0  0  0  0
  1  2  1  0  0  0  0
 23 24  2  0  0  0  0
 23 25  1  0  0  0  0
 21 22  1  0  0  0  0
 19 20  1  0  0  0  0
 19 21  1  0  0  0  0
 17 18  1  0  0  0  0
 17 19  1  0  0  0  0
 15 16  1  0  0  0  0
 15 17  2  0  0  0  0
 14 15  1  0  0  0  0
 14 21  2  0  0  0  0
 11 12  1  0  0  0  0
 11 13  1  0  0  0  0
 11 14  1  0  0  0  0
  9 10  1  0  0  0  0
  9 11  1  0  0  0  0
  9 23  1  0  0  0  0
  7  8  1  0  0  0  0
  7  9  1  0  0  0  0
 27 28  1  0  0  0  0
 27 29  1  0  0  0  0
 27 30  1  0  0  0  0
 25 26  1  0  0  0  0
 25 27  1  0  0  0  0
M  CHG  1  15   1
M  END
$$$$
default_name
  -OEChem-02102213163D

 30 30  0     1  0  0  0  0  0999 V2000
   -3.5507   -3.2183    1.8116 H   0  0  0  0  0  0  0  0  0  0  0  0
   -3.4597   -2.3913    1.1076 C   0  0  0  0  0  0  0  0  0  0  0  0
   -4.1577   -1.6043    1.3866 H   0  0  0  0  0  0  0  0  0  0  0  0
   -3.6807   -2.7523    0.1036 H   0  0  0  0  0  0  0  0  0  0  0  0
   -2.0477   -1.8543    1.1546 C   0  0  0  0  0  0  0  0  0  0  0  0
   -1.2227   -2.3443    1.9146 O   0  0  0  0  0  0  0  0  0  0  0  0
   -1.7517   -0.8483    0.3266 N   0  0  0  0  0  0  0  0  0  0  0  0
   -2.4847   -0.5123   -0.2804 H   0  0  0  0  0  0  0  0  0  0  0  0
   -0.4117   -0.2463    0.2186 C   0  0  1  0  0  0  0  0  0  0  0  0
    0.1554   -0.5152    1.1133 H   0  0  0  0  0  0  0  0  0  0  0  0
    0.3164   -0.8780   -0.9905 C   0  0  0  0  0  0  0  0  0  0  0  0
    1.0352   -0.1535   -1.3816 H   0  0  0  0  0  0  0  0  0  0  0  0
    0.8876   -1.7436   -0.6482 H   0  0  0  0  0  0  0  0  0  0  0  0
   -0.5846   -1.3264   -2.1217 C   0  0  0  0  0  0  0  0  0  0  0  0
   -1.3816   -2.4546   -2.1084 N   0  3  0  0  0  0  0  0  0  0  0  0
   -1.4836   -3.0647   -1.2922 H   0  0  0  0  0  0  0  0  0  0  0  0
   -2.0361   -2.5274   -3.2843 C   0  0  0  0  0  0  0  0  0  0  0  0
   -2.7476   -3.3026   -3.5618 H   0  0  0  0  0  0  0  0  0  0  0  0
   -1.6709   -1.4702   -4.0442 N   0  0  0  0  0  0  0  0  0  0  0  0
   -2.0074   -1.2638   -4.9810 H   0  0  0  0  0  0  0  0  0  0  0  0
   -0.7594   -0.7057   -3.3291 C   0  0  0  0  0  0  0  0  0  0  0  0
   -0.2737    0.2099   -3.6550 H   0  0  0  0  0  0  0  0  0  0  0  0
   -0.4874    1.2908    0.1962 C   0  0  0  0  0  0  0  0  0  0  0  0
   -1.3116    1.8673   -0.5151 O   0  0  0  0  0  0  0  0  0  0  0  0
    0.3889    1.9422    0.9708 N   0  0  0  0  0  0  0  0  0  0  0  0
    1.0197    1.3866    1.5283 H   0  0  0  0  0  0  0  0  0  0  0  0
    0.5081    3.3999    1.0720 C   0  0  0  0  0  0  0  0  0  0  0  0
    0.0188    3.7538    1.9817 H   0  0  0  0  0  0  0  0  0  0  0  0
    1.5607    3.6858    1.1098 H   0  0  0  0  0  0  0  0  0  0  0  0
    0.0459    3.8890    0.2119 H   0  0  0  0  0  0  0  0  0  0  0  0
  5  6  2  0  0  0  0
  5  7  1  0  0  0  0
  2  3  1  0  0  0  0
  2  4  1  0  0  0  0
  2  5  1  0  0  0  0
  1  2  1  0  0  0  0
 23 24  2  0  0  0  0
 23 25  1  0  0  0  0
 21 22  1  0  0  0  0
 19 20  1  0  0  0  0
 19 21  1  0  0  0  0
 17 18  1  0  0  0  0
 17 19  1  0  0  0  0
 15 16  1  0  0  0  0
 15 17  2  0  0  0  0
 14 15  1  0  0  0  0
 14 21  2  0  0  0  0
 11 12  1  0  0  0  0
 11 13  1  0  0  0  0
 11 14  1  0  0  0  0
  9 10  1  0  0  0  0
  9 11  1  0  0  0  0
  9 23  1  0  0  0  0
  7  8  1  0  0  0  0
  7  9  1  0  0  0  0
 27 28  1  0  0  0  0
 27 29  1  0  0  0  0
 27 30  1  0  0  0  0
 25 26  1  0  0  0  0
 25 27  1  0  0  0  0
M  CHG  1  15   1
M  END
$$$$
default_name
  -OEChem-02102213163D

 30 30  0     1  0  0  0  0  0999 V2000
   -3.5507   -3.2183    1.8116 H   0  0  0  0  0  0  0  0  0  0  0  0
   -3.4597   -2.3913    1.1076 C   0  0  0  0  0  0  0  0  0  0  0  0
   -4.1577   -1.6043    1.3866 H   0  0  0  0  0  0  0  0  0  0  0  0
   -3.6807   -2.7523    0.1036 H   0  0  0  0  0  0  0  0  0  0  0  0
   -2.0477   -1.8543    1.1546 C   0  0  0  0  0  0  0  0  0  0  0  0
   -1.2227   -2.3443    1.9146 O   0  0  0  0  0  0  0  0  0  0  0  0
   -1.7517   -0.8483    0.3266 N   0  0  0  0  0  0  0  0  0  0  0  0
   -2.4847   -0.5123   -0.2804 H   0  0  0  0  0  0  0  0  0  0  0  0
   -0.4117   -0.2463    0.2186 C   0  0  1  0  0  0  0  0  0  0  0  0
    0.1554   -0.5152    1.1133 H   0  0  0  0  0  0  0  0  0  0  0  0
    0.3164   -0.8780   -0.9905 C   0  0  0  0  0  0  0  0  0  0  0  0
    1.0352   -0.1535   -1.3816 H   0  0  0  0  0  0  0  0  0  0  0  0
    0.8876   -1.7436   -0.6482 H   0  0  0  0  0  0  0  0  0  0  0  0
   -0.5846   -1.3264   -2.1217 C   0  0  0  0  0  0  0  0  0  0  0  0
   -1.5898   -2.2681   -2.0165 N   0  3  0  0  0  0  0  0  0  0  0  0
   -1.8614   -2.7082   -1.1326 H   0  0  0  0  0  0  0  0  0  0  0  0
   -2.1721   -2.4059   -3.2242 C   0  0  0  0  0  0  0  0  0  0  0  0
   -3.0054   -3.0685   -3.4492 H   0  0  0  0  0  0  0  0  0  0  0  0
   -1.5574   -1.5727   -4.0939 N   0  0  0  0  0  0  0  0  0  0  0  0
   -1.7878   -1.4610   -5.0778 H   0  0  0  0  0  0  0  0  0  0  0  0
   -0.5576   -0.8873   -3.4179 C   0  0  0  0  0  0  0  0  0  0  0  0
    0.1200   -0.1438   -3.8284 H   0  0  0  0  0  0  0  0  0  0  0  0
   -0.4874    1.2908    0.1962 C   0  0  0  0  0  0  0  0  0  0  0  0
   -1.3116    1.8673   -0.5151 O   0  0  0  0  0  0  0  0  0  0  0  0
    0.3889    1.9422    0.9708 N   0  0  0  0  0  0  0  0  0  0  0  0
    1.0197    1.3866    1.5283 H   0  0  0  0  0  0  0  0  0  0  0  0
    0.5081    3.3999    1.0720 C   0  0  0  0  0  0  0  0  0  0  0  0
    0.0188    3.7538    1.9817 H   0  0  0  0  0  0  0  0  0  0  0  0
    1.5607    3.6858    1.1098 H   0  0  0  0  0  0  0  0  0  0  0  0
    0.0459    3.8890    0.2119 H   0  0  0  0  0  0  0  0  0  0  0  0
  5  6  2  0  0  0  0
  5  7  1  0  0  0  0
  2  3  1  0  0  0  0
  2  4  1  0  0  0  0
  2  5  1  0  0  0  0
  1  2  1  0  0  0  0
 23 24  2  0  0  0  0
 23 25  1  0  0  0  0
 21 22  1  0  0  0  0
 19 20  1  0  0  0  0
 19 21  1  0  0  0  0
 17 18  1  0  0  0  0
 17 19  1  0  0  0  0
 15 16  1  0  0  0  0
 15 17  2  0  0  0  0
 14 15  1  0  0  0  0
 14 21  2  0  0  0  0
 11 12  1  0  0  0  0
 11 13  1  0  0  0  0
 11 14  1  0  0  0  0
  9 10  1  0  0  0  0
  9 11  1  0  0  0  0
  9 23  1  0  0  0  0
  7  8  1  0  0  0  0
  7  9  1  0  0  0  0
 27 28  1  0  0  0  0
 27 29  1  0  0  0  0
 27 30  1  0  0  0  0
 25 26  1  0  0  0  0
 25 27  1  0  0  0  0
M  CHG  1  15   1
M  END
$$$$
default_name
  -OEChem-02102213163D

 30 30  0     1  0  0  0  0  0999 V2000
   -3.5507   -3.2183    1.8116 H   0  0  0  0  0  0  0  0  0  0  0  0
   -3.4597   -2.3913    1.1076 C   0  0  0  0  0  0  0  0  0  0  0  0
   -4.1577   -1.6043    1.3866 H   0  0  0  0  0  0  0  0  0  0  0  0
   -3.6807   -2.7523    0.1036 H   0  0  0  0  0  0  0  0  0  0  0  0
   -2.0477   -1.8543    1.1546 C   0  0  0  0  0  0  0  0  0  0  0  0
   -1.2227   -2.3443    1.9146 O   0  0  0  0  0  0  0  0  0  0  0  0
   -1.7517   -0.8483    0.3266 N   0  0  0  0  0  0  0  0  0  0  0  0
   -2.4847   -0.5123   -0.2804 H   0  0  0  0  0  0  0  0  0  0  0  0
   -0.4117   -0.2463    0.2186 C   0  0  1  0  0  0  0  0  0  0  0  0
    0.1554   -0.5152    1.1133 H   0  0  0  0  0  0  0  0  0  0  0  0
    0.3164   -0.8780   -0.9905 C   0  0  0  0  0  0  0  0  0  0  0  0
    1.0352   -0.1535   -1.3816 H   0  0  0  0  0  0  0  0  0  0  0  0
    0.8876   -1.7436   -0.6482 H   0  0  0  0  0  0  0  0  0  0  0  0
   -0.5846   -1.3264   -2.1217 C   0  0  0  0  0  0  0  0  0  0  0  0
   -1.7619   -2.0334   -1.9724 N   0  3  0  0  0  0  0  0  0  0  0  0
   -2.1697   -2.2662   -1.0623 H   0  0  0  0  0  0  0  0  0  0  0  0
   -2.2846   -2.2530   -3.1952 C   0  0  0  0  0  0  0  0  0  0  0  0
   -3.2178   -2.7752   -3.3963 H   0  0  0  0  0  0  0  0  0  0  0  0
   -1.4639   -1.7014   -4.1174 N   0  0  0  0  0  0  0  0  0  0  0  0
   -1.6064   -1.7089   -5.1240 H   0  0  0  0  0  0  0  0  0  0  0  0
   -0.3909   -1.1154   -3.4602 C   0  0  0  0  0  0  0  0  0  0  0  0
    0.4452   -0.5883   -3.9112 H   0  0  0  0  0  0  0  0  0  0  0  0
   -0.4874    1.2908    0.1962 C   0  0  0  0  0  0  0  0  0  0  0  0
   -1.3116    1.8673   -0.5151 O   0  0  0  0  0  0  0  0  0  0  0  0
    0.3889    1.9422    0.9708 N   0  0  0  0  0  0  0  0  0  0  0  0
    1.0197    1.3866    1.5283 H   0  0  0  0  0  0  0  0  0  0  0  0
    0.5081    3.3999    1.0720 C   0  0  0  0  0  0  0  0  0  0  0  0
    0.0188    3.7538    1.9817 H   0  0  0  0  0  0  0  0  0  0  0  0
    1.5607    3.6858    1.1098 H   0  0  0  0  0  0  0  0  0  0  0  0
    0.0459    3.8890    0.2119 H   0  0  0  0  0  0  0  0  0  0  0  0
  5  6  2  0  0  0  0
  5  7  1  0  0  0  0
  2  3  1  0  0  0  0
  2  4  1  0  0  0  0
  2  5  1  0  0  0  0
  1  2  1  0  0  0  0
 23 24  2  0  0  0  0
 23 25  1  0  0  0  0
 21 22  1  0  0  0  0
 19 20  1  0  0  0  0
 19 21  1  0  0  0  0
 17 18  1  0  0  0  0
 17 19  1  0  0  0  0
 15 16  1  0  0  0  0
 15 17  2  0  0  0  0
 14 15  1  0  0  0  0
 14 21  2  0  0  0  0
 11 12  1  0  0  0  0
 11 13  1  0  0  0  0
 11 14  1  0  0  0  0
  9 10  1  0  0  0  0
  9 11  1  0  0  0  0
  9 23  1  0  0  0  0
  7  8  1  0  0  0  0
  7  9  1  0  0  0  0
 27 28  1  0  0  0  0
 27 29  1  0  0  0  0
 27 30  1  0  0  0  0
 25 26  1  0  0  0  0
 25 27  1  0  0  0  0
M  CHG  1  15   1
M  END
$$$$
default_name
  -OEChem-02102213163D

 30 30  0     1  0  0  0  0  0999 V2000
   -3.5507   -3.2183    1.8116 H   0  0  0  0  0  0  0  0  0  0  0  0
   -3.4597   -2.3913    1.1076 C   0  0  0  0  0  0  0  0  0  0  0  0
   -4.1577   -1.6043    1.3866 H   0  0  0  0  0  0  0  0  0  0  0  0
   -3.6807   -2.7523    0.1036 H   0  0  0  0  0  0  0  0  0  0  0  0
   -2.0477   -1.8543    1.1546 C   0  0  0  0  0  0  0  0  0  0  0  0
   -1.2227   -2.3443    1.9146 O   0  0  0  0  0  0  0  0  0  0  0  0
   -1.7517   -0.8483    0.3266 N   0  0  0  0  0  0  0  0  0  0  0  0
   -2.4847   -0.5123   -0.2804 H   0  0  0  0  0  0  0  0  0  0  0  0
   -0.4117   -0.2463    0.2186 C   0  0  1  0  0  0  0  0  0  0  0  0
    0.1554   -0.5152    1.1133 H   0  0  0  0  0  0  0  0  0  0  0  0
    0.3164   -0.8780   -0.9905 C   0  0  0  0  0  0  0  0  0  0  0  0
    1.0352   -0.1535   -1.3816 H   0  0  0  0  0  0  0  0  0  0  0  0
    0.8876   -1.7436   -0.6482 H   0  0  0  0  0  0  0  0  0  0  0  0
   -0.5846   -1.3264   -2.1217 C   0  0  0  0  0  0  0  0  0  0  0  0
   -1.8862   -1.7667   -1.9792 N   0  3  0  0  0  0  0  0  0  0  0  0
   -2.3873   -1.7688   -1.0861 H   0  0  0  0  0  0  0  0  0  0  0  0
   -2.3659   -2.0790   -3.1994 C   0  0  0  0  0  0  0  0  0  0  0  0
   -3.3704   -2.4427   -3.4066 H   0  0  0  0  0  0  0  0  0  0  0  0
   -1.3966   -1.8474   -4.1132 N   0  0  0  0  0  0  0  0  0  0  0  0
   -1.4755   -1.9906   -5.1165 H   0  0  0  0  0  0  0  0  0  0  0  0
   -0.2708   -1.3744   -3.4532 C   0  0  0  0  0  0  0  0  0  0  0  0
    0.6798   -1.0933   -3.8979 H   0  0  0  0  0  0  0  0  0  0  0  0
   -0.4874    1.2908    0.1962 C   0  0  0  0  0  0  0  0  0  0  0  0
   -1.3116    1.8673   -0.5151 O   0  0  0  0  0  0  0  0  0  0  0  0
    0.3889    1.9422    0.9708 N   0  0  0  0  0  0  0  0  0  0  0  0
    1.0197    1.3866    1.5283 H   0  0  0  0  0  0  0  0  0  0  0  0
    0.5081    3.3999    1.0720 C   0  0  0  0  0  0  0  0  0  0  0  0
    0.0188    3.7538    1.9817 H   0  0  0  0  0  0  0  0  0  0  0  0
    1.5607    3.6858    1.1098 H   0  0  0  0  0  0  0  0  0  0  0  0
    0.0459    3.8890    0.2119 H   0  0  0  0  0  0  0  0  0  0  0  0
  5  6  2  0  0  0  0
  5  7  1  0  0  0  0
  2  3  1  0  0  0  0
  2  4  1  0  0  0  0
  2  5  1  0  0  0  0
  1  2  1  0  0  0  0
 23 24  2  0  0  0  0
 23 25  1  0  0  0  0
 21 22  1  0  0  0  0
 19 20  1  0  0  0  0
 19 21  1  0  0  0  0
 17 18  1  0  0  0  0
 17 19  1  0  0  0  0
 15 16  1  0  0  0  0
 15 17  2  0  0  0  0
 14 15  1  0  0  0  0
 14 21  2  0  0  0  0
 11 12  1  0  0  0  0
 11 13  1  0  0  0  0
 11 14  1  0  0  0  0
  9 10  1  0  0  0  0
  9 11  1  0  0  0  0
  9 23  1  0  0  0  0
  7  8  1  0  0  0  0
  7  9  1  0  0  0  0
 27 28  1  0  0  0  0
 27 29  1  0  0  0  0
 27 30  1  0  0  0  0
 25 26  1  0  0  0  0
 25 27  1  0  0  0  0
M  CHG  1  15   1
M  END
$$$$
default_name
  -OEChem-02102213163D

 30 30  0     1  0  0  0  0  0999 V2000
   -3.5507   -3.2183    1.8116 H   0  0  0  0  0  0  0  0  0  0  0  0
   -3.4597   -2.3913    1.1076 C   0  0  0  0  0  0  0  0  0  0  0  0
   -4.1577   -1.6043    1.3866 H   0  0  0  0  0  0  0  0  0  0  0  0
   -3.6807   -2.7523    0.1036 H   0  0  0  0  0  0  0  0  0  0  0  0
   -2.0477   -1.8543    1.1546 C   0  0  0  0  0  0  0  0  0  0  0  0
   -1.2227   -2.3443    1.9146 O   0  0  0  0  0  0  0  0  0  0  0  0
   -1.7517   -0.8483    0.3266 N   0  0  0  0  0  0  0  0  0  0  0  0
   -2.4847   -0.5123   -0.2804 H   0  0  0  0  0  0  0  0  0  0  0  0
   -0.4117   -0.2463    0.2186 C   0  0  1  0  0  0  0  0  0  0  0  0
    0.1554   -0.5152    1.1133 H   0  0  0  0  0  0  0  0  0  0  0  0
    0.3164   -0.8780   -0.9905 C   0  0  0  0  0  0  0  0  0  0  0  0
    1.0352   -0.1535   -1.3816 H   0  0  0  0  0  0  0  0  0  0  0  0
    0.8876   -1.7436   -0.6482 H   0  0  0  0  0  0  0  0  0  0  0  0
   -0.5846   -1.3264   -2.1217 C   0  0  0  0  0  0  0  0  0  0  0  0
   -1.9541   -1.4861   -2.0363 N   0  3  0  0  0  0  0  0  0  0  0  0
   -2.4996   -1.2500   -1.2024 H   0  0  0  0  0  0  0  0  0  0  0  0
   -2.4105   -1.8959   -3.2364 C   0  0  0  0  0  0  0  0  0  0  0  0
   -3.4526   -2.0936   -3.4795 H   0  0  0  0  0  0  0  0  0  0  0  0
   -1.3601   -2.0008   -4.0814 N   0  0  0  0  0  0  0  0  0  0  0  0
   -1.4042   -2.2868   -5.0560 H   0  0  0  0  0  0  0  0  0  0  0  0
   -0.2054   -1.6468   -3.3973 C   0  0  0  0  0  0  0  0  0  0  0  0
    0.8077   -1.6243   -3.7892 H   0  0  0  0  0  0  0  0  0  0  0  0
   -0.4874    1.2908    0.1962 C   0  0  0  0  0  0  0  0  0  0  0  0
   -1.3116    1.8673   -0.5151 O   0  0  0  0  0  0  0  0  0  0  0  0
    0.3889    1.9422    0.9708 N   0  0  0  0  0  0  0  0  0  0  0  0
    1.0197    1.3866    1.5283 H   0  0  0  0  0  0  0  0  0  0  0  0
    0.5081    3.3999    1.0720 C   0  0  0  0  0  0  0  0  0  0  0  0
    0.0188    3.7538    1.9817 H   0  0  0  0  0  0  0  0  0  0  0  0
    1.5607    3.6858    1.1098 H   0  0  0  0  0  0  0  0  0  0  0  0
    0.0459    3.8890    0.2119 H   0  0  0  0  0  0  0  0  0  0  0  0
  5  6  2  0  0  0  0
  5  7  1  0  0  0  0
  2  3  1  0  0  0  0
  2  4  1  0  0  0  0
  2  5  1  0  0  0  0
  1  2  1  0  0  0  0
 23 24  2  0  0  0  0
 23 25  1  0  0  0  0
 21 22  1  0  0  0  0
 19 20  1  0  0  0  0
 19 21  1  0  0  0  0
 17 18  1  0  0  0  0
 17 19  1  0  0  0  0
 15 16  1  0  0  0  0
 15 17  2  0  0  0  0
 14 15  1  0  0  0  0
 14 21  2  0  0  0  0
 11 12  1  0  0  0  0
 11 13  1  0  0  0  0
 11 14  1  0  0  0  0
  9 10  1  0  0  0  0
  9 11  1  0  0  0  0
  9 23  1  0  0  0  0
  7  8  1  0  0  0  0
  7  9  1  0  0  0  0
 27 28  1  0  0  0  0
 27 29  1  0  0  0  0
 27 30  1  0  0  0  0
 25 26  1  0  0  0  0
 25 27  1  0  0  0  0
M  CHG  1  15   1
M  END
$$$$
default_name
  -OEChem-02102213163D

 30 30  0     1  0  0  0  0  0999 V2000
   -3.5507   -3.2183    1.8116 H   0  0  0  0  0  0  0  0  0  0  0  0
   -3.4597   -2.3913    1.1076 C   0  0  0  0  0  0  0  0  0  0  0  0
   -4.1577   -1.6043    1.3866 H   0  0  0  0  0  0  0  0  0  0  0  0
   -3.6807   -2.7523    0.1036 H   0  0  0  0  0  0  0  0  0  0  0  0
   -2.0477   -1.8543    1.1546 C   0  0  0  0  0  0  0  0  0  0  0  0
   -1.2227   -2.3443    1.9146 O   0  0  0  0  0  0  0  0  0  0  0  0
   -1.7517   -0.8483    0.3266 N   0  0  0  0  0  0  0  0  0  0  0  0
   -2.4847   -0.5123   -0.2804 H   0  0  0  0  0  0  0  0  0  0  0  0
   -0.4117   -0.2463    0.2186 C   0  0  1  0  0  0  0  0  0  0  0  0
    0.1554   -0.5152    1.1133 H   0  0  0  0  0  0  0  0  0  0  0  0
    0.3164   -0.8780   -0.9905 C   0  0  0  0  0  0  0  0  0  0  0  0
    1.0352   -0.1535   -1.3816 H   0  0  0  0  0  0  0  0  0  0  0  0
    0.8876   -1.7436   -0.6482 H   0  0  0  0  0  0  0  0  0  0  0  0
   -0.5846   -1.3264   -2.1217 C   0  0  0  0  0  0  0  0  0  0  0  0
   -1.9610   -1.2108   -2.1399 N   0  3  0  0  0  0  0  0  0  0  0  0
   -2.4987   -0.7450   -1.4032 H   0  0  0  0  0  0  0  0  0  0  0  0
   -2.4154   -1.7162   -3.3038 C   0  0  0  0  0  0  0  0  0  0  0  0
   -3.4589   -1.7517   -3.6099 H   0  0  0  0  0  0  0  0  0  0  0  0
   -1.3570   -2.1511   -4.0243 N   0  0  0  0  0  0  0  0  0  0  0  0
   -1.3972   -2.5774   -4.9463 H   0  0  0  0  0  0  0  0  0  0  0  0
   -0.1992   -1.9139   -3.2964 C   0  0  0  0  0  0  0  0  0  0  0  0
    0.8202   -2.1453   -3.5927 H   0  0  0  0  0  0  0  0  0  0  0  0
   -0.4874    1.2908    0.1962 C   0  0  0  0  0  0  0  0  0  0  0  0
   -1.3116    1.8673   -0.5151 O   0  0  0  0  0  0  0  0  0  0  0  0
    0.3889    1.9422    0.9708 N   0  0  0  0  0  0  0  0  0  0  0  0
    1.0197    1.3866    1.5283 H   0  0  0  0  0  0  0  0  0  0  0  0
    0.5081    3.3999    1.0720 C   0  0  0  0  0  0  0  0  0  0  0  0
    0.0188    3.7538    1.9817 H   0  0  0  0  0  0  0  0  0  0  0  0
    1.5607    3.6858    1.1098 H   0  0  0  0  0  0  0  0  0  0  0  0
    0.0459    3.8890    0.2119 H   0  0  0  0  0  0  0  0  0  0  0  0
  5  6  2  0  0  0  0
  5  7  1  0  0  0  0
  2  3  1  0  0  0  0
  2  4  1  0  0  0  0
  2  5  1  0  0  0  0
  1  2  1  0  0  0  0
 23 24  2  0  0  0  0
 23 25  1  0  0  0  0
 21 22  1  0  0  0  0
 19 20  1  0  0  0  0
 19 21  1  0  0  0  0
 17 18  1  0  0  0  0
 17 19  1  0  0  0  0
 15 16  1  0  0  0  0
 15 17  2  0  0  0  0
 14 15  1  0  0  0  0
 14 21  2  0  0  0  0
 11 12  1  0  0  0  0
 11 13  1  0  0  0  0
 11 14  1  0  0  0  0
  9 10  1  0  0  0  0
  9 11  1  0  0  0  0
  9 23  1  0  0  0  0
  7  8  1  0  0  0  0
  7  9  1  0  0  0  0
 27 28  1  0  0  0  0
 27 29  1  0  0  0  0
 27 30  1  0  0  0  0
 25 26  1  0  0  0  0
 25 27  1  0  0  0  0
M  CHG  1  15   1
M  END
$$$$
default_name
  -OEChem-02102213163D

 30 30  0     1  0  0  0  0  0999 V2000
   -3.5507   -3.2183    1.8116 H   0  0  0  0  0  0  0  0  0  0  0  0
   -3.4597   -2.3913    1.1076 C   0  0  0  0  0  0  0  0  0  0  0  0
   -4.1577   -1.6043    1.3866 H   0  0  0  0  0  0  0  0  0  0  0  0
   -3.6807   -2.7523    0.1036 H   0  0  0  0  0  0  0  0  0  0  0  0
   -2.0477   -1.8543    1.1546 C   0  0  0  0  0  0  0  0  0  0  0  0
   -1.2227   -2.3443    1.9146 O   0  0  0  0  0  0  0  0  0  0  0  0
   -1.7517   -0.8483    0.3266 N   0  0  0  0  0  0  0  0  0  0  0  0
   -2.4847   -0.5123   -0.2804 H   0  0  0  0  0  0  0  0  0  0  0  0
   -0.4117   -0.2463    0.2186 C   0  0  1  0  0  0  0  0  0  0  0  0
    0.1554   -0.5152    1.1133 H   0  0  0  0  0  0  0  0  0  0  0  0
    0.3164   -0.8780   -0.9905 C   0  0  0  0  0  0  0  0  0  0  0  0
    1.0352   -0.1535   -1.3816 H   0  0  0  0  0  0  0  0  0  0  0  0
    0.8876   -1.7436   -0.6482 H   0  0  0  0  0  0  0  0  0  0  0  0
   -0.5846   -1.3264   -2.1217 C   0  0  0  0  0  0  0  0  0  0  0  0
   -1.9066   -0.9594   -2.2829 N   0  3  0  0  0  0  0  0  0  0  0  0
   -2.3849   -0.2884   -1.6749 H   0  0  0  0  0  0  0  0  0  0  0  0
   -2.3801   -1.5520   -3.3970 C   0  0  0  0  0  0  0  0  0  0  0  0
   -3.3890   -1.4403   -3.7891 H   0  0  0  0  0  0  0  0  0  0  0  0
   -1.3874   -2.2881   -3.9458 N   0  0  0  0  0  0  0  0  0  0  0  0
   -1.4550   -2.8426   -4.7952 H   0  0  0  0  0  0  0  0  0  0  0  0
   -0.2526   -2.1576   -3.1572 C   0  0  0  0  0  0  0  0  0  0  0  0
    0.7164   -2.6207   -3.3216 H   0  0  0  0  0  0  0  0  0  0  0  0
   -0.4874    1.2908    0.1962 C   0  0  0  0  0  0  0  0  0  0  0  0
   -1.3116    1.8673   -0.5151 O   0  0  0  0  0  0  0  0  0  0  0  0
    0.3889    1.9422    0.9708 N   0  0  0  0  0  0  0  0  0  0  0  0
    1.0197    1.3866    1.5283 H   0  0  0  0  0  0  0  0  0  0  0  0
    0.5081    3.3999    1.0720 C   0  0  0  0  0  0  0  0  0  0  0  0
    0.0188    3.7538    1.9817 H   0  0  0  0  0  0  0  0  0  0  0  0
    1.5607    3.6858    1.1098 H   0  0  0  0  0  0  0  0  0  0  0  0
    0.0459    3.8890    0.2119 H   0  0  0  0  0  0  0  0  0  0  0  0
  5  6  2  0  0  0  0
  5  7  1  0  0  0  0
  2  3  1  0  0  0  0
  2  4  1  0  0  0  0
  2  5  1  0  0  0  0
  1  2  1  0  0  0  0
 23 24  2  0  0  0  0
 23 25  1  0  0  0  0
 21 22  1  0  0  0  0
 19 20  1  0  0  0  0
 19 21  1  0  0  0  0
 17 18  1  0  0  0  0
 17 19  1  0  0  0  0
 15 16  1  0  0  0  0
 15 17  2  0  0  0  0
 14 15  1  0  0  0  0
 14 21  2  0  0  0  0
 11 12  1  0  0  0  0
 11 13  1  0  0  0  0
 11 14  1  0  0  0  0
  9 10  1  0  0  0  0
  9 11  1  0  0  0  0
  9 23  1  0  0  0  0
  7  8  1  0  0  0  0
  7  9  1  0  0  0  0
 27 28  1  0  0  0  0
 27 29  1  0  0  0  0
 27 30  1  0  0  0  0
 25 26  1  0  0  0  0
 25 27  1  0  0  0  0
M  CHG  1  15   1
M  END
$$$$
default_name
  -OEChem-02102213163D

 30 30  0     1  0  0  0  0  0999 V2000
   -3.5507   -3.2183    1.8116 H   0  0  0  0  0  0  0  0  0  0  0  0
   -3.4597   -2.3913    1.1076 C   0  0  0  0  0  0  0  0  0  0  0  0
   -4.1577   -1.6043    1.3866 H   0  0  0  0  0  0  0  0  0  0  0  0
   -3.6807   -2.7523    0.1036 H   0  0  0  0  0  0  0  0  0  0  0  0
   -2.0477   -1.8543    1.1546 C   0  0  0  0  0  0  0  0  0  0  0  0
   -1.2227   -2.3443    1.9146 O   0  0  0  0  0  0  0  0  0  0  0  0
   -1.7517   -0.8483    0.3266 N   0  0  0  0  0  0  0  0  0  0  0  0
   -2.4847   -0.5123   -0.2804 H   0  0  0  0  0  0  0  0  0  0  0  0
   -0.4117   -0.2463    0.2186 C   0  0  1  0  0  0  0  0  0  0  0  0
    0.1554   -0.5152    1.1133 H   0  0  0  0  0  0  0  0  0  0  0  0
    0.3164   -0.8780   -0.9905 C   0  0  0  0  0  0  0  0  0  0  0  0
    1.0352   -0.1535   -1.3816 H   0  0  0  0  0  0  0  0  0  0  0  0
    0.8876   -1.7436   -0.6482 H   0  0  0  0  0  0  0  0  0  0  0  0
   -0.5846   -1.3264   -2.1217 C   0  0  0  0  0  0  0  0  0  0  0  0
   -1.7944   -0.7491   -2.4556 N   0  3  0  0  0  0  0  0  0  0  0  0
   -2.1658    0.0889   -1.9989 H   0  0  0  0  0  0  0  0  0  0  0  0
   -2.3071   -1.4146   -3.5096 C   0  0  0  0  0  0  0  0  0  0  0  0
   -3.2474   -1.1807   -4.0047 H   0  0  0  0  0  0  0  0  0  0  0  0
   -1.4493   -2.4024   -3.8512 N   0  0  0  0  0  0  0  0  0  0  0  0
   -1.5738   -3.0642   -4.6128 H   0  0  0  0  0  0  0  0  0  0  0  0
   -0.3620   -2.3613   -2.9894 C   0  0  0  0  0  0  0  0  0  0  0  0
    0.5035   -3.0181   -2.9946 H   0  0  0  0  0  0  0  0  0  0  0  0
   -0.4874    1.2908    0.1962 C   0  0  0  0  0  0  0  0  0  0  0  0
   -1.3116    1.8673   -0.5151 O   0  0  0  0  0  0  0  0  0  0  0  0
    0.3889    1.9422    0.9708 N   0  0  0  0  0  0  0  0  0  0  0  0
    1.0197    1.3866    1.5283 H   0  0  0  0  0  0  0  0  0  0  0  0
    0.5081    3.3999    1.0720 C   0  0  0  0  0  0  0  0  0  0  0  0
    0.0188    3.7538    1.9817 H   0  0  0  0  0  0  0  0  0  0  0  0
    1.5607    3.6858    1.1098 H   0  0  0  0  0  0  0  0  0  0  0  0
    0.0459    3.8890    0.2119 H   0  0  0  0  0  0  0  0  0  0  0  0
  5  6  2  0  0  0  0
  5  7  1  0  0  0  0
  2  3  1  0  0  0  0
  2  4  1  0  0  0  0
  2  5  1  0  0  0  0
  1  2  1  0  0  0  0
 23 24  2  0  0  0  0
 23 25  1  0  0  0  0
 21 22  1  0  0  0  0
 19 20  1  0  0  0  0
 19 21  1  0  0  0  0
 17 18  1  0  0  0  0
 17 19  1  0  0  0  0
 15 16  1  0  0  0  0
 15 17  2  0  0  0  0
 14 15  1  0  0  0  0
 14 21  2  0  0  0  0
 11 12  1  0  0  0  0
 11 13  1  0  0  0  0
 11 14  1  0  0  0  0
  9 10  1  0  0  0  0
  9 11  1  0  0  0  0
  9 23  1  0  0  0  0
  7  8  1  0  0  0  0
  7  9  1  0  0  0  0
 27 28  1  0  0  0  0
 27 29  1  0  0  0  0
 27 30  1  0  0  0  0
 25 26  1  0  0  0  0
 25 27  1  0  0  0  0
M  CHG  1  15   1
M  END
$$$$
default_name
  -OEChem-02102213163D

 30 30  0     1  0  0  0  0  0999 V2000
   -3.5507   -3.2183    1.8116 H   0  0  0  0  0  0  0  0  0  0  0  0
   -3.4597   -2.3913    1.1076 C   0  0  0  0  0  0  0  0  0  0  0  0
   -4.1577   -1.6043    1.3866 H   0  0  0  0  0  0  0  0  0  0  0  0
   -3.6807   -2.7523    0.1036 H   0  0  0  0  0  0  0  0  0  0  0  0
   -2.0477   -1.8543    1.1546 C   0  0  0  0  0  0  0  0  0  0  0  0
   -1.2227   -2.3443    1.9146 O   0  0  0  0  0  0  0  0  0  0  0  0
   -1.7517   -0.8483    0.3266 N   0  0  0  0  0  0  0  0  0  0  0  0
   -2.4847   -0.5123   -0.2804 H   0  0  0  0  0  0  0  0  0  0  0  0
   -0.4117   -0.2463    0.2186 C   0  0  1  0  0  0  0  0  0  0  0  0
    0.1554   -0.5152    1.1133 H   0  0  0  0  0  0  0  0  0  0  0  0
    0.3164   -0.8780   -0.9905 C   0  0  0  0  0  0  0  0  0  0  0  0
    1.0352   -0.1535   -1.3816 H   0  0  0  0  0  0  0  0  0  0  0  0
    0.8876   -1.7436   -0.6482 H   0  0  0  0  0  0  0  0  0  0  0  0
   -0.5846   -1.3264   -2.1217 C   0  0  0  0  0  0  0  0  0  0  0  0
   -1.6322   -0.5943   -2.6462 N   0  3  0  0  0  0  0  0  0  0  0  0
   -1.8563    0.3610   -2.3532 H   0  0  0  0  0  0  0  0  0  0  0  0
   -2.2014   -1.3133   -3.6339 C   0  0  0  0  0  0  0  0  0  0  0  0
   -3.0440   -0.9905   -4.2422 H   0  0  0  0  0  0  0  0  0  0  0  0
   -1.5384   -2.4863   -3.7469 N   0  0  0  0  0  0  0  0  0  0  0  0
   -1.7453   -3.2273   -4.4115 H   0  0  0  0  0  0  0  0  0  0  0  0
   -0.5199   -2.5110   -2.8043 C   0  0  0  0  0  0  0  0  0  0  0  0
    0.1960   -3.3104   -2.6338 H   0  0  0  0  0  0  0  0  0  0  0  0
   -0.4874    1.2908    0.1962 C   0  0  0  0  0  0  0  0  0  0  0  0
   -1.3116    1.8673   -0.5151 O   0  0  0  0  0  0  0  0  0  0  0  0
    0.3889    1.9422    0.9708 N   0  0  0  0  0  0  0  0  0  0  0  0
    1.0197    1.3866    1.5283 H   0  0  0  0  0  0  0  0  0  0  0  0
    0.5081    3.3999    1.0720 C   0  0  0  0  0  0  0  0  0  0  0  0
    0.0188    3.7538    1.9817 H   0  0  0  0  0  0  0  0  0  0  0  0
    1.5607    3.6858    1.1098 H   0  0  0  0  0  0  0  0  0  0  0  0
    0.0459    3.8890    0.2119 H   0  0  0  0  0  0  0  0  0  0  0  0
  5  6  2  0  0  0  0
  5  7  1  0  0  0  0
  2  3  1  0  0  0  0
  2  4  1  0  0  0  0
  2  5  1  0  0  0  0
  1  2  1  0  0  0  0
 23 24  2  0  0  0  0
 23 25  1  0  0  0  0
 21 22  1  0  0  0  0
 19 20  1  0  0  0  0
 19 21  1  0  0  0  0
 17 18  1  0  0  0  0
 17 19  1  0  0  0  0
 15 16  1  0  0  0  0
 15 17  2  0  0  0  0
 14 15  1  0  0  0  0
 14 21  2  0  0  0  0
 11 12  1  0  0  0  0
 11 13  1  0  0  0  0
 11 14  1  0  0  0  0
  9 10  1  0  0  0  0
  9 11  1  0  0  0  0
  9 23  1  0  0  0  0
  7  8  1  0  0  0  0
  7  9  1  0  0  0  0
 27 28  1  0  0  0  0
 27 29  1  0  0  0  0
 27 30  1  0  0  0  0
 25 26  1  0  0  0  0
 25 27  1  0  0  0  0
M  CHG  1  15   1
M  END
$$$$
default_name
  -OEChem-02102213163D

 30 30  0     1  0  0  0  0  0999 V2000
   -3.5507   -3.2183    1.8116 H   0  0  0  0  0  0  0  0  0  0  0  0
   -3.4597   -2.3913    1.1076 C   0  0  0  0  0  0  0  0  0  0  0  0
   -4.1577   -1.6043    1.3866 H   0  0  0  0  0  0  0  0  0  0  0  0
   -3.6807   -2.7523    0.1036 H   0  0  0  0  0  0  0  0  0  0  0  0
   -2.0477   -1.8543    1.1546 C   0  0  0  0  0  0  0  0  0  0  0  0
   -1.2227   -2.3443    1.9146 O   0  0  0  0  0  0  0  0  0  0  0  0
   -1.7517   -0.8483    0.3266 N   0  0  0  0  0  0  0  0  0  0  0  0
   -2.4847   -0.5123   -0.2804 H   0  0  0  0  0  0  0  0  0  0  0  0
   -0.4117   -0.2463    0.2186 C   0  0  1  0  0  0  0  0  0  0  0  0
    0.1554   -0.5152    1.1133 H   0  0  0  0  0  0  0  0  0  0  0  0
    0.3164   -0.8780   -0.9905 C   0  0  0  0  0  0  0  0  0  0  0  0
    1.0352   -0.1535   -1.3816 H   0  0  0  0  0  0  0  0  0  0  0  0
    0.8876   -1.7436   -0.6482 H   0  0  0  0  0  0  0  0  0  0  0  0
   -0.5846   -1.3264   -2.1217 C   0  0  0  0  0  0  0  0  0  0  0  0
   -1.4309   -0.5055   -2.8417 N   0  3  0  0  0  0  0  0  0  0  0  0
   -1.4777    0.5095   -2.7136 H   0  0  0  0  0  0  0  0  0  0  0  0
   -2.0703   -1.2550   -3.7615 C   0  0  0  0  0  0  0  0  0  0  0  0
   -2.7925   -0.8826   -4.4852 H   0  0  0  0  0  0  0  0  0  0  0  0
   -1.6488   -2.5341   -3.6401 N   0  0  0  0  0  0  0  0  0  0  0  0
   -1.9579   -3.3206   -4.2052 H   0  0  0  0  0  0  0  0  0  0  0  0
   -0.7155   -2.5966   -2.6146 C   0  0  0  0  0  0  0  0  0  0  0  0
   -0.1853   -3.4776   -2.2638 H   0  0  0  0  0  0  0  0  0  0  0  0
   -0.4874    1.2908    0.1962 C   0  0  0  0  0  0  0  0  0  0  0  0
   -1.3116    1.8673   -0.5151 O   0  0  0  0  0  0  0  0  0  0  0  0
    0.3889    1.9422    0.9708 N   0  0  0  0  0  0  0  0  0  0  0  0
    1.0197    1.3866    1.5283 H   0  0  0  0  0  0  0  0  0  0  0  0
    0.5081    3.3999    1.0720 C   0  0  0  0  0  0  0  0  0  0  0  0
    0.0188    3.7538    1.9817 H   0  0  0  0  0  0  0  0  0  0  0  0
    1.5607    3.6858    1.1098 H   0  0  0  0  0  0  0  0  0  0  0  0
    0.0459    3.8890    0.2119 H   0  0  0  0  0  0  0  0  0  0  0  0
  5  6  2  0  0  0  0
  5  7  1  0  0  0  0
  2  3  1  0  0  0  0
  2  4  1  0  0  0  0
  2  5  1  0  0  0  0
  1  2  1  0  0  0  0
 23 24  2  0  0  0  0
 23 25  1  0  0  0  0
 21 22  1  0  0  0  0
 19 20  1  0  0  0  0
 19 21  1  0  0  0  0
 17 18  1  0  0  0  0
 17 19  1  0  0  0  0
 15 16  1  0  0  0  0
 15 17  2  0  0  0  0
 14 15  1  0  0  0  0
 14 21  2  0  0  0  0
 11 12  1  0  0  0  0
 11 13  1  0  0  0  0
 11 14  1  0  0  0  0
  9 10  1  0  0  0  0
  9 11  1  0  0  0  0
  9 23  1  0  0  0  0
  7  8  1  0  0  0  0
  7  9  1  0  0  0  0
 27 28  1  0  0  0  0
 27 29  1  0  0  0  0
 27 30  1  0  0  0  0
 25 26  1  0  0  0  0
 25 27  1  0  0  0  0
M  CHG  1  15   1
M  END
$$$$
default_name
  -OEChem-02102213163D

 30 30  0     1  0  0  0  0  0999 V2000
   -3.5507   -3.2183    1.8116 H   0  0  0  0  0  0  0  0  0  0  0  0
   -3.4597   -2.3913    1.1076 C   0  0  0  0  0  0  0  0  0  0  0  0
   -4.1577   -1.6043    1.3866 H   0  0  0  0  0  0  0  0  0  0  0  0
   -3.6807   -2.7523    0.1036 H   0  0  0  0  0  0  0  0  0  0  0  0
   -2.0477   -1.8543    1.1546 C   0  0  0  0  0  0  0  0  0  0  0  0
   -1.2227   -2.3443    1.9146 O   0  0  0  0  0  0  0  0  0  0  0  0
   -1.7517   -0.8483    0.3266 N   0  0  0  0  0  0  0  0  0  0  0  0
   -2.4847   -0.5123   -0.2804 H   0  0  0  0  0  0  0  0  0  0  0  0
   -0.4117   -0.2463    0.2186 C   0  0  1  0  0  0  0  0  0  0  0  0
    0.1554   -0.5152    1.1133 H   0  0  0  0  0  0  0  0  0  0  0  0
    0.3164   -0.8780   -0.9905 C   0  0  0  0  0  0  0  0  0  0  0  0
    1.0352   -0.1535   -1.3816 H   0  0  0  0  0  0  0  0  0  0  0  0
    0.8876   -1.7436   -0.6482 H   0  0  0  0  0  0  0  0  0  0  0  0
   -0.5846   -1.3264   -2.1217 C   0  0  0  0  0  0  0  0  0  0  0  0
   -1.2043   -0.4887   -3.0287 N   0  3  0  0  0  0  0  0  0  0  0  0
   -1.0556    0.5241   -3.0556 H   0  0  0  0  0  0  0  0  0  0  0  0
   -1.9225   -1.2438   -3.8836 C   0  0  0  0  0  0  0  0  0  0  0  0
   -2.5100   -0.8646   -4.7173 H   0  0  0  0  0  0  0  0  0  0  0  0
   -1.7728   -2.5424   -3.5380 N   0  0  0  0  0  0  0  0  0  0  0  0
   -2.1972   -3.3379   -4.0078 H   0  0  0  0  0  0  0  0  0  0  0  0
   -0.9355   -2.6122   -2.4332 C   0  0  0  0  0  0  0  0  0  0  0  0
   -0.6143   -3.5085   -1.9099 H   0  0  0  0  0  0  0  0  0  0  0  0
   -0.4874    1.2908    0.1962 C   0  0  0  0  0  0  0  0  0  0  0  0
   -1.3116    1.8673   -0.5151 O   0  0  0  0  0  0  0  0  0  0  0  0
    0.3889    1.9422    0.9708 N   0  0  0  0  0  0  0  0  0  0  0  0
    1.0197    1.3866    1.5283 H   0  0  0  0  0  0  0  0  0  0  0  0
    0.5081    3.3999    1.0720 C   0  0  0  0  0  0  0  0  0  0  0  0
    0.0188    3.7538    1.9817 H   0  0  0  0  0  0  0  0  0  0  0  0
    1.5607    3.6858    1.1098 H   0  0  0  0  0  0  0  0  0  0  0  0
    0.0459    3.8890    0.2119 H   0  0  0  0  0  0  0  0  0  0  0  0
  5  6  2  0  0  0  0
  5  7  1  0  0  0  0
  2  3  1  0  0  0  0
  2  4  1  0  0  0  0
  2  5  1  0  0  0  0
  1  2  1  0  0  0  0
 23 24  2  0  0  0  0
 23 25  1  0  0  0  0
 21 22  1  0  0  0  0
 19 20  1  0  0  0  0
 19 21  1  0  0  0  0
 17 18  1  0  0  0  0
 17 19  1  0  0  0  0
 15 16  1  0  0  0  0
 15 17  2  0  0  0  0
 14 15  1  0  0  0  0
 14 21  2  0  0  0  0
 11 12  1  0  0  0  0
 11 13  1  0  0  0  0
 11 14  1  0  0  0  0
  9 10  1  0  0  0  0
  9 11  1  0  0  0  0
  9 23  1  0  0  0  0
  7  8  1  0  0  0  0
  7  9  1  0  0  0  0
 27 28  1  0  0  0  0
 27 29  1  0  0  0  0
 27 30  1  0  0  0  0
 25 26  1  0  0  0  0
 25 27  1  0  0  0  0
M  CHG  1  15   1
M  END
$$$$
default_name
  -OEChem-02102213163D

 30 30  0     1  0  0  0  0  0999 V2000
   -3.5507   -3.2183    1.8116 H   0  0  0  0  0  0  0  0  0  0  0  0
   -3.4597   -2.3913    1.1076 C   0  0  0  0  0  0  0  0  0  0  0  0
   -4.1577   -1.6043    1.3866 H   0  0  0  0  0  0  0  0  0  0  0  0
   -3.6807   -2.7523    0.1036 H   0  0  0  0  0  0  0  0  0  0  0  0
   -2.0477   -1.8543    1.1546 C   0  0  0  0  0  0  0  0  0  0  0  0
   -1.2227   -2.3443    1.9146 O   0  0  0  0  0  0  0  0  0  0  0  0
   -1.7517   -0.8483    0.3266 N   0  0  0  0  0  0  0  0  0  0  0  0
   -2.4847   -0.5123   -0.2804 H   0  0  0  0  0  0  0  0  0  0  0  0
   -0.4117   -0.2463    0.2186 C   0  0  1  0  0  0  0  0  0  0  0  0
    0.1554   -0.5152    1.1133 H   0  0  0  0  0  0  0  0  0  0  0  0
    0.3164   -0.8780   -0.9905 C   0  0  0  0  0  0  0  0  0  0  0  0
    1.0352   -0.1535   -1.3816 H   0  0  0  0  0  0  0  0  0  0  0  0
    0.8876   -1.7436   -0.6482 H   0  0  0  0  0  0  0  0  0  0  0  0
   -0.5846   -1.3264   -2.1217 C   0  0  0  0  0  0  0  0  0  0  0  0
   -0.9679   -0.5452   -3.1947 N   0  3  0  0  0  0  0  0  0  0  0  0
   -0.6189    0.4040   -3.3558 H   0  0  0  0  0  0  0  0  0  0  0  0
   -1.7682   -1.2803   -3.9920 C   0  0  0  0  0  0  0  0  0  0  0  0
   -2.2160   -0.9374   -4.9226 H   0  0  0  0  0  0  0  0  0  0  0  0
   -1.9020   -2.5108   -3.4477 N   0  0  0  0  0  0  0  0  0  0  0  0
   -2.4468   -3.2779   -3.8328 H   0  0  0  0  0  0  0  0  0  0  0  0
   -1.1650   -2.5567   -2.2724 C   0  0  0  0  0  0  0  0  0  0  0  0
   -1.0617   -3.4009   -1.5962 H   0  0  0  0  0  0  0  0  0  0  0  0
   -0.4874    1.2908    0.1962 C   0  0  0  0  0  0  0  0  0  0  0  0
   -1.3116    1.8673   -0.5151 O   0  0  0  0  0  0  0  0  0  0  0  0
    0.3889    1.9422    0.9708 N   0  0  0  0  0  0  0  0  0  0  0  0
    1.0197    1.3866    1.5283 H   0  0  0  0  0  0  0  0  0  0  0  0
    0.5081    3.3999    1.0720 C   0  0  0  0  0  0  0  0  0  0  0  0
    0.0188    3.7538    1.9817 H   0  0  0  0  0  0  0  0  0  0  0  0
    1.5607    3.6858    1.1098 H   0  0  0  0  0  0  0  0  0  0  0  0
    0.0459    3.8890    0.2119 H   0  0  0  0  0  0  0  0  0  0  0  0
  5  6  2  0  0  0  0
  5  7  1  0  0  0  0
  2  3  1  0  0  0  0
  2  4  1  0  0  0  0
  2  5  1  0  0  0  0
  1  2  1  0  0  0  0
 23 24  2  0  0  0  0
 23 25  1  0  0  0  0
 21 22  1  0  0  0  0
 19 20  1  0  0  0  0
 19 21  1  0  0  0  0
 17 18  1  0  0  0  0
 17 19  1  0  0  0  0
 15 16  1  0  0  0  0
 15 17  2  0  0  0  0
 14 15  1  0  0  0  0
 14 21  2  0  0  0  0
 11 12  1  0  0  0  0
 11 13  1  0  0  0  0
 11 14  1  0  0  0  0
  9 10  1  0  0  0  0
  9 11  1  0  0  0  0
  9 23  1  0  0  0  0
  7  8  1  0  0  0  0
  7  9  1  0  0  0  0
 27 28  1  0  0  0  0
 27 29  1  0  0  0  0
 27 30  1  0  0  0  0
 25 26  1  0  0  0  0
 25 27  1  0  0  0  0
M  CHG  1  15   1
M  END
$$$$
default_name
  -OEChem-02102213163D

 30 30  0     1  0  0  0  0  0999 V2000
   -3.5507   -3.2183    1.8116 H   0  0  0  0  0  0  0  0  0  0  0  0
   -3.4597   -2.3913    1.1076 C   0  0  0  0  0  0  0  0  0  0  0  0
   -4.1577   -1.6043    1.3866 H   0  0  0  0  0  0  0  0  0  0  0  0
   -3.6807   -2.7523    0.1036 H   0  0  0  0  0  0  0  0  0  0  0  0
   -2.0477   -1.8543    1.1546 C   0  0  0  0  0  0  0  0  0  0  0  0
   -1.2227   -2.3443    1.9146 O   0  0  0  0  0  0  0  0  0  0  0  0
   -1.7517   -0.8483    0.3266 N   0  0  0  0  0  0  0  0  0  0  0  0
   -2.4847   -0.5123   -0.2804 H   0  0  0  0  0  0  0  0  0  0  0  0
   -0.4117   -0.2463    0.2186 C   0  0  1  0  0  0  0  0  0  0  0  0
    0.1554   -0.5152    1.1133 H   0  0  0  0  0  0  0  0  0  0  0  0
    0.3164   -0.8780   -0.9905 C   0  0  0  0  0  0  0  0  0  0  0  0
    1.0352   -0.1535   -1.3816 H   0  0  0  0  0  0  0  0  0  0  0  0
    0.8876   -1.7436   -0.6482 H   0  0  0  0  0  0  0  0  0  0  0  0
   -0.5846   -1.3264   -2.1217 C   0  0  0  0  0  0  0  0  0  0  0  0
   -0.7377   -0.6710   -3.3281 N   0  3  0  0  0  0  0  0  0  0  0  0
   -0.1972    0.1573   -3.5938 H   0  0  0  0  0  0  0  0  0  0  0  0
   -1.6180   -1.3621   -4.0793 C   0  0  0  0  0  0  0  0  0  0  0  0
   -1.9303   -1.0963   -5.0872 H   0  0  0  0  0  0  0  0  0  0  0  0
   -2.0276   -2.4413   -3.3752 N   0  0  0  0  0  0  0  0  0  0  0  0
   -2.6896   -3.1447   -3.6921 H   0  0  0  0  0  0  0  0  0  0  0  0
   -1.3883   -2.4341   -2.1432 C   0  0  0  0  0  0  0  0  0  0  0  0
   -1.4971   -3.1621   -1.3441 H   0  0  0  0  0  0  0  0  0  0  0  0
   -0.4874    1.2908    0.1962 C   0  0  0  0  0  0  0  0  0  0  0  0
   -1.3116    1.8673   -0.5151 O   0  0  0  0  0  0  0  0  0  0  0  0
    0.3889    1.9422    0.9708 N   0  0  0  0  0  0  0  0  0  0  0  0
    1.0197    1.3866    1.5283 H   0  0  0  0  0  0  0  0  0  0  0  0
    0.5081    3.3999    1.0720 C   0  0  0  0  0  0  0  0  0  0  0  0
    0.0188    3.7538    1.9817 H   0  0  0  0  0  0  0  0  0  0  0  0
    1.5607    3.6858    1.1098 H   0  0  0  0  0  0  0  0  0  0  0  0
    0.0459    3.8890    0.2119 H   0  0  0  0  0  0  0  0  0  0  0  0
  5  6  2  0  0  0  0
  5  7  1  0  0  0  0
  2  3  1  0  0  0  0
  2  4  1  0  0  0  0
  2  5  1  0  0  0  0
  1  2  1  0  0  0  0
 23 24  2  0  0  0  0
 23 25  1  0  0  0  0
 21 22  1  0  0  0  0
 19 20  1  0  0  0  0
 19 21  1  0  0  0  0
 17 18  1  0  0  0  0
 17 19  1  0  0  0  0
 15 16  1  0  0  0  0
 15 17  2  0  0  0  0
 14 15  1  0  0  0  0
 14 21  2  0  0  0  0
 11 12  1  0  0  0  0
 11 13  1  0  0  0  0
 11 14  1  0  0  0  0
  9 10  1  0  0  0  0
  9 11  1  0  0  0  0
  9 23  1  0  0  0  0
  7  8  1  0  0  0  0
  7  9  1  0  0  0  0
 27 28  1  0  0  0  0
 27 29  1  0  0  0  0
 27 30  1  0  0  0  0
 25 26  1  0  0  0  0
 25 27  1  0  0  0  0
M  CHG  1  15   1
M  END
$$$$
default_name
  -OEChem-02102213163D

 30 30  0     1  0  0  0  0  0999 V2000
   -3.5507   -3.2183    1.8116 H   0  0  0  0  0  0  0  0  0  0  0  0
   -3.4597   -2.3913    1.1076 C   0  0  0  0  0  0  0  0  0  0  0  0
   -4.1577   -1.6043    1.3866 H   0  0  0  0  0  0  0  0  0  0  0  0
   -3.6807   -2.7523    0.1036 H   0  0  0  0  0  0  0  0  0  0  0  0
   -2.0477   -1.8543    1.1546 C   0  0  0  0  0  0  0  0  0  0  0  0
   -1.2227   -2.3443    1.9146 O   0  0  0  0  0  0  0  0  0  0  0  0
   -1.7517   -0.8483    0.3266 N   0  0  0  0  0  0  0  0  0  0  0  0
   -2.4847   -0.5123   -0.2804 H   0  0  0  0  0  0  0  0  0  0  0  0
   -0.4117   -0.2463    0.2186 C   0  0  1  0  0  0  0  0  0  0  0  0
    0.1554   -0.5152    1.1133 H   0  0  0  0  0  0  0  0  0  0  0  0
    0.3164   -0.8780   -0.9905 C   0  0  0  0  0  0  0  0  0  0  0  0
    1.0352   -0.1535   -1.3816 H   0  0  0  0  0  0  0  0  0  0  0  0
    0.8876   -1.7436   -0.6482 H   0  0  0  0  0  0  0  0  0  0  0  0
   -0.5846   -1.3264   -2.1217 C   0  0  0  0  0  0  0  0  0  0  0  0
   -0.5295   -0.8575   -3.4200 N   0  3  0  0  0  0  0  0  0  0  0  0
    0.1806   -0.1992   -3.7534 H   0  0  0  0  0  0  0  0  0  0  0  0
   -1.4820   -1.4836   -4.1394 C   0  0  0  0  0  0  0  0  0  0  0  0
   -1.6724   -1.3304   -5.1998 H   0  0  0  0  0  0  0  0  0  0  0  0
   -2.1411   -2.3388   -3.3254 N   0  0  0  0  0  0  0  0  0  0  0  0
   -2.9093   -2.9474   -3.5954 H   0  0  0  0  0  0  0  0  0  0  0  0
   -1.5901   -2.2525   -2.0544 C   0  0  0  0  0  0  0  0  0  0  0  0
   -1.8909   -2.8084   -1.1707 H   0  0  0  0  0  0  0  0  0  0  0  0
   -0.4874    1.2908    0.1962 C   0  0  0  0  0  0  0  0  0  0  0  0
   -1.3116    1.8673   -0.5151 O   0  0  0  0  0  0  0  0  0  0  0  0
    0.3889    1.9422    0.9708 N   0  0  0  0  0  0  0  0  0  0  0  0
    1.0197    1.3866    1.5283 H   0  0  0  0  0  0  0  0  0  0  0  0
    0.5081    3.3999    1.0720 C   0  0  0  0  0  0  0  0  0  0  0  0
    0.0188    3.7538    1.9817 H   0  0  0  0  0  0  0  0  0  0  0  0
    1.5607    3.6858    1.1098 H   0  0  0  0  0  0  0  0  0  0  0  0
    0.0459    3.8890    0.2119 H   0  0  0  0  0  0  0  0  0  0  0  0
  5  6  2  0  0  0  0
  5  7  1  0  0  0  0
  2  3  1  0  0  0  0
  2  4  1  0  0  0  0
  2  5  1  0  0  0  0
  1  2  1  0  0  0  0
 23 24  2  0  0  0  0
 23 25  1  0  0  0  0
 21 22  1  0  0  0  0
 19 20  1  0  0  0  0
 19 21  1  0  0  0  0
 17 18  1  0  0  0  0
 17 19  1  0  0  0  0
 15 16  1  0  0  0  0
 15 17  2  0  0  0  0
 14 15  1  0  0  0  0
 14 21  2  0  0  0  0
 11 12  1  0  0  0  0
 11 13  1  0  0  0  0
 11 14  1  0  0  0  0
  9 10  1  0  0  0  0
  9 11  1  0  0  0  0
  9 23  1  0  0  0  0
  7  8  1  0  0  0  0
  7  9  1  0  0  0  0
 27 28  1  0  0  0  0
 27 29  1  0  0  0  0
 27 30  1  0  0  0  0
 25 26  1  0  0  0  0
 25 27  1  0  0  0  0
M  CHG  1  15   1
M  END
$$$$
default_name
  -OEChem-02102213163D

 30 30  0     1  0  0  0  0  0999 V2000
   -3.5507   -3.2183    1.8116 H   0  0  0  0  0  0  0  0  0  0  0  0
   -3.4597   -2.3913    1.1076 C   0  0  0  0  0  0  0  0  0  0  0  0
   -4.1577   -1.6043    1.3866 H   0  0  0  0  0  0  0  0  0  0  0  0
   -3.6807   -2.7523    0.1036 H   0  0  0  0  0  0  0  0  0  0  0  0
   -2.0477   -1.8543    1.1546 C   0  0  0  0  0  0  0  0  0  0  0  0
   -1.2227   -2.3443    1.9146 O   0  0  0  0  0  0  0  0  0  0  0  0
   -1.7517   -0.8483    0.3266 N   0  0  0  0  0  0  0  0  0  0  0  0
   -2.4847   -0.5123   -0.2804 H   0  0  0  0  0  0  0  0  0  0  0  0
   -0.4117   -0.2463    0.2186 C   0  0  1  0  0  0  0  0  0  0  0  0
    0.1554   -0.5152    1.1133 H   0  0  0  0  0  0  0  0  0  0  0  0
    0.3164   -0.8780   -0.9905 C   0  0  0  0  0  0  0  0  0  0  0  0
    1.0352   -0.1535   -1.3816 H   0  0  0  0  0  0  0  0  0  0  0  0
    0.8876   -1.7436   -0.6482 H   0  0  0  0  0  0  0  0  0  0  0  0
   -0.5846   -1.3264   -2.1217 C   0  0  0  0  0  0  0  0  0  0  0  0
   -0.3574   -1.0922   -3.4641 N   0  3  0  0  0  0  0  0  0  0  0  0
    0.4888   -0.6412   -3.8237 H   0  0  0  0  0  0  0  0  0  0  0  0
   -1.3695   -1.6365   -4.1684 C   0  0  0  0  0  0  0  0  0  0  0  0
   -1.4600   -1.6237   -5.2527 H   0  0  0  0  0  0  0  0  0  0  0  0
   -2.2346   -2.2101   -3.3019 N   0  0  0  0  0  0  0  0  0  0  0  0
   -3.0907   -2.6995   -3.5492 H   0  0  0  0  0  0  0  0  0  0  0  0
   -1.7568   -2.0244   -2.0121 C   0  0  0  0  0  0  0  0  0  0  0  0
   -2.2161   -2.3639   -1.0878 H   0  0  0  0  0  0  0  0  0  0  0  0
   -0.4874    1.2908    0.1962 C   0  0  0  0  0  0  0  0  0  0  0  0
   -1.3116    1.8673   -0.5151 O   0  0  0  0  0  0  0  0  0  0  0  0
    0.3889    1.9422    0.9708 N   0  0  0  0  0  0  0  0  0  0  0  0
    1.0197    1.3866    1.5283 H   0  0  0  0  0  0  0  0  0  0  0  0
    0.5081    3.3999    1.0720 C   0  0  0  0  0  0  0  0  0  0  0  0
    0.0188    3.7538    1.9817 H   0  0  0  0  0  0  0  0  0  0  0  0
    1.5607    3.6858    1.1098 H   0  0  0  0  0  0  0  0  0  0  0  0
    0.0459    3.8890    0.2119 H   0  0  0  0  0  0  0  0  0  0  0  0
  5  6  2  0  0  0  0
  5  7  1  0  0  0  0
  2  3  1  0  0  0  0
  2  4  1  0  0  0  0
  2  5  1  0  0  0  0
  1  2  1  0  0  0  0
 23 24  2  0  0  0  0
 23 25  1  0  0  0  0
 21 22  1  0  0  0  0
 19 20  1  0  0  0  0
 19 21  1  0  0  0  0
 17 18  1  0  0  0  0
 17 19  1  0  0  0  0
 15 16  1  0  0  0  0
 15 17  2  0  0  0  0
 14 15  1  0  0  0  0
 14 21  2  0  0  0  0
 11 12  1  0  0  0  0
 11 13  1  0  0  0  0
 11 14  1  0  0  0  0
  9 10  1  0  0  0  0
  9 11  1  0  0  0  0
  9 23  1  0  0  0  0
  7  8  1  0  0  0  0
  7  9  1  0  0  0  0
 27 28  1  0  0  0  0
 27 29  1  0  0  0  0
 27 30  1  0  0  0  0
 25 26  1  0  0  0  0
 25 27  1  0  0  0  0
M  CHG  1  15   1
M  END
$$$$
default_name
  -OEChem-02102213163D

 30 30  0     1  0  0  0  0  0999 V2000
   -3.5507   -3.2183    1.8116 H   0  0  0  0  0  0  0  0  0  0  0  0
   -3.4597   -2.3913    1.1076 C   0  0  0  0  0  0  0  0  0  0  0  0
   -4.1577   -1.6043    1.3866 H   0  0  0  0  0  0  0  0  0  0  0  0
   -3.6807   -2.7523    0.1036 H   0  0  0  0  0  0  0  0  0  0  0  0
   -2.0477   -1.8543    1.1546 C   0  0  0  0  0  0  0  0  0  0  0  0
   -1.2227   -2.3443    1.9146 O   0  0  0  0  0  0  0  0  0  0  0  0
   -1.7517   -0.8483    0.3266 N   0  0  0  0  0  0  0  0  0  0  0  0
   -2.4847   -0.5123   -0.2804 H   0  0  0  0  0  0  0  0  0  0  0  0
   -0.4117   -0.2463    0.2186 C   0  0  1  0  0  0  0  0  0  0  0  0
    0.1554   -0.5152    1.1133 H   0  0  0  0  0  0  0  0  0  0  0  0
    0.3164   -0.8780   -0.9905 C   0  0  0  0  0  0  0  0  0  0  0  0
    1.0352   -0.1535   -1.3816 H   0  0  0  0  0  0  0  0  0  0  0  0
    0.8876   -1.7436   -0.6482 H   0  0  0  0  0  0  0  0  0  0  0  0
   -0.5846   -1.3264   -2.1217 C   0  0  0  0  0  0  0  0  0  0  0  0
   -0.2331   -1.3589   -3.4574 N   0  3  0  0  0  0  0  0  0  0  0  0
    0.7065   -1.1386   -3.7999 H   0  0  0  0  0  0  0  0  0  0  0  0
   -1.2882   -1.8104   -4.1642 C   0  0  0  0  0  0  0  0  0  0  0  0
   -1.3075   -1.9562   -5.2424 H   0  0  0  0  0  0  0  0  0  0  0  0
   -2.3019   -2.0641   -3.3062 N   0  0  0  0  0  0  0  0  0  0  0  0
   -3.2215   -2.4179   -3.5566 H   0  0  0  0  0  0  0  0  0  0  0  0
   -1.8769   -1.7653   -2.0191 C   0  0  0  0  0  0  0  0  0  0  0  0
   -2.4507   -1.8589   -1.1012 H   0  0  0  0  0  0  0  0  0  0  0  0
   -0.4874    1.2908    0.1962 C   0  0  0  0  0  0  0  0  0  0  0  0
   -1.3116    1.8673   -0.5151 O   0  0  0  0  0  0  0  0  0  0  0  0
    0.3889    1.9422    0.9708 N   0  0  0  0  0  0  0  0  0  0  0  0
    1.0197    1.3866    1.5283 H   0  0  0  0  0  0  0  0  0  0  0  0
    0.5081    3.3999    1.0720 C   0  0  0  0  0  0  0  0  0  0  0  0
    0.0188    3.7538    1.9817 H   0  0  0  0  0  0  0  0  0  0  0  0
    1.5607    3.6858    1.1098 H   0  0  0  0  0  0  0  0  0  0  0  0
    0.0459    3.8890    0.2119 H   0  0  0  0  0  0  0  0  0  0  0  0
  5  6  2  0  0  0  0
  5  7  1  0  0  0  0
  2  3  1  0  0  0  0
  2  4  1  0  0  0  0
  2  5  1  0  0  0  0
  1  2  1  0  0  0  0
 23 24  2  0  0  0  0
 23 25  1  0  0  0  0
 21 22  1  0  0  0  0
 19 20  1  0  0  0  0
 19 21  1  0  0  0  0
 17 18  1  0  0  0  0
 17 19  1  0  0  0  0
 15 16  1  0  0  0  0
 15 17  2  0  0  0  0
 14 15  1  0  0  0  0
 14 21  2  0  0  0  0
 11 12  1  0  0  0  0
 11 13  1  0  0  0  0
 11 14  1  0  0  0  0
  9 10  1  0  0  0  0
  9 11  1  0  0  0  0
  9 23  1  0  0  0  0
  7  8  1  0  0  0  0
  7  9  1  0  0  0  0
 27 28  1  0  0  0  0
 27 29  1  0  0  0  0
 27 30  1  0  0  0  0
 25 26  1  0  0  0  0
 25 27  1  0  0  0  0
M  CHG  1  15   1
M  END
$$$$
default_name
  -OEChem-02102213163D

 30 30  0     1  0  0  0  0  0999 V2000
   -3.5507   -3.2183    1.8116 H   0  0  0  0  0  0  0  0  0  0  0  0
   -3.4597   -2.3913    1.1076 C   0  0  0  0  0  0  0  0  0  0  0  0
   -4.1577   -1.6043    1.3866 H   0  0  0  0  0  0  0  0  0  0  0  0
   -3.6807   -2.7523    0.1036 H   0  0  0  0  0  0  0  0  0  0  0  0
   -2.0477   -1.8543    1.1546 C   0  0  0  0  0  0  0  0  0  0  0  0
   -1.2227   -2.3443    1.9146 O   0  0  0  0  0  0  0  0  0  0  0  0
   -1.7517   -0.8483    0.3266 N   0  0  0  0  0  0  0  0  0  0  0  0
   -2.4847   -0.5123   -0.2804 H   0  0  0  0  0  0  0  0  0  0  0  0
   -0.4117   -0.2463    0.2186 C   0  0  1  0  0  0  0  0  0  0  0  0
    0.1554   -0.5152    1.1133 H   0  0  0  0  0  0  0  0  0  0  0  0
    0.3164   -0.8780   -0.9905 C   0  0  0  0  0  0  0  0  0  0  0  0
    1.0352   -0.1535   -1.3816 H   0  0  0  0  0  0  0  0  0  0  0  0
    0.8876   -1.7436   -0.6482 H   0  0  0  0  0  0  0  0  0  0  0  0
   -0.5846   -1.3264   -2.1217 C   0  0  0  0  0  0  0  0  0  0  0  0
   -0.1652   -1.6395   -3.4002 N   0  3  0  0  0  0  0  0  0  0  0  0
    0.8187   -1.6574   -3.6837 H   0  0  0  0  0  0  0  0  0  0  0  0
   -1.2436   -1.9935   -4.1272 C   0  0  0  0  0  0  0  0  0  0  0  0
   -1.2252   -2.3053   -5.1695 H   0  0  0  0  0  0  0  0  0  0  0  0
   -2.3384   -1.9108   -3.3379 N   0  0  0  0  0  0  0  0  0  0  0  0
   -3.2929   -2.1217   -3.6172 H   0  0  0  0  0  0  0  0  0  0  0  0
   -1.9423   -1.4930   -2.0750 C   0  0  0  0  0  0  0  0  0  0  0  0
   -2.5785   -1.3279   -1.2098 H   0  0  0  0  0  0  0  0  0  0  0  0
   -0.4874    1.2908    0.1962 C   0  0  0  0  0  0  0  0  0  0  0  0
   -1.3116    1.8673   -0.5151 O   0  0  0  0  0  0  0  0  0  0  0  0
    0.3889    1.9422    0.9708 N   0  0  0  0  0  0  0  0  0  0  0  0
    1.0197    1.3866    1.5283 H   0  0  0  0  0  0  0  0  0  0  0  0
    0.5081    3.3999    1.0720 C   0  0  0  0  0  0  0  0  0  0  0  0
    0.0188    3.7538    1.9817 H   0  0  0  0  0  0  0  0  0  0  0  0
    1.5607    3.6858    1.1098 H   0  0  0  0  0  0  0  0  0  0  0  0
    0.0459    3.8890    0.2119 H   0  0  0  0  0  0  0  0  0  0  0  0
  5  6  2  0  0  0  0
  5  7  1  0  0  0  0
  2  3  1  0  0  0  0
  2  4  1  0  0  0  0
  2  5  1  0  0  0  0
  1  2  1  0  0  0  0
 23 24  2  0  0  0  0
 23 25  1  0  0  0  0
 21 22  1  0  0  0  0
 19 20  1  0  0  0  0
 19 21  1  0  0  0  0
 17 18  1  0  0  0  0
 17 19  1  0  0  0  0
 15 16  1  0  0  0  0
 15 17  2  0  0  0  0
 14 15  1  0  0  0  0
 14 21  2  0  0  0  0
 11 12  1  0  0  0  0
 11 13  1  0  0  0  0
 11 14  1  0  0  0  0
  9 10  1  0  0  0  0
  9 11  1  0  0  0  0
  9 23  1  0  0  0  0
  7  8  1  0  0  0  0
  7  9  1  0  0  0  0
 27 28  1  0  0  0  0
 27 29  1  0  0  0  0
 27 30  1  0  0  0  0
 25 26  1  0  0  0  0
 25 27  1  0  0  0  0
M  CHG  1  15   1
M  END
$$$$
default_name
  -OEChem-02102213163D

 30 30  0     1  0  0  0  0  0999 V2000
   -3.5507   -3.2183    1.8116 H   0  0  0  0  0  0  0  0  0  0  0  0
   -3.4597   -2.3913    1.1076 C   0  0  0  0  0  0  0  0  0  0  0  0
   -4.1577   -1.6043    1.3866 H   0  0  0  0  0  0  0  0  0  0  0  0
   -3.6807   -2.7523    0.1036 H   0  0  0  0  0  0  0  0  0  0  0  0
   -2.0477   -1.8543    1.1546 C   0  0  0  0  0  0  0  0  0  0  0  0
   -1.2227   -2.3443    1.9146 O   0  0  0  0  0  0  0  0  0  0  0  0
   -1.7517   -0.8483    0.3266 N   0  0  0  0  0  0  0  0  0  0  0  0
   -2.4847   -0.5123   -0.2804 H   0  0  0  0  0  0  0  0  0  0  0  0
   -0.4117   -0.2463    0.2186 C   0  0  1  0  0  0  0  0  0  0  0  0
    0.1554   -0.5152    1.1133 H   0  0  0  0  0  0  0  0  0  0  0  0
    0.3164   -0.8780   -0.9905 C   0  0  0  0  0  0  0  0  0  0  0  0
    1.2043   -0.2809   -1.2132 H   0  0  0  0  0  0  0  0  0  0  0  0
    0.6624   -1.8763   -0.7144 H   0  0  0  0  0  0  0  0  0  0  0  0
   -0.5147   -0.9999   -2.2502 C   0  0  0  0  0  0  0  0  0  0  0  0
   -0.0759   -1.5303   -3.4480 N   0  3  0  0  0  0  0  0  0  0  0  0
    0.8478   -1.9541   -3.5736 H   0  0  0  0  0  0  0  0  0  0  0  0
   -1.0881   -1.4710   -4.3360 C   0  0  0  0  0  0  0  0  0  0  0  0
   -1.0458   -1.8270   -5.3634 H   0  0  0  0  0  0  0  0  0  0  0  0
   -2.1594   -0.9132   -3.7280 N   0  0  0  0  0  0  0  0  0  0  0  0
   -3.0670   -0.7448   -4.1541 H   0  0  0  0  0  0  0  0  0  0  0  0
   -1.8164   -0.6112   -2.4174 C   0  0  0  0  0  0  0  0  0  0  0  0
   -2.4508   -0.1553   -1.6624 H   0  0  0  0  0  0  0  0  0  0  0  0
   -0.4874    1.2908    0.1962 C   0  0  0  0  0  0  0  0  0  0  0  0
   -1.3116    1.8673   -0.5151 O   0  0  0  0  0  0  0  0  0  0  0  0
    0.3889    1.9422    0.9708 N   0  0  0  0  0  0  0  0  0  0  0  0
    1.0197    1.3866    1.5283 H   0  0  0  0  0  0  0  0  0  0  0  0
    0.5081    3.3999    1.0720 C   0  0  0  0  0  0  0  0  0  0  0  0
    0.0188    3.7538    1.9817 H   0  0  0  0  0  0  0  0  0  0  0  0
    1.5607    3.6858    1.1098 H   0  0  0  0  0  0  0  0  0  0  0  0
    0.0459    3.8890    0.2119 H   0  0  0  0  0  0  0  0  0  0  0  0
  5  6  2  0  0  0  0
  5  7  1  0  0  0  0
  2  3  1  0  0  0  0
  2  4  1  0  0  0  0
  2  5  1  0  0  0  0
  1  2  1  0  0  0  0
 23 24  2  0  0  0  0
 23 25  1  0  0  0  0
 21 22  1  0  0  0  0
 19 20  1  0  0  0  0
 19 21  1  0  0  0  0
 17 18  1  0  0  0  0
 17 19  1  0  0  0  0
 15 16  1  0  0  0  0
 15 17  2  0  0  0  0
 14 15  1  0  0  0  0
 14 21  2  0  0  0  0
 11 12  1  0  0  0  0
 11 13  1  0  0  0  0
 11 14  1  0  0  0  0
  9 10  1  0  0  0  0
  9 11  1  0  0  0  0
  9 23  1  0  0  0  0
  7  8  1  0  0  0  0
  7  9  1  0  0  0  0
 27 28  1  0  0  0  0
 27 29  1  0  0  0  0
 27 30  1  0  0  0  0
 25 26  1  0  0  0  0
 25 27  1  0  0  0  0
M  CHG  1  15   1
M  END
$$$$
default_name
  -OEChem-02102213163D

 30 30  0     1  0  0  0  0  0999 V2000
   -3.5507   -3.2183    1.8116 H   0  0  0  0  0  0  0  0  0  0  0  0
   -3.4597   -2.3913    1.1076 C   0  0  0  0  0  0  0  0  0  0  0  0
   -4.1577   -1.6043    1.3866 H   0  0  0  0  0  0  0  0  0  0  0  0
   -3.6807   -2.7523    0.1036 H   0  0  0  0  0  0  0  0  0  0  0  0
   -2.0477   -1.8543    1.1546 C   0  0  0  0  0  0  0  0  0  0  0  0
   -1.2227   -2.3443    1.9146 O   0  0  0  0  0  0  0  0  0  0  0  0
   -1.7517   -0.8483    0.3266 N   0  0  0  0  0  0  0  0  0  0  0  0
   -2.4847   -0.5123   -0.2804 H   0  0  0  0  0  0  0  0  0  0  0  0
   -0.4117   -0.2463    0.2186 C   0  0  1  0  0  0  0  0  0  0  0  0
    0.1554   -0.5152    1.1133 H   0  0  0  0  0  0  0  0  0  0  0  0
    0.3164   -0.8780   -0.9905 C   0  0  0  0  0  0  0  0  0  0  0  0
    1.2043   -0.2809   -1.2132 H   0  0  0  0  0  0  0  0  0  0  0  0
    0.6624   -1.8763   -0.7144 H   0  0  0  0  0  0  0  0  0  0  0  0
   -0.5147   -0.9999   -2.2502 C   0  0  0  0  0  0  0  0  0  0  0  0
   -0.1951   -1.7791   -3.3453 N   0  3  0  0  0  0  0  0  0  0  0  0
    0.6154   -2.4042   -3.3767 H   0  0  0  0  0  0  0  0  0  0  0  0
   -1.1656   -1.6335   -4.2691 C   0  0  0  0  0  0  0  0  0  0  0  0
   -1.1961   -2.1348   -5.2344 H   0  0  0  0  0  0  0  0  0  0  0  0
   -2.0937   -0.7778   -3.7845 N   0  0  0  0  0  0  0  0  0  0  0  0
   -2.9409   -0.4825   -4.2627 H   0  0  0  0  0  0  0  0  0  0  0  0
   -1.7002   -0.3701   -2.5174 C   0  0  0  0  0  0  0  0  0  0  0  0
   -2.2247    0.3150   -1.8571 H   0  0  0  0  0  0  0  0  0  0  0  0
   -0.4874    1.2908    0.1962 C   0  0  0  0  0  0  0  0  0  0  0  0
   -1.3116    1.8673   -0.5151 O   0  0  0  0  0  0  0  0  0  0  0  0
    0.3889    1.9422    0.9708 N   0  0  0  0  0  0  0  0  0  0  0  0
    1.0197    1.3866    1.5283 H   0  0  0  0  0  0  0  0  0  0  0  0
    0.5081    3.3999    1.0720 C   0  0  0  0  0  0  0  0  0  0  0  0
    0.0188    3.7538    1.9817 H   0  0  0  0  0  0  0  0  0  0  0  0
    1.5607    3.6858    1.1098 H   0  0  0  0  0  0  0  0  0  0  0  0
    0.0459    3.8890    0.2119 H   0  0  0  0  0  0  0  0  0  0  0  0
  5  6  2  0  0  0  0
  5  7  1  0  0  0  0
  2  3  1  0  0  0  0
  2  4  1  0  0  0  0
  2  5  1  0  0  0  0
  1  2  1  0  0  0  0
 23 24  2  0  0  0  0
 23 25  1  0  0  0  0
 21 22  1  0  0  0  0
 19 20  1  0  0  0  0
 19 21  1  0  0  0  0
 17 18  1  0  0  0  0
 17 19  1  0  0  0  0
 15 16  1  0  0  0  0
 15 17  2  0  0  0  0
 14 15  1  0  0  0  0
 14 21  2  0  0  0  0
 11 12  1  0  0  0  0
 11 13  1  0  0  0  0
 11 14  1  0  0  0  0
  9 10  1  0  0  0  0
  9 11  1  0  0  0  0
  9 23  1  0  0  0  0
  7  8  1  0  0  0  0
  7  9  1  0  0  0  0
 27 28  1  0  0  0  0
 27 29  1  0  0  0  0
 27 30  1  0  0  0  0
 25 26  1  0  0  0  0
 25 27  1  0  0  0  0
M  CHG  1  15   1
M  END
$$$$
default_name
  -OEChem-02102213163D

 30 30  0     1  0  0  0  0  0999 V2000
   -3.5507   -3.2183    1.8116 H   0  0  0  0  0  0  0  0  0  0  0  0
   -3.4597   -2.3913    1.1076 C   0  0  0  0  0  0  0  0  0  0  0  0
   -4.1577   -1.6043    1.3866 H   0  0  0  0  0  0  0  0  0  0  0  0
   -3.6807   -2.7523    0.1036 H   0  0  0  0  0  0  0  0  0  0  0  0
   -2.0477   -1.8543    1.1546 C   0  0  0  0  0  0  0  0  0  0  0  0
   -1.2227   -2.3443    1.9146 O   0  0  0  0  0  0  0  0  0  0  0  0
   -1.7517   -0.8483    0.3266 N   0  0  0  0  0  0  0  0  0  0  0  0
   -2.4847   -0.5123   -0.2804 H   0  0  0  0  0  0  0  0  0  0  0  0
   -0.4117   -0.2463    0.2186 C   0  0  1  0  0  0  0  0  0  0  0  0
    0.1554   -0.5152    1.1133 H   0  0  0  0  0  0  0  0  0  0  0  0
    0.3164   -0.8780   -0.9905 C   0  0  0  0  0  0  0  0  0  0  0  0
    1.2043   -0.2809   -1.2132 H   0  0  0  0  0  0  0  0  0  0  0  0
    0.6624   -1.8763   -0.7144 H   0  0  0  0  0  0  0  0  0  0  0  0
   -0.5147   -0.9999   -2.2502 C   0  0  0  0  0  0  0  0  0  0  0  0
   -0.3659   -1.9791   -3.2132 N   0  3  0  0  0  0  0  0  0  0  0  0
    0.2899   -2.7609   -3.1275 H   0  0  0  0  0  0  0  0  0  0  0  0
   -1.2769   -1.7642   -4.1831 C   0  0  0  0  0  0  0  0  0  0  0  0
   -1.4102   -2.3814   -5.0693 H   0  0  0  0  0  0  0  0  0  0  0  0
   -1.9999   -0.6691   -3.8569 N   0  0  0  0  0  0  0  0  0  0  0  0
   -2.7603   -0.2717   -4.4022 H   0  0  0  0  0  0  0  0  0  0  0  0
   -1.5340   -0.1765   -2.6458 C   0  0  0  0  0  0  0  0  0  0  0  0
   -1.9009    0.6929   -2.1072 H   0  0  0  0  0  0  0  0  0  0  0  0
   -0.4874    1.2908    0.1962 C   0  0  0  0  0  0  0  0  0  0  0  0
   -1.3116    1.8673   -0.5151 O   0  0  0  0  0  0  0  0  0  0  0  0
    0.3889    1.9422    0.9708 N   0  0  0  0  0  0  0  0  0  0  0  0
    1.0197    1.3866    1.5283 H   0  0  0  0  0  0  0  0  0  0  0  0
    0.5081    3.3999    1.0720 C   0  0  0  0  0  0  0  0  0  0  0  0
    0.0188    3.7538    1.9817 H   0  0  0  0  0  0  0  0  0  0  0  0
    1.5607    3.6858    1.1098 H   0  0  0  0  0  0  0  0  0  0  0  0
    0.0459    3.8890    0.2119 H   0  0  0  0  0  0  0  0  0  0  0  0
  5  6  2  0  0  0  0
  5  7  1  0  0  0  0
  2  3  1  0  0  0  0
  2  4  1  0  0  0  0
  2  5  1  0  0  0  0
  1  2  1  0  0  0  0
 23 24  2  0  0  0  0
 23 25  1  0  0  0  0
 21 22  1  0  0  0  0
 19 20  1  0  0  0  0
 19 21  1  0  0  0  0
 17 18  1  0  0  0  0
 17 19  1  0  0  0  0
 15 16  1  0  0  0  0
 15 17  2  0  0  0  0
 14 15  1  0  0  0  0
 14 21  2  0  0  0  0
 11 12  1  0  0  0  0
 11 13  1  0  0  0  0
 11 14  1  0  0  0  0
  9 10  1  0  0  0  0
  9 11  1  0  0  0  0
  9 23  1  0  0  0  0
  7  8  1  0  0  0  0
  7  9  1  0  0  0  0
 27 28  1  0  0  0  0
 27 29  1  0  0  0  0
 27 30  1  0  0  0  0
 25 26  1  0  0  0  0
 25 27  1  0  0  0  0
M  CHG  1  15   1
M  END
$$$$
default_name
  -OEChem-02102213163D

 30 30  0     1  0  0  0  0  0999 V2000
   -3.5507   -3.2183    1.8116 H   0  0  0  0  0  0  0  0  0  0  0  0
   -3.4597   -2.3913    1.1076 C   0  0  0  0  0  0  0  0  0  0  0  0
   -4.1577   -1.6043    1.3866 H   0  0  0  0  0  0  0  0  0  0  0  0
   -3.6807   -2.7523    0.1036 H   0  0  0  0  0  0  0  0  0  0  0  0
   -2.0477   -1.8543    1.1546 C   0  0  0  0  0  0  0  0  0  0  0  0
   -1.2227   -2.3443    1.9146 O   0  0  0  0  0  0  0  0  0  0  0  0
   -1.7517   -0.8483    0.3266 N   0  0  0  0  0  0  0  0  0  0  0  0
   -2.4847   -0.5123   -0.2804 H   0  0  0  0  0  0  0  0  0  0  0  0
   -0.4117   -0.2463    0.2186 C   0  0  1  0  0  0  0  0  0  0  0  0
    0.1554   -0.5152    1.1133 H   0  0  0  0  0  0  0  0  0  0  0  0
    0.3164   -0.8780   -0.9905 C   0  0  0  0  0  0  0  0  0  0  0  0
    1.2043   -0.2809   -1.2132 H   0  0  0  0  0  0  0  0  0  0  0  0
    0.6624   -1.8763   -0.7144 H   0  0  0  0  0  0  0  0  0  0  0  0
   -0.5147   -0.9999   -2.2502 C   0  0  0  0  0  0  0  0  0  0  0  0
   -0.5767   -2.1168   -3.0609 N   0  3  0  0  0  0  0  0  0  0  0  0
   -0.1065   -3.0000   -2.8429 H   0  0  0  0  0  0  0  0  0  0  0  0
   -1.4143   -1.8544   -4.0837 C   0  0  0  0  0  0  0  0  0  0  0  0
   -1.6736   -2.5500   -4.8792 H   0  0  0  0  0  0  0  0  0  0  0  0
   -1.8843   -0.5946   -3.9403 N   0  0  0  0  0  0  0  0  0  0  0  0
   -2.5376   -0.1268   -4.5631 H   0  0  0  0  0  0  0  0  0  0  0  0
   -1.3291   -0.0435   -2.7938 C   0  0  0  0  0  0  0  0  0  0  0  0
   -1.5016    0.9526   -2.3958 H   0  0  0  0  0  0  0  0  0  0  0  0
   -0.4874    1.2908    0.1962 C   0  0  0  0  0  0  0  0  0  0  0  0
   -1.3116    1.8673   -0.5151 O   0  0  0  0  0  0  0  0  0  0  0  0
    0.3889    1.9422    0.9708 N   0  0  0  0  0  0  0  0  0  0  0  0
    1.0197    1.3866    1.5283 H   0  0  0  0  0  0  0  0  0  0  0  0
    0.5081    3.3999    1.0720 C   0  0  0  0  0  0  0  0  0  0  0  0
    0.0188    3.7538    1.9817 H   0  0  0  0  0  0  0  0  0  0  0  0
    1.5607    3.6858    1.1098 H   0  0  0  0  0  0  0  0  0  0  0  0
    0.0459    3.8890    0.2119 H   0  0  0  0  0  0  0  0  0  0  0  0
  5  6  2  0  0  0  0
  5  7  1  0  0  0  0
  2  3  1  0  0  0  0
  2  4  1  0  0  0  0
  2  5  1  0  0  0  0
  1  2  1  0  0  0  0
 23 24  2  0  0  0  0
 23 25  1  0  0  0  0
 21 22  1  0  0  0  0
 19 20  1  0  0  0  0
 19 21  1  0  0  0  0
 17 18  1  0  0  0  0
 17 19  1  0  0  0  0
 15 16  1  0  0  0  0
 15 17  2  0  0  0  0
 14 15  1  0  0  0  0
 14 21  2  0  0  0  0
 11 12  1  0  0  0  0
 11 13  1  0  0  0  0
 11 14  1  0  0  0  0
  9 10  1  0  0  0  0
  9 11  1  0  0  0  0
  9 23  1  0  0  0  0
  7  8  1  0  0  0  0
  7  9  1  0  0  0  0
 27 28  1  0  0  0  0
 27 29  1  0  0  0  0
 27 30  1  0  0  0  0
 25 26  1  0  0  0  0
 25 27  1  0  0  0  0
M  CHG  1  15   1
M  END
$$$$
default_name
  -OEChem-02102213163D

 30 30  0     1  0  0  0  0  0999 V2000
   -3.5507   -3.2183    1.8116 H   0  0  0  0  0  0  0  0  0  0  0  0
   -3.4597   -2.3913    1.1076 C   0  0  0  0  0  0  0  0  0  0  0  0
   -4.1577   -1.6043    1.3866 H   0  0  0  0  0  0  0  0  0  0  0  0
   -3.6807   -2.7523    0.1036 H   0  0  0  0  0  0  0  0  0  0  0  0
   -2.0477   -1.8543    1.1546 C   0  0  0  0  0  0  0  0  0  0  0  0
   -1.2227   -2.3443    1.9146 O   0  0  0  0  0  0  0  0  0  0  0  0
   -1.7517   -0.8483    0.3266 N   0  0  0  0  0  0  0  0  0  0  0  0
   -2.4847   -0.5123   -0.2804 H   0  0  0  0  0  0  0  0  0  0  0  0
   -0.4117   -0.2463    0.2186 C   0  0  1  0  0  0  0  0  0  0  0  0
    0.1554   -0.5152    1.1133 H   0  0  0  0  0  0  0  0  0  0  0  0
    0.3164   -0.8780   -0.9905 C   0  0  0  0  0  0  0  0  0  0  0  0
    1.2043   -0.2809   -1.2132 H   0  0  0  0  0  0  0  0  0  0  0  0
    0.6624   -1.8763   -0.7144 H   0  0  0  0  0  0  0  0  0  0  0  0
   -0.5147   -0.9999   -2.2502 C   0  0  0  0  0  0  0  0  0  0  0  0
   -0.8131   -2.1827   -2.8985 N   0  3  0  0  0  0  0  0  0  0  0  0
   -0.5468   -3.1051   -2.5422 H   0  0  0  0  0  0  0  0  0  0  0  0
   -1.5685   -1.8977   -3.9778 C   0  0  0  0  0  0  0  0  0  0  0  0
   -1.9683   -2.6292   -4.6771 H   0  0  0  0  0  0  0  0  0  0  0  0
   -1.7549   -0.5594   -4.0291 N   0  0  0  0  0  0  0  0  0  0  0  0
   -2.2879   -0.0576   -4.7345 H   0  0  0  0  0  0  0  0  0  0  0  0
   -1.0995    0.0198   -2.9514 C   0  0  0  0  0  0  0  0  0  0  0  0
   -1.0539    1.0766   -2.7031 H   0  0  0  0  0  0  0  0  0  0  0  0
   -0.4874    1.2908    0.1962 C   0  0  0  0  0  0  0  0  0  0  0  0
   -1.3116    1.8673   -0.5151 O   0  0  0  0  0  0  0  0  0  0  0  0
    0.3889    1.9422    0.9708 N   0  0  0  0  0  0  0  0  0  0  0  0
    1.0197    1.3866    1.5283 H   0  0  0  0  0  0  0  0  0  0  0  0
    0.5081    3.3999    1.0720 C   0  0  0  0  0  0  0  0  0  0  0  0
    0.0188    3.7538    1.9817 H   0  0  0  0  0  0  0  0  0  0  0  0
    1.5607    3.6858    1.1098 H   0  0  0  0  0  0  0  0  0  0  0  0
    0.0459    3.8890    0.2119 H   0  0  0  0  0  0  0  0  0  0  0  0
  5  6  2  0  0  0  0
  5  7  1  0  0  0  0
  2  3  1  0  0  0  0
  2  4  1  0  0  0  0
  2  5  1  0  0  0  0
  1  2  1  0  0  0  0
 23 24  2  0  0  0  0
 23 25  1  0  0  0  0
 21 22  1  0  0  0  0
 19 20  1  0  0  0  0
 19 21  1  0  0  0  0
 17 18  1  0  0  0  0
 17 19  1  0  0  0  0
 15 16  1  0  0  0  0
 15 17  2  0  0  0  0
 14 15  1  0  0  0  0
 14 21  2  0  0  0  0
 11 12  1  0  0  0  0
 11 13  1  0  0  0  0
 11 14  1  0  0  0  0
  9 10  1  0  0  0  0
  9 11  1  0  0  0  0
  9 23  1  0  0  0  0
  7  8  1  0  0  0  0
  7  9  1  0  0  0  0
 27 28  1  0  0  0  0
 27 29  1  0  0  0  0
 27 30  1  0  0  0  0
 25 26  1  0  0  0  0
 25 27  1  0  0  0  0
M  CHG  1  15   1
M  END
$$$$
default_name
  -OEChem-02102213163D

 30 30  0     1  0  0  0  0  0999 V2000
   -3.5507   -3.2183    1.8116 H   0  0  0  0  0  0  0  0  0  0  0  0
   -3.4597   -2.3913    1.1076 C   0  0  0  0  0  0  0  0  0  0  0  0
   -4.1577   -1.6043    1.3866 H   0  0  0  0  0  0  0  0  0  0  0  0
   -3.6807   -2.7523    0.1036 H   0  0  0  0  0  0  0  0  0  0  0  0
   -2.0477   -1.8543    1.1546 C   0  0  0  0  0  0  0  0  0  0  0  0
   -1.2227   -2.3443    1.9146 O   0  0  0  0  0  0  0  0  0  0  0  0
   -1.7517   -0.8483    0.3266 N   0  0  0  0  0  0  0  0  0  0  0  0
   -2.4847   -0.5123   -0.2804 H   0  0  0  0  0  0  0  0  0  0  0  0
   -0.4117   -0.2463    0.2186 C   0  0  1  0  0  0  0  0  0  0  0  0
    0.1554   -0.5152    1.1133 H   0  0  0  0  0  0  0  0  0  0  0  0
    0.3164   -0.8780   -0.9905 C   0  0  0  0  0  0  0  0  0  0  0  0
    1.2043   -0.2809   -1.2132 H   0  0  0  0  0  0  0  0  0  0  0  0
    0.6624   -1.8763   -0.7144 H   0  0  0  0  0  0  0  0  0  0  0  0
   -0.5147   -0.9999   -2.2502 C   0  0  0  0  0  0  0  0  0  0  0  0
   -1.0591   -2.1724   -2.7372 N   0  3  0  0  0  0  0  0  0  0  0  0
   -1.0010   -3.0691   -2.2460 H   0  0  0  0  0  0  0  0  0  0  0  0
   -1.7290   -1.8913   -3.8725 C   0  0  0  0  0  0  0  0  0  0  0  0
   -2.2742   -2.6135   -4.4768 H   0  0  0  0  0  0  0  0  0  0  0  0
   -1.6205   -0.5659   -4.1172 N   0  0  0  0  0  0  0  0  0  0  0  0
   -2.0282   -0.0689   -4.9047 H   0  0  0  0  0  0  0  0  0  0  0  0
   -0.8607    0.0091   -3.1079 C   0  0  0  0  0  0  0  0  0  0  0  0
   -0.5884    1.0562   -3.0082 H   0  0  0  0  0  0  0  0  0  0  0  0
   -0.4874    1.2908    0.1962 C   0  0  0  0  0  0  0  0  0  0  0  0
   -1.3116    1.8673   -0.5151 O   0  0  0  0  0  0  0  0  0  0  0  0
    0.3889    1.9422    0.9708 N   0  0  0  0  0  0  0  0  0  0  0  0
    1.0197    1.3866    1.5283 H   0  0  0  0  0  0  0  0  0  0  0  0
    0.5081    3.3999    1.0720 C   0  0  0  0  0  0  0  0  0  0  0  0
    0.0188    3.7538    1.9817 H   0  0  0  0  0  0  0  0  0  0  0  0
    1.5607    3.6858    1.1098 H   0  0  0  0  0  0  0  0  0  0  0  0
    0.0459    3.8890    0.2119 H   0  0  0  0  0  0  0  0  0  0  0  0
  5  6  2  0  0  0  0
  5  7  1  0  0  0  0
  2  3  1  0  0  0  0
  2  4  1  0  0  0  0
  2  5  1  0  0  0  0
  1  2  1  0  0  0  0
 23 24  2  0  0  0  0
 23 25  1  0  0  0  0
 21 22  1  0  0  0  0
 19 20  1  0  0  0  0
 19 21  1  0  0  0  0
 17 18  1  0  0  0  0
 17 19  1  0  0  0  0
 15 16  1  0  0  0  0
 15 17  2  0  0  0  0
 14 15  1  0  0  0  0
 14 21  2  0  0  0  0
 11 12  1  0  0  0  0
 11 13  1  0  0  0  0
 11 14  1  0  0  0  0
  9 10  1  0  0  0  0
  9 11  1  0  0  0  0
  9 23  1  0  0  0  0
  7  8  1  0  0  0  0
  7  9  1  0  0  0  0
 27 28  1  0  0  0  0
 27 29  1  0  0  0  0
 27 30  1  0  0  0  0
 25 26  1  0  0  0  0
 25 27  1  0  0  0  0
M  CHG  1  15   1
M  END
$$$$
default_name
  -OEChem-02102213163D

 30 30  0     1  0  0  0  0  0999 V2000
   -3.5507   -3.2183    1.8116 H   0  0  0  0  0  0  0  0  0  0  0  0
   -3.4597   -2.3913    1.1076 C   0  0  0  0  0  0  0  0  0  0  0  0
   -4.1577   -1.6043    1.3866 H   0  0  0  0  0  0  0  0  0  0  0  0
   -3.6807   -2.7523    0.1036 H   0  0  0  0  0  0  0  0  0  0  0  0
   -2.0477   -1.8543    1.1546 C   0  0  0  0  0  0  0  0  0  0  0  0
   -1.2227   -2.3443    1.9146 O   0  0  0  0  0  0  0  0  0  0  0  0
   -1.7517   -0.8483    0.3266 N   0  0  0  0  0  0  0  0  0  0  0  0
   -2.4847   -0.5123   -0.2804 H   0  0  0  0  0  0  0  0  0  0  0  0
   -0.4117   -0.2463    0.2186 C   0  0  1  0  0  0  0  0  0  0  0  0
    0.1554   -0.5152    1.1133 H   0  0  0  0  0  0  0  0  0  0  0  0
    0.3164   -0.8780   -0.9905 C   0  0  0  0  0  0  0  0  0  0  0  0
    1.2043   -0.2809   -1.2132 H   0  0  0  0  0  0  0  0  0  0  0  0
    0.6624   -1.8763   -0.7144 H   0  0  0  0  0  0  0  0  0  0  0  0
   -0.5147   -0.9999   -2.2502 C   0  0  0  0  0  0  0  0  0  0  0  0
   -1.2978   -2.0866   -2.5880 N   0  3  0  0  0  0  0  0  0  0  0  0
   -1.4381   -2.8945   -1.9745 H   0  0  0  0  0  0  0  0  0  0  0  0
   -1.8848   -1.8357   -3.7751 C   0  0  0  0  0  0  0  0  0  0  0  0
   -2.5705   -2.5041   -4.2920 H   0  0  0  0  0  0  0  0  0  0  0  0
   -1.4902   -0.6136   -4.1985 N   0  0  0  0  0  0  0  0  0  0  0  0
   -1.7763   -0.1600   -5.0621 H   0  0  0  0  0  0  0  0  0  0  0  0
   -0.6292   -0.0748   -3.2525 C   0  0  0  0  0  0  0  0  0  0  0  0
   -0.1368    0.8930   -3.2904 H   0  0  0  0  0  0  0  0  0  0  0  0
   -0.4874    1.2908    0.1962 C   0  0  0  0  0  0  0  0  0  0  0  0
   -1.3116    1.8673   -0.5151 O   0  0  0  0  0  0  0  0  0  0  0  0
    0.3889    1.9422    0.9708 N   0  0  0  0  0  0  0  0  0  0  0  0
    1.0197    1.3866    1.5283 H   0  0  0  0  0  0  0  0  0  0  0  0
    0.5081    3.3999    1.0720 C   0  0  0  0  0  0  0  0  0  0  0  0
    0.0188    3.7538    1.9817 H   0  0  0  0  0  0  0  0  0  0  0  0
    1.5607    3.6858    1.1098 H   0  0  0  0  0  0  0  0  0  0  0  0
    0.0459    3.8890    0.2119 H   0  0  0  0  0  0  0  0  0  0  0  0
  5  6  2  0  0  0  0
  5  7  1  0  0  0  0
  2  3  1  0  0  0  0
  2  4  1  0  0  0  0
  2  5  1  0  0  0  0
  1  2  1  0  0  0  0
 23 24  2  0  0  0  0
 23 25  1  0  0  0  0
 21 22  1  0  0  0  0
 19 20  1  0  0  0  0
 19 21  1  0  0  0  0
 17 18  1  0  0  0  0
 17 19  1  0  0  0  0
 15 16  1  0  0  0  0
 15 17  2  0  0  0  0
 14 15  1  0  0  0  0
 14 21  2  0  0  0  0
 11 12  1  0  0  0  0
 11 13  1  0  0  0  0
 11 14  1  0  0  0  0
  9 10  1  0  0  0  0
  9 11  1  0  0  0  0
  9 23  1  0  0  0  0
  7  8  1  0  0  0  0
  7  9  1  0  0  0  0
 27 28  1  0  0  0  0
 27 29  1  0  0  0  0
 27 30  1  0  0  0  0
 25 26  1  0  0  0  0
 25 27  1  0  0  0  0
M  CHG  1  15   1
M  END
$$$$
default_name
  -OEChem-02102213163D

 30 30  0     1  0  0  0  0  0999 V2000
   -3.5507   -3.2183    1.8116 H   0  0  0  0  0  0  0  0  0  0  0  0
   -3.4597   -2.3913    1.1076 C   0  0  0  0  0  0  0  0  0  0  0  0
   -4.1577   -1.6043    1.3866 H   0  0  0  0  0  0  0  0  0  0  0  0
   -3.6807   -2.7523    0.1036 H   0  0  0  0  0  0  0  0  0  0  0  0
   -2.0477   -1.8543    1.1546 C   0  0  0  0  0  0  0  0  0  0  0  0
   -1.2227   -2.3443    1.9146 O   0  0  0  0  0  0  0  0  0  0  0  0
   -1.7517   -0.8483    0.3266 N   0  0  0  0  0  0  0  0  0  0  0  0
   -2.4847   -0.5123   -0.2804 H   0  0  0  0  0  0  0  0  0  0  0  0
   -0.4117   -0.2463    0.2186 C   0  0  1  0  0  0  0  0  0  0  0  0
    0.1554   -0.5152    1.1133 H   0  0  0  0  0  0  0  0  0  0  0  0
    0.3164   -0.8780   -0.9905 C   0  0  0  0  0  0  0  0  0  0  0  0
    1.2043   -0.2809   -1.2132 H   0  0  0  0  0  0  0  0  0  0  0  0
    0.6624   -1.8763   -0.7144 H   0  0  0  0  0  0  0  0  0  0  0  0
   -0.5147   -0.9999   -2.2502 C   0  0  0  0  0  0  0  0  0  0  0  0
   -1.5131   -1.9311   -2.4611 N   0  3  0  0  0  0  0  0  0  0  0  0
   -1.8284   -2.5931   -1.7462 H   0  0  0  0  0  0  0  0  0  0  0  0
   -2.0254   -1.7345   -3.6921 C   0  0  0  0  0  0  0  0  0  0  0  0
   -2.8370   -2.3082   -4.1351 H   0  0  0  0  0  0  0  0  0  0  0  0
   -1.3730   -0.6993   -4.2676 N   0  0  0  0  0  0  0  0  0  0  0  0
   -1.5494   -0.3245   -5.1959 H   0  0  0  0  0  0  0  0  0  0  0  0
   -0.4206   -0.2263   -3.3755 C   0  0  0  0  0  0  0  0  0  0  0  0
    0.2701    0.5980   -3.5303 H   0  0  0  0  0  0  0  0  0  0  0  0
   -0.4874    1.2908    0.1962 C   0  0  0  0  0  0  0  0  0  0  0  0
   -1.3116    1.8673   -0.5151 O   0  0  0  0  0  0  0  0  0  0  0  0
    0.3889    1.9422    0.9708 N   0  0  0  0  0  0  0  0  0  0  0  0
    1.0197    1.3866    1.5283 H   0  0  0  0  0  0  0  0  0  0  0  0
    0.5081    3.3999    1.0720 C   0  0  0  0  0  0  0  0  0  0  0  0
    0.0188    3.7538    1.9817 H   0  0  0  0  0  0  0  0  0  0  0  0
    1.5607    3.6858    1.1098 H   0  0  0  0  0  0  0  0  0  0  0  0
    0.0459    3.8890    0.2119 H   0  0  0  0  0  0  0  0  0  0  0  0
  5  6  2  0  0  0  0
  5  7  1  0  0  0  0
  2  3  1  0  0  0  0
  2  4  1  0  0  0  0
  2  5  1  0  0  0  0
  1  2  1  0  0  0  0
 23 24  2  0  0  0  0
 23 25  1  0  0  0  0
 21 22  1  0  0  0  0
 19 20  1  0  0  0  0
 19 21  1  0  0  0  0
 17 18  1  0  0  0  0
 17 19  1  0  0  0  0
 15 16  1  0  0  0  0
 15 17  2  0  0  0  0
 14 15  1  0  0  0  0
 14 21  2  0  0  0  0
 11 12  1  0  0  0  0
 11 13  1  0  0  0  0
 11 14  1  0  0  0  0
  9 10  1  0  0  0  0
  9 11  1  0  0  0  0
  9 23  1  0  0  0  0
  7  8  1  0  0  0  0
  7  9  1  0  0  0  0
 27 28  1  0  0  0  0
 27 29  1  0  0  0  0
 27 30  1  0  0  0  0
 25 26  1  0  0  0  0
 25 27  1  0  0  0  0
M  CHG  1  15   1
M  END
$$$$
default_name
  -OEChem-02102213163D

 30 30  0     1  0  0  0  0  0999 V2000
   -3.5507   -3.2183    1.8116 H   0  0  0  0  0  0  0  0  0  0  0  0
   -3.4597   -2.3913    1.1076 C   0  0  0  0  0  0  0  0  0  0  0  0
   -4.1577   -1.6043    1.3866 H   0  0  0  0  0  0  0  0  0  0  0  0
   -3.6807   -2.7523    0.1036 H   0  0  0  0  0  0  0  0  0  0  0  0
   -2.0477   -1.8543    1.1546 C   0  0  0  0  0  0  0  0  0  0  0  0
   -1.2227   -2.3443    1.9146 O   0  0  0  0  0  0  0  0  0  0  0  0
   -1.7517   -0.8483    0.3266 N   0  0  0  0  0  0  0  0  0  0  0  0
   -2.4847   -0.5123   -0.2804 H   0  0  0  0  0  0  0  0  0  0  0  0
   -0.4117   -0.2463    0.2186 C   0  0  1  0  0  0  0  0  0  0  0  0
    0.1554   -0.5152    1.1133 H   0  0  0  0  0  0  0  0  0  0  0  0
    0.3164   -0.8780   -0.9905 C   0  0  0  0  0  0  0  0  0  0  0  0
    1.2043   -0.2809   -1.2132 H   0  0  0  0  0  0  0  0  0  0  0  0
    0.6624   -1.8763   -0.7144 H   0  0  0  0  0  0  0  0  0  0  0  0
   -0.5147   -0.9999   -2.2502 C   0  0  0  0  0  0  0  0  0  0  0  0
   -1.6901   -1.7165   -2.3650 N   0  3  0  0  0  0  0  0  0  0  0  0
   -2.1453   -2.1854   -1.5766 H   0  0  0  0  0  0  0  0  0  0  0  0
   -2.1412   -1.5947   -3.6293 C   0  0  0  0  0  0  0  0  0  0  0  0
   -3.0555   -2.0394   -4.0170 H   0  0  0  0  0  0  0  0  0  0  0  0
   -1.2767   -0.8171   -4.3197 N   0  0  0  0  0  0  0  0  0  0  0  0
   -1.3627   -0.5513   -5.2971 H   0  0  0  0  0  0  0  0  0  0  0  0
   -0.2491   -0.4351   -3.4684 C   0  0  0  0  0  0  0  0  0  0  0  0
    0.6047    0.1913   -3.7117 H   0  0  0  0  0  0  0  0  0  0  0  0
   -0.4874    1.2908    0.1962 C   0  0  0  0  0  0  0  0  0  0  0  0
   -1.3116    1.8673   -0.5151 O   0  0  0  0  0  0  0  0  0  0  0  0
    0.3889    1.9422    0.9708 N   0  0  0  0  0  0  0  0  0  0  0  0
    1.0197    1.3866    1.5283 H   0  0  0  0  0  0  0  0  0  0  0  0
    0.5081    3.3999    1.0720 C   0  0  0  0  0  0  0  0  0  0  0  0
    0.0188    3.7538    1.9817 H   0  0  0  0  0  0  0  0  0  0  0  0
    1.5607    3.6858    1.1098 H   0  0  0  0  0  0  0  0  0  0  0  0
    0.0459    3.8890    0.2119 H   0  0  0  0  0  0  0  0  0  0  0  0
  5  6  2  0  0  0  0
  5  7  1  0  0  0  0
  2  3  1  0  0  0  0
  2  4  1  0  0  0  0
  2  5  1  0  0  0  0
  1  2  1  0  0  0  0
 23 24  2  0  0  0  0
 23 25  1  0  0  0  0
 21 22  1  0  0  0  0
 19 20  1  0  0  0  0
 19 21  1  0  0  0  0
 17 18  1  0  0  0  0
 17 19  1  0  0  0  0
 15 16  1  0  0  0  0
 15 17  2  0  0  0  0
 14 15  1  0  0  0  0
 14 21  2  0  0  0  0
 11 12  1  0  0  0  0
 11 13  1  0  0  0  0
 11 14  1  0  0  0  0
  9 10  1  0  0  0  0
  9 11  1  0  0  0  0
  9 23  1  0  0  0  0
  7  8  1  0  0  0  0
  7  9  1  0  0  0  0
 27 28  1  0  0  0  0
 27 29  1  0  0  0  0
 27 30  1  0  0  0  0
 25 26  1  0  0  0  0
 25 27  1  0  0  0  0
M  CHG  1  15   1
M  END
$$$$
default_name
  -OEChem-02102213163D

 30 30  0     1  0  0  0  0  0999 V2000
   -3.5507   -3.2183    1.8116 H   0  0  0  0  0  0  0  0  0  0  0  0
   -3.4597   -2.3913    1.1076 C   0  0  0  0  0  0  0  0  0  0  0  0
   -4.1577   -1.6043    1.3866 H   0  0  0  0  0  0  0  0  0  0  0  0
   -3.6807   -2.7523    0.1036 H   0  0  0  0  0  0  0  0  0  0  0  0
   -2.0477   -1.8543    1.1546 C   0  0  0  0  0  0  0  0  0  0  0  0
   -1.2227   -2.3443    1.9146 O   0  0  0  0  0  0  0  0  0  0  0  0
   -1.7517   -0.8483    0.3266 N   0  0  0  0  0  0  0  0  0  0  0  0
   -2.4847   -0.5123   -0.2804 H   0  0  0  0  0  0  0  0  0  0  0  0
   -0.4117   -0.2463    0.2186 C   0  0  1  0  0  0  0  0  0  0  0  0
    0.1554   -0.5152    1.1133 H   0  0  0  0  0  0  0  0  0  0  0  0
    0.3164   -0.8780   -0.9905 C   0  0  0  0  0  0  0  0  0  0  0  0
    1.2043   -0.2809   -1.2132 H   0  0  0  0  0  0  0  0  0  0  0  0
    0.6624   -1.8763   -0.7144 H   0  0  0  0  0  0  0  0  0  0  0  0
   -0.5147   -0.9999   -2.2502 C   0  0  0  0  0  0  0  0  0  0  0  0
   -1.8169   -1.4575   -2.3064 N   0  3  0  0  0  0  0  0  0  0  0  0
   -2.3671   -1.6994   -1.4773 H   0  0  0  0  0  0  0  0  0  0  0  0
   -2.2241   -1.4258   -3.5909 C   0  0  0  0  0  0  0  0  0  0  0  0
   -3.2111   -1.7160   -3.9456 H   0  0  0  0  0  0  0  0  0  0  0  0
   -1.2080   -0.9591   -4.3512 N   0  0  0  0  0  0  0  0  0  0  0  0
   -1.2292   -0.8249   -5.3587 H   0  0  0  0  0  0  0  0  0  0  0  0
   -0.1266   -0.6868   -3.5249 C   0  0  0  0  0  0  0  0  0  0  0  0
    0.8440   -0.2993   -3.8221 H   0  0  0  0  0  0  0  0  0  0  0  0
   -0.4874    1.2908    0.1962 C   0  0  0  0  0  0  0  0  0  0  0  0
   -1.3116    1.8673   -0.5151 O   0  0  0  0  0  0  0  0  0  0  0  0
    0.3889    1.9422    0.9708 N   0  0  0  0  0  0  0  0  0  0  0  0
    1.0197    1.3866    1.5283 H   0  0  0  0  0  0  0  0  0  0  0  0
    0.5081    3.3999    1.0720 C   0  0  0  0  0  0  0  0  0  0  0  0
    0.0188    3.7538    1.9817 H   0  0  0  0  0  0  0  0  0  0  0  0
    1.5607    3.6858    1.1098 H   0  0  0  0  0  0  0  0  0  0  0  0
    0.0459    3.8890    0.2119 H   0  0  0  0  0  0  0  0  0  0  0  0
  5  6  2  0  0  0  0
  5  7  1  0  0  0  0
  2  3  1  0  0  0  0
  2  4  1  0  0  0  0
  2  5  1  0  0  0  0
  1  2  1  0  0  0  0
 23 24  2  0  0  0  0
 23 25  1  0  0  0  0
 21 22  1  0  0  0  0
 19 20  1  0  0  0  0
 19 21  1  0  0  0  0
 17 18  1  0  0  0  0
 17 19  1  0  0  0  0
 15 16  1  0  0  0  0
 15 17  2  0  0  0  0
 14 15  1  0  0  0  0
 14 21  2  0  0  0  0
 11 12  1  0  0  0  0
 11 13  1  0  0  0  0
 11 14  1  0  0  0  0
  9 10  1  0  0  0  0
  9 11  1  0  0  0  0
  9 23  1  0  0  0  0
  7  8  1  0  0  0  0
  7  9  1  0  0  0  0
 27 28  1  0  0  0  0
 27 29  1  0  0  0  0
 27 30  1  0  0  0  0
 25 26  1  0  0  0  0
 25 27  1  0  0  0  0
M  CHG  1  15   1
M  END
$$$$
default_name
  -OEChem-02102213163D

 30 30  0     1  0  0  0  0  0999 V2000
   -3.5507   -3.2183    1.8116 H   0  0  0  0  0  0  0  0  0  0  0  0
   -3.4597   -2.3913    1.1076 C   0  0  0  0  0  0  0  0  0  0  0  0
   -4.1577   -1.6043    1.3866 H   0  0  0  0  0  0  0  0  0  0  0  0
   -3.6807   -2.7523    0.1036 H   0  0  0  0  0  0  0  0  0  0  0  0
   -2.0477   -1.8543    1.1546 C   0  0  0  0  0  0  0  0  0  0  0  0
   -1.2227   -2.3443    1.9146 O   0  0  0  0  0  0  0  0  0  0  0  0
   -1.7517   -0.8483    0.3266 N   0  0  0  0  0  0  0  0  0  0  0  0
   -2.4847   -0.5123   -0.2804 H   0  0  0  0  0  0  0  0  0  0  0  0
   -0.4117   -0.2463    0.2186 C   0  0  1  0  0  0  0  0  0  0  0  0
    0.1554   -0.5152    1.1133 H   0  0  0  0  0  0  0  0  0  0  0  0
    0.3164   -0.8780   -0.9905 C   0  0  0  0  0  0  0  0  0  0  0  0
    1.2043   -0.2809   -1.2132 H   0  0  0  0  0  0  0  0  0  0  0  0
    0.6624   -1.8763   -0.7144 H   0  0  0  0  0  0  0  0  0  0  0  0
   -0.5147   -0.9999   -2.2502 C   0  0  0  0  0  0  0  0  0  0  0  0
   -1.8848   -1.1716   -2.2893 N   0  3  0  0  0  0  0  0  0  0  0  0
   -2.4788   -1.1680   -1.4550 H   0  0  0  0  0  0  0  0  0  0  0  0
   -2.2687   -1.2394   -3.5795 C   0  0  0  0  0  0  0  0  0  0  0  0
   -3.2932   -1.3599   -3.9259 H   0  0  0  0  0  0  0  0  0  0  0  0
   -1.1716   -1.1155   -4.3601 N   0  0  0  0  0  0  0  0  0  0  0  0
   -1.1579   -1.1268   -5.3766 H   0  0  0  0  0  0  0  0  0  0  0  0
   -0.0612   -0.9644   -3.5412 C   0  0  0  0  0  0  0  0  0  0  0  0
    0.9719   -0.8405   -3.8541 H   0  0  0  0  0  0  0  0  0  0  0  0
   -0.4874    1.2908    0.1962 C   0  0  0  0  0  0  0  0  0  0  0  0
   -1.3116    1.8673   -0.5151 O   0  0  0  0  0  0  0  0  0  0  0  0
    0.3889    1.9422    0.9708 N   0  0  0  0  0  0  0  0  0  0  0  0
    1.0197    1.3866    1.5283 H   0  0  0  0  0  0  0  0  0  0  0  0
    0.5081    3.3999    1.0720 C   0  0  0  0  0  0  0  0  0  0  0  0
    0.0188    3.7538    1.9817 H   0  0  0  0  0  0  0  0  0  0  0  0
    1.5607    3.6858    1.1098 H   0  0  0  0  0  0  0  0  0  0  0  0
    0.0459    3.8890    0.2119 H   0  0  0  0  0  0  0  0  0  0  0  0
  5  6  2  0  0  0  0
  5  7  1  0  0  0  0
  2  3  1  0  0  0  0
  2  4  1  0  0  0  0
  2  5  1  0  0  0  0
  1  2  1  0  0  0  0
 23 24  2  0  0  0  0
 23 25  1  0  0  0  0
 21 22  1  0  0  0  0
 19 20  1  0  0  0  0
 19 21  1  0  0  0  0
 17 18  1  0  0  0  0
 17 19  1  0  0  0  0
 15 16  1  0  0  0  0
 15 17  2  0  0  0  0
 14 15  1  0  0  0  0
 14 21  2  0  0  0  0
 11 12  1  0  0  0  0
 11 13  1  0  0  0  0
 11 14  1  0  0  0  0
  9 10  1  0  0  0  0
  9 11  1  0  0  0  0
  9 23  1  0  0  0  0
  7  8  1  0  0  0  0
  7  9  1  0  0  0  0
 27 28  1  0  0  0  0
 27 29  1  0  0  0  0
 27 30  1  0  0  0  0
 25 26  1  0  0  0  0
 25 27  1  0  0  0  0
M  CHG  1  15   1
M  END
$$$$
default_name
  -OEChem-02102213163D

 30 30  0     1  0  0  0  0  0999 V2000
   -3.5507   -3.2183    1.8116 H   0  0  0  0  0  0  0  0  0  0  0  0
   -3.4597   -2.3913    1.1076 C   0  0  0  0  0  0  0  0  0  0  0  0
   -4.1577   -1.6043    1.3866 H   0  0  0  0  0  0  0  0  0  0  0  0
   -3.6807   -2.7523    0.1036 H   0  0  0  0  0  0  0  0  0  0  0  0
   -2.0477   -1.8543    1.1546 C   0  0  0  0  0  0  0  0  0  0  0  0
   -1.2227   -2.3443    1.9146 O   0  0  0  0  0  0  0  0  0  0  0  0
   -1.7517   -0.8483    0.3266 N   0  0  0  0  0  0  0  0  0  0  0  0
   -2.4847   -0.5123   -0.2804 H   0  0  0  0  0  0  0  0  0  0  0  0
   -0.4117   -0.2463    0.2186 C   0  0  1  0  0  0  0  0  0  0  0  0
    0.1554   -0.5152    1.1133 H   0  0  0  0  0  0  0  0  0  0  0  0
    0.3164   -0.8780   -0.9905 C   0  0  0  0  0  0  0  0  0  0  0  0
    1.2043   -0.2809   -1.2132 H   0  0  0  0  0  0  0  0  0  0  0  0
    0.6624   -1.8763   -0.7144 H   0  0  0  0  0  0  0  0  0  0  0  0
   -0.5147   -0.9999   -2.2502 C   0  0  0  0  0  0  0  0  0  0  0  0
   -1.8893   -0.8784   -2.3147 N   0  3  0  0  0  0  0  0  0  0  0  0
   -2.4727   -0.6276   -1.5114 H   0  0  0  0  0  0  0  0  0  0  0  0
   -2.2719   -1.0481   -3.5959 C   0  0  0  0  0  0  0  0  0  0  0  0
   -3.2963   -0.9954   -3.9591 H   0  0  0  0  0  0  0  0  0  0  0  0
   -1.1699   -1.2756   -4.3458 N   0  0  0  0  0  0  0  0  0  0  0  0
   -1.1536   -1.4362   -5.3495 H   0  0  0  0  0  0  0  0  0  0  0  0
   -0.0575   -1.2489   -3.5161 C   0  0  0  0  0  0  0  0  0  0  0  0
    0.9795   -1.3952   -3.8055 H   0  0  0  0  0  0  0  0  0  0  0  0
   -0.4874    1.2908    0.1962 C   0  0  0  0  0  0  0  0  0  0  0  0
   -1.3116    1.8673   -0.5151 O   0  0  0  0  0  0  0  0  0  0  0  0
    0.3889    1.9422    0.9708 N   0  0  0  0  0  0  0  0  0  0  0  0
    1.0197    1.3866    1.5283 H   0  0  0  0  0  0  0  0  0  0  0  0
    0.5081    3.3999    1.0720 C   0  0  0  0  0  0  0  0  0  0  0  0
    0.0188    3.7538    1.9817 H   0  0  0  0  0  0  0  0  0  0  0  0
    1.5607    3.6858    1.1098 H   0  0  0  0  0  0  0  0  0  0  0  0
    0.0459    3.8890    0.2119 H   0  0  0  0  0  0  0  0  0  0  0  0
  5  6  2  0  0  0  0
  5  7  1  0  0  0  0
  2  3  1  0  0  0  0
  2  4  1  0  0  0  0
  2  5  1  0  0  0  0
  1  2  1  0  0  0  0
 23 24  2  0  0  0  0
 23 25  1  0  0  0  0
 21 22  1  0  0  0  0
 19 20  1  0  0  0  0
 19 21  1  0  0  0  0
 17 18  1  0  0  0  0
 17 19  1  0  0  0  0
 15 16  1  0  0  0  0
 15 17  2  0  0  0  0
 14 15  1  0  0  0  0
 14 21  2  0  0  0  0
 11 12  1  0  0  0  0
 11 13  1  0  0  0  0
 11 14  1  0  0  0  0
  9 10  1  0  0  0  0
  9 11  1  0  0  0  0
  9 23  1  0  0  0  0
  7  8  1  0  0  0  0
  7  9  1  0  0  0  0
 27 28  1  0  0  0  0
 27 29  1  0  0  0  0
 27 30  1  0  0  0  0
 25 26  1  0  0  0  0
 25 27  1  0  0  0  0
M  CHG  1  15   1
M  END
$$$$
default_name
  -OEChem-02102213163D

 30 30  0     1  0  0  0  0  0999 V2000
   -3.5507   -3.2183    1.8116 H   0  0  0  0  0  0  0  0  0  0  0  0
   -3.4597   -2.3913    1.1076 C   0  0  0  0  0  0  0  0  0  0  0  0
   -4.1577   -1.6043    1.3866 H   0  0  0  0  0  0  0  0  0  0  0  0
   -3.6807   -2.7523    0.1036 H   0  0  0  0  0  0  0  0  0  0  0  0
   -2.0477   -1.8543    1.1546 C   0  0  0  0  0  0  0  0  0  0  0  0
   -1.2227   -2.3443    1.9146 O   0  0  0  0  0  0  0  0  0  0  0  0
   -1.7517   -0.8483    0.3266 N   0  0  0  0  0  0  0  0  0  0  0  0
   -2.4847   -0.5123   -0.2804 H   0  0  0  0  0  0  0  0  0  0  0  0
   -0.4117   -0.2463    0.2186 C   0  0  1  0  0  0  0  0  0  0  0  0
    0.1554   -0.5152    1.1133 H   0  0  0  0  0  0  0  0  0  0  0  0
    0.3164   -0.8780   -0.9905 C   0  0  0  0  0  0  0  0  0  0  0  0
    1.2043   -0.2809   -1.2132 H   0  0  0  0  0  0  0  0  0  0  0  0
    0.6624   -1.8763   -0.7144 H   0  0  0  0  0  0  0  0  0  0  0  0
   -0.5147   -0.9999   -2.2502 C   0  0  0  0  0  0  0  0  0  0  0  0
   -1.8299   -0.5979   -2.3811 N   0  3  0  0  0  0  0  0  0  0  0  0
   -2.3492   -0.1148   -1.6424 H   0  0  0  0  0  0  0  0  0  0  0  0
   -2.2334   -0.8649   -3.6390 C   0  0  0  0  0  0  0  0  0  0  0  0
   -3.2201   -0.6474   -4.0431 H   0  0  0  0  0  0  0  0  0  0  0  0
   -1.2031   -1.4287   -4.3091 N   0  0  0  0  0  0  0  0  0  0  0  0
   -1.2167   -1.7322   -5.2792 H   0  0  0  0  0  0  0  0  0  0  0  0
   -0.1157   -1.5209   -3.4514 C   0  0  0  0  0  0  0  0  0  0  0  0
    0.8664   -1.9259   -3.6795 H   0  0  0  0  0  0  0  0  0  0  0  0
   -0.4874    1.2908    0.1962 C   0  0  0  0  0  0  0  0  0  0  0  0
   -1.3116    1.8673   -0.5151 O   0  0  0  0  0  0  0  0  0  0  0  0
    0.3889    1.9422    0.9708 N   0  0  0  0  0  0  0  0  0  0  0  0
    1.0197    1.3866    1.5283 H   0  0  0  0  0  0  0  0  0  0  0  0
    0.5081    3.3999    1.0720 C   0  0  0  0  0  0  0  0  0  0  0  0
    0.0188    3.7538    1.9817 H   0  0  0  0  0  0  0  0  0  0  0  0
    1.5607    3.6858    1.1098 H   0  0  0  0  0  0  0  0  0  0  0  0
    0.0459    3.8890    0.2119 H   0  0  0  0  0  0  0  0  0  0  0  0
  5  6  2  0  0  0  0
  5  7  1  0  0  0  0
  2  3  1  0  0  0  0
  2  4  1  0  0  0  0
  2  5  1  0  0  0  0
  1  2  1  0  0  0  0
 23 24  2  0  0  0  0
 23 25  1  0  0  0  0
 21 22  1  0  0  0  0
 19 20  1  0  0  0  0
 19 21  1  0  0  0  0
 17 18  1  0  0  0  0
 17 19  1  0  0  0  0
 15 16  1  0  0  0  0
 15 17  2  0  0  0  0
 14 15  1  0  0  0  0
 14 21  2  0  0  0  0
 11 12  1  0  0  0  0
 11 13  1  0  0  0  0
 11 14  1  0  0  0  0
  9 10  1  0  0  0  0
  9 11  1  0  0  0  0
  9 23  1  0  0  0  0
  7  8  1  0  0  0  0
  7  9  1  0  0  0  0
 27 28  1  0  0  0  0
 27 29  1  0  0  0  0
 27 30  1  0  0  0  0
 25 26  1  0  0  0  0
 25 27  1  0  0  0  0
M  CHG  1  15   1
M  END
$$$$
default_name
  -OEChem-02102213163D

 30 30  0     1  0  0  0  0  0999 V2000
   -3.5507   -3.2183    1.8116 H   0  0  0  0  0  0  0  0  0  0  0  0
   -3.4597   -2.3913    1.1076 C   0  0  0  0  0  0  0  0  0  0  0  0
   -4.1577   -1.6043    1.3866 H   0  0  0  0  0  0  0  0  0  0  0  0
   -3.6807   -2.7523    0.1036 H   0  0  0  0  0  0  0  0  0  0  0  0
   -2.0477   -1.8543    1.1546 C   0  0  0  0  0  0  0  0  0  0  0  0
   -1.2227   -2.3443    1.9146 O   0  0  0  0  0  0  0  0  0  0  0  0
   -1.7517   -0.8483    0.3266 N   0  0  0  0  0  0  0  0  0  0  0  0
   -2.4847   -0.5123   -0.2804 H   0  0  0  0  0  0  0  0  0  0  0  0
   -0.4117   -0.2463    0.2186 C   0  0  1  0  0  0  0  0  0  0  0  0
    0.1554   -0.5152    1.1133 H   0  0  0  0  0  0  0  0  0  0  0  0
    0.3164   -0.8780   -0.9905 C   0  0  0  0  0  0  0  0  0  0  0  0
    1.2043   -0.2809   -1.2132 H   0  0  0  0  0  0  0  0  0  0  0  0
    0.6624   -1.8763   -0.7144 H   0  0  0  0  0  0  0  0  0  0  0  0
   -0.5147   -0.9999   -2.2502 C   0  0  0  0  0  0  0  0  0  0  0  0
   -1.7107   -0.3492   -2.4837 N   0  3  0  0  0  0  0  0  0  0  0  0
   -2.1168    0.3352   -1.8393 H   0  0  0  0  0  0  0  0  0  0  0  0
   -2.1559   -0.7024   -3.7059 C   0  0  0  0  0  0  0  0  0  0  0  0
   -3.0698   -0.3396   -4.1720 H   0  0  0  0  0  0  0  0  0  0  0  0
   -1.2688   -1.5641   -4.2526 N   0  0  0  0  0  0  0  0  0  0  0  0
   -1.3428   -1.9945   -5.1707 H   0  0  0  0  0  0  0  0  0  0  0  0
   -0.2318   -1.7620   -3.3514 C   0  0  0  0  0  0  0  0  0  0  0  0
    0.6403   -2.3961   -3.4848 H   0  0  0  0  0  0  0  0  0  0  0  0
   -0.4874    1.2908    0.1962 C   0  0  0  0  0  0  0  0  0  0  0  0
   -1.3116    1.8673   -0.5151 O   0  0  0  0  0  0  0  0  0  0  0  0
    0.3889    1.9422    0.9708 N   0  0  0  0  0  0  0  0  0  0  0  0
    1.0197    1.3866    1.5283 H   0  0  0  0  0  0  0  0  0  0  0  0
    0.5081    3.3999    1.0720 C   0  0  0  0  0  0  0  0  0  0  0  0
    0.0188    3.7538    1.9817 H   0  0  0  0  0  0  0  0  0  0  0  0
    1.5607    3.6858    1.1098 H   0  0  0  0  0  0  0  0  0  0  0  0
    0.0459    3.8890    0.2119 H   0  0  0  0  0  0  0  0  0  0  0  0
  5  6  2  0  0  0  0
  5  7  1  0  0  0  0
  2  3  1  0  0  0  0
  2  4  1  0  0  0  0
  2  5  1  0  0  0  0
  1  2  1  0  0  0  0
 23 24  2  0  0  0  0
 23 25  1  0  0  0  0
 21 22  1  0  0  0  0
 19 20  1  0  0  0  0
 19 21  1  0  0  0  0
 17 18  1  0  0  0  0
 17 19  1  0  0  0  0
 15 16  1  0  0  0  0
 15 17  2  0  0  0  0
 14 15  1  0  0  0  0
 14 21  2  0  0  0  0
 11 12  1  0  0  0  0
 11 13  1  0  0  0  0
 11 14  1  0  0  0  0
  9 10  1  0  0  0  0
  9 11  1  0  0  0  0
  9 23  1  0  0  0  0
  7  8  1  0  0  0  0
  7  9  1  0  0  0  0
 27 28  1  0  0  0  0
 27 29  1  0  0  0  0
 27 30  1  0  0  0  0
 25 26  1  0  0  0  0
 25 27  1  0  0  0  0
M  CHG  1  15   1
M  END
$$$$
default_name
  -OEChem-02102213163D

 30 30  0     1  0  0  0  0  0999 V2000
   -3.5507   -3.2183    1.8116 H   0  0  0  0  0  0  0  0  0  0  0  0
   -3.4597   -2.3913    1.1076 C   0  0  0  0  0  0  0  0  0  0  0  0
   -4.1577   -1.6043    1.3866 H   0  0  0  0  0  0  0  0  0  0  0  0
   -3.6807   -2.7523    0.1036 H   0  0  0  0  0  0  0  0  0  0  0  0
   -2.0477   -1.8543    1.1546 C   0  0  0  0  0  0  0  0  0  0  0  0
   -1.2227   -2.3443    1.9146 O   0  0  0  0  0  0  0  0  0  0  0  0
   -1.7517   -0.8483    0.3266 N   0  0  0  0  0  0  0  0  0  0  0  0
   -2.4847   -0.5123   -0.2804 H   0  0  0  0  0  0  0  0  0  0  0  0
   -0.4117   -0.2463    0.2186 C   0  0  1  0  0  0  0  0  0  0  0  0
    0.1554   -0.5152    1.1133 H   0  0  0  0  0  0  0  0  0  0  0  0
    0.3164   -0.8780   -0.9905 C   0  0  0  0  0  0  0  0  0  0  0  0
    1.2043   -0.2809   -1.2132 H   0  0  0  0  0  0  0  0  0  0  0  0
    0.6624   -1.8763   -0.7144 H   0  0  0  0  0  0  0  0  0  0  0  0
   -0.5147   -0.9999   -2.2502 C   0  0  0  0  0  0  0  0  0  0  0  0
   -1.5399   -0.1492   -2.6158 N   0  3  0  0  0  0  0  0  0  0  0  0
   -1.7913    0.6920   -2.0885 H   0  0  0  0  0  0  0  0  0  0  0  0
   -2.0447   -0.5717   -3.7919 C   0  0  0  0  0  0  0  0  0  0  0  0
   -2.8556   -0.0930   -4.3371 H   0  0  0  0  0  0  0  0  0  0  0  0
   -1.3626   -1.6728   -4.1802 N   0  0  0  0  0  0  0  0  0  0  0  0
   -1.5233   -2.2053   -5.0312 H   0  0  0  0  0  0  0  0  0  0  0  0
   -0.3980   -1.9556   -3.2231 C   0  0  0  0  0  0  0  0  0  0  0  0
    0.3165   -2.7740   -3.2347 H   0  0  0  0  0  0  0  0  0  0  0  0
   -0.4874    1.2908    0.1962 C   0  0  0  0  0  0  0  0  0  0  0  0
   -1.3116    1.8673   -0.5151 O   0  0  0  0  0  0  0  0  0  0  0  0
    0.3889    1.9422    0.9708 N   0  0  0  0  0  0  0  0  0  0  0  0
    1.0197    1.3866    1.5283 H   0  0  0  0  0  0  0  0  0  0  0  0
    0.5081    3.3999    1.0720 C   0  0  0  0  0  0  0  0  0  0  0  0
    0.0188    3.7538    1.9817 H   0  0  0  0  0  0  0  0  0  0  0  0
    1.5607    3.6858    1.1098 H   0  0  0  0  0  0  0  0  0  0  0  0
    0.0459    3.8890    0.2119 H   0  0  0  0  0  0  0  0  0  0  0  0
  5  6  2  0  0  0  0
  5  7  1  0  0  0  0
  2  3  1  0  0  0  0
  2  4  1  0  0  0  0
  2  5  1  0  0  0  0
  1  2  1  0  0  0  0
 23 24  2  0  0  0  0
 23 25  1  0  0  0  0
 21 22  1  0  0  0  0
 19 20  1  0  0  0  0
 19 21  1  0  0  0  0
 17 18  1  0  0  0  0
 17 19  1  0  0  0  0
 15 16  1  0  0  0  0
 15 17  2  0  0  0  0
 14 15  1  0  0  0  0
 14 21  2  0  0  0  0
 11 12  1  0  0  0  0
 11 13  1  0  0  0  0
 11 14  1  0  0  0  0
  9 10  1  0  0  0  0
  9 11  1  0  0  0  0
  9 23  1  0  0  0  0
  7  8  1  0  0  0  0
  7  9  1  0  0  0  0
 27 28  1  0  0  0  0
 27 29  1  0  0  0  0
 27 30  1  0  0  0  0
 25 26  1  0  0  0  0
 25 27  1  0  0  0  0
M  CHG  1  15   1
M  END
$$$$
default_name
  -OEChem-02102213163D

 30 30  0     1  0  0  0  0  0999 V2000
   -3.5507   -3.2183    1.8116 H   0  0  0  0  0  0  0  0  0  0  0  0
   -3.4597   -2.3913    1.1076 C   0  0  0  0  0  0  0  0  0  0  0  0
   -4.1577   -1.6043    1.3866 H   0  0  0  0  0  0  0  0  0  0  0  0
   -3.6807   -2.7523    0.1036 H   0  0  0  0  0  0  0  0  0  0  0  0
   -2.0477   -1.8543    1.1546 C   0  0  0  0  0  0  0  0  0  0  0  0
   -1.2227   -2.3443    1.9146 O   0  0  0  0  0  0  0  0  0  0  0  0
   -1.7517   -0.8483    0.3266 N   0  0  0  0  0  0  0  0  0  0  0  0
   -2.4847   -0.5123   -0.2804 H   0  0  0  0  0  0  0  0  0  0  0  0
   -0.4117   -0.2463    0.2186 C   0  0  1  0  0  0  0  0  0  0  0  0
    0.1554   -0.5152    1.1133 H   0  0  0  0  0  0  0  0  0  0  0  0
    0.3164   -0.8780   -0.9905 C   0  0  0  0  0  0  0  0  0  0  0  0
    1.2043   -0.2809   -1.2132 H   0  0  0  0  0  0  0  0  0  0  0  0
    0.6624   -1.8763   -0.7144 H   0  0  0  0  0  0  0  0  0  0  0  0
   -0.5147   -0.9999   -2.2502 C   0  0  0  0  0  0  0  0  0  0  0  0
   -1.3291   -0.0115   -2.7682 N   0  3  0  0  0  0  0  0  0  0  0  0
   -1.3949    0.9310   -2.3732 H   0  0  0  0  0  0  0  0  0  0  0  0
   -1.9073   -0.4815   -3.8913 C   0  0  0  0  0  0  0  0  0  0  0  0
   -2.5923    0.0757   -4.5272 H   0  0  0  0  0  0  0  0  0  0  0  0
   -1.4782   -1.7473   -4.0968 N   0  0  0  0  0  0  0  0  0  0  0  0
   -1.7460   -2.3502   -4.8702 H   0  0  0  0  0  0  0  0  0  0  0  0
   -0.6029   -2.0886   -3.0750 C   0  0  0  0  0  0  0  0  0  0  0  0
   -0.0828   -3.0338   -2.9461 H   0  0  0  0  0  0  0  0  0  0  0  0
   -0.4874    1.2908    0.1962 C   0  0  0  0  0  0  0  0  0  0  0  0
   -1.3116    1.8673   -0.5151 O   0  0  0  0  0  0  0  0  0  0  0  0
    0.3889    1.9422    0.9708 N   0  0  0  0  0  0  0  0  0  0  0  0
    1.0197    1.3866    1.5283 H   0  0  0  0  0  0  0  0  0  0  0  0
    0.5081    3.3999    1.0720 C   0  0  0  0  0  0  0  0  0  0  0  0
    0.0188    3.7538    1.9817 H   0  0  0  0  0  0  0  0  0  0  0  0
    1.5607    3.6858    1.1098 H   0  0  0  0  0  0  0  0  0  0  0  0
    0.0459    3.8890    0.2119 H   0  0  0  0  0  0  0  0  0  0  0  0
  5  6  2  0  0  0  0
  5  7  1  0  0  0  0
  2  3  1  0  0  0  0
  2  4  1  0  0  0  0
  2  5  1  0  0  0  0
  1  2  1  0  0  0  0
 23 24  2  0  0  0  0
 23 25  1  0  0  0  0
 21 22  1  0  0  0  0
 19 20  1  0  0  0  0
 19 21  1  0  0  0  0
 17 18  1  0  0  0  0
 17 19  1  0  0  0  0
 15 16  1  0  0  0  0
 15 17  2  0  0  0  0
 14 15  1  0  0  0  0
 14 21  2  0  0  0  0
 11 12  1  0  0  0  0
 11 13  1  0  0  0  0
 11 14  1  0  0  0  0
  9 10  1  0  0  0  0
  9 11  1  0  0  0  0
  9 23  1  0  0  0  0
  7  8  1  0  0  0  0
  7  9  1  0  0  0  0
 27 28  1  0  0  0  0
 27 29  1  0  0  0  0
 27 30  1  0  0  0  0
 25 26  1  0  0  0  0
 25 27  1  0  0  0  0
M  CHG  1  15   1
M  END
$$$$
default_name
  -OEChem-02102213163D

 30 30  0     1  0  0  0  0  0999 V2000
   -3.5507   -3.2183    1.8116 H   0  0  0  0  0  0  0  0  0  0  0  0
   -3.4597   -2.3913    1.1076 C   0  0  0  0  0  0  0  0  0  0  0  0
   -4.1577   -1.6043    1.3866 H   0  0  0  0  0  0  0  0  0  0  0  0
   -3.6807   -2.7523    0.1036 H   0  0  0  0  0  0  0  0  0  0  0  0
   -2.0477   -1.8543    1.1546 C   0  0  0  0  0  0  0  0  0  0  0  0
   -1.2227   -2.3443    1.9146 O   0  0  0  0  0  0  0  0  0  0  0  0
   -1.7517   -0.8483    0.3266 N   0  0  0  0  0  0  0  0  0  0  0  0
   -2.4847   -0.5123   -0.2804 H   0  0  0  0  0  0  0  0  0  0  0  0
   -0.4117   -0.2463    0.2186 C   0  0  1  0  0  0  0  0  0  0  0  0
    0.1554   -0.5152    1.1133 H   0  0  0  0  0  0  0  0  0  0  0  0
    0.3164   -0.8780   -0.9905 C   0  0  0  0  0  0  0  0  0  0  0  0
    1.2043   -0.2809   -1.2132 H   0  0  0  0  0  0  0  0  0  0  0  0
    0.6624   -1.8763   -0.7144 H   0  0  0  0  0  0  0  0  0  0  0  0
   -0.5147   -0.9999   -2.2502 C   0  0  0  0  0  0  0  0  0  0  0  0
   -1.0926    0.0544   -2.9305 N   0  3  0  0  0  0  0  0  0  0  0  0
   -0.9546    1.0361   -2.6738 H   0  0  0  0  0  0  0  0  0  0  0  0
   -1.7530   -0.4382   -3.9972 C   0  0  0  0  0  0  0  0  0  0  0  0
   -2.2976    0.1548   -4.7293 H   0  0  0  0  0  0  0  0  0  0  0  0
   -1.6076   -1.7825   -4.0080 N   0  0  0  0  0  0  0  0  0  0  0  0
   -1.9957   -2.4194   -4.6988 H   0  0  0  0  0  0  0  0  0  0  0  0
   -0.8326   -2.1520   -2.9174 C   0  0  0  0  0  0  0  0  0  0  0  0
   -0.5305   -3.1577   -2.6388 H   0  0  0  0  0  0  0  0  0  0  0  0
   -0.4874    1.2908    0.1962 C   0  0  0  0  0  0  0  0  0  0  0  0
   -1.3116    1.8673   -0.5151 O   0  0  0  0  0  0  0  0  0  0  0  0
    0.3889    1.9422    0.9708 N   0  0  0  0  0  0  0  0  0  0  0  0
    1.0197    1.3866    1.5283 H   0  0  0  0  0  0  0  0  0  0  0  0
    0.5081    3.3999    1.0720 C   0  0  0  0  0  0  0  0  0  0  0  0
    0.0188    3.7538    1.9817 H   0  0  0  0  0  0  0  0  0  0  0  0
    1.5607    3.6858    1.1098 H   0  0  0  0  0  0  0  0  0  0  0  0
    0.0459    3.8890    0.2119 H   0  0  0  0  0  0  0  0  0  0  0  0
  5  6  2  0  0  0  0
  5  7  1  0  0  0  0
  2  3  1  0  0  0  0
  2  4  1  0  0  0  0
  2  5  1  0  0  0  0
  1  2  1  0  0  0  0
 23 24  2  0  0  0  0
 23 25  1  0  0  0  0
 21 22  1  0  0  0  0
 19 20  1  0  0  0  0
 19 21  1  0  0  0  0
 17 18  1  0  0  0  0
 17 19  1  0  0  0  0
 15 16  1  0  0  0  0
 15 17  2  0  0  0  0
 14 15  1  0  0  0  0
 14 21  2  0  0  0  0
 11 12  1  0  0  0  0
 11 13  1  0  0  0  0
 11 14  1  0  0  0  0
  9 10  1  0  0  0  0
  9 11  1  0  0  0  0
  9 23  1  0  0  0  0
  7  8  1  0  0  0  0
  7  9  1  0  0  0  0
 27 28  1  0  0  0  0
 27 29  1  0  0  0  0
 27 30  1  0  0  0  0
 25 26  1  0  0  0  0
 25 27  1  0  0  0  0
M  CHG  1  15   1
M  END
$$$$
default_name
  -OEChem-02102213163D

 30 30  0     1  0  0  0  0  0999 V2000
   -3.5507   -3.2183    1.8116 H   0  0  0  0  0  0  0  0  0  0  0  0
   -3.4597   -2.3913    1.1076 C   0  0  0  0  0  0  0  0  0  0  0  0
   -4.1577   -1.6043    1.3866 H   0  0  0  0  0  0  0  0  0  0  0  0
   -3.6807   -2.7523    0.1036 H   0  0  0  0  0  0  0  0  0  0  0  0
   -2.0477   -1.8543    1.1546 C   0  0  0  0  0  0  0  0  0  0  0  0
   -1.2227   -2.3443    1.9146 O   0  0  0  0  0  0  0  0  0  0  0  0
   -1.7517   -0.8483    0.3266 N   0  0  0  0  0  0  0  0  0  0  0  0
   -2.4847   -0.5123   -0.2804 H   0  0  0  0  0  0  0  0  0  0  0  0
   -0.4117   -0.2463    0.2186 C   0  0  1  0  0  0  0  0  0  0  0  0
    0.1554   -0.5152    1.1133 H   0  0  0  0  0  0  0  0  0  0  0  0
    0.3164   -0.8780   -0.9905 C   0  0  0  0  0  0  0  0  0  0  0  0
    1.2043   -0.2809   -1.2132 H   0  0  0  0  0  0  0  0  0  0  0  0
    0.6624   -1.8763   -0.7144 H   0  0  0  0  0  0  0  0  0  0  0  0
   -0.5147   -0.9999   -2.2502 C   0  0  0  0  0  0  0  0  0  0  0  0
   -0.8467    0.0441   -3.0918 N   0  3  0  0  0  0  0  0  0  0  0  0
   -0.5004    1.0001   -2.9700 H   0  0  0  0  0  0  0  0  0  0  0  0
   -1.5925   -0.4445   -4.1025 C   0  0  0  0  0  0  0  0  0  0  0  0
   -1.9916    0.1392   -4.9296 H   0  0  0  0  0  0  0  0  0  0  0  0
   -1.7420   -1.7760   -3.9199 N   0  0  0  0  0  0  0  0  0  0  0  0
   -2.2554   -2.4080   -4.5286 H   0  0  0  0  0  0  0  0  0  0  0  0
   -1.0713   -2.1413   -2.7609 C   0  0  0  0  0  0  0  0  0  0  0  0
   -0.9960   -3.1374   -2.3337 H   0  0  0  0  0  0  0  0  0  0  0  0
   -0.4874    1.2908    0.1962 C   0  0  0  0  0  0  0  0  0  0  0  0
   -1.3116    1.8673   -0.5151 O   0  0  0  0  0  0  0  0  0  0  0  0
    0.3889    1.9422    0.9708 N   0  0  0  0  0  0  0  0  0  0  0  0
    1.0197    1.3866    1.5283 H   0  0  0  0  0  0  0  0  0  0  0  0
    0.5081    3.3999    1.0720 C   0  0  0  0  0  0  0  0  0  0  0  0
    0.0188    3.7538    1.9817 H   0  0  0  0  0  0  0  0  0  0  0  0
    1.5607    3.6858    1.1098 H   0  0  0  0  0  0  0  0  0  0  0  0
    0.0459    3.8890    0.2119 H   0  0  0  0  0  0  0  0  0  0  0  0
  5  6  2  0  0  0  0
  5  7  1  0  0  0  0
  2  3  1  0  0  0  0
  2  4  1  0  0  0  0
  2  5  1  0  0  0  0
  1  2  1  0  0  0  0
 23 24  2  0  0  0  0
 23 25  1  0  0  0  0
 21 22  1  0  0  0  0
 19 20  1  0  0  0  0
 19 21  1  0  0  0  0
 17 18  1  0  0  0  0
 17 19  1  0  0  0  0
 15 16  1  0  0  0  0
 15 17  2  0  0  0  0
 14 15  1  0  0  0  0
 14 21  2  0  0  0  0
 11 12  1  0  0  0  0
 11 13  1  0  0  0  0
 11 14  1  0  0  0  0
  9 10  1  0  0  0  0
  9 11  1  0  0  0  0
  9 23  1  0  0  0  0
  7  8  1  0  0  0  0
  7  9  1  0  0  0  0
 27 28  1  0  0  0  0
 27 29  1  0  0  0  0
 27 30  1  0  0  0  0
 25 26  1  0  0  0  0
 25 27  1  0  0  0  0
M  CHG  1  15   1
M  END
$$$$
default_name
  -OEChem-02102213163D

 30 30  0     1  0  0  0  0  0999 V2000
   -3.5507   -3.2183    1.8116 H   0  0  0  0  0  0  0  0  0  0  0  0
   -3.4597   -2.3913    1.1076 C   0  0  0  0  0  0  0  0  0  0  0  0
   -4.1577   -1.6043    1.3866 H   0  0  0  0  0  0  0  0  0  0  0  0
   -3.6807   -2.7523    0.1036 H   0  0  0  0  0  0  0  0  0  0  0  0
   -2.0477   -1.8543    1.1546 C   0  0  0  0  0  0  0  0  0  0  0  0
   -1.2227   -2.3443    1.9146 O   0  0  0  0  0  0  0  0  0  0  0  0
   -1.7517   -0.8483    0.3266 N   0  0  0  0  0  0  0  0  0  0  0  0
   -2.4847   -0.5123   -0.2804 H   0  0  0  0  0  0  0  0  0  0  0  0
   -0.4117   -0.2463    0.2186 C   0  0  1  0  0  0  0  0  0  0  0  0
    0.1554   -0.5152    1.1133 H   0  0  0  0  0  0  0  0  0  0  0  0
    0.3164   -0.8780   -0.9905 C   0  0  0  0  0  0  0  0  0  0  0  0
    1.2043   -0.2809   -1.2132 H   0  0  0  0  0  0  0  0  0  0  0  0
    0.6624   -1.8763   -0.7144 H   0  0  0  0  0  0  0  0  0  0  0  0
   -0.5147   -0.9999   -2.2502 C   0  0  0  0  0  0  0  0  0  0  0  0
   -0.6079   -0.0417   -3.2410 N   0  3  0  0  0  0  0  0  0  0  0  0
   -0.0632    0.8255   -3.2415 H   0  0  0  0  0  0  0  0  0  0  0  0
   -1.4367   -0.5002   -4.1999 C   0  0  0  0  0  0  0  0  0  0  0  0
   -1.6954    0.0297   -5.1144 H   0  0  0  0  0  0  0  0  0  0  0  0
   -1.8723   -1.7283   -3.8386 N   0  0  0  0  0  0  0  0  0  0  0  0
   -2.5073   -2.3170   -4.3712 H   0  0  0  0  0  0  0  0  0  0  0  0
   -1.3029   -2.0573   -2.6163 C   0  0  0  0  0  0  0  0  0  0  0  0
   -1.4476   -2.9741   -2.0515 H   0  0  0  0  0  0  0  0  0  0  0  0
   -0.4874    1.2908    0.1962 C   0  0  0  0  0  0  0  0  0  0  0  0
   -1.3116    1.8673   -0.5151 O   0  0  0  0  0  0  0  0  0  0  0  0
    0.3889    1.9422    0.9708 N   0  0  0  0  0  0  0  0  0  0  0  0
    1.0197    1.3866    1.5283 H   0  0  0  0  0  0  0  0  0  0  0  0
    0.5081    3.3999    1.0720 C   0  0  0  0  0  0  0  0  0  0  0  0
    0.0188    3.7538    1.9817 H   0  0  0  0  0  0  0  0  0  0  0  0
    1.5607    3.6858    1.1098 H   0  0  0  0  0  0  0  0  0  0  0  0
    0.0459    3.8890    0.2119 H   0  0  0  0  0  0  0  0  0  0  0  0
  5  6  2  0  0  0  0
  5  7  1  0  0  0  0
  2  3  1  0  0  0  0
  2  4  1  0  0  0  0
  2  5  1  0  0  0  0
  1  2  1  0  0  0  0
 23 24  2  0  0  0  0
 23 25  1  0  0  0  0
 21 22  1  0  0  0  0
 19 20  1  0  0  0  0
 19 21  1  0  0  0  0
 17 18  1  0  0  0  0
 17 19  1  0  0  0  0
 15 16  1  0  0  0  0
 15 17  2  0  0  0  0
 14 15  1  0  0  0  0
 14 21  2  0  0  0  0
 11 12  1  0  0  0  0
 11 13  1  0  0  0  0
 11 14  1  0  0  0  0
  9 10  1  0  0  0  0
  9 11  1  0  0  0  0
  9 23  1  0  0  0  0
  7  8  1  0  0  0  0
  7  9  1  0  0  0  0
 27 28  1  0  0  0  0
 27 29  1  0  0  0  0
 27 30  1  0  0  0  0
 25 26  1  0  0  0  0
 25 27  1  0  0  0  0
M  CHG  1  15   1
M  END
$$$$
default_name
  -OEChem-02102213163D

 30 30  0     1  0  0  0  0  0999 V2000
   -3.5507   -3.2183    1.8116 H   0  0  0  0  0  0  0  0  0  0  0  0
   -3.4597   -2.3913    1.1076 C   0  0  0  0  0  0  0  0  0  0  0  0
   -4.1577   -1.6043    1.3866 H   0  0  0  0  0  0  0  0  0  0  0  0
   -3.6807   -2.7523    0.1036 H   0  0  0  0  0  0  0  0  0  0  0  0
   -2.0477   -1.8543    1.1546 C   0  0  0  0  0  0  0  0  0  0  0  0
   -1.2227   -2.3443    1.9146 O   0  0  0  0  0  0  0  0  0  0  0  0
   -1.7517   -0.8483    0.3266 N   0  0  0  0  0  0  0  0  0  0  0  0
   -2.4847   -0.5123   -0.2804 H   0  0  0  0  0  0  0  0  0  0  0  0
   -0.4117   -0.2463    0.2186 C   0  0  1  0  0  0  0  0  0  0  0  0
    0.1554   -0.5152    1.1133 H   0  0  0  0  0  0  0  0  0  0  0  0
    0.3164   -0.8780   -0.9905 C   0  0  0  0  0  0  0  0  0  0  0  0
    1.2043   -0.2809   -1.2132 H   0  0  0  0  0  0  0  0  0  0  0  0
    0.6624   -1.8763   -0.7144 H   0  0  0  0  0  0  0  0  0  0  0  0
   -0.5147   -0.9999   -2.2502 C   0  0  0  0  0  0  0  0  0  0  0  0
   -0.3927   -0.1972   -3.3679 N   0  3  0  0  0  0  0  0  0  0  0  0
    0.3271    0.5241   -3.4698 H   0  0  0  0  0  0  0  0  0  0  0  0
   -1.2961   -0.6014   -4.2829 C   0  0  0  0  0  0  0  0  0  0  0  0
   -1.4289   -0.1661   -5.2713 H   0  0  0  0  0  0  0  0  0  0  0  0
   -1.9895   -1.6426   -3.7695 N   0  0  0  0  0  0  0  0  0  0  0  0
   -2.7343   -2.1525   -4.2374 H   0  0  0  0  0  0  0  0  0  0  0  0
   -1.5115   -1.9058   -2.4933 C   0  0  0  0  0  0  0  0  0  0  0  0
   -1.8545   -2.6791   -1.8116 H   0  0  0  0  0  0  0  0  0  0  0  0
   -0.4874    1.2908    0.1962 C   0  0  0  0  0  0  0  0  0  0  0  0
   -1.3116    1.8673   -0.5151 O   0  0  0  0  0  0  0  0  0  0  0  0
    0.3889    1.9422    0.9708 N   0  0  0  0  0  0  0  0  0  0  0  0
    1.0197    1.3866    1.5283 H   0  0  0  0  0  0  0  0  0  0  0  0
    0.5081    3.3999    1.0720 C   0  0  0  0  0  0  0  0  0  0  0  0
    0.0188    3.7538    1.9817 H   0  0  0  0  0  0  0  0  0  0  0  0
    1.5607    3.6858    1.1098 H   0  0  0  0  0  0  0  0  0  0  0  0
    0.0459    3.8890    0.2119 H   0  0  0  0  0  0  0  0  0  0  0  0
  5  6  2  0  0  0  0
  5  7  1  0  0  0  0
  2  3  1  0  0  0  0
  2  4  1  0  0  0  0
  2  5  1  0  0  0  0
  1  2  1  0  0  0  0
 23 24  2  0  0  0  0
 23 25  1  0  0  0  0
 21 22  1  0  0  0  0
 19 20  1  0  0  0  0
 19 21  1  0  0  0  0
 17 18  1  0  0  0  0
 17 19  1  0  0  0  0
 15 16  1  0  0  0  0
 15 17  2  0  0  0  0
 14 15  1  0  0  0  0
 14 21  2  0  0  0  0
 11 12  1  0  0  0  0
 11 13  1  0  0  0  0
 11 14  1  0  0  0  0
  9 10  1  0  0  0  0
  9 11  1  0  0  0  0
  9 23  1  0  0  0  0
  7  8  1  0  0  0  0
  7  9  1  0  0  0  0
 27 28  1  0  0  0  0
 27 29  1  0  0  0  0
 27 30  1  0  0  0  0
 25 26  1  0  0  0  0
 25 27  1  0  0  0  0
M  CHG  1  15   1
M  END
$$$$
default_name
  -OEChem-02102213163D

 30 30  0     1  0  0  0  0  0999 V2000
   -3.5507   -3.2183    1.8116 H   0  0  0  0  0  0  0  0  0  0  0  0
   -3.4597   -2.3913    1.1076 C   0  0  0  0  0  0  0  0  0  0  0  0
   -4.1577   -1.6043    1.3866 H   0  0  0  0  0  0  0  0  0  0  0  0
   -3.6807   -2.7523    0.1036 H   0  0  0  0  0  0  0  0  0  0  0  0
   -2.0477   -1.8543    1.1546 C   0  0  0  0  0  0  0  0  0  0  0  0
   -1.2227   -2.3443    1.9146 O   0  0  0  0  0  0  0  0  0  0  0  0
   -1.7517   -0.8483    0.3266 N   0  0  0  0  0  0  0  0  0  0  0  0
   -2.4847   -0.5123   -0.2804 H   0  0  0  0  0  0  0  0  0  0  0  0
   -0.4117   -0.2463    0.2186 C   0  0  1  0  0  0  0  0  0  0  0  0
    0.1554   -0.5152    1.1133 H   0  0  0  0  0  0  0  0  0  0  0  0
    0.3164   -0.8780   -0.9905 C   0  0  0  0  0  0  0  0  0  0  0  0
    1.2043   -0.2809   -1.2132 H   0  0  0  0  0  0  0  0  0  0  0  0
    0.6624   -1.8763   -0.7144 H   0  0  0  0  0  0  0  0  0  0  0  0
   -0.5147   -0.9999   -2.2502 C   0  0  0  0  0  0  0  0  0  0  0  0
   -0.2157   -0.4118   -3.4640 N   0  3  0  0  0  0  0  0  0  0  0  0
    0.6439    0.1165   -3.6394 H   0  0  0  0  0  0  0  0  0  0  0  0
   -1.1804   -0.7412   -4.3457 C   0  0  0  0  0  0  0  0  0  0  0  0
   -1.2104   -0.4349   -5.3894 H   0  0  0  0  0  0  0  0  0  0  0  0
   -2.0858   -1.5248   -3.7174 N   0  0  0  0  0  0  0  0  0  0  0  0
   -2.9209   -1.9257   -4.1362 H   0  0  0  0  0  0  0  0  0  0  0  0
   -1.6829   -1.6971   -2.4004 C   0  0  0  0  0  0  0  0  0  0  0  0
   -2.1891   -2.2725   -1.6302 H   0  0  0  0  0  0  0  0  0  0  0  0
   -0.4874    1.2908    0.1962 C   0  0  0  0  0  0  0  0  0  0  0  0
   -1.3116    1.8673   -0.5151 O   0  0  0  0  0  0  0  0  0  0  0  0
    0.3889    1.9422    0.9708 N   0  0  0  0  0  0  0  0  0  0  0  0
    1.0197    1.3866    1.5283 H   0  0  0  0  0  0  0  0  0  0  0  0
    0.5081    3.3999    1.0720 C   0  0  0  0  0  0  0  0  0  0  0  0
    0.0188    3.7538    1.9817 H   0  0  0  0  0  0  0  0  0  0  0  0
    1.5607    3.6858    1.1098 H   0  0  0  0  0  0  0  0  0  0  0  0
    0.0459    3.8890    0.2119 H   0  0  0  0  0  0  0  0  0  0  0  0
  5  6  2  0  0  0  0
  5  7  1  0  0  0  0
  2  3  1  0  0  0  0
  2  4  1  0  0  0  0
  2  5  1  0  0  0  0
  1  2  1  0  0  0  0
 23 24  2  0  0  0  0
 23 25  1  0  0  0  0
 21 22  1  0  0  0  0
 19 20  1  0  0  0  0
 19 21  1  0  0  0  0
 17 18  1  0  0  0  0
 17 19  1  0  0  0  0
 15 16  1  0  0  0  0
 15 17  2  0  0  0  0
 14 15  1  0  0  0  0
 14 21  2  0  0  0  0
 11 12  1  0  0  0  0
 11 13  1  0  0  0  0
 11 14  1  0  0  0  0
  9 10  1  0  0  0  0
  9 11  1  0  0  0  0
  9 23  1  0  0  0  0
  7  8  1  0  0  0  0
  7  9  1  0  0  0  0
 27 28  1  0  0  0  0
 27 29  1  0  0  0  0
 27 30  1  0  0  0  0
 25 26  1  0  0  0  0
 25 27  1  0  0  0  0
M  CHG  1  15   1
M  END
$$$$
default_name
  -OEChem-02102213163D

 30 30  0     1  0  0  0  0  0999 V2000
   -3.5507   -3.2183    1.8116 H   0  0  0  0  0  0  0  0  0  0  0  0
   -3.4597   -2.3913    1.1076 C   0  0  0  0  0  0  0  0  0  0  0  0
   -4.1577   -1.6043    1.3866 H   0  0  0  0  0  0  0  0  0  0  0  0
   -3.6807   -2.7523    0.1036 H   0  0  0  0  0  0  0  0  0  0  0  0
   -2.0477   -1.8543    1.1546 C   0  0  0  0  0  0  0  0  0  0  0  0
   -1.2227   -2.3443    1.9146 O   0  0  0  0  0  0  0  0  0  0  0  0
   -1.7517   -0.8483    0.3266 N   0  0  0  0  0  0  0  0  0  0  0  0
   -2.4847   -0.5123   -0.2804 H   0  0  0  0  0  0  0  0  0  0  0  0
   -0.4117   -0.2463    0.2186 C   0  0  1  0  0  0  0  0  0  0  0  0
    0.1554   -0.5152    1.1133 H   0  0  0  0  0  0  0  0  0  0  0  0
    0.3164   -0.8780   -0.9905 C   0  0  0  0  0  0  0  0  0  0  0  0
    1.2043   -0.2809   -1.2132 H   0  0  0  0  0  0  0  0  0  0  0  0
    0.6624   -1.8763   -0.7144 H   0  0  0  0  0  0  0  0  0  0  0  0
   -0.5147   -0.9999   -2.2502 C   0  0  0  0  0  0  0  0  0  0  0  0
   -0.0889   -0.6708   -3.5226 N   0  3  0  0  0  0  0  0  0  0  0  0
    0.8657   -0.3696   -3.7387 H   0  0  0  0  0  0  0  0  0  0  0  0
   -1.0974   -0.9101   -4.3841 C   0  0  0  0  0  0  0  0  0  0  0  0
   -1.0548   -0.7584   -5.4608 H   0  0  0  0  0  0  0  0  0  0  0  0
   -2.1545   -1.3828   -3.6859 N   0  0  0  0  0  0  0  0  0  0  0  0
   -3.0544   -1.6520   -4.0746 H   0  0  0  0  0  0  0  0  0  0  0  0
   -1.8055   -1.4453   -2.3439 C   0  0  0  0  0  0  0  0  0  0  0  0
   -2.4284   -1.7818   -1.5198 H   0  0  0  0  0  0  0  0  0  0  0  0
   -0.4874    1.2908    0.1962 C   0  0  0  0  0  0  0  0  0  0  0  0
   -1.3116    1.8673   -0.5151 O   0  0  0  0  0  0  0  0  0  0  0  0
    0.3889    1.9422    0.9708 N   0  0  0  0  0  0  0  0  0  0  0  0
    1.0197    1.3866    1.5283 H   0  0  0  0  0  0  0  0  0  0  0  0
    0.5081    3.3999    1.0720 C   0  0  0  0  0  0  0  0  0  0  0  0
    0.0188    3.7538    1.9817 H   0  0  0  0  0  0  0  0  0  0  0  0
    1.5607    3.6858    1.1098 H   0  0  0  0  0  0  0  0  0  0  0  0
    0.0459    3.8890    0.2119 H   0  0  0  0  0  0  0  0  0  0  0  0
  5  6  2  0  0  0  0
  5  7  1  0  0  0  0
  2  3  1  0  0  0  0
  2  4  1  0  0  0  0
  2  5  1  0  0  0  0
  1  2  1  0  0  0  0
 23 24  2  0  0  0  0
 23 25  1  0  0  0  0
 21 22  1  0  0  0  0
 19 20  1  0  0  0  0
 19 21  1  0  0  0  0
 17 18  1  0  0  0  0
 17 19  1  0  0  0  0
 15 16  1  0  0  0  0
 15 17  2  0  0  0  0
 14 15  1  0  0  0  0
 14 21  2  0  0  0  0
 11 12  1  0  0  0  0
 11 13  1  0  0  0  0
 11 14  1  0  0  0  0
  9 10  1  0  0  0  0
  9 11  1  0  0  0  0
  9 23  1  0  0  0  0
  7  8  1  0  0  0  0
  7  9  1  0  0  0  0
 27 28  1  0  0  0  0
 27 29  1  0  0  0  0
 27 30  1  0  0  0  0
 25 26  1  0  0  0  0
 25 27  1  0  0  0  0
M  CHG  1  15   1
M  END
$$$$
default_name
  -OEChem-02102213163D

 30 30  0     1  0  0  0  0  0999 V2000
   -3.5507   -3.2183    1.8116 H   0  0  0  0  0  0  0  0  0  0  0  0
   -3.4597   -2.3913    1.1076 C   0  0  0  0  0  0  0  0  0  0  0  0
   -4.1577   -1.6043    1.3866 H   0  0  0  0  0  0  0  0  0  0  0  0
   -3.6807   -2.7523    0.1036 H   0  0  0  0  0  0  0  0  0  0  0  0
   -2.0477   -1.8543    1.1546 C   0  0  0  0  0  0  0  0  0  0  0  0
   -1.2227   -2.3443    1.9146 O   0  0  0  0  0  0  0  0  0  0  0  0
   -1.7517   -0.8483    0.3266 N   0  0  0  0  0  0  0  0  0  0  0  0
   -2.4847   -0.5123   -0.2804 H   0  0  0  0  0  0  0  0  0  0  0  0
   -0.4117   -0.2463    0.2186 C   0  0  1  0  0  0  0  0  0  0  0  0
    0.1554   -0.5152    1.1133 H   0  0  0  0  0  0  0  0  0  0  0  0
    0.3164   -0.8780   -0.9905 C   0  0  0  0  0  0  0  0  0  0  0  0
    1.2043   -0.2809   -1.2132 H   0  0  0  0  0  0  0  0  0  0  0  0
    0.6624   -1.8763   -0.7144 H   0  0  0  0  0  0  0  0  0  0  0  0
   -0.5147   -0.9999   -2.2502 C   0  0  0  0  0  0  0  0  0  0  0  0
   -0.0209   -0.9567   -3.5397 N   0  3  0  0  0  0  0  0  0  0  0  0
    0.9774   -0.9009   -3.7610 H   0  0  0  0  0  0  0  0  0  0  0  0
   -1.0528   -1.0965   -4.3955 C   0  0  0  0  0  0  0  0  0  0  0  0
   -0.9726   -1.1145   -5.4805 H   0  0  0  0  0  0  0  0  0  0  0  0
   -2.1909   -1.2264   -3.6770 N   0  0  0  0  0  0  0  0  0  0  0  0
   -3.1257   -1.3502   -4.0567 H   0  0  0  0  0  0  0  0  0  0  0  0
   -1.8709   -1.1678   -2.3276 C   0  0  0  0  0  0  0  0  0  0  0  0
   -2.5563   -1.2407   -1.4878 H   0  0  0  0  0  0  0  0  0  0  0  0
   -0.4874    1.2908    0.1962 C   0  0  0  0  0  0  0  0  0  0  0  0
   -1.3116    1.8673   -0.5151 O   0  0  0  0  0  0  0  0  0  0  0  0
    0.3889    1.9422    0.9708 N   0  0  0  0  0  0  0  0  0  0  0  0
    1.0197    1.3866    1.5283 H   0  0  0  0  0  0  0  0  0  0  0  0
    0.5081    3.3999    1.0720 C   0  0  0  0  0  0  0  0  0  0  0  0
    0.0188    3.7538    1.9817 H   0  0  0  0  0  0  0  0  0  0  0  0
    1.5607    3.6858    1.1098 H   0  0  0  0  0  0  0  0  0  0  0  0
    0.0459    3.8890    0.2119 H   0  0  0  0  0  0  0  0  0  0  0  0
  5  6  2  0  0  0  0
  5  7  1  0  0  0  0
  2  3  1  0  0  0  0
  2  4  1  0  0  0  0
  2  5  1  0  0  0  0
  1  2  1  0  0  0  0
 23 24  2  0  0  0  0
 23 25  1  0  0  0  0
 21 22  1  0  0  0  0
 19 20  1  0  0  0  0
 19 21  1  0  0  0  0
 17 18  1  0  0  0  0
 17 19  1  0  0  0  0
 15 16  1  0  0  0  0
 15 17  2  0  0  0  0
 14 15  1  0  0  0  0
 14 21  2  0  0  0  0
 11 12  1  0  0  0  0
 11 13  1  0  0  0  0
 11 14  1  0  0  0  0
  9 10  1  0  0  0  0
  9 11  1  0  0  0  0
  9 23  1  0  0  0  0
  7  8  1  0  0  0  0
  7  9  1  0  0  0  0
 27 28  1  0  0  0  0
 27 29  1  0  0  0  0
 27 30  1  0  0  0  0
 25 26  1  0  0  0  0
 25 27  1  0  0  0  0
M  CHG  1  15   1
M  END
$$$$
default_name
  -OEChem-02102213163D

 30 30  0     1  0  0  0  0  0999 V2000
   -3.5507   -3.2183    1.8116 H   0  0  0  0  0  0  0  0  0  0  0  0
   -3.4597   -2.3913    1.1076 C   0  0  0  0  0  0  0  0  0  0  0  0
   -4.1577   -1.6043    1.3866 H   0  0  0  0  0  0  0  0  0  0  0  0
   -3.6807   -2.7523    0.1036 H   0  0  0  0  0  0  0  0  0  0  0  0
   -2.0477   -1.8543    1.1546 C   0  0  0  0  0  0  0  0  0  0  0  0
   -1.2227   -2.3443    1.9146 O   0  0  0  0  0  0  0  0  0  0  0  0
   -1.7517   -0.8483    0.3266 N   0  0  0  0  0  0  0  0  0  0  0  0
   -2.4847   -0.5123   -0.2804 H   0  0  0  0  0  0  0  0  0  0  0  0
   -0.4117   -0.2463    0.2186 C   0  0  1  0  0  0  0  0  0  0  0  0
    0.1554   -0.5152    1.1133 H   0  0  0  0  0  0  0  0  0  0  0  0
    0.3164   -0.8780   -0.9905 C   0  0  0  0  0  0  0  0  0  0  0  0
    1.2043   -0.2809   -1.2132 H   0  0  0  0  0  0  0  0  0  0  0  0
    0.6624   -1.8763   -0.7144 H   0  0  0  0  0  0  0  0  0  0  0  0
   -0.5147   -0.9999   -2.2502 C   0  0  0  0  0  0  0  0  0  0  0  0
   -0.0165   -1.2498   -3.5143 N   0  3  0  0  0  0  0  0  0  0  0  0
    0.9713   -1.4414   -3.7046 H   0  0  0  0  0  0  0  0  0  0  0  0
   -1.0496   -1.2878   -4.3791 C   0  0  0  0  0  0  0  0  0  0  0  0
   -0.9696   -1.4790   -5.4473 H   0  0  0  0  0  0  0  0  0  0  0  0
   -2.1926   -1.0663   -3.6913 N   0  0  0  0  0  0  0  0  0  0  0  0
   -3.1300   -1.0408   -4.0839 H   0  0  0  0  0  0  0  0  0  0  0  0
   -1.8746   -0.8832   -2.3527 C   0  0  0  0  0  0  0  0  0  0  0  0
   -2.5639   -0.6859   -1.5364 H   0  0  0  0  0  0  0  0  0  0  0  0
   -0.4874    1.2908    0.1962 C   0  0  0  0  0  0  0  0  0  0  0  0
   -1.3116    1.8673   -0.5151 O   0  0  0  0  0  0  0  0  0  0  0  0
    0.3889    1.9422    0.9708 N   0  0  0  0  0  0  0  0  0  0  0  0
    1.0197    1.3866    1.5283 H   0  0  0  0  0  0  0  0  0  0  0  0
    0.5081    3.3999    1.0720 C   0  0  0  0  0  0  0  0  0  0  0  0
    0.0188    3.7538    1.9817 H   0  0  0  0  0  0  0  0  0  0  0  0
    1.5607    3.6858    1.1098 H   0  0  0  0  0  0  0  0  0  0  0  0
    0.0459    3.8890    0.2119 H   0  0  0  0  0  0  0  0  0  0  0  0
  5  6  2  0  0  0  0
  5  7  1  0  0  0  0
  2  3  1  0  0  0  0
  2  4  1  0  0  0  0
  2  5  1  0  0  0  0
  1  2  1  0  0  0  0
 23 24  2  0  0  0  0
 23 25  1  0  0  0  0
 21 22  1  0  0  0  0
 19 20  1  0  0  0  0
 19 21  1  0  0  0  0
 17 18  1  0  0  0  0
 17 19  1  0  0  0  0
 15 16  1  0  0  0  0
 15 17  2  0  0  0  0
 14 15  1  0  0  0  0
 14 21  2  0  0  0  0
 11 12  1  0  0  0  0
 11 13  1  0  0  0  0
 11 14  1  0  0  0  0
  9 10  1  0  0  0  0
  9 11  1  0  0  0  0
  9 23  1  0  0  0  0
  7  8  1  0  0  0  0
  7  9  1  0  0  0  0
 27 28  1  0  0  0  0
 27 29  1  0  0  0  0
 27 30  1  0  0  0  0
 25 26  1  0  0  0  0
 25 27  1  0  0  0  0
M  CHG  1  15   1
M  END
$$$$
default_name
  -OEChem-02102213163D

 30 30  0     1  0  0  0  0  0999 V2000
   -3.5507   -3.2183    1.8116 H   0  0  0  0  0  0  0  0  0  0  0  0
   -3.4597   -2.3913    1.1076 C   0  0  0  0  0  0  0  0  0  0  0  0
   -4.1577   -1.6043    1.3866 H   0  0  0  0  0  0  0  0  0  0  0  0
   -3.6807   -2.7523    0.1036 H   0  0  0  0  0  0  0  0  0  0  0  0
   -2.0477   -1.8543    1.1546 C   0  0  0  0  0  0  0  0  0  0  0  0
   -1.2227   -2.3443    1.9146 O   0  0  0  0  0  0  0  0  0  0  0  0
   -1.7517   -0.8483    0.3266 N   0  0  0  0  0  0  0  0  0  0  0  0
   -2.4847   -0.5123   -0.2804 H   0  0  0  0  0  0  0  0  0  0  0  0
   -0.4117   -0.2463    0.2186 C   0  0  1  0  0  0  0  0  0  0  0  0
    0.1554   -0.5152    1.1133 H   0  0  0  0  0  0  0  0  0  0  0  0
    0.3164   -0.8780   -0.9905 C   0  0  0  0  0  0  0  0  0  0  0  0
    1.3240   -0.4586   -1.0483 H   0  0  0  0  0  0  0  0  0  0  0  0
    0.4251   -1.9509   -0.8184 H   0  0  0  0  0  0  0  0  0  0  0  0
   -0.3675   -0.6830   -2.3272 C   0  0  0  0  0  0  0  0  0  0  0  0
    0.0974   -1.1572   -3.5386 N   0  3  0  0  0  0  0  0  0  0  0  0
    0.9285   -1.7480   -3.6327 H   0  0  0  0  0  0  0  0  0  0  0  0
   -0.7713   -0.7895   -4.5013 C   0  0  0  0  0  0  0  0  0  0  0  0
   -0.6783   -1.0302   -5.5584 H   0  0  0  0  0  0  0  0  0  0  0  0
   -1.7769   -0.0912   -3.9272 N   0  0  0  0  0  0  0  0  0  0  0  0
   -2.5770    0.3094   -4.4098 H   0  0  0  0  0  0  0  0  0  0  0  0
   -1.5388   -0.0148   -2.5619 C   0  0  0  0  0  0  0  0  0  0  0  0
   -2.1564    0.4769   -1.8154 H   0  0  0  0  0  0  0  0  0  0  0  0
   -0.4874    1.2908    0.1962 C   0  0  0  0  0  0  0  0  0  0  0  0
   -1.3116    1.8673   -0.5151 O   0  0  0  0  0  0  0  0  0  0  0  0
    0.3889    1.9422    0.9708 N   0  0  0  0  0  0  0  0  0  0  0  0
    1.0197    1.3866    1.5283 H   0  0  0  0  0  0  0  0  0  0  0  0
    0.5081    3.3999    1.0720 C   0  0  0  0  0  0  0  0  0  0  0  0
    0.0188    3.7538    1.9817 H   0  0  0  0  0  0  0  0  0  0  0  0
    1.5607    3.6858    1.1098 H   0  0  0  0  0  0  0  0  0  0  0  0
    0.0459    3.8890    0.2119 H   0  0  0  0  0  0  0  0  0  0  0  0
  5  6  2  0  0  0  0
  5  7  1  0  0  0  0
  2  3  1  0  0  0  0
  2  4  1  0  0  0  0
  2  5  1  0  0  0  0
  1  2  1  0  0  0  0
 23 24  2  0  0  0  0
 23 25  1  0  0  0  0
 21 22  1  0  0  0  0
 19 20  1  0  0  0  0
 19 21  1  0  0  0  0
 17 18  1  0  0  0  0
 17 19  1  0  0  0  0
 15 16  1  0  0  0  0
 15 17  2  0  0  0  0
 14 15  1  0  0  0  0
 14 21  2  0  0  0  0
 11 12  1  0  0  0  0
 11 13  1  0  0  0  0
 11 14  1  0  0  0  0
  9 10  1  0  0  0  0
  9 11  1  0  0  0  0
  9 23  1  0  0  0  0
  7  8  1  0  0  0  0
  7  9  1  0  0  0  0
 27 28  1  0  0  0  0
 27 29  1  0  0  0  0
 27 30  1  0  0  0  0
 25 26  1  0  0  0  0
 25 27  1  0  0  0  0
M  CHG  1  15   1
M  END
$$$$
default_name
  -OEChem-02102213163D

 30 30  0     1  0  0  0  0  0999 V2000
   -3.5507   -3.2183    1.8116 H   0  0  0  0  0  0  0  0  0  0  0  0
   -3.4597   -2.3913    1.1076 C   0  0  0  0  0  0  0  0  0  0  0  0
   -4.1577   -1.6043    1.3866 H   0  0  0  0  0  0  0  0  0  0  0  0
   -3.6807   -2.7523    0.1036 H   0  0  0  0  0  0  0  0  0  0  0  0
   -2.0477   -1.8543    1.1546 C   0  0  0  0  0  0  0  0  0  0  0  0
   -1.2227   -2.3443    1.9146 O   0  0  0  0  0  0  0  0  0  0  0  0
   -1.7517   -0.8483    0.3266 N   0  0  0  0  0  0  0  0  0  0  0  0
   -2.4847   -0.5123   -0.2804 H   0  0  0  0  0  0  0  0  0  0  0  0
   -0.4117   -0.2463    0.2186 C   0  0  1  0  0  0  0  0  0  0  0  0
    0.1554   -0.5152    1.1133 H   0  0  0  0  0  0  0  0  0  0  0  0
    0.3164   -0.8780   -0.9905 C   0  0  0  0  0  0  0  0  0  0  0  0
    1.3240   -0.4586   -1.0483 H   0  0  0  0  0  0  0  0  0  0  0  0
    0.4251   -1.9509   -0.8184 H   0  0  0  0  0  0  0  0  0  0  0  0
   -0.3675   -0.6830   -2.3272 C   0  0  0  0  0  0  0  0  0  0  0  0
   -0.0795   -1.3853   -3.4814 N   0  3  0  0  0  0  0  0  0  0  0  0
    0.5909   -2.1586   -3.5199 H   0  0  0  0  0  0  0  0  0  0  0  0
   -0.8865   -0.9386   -4.4641 C   0  0  0  0  0  0  0  0  0  0  0  0
   -0.9001   -1.3121   -5.4860 H   0  0  0  0  0  0  0  0  0  0  0  0
   -1.6797    0.0330   -3.9588 N   0  0  0  0  0  0  0  0  0  0  0  0
   -2.3900    0.5499   -4.4704 H   0  0  0  0  0  0  0  0  0  0  0  0
   -1.3667    0.2062   -2.6177 C   0  0  0  0  0  0  0  0  0  0  0  0
   -1.8212    0.9082   -1.9240 H   0  0  0  0  0  0  0  0  0  0  0  0
   -0.4874    1.2908    0.1962 C   0  0  0  0  0  0  0  0  0  0  0  0
   -1.3116    1.8673   -0.5151 O   0  0  0  0  0  0  0  0  0  0  0  0
    0.3889    1.9422    0.9708 N   0  0  0  0  0  0  0  0  0  0  0  0
    1.0197    1.3866    1.5283 H   0  0  0  0  0  0  0  0  0  0  0  0
    0.5081    3.3999    1.0720 C   0  0  0  0  0  0  0  0  0  0  0  0
    0.0188    3.7538    1.9817 H   0  0  0  0  0  0  0  0  0  0  0  0
    1.5607    3.6858    1.1098 H   0  0  0  0  0  0  0  0  0  0  0  0
    0.0459    3.8890    0.2119 H   0  0  0  0  0  0  0  0  0  0  0  0
  5  6  2  0  0  0  0
  5  7  1  0  0  0  0
  2  3  1  0  0  0  0
  2  4  1  0  0  0  0
  2  5  1  0  0  0  0
  1  2  1  0  0  0  0
 23 24  2  0  0  0  0
 23 25  1  0  0  0  0
 21 22  1  0  0  0  0
 19 20  1  0  0  0  0
 19 21  1  0  0  0  0
 17 18  1  0  0  0  0
 17 19  1  0  0  0  0
 15 16  1  0  0  0  0
 15 17  2  0  0  0  0
 14 15  1  0  0  0  0
 14 21  2  0  0  0  0
 11 12  1  0  0  0  0
 11 13  1  0  0  0  0
 11 14  1  0  0  0  0
  9 10  1  0  0  0  0
  9 11  1  0  0  0  0
  9 23  1  0  0  0  0
  7  8  1  0  0  0  0
  7  9  1  0  0  0  0
 27 28  1  0  0  0  0
 27 29  1  0  0  0  0
 27 30  1  0  0  0  0
 25 26  1  0  0  0  0
 25 27  1  0  0  0  0
M  CHG  1  15   1
M  END
$$$$
default_name
  -OEChem-02102213163D

 30 30  0     1  0  0  0  0  0999 V2000
   -3.5507   -3.2183    1.8116 H   0  0  0  0  0  0  0  0  0  0  0  0
   -3.4597   -2.3913    1.1076 C   0  0  0  0  0  0  0  0  0  0  0  0
   -4.1577   -1.6043    1.3866 H   0  0  0  0  0  0  0  0  0  0  0  0
   -3.6807   -2.7523    0.1036 H   0  0  0  0  0  0  0  0  0  0  0  0
   -2.0477   -1.8543    1.1546 C   0  0  0  0  0  0  0  0  0  0  0  0
   -1.2227   -2.3443    1.9146 O   0  0  0  0  0  0  0  0  0  0  0  0
   -1.7517   -0.8483    0.3266 N   0  0  0  0  0  0  0  0  0  0  0  0
   -2.4847   -0.5123   -0.2804 H   0  0  0  0  0  0  0  0  0  0  0  0
   -0.4117   -0.2463    0.2186 C   0  0  1  0  0  0  0  0  0  0  0  0
    0.1554   -0.5152    1.1133 H   0  0  0  0  0  0  0  0  0  0  0  0
    0.3164   -0.8780   -0.9905 C   0  0  0  0  0  0  0  0  0  0  0  0
    1.3240   -0.4586   -1.0483 H   0  0  0  0  0  0  0  0  0  0  0  0
    0.4251   -1.9509   -0.8184 H   0  0  0  0  0  0  0  0  0  0  0  0
   -0.3675   -0.6830   -2.3272 C   0  0  0  0  0  0  0  0  0  0  0  0
   -0.3005   -1.5586   -3.3936 N   0  3  0  0  0  0  0  0  0  0  0  0
    0.1747   -2.4648   -3.3516 H   0  0  0  0  0  0  0  0  0  0  0  0
   -1.0306   -1.0519   -4.4069 C   0  0  0  0  0  0  0  0  0  0  0  0
   -1.1764   -1.5254   -5.3758 H   0  0  0  0  0  0  0  0  0  0  0  0
   -1.5585    0.1270   -4.0071 N   0  0  0  0  0  0  0  0  0  0  0  0
   -2.1564    0.7325   -4.5632 H   0  0  0  0  0  0  0  0  0  0  0  0
   -1.1518    0.3739   -2.7032 C   0  0  0  0  0  0  0  0  0  0  0  0
   -1.4024    1.2355   -2.0905 H   0  0  0  0  0  0  0  0  0  0  0  0
   -0.4874    1.2908    0.1962 C   0  0  0  0  0  0  0  0  0  0  0  0
   -1.3116    1.8673   -0.5151 O   0  0  0  0  0  0  0  0  0  0  0  0
    0.3889    1.9422    0.9708 N   0  0  0  0  0  0  0  0  0  0  0  0
    1.0197    1.3866    1.5283 H   0  0  0  0  0  0  0  0  0  0  0  0
    0.5081    3.3999    1.0720 C   0  0  0  0  0  0  0  0  0  0  0  0
    0.0188    3.7538    1.9817 H   0  0  0  0  0  0  0  0  0  0  0  0
    1.5607    3.6858    1.1098 H   0  0  0  0  0  0  0  0  0  0  0  0
    0.0459    3.8890    0.2119 H   0  0  0  0  0  0  0  0  0  0  0  0
  5  6  2  0  0  0  0
  5  7  1  0  0  0  0
  2  3  1  0  0  0  0
  2  4  1  0  0  0  0
  2  5  1  0  0  0  0
  1  2  1  0  0  0  0
 23 24  2  0  0  0  0
 23 25  1  0  0  0  0
 21 22  1  0  0  0  0
 19 20  1  0  0  0  0
 19 21  1  0  0  0  0
 17 18  1  0  0  0  0
 17 19  1  0  0  0  0
 15 16  1  0  0  0  0
 15 17  2  0  0  0  0
 14 15  1  0  0  0  0
 14 21  2  0  0  0  0
 11 12  1  0  0  0  0
 11 13  1  0  0  0  0
 11 14  1  0  0  0  0
  9 10  1  0  0  0  0
  9 11  1  0  0  0  0
  9 23  1  0  0  0  0
  7  8  1  0  0  0  0
  7  9  1  0  0  0  0
 27 28  1  0  0  0  0
 27 29  1  0  0  0  0
 27 30  1  0  0  0  0
 25 26  1  0  0  0  0
 25 27  1  0  0  0  0
M  CHG  1  15   1
M  END
$$$$
default_name
  -OEChem-02102213163D

 30 30  0     1  0  0  0  0  0999 V2000
   -3.5507   -3.2183    1.8116 H   0  0  0  0  0  0  0  0  0  0  0  0
   -3.4597   -2.3913    1.1076 C   0  0  0  0  0  0  0  0  0  0  0  0
   -4.1577   -1.6043    1.3866 H   0  0  0  0  0  0  0  0  0  0  0  0
   -3.6807   -2.7523    0.1036 H   0  0  0  0  0  0  0  0  0  0  0  0
   -2.0477   -1.8543    1.1546 C   0  0  0  0  0  0  0  0  0  0  0  0
   -1.2227   -2.3443    1.9146 O   0  0  0  0  0  0  0  0  0  0  0  0
   -1.7517   -0.8483    0.3266 N   0  0  0  0  0  0  0  0  0  0  0  0
   -2.4847   -0.5123   -0.2804 H   0  0  0  0  0  0  0  0  0  0  0  0
   -0.4117   -0.2463    0.2186 C   0  0  1  0  0  0  0  0  0  0  0  0
    0.1554   -0.5152    1.1133 H   0  0  0  0  0  0  0  0  0  0  0  0
    0.3164   -0.8780   -0.9905 C   0  0  0  0  0  0  0  0  0  0  0  0
    1.3240   -0.4586   -1.0483 H   0  0  0  0  0  0  0  0  0  0  0  0
    0.4251   -1.9509   -0.8184 H   0  0  0  0  0  0  0  0  0  0  0  0
   -0.3675   -0.6830   -2.3272 C   0  0  0  0  0  0  0  0  0  0  0  0
   -0.5507   -1.6653   -3.2811 N   0  3  0  0  0  0  0  0  0  0  0  0
   -0.2917   -2.6459   -3.1394 H   0  0  0  0  0  0  0  0  0  0  0  0
   -1.1937   -1.1218   -4.3336 C   0  0  0  0  0  0  0  0  0  0  0  0
   -1.4883   -1.6553   -5.2351 H   0  0  0  0  0  0  0  0  0  0  0  0
   -1.4216    0.1845   -4.0688 N   0  0  0  0  0  0  0  0  0  0  0  0
   -1.8922    0.8446   -4.6821 H   0  0  0  0  0  0  0  0  0  0  0  0
   -0.9088    0.4767   -2.8125 C   0  0  0  0  0  0  0  0  0  0  0  0
   -0.9287    1.4365   -2.3036 H   0  0  0  0  0  0  0  0  0  0  0  0
   -0.4874    1.2908    0.1962 C   0  0  0  0  0  0  0  0  0  0  0  0
   -1.3116    1.8673   -0.5151 O   0  0  0  0  0  0  0  0  0  0  0  0
    0.3889    1.9422    0.9708 N   0  0  0  0  0  0  0  0  0  0  0  0
    1.0197    1.3866    1.5283 H   0  0  0  0  0  0  0  0  0  0  0  0
    0.5081    3.3999    1.0720 C   0  0  0  0  0  0  0  0  0  0  0  0
    0.0188    3.7538    1.9817 H   0  0  0  0  0  0  0  0  0  0  0  0
    1.5607    3.6858    1.1098 H   0  0  0  0  0  0  0  0  0  0  0  0
    0.0459    3.8890    0.2119 H   0  0  0  0  0  0  0  0  0  0  0  0
  5  6  2  0  0  0  0
  5  7  1  0  0  0  0
  2  3  1  0  0  0  0
  2  4  1  0  0  0  0
  2  5  1  0  0  0  0
  1  2  1  0  0  0  0
 23 24  2  0  0  0  0
 23 25  1  0  0  0  0
 21 22  1  0  0  0  0
 19 20  1  0  0  0  0
 19 21  1  0  0  0  0
 17 18  1  0  0  0  0
 17 19  1  0  0  0  0
 15 16  1  0  0  0  0
 15 17  2  0  0  0  0
 14 15  1  0  0  0  0
 14 21  2  0  0  0  0
 11 12  1  0  0  0  0
 11 13  1  0  0  0  0
 11 14  1  0  0  0  0
  9 10  1  0  0  0  0
  9 11  1  0  0  0  0
  9 23  1  0  0  0  0
  7  8  1  0  0  0  0
  7  9  1  0  0  0  0
 27 28  1  0  0  0  0
 27 29  1  0  0  0  0
 27 30  1  0  0  0  0
 25 26  1  0  0  0  0
 25 27  1  0  0  0  0
M  CHG  1  15   1
M  END
$$$$
default_name
  -OEChem-02102213163D

 30 30  0     1  0  0  0  0  0999 V2000
   -3.5507   -3.2183    1.8116 H   0  0  0  0  0  0  0  0  0  0  0  0
   -3.4597   -2.3913    1.1076 C   0  0  0  0  0  0  0  0  0  0  0  0
   -4.1577   -1.6043    1.3866 H   0  0  0  0  0  0  0  0  0  0  0  0
   -3.6807   -2.7523    0.1036 H   0  0  0  0  0  0  0  0  0  0  0  0
   -2.0477   -1.8543    1.1546 C   0  0  0  0  0  0  0  0  0  0  0  0
   -1.2227   -2.3443    1.9146 O   0  0  0  0  0  0  0  0  0  0  0  0
   -1.7517   -0.8483    0.3266 N   0  0  0  0  0  0  0  0  0  0  0  0
   -2.4847   -0.5123   -0.2804 H   0  0  0  0  0  0  0  0  0  0  0  0
   -0.4117   -0.2463    0.2186 C   0  0  1  0  0  0  0  0  0  0  0  0
    0.1554   -0.5152    1.1133 H   0  0  0  0  0  0  0  0  0  0  0  0
    0.3164   -0.8780   -0.9905 C   0  0  0  0  0  0  0  0  0  0  0  0
    1.3240   -0.4586   -1.0483 H   0  0  0  0  0  0  0  0  0  0  0  0
    0.4251   -1.9509   -0.8184 H   0  0  0  0  0  0  0  0  0  0  0  0
   -0.3675   -0.6830   -2.3272 C   0  0  0  0  0  0  0  0  0  0  0  0
   -0.8130   -1.6979   -3.1517 N   0  3  0  0  0  0  0  0  0  0  0  0
   -0.7765   -2.6894   -2.8977 H   0  0  0  0  0  0  0  0  0  0  0  0
   -1.3649   -1.1435   -4.2492 C   0  0  0  0  0  0  0  0  0  0  0  0
   -1.8146   -1.6931   -5.0737 H   0  0  0  0  0  0  0  0  0  0  0  0
   -1.2782    0.2015   -4.1396 N   0  0  0  0  0  0  0  0  0  0  0  0
   -1.6153    0.8787   -4.8188 H   0  0  0  0  0  0  0  0  0  0  0  0
   -0.6542    0.5078   -2.9382 C   0  0  0  0  0  0  0  0  0  0  0  0
   -0.4323    1.4974   -2.5487 H   0  0  0  0  0  0  0  0  0  0  0  0
   -0.4874    1.2908    0.1962 C   0  0  0  0  0  0  0  0  0  0  0  0
   -1.3116    1.8673   -0.5151 O   0  0  0  0  0  0  0  0  0  0  0  0
    0.3889    1.9422    0.9708 N   0  0  0  0  0  0  0  0  0  0  0  0
    1.0197    1.3866    1.5283 H   0  0  0  0  0  0  0  0  0  0  0  0
    0.5081    3.3999    1.0720 C   0  0  0  0  0  0  0  0  0  0  0  0
    0.0188    3.7538    1.9817 H   0  0  0  0  0  0  0  0  0  0  0  0
    1.5607    3.6858    1.1098 H   0  0  0  0  0  0  0  0  0  0  0  0
    0.0459    3.8890    0.2119 H   0  0  0  0  0  0  0  0  0  0  0  0
  5  6  2  0  0  0  0
  5  7  1  0  0  0  0
  2  3  1  0  0  0  0
  2  4  1  0  0  0  0
  2  5  1  0  0  0  0
  1  2  1  0  0  0  0
 23 24  2  0  0  0  0
 23 25  1  0  0  0  0
 21 22  1  0  0  0  0
 19 20  1  0  0  0  0
 19 21  1  0  0  0  0
 17 18  1  0  0  0  0
 17 19  1  0  0  0  0
 15 16  1  0  0  0  0
 15 17  2  0  0  0  0
 14 15  1  0  0  0  0
 14 21  2  0  0  0  0
 11 12  1  0  0  0  0
 11 13  1  0  0  0  0
 11 14  1  0  0  0  0
  9 10  1  0  0  0  0
  9 11  1  0  0  0  0
  9 23  1  0  0  0  0
  7  8  1  0  0  0  0
  7  9  1  0  0  0  0
 27 28  1  0  0  0  0
 27 29  1  0  0  0  0
 27 30  1  0  0  0  0
 25 26  1  0  0  0  0
 25 27  1  0  0  0  0
M  CHG  1  15   1
M  END
$$$$
default_name
  -OEChem-02102213163D

 30 30  0     1  0  0  0  0  0999 V2000
   -3.5507   -3.2183    1.8116 H   0  0  0  0  0  0  0  0  0  0  0  0
   -3.4597   -2.3913    1.1076 C   0  0  0  0  0  0  0  0  0  0  0  0
   -4.1577   -1.6043    1.3866 H   0  0  0  0  0  0  0  0  0  0  0  0
   -3.6807   -2.7523    0.1036 H   0  0  0  0  0  0  0  0  0  0  0  0
   -2.0477   -1.8543    1.1546 C   0  0  0  0  0  0  0  0  0  0  0  0
   -1.2227   -2.3443    1.9146 O   0  0  0  0  0  0  0  0  0  0  0  0
   -1.7517   -0.8483    0.3266 N   0  0  0  0  0  0  0  0  0  0  0  0
   -2.4847   -0.5123   -0.2804 H   0  0  0  0  0  0  0  0  0  0  0  0
   -0.4117   -0.2463    0.2186 C   0  0  1  0  0  0  0  0  0  0  0  0
    0.1554   -0.5152    1.1133 H   0  0  0  0  0  0  0  0  0  0  0  0
    0.3164   -0.8780   -0.9905 C   0  0  0  0  0  0  0  0  0  0  0  0
    1.3240   -0.4586   -1.0483 H   0  0  0  0  0  0  0  0  0  0  0  0
    0.4251   -1.9509   -0.8184 H   0  0  0  0  0  0  0  0  0  0  0  0
   -0.3675   -0.6830   -2.3272 C   0  0  0  0  0  0  0  0  0  0  0  0
   -1.0695   -1.6544   -3.0141 N   0  3  0  0  0  0  0  0  0  0  0  0
   -1.2466   -2.5924   -2.6430 H   0  0  0  0  0  0  0  0  0  0  0  0
   -1.5323   -1.1154   -4.1595 C   0  0  0  0  0  0  0  0  0  0  0  0
   -2.1330   -1.6361   -4.9025 H   0  0  0  0  0  0  0  0  0  0  0  0
   -1.1382    0.1769   -4.2148 N   0  0  0  0  0  0  0  0  0  0  0  0
   -1.3447    0.8323   -4.9640 H   0  0  0  0  0  0  0  0  0  0  0  0
   -0.4054    0.4649   -3.0718 C   0  0  0  0  0  0  0  0  0  0  0  0
    0.0530    1.4143   -2.8091 H   0  0  0  0  0  0  0  0  0  0  0  0
   -0.4874    1.2908    0.1962 C   0  0  0  0  0  0  0  0  0  0  0  0
   -1.3116    1.8673   -0.5151 O   0  0  0  0  0  0  0  0  0  0  0  0
    0.3889    1.9422    0.9708 N   0  0  0  0  0  0  0  0  0  0  0  0
    1.0197    1.3866    1.5283 H   0  0  0  0  0  0  0  0  0  0  0  0
    0.5081    3.3999    1.0720 C   0  0  0  0  0  0  0  0  0  0  0  0
    0.0188    3.7538    1.9817 H   0  0  0  0  0  0  0  0  0  0  0  0
    1.5607    3.6858    1.1098 H   0  0  0  0  0  0  0  0  0  0  0  0
    0.0459    3.8890    0.2119 H   0  0  0  0  0  0  0  0  0  0  0  0
  5  6  2  0  0  0  0
  5  7  1  0  0  0  0
  2  3  1  0  0  0  0
  2  4  1  0  0  0  0
  2  5  1  0  0  0  0
  1  2  1  0  0  0  0
 23 24  2  0  0  0  0
 23 25  1  0  0  0  0
 21 22  1  0  0  0  0
 19 20  1  0  0  0  0
 19 21  1  0  0  0  0
 17 18  1  0  0  0  0
 17 19  1  0  0  0  0
 15 16  1  0  0  0  0
 15 17  2  0  0  0  0
 14 15  1  0  0  0  0
 14 21  2  0  0  0  0
 11 12  1  0  0  0  0
 11 13  1  0  0  0  0
 11 14  1  0  0  0  0
  9 10  1  0  0  0  0
  9 11  1  0  0  0  0
  9 23  1  0  0  0  0
  7  8  1  0  0  0  0
  7  9  1  0  0  0  0
 27 28  1  0  0  0  0
 27 29  1  0  0  0  0
 27 30  1  0  0  0  0
 25 26  1  0  0  0  0
 25 27  1  0  0  0  0
M  CHG  1  15   1
M  END
$$$$
default_name
  -OEChem-02102213163D

 30 30  0     1  0  0  0  0  0999 V2000
   -3.5507   -3.2183    1.8116 H   0  0  0  0  0  0  0  0  0  0  0  0
   -3.4597   -2.3913    1.1076 C   0  0  0  0  0  0  0  0  0  0  0  0
   -4.1577   -1.6043    1.3866 H   0  0  0  0  0  0  0  0  0  0  0  0
   -3.6807   -2.7523    0.1036 H   0  0  0  0  0  0  0  0  0  0  0  0
   -2.0477   -1.8543    1.1546 C   0  0  0  0  0  0  0  0  0  0  0  0
   -1.2227   -2.3443    1.9146 O   0  0  0  0  0  0  0  0  0  0  0  0
   -1.7517   -0.8483    0.3266 N   0  0  0  0  0  0  0  0  0  0  0  0
   -2.4847   -0.5123   -0.2804 H   0  0  0  0  0  0  0  0  0  0  0  0
   -0.4117   -0.2463    0.2186 C   0  0  1  0  0  0  0  0  0  0  0  0
    0.1554   -0.5152    1.1133 H   0  0  0  0  0  0  0  0  0  0  0  0
    0.3164   -0.8780   -0.9905 C   0  0  0  0  0  0  0  0  0  0  0  0
    1.3240   -0.4586   -1.0483 H   0  0  0  0  0  0  0  0  0  0  0  0
    0.4251   -1.9509   -0.8184 H   0  0  0  0  0  0  0  0  0  0  0  0
   -0.3675   -0.6830   -2.3272 C   0  0  0  0  0  0  0  0  0  0  0  0
   -1.3028   -1.5377   -2.8777 N   0  3  0  0  0  0  0  0  0  0  0  0
   -1.6701   -2.3615   -2.3927 H   0  0  0  0  0  0  0  0  0  0  0  0
   -1.6847   -1.0396   -4.0705 C   0  0  0  0  0  0  0  0  0  0  0  0
   -2.4219   -1.4884   -4.7331 H   0  0  0  0  0  0  0  0  0  0  0  0
   -1.0111    0.1123   -4.2893 N   0  0  0  0  0  0  0  0  0  0  0  0
   -1.0986    0.7087   -5.1079 H   0  0  0  0  0  0  0  0  0  0  0  0
   -0.1793    0.3510   -3.2041 C   0  0  0  0  0  0  0  0  0  0  0  0
    0.4940    1.1926   -3.0671 H   0  0  0  0  0  0  0  0  0  0  0  0
   -0.4874    1.2908    0.1962 C   0  0  0  0  0  0  0  0  0  0  0  0
   -1.3116    1.8673   -0.5151 O   0  0  0  0  0  0  0  0  0  0  0  0
    0.3889    1.9422    0.9708 N   0  0  0  0  0  0  0  0  0  0  0  0
    1.0197    1.3866    1.5283 H   0  0  0  0  0  0  0  0  0  0  0  0
    0.5081    3.3999    1.0720 C   0  0  0  0  0  0  0  0  0  0  0  0
    0.0188    3.7538    1.9817 H   0  0  0  0  0  0  0  0  0  0  0  0
    1.5607    3.6858    1.1098 H   0  0  0  0  0  0  0  0  0  0  0  0
    0.0459    3.8890    0.2119 H   0  0  0  0  0  0  0  0  0  0  0  0
  5  6  2  0  0  0  0
  5  7  1  0  0  0  0
  2  3  1  0  0  0  0
  2  4  1  0  0  0  0
  2  5  1  0  0  0  0
  1  2  1  0  0  0  0
 23 24  2  0  0  0  0
 23 25  1  0  0  0  0
 21 22  1  0  0  0  0
 19 20  1  0  0  0  0
 19 21  1  0  0  0  0
 17 18  1  0  0  0  0
 17 19  1  0  0  0  0
 15 16  1  0  0  0  0
 15 17  2  0  0  0  0
 14 15  1  0  0  0  0
 14 21  2  0  0  0  0
 11 12  1  0  0  0  0
 11 13  1  0  0  0  0
 11 14  1  0  0  0  0
  9 10  1  0  0  0  0
  9 11  1  0  0  0  0
  9 23  1  0  0  0  0
  7  8  1  0  0  0  0
  7  9  1  0  0  0  0
 27 28  1  0  0  0  0
 27 29  1  0  0  0  0
 27 30  1  0  0  0  0
 25 26  1  0  0  0  0
 25 27  1  0  0  0  0
M  CHG  1  15   1
M  END
$$$$
default_name
  -OEChem-02102213163D

 30 30  0     1  0  0  0  0  0999 V2000
   -3.5507   -3.2183    1.8116 H   0  0  0  0  0  0  0  0  0  0  0  0
   -3.4597   -2.3913    1.1076 C   0  0  0  0  0  0  0  0  0  0  0  0
   -4.1577   -1.6043    1.3866 H   0  0  0  0  0  0  0  0  0  0  0  0
   -3.6807   -2.7523    0.1036 H   0  0  0  0  0  0  0  0  0  0  0  0
   -2.0477   -1.8543    1.1546 C   0  0  0  0  0  0  0  0  0  0  0  0
   -1.2227   -2.3443    1.9146 O   0  0  0  0  0  0  0  0  0  0  0  0
   -1.7517   -0.8483    0.3266 N   0  0  0  0  0  0  0  0  0  0  0  0
   -2.4847   -0.5123   -0.2804 H   0  0  0  0  0  0  0  0  0  0  0  0
   -0.4117   -0.2463    0.2186 C   0  0  1  0  0  0  0  0  0  0  0  0
    0.1554   -0.5152    1.1133 H   0  0  0  0  0  0  0  0  0  0  0  0
    0.3164   -0.8780   -0.9905 C   0  0  0  0  0  0  0  0  0  0  0  0
    1.3240   -0.4586   -1.0483 H   0  0  0  0  0  0  0  0  0  0  0  0
    0.4251   -1.9509   -0.8184 H   0  0  0  0  0  0  0  0  0  0  0  0
   -0.3675   -0.6830   -2.3272 C   0  0  0  0  0  0  0  0  0  0  0  0
   -1.4968   -1.3558   -2.7519 N   0  3  0  0  0  0  0  0  0  0  0  0
   -2.0180   -2.0124   -2.1637 H   0  0  0  0  0  0  0  0  0  0  0  0
   -1.8115   -0.9211   -3.9883 C   0  0  0  0  0  0  0  0  0  0  0  0
   -2.6615   -1.2598   -4.5772 H   0  0  0  0  0  0  0  0  0  0  0  0
   -0.9056    0.0122   -4.3579 N   0  0  0  0  0  0  0  0  0  0  0  0
   -0.8941    0.5163   -5.2407 H   0  0  0  0  0  0  0  0  0  0  0  0
    0.0087    0.1738   -3.3261 C   0  0  0  0  0  0  0  0  0  0  0  0
    0.8608    0.8476   -3.3051 H   0  0  0  0  0  0  0  0  0  0  0  0
   -0.4874    1.2908    0.1962 C   0  0  0  0  0  0  0  0  0  0  0  0
   -1.3116    1.8673   -0.5151 O   0  0  0  0  0  0  0  0  0  0  0  0
    0.3889    1.9422    0.9708 N   0  0  0  0  0  0  0  0  0  0  0  0
    1.0197    1.3866    1.5283 H   0  0  0  0  0  0  0  0  0  0  0  0
    0.5081    3.3999    1.0720 C   0  0  0  0  0  0  0  0  0  0  0  0
    0.0188    3.7538    1.9817 H   0  0  0  0  0  0  0  0  0  0  0  0
    1.5607    3.6858    1.1098 H   0  0  0  0  0  0  0  0  0  0  0  0
    0.0459    3.8890    0.2119 H   0  0  0  0  0  0  0  0  0  0  0  0
  5  6  2  0  0  0  0
  5  7  1  0  0  0  0
  2  3  1  0  0  0  0
  2  4  1  0  0  0  0
  2  5  1  0  0  0  0
  1  2  1  0  0  0  0
 23 24  2  0  0  0  0
 23 25  1  0  0  0  0
 21 22  1  0  0  0  0
 19 20  1  0  0  0  0
 19 21  1  0  0  0  0
 17 18  1  0  0  0  0
 17 19  1  0  0  0  0
 15 16  1  0  0  0  0
 15 17  2  0  0  0  0
 14 15  1  0  0  0  0
 14 21  2  0  0  0  0
 11 12  1  0  0  0  0
 11 13  1  0  0  0  0
 11 14  1  0  0  0  0
  9 10  1  0  0  0  0
  9 11  1  0  0  0  0
  9 23  1  0  0  0  0
  7  8  1  0  0  0  0
  7  9  1  0  0  0  0
 27 28  1  0  0  0  0
 27 29  1  0  0  0  0
 27 30  1  0  0  0  0
 25 26  1  0  0  0  0
 25 27  1  0  0  0  0
M  CHG  1  15   1
M  END
$$$$
default_name
  -OEChem-02102213163D

 30 30  0     1  0  0  0  0  0999 V2000
   -3.5507   -3.2183    1.8116 H   0  0  0  0  0  0  0  0  0  0  0  0
   -3.4597   -2.3913    1.1076 C   0  0  0  0  0  0  0  0  0  0  0  0
   -4.1577   -1.6043    1.3866 H   0  0  0  0  0  0  0  0  0  0  0  0
   -3.6807   -2.7523    0.1036 H   0  0  0  0  0  0  0  0  0  0  0  0
   -2.0477   -1.8543    1.1546 C   0  0  0  0  0  0  0  0  0  0  0  0
   -1.2227   -2.3443    1.9146 O   0  0  0  0  0  0  0  0  0  0  0  0
   -1.7517   -0.8483    0.3266 N   0  0  0  0  0  0  0  0  0  0  0  0
   -2.4847   -0.5123   -0.2804 H   0  0  0  0  0  0  0  0  0  0  0  0
   -0.4117   -0.2463    0.2186 C   0  0  1  0  0  0  0  0  0  0  0  0
    0.1554   -0.5152    1.1133 H   0  0  0  0  0  0  0  0  0  0  0  0
    0.3164   -0.8780   -0.9905 C   0  0  0  0  0  0  0  0  0  0  0  0
    1.3240   -0.4586   -1.0483 H   0  0  0  0  0  0  0  0  0  0  0  0
    0.4251   -1.9509   -0.8184 H   0  0  0  0  0  0  0  0  0  0  0  0
   -0.3675   -0.6830   -2.3272 C   0  0  0  0  0  0  0  0  0  0  0  0
   -1.6385   -1.1209   -2.6451 N   0  3  0  0  0  0  0  0  0  0  0  0
   -2.2667   -1.5690   -1.9718 H   0  0  0  0  0  0  0  0  0  0  0  0
   -1.9042   -0.7681   -3.9185 C   0  0  0  0  0  0  0  0  0  0  0  0
   -2.8355   -0.9661   -4.4453 H   0  0  0  0  0  0  0  0  0  0  0  0
   -0.8288   -0.1166   -4.4160 N   0  0  0  0  0  0  0  0  0  0  0  0
   -0.7448    0.2682   -5.3532 H   0  0  0  0  0  0  0  0  0  0  0  0
    0.1457   -0.0545   -3.4295 C   0  0  0  0  0  0  0  0  0  0  0  0
    1.1283    0.4027   -3.5068 H   0  0  0  0  0  0  0  0  0  0  0  0
   -0.4874    1.2908    0.1962 C   0  0  0  0  0  0  0  0  0  0  0  0
   -1.3116    1.8673   -0.5151 O   0  0  0  0  0  0  0  0  0  0  0  0
    0.3889    1.9422    0.9708 N   0  0  0  0  0  0  0  0  0  0  0  0
    1.0197    1.3866    1.5283 H   0  0  0  0  0  0  0  0  0  0  0  0
    0.5081    3.3999    1.0720 C   0  0  0  0  0  0  0  0  0  0  0  0
    0.0188    3.7538    1.9817 H   0  0  0  0  0  0  0  0  0  0  0  0
    1.5607    3.6858    1.1098 H   0  0  0  0  0  0  0  0  0  0  0  0
    0.0459    3.8890    0.2119 H   0  0  0  0  0  0  0  0  0  0  0  0
  5  6  2  0  0  0  0
  5  7  1  0  0  0  0
  2  3  1  0  0  0  0
  2  4  1  0  0  0  0
  2  5  1  0  0  0  0
  1  2  1  0  0  0  0
 23 24  2  0  0  0  0
 23 25  1  0  0  0  0
 21 22  1  0  0  0  0
 19 20  1  0  0  0  0
 19 21  1  0  0  0  0
 17 18  1  0  0  0  0
 17 19  1  0  0  0  0
 15 16  1  0  0  0  0
 15 17  2  0  0  0  0
 14 15  1  0  0  0  0
 14 21  2  0  0  0  0
 11 12  1  0  0  0  0
 11 13  1  0  0  0  0
 11 14  1  0  0  0  0
  9 10  1  0  0  0  0
  9 11  1  0  0  0  0
  9 23  1  0  0  0  0
  7  8  1  0  0  0  0
  7  9  1  0  0  0  0
 27 28  1  0  0  0  0
 27 29  1  0  0  0  0
 27 30  1  0  0  0  0
 25 26  1  0  0  0  0
 25 27  1  0  0  0  0
M  CHG  1  15   1
M  END
$$$$
default_name
  -OEChem-02102213163D

 30 30  0     1  0  0  0  0  0999 V2000
   -3.5507   -3.2183    1.8116 H   0  0  0  0  0  0  0  0  0  0  0  0
   -3.4597   -2.3913    1.1076 C   0  0  0  0  0  0  0  0  0  0  0  0
   -4.1577   -1.6043    1.3866 H   0  0  0  0  0  0  0  0  0  0  0  0
   -3.6807   -2.7523    0.1036 H   0  0  0  0  0  0  0  0  0  0  0  0
   -2.0477   -1.8543    1.1546 C   0  0  0  0  0  0  0  0  0  0  0  0
   -1.2227   -2.3443    1.9146 O   0  0  0  0  0  0  0  0  0  0  0  0
   -1.7517   -0.8483    0.3266 N   0  0  0  0  0  0  0  0  0  0  0  0
   -2.4847   -0.5123   -0.2804 H   0  0  0  0  0  0  0  0  0  0  0  0
   -0.4117   -0.2463    0.2186 C   0  0  1  0  0  0  0  0  0  0  0  0
    0.1554   -0.5152    1.1133 H   0  0  0  0  0  0  0  0  0  0  0  0
    0.3164   -0.8780   -0.9905 C   0  0  0  0  0  0  0  0  0  0  0  0
    1.3240   -0.4586   -1.0483 H   0  0  0  0  0  0  0  0  0  0  0  0
    0.4251   -1.9509   -0.8184 H   0  0  0  0  0  0  0  0  0  0  0  0
   -0.3675   -0.6830   -2.3272 C   0  0  0  0  0  0  0  0  0  0  0  0
   -1.7182   -0.8493   -2.5647 N   0  3  0  0  0  0  0  0  0  0  0  0
   -2.3992   -1.0614   -1.8300 H   0  0  0  0  0  0  0  0  0  0  0  0
   -1.9565   -0.5909   -3.8659 C   0  0  0  0  0  0  0  0  0  0  0  0
   -2.9321   -0.6272   -4.3465 H   0  0  0  0  0  0  0  0  0  0  0  0
   -0.7860   -0.2653   -4.4596 N   0  0  0  0  0  0  0  0  0  0  0  0
   -0.6612   -0.0188   -5.4379 H   0  0  0  0  0  0  0  0  0  0  0  0
    0.2224   -0.3184   -3.5073 C   0  0  0  0  0  0  0  0  0  0  0  0
    1.2783   -0.1118   -3.6586 H   0  0  0  0  0  0  0  0  0  0  0  0
   -0.4874    1.2908    0.1962 C   0  0  0  0  0  0  0  0  0  0  0  0
   -1.3116    1.8673   -0.5151 O   0  0  0  0  0  0  0  0  0  0  0  0
    0.3889    1.9422    0.9708 N   0  0  0  0  0  0  0  0  0  0  0  0
    1.0197    1.3866    1.5283 H   0  0  0  0  0  0  0  0  0  0  0  0
    0.5081    3.3999    1.0720 C   0  0  0  0  0  0  0  0  0  0  0  0
    0.0188    3.7538    1.9817 H   0  0  0  0  0  0  0  0  0  0  0  0
    1.5607    3.6858    1.1098 H   0  0  0  0  0  0  0  0  0  0  0  0
    0.0459    3.8890    0.2119 H   0  0  0  0  0  0  0  0  0  0  0  0
  5  6  2  0  0  0  0
  5  7  1  0  0  0  0
  2  3  1  0  0  0  0
  2  4  1  0  0  0  0
  2  5  1  0  0  0  0
  1  2  1  0  0  0  0
 23 24  2  0  0  0  0
 23 25  1  0  0  0  0
 21 22  1  0  0  0  0
 19 20  1  0  0  0  0
 19 21  1  0  0  0  0
 17 18  1  0  0  0  0
 17 19  1  0  0  0  0
 15 16  1  0  0  0  0
 15 17  2  0  0  0  0
 14 15  1  0  0  0  0
 14 21  2  0  0  0  0
 11 12  1  0  0  0  0
 11 13  1  0  0  0  0
 11 14  1  0  0  0  0
  9 10  1  0  0  0  0
  9 11  1  0  0  0  0
  9 23  1  0  0  0  0
  7  8  1  0  0  0  0
  7  9  1  0  0  0  0
 27 28  1  0  0  0  0
 27 29  1  0  0  0  0
 27 30  1  0  0  0  0
 25 26  1  0  0  0  0
 25 27  1  0  0  0  0
M  CHG  1  15   1
M  END
$$$$
default_name
  -OEChem-02102213163D

 30 30  0     1  0  0  0  0  0999 V2000
   -3.5507   -3.2183    1.8116 H   0  0  0  0  0  0  0  0  0  0  0  0
   -3.4597   -2.3913    1.1076 C   0  0  0  0  0  0  0  0  0  0  0  0
   -4.1577   -1.6043    1.3866 H   0  0  0  0  0  0  0  0  0  0  0  0
   -3.6807   -2.7523    0.1036 H   0  0  0  0  0  0  0  0  0  0  0  0
   -2.0477   -1.8543    1.1546 C   0  0  0  0  0  0  0  0  0  0  0  0
   -1.2227   -2.3443    1.9146 O   0  0  0  0  0  0  0  0  0  0  0  0
   -1.7517   -0.8483    0.3266 N   0  0  0  0  0  0  0  0  0  0  0  0
   -2.4847   -0.5123   -0.2804 H   0  0  0  0  0  0  0  0  0  0  0  0
   -0.4117   -0.2463    0.2186 C   0  0  1  0  0  0  0  0  0  0  0  0
    0.1554   -0.5152    1.1133 H   0  0  0  0  0  0  0  0  0  0  0  0
    0.3164   -0.8780   -0.9905 C   0  0  0  0  0  0  0  0  0  0  0  0
    1.3240   -0.4586   -1.0483 H   0  0  0  0  0  0  0  0  0  0  0  0
    0.4251   -1.9509   -0.8184 H   0  0  0  0  0  0  0  0  0  0  0  0
   -0.3675   -0.6830   -2.3272 C   0  0  0  0  0  0  0  0  0  0  0  0
   -1.7303   -0.5592   -2.5162 N   0  3  0  0  0  0  0  0  0  0  0  0
   -2.4065   -0.5242   -1.7479 H   0  0  0  0  0  0  0  0  0  0  0  0
   -1.9647   -0.4017   -3.8341 C   0  0  0  0  0  0  0  0  0  0  0  0
   -2.9447   -0.2663   -4.2874 H   0  0  0  0  0  0  0  0  0  0  0  0
   -0.7801   -0.4239   -4.4857 N   0  0  0  0  0  0  0  0  0  0  0  0
   -0.6487   -0.3250   -5.4889 H   0  0  0  0  0  0  0  0  0  0  0  0
    0.2336   -0.6000   -3.5541 C   0  0  0  0  0  0  0  0  0  0  0  0
    1.3005   -0.6607   -3.7501 H   0  0  0  0  0  0  0  0  0  0  0  0
   -0.4874    1.2908    0.1962 C   0  0  0  0  0  0  0  0  0  0  0  0
   -1.3116    1.8673   -0.5151 O   0  0  0  0  0  0  0  0  0  0  0  0
    0.3889    1.9422    0.9708 N   0  0  0  0  0  0  0  0  0  0  0  0
    1.0197    1.3866    1.5283 H   0  0  0  0  0  0  0  0  0  0  0  0
    0.5081    3.3999    1.0720 C   0  0  0  0  0  0  0  0  0  0  0  0
    0.0188    3.7538    1.9817 H   0  0  0  0  0  0  0  0  0  0  0  0
    1.5607    3.6858    1.1098 H   0  0  0  0  0  0  0  0  0  0  0  0
    0.0459    3.8890    0.2119 H   0  0  0  0  0  0  0  0  0  0  0  0
  5  6  2  0  0  0  0
  5  7  1  0  0  0  0
  2  3  1  0  0  0  0
  2  4  1  0  0  0  0
  2  5  1  0  0  0  0
  1  2  1  0  0  0  0
 23 24  2  0  0  0  0
 23 25  1  0  0  0  0
 21 22  1  0  0  0  0
 19 20  1  0  0  0  0
 19 21  1  0  0  0  0
 17 18  1  0  0  0  0
 17 19  1  0  0  0  0
 15 16  1  0  0  0  0
 15 17  2  0  0  0  0
 14 15  1  0  0  0  0
 14 21  2  0  0  0  0
 11 12  1  0  0  0  0
 11 13  1  0  0  0  0
 11 14  1  0  0  0  0
  9 10  1  0  0  0  0
  9 11  1  0  0  0  0
  9 23  1  0  0  0  0
  7  8  1  0  0  0  0
  7  9  1  0  0  0  0
 27 28  1  0  0  0  0
 27 29  1  0  0  0  0
 27 30  1  0  0  0  0
 25 26  1  0  0  0  0
 25 27  1  0  0  0  0
M  CHG  1  15   1
M  END
$$$$
default_name
  -OEChem-02102213163D

 30 30  0     1  0  0  0  0  0999 V2000
   -3.5507   -3.2183    1.8116 H   0  0  0  0  0  0  0  0  0  0  0  0
   -3.4597   -2.3913    1.1076 C   0  0  0  0  0  0  0  0  0  0  0  0
   -4.1577   -1.6043    1.3866 H   0  0  0  0  0  0  0  0  0  0  0  0
   -3.6807   -2.7523    0.1036 H   0  0  0  0  0  0  0  0  0  0  0  0
   -2.0477   -1.8543    1.1546 C   0  0  0  0  0  0  0  0  0  0  0  0
   -1.2227   -2.3443    1.9146 O   0  0  0  0  0  0  0  0  0  0  0  0
   -1.7517   -0.8483    0.3266 N   0  0  0  0  0  0  0  0  0  0  0  0
   -2.4847   -0.5123   -0.2804 H   0  0  0  0  0  0  0  0  0  0  0  0
   -0.4117   -0.2463    0.2186 C   0  0  1  0  0  0  0  0  0  0  0  0
    0.1554   -0.5152    1.1133 H   0  0  0  0  0  0  0  0  0  0  0  0
    0.3164   -0.8780   -0.9905 C   0  0  0  0  0  0  0  0  0  0  0  0
    1.3240   -0.4586   -1.0483 H   0  0  0  0  0  0  0  0  0  0  0  0
    0.4251   -1.9509   -0.8184 H   0  0  0  0  0  0  0  0  0  0  0  0
   -0.3675   -0.6830   -2.3272 C   0  0  0  0  0  0  0  0  0  0  0  0
   -1.6742   -0.2707   -2.5028 N   0  3  0  0  0  0  0  0  0  0  0  0
   -2.2880    0.0059   -1.7311 H   0  0  0  0  0  0  0  0  0  0  0  0
   -1.9284   -0.2133   -3.8252 C   0  0  0  0  0  0  0  0  0  0  0  0
   -2.8723    0.0922   -4.2721 H   0  0  0  0  0  0  0  0  0  0  0  0
   -0.8115   -0.5815   -4.4926 N   0  0  0  0  0  0  0  0  0  0  0  0
   -0.7083   -0.6295   -5.5029 H   0  0  0  0  0  0  0  0  0  0  0  0
    0.1785   -0.8800   -3.5667 C   0  0  0  0  0  0  0  0  0  0  0  0
    1.1936   -1.2067   -3.7750 H   0  0  0  0  0  0  0  0  0  0  0  0
   -0.4874    1.2908    0.1962 C   0  0  0  0  0  0  0  0  0  0  0  0
   -1.3116    1.8673   -0.5151 O   0  0  0  0  0  0  0  0  0  0  0  0
    0.3889    1.9422    0.9708 N   0  0  0  0  0  0  0  0  0  0  0  0
    1.0197    1.3866    1.5283 H   0  0  0  0  0  0  0  0  0  0  0  0
    0.5081    3.3999    1.0720 C   0  0  0  0  0  0  0  0  0  0  0  0
    0.0188    3.7538    1.9817 H   0  0  0  0  0  0  0  0  0  0  0  0
    1.5607    3.6858    1.1098 H   0  0  0  0  0  0  0  0  0  0  0  0
    0.0459    3.8890    0.2119 H   0  0  0  0  0  0  0  0  0  0  0  0
  5  6  2  0  0  0  0
  5  7  1  0  0  0  0
  2  3  1  0  0  0  0
  2  4  1  0  0  0  0
  2  5  1  0  0  0  0
  1  2  1  0  0  0  0
 23 24  2  0  0  0  0
 23 25  1  0  0  0  0
 21 22  1  0  0  0  0
 19 20  1  0  0  0  0
 19 21  1  0  0  0  0
 17 18  1  0  0  0  0
 17 19  1  0  0  0  0
 15 16  1  0  0  0  0
 15 17  2  0  0  0  0
 14 15  1  0  0  0  0
 14 21  2  0  0  0  0
 11 12  1  0  0  0  0
 11 13  1  0  0  0  0
 11 14  1  0  0  0  0
  9 10  1  0  0  0  0
  9 11  1  0  0  0  0
  9 23  1  0  0  0  0
  7  8  1  0  0  0  0
  7  9  1  0  0  0  0
 27 28  1  0  0  0  0
 27 29  1  0  0  0  0
 27 30  1  0  0  0  0
 25 26  1  0  0  0  0
 25 27  1  0  0  0  0
M  CHG  1  15   1
M  END
$$$$
default_name
  -OEChem-02102213163D

 30 30  0     1  0  0  0  0  0999 V2000
   -3.5507   -3.2183    1.8116 H   0  0  0  0  0  0  0  0  0  0  0  0
   -3.4597   -2.3913    1.1076 C   0  0  0  0  0  0  0  0  0  0  0  0
   -4.1577   -1.6043    1.3866 H   0  0  0  0  0  0  0  0  0  0  0  0
   -3.6807   -2.7523    0.1036 H   0  0  0  0  0  0  0  0  0  0  0  0
   -2.0477   -1.8543    1.1546 C   0  0  0  0  0  0  0  0  0  0  0  0
   -1.2227   -2.3443    1.9146 O   0  0  0  0  0  0  0  0  0  0  0  0
   -1.7517   -0.8483    0.3266 N   0  0  0  0  0  0  0  0  0  0  0  0
   -2.4847   -0.5123   -0.2804 H   0  0  0  0  0  0  0  0  0  0  0  0
   -0.4117   -0.2463    0.2186 C   0  0  1  0  0  0  0  0  0  0  0  0
    0.1554   -0.5152    1.1133 H   0  0  0  0  0  0  0  0  0  0  0  0
    0.3164   -0.8780   -0.9905 C   0  0  0  0  0  0  0  0  0  0  0  0
    1.3240   -0.4586   -1.0483 H   0  0  0  0  0  0  0  0  0  0  0  0
    0.4251   -1.9509   -0.8184 H   0  0  0  0  0  0  0  0  0  0  0  0
   -0.3675   -0.6830   -2.3272 C   0  0  0  0  0  0  0  0  0  0  0  0
   -1.5536   -0.0032   -2.5255 N   0  3  0  0  0  0  0  0  0  0  0  0
   -2.0520    0.4928   -1.7809 H   0  0  0  0  0  0  0  0  0  0  0  0
   -1.8500   -0.0386   -3.8399 C   0  0  0  0  0  0  0  0  0  0  0  0
   -2.7201    0.4237   -4.3016 H   0  0  0  0  0  0  0  0  0  0  0  0
   -0.8781   -0.7273   -4.4798 N   0  0  0  0  0  0  0  0  0  0  0  0
   -0.8360   -0.9117   -5.4787 H   0  0  0  0  0  0  0  0  0  0  0  0
    0.0609   -1.1393   -3.5444 C   0  0  0  0  0  0  0  0  0  0  0  0
    0.9647   -1.7126   -3.7317 H   0  0  0  0  0  0  0  0  0  0  0  0
   -0.4874    1.2908    0.1962 C   0  0  0  0  0  0  0  0  0  0  0  0
   -1.3116    1.8673   -0.5151 O   0  0  0  0  0  0  0  0  0  0  0  0
    0.3889    1.9422    0.9708 N   0  0  0  0  0  0  0  0  0  0  0  0
    1.0197    1.3866    1.5283 H   0  0  0  0  0  0  0  0  0  0  0  0
    0.5081    3.3999    1.0720 C   0  0  0  0  0  0  0  0  0  0  0  0
    0.0188    3.7538    1.9817 H   0  0  0  0  0  0  0  0  0  0  0  0
    1.5607    3.6858    1.1098 H   0  0  0  0  0  0  0  0  0  0  0  0
    0.0459    3.8890    0.2119 H   0  0  0  0  0  0  0  0  0  0  0  0
  5  6  2  0  0  0  0
  5  7  1  0  0  0  0
  2  3  1  0  0  0  0
  2  4  1  0  0  0  0
  2  5  1  0  0  0  0
  1  2  1  0  0  0  0
 23 24  2  0  0  0  0
 23 25  1  0  0  0  0
 21 22  1  0  0  0  0
 19 20  1  0  0  0  0
 19 21  1  0  0  0  0
 17 18  1  0  0  0  0
 17 19  1  0  0  0  0
 15 16  1  0  0  0  0
 15 17  2  0  0  0  0
 14 15  1  0  0  0  0
 14 21  2  0  0  0  0
 11 12  1  0  0  0  0
 11 13  1  0  0  0  0
 11 14  1  0  0  0  0
  9 10  1  0  0  0  0
  9 11  1  0  0  0  0
  9 23  1  0  0  0  0
  7  8  1  0  0  0  0
  7  9  1  0  0  0  0
 27 28  1  0  0  0  0
 27 29  1  0  0  0  0
 27 30  1  0  0  0  0
 25 26  1  0  0  0  0
 25 27  1  0  0  0  0
M  CHG  1  15   1
M  END
$$$$
default_name
  -OEChem-02102213163D

 30 30  0     1  0  0  0  0  0999 V2000
   -3.5507   -3.2183    1.8116 H   0  0  0  0  0  0  0  0  0  0  0  0
   -3.4597   -2.3913    1.1076 C   0  0  0  0  0  0  0  0  0  0  0  0
   -4.1577   -1.6043    1.3866 H   0  0  0  0  0  0  0  0  0  0  0  0
   -3.6807   -2.7523    0.1036 H   0  0  0  0  0  0  0  0  0  0  0  0
   -2.0477   -1.8543    1.1546 C   0  0  0  0  0  0  0  0  0  0  0  0
   -1.2227   -2.3443    1.9146 O   0  0  0  0  0  0  0  0  0  0  0  0
   -1.7517   -0.8483    0.3266 N   0  0  0  0  0  0  0  0  0  0  0  0
   -2.4847   -0.5123   -0.2804 H   0  0  0  0  0  0  0  0  0  0  0  0
   -0.4117   -0.2463    0.2186 C   0  0  1  0  0  0  0  0  0  0  0  0
    0.1554   -0.5152    1.1133 H   0  0  0  0  0  0  0  0  0  0  0  0
    0.3164   -0.8780   -0.9905 C   0  0  0  0  0  0  0  0  0  0  0  0
    1.3240   -0.4586   -1.0483 H   0  0  0  0  0  0  0  0  0  0  0  0
    0.4251   -1.9509   -0.8184 H   0  0  0  0  0  0  0  0  0  0  0  0
   -0.3675   -0.6830   -2.3272 C   0  0  0  0  0  0  0  0  0  0  0  0
   -1.3768    0.2250   -2.5827 N   0  3  0  0  0  0  0  0  0  0  0  0
   -1.7143    0.9034   -1.8937 H   0  0  0  0  0  0  0  0  0  0  0  0
   -1.7348    0.1105   -3.8770 C   0  0  0  0  0  0  0  0  0  0  0  0
   -2.4982    0.7056   -4.3740 H   0  0  0  0  0  0  0  0  0  0  0  0
   -0.9753   -0.8515   -4.4482 N   0  0  0  0  0  0  0  0  0  0  0  0
   -1.0230   -1.1523   -5.4181 H   0  0  0  0  0  0  0  0  0  0  0  0
   -0.1112   -1.3604   -3.4886 C   0  0  0  0  0  0  0  0  0  0  0  0
    0.6294   -2.1439   -3.6231 H   0  0  0  0  0  0  0  0  0  0  0  0
   -0.4874    1.2908    0.1962 C   0  0  0  0  0  0  0  0  0  0  0  0
   -1.3116    1.8673   -0.5151 O   0  0  0  0  0  0  0  0  0  0  0  0
    0.3889    1.9422    0.9708 N   0  0  0  0  0  0  0  0  0  0  0  0
    1.0197    1.3866    1.5283 H   0  0  0  0  0  0  0  0  0  0  0  0
    0.5081    3.3999    1.0720 C   0  0  0  0  0  0  0  0  0  0  0  0
    0.0188    3.7538    1.9817 H   0  0  0  0  0  0  0  0  0  0  0  0
    1.5607    3.6858    1.1098 H   0  0  0  0  0  0  0  0  0  0  0  0
    0.0459    3.8890    0.2119 H   0  0  0  0  0  0  0  0  0  0  0  0
  5  6  2  0  0  0  0
  5  7  1  0  0  0  0
  2  3  1  0  0  0  0
  2  4  1  0  0  0  0
  2  5  1  0  0  0  0
  1  2  1  0  0  0  0
 23 24  2  0  0  0  0
 23 25  1  0  0  0  0
 21 22  1  0  0  0  0
 19 20  1  0  0  0  0
 19 21  1  0  0  0  0
 17 18  1  0  0  0  0
 17 19  1  0  0  0  0
 15 16  1  0  0  0  0
 15 17  2  0  0  0  0
 14 15  1  0  0  0  0
 14 21  2  0  0  0  0
 11 12  1  0  0  0  0
 11 13  1  0  0  0  0
 11 14  1  0  0  0  0
  9 10  1  0  0  0  0
  9 11  1  0  0  0  0
  9 23  1  0  0  0  0
  7  8  1  0  0  0  0
  7  9  1  0  0  0  0
 27 28  1  0  0  0  0
 27 29  1  0  0  0  0
 27 30  1  0  0  0  0
 25 26  1  0  0  0  0
 25 27  1  0  0  0  0
M  CHG  1  15   1
M  END
$$$$
default_name
  -OEChem-02102213163D

 30 30  0     1  0  0  0  0  0999 V2000
   -3.5507   -3.2183    1.8116 H   0  0  0  0  0  0  0  0  0  0  0  0
   -3.4597   -2.3913    1.1076 C   0  0  0  0  0  0  0  0  0  0  0  0
   -4.1577   -1.6043    1.3866 H   0  0  0  0  0  0  0  0  0  0  0  0
   -3.6807   -2.7523    0.1036 H   0  0  0  0  0  0  0  0  0  0  0  0
   -2.0477   -1.8543    1.1546 C   0  0  0  0  0  0  0  0  0  0  0  0
   -1.2227   -2.3443    1.9146 O   0  0  0  0  0  0  0  0  0  0  0  0
   -1.7517   -0.8483    0.3266 N   0  0  0  0  0  0  0  0  0  0  0  0
   -2.4847   -0.5123   -0.2804 H   0  0  0  0  0  0  0  0  0  0  0  0
   -0.4117   -0.2463    0.2186 C   0  0  1  0  0  0  0  0  0  0  0  0
    0.1554   -0.5152    1.1133 H   0  0  0  0  0  0  0  0  0  0  0  0
    0.3164   -0.8780   -0.9905 C   0  0  0  0  0  0  0  0  0  0  0  0
    1.3240   -0.4586   -1.0483 H   0  0  0  0  0  0  0  0  0  0  0  0
    0.4251   -1.9509   -0.8184 H   0  0  0  0  0  0  0  0  0  0  0  0
   -0.3675   -0.6830   -2.3272 C   0  0  0  0  0  0  0  0  0  0  0  0
   -1.1557    0.3983   -2.6705 N   0  3  0  0  0  0  0  0  0  0  0  0
   -1.2981    1.2096   -2.0620 H   0  0  0  0  0  0  0  0  0  0  0  0
   -1.5907    0.2238   -3.9342 C   0  0  0  0  0  0  0  0  0  0  0  0
   -2.2220    0.9189   -4.4842 H   0  0  0  0  0  0  0  0  0  0  0  0
   -1.0965   -0.9455   -4.3999 N   0  0  0  0  0  0  0  0  0  0  0  0
   -1.2565   -1.3348   -5.3253 H   0  0  0  0  0  0  0  0  0  0  0  0
   -0.3261   -1.5280   -3.4031 C   0  0  0  0  0  0  0  0  0  0  0  0
    0.2106   -2.4712   -3.4566 H   0  0  0  0  0  0  0  0  0  0  0  0
   -0.4874    1.2908    0.1962 C   0  0  0  0  0  0  0  0  0  0  0  0
   -1.3116    1.8673   -0.5151 O   0  0  0  0  0  0  0  0  0  0  0  0
    0.3889    1.9422    0.9708 N   0  0  0  0  0  0  0  0  0  0  0  0
    1.0197    1.3866    1.5283 H   0  0  0  0  0  0  0  0  0  0  0  0
    0.5081    3.3999    1.0720 C   0  0  0  0  0  0  0  0  0  0  0  0
    0.0188    3.7538    1.9817 H   0  0  0  0  0  0  0  0  0  0  0  0
    1.5607    3.6858    1.1098 H   0  0  0  0  0  0  0  0  0  0  0  0
    0.0459    3.8890    0.2119 H   0  0  0  0  0  0  0  0  0  0  0  0
  5  6  2  0  0  0  0
  5  7  1  0  0  0  0
  2  3  1  0  0  0  0
  2  4  1  0  0  0  0
  2  5  1  0  0  0  0
  1  2  1  0  0  0  0
 23 24  2  0  0  0  0
 23 25  1  0  0  0  0
 21 22  1  0  0  0  0
 19 20  1  0  0  0  0
 19 21  1  0  0  0  0
 17 18  1  0  0  0  0
 17 19  1  0  0  0  0
 15 16  1  0  0  0  0
 15 17  2  0  0  0  0
 14 15  1  0  0  0  0
 14 21  2  0  0  0  0
 11 12  1  0  0  0  0
 11 13  1  0  0  0  0
 11 14  1  0  0  0  0
  9 10  1  0  0  0  0
  9 11  1  0  0  0  0
  9 23  1  0  0  0  0
  7  8  1  0  0  0  0
  7  9  1  0  0  0  0
 27 28  1  0  0  0  0
 27 29  1  0  0  0  0
 27 30  1  0  0  0  0
 25 26  1  0  0  0  0
 25 27  1  0  0  0  0
M  CHG  1  15   1
M  END
$$$$
default_name
  -OEChem-02102213163D

 30 30  0     1  0  0  0  0  0999 V2000
   -3.5507   -3.2183    1.8116 H   0  0  0  0  0  0  0  0  0  0  0  0
   -3.4597   -2.3913    1.1076 C   0  0  0  0  0  0  0  0  0  0  0  0
   -4.1577   -1.6043    1.3866 H   0  0  0  0  0  0  0  0  0  0  0  0
   -3.6807   -2.7523    0.1036 H   0  0  0  0  0  0  0  0  0  0  0  0
   -2.0477   -1.8543    1.1546 C   0  0  0  0  0  0  0  0  0  0  0  0
   -1.2227   -2.3443    1.9146 O   0  0  0  0  0  0  0  0  0  0  0  0
   -1.7517   -0.8483    0.3266 N   0  0  0  0  0  0  0  0  0  0  0  0
   -2.4847   -0.5123   -0.2804 H   0  0  0  0  0  0  0  0  0  0  0  0
   -0.4117   -0.2463    0.2186 C   0  0  1  0  0  0  0  0  0  0  0  0
    0.1554   -0.5152    1.1133 H   0  0  0  0  0  0  0  0  0  0  0  0
    0.3164   -0.8780   -0.9905 C   0  0  0  0  0  0  0  0  0  0  0  0
    1.3240   -0.4586   -1.0483 H   0  0  0  0  0  0  0  0  0  0  0  0
    0.4251   -1.9509   -0.8184 H   0  0  0  0  0  0  0  0  0  0  0  0
   -0.3675   -0.6830   -2.3272 C   0  0  0  0  0  0  0  0  0  0  0  0
   -0.9055    0.5050   -2.7830 N   0  3  0  0  0  0  0  0  0  0  0  0
   -0.8317    1.3906   -2.2742 H   0  0  0  0  0  0  0  0  0  0  0  0
   -1.4275    0.2937   -4.0075 C   0  0  0  0  0  0  0  0  0  0  0  0
   -1.9100    1.0488   -4.6248 H   0  0  0  0  0  0  0  0  0  0  0  0
   -1.2334   -1.0030   -4.3383 N   0  0  0  0  0  0  0  0  0  0  0  0
   -1.5208   -1.4470   -5.2065 H   0  0  0  0  0  0  0  0  0  0  0  0
   -0.5691   -1.6309   -3.2938 C   0  0  0  0  0  0  0  0  0  0  0  0
   -0.2631   -2.6722   -3.2436 H   0  0  0  0  0  0  0  0  0  0  0  0
   -0.4874    1.2908    0.1962 C   0  0  0  0  0  0  0  0  0  0  0  0
   -1.3116    1.8673   -0.5151 O   0  0  0  0  0  0  0  0  0  0  0  0
    0.3889    1.9422    0.9708 N   0  0  0  0  0  0  0  0  0  0  0  0
    1.0197    1.3866    1.5283 H   0  0  0  0  0  0  0  0  0  0  0  0
    0.5081    3.3999    1.0720 C   0  0  0  0  0  0  0  0  0  0  0  0
    0.0188    3.7538    1.9817 H   0  0  0  0  0  0  0  0  0  0  0  0
    1.5607    3.6858    1.1098 H   0  0  0  0  0  0  0  0  0  0  0  0
    0.0459    3.8890    0.2119 H   0  0  0  0  0  0  0  0  0  0  0  0
  5  6  2  0  0  0  0
  5  7  1  0  0  0  0
  2  3  1  0  0  0  0
  2  4  1  0  0  0  0
  2  5  1  0  0  0  0
  1  2  1  0  0  0  0
 23 24  2  0  0  0  0
 23 25  1  0  0  0  0
 21 22  1  0  0  0  0
 19 20  1  0  0  0  0
 19 21  1  0  0  0  0
 17 18  1  0  0  0  0
 17 19  1  0  0  0  0
 15 16  1  0  0  0  0
 15 17  2  0  0  0  0
 14 15  1  0  0  0  0
 14 21  2  0  0  0  0
 11 12  1  0  0  0  0
 11 13  1  0  0  0  0
 11 14  1  0  0  0  0
  9 10  1  0  0  0  0
  9 11  1  0  0  0  0
  9 23  1  0  0  0  0
  7  8  1  0  0  0  0
  7  9  1  0  0  0  0
 27 28  1  0  0  0  0
 27 29  1  0  0  0  0
 27 30  1  0  0  0  0
 25 26  1  0  0  0  0
 25 27  1  0  0  0  0
M  CHG  1  15   1
M  END
$$$$
default_name
  -OEChem-02102213163D

 30 30  0     1  0  0  0  0  0999 V2000
   -3.5507   -3.2183    1.8116 H   0  0  0  0  0  0  0  0  0  0  0  0
   -3.4597   -2.3913    1.1076 C   0  0  0  0  0  0  0  0  0  0  0  0
   -4.1577   -1.6043    1.3866 H   0  0  0  0  0  0  0  0  0  0  0  0
   -3.6807   -2.7523    0.1036 H   0  0  0  0  0  0  0  0  0  0  0  0
   -2.0477   -1.8543    1.1546 C   0  0  0  0  0  0  0  0  0  0  0  0
   -1.2227   -2.3443    1.9146 O   0  0  0  0  0  0  0  0  0  0  0  0
   -1.7517   -0.8483    0.3266 N   0  0  0  0  0  0  0  0  0  0  0  0
   -2.4847   -0.5123   -0.2804 H   0  0  0  0  0  0  0  0  0  0  0  0
   -0.4117   -0.2463    0.2186 C   0  0  1  0  0  0  0  0  0  0  0  0
    0.1554   -0.5152    1.1133 H   0  0  0  0  0  0  0  0  0  0  0  0
    0.3164   -0.8780   -0.9905 C   0  0  0  0  0  0  0  0  0  0  0  0
    1.3240   -0.4586   -1.0483 H   0  0  0  0  0  0  0  0  0  0  0  0
    0.4251   -1.9509   -0.8184 H   0  0  0  0  0  0  0  0  0  0  0  0
   -0.3675   -0.6830   -2.3272 C   0  0  0  0  0  0  0  0  0  0  0  0
   -0.6432    0.5376   -2.9124 N   0  3  0  0  0  0  0  0  0  0  0  0
   -0.3470    1.4341   -2.5159 H   0  0  0  0  0  0  0  0  0  0  0  0
   -1.2564    0.3154   -4.0919 C   0  0  0  0  0  0  0  0  0  0  0  0
   -1.5838    1.0866   -4.7863 H   0  0  0  0  0  0  0  0  0  0  0  0
   -1.3768   -1.0200   -4.2674 N   0  0  0  0  0  0  0  0  0  0  0  0
   -1.7976   -1.4810   -5.0698 H   0  0  0  0  0  0  0  0  0  0  0  0
   -0.8237   -1.6619   -3.1681 C   0  0  0  0  0  0  0  0  0  0  0  0
   -0.7595   -2.7332   -2.9985 H   0  0  0  0  0  0  0  0  0  0  0  0
   -0.4874    1.2908    0.1962 C   0  0  0  0  0  0  0  0  0  0  0  0
   -1.3116    1.8673   -0.5151 O   0  0  0  0  0  0  0  0  0  0  0  0
    0.3889    1.9422    0.9708 N   0  0  0  0  0  0  0  0  0  0  0  0
    1.0197    1.3866    1.5283 H   0  0  0  0  0  0  0  0  0  0  0  0
    0.5081    3.3999    1.0720 C   0  0  0  0  0  0  0  0  0  0  0  0
    0.0188    3.7538    1.9817 H   0  0  0  0  0  0  0  0  0  0  0  0
    1.5607    3.6858    1.1098 H   0  0  0  0  0  0  0  0  0  0  0  0
    0.0459    3.8890    0.2119 H   0  0  0  0  0  0  0  0  0  0  0  0
  5  6  2  0  0  0  0
  5  7  1  0  0  0  0
  2  3  1  0  0  0  0
  2  4  1  0  0  0  0
  2  5  1  0  0  0  0
  1  2  1  0  0  0  0
 23 24  2  0  0  0  0
 23 25  1  0  0  0  0
 21 22  1  0  0  0  0
 19 20  1  0  0  0  0
 19 21  1  0  0  0  0
 17 18  1  0  0  0  0
 17 19  1  0  0  0  0
 15 16  1  0  0  0  0
 15 17  2  0  0  0  0
 14 15  1  0  0  0  0
 14 21  2  0  0  0  0
 11 12  1  0  0  0  0
 11 13  1  0  0  0  0
 11 14  1  0  0  0  0
  9 10  1  0  0  0  0
  9 11  1  0  0  0  0
  9 23  1  0  0  0  0
  7  8  1  0  0  0  0
  7  9  1  0  0  0  0
 27 28  1  0  0  0  0
 27 29  1  0  0  0  0
 27 30  1  0  0  0  0
 25 26  1  0  0  0  0
 25 27  1  0  0  0  0
M  CHG  1  15   1
M  END
$$$$
default_name
  -OEChem-02102213163D

 30 30  0     1  0  0  0  0  0999 V2000
   -3.5507   -3.2183    1.8116 H   0  0  0  0  0  0  0  0  0  0  0  0
   -3.4597   -2.3913    1.1076 C   0  0  0  0  0  0  0  0  0  0  0  0
   -4.1577   -1.6043    1.3866 H   0  0  0  0  0  0  0  0  0  0  0  0
   -3.6807   -2.7523    0.1036 H   0  0  0  0  0  0  0  0  0  0  0  0
   -2.0477   -1.8543    1.1546 C   0  0  0  0  0  0  0  0  0  0  0  0
   -1.2227   -2.3443    1.9146 O   0  0  0  0  0  0  0  0  0  0  0  0
   -1.7517   -0.8483    0.3266 N   0  0  0  0  0  0  0  0  0  0  0  0
   -2.4847   -0.5123   -0.2804 H   0  0  0  0  0  0  0  0  0  0  0  0
   -0.4117   -0.2463    0.2186 C   0  0  1  0  0  0  0  0  0  0  0  0
    0.1554   -0.5152    1.1133 H   0  0  0  0  0  0  0  0  0  0  0  0
    0.3164   -0.8780   -0.9905 C   0  0  0  0  0  0  0  0  0  0  0  0
    1.3240   -0.4586   -1.0483 H   0  0  0  0  0  0  0  0  0  0  0  0
    0.4251   -1.9509   -0.8184 H   0  0  0  0  0  0  0  0  0  0  0  0
   -0.3675   -0.6830   -2.3272 C   0  0  0  0  0  0  0  0  0  0  0  0
   -0.3867    0.4941   -3.0500 N   0  3  0  0  0  0  0  0  0  0  0  0
    0.1232    1.3371   -2.7706 H   0  0  0  0  0  0  0  0  0  0  0  0
   -1.0890    0.2873   -4.1817 C   0  0  0  0  0  0  0  0  0  0  0  0
   -1.2653    1.0296   -4.9575 H   0  0  0  0  0  0  0  0  0  0  0  0
   -1.5168   -0.9954   -4.1922 N   0  0  0  0  0  0  0  0  0  0  0  0
   -2.0683   -1.4347   -4.9245 H   0  0  0  0  0  0  0  0  0  0  0  0
   -1.0725   -1.6190   -3.0345 C   0  0  0  0  0  0  0  0  0  0  0  0
   -1.2448   -2.6500   -2.7381 H   0  0  0  0  0  0  0  0  0  0  0  0
   -0.4874    1.2908    0.1962 C   0  0  0  0  0  0  0  0  0  0  0  0
   -1.3116    1.8673   -0.5151 O   0  0  0  0  0  0  0  0  0  0  0  0
    0.3889    1.9422    0.9708 N   0  0  0  0  0  0  0  0  0  0  0  0
    1.0197    1.3866    1.5283 H   0  0  0  0  0  0  0  0  0  0  0  0
    0.5081    3.3999    1.0720 C   0  0  0  0  0  0  0  0  0  0  0  0
    0.0188    3.7538    1.9817 H   0  0  0  0  0  0  0  0  0  0  0  0
    1.5607    3.6858    1.1098 H   0  0  0  0  0  0  0  0  0  0  0  0
    0.0459    3.8890    0.2119 H   0  0  0  0  0  0  0  0  0  0  0  0
  5  6  2  0  0  0  0
  5  7  1  0  0  0  0
  2  3  1  0  0  0  0
  2  4  1  0  0  0  0
  2  5  1  0  0  0  0
  1  2  1  0  0  0  0
 23 24  2  0  0  0  0
 23 25  1  0  0  0  0
 21 22  1  0  0  0  0
 19 20  1  0  0  0  0
 19 21  1  0  0  0  0
 17 18  1  0  0  0  0
 17 19  1  0  0  0  0
 15 16  1  0  0  0  0
 15 17  2  0  0  0  0
 14 15  1  0  0  0  0
 14 21  2  0  0  0  0
 11 12  1  0  0  0  0
 11 13  1  0  0  0  0
 11 14  1  0  0  0  0
  9 10  1  0  0  0  0
  9 11  1  0  0  0  0
  9 23  1  0  0  0  0
  7  8  1  0  0  0  0
  7  9  1  0  0  0  0
 27 28  1  0  0  0  0
 27 29  1  0  0  0  0
 27 30  1  0  0  0  0
 25 26  1  0  0  0  0
 25 27  1  0  0  0  0
M  CHG  1  15   1
M  END
$$$$
default_name
  -OEChem-02102213163D

 30 30  0     1  0  0  0  0  0999 V2000
   -3.5507   -3.2183    1.8116 H   0  0  0  0  0  0  0  0  0  0  0  0
   -3.4597   -2.3913    1.1076 C   0  0  0  0  0  0  0  0  0  0  0  0
   -4.1577   -1.6043    1.3866 H   0  0  0  0  0  0  0  0  0  0  0  0
   -3.6807   -2.7523    0.1036 H   0  0  0  0  0  0  0  0  0  0  0  0
   -2.0477   -1.8543    1.1546 C   0  0  0  0  0  0  0  0  0  0  0  0
   -1.2227   -2.3443    1.9146 O   0  0  0  0  0  0  0  0  0  0  0  0
   -1.7517   -0.8483    0.3266 N   0  0  0  0  0  0  0  0  0  0  0  0
   -2.4847   -0.5123   -0.2804 H   0  0  0  0  0  0  0  0  0  0  0  0
   -0.4117   -0.2463    0.2186 C   0  0  1  0  0  0  0  0  0  0  0  0
    0.1554   -0.5152    1.1133 H   0  0  0  0  0  0  0  0  0  0  0  0
    0.3164   -0.8780   -0.9905 C   0  0  0  0  0  0  0  0  0  0  0  0
    1.3240   -0.4586   -1.0483 H   0  0  0  0  0  0  0  0  0  0  0  0
    0.4251   -1.9509   -0.8184 H   0  0  0  0  0  0  0  0  0  0  0  0
   -0.3675   -0.6830   -2.3272 C   0  0  0  0  0  0  0  0  0  0  0  0
   -0.1535    0.3774   -3.1863 N   0  3  0  0  0  0  0  0  0  0  0  0
    0.5467    1.1062   -3.0209 H   0  0  0  0  0  0  0  0  0  0  0  0
   -0.9366    0.2115   -4.2707 C   0  0  0  0  0  0  0  0  0  0  0  0
   -0.9765    0.8819   -5.1268 H   0  0  0  0  0  0  0  0  0  0  0  0
   -1.6439   -0.9308   -4.1177 N   0  0  0  0  0  0  0  0  0  0  0  0
   -2.3143   -1.3111   -4.7806 H   0  0  0  0  0  0  0  0  0  0  0  0
   -1.2986   -1.5051   -2.9022 C   0  0  0  0  0  0  0  0  0  0  0  0
   -1.6858   -2.4283   -2.4801 H   0  0  0  0  0  0  0  0  0  0  0  0
   -0.4874    1.2908    0.1962 C   0  0  0  0  0  0  0  0  0  0  0  0
   -1.3116    1.8673   -0.5151 O   0  0  0  0  0  0  0  0  0  0  0  0
    0.3889    1.9422    0.9708 N   0  0  0  0  0  0  0  0  0  0  0  0
    1.0197    1.3866    1.5283 H   0  0  0  0  0  0  0  0  0  0  0  0
    0.5081    3.3999    1.0720 C   0  0  0  0  0  0  0  0  0  0  0  0
    0.0188    3.7538    1.9817 H   0  0  0  0  0  0  0  0  0  0  0  0
    1.5607    3.6858    1.1098 H   0  0  0  0  0  0  0  0  0  0  0  0
    0.0459    3.8890    0.2119 H   0  0  0  0  0  0  0  0  0  0  0  0
  5  6  2  0  0  0  0
  5  7  1  0  0  0  0
  2  3  1  0  0  0  0
  2  4  1  0  0  0  0
  2  5  1  0  0  0  0
  1  2  1  0  0  0  0
 23 24  2  0  0  0  0
 23 25  1  0  0  0  0
 21 22  1  0  0  0  0
 19 20  1  0  0  0  0
 19 21  1  0  0  0  0
 17 18  1  0  0  0  0
 17 19  1  0  0  0  0
 15 16  1  0  0  0  0
 15 17  2  0  0  0  0
 14 15  1  0  0  0  0
 14 21  2  0  0  0  0
 11 12  1  0  0  0  0
 11 13  1  0  0  0  0
 11 14  1  0  0  0  0
  9 10  1  0  0  0  0
  9 11  1  0  0  0  0
  9 23  1  0  0  0  0
  7  8  1  0  0  0  0
  7  9  1  0  0  0  0
 27 28  1  0  0  0  0
 27 29  1  0  0  0  0
 27 30  1  0  0  0  0
 25 26  1  0  0  0  0
 25 27  1  0  0  0  0
M  CHG  1  15   1
M  END
$$$$
default_name
  -OEChem-02102213163D

 30 30  0     1  0  0  0  0  0999 V2000
   -3.5507   -3.2183    1.8116 H   0  0  0  0  0  0  0  0  0  0  0  0
   -3.4597   -2.3913    1.1076 C   0  0  0  0  0  0  0  0  0  0  0  0
   -4.1577   -1.6043    1.3866 H   0  0  0  0  0  0  0  0  0  0  0  0
   -3.6807   -2.7523    0.1036 H   0  0  0  0  0  0  0  0  0  0  0  0
   -2.0477   -1.8543    1.1546 C   0  0  0  0  0  0  0  0  0  0  0  0
   -1.2227   -2.3443    1.9146 O   0  0  0  0  0  0  0  0  0  0  0  0
   -1.7517   -0.8483    0.3266 N   0  0  0  0  0  0  0  0  0  0  0  0
   -2.4847   -0.5123   -0.2804 H   0  0  0  0  0  0  0  0  0  0  0  0
   -0.4117   -0.2463    0.2186 C   0  0  1  0  0  0  0  0  0  0  0  0
    0.1554   -0.5152    1.1133 H   0  0  0  0  0  0  0  0  0  0  0  0
    0.3164   -0.8780   -0.9905 C   0  0  0  0  0  0  0  0  0  0  0  0
    1.3240   -0.4586   -1.0483 H   0  0  0  0  0  0  0  0  0  0  0  0
    0.4251   -1.9509   -0.8184 H   0  0  0  0  0  0  0  0  0  0  0  0
   -0.3675   -0.6830   -2.3272 C   0  0  0  0  0  0  0  0  0  0  0  0
    0.0406    0.1955   -3.3122 N   0  3  0  0  0  0  0  0  0  0  0  0
    0.8946    0.7572   -3.2499 H   0  0  0  0  0  0  0  0  0  0  0  0
   -0.8098    0.0930   -4.3529 C   0  0  0  0  0  0  0  0  0  0  0  0
   -0.7369    0.6533   -5.2828 H   0  0  0  0  0  0  0  0  0  0  0  0
   -1.7494   -0.8307   -4.0491 N   0  0  0  0  0  0  0  0  0  0  0  0
   -2.5189   -1.1186   -4.6479 H   0  0  0  0  0  0  0  0  0  0  0  0
   -1.4865   -1.3280   -2.7802 C   0  0  0  0  0  0  0  0  0  0  0  0
   -2.0526   -2.0833   -2.2421 H   0  0  0  0  0  0  0  0  0  0  0  0
   -0.4874    1.2908    0.1962 C   0  0  0  0  0  0  0  0  0  0  0  0
   -1.3116    1.8673   -0.5151 O   0  0  0  0  0  0  0  0  0  0  0  0
    0.3889    1.9422    0.9708 N   0  0  0  0  0  0  0  0  0  0  0  0
    1.0197    1.3866    1.5283 H   0  0  0  0  0  0  0  0  0  0  0  0
    0.5081    3.3999    1.0720 C   0  0  0  0  0  0  0  0  0  0  0  0
    0.0188    3.7538    1.9817 H   0  0  0  0  0  0  0  0  0  0  0  0
    1.5607    3.6858    1.1098 H   0  0  0  0  0  0  0  0  0  0  0  0
    0.0459    3.8890    0.2119 H   0  0  0  0  0  0  0  0  0  0  0  0
  5  6  2  0  0  0  0
  5  7  1  0  0  0  0
  2  3  1  0  0  0  0
  2  4  1  0  0  0  0
  2  5  1  0  0  0  0
  1  2  1  0  0  0  0
 23 24  2  0  0  0  0
 23 25  1  0  0  0  0
 21 22  1  0  0  0  0
 19 20  1  0  0  0  0
 19 21  1  0  0  0  0
 17 18  1  0  0  0  0
 17 19  1  0  0  0  0
 15 16  1  0  0  0  0
 15 17  2  0  0  0  0
 14 15  1  0  0  0  0
 14 21  2  0  0  0  0
 11 12  1  0  0  0  0
 11 13  1  0  0  0  0
 11 14  1  0  0  0  0
  9 10  1  0  0  0  0
  9 11  1  0  0  0  0
  9 23  1  0  0  0  0
  7  8  1  0  0  0  0
  7  9  1  0  0  0  0
 27 28  1  0  0  0  0
 27 29  1  0  0  0  0
 27 30  1  0  0  0  0
 25 26  1  0  0  0  0
 25 27  1  0  0  0  0
M  CHG  1  15   1
M  END
$$$$
default_name
  -OEChem-02102213163D

 30 30  0     1  0  0  0  0  0999 V2000
   -3.5507   -3.2183    1.8116 H   0  0  0  0  0  0  0  0  0  0  0  0
   -3.4597   -2.3913    1.1076 C   0  0  0  0  0  0  0  0  0  0  0  0
   -4.1577   -1.6043    1.3866 H   0  0  0  0  0  0  0  0  0  0  0  0
   -3.6807   -2.7523    0.1036 H   0  0  0  0  0  0  0  0  0  0  0  0
   -2.0477   -1.8543    1.1546 C   0  0  0  0  0  0  0  0  0  0  0  0
   -1.2227   -2.3443    1.9146 O   0  0  0  0  0  0  0  0  0  0  0  0
   -1.7517   -0.8483    0.3266 N   0  0  0  0  0  0  0  0  0  0  0  0
   -2.4847   -0.5123   -0.2804 H   0  0  0  0  0  0  0  0  0  0  0  0
   -0.4117   -0.2463    0.2186 C   0  0  1  0  0  0  0  0  0  0  0  0
    0.1554   -0.5152    1.1133 H   0  0  0  0  0  0  0  0  0  0  0  0
    0.3164   -0.8780   -0.9905 C   0  0  0  0  0  0  0  0  0  0  0  0
    1.3240   -0.4586   -1.0483 H   0  0  0  0  0  0  0  0  0  0  0  0
    0.4251   -1.9509   -0.8184 H   0  0  0  0  0  0  0  0  0  0  0  0
   -0.3675   -0.6830   -2.3272 C   0  0  0  0  0  0  0  0  0  0  0  0
    0.1823   -0.0394   -3.4189 N   0  3  0  0  0  0  0  0  0  0  0  0
    1.1433    0.3138   -3.4418 H   0  0  0  0  0  0  0  0  0  0  0  0
   -0.7171   -0.0600   -4.4226 C   0  0  0  0  0  0  0  0  0  0  0  0
   -0.5629    0.3596   -5.4147 H   0  0  0  0  0  0  0  0  0  0  0  0
   -1.8262   -0.7019   -3.9911 N   0  0  0  0  0  0  0  0  0  0  0  0
   -2.6681   -0.8705   -4.5353 H   0  0  0  0  0  0  0  0  0  0  0  0
   -1.6235   -1.0996   -2.6768 C   0  0  0  0  0  0  0  0  0  0  0  0
   -2.3200   -1.6384   -2.0403 H   0  0  0  0  0  0  0  0  0  0  0  0
   -0.4874    1.2908    0.1962 C   0  0  0  0  0  0  0  0  0  0  0  0
   -1.3116    1.8673   -0.5151 O   0  0  0  0  0  0  0  0  0  0  0  0
    0.3889    1.9422    0.9708 N   0  0  0  0  0  0  0  0  0  0  0  0
    1.0197    1.3866    1.5283 H   0  0  0  0  0  0  0  0  0  0  0  0
    0.5081    3.3999    1.0720 C   0  0  0  0  0  0  0  0  0  0  0  0
    0.0188    3.7538    1.9817 H   0  0  0  0  0  0  0  0  0  0  0  0
    1.5607    3.6858    1.1098 H   0  0  0  0  0  0  0  0  0  0  0  0
    0.0459    3.8890    0.2119 H   0  0  0  0  0  0  0  0  0  0  0  0
  5  6  2  0  0  0  0
  5  7  1  0  0  0  0
  2  3  1  0  0  0  0
  2  4  1  0  0  0  0
  2  5  1  0  0  0  0
  1  2  1  0  0  0  0
 23 24  2  0  0  0  0
 23 25  1  0  0  0  0
 21 22  1  0  0  0  0
 19 20  1  0  0  0  0
 19 21  1  0  0  0  0
 17 18  1  0  0  0  0
 17 19  1  0  0  0  0
 15 16  1  0  0  0  0
 15 17  2  0  0  0  0
 14 15  1  0  0  0  0
 14 21  2  0  0  0  0
 11 12  1  0  0  0  0
 11 13  1  0  0  0  0
 11 14  1  0  0  0  0
  9 10  1  0  0  0  0
  9 11  1  0  0  0  0
  9 23  1  0  0  0  0
  7  8  1  0  0  0  0
  7  9  1  0  0  0  0
 27 28  1  0  0  0  0
 27 29  1  0  0  0  0
 27 30  1  0  0  0  0
 25 26  1  0  0  0  0
 25 27  1  0  0  0  0
M  CHG  1  15   1
M  END
$$$$
default_name
  -OEChem-02102213163D

 30 30  0     1  0  0  0  0  0999 V2000
   -3.5507   -3.2183    1.8116 H   0  0  0  0  0  0  0  0  0  0  0  0
   -3.4597   -2.3913    1.1076 C   0  0  0  0  0  0  0  0  0  0  0  0
   -4.1577   -1.6043    1.3866 H   0  0  0  0  0  0  0  0  0  0  0  0
   -3.6807   -2.7523    0.1036 H   0  0  0  0  0  0  0  0  0  0  0  0
   -2.0477   -1.8543    1.1546 C   0  0  0  0  0  0  0  0  0  0  0  0
   -1.2227   -2.3443    1.9146 O   0  0  0  0  0  0  0  0  0  0  0  0
   -1.7517   -0.8483    0.3266 N   0  0  0  0  0  0  0  0  0  0  0  0
   -2.4847   -0.5123   -0.2804 H   0  0  0  0  0  0  0  0  0  0  0  0
   -0.4117   -0.2463    0.2186 C   0  0  1  0  0  0  0  0  0  0  0  0
    0.1554   -0.5152    1.1133 H   0  0  0  0  0  0  0  0  0  0  0  0
    0.3164   -0.8780   -0.9905 C   0  0  0  0  0  0  0  0  0  0  0  0
    1.3240   -0.4586   -1.0483 H   0  0  0  0  0  0  0  0  0  0  0  0
    0.4251   -1.9509   -0.8184 H   0  0  0  0  0  0  0  0  0  0  0  0
   -0.3675   -0.6830   -2.3272 C   0  0  0  0  0  0  0  0  0  0  0  0
    0.2619   -0.3111   -3.4993 N   0  3  0  0  0  0  0  0  0  0  0  0
    1.2758   -0.1938   -3.5836 H   0  0  0  0  0  0  0  0  0  0  0  0
   -0.6648   -0.2372   -4.4752 C   0  0  0  0  0  0  0  0  0  0  0  0
   -0.4663    0.0207   -5.5135 H   0  0  0  0  0  0  0  0  0  0  0  0
   -1.8690   -0.5531   -3.9475 N   0  0  0  0  0  0  0  0  0  0  0  0
   -2.7518   -0.5836   -4.4506 H   0  0  0  0  0  0  0  0  0  0  0  0
   -1.7002   -0.8357   -2.5990 C   0  0  0  0  0  0  0  0  0  0  0  0
   -2.4700   -1.1239   -1.8885 H   0  0  0  0  0  0  0  0  0  0  0  0
   -0.4874    1.2908    0.1962 C   0  0  0  0  0  0  0  0  0  0  0  0
   -1.3116    1.8673   -0.5151 O   0  0  0  0  0  0  0  0  0  0  0  0
    0.3889    1.9422    0.9708 N   0  0  0  0  0  0  0  0  0  0  0  0
    1.0197    1.3866    1.5283 H   0  0  0  0  0  0  0  0  0  0  0  0
    0.5081    3.3999    1.0720 C   0  0  0  0  0  0  0  0  0  0  0  0
    0.0188    3.7538    1.9817 H   0  0  0  0  0  0  0  0  0  0  0  0
    1.5607    3.6858    1.1098 H   0  0  0  0  0  0  0  0  0  0  0  0
    0.0459    3.8890    0.2119 H   0  0  0  0  0  0  0  0  0  0  0  0
  5  6  2  0  0  0  0
  5  7  1  0  0  0  0
  2  3  1  0  0  0  0
  2  4  1  0  0  0  0
  2  5  1  0  0  0  0
  1  2  1  0  0  0  0
 23 24  2  0  0  0  0
 23 25  1  0  0  0  0
 21 22  1  0  0  0  0
 19 20  1  0  0  0  0
 19 21  1  0  0  0  0
 17 18  1  0  0  0  0
 17 19  1  0  0  0  0
 15 16  1  0  0  0  0
 15 17  2  0  0  0  0
 14 15  1  0  0  0  0
 14 21  2  0  0  0  0
 11 12  1  0  0  0  0
 11 13  1  0  0  0  0
 11 14  1  0  0  0  0
  9 10  1  0  0  0  0
  9 11  1  0  0  0  0
  9 23  1  0  0  0  0
  7  8  1  0  0  0  0
  7  9  1  0  0  0  0
 27 28  1  0  0  0  0
 27 29  1  0  0  0  0
 27 30  1  0  0  0  0
 25 26  1  0  0  0  0
 25 27  1  0  0  0  0
M  CHG  1  15   1
M  END
$$$$
default_name
  -OEChem-02102213163D

 30 30  0     1  0  0  0  0  0999 V2000
   -3.5507   -3.2183    1.8116 H   0  0  0  0  0  0  0  0  0  0  0  0
   -3.4597   -2.3913    1.1076 C   0  0  0  0  0  0  0  0  0  0  0  0
   -4.1577   -1.6043    1.3866 H   0  0  0  0  0  0  0  0  0  0  0  0
   -3.6807   -2.7523    0.1036 H   0  0  0  0  0  0  0  0  0  0  0  0
   -2.0477   -1.8543    1.1546 C   0  0  0  0  0  0  0  0  0  0  0  0
   -1.2227   -2.3443    1.9146 O   0  0  0  0  0  0  0  0  0  0  0  0
   -1.7517   -0.8483    0.3266 N   0  0  0  0  0  0  0  0  0  0  0  0
   -2.4847   -0.5123   -0.2804 H   0  0  0  0  0  0  0  0  0  0  0  0
   -0.4117   -0.2463    0.2186 C   0  0  1  0  0  0  0  0  0  0  0  0
    0.1554   -0.5152    1.1133 H   0  0  0  0  0  0  0  0  0  0  0  0
    0.3164   -0.8780   -0.9905 C   0  0  0  0  0  0  0  0  0  0  0  0
    1.3240   -0.4586   -1.0483 H   0  0  0  0  0  0  0  0  0  0  0  0
    0.4251   -1.9509   -0.8184 H   0  0  0  0  0  0  0  0  0  0  0  0
   -0.3675   -0.6830   -2.3272 C   0  0  0  0  0  0  0  0  0  0  0  0
    0.2741   -0.6011   -3.5479 N   0  3  0  0  0  0  0  0  0  0  0  0
    1.2830   -0.7310   -3.6657 H   0  0  0  0  0  0  0  0  0  0  0  0
   -0.6565   -0.4264   -4.5070 C   0  0  0  0  0  0  0  0  0  0  0  0
   -0.4537   -0.3402   -5.5726 H   0  0  0  0  0  0  0  0  0  0  0  0
   -1.8749   -0.3946   -3.9213 N   0  0  0  0  0  0  0  0  0  0  0  0
   -2.7643   -0.2774   -4.3996 H   0  0  0  0  0  0  0  0  0  0  0  0
   -1.7114   -0.5542   -2.5522 C   0  0  0  0  0  0  0  0  0  0  0  0
   -2.4923   -0.5750   -1.7970 H   0  0  0  0  0  0  0  0  0  0  0  0
   -0.4874    1.2908    0.1962 C   0  0  0  0  0  0  0  0  0  0  0  0
   -1.3116    1.8673   -0.5151 O   0  0  0  0  0  0  0  0  0  0  0  0
    0.3889    1.9422    0.9708 N   0  0  0  0  0  0  0  0  0  0  0  0
    1.0197    1.3866    1.5283 H   0  0  0  0  0  0  0  0  0  0  0  0
    0.5081    3.3999    1.0720 C   0  0  0  0  0  0  0  0  0  0  0  0
    0.0188    3.7538    1.9817 H   0  0  0  0  0  0  0  0  0  0  0  0
    1.5607    3.6858    1.1098 H   0  0  0  0  0  0  0  0  0  0  0  0
    0.0459    3.8890    0.2119 H   0  0  0  0  0  0  0  0  0  0  0  0
  5  6  2  0  0  0  0
  5  7  1  0  0  0  0
  2  3  1  0  0  0  0
  2  4  1  0  0  0  0
  2  5  1  0  0  0  0
  1  2  1  0  0  0  0
 23 24  2  0  0  0  0
 23 25  1  0  0  0  0
 21 22  1  0  0  0  0
 19 20  1  0  0  0  0
 19 21  1  0  0  0  0
 17 18  1  0  0  0  0
 17 19  1  0  0  0  0
 15 16  1  0  0  0  0
 15 17  2  0  0  0  0
 14 15  1  0  0  0  0
 14 21  2  0  0  0  0
 11 12  1  0  0  0  0
 11 13  1  0  0  0  0
 11 14  1  0  0  0  0
  9 10  1  0  0  0  0
  9 11  1  0  0  0  0
  9 23  1  0  0  0  0
  7  8  1  0  0  0  0
  7  9  1  0  0  0  0
 27 28  1  0  0  0  0
 27 29  1  0  0  0  0
 27 30  1  0  0  0  0
 25 26  1  0  0  0  0
 25 27  1  0  0  0  0
M  CHG  1  15   1
M  END
$$$$
default_name
  -OEChem-02102213163D

 30 30  0     1  0  0  0  0  0999 V2000
   -3.5507   -3.2183    1.8116 H   0  0  0  0  0  0  0  0  0  0  0  0
   -3.4597   -2.3913    1.1076 C   0  0  0  0  0  0  0  0  0  0  0  0
   -4.1577   -1.6043    1.3866 H   0  0  0  0  0  0  0  0  0  0  0  0
   -3.6807   -2.7523    0.1036 H   0  0  0  0  0  0  0  0  0  0  0  0
   -2.0477   -1.8543    1.1546 C   0  0  0  0  0  0  0  0  0  0  0  0
   -1.2227   -2.3443    1.9146 O   0  0  0  0  0  0  0  0  0  0  0  0
   -1.7517   -0.8483    0.3266 N   0  0  0  0  0  0  0  0  0  0  0  0
   -2.4847   -0.5123   -0.2804 H   0  0  0  0  0  0  0  0  0  0  0  0
   -0.4117   -0.2463    0.2186 C   0  0  1  0  0  0  0  0  0  0  0  0
    0.1554   -0.5152    1.1133 H   0  0  0  0  0  0  0  0  0  0  0  0
    0.3164   -0.8780   -0.9905 C   0  0  0  0  0  0  0  0  0  0  0  0
    1.3240   -0.4586   -1.0483 H   0  0  0  0  0  0  0  0  0  0  0  0
    0.4251   -1.9509   -0.8184 H   0  0  0  0  0  0  0  0  0  0  0  0
   -0.3675   -0.6830   -2.3272 C   0  0  0  0  0  0  0  0  0  0  0  0
    0.2180   -0.8897   -3.5612 N   0  3  0  0  0  0  0  0  0  0  0  0
    1.1646   -1.2611   -3.6825 H   0  0  0  0  0  0  0  0  0  0  0  0
   -0.6929   -0.6148   -4.5159 C   0  0  0  0  0  0  0  0  0  0  0  0
   -0.5260   -0.6987   -5.5879 H   0  0  0  0  0  0  0  0  0  0  0  0
   -1.8435   -0.2370   -3.9144 N   0  0  0  0  0  0  0  0  0  0  0  0
   -2.7046    0.0272   -4.3857 H   0  0  0  0  0  0  0  0  0  0  0  0
   -1.6564   -0.2742   -2.5396 C   0  0  0  0  0  0  0  0  0  0  0  0
   -2.3853   -0.0290   -1.7721 H   0  0  0  0  0  0  0  0  0  0  0  0
   -0.4874    1.2908    0.1962 C   0  0  0  0  0  0  0  0  0  0  0  0
   -1.3116    1.8673   -0.5151 O   0  0  0  0  0  0  0  0  0  0  0  0
    0.3889    1.9422    0.9708 N   0  0  0  0  0  0  0  0  0  0  0  0
    1.0197    1.3866    1.5283 H   0  0  0  0  0  0  0  0  0  0  0  0
    0.5081    3.3999    1.0720 C   0  0  0  0  0  0  0  0  0  0  0  0
    0.0188    3.7538    1.9817 H   0  0  0  0  0  0  0  0  0  0  0  0
    1.5607    3.6858    1.1098 H   0  0  0  0  0  0  0  0  0  0  0  0
    0.0459    3.8890    0.2119 H   0  0  0  0  0  0  0  0  0  0  0  0
  5  6  2  0  0  0  0
  5  7  1  0  0  0  0
  2  3  1  0  0  0  0
  2  4  1  0  0  0  0
  2  5  1  0  0  0  0
  1  2  1  0  0  0  0
 23 24  2  0  0  0  0
 23 25  1  0  0  0  0
 21 22  1  0  0  0  0
 19 20  1  0  0  0  0
 19 21  1  0  0  0  0
 17 18  1  0  0  0  0
 17 19  1  0  0  0  0
 15 16  1  0  0  0  0
 15 17  2  0  0  0  0
 14 15  1  0  0  0  0
 14 21  2  0  0  0  0
 11 12  1  0  0  0  0
 11 13  1  0  0  0  0
 11 14  1  0  0  0  0
  9 10  1  0  0  0  0
  9 11  1  0  0  0  0
  9 23  1  0  0  0  0
  7  8  1  0  0  0  0
  7  9  1  0  0  0  0
 27 28  1  0  0  0  0
 27 29  1  0  0  0  0
 27 30  1  0  0  0  0
 25 26  1  0  0  0  0
 25 27  1  0  0  0  0
M  CHG  1  15   1
M  END
$$$$
default_name
  -OEChem-02102213163D

 30 30  0     1  0  0  0  0  0999 V2000
   -3.5507   -3.2183    1.8116 H   0  0  0  0  0  0  0  0  0  0  0  0
   -3.4597   -2.3913    1.1076 C   0  0  0  0  0  0  0  0  0  0  0  0
   -4.1577   -1.6043    1.3866 H   0  0  0  0  0  0  0  0  0  0  0  0
   -3.6807   -2.7523    0.1036 H   0  0  0  0  0  0  0  0  0  0  0  0
   -2.0477   -1.8543    1.1546 C   0  0  0  0  0  0  0  0  0  0  0  0
   -1.2227   -2.3443    1.9146 O   0  0  0  0  0  0  0  0  0  0  0  0
   -1.7517   -0.8483    0.3266 N   0  0  0  0  0  0  0  0  0  0  0  0
   -2.4847   -0.5123   -0.2804 H   0  0  0  0  0  0  0  0  0  0  0  0
   -0.4117   -0.2463    0.2186 C   0  0  1  0  0  0  0  0  0  0  0  0
    0.1554   -0.5152    1.1133 H   0  0  0  0  0  0  0  0  0  0  0  0
    0.3164   -0.8780   -0.9905 C   0  0  0  0  0  0  0  0  0  0  0  0
    1.3862   -0.6747   -0.8979 H   0  0  0  0  0  0  0  0  0  0  0  0
    0.1917   -1.9623   -0.9529 H   0  0  0  0  0  0  0  0  0  0  0  0
   -0.1531   -0.3973   -2.3473 C   0  0  0  0  0  0  0  0  0  0  0  0
    0.3499   -0.8207   -3.5623 N   0  3  0  0  0  0  0  0  0  0  0  0
    1.0544   -1.5580   -3.6562 H   0  0  0  0  0  0  0  0  0  0  0  0
   -0.3099   -0.1751   -4.5444 C   0  0  0  0  0  0  0  0  0  0  0  0
   -0.1414   -0.3112   -5.6108 H   0  0  0  0  0  0  0  0  0  0  0  0
   -1.2200    0.6497   -3.9789 N   0  0  0  0  0  0  0  0  0  0  0  0
   -1.8633    1.2596   -4.4766 H   0  0  0  0  0  0  0  0  0  0  0  0
   -1.1347    0.5227   -2.5994 C   0  0  0  0  0  0  0  0  0  0  0  0
   -1.7280    1.0466   -1.8551 H   0  0  0  0  0  0  0  0  0  0  0  0
   -0.4874    1.2908    0.1962 C   0  0  0  0  0  0  0  0  0  0  0  0
   -1.3116    1.8673   -0.5151 O   0  0  0  0  0  0  0  0  0  0  0  0
    0.3889    1.9422    0.9708 N   0  0  0  0  0  0  0  0  0  0  0  0
    1.0197    1.3866    1.5283 H   0  0  0  0  0  0  0  0  0  0  0  0
    0.5081    3.3999    1.0720 C   0  0  0  0  0  0  0  0  0  0  0  0
    0.0188    3.7538    1.9817 H   0  0  0  0  0  0  0  0  0  0  0  0
    1.5607    3.6858    1.1098 H   0  0  0  0  0  0  0  0  0  0  0  0
    0.0459    3.8890    0.2119 H   0  0  0  0  0  0  0  0  0  0  0  0
  5  6  2  0  0  0  0
  5  7  1  0  0  0  0
  2  3  1  0  0  0  0
  2  4  1  0  0  0  0
  2  5  1  0  0  0  0
  1  2  1  0  0  0  0
 23 24  2  0  0  0  0
 23 25  1  0  0  0  0
 21 22  1  0  0  0  0
 19 20  1  0  0  0  0
 19 21  1  0  0  0  0
 17 18  1  0  0  0  0
 17 19  1  0  0  0  0
 15 16  1  0  0  0  0
 15 17  2  0  0  0  0
 14 15  1  0  0  0  0
 14 21  2  0  0  0  0
 11 12  1  0  0  0  0
 11 13  1  0  0  0  0
 11 14  1  0  0  0  0
  9 10  1  0  0  0  0
  9 11  1  0  0  0  0
  9 23  1  0  0  0  0
  7  8  1  0  0  0  0
  7  9  1  0  0  0  0
 27 28  1  0  0  0  0
 27 29  1  0  0  0  0
 27 30  1  0  0  0  0
 25 26  1  0  0  0  0
 25 27  1  0  0  0  0
M  CHG  1  15   1
M  END
$$$$
default_name
  -OEChem-02102213163D

 30 30  0     1  0  0  0  0  0999 V2000
   -3.5507   -3.2183    1.8116 H   0  0  0  0  0  0  0  0  0  0  0  0
   -3.4597   -2.3913    1.1076 C   0  0  0  0  0  0  0  0  0  0  0  0
   -4.1577   -1.6043    1.3866 H   0  0  0  0  0  0  0  0  0  0  0  0
   -3.6807   -2.7523    0.1036 H   0  0  0  0  0  0  0  0  0  0  0  0
   -2.0477   -1.8543    1.1546 C   0  0  0  0  0  0  0  0  0  0  0  0
   -1.2227   -2.3443    1.9146 O   0  0  0  0  0  0  0  0  0  0  0  0
   -1.7517   -0.8483    0.3266 N   0  0  0  0  0  0  0  0  0  0  0  0
   -2.4847   -0.5123   -0.2804 H   0  0  0  0  0  0  0  0  0  0  0  0
   -0.4117   -0.2463    0.2186 C   0  0  1  0  0  0  0  0  0  0  0  0
    0.1554   -0.5152    1.1133 H   0  0  0  0  0  0  0  0  0  0  0  0
    0.3164   -0.8780   -0.9905 C   0  0  0  0  0  0  0  0  0  0  0  0
    1.3862   -0.6747   -0.8979 H   0  0  0  0  0  0  0  0  0  0  0  0
    0.1917   -1.9623   -0.9529 H   0  0  0  0  0  0  0  0  0  0  0  0
   -0.1531   -0.3973   -2.3473 C   0  0  0  0  0  0  0  0  0  0  0  0
    0.1263   -1.0118   -3.5526 N   0  3  0  0  0  0  0  0  0  0  0  0
    0.6320   -1.8989   -3.6308 H   0  0  0  0  0  0  0  0  0  0  0  0
   -0.4556   -0.3001   -4.5383 C   0  0  0  0  0  0  0  0  0  0  0  0
   -0.4211   -0.5468   -5.5975 H   0  0  0  0  0  0  0  0  0  0  0  0
   -1.0973    0.7536   -3.9846 N   0  0  0  0  0  0  0  0  0  0  0  0
   -1.6270    1.4610   -4.4870 H   0  0  0  0  0  0  0  0  0  0  0  0
   -0.9173    0.7077   -2.6091 C   0  0  0  0  0  0  0  0  0  0  0  0
   -1.3043    1.4077   -1.8738 H   0  0  0  0  0  0  0  0  0  0  0  0
   -0.4874    1.2908    0.1962 C   0  0  0  0  0  0  0  0  0  0  0  0
   -1.3116    1.8673   -0.5151 O   0  0  0  0  0  0  0  0  0  0  0  0
    0.3889    1.9422    0.9708 N   0  0  0  0  0  0  0  0  0  0  0  0
    1.0197    1.3866    1.5283 H   0  0  0  0  0  0  0  0  0  0  0  0
    0.5081    3.3999    1.0720 C   0  0  0  0  0  0  0  0  0  0  0  0
    0.0188    3.7538    1.9817 H   0  0  0  0  0  0  0  0  0  0  0  0
    1.5607    3.6858    1.1098 H   0  0  0  0  0  0  0  0  0  0  0  0
    0.0459    3.8890    0.2119 H   0  0  0  0  0  0  0  0  0  0  0  0
  5  6  2  0  0  0  0
  5  7  1  0  0  0  0
  2  3  1  0  0  0  0
  2  4  1  0  0  0  0
  2  5  1  0  0  0  0
  1  2  1  0  0  0  0
 23 24  2  0  0  0  0
 23 25  1  0  0  0  0
 21 22  1  0  0  0  0
 19 20  1  0  0  0  0
 19 21  1  0  0  0  0
 17 18  1  0  0  0  0
 17 19  1  0  0  0  0
 15 16  1  0  0  0  0
 15 17  2  0  0  0  0
 14 15  1  0  0  0  0
 14 21  2  0  0  0  0
 11 12  1  0  0  0  0
 11 13  1  0  0  0  0
 11 14  1  0  0  0  0
  9 10  1  0  0  0  0
  9 11  1  0  0  0  0
  9 23  1  0  0  0  0
  7  8  1  0  0  0  0
  7  9  1  0  0  0  0
 27 28  1  0  0  0  0
 27 29  1  0  0  0  0
 27 30  1  0  0  0  0
 25 26  1  0  0  0  0
 25 27  1  0  0  0  0
M  CHG  1  15   1
M  END
$$$$
default_name
  -OEChem-02102213163D

 30 30  0     1  0  0  0  0  0999 V2000
   -3.5507   -3.2183    1.8116 H   0  0  0  0  0  0  0  0  0  0  0  0
   -3.4597   -2.3913    1.1076 C   0  0  0  0  0  0  0  0  0  0  0  0
   -4.1577   -1.6043    1.3866 H   0  0  0  0  0  0  0  0  0  0  0  0
   -3.6807   -2.7523    0.1036 H   0  0  0  0  0  0  0  0  0  0  0  0
   -2.0477   -1.8543    1.1546 C   0  0  0  0  0  0  0  0  0  0  0  0
   -1.2227   -2.3443    1.9146 O   0  0  0  0  0  0  0  0  0  0  0  0
   -1.7517   -0.8483    0.3266 N   0  0  0  0  0  0  0  0  0  0  0  0
   -2.4847   -0.5123   -0.2804 H   0  0  0  0  0  0  0  0  0  0  0  0
   -0.4117   -0.2463    0.2186 C   0  0  1  0  0  0  0  0  0  0  0  0
    0.1554   -0.5152    1.1133 H   0  0  0  0  0  0  0  0  0  0  0  0
    0.3164   -0.8780   -0.9905 C   0  0  0  0  0  0  0  0  0  0  0  0
    1.3862   -0.6747   -0.8979 H   0  0  0  0  0  0  0  0  0  0  0  0
    0.1917   -1.9623   -0.9529 H   0  0  0  0  0  0  0  0  0  0  0  0
   -0.1531   -0.3973   -2.3473 C   0  0  0  0  0  0  0  0  0  0  0  0
   -0.1332   -1.1438   -3.5096 N   0  3  0  0  0  0  0  0  0  0  0  0
    0.1469   -2.1282   -3.5442 H   0  0  0  0  0  0  0  0  0  0  0  0
   -0.6248   -0.3864   -4.5103 C   0  0  0  0  0  0  0  0  0  0  0  0
   -0.7449   -0.7085   -5.5427 H   0  0  0  0  0  0  0  0  0  0  0  0
   -0.9552    0.8249   -4.0085 N   0  0  0  0  0  0  0  0  0  0  0  0
   -1.3529    1.5999   -4.5326 H   0  0  0  0  0  0  0  0  0  0  0  0
   -0.6651    0.8351   -2.6511 C   0  0  0  0  0  0  0  0  0  0  0  0
   -0.8128    1.6567   -1.9556 H   0  0  0  0  0  0  0  0  0  0  0  0
   -0.4874    1.2908    0.1962 C   0  0  0  0  0  0  0  0  0  0  0  0
   -1.3116    1.8673   -0.5151 O   0  0  0  0  0  0  0  0  0  0  0  0
    0.3889    1.9422    0.9708 N   0  0  0  0  0  0  0  0  0  0  0  0
    1.0197    1.3866    1.5283 H   0  0  0  0  0  0  0  0  0  0  0  0
    0.5081    3.3999    1.0720 C   0  0  0  0  0  0  0  0  0  0  0  0
    0.0188    3.7538    1.9817 H   0  0  0  0  0  0  0  0  0  0  0  0
    1.5607    3.6858    1.1098 H   0  0  0  0  0  0  0  0  0  0  0  0
    0.0459    3.8890    0.2119 H   0  0  0  0  0  0  0  0  0  0  0  0
  5  6  2  0  0  0  0
  5  7  1  0  0  0  0
  2  3  1  0  0  0  0
  2  4  1  0  0  0  0
  2  5  1  0  0  0  0
  1  2  1  0  0  0  0
 23 24  2  0  0  0  0
 23 25  1  0  0  0  0
 21 22  1  0  0  0  0
 19 20  1  0  0  0  0
 19 21  1  0  0  0  0
 17 18  1  0  0  0  0
 17 19  1  0  0  0  0
 15 16  1  0  0  0  0
 15 17  2  0  0  0  0
 14 15  1  0  0  0  0
 14 21  2  0  0  0  0
 11 12  1  0  0  0  0
 11 13  1  0  0  0  0
 11 14  1  0  0  0  0
  9 10  1  0  0  0  0
  9 11  1  0  0  0  0
  9 23  1  0  0  0  0
  7  8  1  0  0  0  0
  7  9  1  0  0  0  0
 27 28  1  0  0  0  0
 27 29  1  0  0  0  0
 27 30  1  0  0  0  0
 25 26  1  0  0  0  0
 25 27  1  0  0  0  0
M  CHG  1  15   1
M  END
$$$$
default_name
  -OEChem-02102213163D

 30 30  0     1  0  0  0  0  0999 V2000
   -3.5507   -3.2183    1.8116 H   0  0  0  0  0  0  0  0  0  0  0  0
   -3.4597   -2.3913    1.1076 C   0  0  0  0  0  0  0  0  0  0  0  0
   -4.1577   -1.6043    1.3866 H   0  0  0  0  0  0  0  0  0  0  0  0
   -3.6807   -2.7523    0.1036 H   0  0  0  0  0  0  0  0  0  0  0  0
   -2.0477   -1.8543    1.1546 C   0  0  0  0  0  0  0  0  0  0  0  0
   -1.2227   -2.3443    1.9146 O   0  0  0  0  0  0  0  0  0  0  0  0
   -1.7517   -0.8483    0.3266 N   0  0  0  0  0  0  0  0  0  0  0  0
   -2.4847   -0.5123   -0.2804 H   0  0  0  0  0  0  0  0  0  0  0  0
   -0.4117   -0.2463    0.2186 C   0  0  1  0  0  0  0  0  0  0  0  0
    0.1554   -0.5152    1.1133 H   0  0  0  0  0  0  0  0  0  0  0  0
    0.3164   -0.8780   -0.9905 C   0  0  0  0  0  0  0  0  0  0  0  0
    1.3862   -0.6747   -0.8979 H   0  0  0  0  0  0  0  0  0  0  0  0
    0.1917   -1.9623   -0.9529 H   0  0  0  0  0  0  0  0  0  0  0  0
   -0.1531   -0.3973   -2.3473 C   0  0  0  0  0  0  0  0  0  0  0  0
   -0.4110   -1.2076   -3.4361 N   0  3  0  0  0  0  0  0  0  0  0  0
   -0.3676   -2.2302   -3.4023 H   0  0  0  0  0  0  0  0  0  0  0  0
   -0.8060   -0.4284   -4.4625 C   0  0  0  0  0  0  0  0  0  0  0  0
   -1.0906   -0.7851   -5.4503 H   0  0  0  0  0  0  0  0  0  0  0  0
   -0.8033    0.8590   -4.0489 N   0  0  0  0  0  0  0  0  0  0  0  0
   -1.0597    1.6668   -4.6104 H   0  0  0  0  0  0  0  0  0  0  0  0
   -0.3955    0.8964   -2.7227 C   0  0  0  0  0  0  0  0  0  0  0  0
   -0.2871    1.7766   -2.0950 H   0  0  0  0  0  0  0  0  0  0  0  0
   -0.4874    1.2908    0.1962 C   0  0  0  0  0  0  0  0  0  0  0  0
   -1.3116    1.8673   -0.5151 O   0  0  0  0  0  0  0  0  0  0  0  0
    0.3889    1.9422    0.9708 N   0  0  0  0  0  0  0  0  0  0  0  0
    1.0197    1.3866    1.5283 H   0  0  0  0  0  0  0  0  0  0  0  0
    0.5081    3.3999    1.0720 C   0  0  0  0  0  0  0  0  0  0  0  0
    0.0188    3.7538    1.9817 H   0  0  0  0  0  0  0  0  0  0  0  0
    1.5607    3.6858    1.1098 H   0  0  0  0  0  0  0  0  0  0  0  0
    0.0459    3.8890    0.2119 H   0  0  0  0  0  0  0  0  0  0  0  0
  5  6  2  0  0  0  0
  5  7  1  0  0  0  0
  2  3  1  0  0  0  0
  2  4  1  0  0  0  0
  2  5  1  0  0  0  0
  1  2  1  0  0  0  0
 23 24  2  0  0  0  0
 23 25  1  0  0  0  0
 21 22  1  0  0  0  0
 19 20  1  0  0  0  0
 19 21  1  0  0  0  0
 17 18  1  0  0  0  0
 17 19  1  0  0  0  0
 15 16  1  0  0  0  0
 15 17  2  0  0  0  0
 14 15  1  0  0  0  0
 14 21  2  0  0  0  0
 11 12  1  0  0  0  0
 11 13  1  0  0  0  0
 11 14  1  0  0  0  0
  9 10  1  0  0  0  0
  9 11  1  0  0  0  0
  9 23  1  0  0  0  0
  7  8  1  0  0  0  0
  7  9  1  0  0  0  0
 27 28  1  0  0  0  0
 27 29  1  0  0  0  0
 27 30  1  0  0  0  0
 25 26  1  0  0  0  0
 25 27  1  0  0  0  0
M  CHG  1  15   1
M  END
$$$$
default_name
  -OEChem-02102213163D

 30 30  0     1  0  0  0  0  0999 V2000
   -3.5507   -3.2183    1.8116 H   0  0  0  0  0  0  0  0  0  0  0  0
   -3.4597   -2.3913    1.1076 C   0  0  0  0  0  0  0  0  0  0  0  0
   -4.1577   -1.6043    1.3866 H   0  0  0  0  0  0  0  0  0  0  0  0
   -3.6807   -2.7523    0.1036 H   0  0  0  0  0  0  0  0  0  0  0  0
   -2.0477   -1.8543    1.1546 C   0  0  0  0  0  0  0  0  0  0  0  0
   -1.2227   -2.3443    1.9146 O   0  0  0  0  0  0  0  0  0  0  0  0
   -1.7517   -0.8483    0.3266 N   0  0  0  0  0  0  0  0  0  0  0  0
   -2.4847   -0.5123   -0.2804 H   0  0  0  0  0  0  0  0  0  0  0  0
   -0.4117   -0.2463    0.2186 C   0  0  1  0  0  0  0  0  0  0  0  0
    0.1554   -0.5152    1.1133 H   0  0  0  0  0  0  0  0  0  0  0  0
    0.3164   -0.8780   -0.9905 C   0  0  0  0  0  0  0  0  0  0  0  0
    1.3862   -0.6747   -0.8979 H   0  0  0  0  0  0  0  0  0  0  0  0
    0.1917   -1.9623   -0.9529 H   0  0  0  0  0  0  0  0  0  0  0  0
   -0.1531   -0.3973   -2.3473 C   0  0  0  0  0  0  0  0  0  0  0  0
   -0.6880   -1.1989   -3.3371 N   0  3  0  0  0  0  0  0  0  0  0  0
   -0.8766   -2.1980   -3.2148 H   0  0  0  0  0  0  0  0  0  0  0  0
   -0.9868   -0.4230   -4.3980 C   0  0  0  0  0  0  0  0  0  0  0  0
   -1.4347   -0.7716   -5.3264 H   0  0  0  0  0  0  0  0  0  0  0  0
   -0.6520    0.8535   -4.1032 N   0  0  0  0  0  0  0  0  0  0  0  0
   -0.7673    1.6572   -4.7149 H   0  0  0  0  0  0  0  0  0  0  0  0
   -0.1267    0.8873   -2.8189 C   0  0  0  0  0  0  0  0  0  0  0  0
    0.2371    1.7593   -2.2825 H   0  0  0  0  0  0  0  0  0  0  0  0
   -0.4874    1.2908    0.1962 C   0  0  0  0  0  0  0  0  0  0  0  0
   -1.3116    1.8673   -0.5151 O   0  0  0  0  0  0  0  0  0  0  0  0
    0.3889    1.9422    0.9708 N   0  0  0  0  0  0  0  0  0  0  0  0
    1.0197    1.3866    1.5283 H   0  0  0  0  0  0  0  0  0  0  0  0
    0.5081    3.3999    1.0720 C   0  0  0  0  0  0  0  0  0  0  0  0
    0.0188    3.7538    1.9817 H   0  0  0  0  0  0  0  0  0  0  0  0
    1.5607    3.6858    1.1098 H   0  0  0  0  0  0  0  0  0  0  0  0
    0.0459    3.8890    0.2119 H   0  0  0  0  0  0  0  0  0  0  0  0
  5  6  2  0  0  0  0
  5  7  1  0  0  0  0
  2  3  1  0  0  0  0
  2  4  1  0  0  0  0
  2  5  1  0  0  0  0
  1  2  1  0  0  0  0
 23 24  2  0  0  0  0
 23 25  1  0  0  0  0
 21 22  1  0  0  0  0
 19 20  1  0  0  0  0
 19 21  1  0  0  0  0
 17 18  1  0  0  0  0
 17 19  1  0  0  0  0
 15 16  1  0  0  0  0
 15 17  2  0  0  0  0
 14 15  1  0  0  0  0
 14 21  2  0  0  0  0
 11 12  1  0  0  0  0
 11 13  1  0  0  0  0
 11 14  1  0  0  0  0
  9 10  1  0  0  0  0
  9 11  1  0  0  0  0
  9 23  1  0  0  0  0
  7  8  1  0  0  0  0
  7  9  1  0  0  0  0
 27 28  1  0  0  0  0
 27 29  1  0  0  0  0
 27 30  1  0  0  0  0
 25 26  1  0  0  0  0
 25 27  1  0  0  0  0
M  CHG  1  15   1
M  END
$$$$
default_name
  -OEChem-02102213163D

 30 30  0     1  0  0  0  0  0999 V2000
   -3.5507   -3.2183    1.8116 H   0  0  0  0  0  0  0  0  0  0  0  0
   -3.4597   -2.3913    1.1076 C   0  0  0  0  0  0  0  0  0  0  0  0
   -4.1577   -1.6043    1.3866 H   0  0  0  0  0  0  0  0  0  0  0  0
   -3.6807   -2.7523    0.1036 H   0  0  0  0  0  0  0  0  0  0  0  0
   -2.0477   -1.8543    1.1546 C   0  0  0  0  0  0  0  0  0  0  0  0
   -1.2227   -2.3443    1.9146 O   0  0  0  0  0  0  0  0  0  0  0  0
   -1.7517   -0.8483    0.3266 N   0  0  0  0  0  0  0  0  0  0  0  0
   -2.4847   -0.5123   -0.2804 H   0  0  0  0  0  0  0  0  0  0  0  0
   -0.4117   -0.2463    0.2186 C   0  0  1  0  0  0  0  0  0  0  0  0
    0.1554   -0.5152    1.1133 H   0  0  0  0  0  0  0  0  0  0  0  0
    0.3164   -0.8780   -0.9905 C   0  0  0  0  0  0  0  0  0  0  0  0
    1.3862   -0.6747   -0.8979 H   0  0  0  0  0  0  0  0  0  0  0  0
    0.1917   -1.9623   -0.9529 H   0  0  0  0  0  0  0  0  0  0  0  0
   -0.1531   -0.3973   -2.3473 C   0  0  0  0  0  0  0  0  0  0  0  0
   -0.9455   -1.1183   -3.2195 N   0  3  0  0  0  0  0  0  0  0  0  0
   -1.3454   -2.0337   -2.9944 H   0  0  0  0  0  0  0  0  0  0  0  0
   -1.1550   -0.3708   -4.3213 C   0  0  0  0  0  0  0  0  0  0  0  0
   -1.7538   -0.6687   -5.1796 H   0  0  0  0  0  0  0  0  0  0  0  0
   -0.5117    0.8086   -4.1677 N   0  0  0  0  0  0  0  0  0  0  0  0
   -0.4957    1.5718   -4.8392 H   0  0  0  0  0  0  0  0  0  0  0  0
    0.1229    0.8085   -2.9332 C   0  0  0  0  0  0  0  0  0  0  0  0
    0.7240    1.6060   -2.5053 H   0  0  0  0  0  0  0  0  0  0  0  0
   -0.4874    1.2908    0.1962 C   0  0  0  0  0  0  0  0  0  0  0  0
   -1.3116    1.8673   -0.5151 O   0  0  0  0  0  0  0  0  0  0  0  0
    0.3889    1.9422    0.9708 N   0  0  0  0  0  0  0  0  0  0  0  0
    1.0197    1.3866    1.5283 H   0  0  0  0  0  0  0  0  0  0  0  0
    0.5081    3.3999    1.0720 C   0  0  0  0  0  0  0  0  0  0  0  0
    0.0188    3.7538    1.9817 H   0  0  0  0  0  0  0  0  0  0  0  0
    1.5607    3.6858    1.1098 H   0  0  0  0  0  0  0  0  0  0  0  0
    0.0459    3.8890    0.2119 H   0  0  0  0  0  0  0  0  0  0  0  0
  5  6  2  0  0  0  0
  5  7  1  0  0  0  0
  2  3  1  0  0  0  0
  2  4  1  0  0  0  0
  2  5  1  0  0  0  0
  1  2  1  0  0  0  0
 23 24  2  0  0  0  0
 23 25  1  0  0  0  0
 21 22  1  0  0  0  0
 19 20  1  0  0  0  0
 19 21  1  0  0  0  0
 17 18  1  0  0  0  0
 17 19  1  0  0  0  0
 15 16  1  0  0  0  0
 15 17  2  0  0  0  0
 14 15  1  0  0  0  0
 14 21  2  0  0  0  0
 11 12  1  0  0  0  0
 11 13  1  0  0  0  0
 11 14  1  0  0  0  0
  9 10  1  0  0  0  0
  9 11  1  0  0  0  0
  9 23  1  0  0  0  0
  7  8  1  0  0  0  0
  7  9  1  0  0  0  0
 27 28  1  0  0  0  0
 27 29  1  0  0  0  0
 27 30  1  0  0  0  0
 25 26  1  0  0  0  0
 25 27  1  0  0  0  0
M  CHG  1  15   1
M  END
$$$$
default_name
  -OEChem-02102213163D

 30 30  0     1  0  0  0  0  0999 V2000
   -3.5507   -3.2183    1.8116 H   0  0  0  0  0  0  0  0  0  0  0  0
   -3.4597   -2.3913    1.1076 C   0  0  0  0  0  0  0  0  0  0  0  0
   -4.1577   -1.6043    1.3866 H   0  0  0  0  0  0  0  0  0  0  0  0
   -3.6807   -2.7523    0.1036 H   0  0  0  0  0  0  0  0  0  0  0  0
   -2.0477   -1.8543    1.1546 C   0  0  0  0  0  0  0  0  0  0  0  0
   -1.2227   -2.3443    1.9146 O   0  0  0  0  0  0  0  0  0  0  0  0
   -1.7517   -0.8483    0.3266 N   0  0  0  0  0  0  0  0  0  0  0  0
   -2.4847   -0.5123   -0.2804 H   0  0  0  0  0  0  0  0  0  0  0  0
   -0.4117   -0.2463    0.2186 C   0  0  1  0  0  0  0  0  0  0  0  0
    0.1554   -0.5152    1.1133 H   0  0  0  0  0  0  0  0  0  0  0  0
    0.3164   -0.8780   -0.9905 C   0  0  0  0  0  0  0  0  0  0  0  0
    1.3862   -0.6747   -0.8979 H   0  0  0  0  0  0  0  0  0  0  0  0
    0.1917   -1.9623   -0.9529 H   0  0  0  0  0  0  0  0  0  0  0  0
   -0.1531   -0.3973   -2.3473 C   0  0  0  0  0  0  0  0  0  0  0  0
   -1.1658   -0.9713   -3.0912 N   0  3  0  0  0  0  0  0  0  0  0  0
   -1.7421   -1.7487   -2.7562 H   0  0  0  0  0  0  0  0  0  0  0  0
   -1.2989   -0.2751   -4.2376 C   0  0  0  0  0  0  0  0  0  0  0  0
   -2.0261   -0.4836   -5.0198 H   0  0  0  0  0  0  0  0  0  0  0  0
   -0.3918    0.7276   -4.2379 N   0  0  0  0  0  0  0  0  0  0  0  0
   -0.2634    1.4162   -4.9746 H   0  0  0  0  0  0  0  0  0  0  0  0
    0.3364    0.6653   -3.0578 C   0  0  0  0  0  0  0  0  0  0  0  0
    1.1404    1.3272   -2.7482 H   0  0  0  0  0  0  0  0  0  0  0  0
   -0.4874    1.2908    0.1962 C   0  0  0  0  0  0  0  0  0  0  0  0
   -1.3116    1.8673   -0.5151 O   0  0  0  0  0  0  0  0  0  0  0  0
    0.3889    1.9422    0.9708 N   0  0  0  0  0  0  0  0  0  0  0  0
    1.0197    1.3866    1.5283 H   0  0  0  0  0  0  0  0  0  0  0  0
    0.5081    3.3999    1.0720 C   0  0  0  0  0  0  0  0  0  0  0  0
    0.0188    3.7538    1.9817 H   0  0  0  0  0  0  0  0  0  0  0  0
    1.5607    3.6858    1.1098 H   0  0  0  0  0  0  0  0  0  0  0  0
    0.0459    3.8890    0.2119 H   0  0  0  0  0  0  0  0  0  0  0  0
  5  6  2  0  0  0  0
  5  7  1  0  0  0  0
  2  3  1  0  0  0  0
  2  4  1  0  0  0  0
  2  5  1  0  0  0  0
  1  2  1  0  0  0  0
 23 24  2  0  0  0  0
 23 25  1  0  0  0  0
 21 22  1  0  0  0  0
 19 20  1  0  0  0  0
 19 21  1  0  0  0  0
 17 18  1  0  0  0  0
 17 19  1  0  0  0  0
 15 16  1  0  0  0  0
 15 17  2  0  0  0  0
 14 15  1  0  0  0  0
 14 21  2  0  0  0  0
 11 12  1  0  0  0  0
 11 13  1  0  0  0  0
 11 14  1  0  0  0  0
  9 10  1  0  0  0  0
  9 11  1  0  0  0  0
  9 23  1  0  0  0  0
  7  8  1  0  0  0  0
  7  9  1  0  0  0  0
 27 28  1  0  0  0  0
 27 29  1  0  0  0  0
 27 30  1  0  0  0  0
 25 26  1  0  0  0  0
 25 27  1  0  0  0  0
M  CHG  1  15   1
M  END
$$$$
default_name
  -OEChem-02102213163D

 30 30  0     1  0  0  0  0  0999 V2000
   -3.5507   -3.2183    1.8116 H   0  0  0  0  0  0  0  0  0  0  0  0
   -3.4597   -2.3913    1.1076 C   0  0  0  0  0  0  0  0  0  0  0  0
   -4.1577   -1.6043    1.3866 H   0  0  0  0  0  0  0  0  0  0  0  0
   -3.6807   -2.7523    0.1036 H   0  0  0  0  0  0  0  0  0  0  0  0
   -2.0477   -1.8543    1.1546 C   0  0  0  0  0  0  0  0  0  0  0  0
   -1.2227   -2.3443    1.9146 O   0  0  0  0  0  0  0  0  0  0  0  0
   -1.7517   -0.8483    0.3266 N   0  0  0  0  0  0  0  0  0  0  0  0
   -2.4847   -0.5123   -0.2804 H   0  0  0  0  0  0  0  0  0  0  0  0
   -0.4117   -0.2463    0.2186 C   0  0  1  0  0  0  0  0  0  0  0  0
    0.1554   -0.5152    1.1133 H   0  0  0  0  0  0  0  0  0  0  0  0
    0.3164   -0.8780   -0.9905 C   0  0  0  0  0  0  0  0  0  0  0  0
    1.3862   -0.6747   -0.8979 H   0  0  0  0  0  0  0  0  0  0  0  0
    0.1917   -1.9623   -0.9529 H   0  0  0  0  0  0  0  0  0  0  0  0
   -0.1531   -0.3973   -2.3473 C   0  0  0  0  0  0  0  0  0  0  0  0
   -1.3340   -0.7679   -2.9610 N   0  3  0  0  0  0  0  0  0  0  0  0
   -2.0395   -1.3623   -2.5163 H   0  0  0  0  0  0  0  0  0  0  0  0
   -1.4089   -0.1426   -4.1526 C   0  0  0  0  0  0  0  0  0  0  0  0
   -2.2330   -0.2288   -4.8579 H   0  0  0  0  0  0  0  0  0  0  0  0
   -0.3005    0.6159   -4.3090 N   0  0  0  0  0  0  0  0  0  0  0  0
   -0.0862    1.2013   -5.1121 H   0  0  0  0  0  0  0  0  0  0  0  0
    0.4991    0.4674   -3.1842 C   0  0  0  0  0  0  0  0  0  0  0  0
    1.4580    0.9417   -2.9946 H   0  0  0  0  0  0  0  0  0  0  0  0
   -0.4874    1.2908    0.1962 C   0  0  0  0  0  0  0  0  0  0  0  0
   -1.3116    1.8673   -0.5151 O   0  0  0  0  0  0  0  0  0  0  0  0
    0.3889    1.9422    0.9708 N   0  0  0  0  0  0  0  0  0  0  0  0
    1.0197    1.3866    1.5283 H   0  0  0  0  0  0  0  0  0  0  0  0
    0.5081    3.3999    1.0720 C   0  0  0  0  0  0  0  0  0  0  0  0
    0.0188    3.7538    1.9817 H   0  0  0  0  0  0  0  0  0  0  0  0
    1.5607    3.6858    1.1098 H   0  0  0  0  0  0  0  0  0  0  0  0
    0.0459    3.8890    0.2119 H   0  0  0  0  0  0  0  0  0  0  0  0
  5  6  2  0  0  0  0
  5  7  1  0  0  0  0
  2  3  1  0  0  0  0
  2  4  1  0  0  0  0
  2  5  1  0  0  0  0
  1  2  1  0  0  0  0
 23 24  2  0  0  0  0
 23 25  1  0  0  0  0
 21 22  1  0  0  0  0
 19 20  1  0  0  0  0
 19 21  1  0  0  0  0
 17 18  1  0  0  0  0
 17 19  1  0  0  0  0
 15 16  1  0  0  0  0
 15 17  2  0  0  0  0
 14 15  1  0  0  0  0
 14 21  2  0  0  0  0
 11 12  1  0  0  0  0
 11 13  1  0  0  0  0
 11 14  1  0  0  0  0
  9 10  1  0  0  0  0
  9 11  1  0  0  0  0
  9 23  1  0  0  0  0
  7  8  1  0  0  0  0
  7  9  1  0  0  0  0
 27 28  1  0  0  0  0
 27 29  1  0  0  0  0
 27 30  1  0  0  0  0
 25 26  1  0  0  0  0
 25 27  1  0  0  0  0
M  CHG  1  15   1
M  END
$$$$
default_name
  -OEChem-02102213163D

 30 30  0     1  0  0  0  0  0999 V2000
   -3.5507   -3.2183    1.8116 H   0  0  0  0  0  0  0  0  0  0  0  0
   -3.4597   -2.3913    1.1076 C   0  0  0  0  0  0  0  0  0  0  0  0
   -4.1577   -1.6043    1.3866 H   0  0  0  0  0  0  0  0  0  0  0  0
   -3.6807   -2.7523    0.1036 H   0  0  0  0  0  0  0  0  0  0  0  0
   -2.0477   -1.8543    1.1546 C   0  0  0  0  0  0  0  0  0  0  0  0
   -1.2227   -2.3443    1.9146 O   0  0  0  0  0  0  0  0  0  0  0  0
   -1.7517   -0.8483    0.3266 N   0  0  0  0  0  0  0  0  0  0  0  0
   -2.4847   -0.5123   -0.2804 H   0  0  0  0  0  0  0  0  0  0  0  0
   -0.4117   -0.2463    0.2186 C   0  0  1  0  0  0  0  0  0  0  0  0
    0.1554   -0.5152    1.1133 H   0  0  0  0  0  0  0  0  0  0  0  0
    0.3164   -0.8780   -0.9905 C   0  0  0  0  0  0  0  0  0  0  0  0
    1.3862   -0.6747   -0.8979 H   0  0  0  0  0  0  0  0  0  0  0  0
    0.1917   -1.9623   -0.9529 H   0  0  0  0  0  0  0  0  0  0  0  0
   -0.1531   -0.3973   -2.3473 C   0  0  0  0  0  0  0  0  0  0  0  0
   -1.4385   -0.5220   -2.8377 N   0  3  0  0  0  0  0  0  0  0  0  0
   -2.2175   -0.9008   -2.2913 H   0  0  0  0  0  0  0  0  0  0  0  0
   -1.4775    0.0177   -4.0721 C   0  0  0  0  0  0  0  0  0  0  0  0
   -2.3605    0.0783   -4.7050 H   0  0  0  0  0  0  0  0  0  0  0  0
   -0.2441    0.4812   -4.3763 N   0  0  0  0  0  0  0  0  0  0  0  0
    0.0238    0.9415   -5.2422 H   0  0  0  0  0  0  0  0  0  0  0  0
    0.6000    0.2284   -3.3038 C   0  0  0  0  0  0  0  0  0  0  0  0
    1.6552    0.4759   -3.2279 H   0  0  0  0  0  0  0  0  0  0  0  0
   -0.4874    1.2908    0.1962 C   0  0  0  0  0  0  0  0  0  0  0  0
   -1.3116    1.8673   -0.5151 O   0  0  0  0  0  0  0  0  0  0  0  0
    0.3889    1.9422    0.9708 N   0  0  0  0  0  0  0  0  0  0  0  0
    1.0197    1.3866    1.5283 H   0  0  0  0  0  0  0  0  0  0  0  0
    0.5081    3.3999    1.0720 C   0  0  0  0  0  0  0  0  0  0  0  0
    0.0188    3.7538    1.9817 H   0  0  0  0  0  0  0  0  0  0  0  0
    1.5607    3.6858    1.1098 H   0  0  0  0  0  0  0  0  0  0  0  0
    0.0459    3.8890    0.2119 H   0  0  0  0  0  0  0  0  0  0  0  0
  5  6  2  0  0  0  0
  5  7  1  0  0  0  0
  2  3  1  0  0  0  0
  2  4  1  0  0  0  0
  2  5  1  0  0  0  0
  1  2  1  0  0  0  0
 23 24  2  0  0  0  0
 23 25  1  0  0  0  0
 21 22  1  0  0  0  0
 19 20  1  0  0  0  0
 19 21  1  0  0  0  0
 17 18  1  0  0  0  0
 17 19  1  0  0  0  0
 15 16  1  0  0  0  0
 15 17  2  0  0  0  0
 14 15  1  0  0  0  0
 14 21  2  0  0  0  0
 11 12  1  0  0  0  0
 11 13  1  0  0  0  0
 11 14  1  0  0  0  0
  9 10  1  0  0  0  0
  9 11  1  0  0  0  0
  9 23  1  0  0  0  0
  7  8  1  0  0  0  0
  7  9  1  0  0  0  0
 27 28  1  0  0  0  0
 27 29  1  0  0  0  0
 27 30  1  0  0  0  0
 25 26  1  0  0  0  0
 25 27  1  0  0  0  0
M  CHG  1  15   1
M  END
$$$$
default_name
  -OEChem-02102213163D

 30 30  0     1  0  0  0  0  0999 V2000
   -3.5507   -3.2183    1.8116 H   0  0  0  0  0  0  0  0  0  0  0  0
   -3.4597   -2.3913    1.1076 C   0  0  0  0  0  0  0  0  0  0  0  0
   -4.1577   -1.6043    1.3866 H   0  0  0  0  0  0  0  0  0  0  0  0
   -3.6807   -2.7523    0.1036 H   0  0  0  0  0  0  0  0  0  0  0  0
   -2.0477   -1.8543    1.1546 C   0  0  0  0  0  0  0  0  0  0  0  0
   -1.2227   -2.3443    1.9146 O   0  0  0  0  0  0  0  0  0  0  0  0
   -1.7517   -0.8483    0.3266 N   0  0  0  0  0  0  0  0  0  0  0  0
   -2.4847   -0.5123   -0.2804 H   0  0  0  0  0  0  0  0  0  0  0  0
   -0.4117   -0.2463    0.2186 C   0  0  1  0  0  0  0  0  0  0  0  0
    0.1554   -0.5152    1.1133 H   0  0  0  0  0  0  0  0  0  0  0  0
    0.3164   -0.8780   -0.9905 C   0  0  0  0  0  0  0  0  0  0  0  0
    1.3862   -0.6747   -0.8979 H   0  0  0  0  0  0  0  0  0  0  0  0
    0.1917   -1.9623   -0.9529 H   0  0  0  0  0  0  0  0  0  0  0  0
   -0.1531   -0.3973   -2.3473 C   0  0  0  0  0  0  0  0  0  0  0  0
   -1.4724   -0.2503   -2.7297 N   0  3  0  0  0  0  0  0  0  0  0  0
   -2.2638   -0.3956   -2.0963 H   0  0  0  0  0  0  0  0  0  0  0  0
   -1.4999    0.1949   -4.0016 C   0  0  0  0  0  0  0  0  0  0  0  0
   -2.3999    0.4168   -4.5715 H   0  0  0  0  0  0  0  0  0  0  0  0
   -0.2265    0.3326   -4.4350 N   0  0  0  0  0  0  0  0  0  0  0  0
    0.0591    0.6546   -5.3561 H   0  0  0  0  0  0  0  0  0  0  0  0
    0.6321   -0.0354   -3.4084 C   0  0  0  0  0  0  0  0  0  0  0  0
    1.7184   -0.0384   -3.4319 H   0  0  0  0  0  0  0  0  0  0  0  0
   -0.4874    1.2908    0.1962 C   0  0  0  0  0  0  0  0  0  0  0  0
   -1.3116    1.8673   -0.5151 O   0  0  0  0  0  0  0  0  0  0  0  0
    0.3889    1.9422    0.9708 N   0  0  0  0  0  0  0  0  0  0  0  0
    1.0197    1.3866    1.5283 H   0  0  0  0  0  0  0  0  0  0  0  0
    0.5081    3.3999    1.0720 C   0  0  0  0  0  0  0  0  0  0  0  0
    0.0188    3.7538    1.9817 H   0  0  0  0  0  0  0  0  0  0  0  0
    1.5607    3.6858    1.1098 H   0  0  0  0  0  0  0  0  0  0  0  0
    0.0459    3.8890    0.2119 H   0  0  0  0  0  0  0  0  0  0  0  0
  5  6  2  0  0  0  0
  5  7  1  0  0  0  0
  2  3  1  0  0  0  0
  2  4  1  0  0  0  0
  2  5  1  0  0  0  0
  1  2  1  0  0  0  0
 23 24  2  0  0  0  0
 23 25  1  0  0  0  0
 21 22  1  0  0  0  0
 19 20  1  0  0  0  0
 19 21  1  0  0  0  0
 17 18  1  0  0  0  0
 17 19  1  0  0  0  0
 15 16  1  0  0  0  0
 15 17  2  0  0  0  0
 14 15  1  0  0  0  0
 14 21  2  0  0  0  0
 11 12  1  0  0  0  0
 11 13  1  0  0  0  0
 11 14  1  0  0  0  0
  9 10  1  0  0  0  0
  9 11  1  0  0  0  0
  9 23  1  0  0  0  0
  7  8  1  0  0  0  0
  7  9  1  0  0  0  0
 27 28  1  0  0  0  0
 27 29  1  0  0  0  0
 27 30  1  0  0  0  0
 25 26  1  0  0  0  0
 25 27  1  0  0  0  0
M  CHG  1  15   1
M  END
$$$$
default_name
  -OEChem-02102213163D

 30 30  0     1  0  0  0  0  0999 V2000
   -3.5507   -3.2183    1.8116 H   0  0  0  0  0  0  0  0  0  0  0  0
   -3.4597   -2.3913    1.1076 C   0  0  0  0  0  0  0  0  0  0  0  0
   -4.1577   -1.6043    1.3866 H   0  0  0  0  0  0  0  0  0  0  0  0
   -3.6807   -2.7523    0.1036 H   0  0  0  0  0  0  0  0  0  0  0  0
   -2.0477   -1.8543    1.1546 C   0  0  0  0  0  0  0  0  0  0  0  0
   -1.2227   -2.3443    1.9146 O   0  0  0  0  0  0  0  0  0  0  0  0
   -1.7517   -0.8483    0.3266 N   0  0  0  0  0  0  0  0  0  0  0  0
   -2.4847   -0.5123   -0.2804 H   0  0  0  0  0  0  0  0  0  0  0  0
   -0.4117   -0.2463    0.2186 C   0  0  1  0  0  0  0  0  0  0  0  0
    0.1554   -0.5152    1.1133 H   0  0  0  0  0  0  0  0  0  0  0  0
    0.3164   -0.8780   -0.9905 C   0  0  0  0  0  0  0  0  0  0  0  0
    1.3862   -0.6747   -0.8979 H   0  0  0  0  0  0  0  0  0  0  0  0
    0.1917   -1.9623   -0.9529 H   0  0  0  0  0  0  0  0  0  0  0  0
   -0.1531   -0.3973   -2.3473 C   0  0  0  0  0  0  0  0  0  0  0  0
   -1.4332    0.0286   -2.6444 N   0  3  0  0  0  0  0  0  0  0  0  0
   -2.1754    0.1187   -1.9446 H   0  0  0  0  0  0  0  0  0  0  0  0
   -1.4746    0.3769   -3.9458 C   0  0  0  0  0  0  0  0  0  0  0  0
   -2.3484    0.7636   -4.4664 H   0  0  0  0  0  0  0  0  0  0  0  0
   -0.2487    0.1802   -4.4813 N   0  0  0  0  0  0  0  0  0  0  0  0
    0.0173    0.3602   -5.4459 H   0  0  0  0  0  0  0  0  0  0  0  0
    0.5935   -0.3061   -3.4909 C   0  0  0  0  0  0  0  0  0  0  0  0
    1.6434   -0.5663   -3.5930 H   0  0  0  0  0  0  0  0  0  0  0  0
   -0.4874    1.2908    0.1962 C   0  0  0  0  0  0  0  0  0  0  0  0
   -1.3116    1.8673   -0.5151 O   0  0  0  0  0  0  0  0  0  0  0  0
    0.3889    1.9422    0.9708 N   0  0  0  0  0  0  0  0  0  0  0  0
    1.0197    1.3866    1.5283 H   0  0  0  0  0  0  0  0  0  0  0  0
    0.5081    3.3999    1.0720 C   0  0  0  0  0  0  0  0  0  0  0  0
    0.0188    3.7538    1.9817 H   0  0  0  0  0  0  0  0  0  0  0  0
    1.5607    3.6858    1.1098 H   0  0  0  0  0  0  0  0  0  0  0  0
    0.0459    3.8890    0.2119 H   0  0  0  0  0  0  0  0  0  0  0  0
  5  6  2  0  0  0  0
  5  7  1  0  0  0  0
  2  3  1  0  0  0  0
  2  4  1  0  0  0  0
  2  5  1  0  0  0  0
  1  2  1  0  0  0  0
 23 24  2  0  0  0  0
 23 25  1  0  0  0  0
 21 22  1  0  0  0  0
 19 20  1  0  0  0  0
 19 21  1  0  0  0  0
 17 18  1  0  0  0  0
 17 19  1  0  0  0  0
 15 16  1  0  0  0  0
 15 17  2  0  0  0  0
 14 15  1  0  0  0  0
 14 21  2  0  0  0  0
 11 12  1  0  0  0  0
 11 13  1  0  0  0  0
 11 14  1  0  0  0  0
  9 10  1  0  0  0  0
  9 11  1  0  0  0  0
  9 23  1  0  0  0  0
  7  8  1  0  0  0  0
  7  9  1  0  0  0  0
 27 28  1  0  0  0  0
 27 29  1  0  0  0  0
 27 30  1  0  0  0  0
 25 26  1  0  0  0  0
 25 27  1  0  0  0  0
M  CHG  1  15   1
M  END
$$$$
default_name
  -OEChem-02102213163D

 30 30  0     1  0  0  0  0  0999 V2000
   -3.5507   -3.2183    1.8116 H   0  0  0  0  0  0  0  0  0  0  0  0
   -3.4597   -2.3913    1.1076 C   0  0  0  0  0  0  0  0  0  0  0  0
   -4.1577   -1.6043    1.3866 H   0  0  0  0  0  0  0  0  0  0  0  0
   -3.6807   -2.7523    0.1036 H   0  0  0  0  0  0  0  0  0  0  0  0
   -2.0477   -1.8543    1.1546 C   0  0  0  0  0  0  0  0  0  0  0  0
   -1.2227   -2.3443    1.9146 O   0  0  0  0  0  0  0  0  0  0  0  0
   -1.7517   -0.8483    0.3266 N   0  0  0  0  0  0  0  0  0  0  0  0
   -2.4847   -0.5123   -0.2804 H   0  0  0  0  0  0  0  0  0  0  0  0
   -0.4117   -0.2463    0.2186 C   0  0  1  0  0  0  0  0  0  0  0  0
    0.1554   -0.5152    1.1133 H   0  0  0  0  0  0  0  0  0  0  0  0
    0.3164   -0.8780   -0.9905 C   0  0  0  0  0  0  0  0  0  0  0  0
    1.3862   -0.6747   -0.8979 H   0  0  0  0  0  0  0  0  0  0  0  0
    0.1917   -1.9623   -0.9529 H   0  0  0  0  0  0  0  0  0  0  0  0
   -0.1531   -0.3973   -2.3473 C   0  0  0  0  0  0  0  0  0  0  0  0
   -1.3236    0.2958   -2.5877 N   0  3  0  0  0  0  0  0  0  0  0  0
   -1.9583    0.6071   -1.8467 H   0  0  0  0  0  0  0  0  0  0  0  0
   -1.4034    0.5514   -3.9087 C   0  0  0  0  0  0  0  0  0  0  0  0
   -2.2096    1.0950   -4.3970 H   0  0  0  0  0  0  0  0  0  0  0  0
   -0.3093    0.0344   -4.5120 N   0  0  0  0  0  0  0  0  0  0  0  0
   -0.0988    0.0783   -5.5056 H   0  0  0  0  0  0  0  0  0  0  0  0
    0.4865   -0.5652   -3.5457 C   0  0  0  0  0  0  0  0  0  0  0  0
    1.4353   -1.0717   -3.7001 H   0  0  0  0  0  0  0  0  0  0  0  0
   -0.4874    1.2908    0.1962 C   0  0  0  0  0  0  0  0  0  0  0  0
   -1.3116    1.8673   -0.5151 O   0  0  0  0  0  0  0  0  0  0  0  0
    0.3889    1.9422    0.9708 N   0  0  0  0  0  0  0  0  0  0  0  0
    1.0197    1.3866    1.5283 H   0  0  0  0  0  0  0  0  0  0  0  0
    0.5081    3.3999    1.0720 C   0  0  0  0  0  0  0  0  0  0  0  0
    0.0188    3.7538    1.9817 H   0  0  0  0  0  0  0  0  0  0  0  0
    1.5607    3.6858    1.1098 H   0  0  0  0  0  0  0  0  0  0  0  0
    0.0459    3.8890    0.2119 H   0  0  0  0  0  0  0  0  0  0  0  0
  5  6  2  0  0  0  0
  5  7  1  0  0  0  0
  2  3  1  0  0  0  0
  2  4  1  0  0  0  0
  2  5  1  0  0  0  0
  1  2  1  0  0  0  0
 23 24  2  0  0  0  0
 23 25  1  0  0  0  0
 21 22  1  0  0  0  0
 19 20  1  0  0  0  0
 19 21  1  0  0  0  0
 17 18  1  0  0  0  0
 17 19  1  0  0  0  0
 15 16  1  0  0  0  0
 15 17  2  0  0  0  0
 14 15  1  0  0  0  0
 14 21  2  0  0  0  0
 11 12  1  0  0  0  0
 11 13  1  0  0  0  0
 11 14  1  0  0  0  0
  9 10  1  0  0  0  0
  9 11  1  0  0  0  0
  9 23  1  0  0  0  0
  7  8  1  0  0  0  0
  7  9  1  0  0  0  0
 27 28  1  0  0  0  0
 27 29  1  0  0  0  0
 27 30  1  0  0  0  0
 25 26  1  0  0  0  0
 25 27  1  0  0  0  0
M  CHG  1  15   1
M  END
$$$$
default_name
  -OEChem-02102213163D

 30 30  0     1  0  0  0  0  0999 V2000
   -3.5507   -3.2183    1.8116 H   0  0  0  0  0  0  0  0  0  0  0  0
   -3.4597   -2.3913    1.1076 C   0  0  0  0  0  0  0  0  0  0  0  0
   -4.1577   -1.6043    1.3866 H   0  0  0  0  0  0  0  0  0  0  0  0
   -3.6807   -2.7523    0.1036 H   0  0  0  0  0  0  0  0  0  0  0  0
   -2.0477   -1.8543    1.1546 C   0  0  0  0  0  0  0  0  0  0  0  0
   -1.2227   -2.3443    1.9146 O   0  0  0  0  0  0  0  0  0  0  0  0
   -1.7517   -0.8483    0.3266 N   0  0  0  0  0  0  0  0  0  0  0  0
   -2.4847   -0.5123   -0.2804 H   0  0  0  0  0  0  0  0  0  0  0  0
   -0.4117   -0.2463    0.2186 C   0  0  1  0  0  0  0  0  0  0  0  0
    0.1554   -0.5152    1.1133 H   0  0  0  0  0  0  0  0  0  0  0  0
    0.3164   -0.8780   -0.9905 C   0  0  0  0  0  0  0  0  0  0  0  0
    1.3862   -0.6747   -0.8979 H   0  0  0  0  0  0  0  0  0  0  0  0
    0.1917   -1.9623   -0.9529 H   0  0  0  0  0  0  0  0  0  0  0  0
   -0.1531   -0.3973   -2.3473 C   0  0  0  0  0  0  0  0  0  0  0  0
   -1.1512    0.5331   -2.5633 N   0  3  0  0  0  0  0  0  0  0  0  0
   -1.6272    1.0364   -1.8092 H   0  0  0  0  0  0  0  0  0  0  0  0
   -1.2911    0.7063   -3.8926 C   0  0  0  0  0  0  0  0  0  0  0  0
   -1.9930    1.3886   -4.3679 H   0  0  0  0  0  0  0  0  0  0  0  0
   -0.4042   -0.0948   -4.5250 N   0  0  0  0  0  0  0  0  0  0  0  0
   -0.2812   -0.1719   -5.5312 H   0  0  0  0  0  0  0  0  0  0  0  0
    0.3186   -0.7951   -3.5691 C   0  0  0  0  0  0  0  0  0  0  0  0
    1.1082   -1.5202   -3.7458 H   0  0  0  0  0  0  0  0  0  0  0  0
   -0.4874    1.2908    0.1962 C   0  0  0  0  0  0  0  0  0  0  0  0
   -1.3116    1.8673   -0.5151 O   0  0  0  0  0  0  0  0  0  0  0  0
    0.3889    1.9422    0.9708 N   0  0  0  0  0  0  0  0  0  0  0  0
    1.0197    1.3866    1.5283 H   0  0  0  0  0  0  0  0  0  0  0  0
    0.5081    3.3999    1.0720 C   0  0  0  0  0  0  0  0  0  0  0  0
    0.0188    3.7538    1.9817 H   0  0  0  0  0  0  0  0  0  0  0  0
    1.5607    3.6858    1.1098 H   0  0  0  0  0  0  0  0  0  0  0  0
    0.0459    3.8890    0.2119 H   0  0  0  0  0  0  0  0  0  0  0  0
  5  6  2  0  0  0  0
  5  7  1  0  0  0  0
  2  3  1  0  0  0  0
  2  4  1  0  0  0  0
  2  5  1  0  0  0  0
  1  2  1  0  0  0  0
 23 24  2  0  0  0  0
 23 25  1  0  0  0  0
 21 22  1  0  0  0  0
 19 20  1  0  0  0  0
 19 21  1  0  0  0  0
 17 18  1  0  0  0  0
 17 19  1  0  0  0  0
 15 16  1  0  0  0  0
 15 17  2  0  0  0  0
 14 15  1  0  0  0  0
 14 21  2  0  0  0  0
 11 12  1  0  0  0  0
 11 13  1  0  0  0  0
 11 14  1  0  0  0  0
  9 10  1  0  0  0  0
  9 11  1  0  0  0  0
  9 23  1  0  0  0  0
  7  8  1  0  0  0  0
  7  9  1  0  0  0  0
 27 28  1  0  0  0  0
 27 29  1  0  0  0  0
 27 30  1  0  0  0  0
 25 26  1  0  0  0  0
 25 27  1  0  0  0  0
M  CHG  1  15   1
M  END
$$$$
default_name
  -OEChem-02102213163D

 30 30  0     1  0  0  0  0  0999 V2000
   -3.5507   -3.2183    1.8116 H   0  0  0  0  0  0  0  0  0  0  0  0
   -3.4597   -2.3913    1.1076 C   0  0  0  0  0  0  0  0  0  0  0  0
   -4.1577   -1.6043    1.3866 H   0  0  0  0  0  0  0  0  0  0  0  0
   -3.6807   -2.7523    0.1036 H   0  0  0  0  0  0  0  0  0  0  0  0
   -2.0477   -1.8543    1.1546 C   0  0  0  0  0  0  0  0  0  0  0  0
   -1.2227   -2.3443    1.9146 O   0  0  0  0  0  0  0  0  0  0  0  0
   -1.7517   -0.8483    0.3266 N   0  0  0  0  0  0  0  0  0  0  0  0
   -2.4847   -0.5123   -0.2804 H   0  0  0  0  0  0  0  0  0  0  0  0
   -0.4117   -0.2463    0.2186 C   0  0  1  0  0  0  0  0  0  0  0  0
    0.1554   -0.5152    1.1133 H   0  0  0  0  0  0  0  0  0  0  0  0
    0.3164   -0.8780   -0.9905 C   0  0  0  0  0  0  0  0  0  0  0  0
    1.3862   -0.6747   -0.8979 H   0  0  0  0  0  0  0  0  0  0  0  0
    0.1917   -1.9623   -0.9529 H   0  0  0  0  0  0  0  0  0  0  0  0
   -0.1531   -0.3973   -2.3473 C   0  0  0  0  0  0  0  0  0  0  0  0
   -0.9275    0.7242   -2.5730 N   0  3  0  0  0  0  0  0  0  0  0  0
   -1.2048    1.3773   -1.8346 H   0  0  0  0  0  0  0  0  0  0  0  0
   -1.1454    0.8313   -3.8988 C   0  0  0  0  0  0  0  0  0  0  0  0
   -1.7133    1.6242   -4.3812 H   0  0  0  0  0  0  0  0  0  0  0  0
   -0.5268   -0.1986   -4.5193 N   0  0  0  0  0  0  0  0  0  0  0  0
   -0.5175   -0.3733   -5.5207 H   0  0  0  0  0  0  0  0  0  0  0  0
    0.1012   -0.9801   -3.5594 C   0  0  0  0  0  0  0  0  0  0  0  0
    0.6846   -1.8812   -3.7271 H   0  0  0  0  0  0  0  0  0  0  0  0
   -0.4874    1.2908    0.1962 C   0  0  0  0  0  0  0  0  0  0  0  0
   -1.3116    1.8673   -0.5151 O   0  0  0  0  0  0  0  0  0  0  0  0
    0.3889    1.9422    0.9708 N   0  0  0  0  0  0  0  0  0  0  0  0
    1.0197    1.3866    1.5283 H   0  0  0  0  0  0  0  0  0  0  0  0
    0.5081    3.3999    1.0720 C   0  0  0  0  0  0  0  0  0  0  0  0
    0.0188    3.7538    1.9817 H   0  0  0  0  0  0  0  0  0  0  0  0
    1.5607    3.6858    1.1098 H   0  0  0  0  0  0  0  0  0  0  0  0
    0.0459    3.8890    0.2119 H   0  0  0  0  0  0  0  0  0  0  0  0
  5  6  2  0  0  0  0
  5  7  1  0  0  0  0
  2  3  1  0  0  0  0
  2  4  1  0  0  0  0
  2  5  1  0  0  0  0
  1  2  1  0  0  0  0
 23 24  2  0  0  0  0
 23 25  1  0  0  0  0
 21 22  1  0  0  0  0
 19 20  1  0  0  0  0
 19 21  1  0  0  0  0
 17 18  1  0  0  0  0
 17 19  1  0  0  0  0
 15 16  1  0  0  0  0
 15 17  2  0  0  0  0
 14 15  1  0  0  0  0
 14 21  2  0  0  0  0
 11 12  1  0  0  0  0
 11 13  1  0  0  0  0
 11 14  1  0  0  0  0
  9 10  1  0  0  0  0
  9 11  1  0  0  0  0
  9 23  1  0  0  0  0
  7  8  1  0  0  0  0
  7  9  1  0  0  0  0
 27 28  1  0  0  0  0
 27 29  1  0  0  0  0
 27 30  1  0  0  0  0
 25 26  1  0  0  0  0
 25 27  1  0  0  0  0
M  CHG  1  15   1
M  END
$$$$
default_name
  -OEChem-02102213163D

 30 30  0     1  0  0  0  0  0999 V2000
   -3.5507   -3.2183    1.8116 H   0  0  0  0  0  0  0  0  0  0  0  0
   -3.4597   -2.3913    1.1076 C   0  0  0  0  0  0  0  0  0  0  0  0
   -4.1577   -1.6043    1.3866 H   0  0  0  0  0  0  0  0  0  0  0  0
   -3.6807   -2.7523    0.1036 H   0  0  0  0  0  0  0  0  0  0  0  0
   -2.0477   -1.8543    1.1546 C   0  0  0  0  0  0  0  0  0  0  0  0
   -1.2227   -2.3443    1.9146 O   0  0  0  0  0  0  0  0  0  0  0  0
   -1.7517   -0.8483    0.3266 N   0  0  0  0  0  0  0  0  0  0  0  0
   -2.4847   -0.5123   -0.2804 H   0  0  0  0  0  0  0  0  0  0  0  0
   -0.4117   -0.2463    0.2186 C   0  0  1  0  0  0  0  0  0  0  0  0
    0.1554   -0.5152    1.1133 H   0  0  0  0  0  0  0  0  0  0  0  0
    0.3164   -0.8780   -0.9905 C   0  0  0  0  0  0  0  0  0  0  0  0
    1.3862   -0.6747   -0.8979 H   0  0  0  0  0  0  0  0  0  0  0  0
    0.1917   -1.9623   -0.9529 H   0  0  0  0  0  0  0  0  0  0  0  0
   -0.1531   -0.3973   -2.3473 C   0  0  0  0  0  0  0  0  0  0  0  0
   -0.6680    0.8561   -2.6160 N   0  3  0  0  0  0  0  0  0  0  0  0
   -0.7197    1.6066   -1.9212 H   0  0  0  0  0  0  0  0  0  0  0  0
   -0.9762    0.9177   -3.9267 C   0  0  0  0  0  0  0  0  0  0  0  0
   -1.3895    1.7859   -4.4360 H   0  0  0  0  0  0  0  0  0  0  0  0
   -0.6690   -0.2700   -4.4954 N   0  0  0  0  0  0  0  0  0  0  0  0
   -0.7916   -0.5122   -5.4751 H   0  0  0  0  0  0  0  0  0  0  0  0
   -0.1510   -1.1076   -3.5173 C   0  0  0  0  0  0  0  0  0  0  0  0
    0.1931   -2.1302   -3.6453 H   0  0  0  0  0  0  0  0  0  0  0  0
   -0.4874    1.2908    0.1962 C   0  0  0  0  0  0  0  0  0  0  0  0
   -1.3116    1.8673   -0.5151 O   0  0  0  0  0  0  0  0  0  0  0  0
    0.3889    1.9422    0.9708 N   0  0  0  0  0  0  0  0  0  0  0  0
    1.0197    1.3866    1.5283 H   0  0  0  0  0  0  0  0  0  0  0  0
    0.5081    3.3999    1.0720 C   0  0  0  0  0  0  0  0  0  0  0  0
    0.0188    3.7538    1.9817 H   0  0  0  0  0  0  0  0  0  0  0  0
    1.5607    3.6858    1.1098 H   0  0  0  0  0  0  0  0  0  0  0  0
    0.0459    3.8890    0.2119 H   0  0  0  0  0  0  0  0  0  0  0  0
  5  6  2  0  0  0  0
  5  7  1  0  0  0  0
  2  3  1  0  0  0  0
  2  4  1  0  0  0  0
  2  5  1  0  0  0  0
  1  2  1  0  0  0  0
 23 24  2  0  0  0  0
 23 25  1  0  0  0  0
 21 22  1  0  0  0  0
 19 20  1  0  0  0  0
 19 21  1  0  0  0  0
 17 18  1  0  0  0  0
 17 19  1  0  0  0  0
 15 16  1  0  0  0  0
 15 17  2  0  0  0  0
 14 15  1  0  0  0  0
 14 21  2  0  0  0  0
 11 12  1  0  0  0  0
 11 13  1  0  0  0  0
 11 14  1  0  0  0  0
  9 10  1  0  0  0  0
  9 11  1  0  0  0  0
  9 23  1  0  0  0  0
  7  8  1  0  0  0  0
  7  9  1  0  0  0  0
 27 28  1  0  0  0  0
 27 29  1  0  0  0  0
 27 30  1  0  0  0  0
 25 26  1  0  0  0  0
 25 27  1  0  0  0  0
M  CHG  1  15   1
M  END
$$$$
default_name
  -OEChem-02102213163D

 30 30  0     1  0  0  0  0  0999 V2000
   -3.5507   -3.2183    1.8116 H   0  0  0  0  0  0  0  0  0  0  0  0
   -3.4597   -2.3913    1.1076 C   0  0  0  0  0  0  0  0  0  0  0  0
   -4.1577   -1.6043    1.3866 H   0  0  0  0  0  0  0  0  0  0  0  0
   -3.6807   -2.7523    0.1036 H   0  0  0  0  0  0  0  0  0  0  0  0
   -2.0477   -1.8543    1.1546 C   0  0  0  0  0  0  0  0  0  0  0  0
   -1.2227   -2.3443    1.9146 O   0  0  0  0  0  0  0  0  0  0  0  0
   -1.7517   -0.8483    0.3266 N   0  0  0  0  0  0  0  0  0  0  0  0
   -2.4847   -0.5123   -0.2804 H   0  0  0  0  0  0  0  0  0  0  0  0
   -0.4117   -0.2463    0.2186 C   0  0  1  0  0  0  0  0  0  0  0  0
    0.1554   -0.5152    1.1133 H   0  0  0  0  0  0  0  0  0  0  0  0
    0.3164   -0.8780   -0.9905 C   0  0  0  0  0  0  0  0  0  0  0  0
    1.3862   -0.6747   -0.8979 H   0  0  0  0  0  0  0  0  0  0  0  0
    0.1917   -1.9623   -0.9529 H   0  0  0  0  0  0  0  0  0  0  0  0
   -0.1531   -0.3973   -2.3473 C   0  0  0  0  0  0  0  0  0  0  0  0
   -0.3903    0.9199   -2.6895 N   0  3  0  0  0  0  0  0  0  0  0  0
   -0.2052    1.7086   -2.0631 H   0  0  0  0  0  0  0  0  0  0  0  0
   -0.7950    0.9596   -3.9745 C   0  0  0  0  0  0  0  0  0  0  0  0
   -1.0438    1.8626   -4.5284 H   0  0  0  0  0  0  0  0  0  0  0  0
   -0.8208   -0.3041   -4.4549 N   0  0  0  0  0  0  0  0  0  0  0  0
   -1.0848   -0.5791   -5.3974 H   0  0  0  0  0  0  0  0  0  0  0  0
   -0.4206   -1.1689   -3.4457 C   0  0  0  0  0  0  0  0  0  0  0  0
   -0.3326   -2.2502   -3.5059 H   0  0  0  0  0  0  0  0  0  0  0  0
   -0.4874    1.2908    0.1962 C   0  0  0  0  0  0  0  0  0  0  0  0
   -1.3116    1.8673   -0.5151 O   0  0  0  0  0  0  0  0  0  0  0  0
    0.3889    1.9422    0.9708 N   0  0  0  0  0  0  0  0  0  0  0  0
    1.0197    1.3866    1.5283 H   0  0  0  0  0  0  0  0  0  0  0  0
    0.5081    3.3999    1.0720 C   0  0  0  0  0  0  0  0  0  0  0  0
    0.0188    3.7538    1.9817 H   0  0  0  0  0  0  0  0  0  0  0  0
    1.5607    3.6858    1.1098 H   0  0  0  0  0  0  0  0  0  0  0  0
    0.0459    3.8890    0.2119 H   0  0  0  0  0  0  0  0  0  0  0  0
  5  6  2  0  0  0  0
  5  7  1  0  0  0  0
  2  3  1  0  0  0  0
  2  4  1  0  0  0  0
  2  5  1  0  0  0  0
  1  2  1  0  0  0  0
 23 24  2  0  0  0  0
 23 25  1  0  0  0  0
 21 22  1  0  0  0  0
 19 20  1  0  0  0  0
 19 21  1  0  0  0  0
 17 18  1  0  0  0  0
 17 19  1  0  0  0  0
 15 16  1  0  0  0  0
 15 17  2  0  0  0  0
 14 15  1  0  0  0  0
 14 21  2  0  0  0  0
 11 12  1  0  0  0  0
 11 13  1  0  0  0  0
 11 14  1  0  0  0  0
  9 10  1  0  0  0  0
  9 11  1  0  0  0  0
  9 23  1  0  0  0  0
  7  8  1  0  0  0  0
  7  9  1  0  0  0  0
 27 28  1  0  0  0  0
 27 29  1  0  0  0  0
 27 30  1  0  0  0  0
 25 26  1  0  0  0  0
 25 27  1  0  0  0  0
M  CHG  1  15   1
M  END
$$$$
default_name
  -OEChem-02102213163D

 30 30  0     1  0  0  0  0  0999 V2000
   -3.5507   -3.2183    1.8116 H   0  0  0  0  0  0  0  0  0  0  0  0
   -3.4597   -2.3913    1.1076 C   0  0  0  0  0  0  0  0  0  0  0  0
   -4.1577   -1.6043    1.3866 H   0  0  0  0  0  0  0  0  0  0  0  0
   -3.6807   -2.7523    0.1036 H   0  0  0  0  0  0  0  0  0  0  0  0
   -2.0477   -1.8543    1.1546 C   0  0  0  0  0  0  0  0  0  0  0  0
   -1.2227   -2.3443    1.9146 O   0  0  0  0  0  0  0  0  0  0  0  0
   -1.7517   -0.8483    0.3266 N   0  0  0  0  0  0  0  0  0  0  0  0
   -2.4847   -0.5123   -0.2804 H   0  0  0  0  0  0  0  0  0  0  0  0
   -0.4117   -0.2463    0.2186 C   0  0  1  0  0  0  0  0  0  0  0  0
    0.1554   -0.5152    1.1133 H   0  0  0  0  0  0  0  0  0  0  0  0
    0.3164   -0.8780   -0.9905 C   0  0  0  0  0  0  0  0  0  0  0  0
    1.3862   -0.6747   -0.8979 H   0  0  0  0  0  0  0  0  0  0  0  0
    0.1917   -1.9623   -0.9529 H   0  0  0  0  0  0  0  0  0  0  0  0
   -0.1531   -0.3973   -2.3473 C   0  0  0  0  0  0  0  0  0  0  0  0
   -0.1132    0.9112   -2.7885 N   0  3  0  0  0  0  0  0  0  0  0  0
    0.3038    1.6764   -2.2506 H   0  0  0  0  0  0  0  0  0  0  0  0
   -0.6142    0.9543   -4.0390 C   0  0  0  0  0  0  0  0  0  0  0  0
   -0.6997    1.8490   -4.6523 H   0  0  0  0  0  0  0  0  0  0  0  0
   -0.9721   -0.2985   -4.4006 N   0  0  0  0  0  0  0  0  0  0  0  0
   -1.3772   -0.5695   -5.2928 H   0  0  0  0  0  0  0  0  0  0  0  0
   -0.6894   -1.1598   -3.3495 C   0  0  0  0  0  0  0  0  0  0  0  0
   -0.8568   -2.2329   -3.3184 H   0  0  0  0  0  0  0  0  0  0  0  0
   -0.4874    1.2908    0.1962 C   0  0  0  0  0  0  0  0  0  0  0  0
   -1.3116    1.8673   -0.5151 O   0  0  0  0  0  0  0  0  0  0  0  0
    0.3889    1.9422    0.9708 N   0  0  0  0  0  0  0  0  0  0  0  0
    1.0197    1.3866    1.5283 H   0  0  0  0  0  0  0  0  0  0  0  0
    0.5081    3.3999    1.0720 C   0  0  0  0  0  0  0  0  0  0  0  0
    0.0188    3.7538    1.9817 H   0  0  0  0  0  0  0  0  0  0  0  0
    1.5607    3.6858    1.1098 H   0  0  0  0  0  0  0  0  0  0  0  0
    0.0459    3.8890    0.2119 H   0  0  0  0  0  0  0  0  0  0  0  0
  5  6  2  0  0  0  0
  5  7  1  0  0  0  0
  2  3  1  0  0  0  0
  2  4  1  0  0  0  0
  2  5  1  0  0  0  0
  1  2  1  0  0  0  0
 23 24  2  0  0  0  0
 23 25  1  0  0  0  0
 21 22  1  0  0  0  0
 19 20  1  0  0  0  0
 19 21  1  0  0  0  0
 17 18  1  0  0  0  0
 17 19  1  0  0  0  0
 15 16  1  0  0  0  0
 15 17  2  0  0  0  0
 14 15  1  0  0  0  0
 14 21  2  0  0  0  0
 11 12  1  0  0  0  0
 11 13  1  0  0  0  0
 11 14  1  0  0  0  0
  9 10  1  0  0  0  0
  9 11  1  0  0  0  0
  9 23  1  0  0  0  0
  7  8  1  0  0  0  0
  7  9  1  0  0  0  0
 27 28  1  0  0  0  0
 27 29  1  0  0  0  0
 27 30  1  0  0  0  0
 25 26  1  0  0  0  0
 25 27  1  0  0  0  0
M  CHG  1  15   1
M  END
$$$$
default_name
  -OEChem-02102213163D

 30 30  0     1  0  0  0  0  0999 V2000
   -3.5507   -3.2183    1.8116 H   0  0  0  0  0  0  0  0  0  0  0  0
   -3.4597   -2.3913    1.1076 C   0  0  0  0  0  0  0  0  0  0  0  0
   -4.1577   -1.6043    1.3866 H   0  0  0  0  0  0  0  0  0  0  0  0
   -3.6807   -2.7523    0.1036 H   0  0  0  0  0  0  0  0  0  0  0  0
   -2.0477   -1.8543    1.1546 C   0  0  0  0  0  0  0  0  0  0  0  0
   -1.2227   -2.3443    1.9146 O   0  0  0  0  0  0  0  0  0  0  0  0
   -1.7517   -0.8483    0.3266 N   0  0  0  0  0  0  0  0  0  0  0  0
   -2.4847   -0.5123   -0.2804 H   0  0  0  0  0  0  0  0  0  0  0  0
   -0.4117   -0.2463    0.2186 C   0  0  1  0  0  0  0  0  0  0  0  0
    0.1554   -0.5152    1.1133 H   0  0  0  0  0  0  0  0  0  0  0  0
    0.3164   -0.8780   -0.9905 C   0  0  0  0  0  0  0  0  0  0  0  0
    1.3862   -0.6747   -0.8979 H   0  0  0  0  0  0  0  0  0  0  0  0
    0.1917   -1.9623   -0.9529 H   0  0  0  0  0  0  0  0  0  0  0  0
   -0.1531   -0.3973   -2.3473 C   0  0  0  0  0  0  0  0  0  0  0  0
    0.1442    0.8306   -2.9061 N   0  3  0  0  0  0  0  0  0  0  0  0
    0.7726    1.5122   -2.4710 H   0  0  0  0  0  0  0  0  0  0  0  0
   -0.4460    0.9020   -4.1157 C   0  0  0  0  0  0  0  0  0  0  0  0
   -0.3806    1.7462   -4.7991 H   0  0  0  0  0  0  0  0  0  0  0  0
   -1.1125   -0.2537   -4.3362 N   0  0  0  0  0  0  0  0  0  0  0  0
   -1.6488   -0.4841   -5.1686 H   0  0  0  0  0  0  0  0  0  0  0  0
   -0.9390   -1.0810   -3.2352 C   0  0  0  0  0  0  0  0  0  0  0  0
   -1.3437   -2.0796   -3.0956 H   0  0  0  0  0  0  0  0  0  0  0  0
   -0.4874    1.2908    0.1962 C   0  0  0  0  0  0  0  0  0  0  0  0
   -1.3116    1.8673   -0.5151 O   0  0  0  0  0  0  0  0  0  0  0  0
    0.3889    1.9422    0.9708 N   0  0  0  0  0  0  0  0  0  0  0  0
    1.0197    1.3866    1.5283 H   0  0  0  0  0  0  0  0  0  0  0  0
    0.5081    3.3999    1.0720 C   0  0  0  0  0  0  0  0  0  0  0  0
    0.0188    3.7538    1.9817 H   0  0  0  0  0  0  0  0  0  0  0  0
    1.5607    3.6858    1.1098 H   0  0  0  0  0  0  0  0  0  0  0  0
    0.0459    3.8890    0.2119 H   0  0  0  0  0  0  0  0  0  0  0  0
  5  6  2  0  0  0  0
  5  7  1  0  0  0  0
  2  3  1  0  0  0  0
  2  4  1  0  0  0  0
  2  5  1  0  0  0  0
  1  2  1  0  0  0  0
 23 24  2  0  0  0  0
 23 25  1  0  0  0  0
 21 22  1  0  0  0  0
 19 20  1  0  0  0  0
 19 21  1  0  0  0  0
 17 18  1  0  0  0  0
 17 19  1  0  0  0  0
 15 16  1  0  0  0  0
 15 17  2  0  0  0  0
 14 15  1  0  0  0  0
 14 21  2  0  0  0  0
 11 12  1  0  0  0  0
 11 13  1  0  0  0  0
 11 14  1  0  0  0  0
  9 10  1  0  0  0  0
  9 11  1  0  0  0  0
  9 23  1  0  0  0  0
  7  8  1  0  0  0  0
  7  9  1  0  0  0  0
 27 28  1  0  0  0  0
 27 29  1  0  0  0  0
 27 30  1  0  0  0  0
 25 26  1  0  0  0  0
 25 27  1  0  0  0  0
M  CHG  1  15   1
M  END
$$$$
default_name
  -OEChem-02102213163D

 30 30  0     1  0  0  0  0  0999 V2000
   -3.5507   -3.2183    1.8116 H   0  0  0  0  0  0  0  0  0  0  0  0
   -3.4597   -2.3913    1.1076 C   0  0  0  0  0  0  0  0  0  0  0  0
   -4.1577   -1.6043    1.3866 H   0  0  0  0  0  0  0  0  0  0  0  0
   -3.6807   -2.7523    0.1036 H   0  0  0  0  0  0  0  0  0  0  0  0
   -2.0477   -1.8543    1.1546 C   0  0  0  0  0  0  0  0  0  0  0  0
   -1.2227   -2.3443    1.9146 O   0  0  0  0  0  0  0  0  0  0  0  0
   -1.7517   -0.8483    0.3266 N   0  0  0  0  0  0  0  0  0  0  0  0
   -2.4847   -0.5123   -0.2804 H   0  0  0  0  0  0  0  0  0  0  0  0
   -0.4117   -0.2463    0.2186 C   0  0  1  0  0  0  0  0  0  0  0  0
    0.1554   -0.5152    1.1133 H   0  0  0  0  0  0  0  0  0  0  0  0
    0.3164   -0.8780   -0.9905 C   0  0  0  0  0  0  0  0  0  0  0  0
    1.3862   -0.6747   -0.8979 H   0  0  0  0  0  0  0  0  0  0  0  0
    0.1917   -1.9623   -0.9529 H   0  0  0  0  0  0  0  0  0  0  0  0
   -0.1531   -0.3973   -2.3473 C   0  0  0  0  0  0  0  0  0  0  0  0
    0.3646    0.6836   -3.0344 N   0  3  0  0  0  0  0  0  0  0  0  0
    1.1693    1.2271   -2.7092 H   0  0  0  0  0  0  0  0  0  0  0  0
   -0.3021    0.8063   -4.1994 C   0  0  0  0  0  0  0  0  0  0  0  0
   -0.1083    1.5610   -4.9589 H   0  0  0  0  0  0  0  0  0  0  0  0
   -1.2323   -0.1727   -4.2660 N   0  0  0  0  0  0  0  0  0  0  0  0
   -1.8811   -0.3285   -5.0331 H   0  0  0  0  0  0  0  0  0  0  0  0
   -1.1524   -0.9378   -3.1106 C   0  0  0  0  0  0  0  0  0  0  0  0
   -1.7601   -1.8007   -2.8527 H   0  0  0  0  0  0  0  0  0  0  0  0
   -0.4874    1.2908    0.1962 C   0  0  0  0  0  0  0  0  0  0  0  0
   -1.3116    1.8673   -0.5151 O   0  0  0  0  0  0  0  0  0  0  0  0
    0.3889    1.9422    0.9708 N   0  0  0  0  0  0  0  0  0  0  0  0
    1.0197    1.3866    1.5283 H   0  0  0  0  0  0  0  0  0  0  0  0
    0.5081    3.3999    1.0720 C   0  0  0  0  0  0  0  0  0  0  0  0
    0.0188    3.7538    1.9817 H   0  0  0  0  0  0  0  0  0  0  0  0
    1.5607    3.6858    1.1098 H   0  0  0  0  0  0  0  0  0  0  0  0
    0.0459    3.8890    0.2119 H   0  0  0  0  0  0  0  0  0  0  0  0
  5  6  2  0  0  0  0
  5  7  1  0  0  0  0
  2  3  1  0  0  0  0
  2  4  1  0  0  0  0
  2  5  1  0  0  0  0
  1  2  1  0  0  0  0
 23 24  2  0  0  0  0
 23 25  1  0  0  0  0
 21 22  1  0  0  0  0
 19 20  1  0  0  0  0
 19 21  1  0  0  0  0
 17 18  1  0  0  0  0
 17 19  1  0  0  0  0
 15 16  1  0  0  0  0
 15 17  2  0  0  0  0
 14 15  1  0  0  0  0
 14 21  2  0  0  0  0
 11 12  1  0  0  0  0
 11 13  1  0  0  0  0
 11 14  1  0  0  0  0
  9 10  1  0  0  0  0
  9 11  1  0  0  0  0
  9 23  1  0  0  0  0
  7  8  1  0  0  0  0
  7  9  1  0  0  0  0
 27 28  1  0  0  0  0
 27 29  1  0  0  0  0
 27 30  1  0  0  0  0
 25 26  1  0  0  0  0
 25 27  1  0  0  0  0
M  CHG  1  15   1
M  END
$$$$
default_name
  -OEChem-02102213163D

 30 30  0     1  0  0  0  0  0999 V2000
   -3.5507   -3.2183    1.8116 H   0  0  0  0  0  0  0  0  0  0  0  0
   -3.4597   -2.3913    1.1076 C   0  0  0  0  0  0  0  0  0  0  0  0
   -4.1577   -1.6043    1.3866 H   0  0  0  0  0  0  0  0  0  0  0  0
   -3.6807   -2.7523    0.1036 H   0  0  0  0  0  0  0  0  0  0  0  0
   -2.0477   -1.8543    1.1546 C   0  0  0  0  0  0  0  0  0  0  0  0
   -1.2227   -2.3443    1.9146 O   0  0  0  0  0  0  0  0  0  0  0  0
   -1.7517   -0.8483    0.3266 N   0  0  0  0  0  0  0  0  0  0  0  0
   -2.4847   -0.5123   -0.2804 H   0  0  0  0  0  0  0  0  0  0  0  0
   -0.4117   -0.2463    0.2186 C   0  0  1  0  0  0  0  0  0  0  0  0
    0.1554   -0.5152    1.1133 H   0  0  0  0  0  0  0  0  0  0  0  0
    0.3164   -0.8780   -0.9905 C   0  0  0  0  0  0  0  0  0  0  0  0
    1.3862   -0.6747   -0.8979 H   0  0  0  0  0  0  0  0  0  0  0  0
    0.1917   -1.9623   -0.9529 H   0  0  0  0  0  0  0  0  0  0  0  0
   -0.1531   -0.3973   -2.3473 C   0  0  0  0  0  0  0  0  0  0  0  0
    0.5327    0.4802   -3.1646 N   0  3  0  0  0  0  0  0  0  0  0  0
    1.4667    0.8407   -2.9490 H   0  0  0  0  0  0  0  0  0  0  0  0
   -0.1921    0.6738   -4.2844 C   0  0  0  0  0  0  0  0  0  0  0  0
    0.0986    1.3062   -5.1208 H   0  0  0  0  0  0  0  0  0  0  0  0
   -1.3236   -0.0610   -4.1949 N   0  0  0  0  0  0  0  0  0  0  0  0
   -2.0582   -0.1136   -4.8956 H   0  0  0  0  0  0  0  0  0  0  0  0
   -1.3151   -0.7399   -2.9842 C   0  0  0  0  0  0  0  0  0  0  0  0
   -2.0777   -1.4152   -2.6063 H   0  0  0  0  0  0  0  0  0  0  0  0
   -0.4874    1.2908    0.1962 C   0  0  0  0  0  0  0  0  0  0  0  0
   -1.3116    1.8673   -0.5151 O   0  0  0  0  0  0  0  0  0  0  0  0
    0.3889    1.9422    0.9708 N   0  0  0  0  0  0  0  0  0  0  0  0
    1.0197    1.3866    1.5283 H   0  0  0  0  0  0  0  0  0  0  0  0
    0.5081    3.3999    1.0720 C   0  0  0  0  0  0  0  0  0  0  0  0
    0.0188    3.7538    1.9817 H   0  0  0  0  0  0  0  0  0  0  0  0
    1.5607    3.6858    1.1098 H   0  0  0  0  0  0  0  0  0  0  0  0
    0.0459    3.8890    0.2119 H   0  0  0  0  0  0  0  0  0  0  0  0
  5  6  2  0  0  0  0
  5  7  1  0  0  0  0
  2  3  1  0  0  0  0
  2  4  1  0  0  0  0
  2  5  1  0  0  0  0
  1  2  1  0  0  0  0
 23 24  2  0  0  0  0
 23 25  1  0  0  0  0
 21 22  1  0  0  0  0
 19 20  1  0  0  0  0
 19 21  1  0  0  0  0
 17 18  1  0  0  0  0
 17 19  1  0  0  0  0
 15 16  1  0  0  0  0
 15 17  2  0  0  0  0
 14 15  1  0  0  0  0
 14 21  2  0  0  0  0
 11 12  1  0  0  0  0
 11 13  1  0  0  0  0
 11 14  1  0  0  0  0
  9 10  1  0  0  0  0
  9 11  1  0  0  0  0
  9 23  1  0  0  0  0
  7  8  1  0  0  0  0
  7  9  1  0  0  0  0
 27 28  1  0  0  0  0
 27 29  1  0  0  0  0
 27 30  1  0  0  0  0
 25 26  1  0  0  0  0
 25 27  1  0  0  0  0
M  CHG  1  15   1
M  END
$$$$
default_name
  -OEChem-02102213163D

 30 30  0     1  0  0  0  0  0999 V2000
   -3.5507   -3.2183    1.8116 H   0  0  0  0  0  0  0  0  0  0  0  0
   -3.4597   -2.3913    1.1076 C   0  0  0  0  0  0  0  0  0  0  0  0
   -4.1577   -1.6043    1.3866 H   0  0  0  0  0  0  0  0  0  0  0  0
   -3.6807   -2.7523    0.1036 H   0  0  0  0  0  0  0  0  0  0  0  0
   -2.0477   -1.8543    1.1546 C   0  0  0  0  0  0  0  0  0  0  0  0
   -1.2227   -2.3443    1.9146 O   0  0  0  0  0  0  0  0  0  0  0  0
   -1.7517   -0.8483    0.3266 N   0  0  0  0  0  0  0  0  0  0  0  0
   -2.4847   -0.5123   -0.2804 H   0  0  0  0  0  0  0  0  0  0  0  0
   -0.4117   -0.2463    0.2186 C   0  0  1  0  0  0  0  0  0  0  0  0
    0.1554   -0.5152    1.1133 H   0  0  0  0  0  0  0  0  0  0  0  0
    0.3164   -0.8780   -0.9905 C   0  0  0  0  0  0  0  0  0  0  0  0
    1.3862   -0.6747   -0.8979 H   0  0  0  0  0  0  0  0  0  0  0  0
    0.1917   -1.9623   -0.9529 H   0  0  0  0  0  0  0  0  0  0  0  0
   -0.1531   -0.3973   -2.3473 C   0  0  0  0  0  0  0  0  0  0  0  0
    0.6373    0.2343   -3.2880 N   0  3  0  0  0  0  0  0  0  0  0  0
    1.6447    0.3792   -3.1741 H   0  0  0  0  0  0  0  0  0  0  0  0
   -0.1235    0.5135   -4.3649 C   0  0  0  0  0  0  0  0  0  0  0  0
    0.2261    0.9991   -5.2737 H   0  0  0  0  0  0  0  0  0  0  0  0
   -1.3800    0.0737   -4.1276 N   0  0  0  0  0  0  0  0  0  0  0  0
   -2.1682    0.1462   -4.7655 H   0  0  0  0  0  0  0  0  0  0  0  0
   -1.4160   -0.5009   -2.8647 C   0  0  0  0  0  0  0  0  0  0  0  0
   -2.2749   -0.9495   -2.3731 H   0  0  0  0  0  0  0  0  0  0  0  0
   -0.4874    1.2908    0.1962 C   0  0  0  0  0  0  0  0  0  0  0  0
   -1.3116    1.8673   -0.5151 O   0  0  0  0  0  0  0  0  0  0  0  0
    0.3889    1.9422    0.9708 N   0  0  0  0  0  0  0  0  0  0  0  0
    1.0197    1.3866    1.5283 H   0  0  0  0  0  0  0  0  0  0  0  0
    0.5081    3.3999    1.0720 C   0  0  0  0  0  0  0  0  0  0  0  0
    0.0188    3.7538    1.9817 H   0  0  0  0  0  0  0  0  0  0  0  0
    1.5607    3.6858    1.1098 H   0  0  0  0  0  0  0  0  0  0  0  0
    0.0459    3.8890    0.2119 H   0  0  0  0  0  0  0  0  0  0  0  0
  5  6  2  0  0  0  0
  5  7  1  0  0  0  0
  2  3  1  0  0  0  0
  2  4  1  0  0  0  0
  2  5  1  0  0  0  0
  1  2  1  0  0  0  0
 23 24  2  0  0  0  0
 23 25  1  0  0  0  0
 21 22  1  0  0  0  0
 19 20  1  0  0  0  0
 19 21  1  0  0  0  0
 17 18  1  0  0  0  0
 17 19  1  0  0  0  0
 15 16  1  0  0  0  0
 15 17  2  0  0  0  0
 14 15  1  0  0  0  0
 14 21  2  0  0  0  0
 11 12  1  0  0  0  0
 11 13  1  0  0  0  0
 11 14  1  0  0  0  0
  9 10  1  0  0  0  0
  9 11  1  0  0  0  0
  9 23  1  0  0  0  0
  7  8  1  0  0  0  0
  7  9  1  0  0  0  0
 27 28  1  0  0  0  0
 27 29  1  0  0  0  0
 27 30  1  0  0  0  0
 25 26  1  0  0  0  0
 25 27  1  0  0  0  0
M  CHG  1  15   1
M  END
$$$$
default_name
  -OEChem-02102213163D

 30 30  0     1  0  0  0  0  0999 V2000
   -3.5507   -3.2183    1.8116 H   0  0  0  0  0  0  0  0  0  0  0  0
   -3.4597   -2.3913    1.1076 C   0  0  0  0  0  0  0  0  0  0  0  0
   -4.1577   -1.6043    1.3866 H   0  0  0  0  0  0  0  0  0  0  0  0
   -3.6807   -2.7523    0.1036 H   0  0  0  0  0  0  0  0  0  0  0  0
   -2.0477   -1.8543    1.1546 C   0  0  0  0  0  0  0  0  0  0  0  0
   -1.2227   -2.3443    1.9146 O   0  0  0  0  0  0  0  0  0  0  0  0
   -1.7517   -0.8483    0.3266 N   0  0  0  0  0  0  0  0  0  0  0  0
   -2.4847   -0.5123   -0.2804 H   0  0  0  0  0  0  0  0  0  0  0  0
   -0.4117   -0.2463    0.2186 C   0  0  1  0  0  0  0  0  0  0  0  0
    0.1554   -0.5152    1.1133 H   0  0  0  0  0  0  0  0  0  0  0  0
    0.3164   -0.8780   -0.9905 C   0  0  0  0  0  0  0  0  0  0  0  0
    1.3862   -0.6747   -0.8979 H   0  0  0  0  0  0  0  0  0  0  0  0
    0.1917   -1.9623   -0.9529 H   0  0  0  0  0  0  0  0  0  0  0  0
   -0.1531   -0.3973   -2.3473 C   0  0  0  0  0  0  0  0  0  0  0  0
    0.6711   -0.0374   -3.3959 N   0  3  0  0  0  0  0  0  0  0  0  0
    1.6910   -0.1259   -3.3691 H   0  0  0  0  0  0  0  0  0  0  0  0
   -0.1011    0.3363   -4.4354 C   0  0  0  0  0  0  0  0  0  0  0  0
    0.2655    0.6607   -5.4073 H   0  0  0  0  0  0  0  0  0  0  0  0
   -1.3977    0.2224   -4.0688 N   0  0  0  0  0  0  0  0  0  0  0  0
   -2.2035    0.4331   -4.6517 H   0  0  0  0  0  0  0  0  0  0  0  0
   -1.4482   -0.2371   -2.7601 C   0  0  0  0  0  0  0  0  0  0  0  0
   -2.3381   -0.4351   -2.1690 H   0  0  0  0  0  0  0  0  0  0  0  0
   -0.4874    1.2908    0.1962 C   0  0  0  0  0  0  0  0  0  0  0  0
   -1.3116    1.8673   -0.5151 O   0  0  0  0  0  0  0  0  0  0  0  0
    0.3889    1.9422    0.9708 N   0  0  0  0  0  0  0  0  0  0  0  0
    1.0197    1.3866    1.5283 H   0  0  0  0  0  0  0  0  0  0  0  0
    0.5081    3.3999    1.0720 C   0  0  0  0  0  0  0  0  0  0  0  0
    0.0188    3.7538    1.9817 H   0  0  0  0  0  0  0  0  0  0  0  0
    1.5607    3.6858    1.1098 H   0  0  0  0  0  0  0  0  0  0  0  0
    0.0459    3.8890    0.2119 H   0  0  0  0  0  0  0  0  0  0  0  0
  5  6  2  0  0  0  0
  5  7  1  0  0  0  0
  2  3  1  0  0  0  0
  2  4  1  0  0  0  0
  2  5  1  0  0  0  0
  1  2  1  0  0  0  0
 23 24  2  0  0  0  0
 23 25  1  0  0  0  0
 21 22  1  0  0  0  0
 19 20  1  0  0  0  0
 19 21  1  0  0  0  0
 17 18  1  0  0  0  0
 17 19  1  0  0  0  0
 15 16  1  0  0  0  0
 15 17  2  0  0  0  0
 14 15  1  0  0  0  0
 14 21  2  0  0  0  0
 11 12  1  0  0  0  0
 11 13  1  0  0  0  0
 11 14  1  0  0  0  0
  9 10  1  0  0  0  0
  9 11  1  0  0  0  0
  9 23  1  0  0  0  0
  7  8  1  0  0  0  0
  7  9  1  0  0  0  0
 27 28  1  0  0  0  0
 27 29  1  0  0  0  0
 27 30  1  0  0  0  0
 25 26  1  0  0  0  0
 25 27  1  0  0  0  0
M  CHG  1  15   1
M  END
$$$$
default_name
  -OEChem-02102213163D

 30 30  0     1  0  0  0  0  0999 V2000
   -3.5507   -3.2183    1.8116 H   0  0  0  0  0  0  0  0  0  0  0  0
   -3.4597   -2.3913    1.1076 C   0  0  0  0  0  0  0  0  0  0  0  0
   -4.1577   -1.6043    1.3866 H   0  0  0  0  0  0  0  0  0  0  0  0
   -3.6807   -2.7523    0.1036 H   0  0  0  0  0  0  0  0  0  0  0  0
   -2.0477   -1.8543    1.1546 C   0  0  0  0  0  0  0  0  0  0  0  0
   -1.2227   -2.3443    1.9146 O   0  0  0  0  0  0  0  0  0  0  0  0
   -1.7517   -0.8483    0.3266 N   0  0  0  0  0  0  0  0  0  0  0  0
   -2.4847   -0.5123   -0.2804 H   0  0  0  0  0  0  0  0  0  0  0  0
   -0.4117   -0.2463    0.2186 C   0  0  1  0  0  0  0  0  0  0  0  0
    0.1554   -0.5152    1.1133 H   0  0  0  0  0  0  0  0  0  0  0  0
    0.3164   -0.8780   -0.9905 C   0  0  0  0  0  0  0  0  0  0  0  0
    1.3862   -0.6747   -0.8979 H   0  0  0  0  0  0  0  0  0  0  0  0
    0.1917   -1.9623   -0.9529 H   0  0  0  0  0  0  0  0  0  0  0  0
   -0.1531   -0.3973   -2.3473 C   0  0  0  0  0  0  0  0  0  0  0  0
    0.6319   -0.3163   -3.4812 N   0  3  0  0  0  0  0  0  0  0  0  0
    1.6026   -0.6403   -3.5207 H   0  0  0  0  0  0  0  0  0  0  0  0
   -0.1264    0.1543   -4.4912 C   0  0  0  0  0  0  0  0  0  0  0  0
    0.2140    0.3139   -5.5123 H   0  0  0  0  0  0  0  0  0  0  0  0
   -1.3754    0.3748   -4.0225 N   0  0  0  0  0  0  0  0  0  0  0  0
   -2.1617    0.7275   -4.5618 H   0  0  0  0  0  0  0  0  0  0  0  0
   -1.4095    0.0336   -2.6775 C   0  0  0  0  0  0  0  0  0  0  0  0
   -2.2631    0.0927   -2.0079 H   0  0  0  0  0  0  0  0  0  0  0  0
   -0.4874    1.2908    0.1962 C   0  0  0  0  0  0  0  0  0  0  0  0
   -1.3116    1.8673   -0.5151 O   0  0  0  0  0  0  0  0  0  0  0  0
    0.3889    1.9422    0.9708 N   0  0  0  0  0  0  0  0  0  0  0  0
    1.0197    1.3866    1.5283 H   0  0  0  0  0  0  0  0  0  0  0  0
    0.5081    3.3999    1.0720 C   0  0  0  0  0  0  0  0  0  0  0  0
    0.0188    3.7538    1.9817 H   0  0  0  0  0  0  0  0  0  0  0  0
    1.5607    3.6858    1.1098 H   0  0  0  0  0  0  0  0  0  0  0  0
    0.0459    3.8890    0.2119 H   0  0  0  0  0  0  0  0  0  0  0  0
  5  6  2  0  0  0  0
  5  7  1  0  0  0  0
  2  3  1  0  0  0  0
  2  4  1  0  0  0  0
  2  5  1  0  0  0  0
  1  2  1  0  0  0  0
 23 24  2  0  0  0  0
 23 25  1  0  0  0  0
 21 22  1  0  0  0  0
 19 20  1  0  0  0  0
 19 21  1  0  0  0  0
 17 18  1  0  0  0  0
 17 19  1  0  0  0  0
 15 16  1  0  0  0  0
 15 17  2  0  0  0  0
 14 15  1  0  0  0  0
 14 21  2  0  0  0  0
 11 12  1  0  0  0  0
 11 13  1  0  0  0  0
 11 14  1  0  0  0  0
  9 10  1  0  0  0  0
  9 11  1  0  0  0  0
  9 23  1  0  0  0  0
  7  8  1  0  0  0  0
  7  9  1  0  0  0  0
 27 28  1  0  0  0  0
 27 29  1  0  0  0  0
 27 30  1  0  0  0  0
 25 26  1  0  0  0  0
 25 27  1  0  0  0  0
M  CHG  1  15   1
M  END
$$$$
default_name
  -OEChem-02102213163D

 30 30  0     1  0  0  0  0  0999 V2000
   -3.5507   -3.2183    1.8116 H   0  0  0  0  0  0  0  0  0  0  0  0
   -3.4597   -2.3913    1.1076 C   0  0  0  0  0  0  0  0  0  0  0  0
   -4.1577   -1.6043    1.3866 H   0  0  0  0  0  0  0  0  0  0  0  0
   -3.6807   -2.7523    0.1036 H   0  0  0  0  0  0  0  0  0  0  0  0
   -2.0477   -1.8543    1.1546 C   0  0  0  0  0  0  0  0  0  0  0  0
   -1.2227   -2.3443    1.9146 O   0  0  0  0  0  0  0  0  0  0  0  0
   -1.7517   -0.8483    0.3266 N   0  0  0  0  0  0  0  0  0  0  0  0
   -2.4847   -0.5123   -0.2804 H   0  0  0  0  0  0  0  0  0  0  0  0
   -0.4117   -0.2463    0.2186 C   0  0  1  0  0  0  0  0  0  0  0  0
    0.1554   -0.5152    1.1133 H   0  0  0  0  0  0  0  0  0  0  0  0
    0.3164   -0.8780   -0.9905 C   0  0  0  0  0  0  0  0  0  0  0  0
    1.3862   -0.6747   -0.8979 H   0  0  0  0  0  0  0  0  0  0  0  0
    0.1917   -1.9623   -0.9529 H   0  0  0  0  0  0  0  0  0  0  0  0
   -0.1531   -0.3973   -2.3473 C   0  0  0  0  0  0  0  0  0  0  0  0
    0.5224   -0.5835   -3.5379 N   0  3  0  0  0  0  0  0  0  0  0  0
    1.3855   -1.1287   -3.6186 H   0  0  0  0  0  0  0  0  0  0  0  0
   -0.1976   -0.0202   -4.5284 C   0  0  0  0  0  0  0  0  0  0  0  0
    0.0752   -0.0176   -5.5817 H   0  0  0  0  0  0  0  0  0  0  0  0
   -1.3148    0.5205   -3.9919 N   0  0  0  0  0  0  0  0  0  0  0  0
   -2.0457    1.0094   -4.5021 H   0  0  0  0  0  0  0  0  0  0  0  0
   -1.3026    0.2928   -2.6227 C   0  0  0  0  0  0  0  0  0  0  0  0
   -2.0550    0.5981   -1.9008 H   0  0  0  0  0  0  0  0  0  0  0  0
   -0.4874    1.2908    0.1962 C   0  0  0  0  0  0  0  0  0  0  0  0
   -1.3116    1.8673   -0.5151 O   0  0  0  0  0  0  0  0  0  0  0  0
    0.3889    1.9422    0.9708 N   0  0  0  0  0  0  0  0  0  0  0  0
    1.0197    1.3866    1.5283 H   0  0  0  0  0  0  0  0  0  0  0  0
    0.5081    3.3999    1.0720 C   0  0  0  0  0  0  0  0  0  0  0  0
    0.0188    3.7538    1.9817 H   0  0  0  0  0  0  0  0  0  0  0  0
    1.5607    3.6858    1.1098 H   0  0  0  0  0  0  0  0  0  0  0  0
    0.0459    3.8890    0.2119 H   0  0  0  0  0  0  0  0  0  0  0  0
  5  6  2  0  0  0  0
  5  7  1  0  0  0  0
  2  3  1  0  0  0  0
  2  4  1  0  0  0  0
  2  5  1  0  0  0  0
  1  2  1  0  0  0  0
 23 24  2  0  0  0  0
 23 25  1  0  0  0  0
 21 22  1  0  0  0  0
 19 20  1  0  0  0  0
 19 21  1  0  0  0  0
 17 18  1  0  0  0  0
 17 19  1  0  0  0  0
 15 16  1  0  0  0  0
 15 17  2  0  0  0  0
 14 15  1  0  0  0  0
 14 21  2  0  0  0  0
 11 12  1  0  0  0  0
 11 13  1  0  0  0  0
 11 14  1  0  0  0  0
  9 10  1  0  0  0  0
  9 11  1  0  0  0  0
  9 23  1  0  0  0  0
  7  8  1  0  0  0  0
  7  9  1  0  0  0  0
 27 28  1  0  0  0  0
 27 29  1  0  0  0  0
 27 30  1  0  0  0  0
 25 26  1  0  0  0  0
 25 27  1  0  0  0  0
M  CHG  1  15   1
M  END
$$$$
default_name
  -OEChem-02102213163D

 30 30  0     1  0  0  0  0  0999 V2000
   -3.5507   -3.2183    1.8116 H   0  0  0  0  0  0  0  0  0  0  0  0
   -3.4597   -2.3913    1.1076 C   0  0  0  0  0  0  0  0  0  0  0  0
   -4.1577   -1.6043    1.3866 H   0  0  0  0  0  0  0  0  0  0  0  0
   -3.6807   -2.7523    0.1036 H   0  0  0  0  0  0  0  0  0  0  0  0
   -2.0477   -1.8543    1.1546 C   0  0  0  0  0  0  0  0  0  0  0  0
   -1.2227   -2.3443    1.9146 O   0  0  0  0  0  0  0  0  0  0  0  0
   -1.7517   -0.8483    0.3266 N   0  0  0  0  0  0  0  0  0  0  0  0
   -2.4847   -0.5123   -0.2804 H   0  0  0  0  0  0  0  0  0  0  0  0
   -0.4117   -0.2463    0.2186 C   0  0  1  0  0  0  0  0  0  0  0  0
    0.1554   -0.5152    1.1133 H   0  0  0  0  0  0  0  0  0  0  0  0
    0.3164   -0.8780   -0.9905 C   0  0  0  0  0  0  0  0  0  0  0  0
    1.3867   -0.9142   -0.7725 H   0  0  0  0  0  0  0  0  0  0  0  0
   -0.0217   -1.9097   -1.1090 H   0  0  0  0  0  0  0  0  0  0  0  0
    0.1140   -0.1623   -2.3093 C   0  0  0  0  0  0  0  0  0  0  0  0
    0.6644   -0.5440   -3.5175 N   0  3  0  0  0  0  0  0  0  0  0  0
    1.2170   -1.3971   -3.6424 H   0  0  0  0  0  0  0  0  0  0  0  0
    0.2647    0.3301   -4.4624 C   0  0  0  0  0  0  0  0  0  0  0  0
    0.5282    0.2811   -5.5170 H   0  0  0  0  0  0  0  0  0  0  0  0
   -0.5266    1.2590   -3.8797 N   0  0  0  0  0  0  0  0  0  0  0  0
   -0.9745    2.0412   -4.3498 H   0  0  0  0  0  0  0  0  0  0  0  0
   -0.6316    0.9646   -2.5274 C   0  0  0  0  0  0  0  0  0  0  0  0
   -1.1946    1.5151   -1.7787 H   0  0  0  0  0  0  0  0  0  0  0  0
   -0.4874    1.2908    0.1962 C   0  0  0  0  0  0  0  0  0  0  0  0
   -1.3116    1.8673   -0.5151 O   0  0  0  0  0  0  0  0  0  0  0  0
    0.3889    1.9422    0.9708 N   0  0  0  0  0  0  0  0  0  0  0  0
    1.0197    1.3866    1.5283 H   0  0  0  0  0  0  0  0  0  0  0  0
    0.5081    3.3999    1.0720 C   0  0  0  0  0  0  0  0  0  0  0  0
    0.0188    3.7538    1.9817 H   0  0  0  0  0  0  0  0  0  0  0  0
    1.5607    3.6858    1.1098 H   0  0  0  0  0  0  0  0  0  0  0  0
    0.0459    3.8890    0.2119 H   0  0  0  0  0  0  0  0  0  0  0  0
  5  6  2  0  0  0  0
  5  7  1  0  0  0  0
  2  3  1  0  0  0  0
  2  4  1  0  0  0  0
  2  5  1  0  0  0  0
  1  2  1  0  0  0  0
 23 24  2  0  0  0  0
 23 25  1  0  0  0  0
 21 22  1  0  0  0  0
 19 20  1  0  0  0  0
 19 21  1  0  0  0  0
 17 18  1  0  0  0  0
 17 19  1  0  0  0  0
 15 16  1  0  0  0  0
 15 17  2  0  0  0  0
 14 15  1  0  0  0  0
 14 21  2  0  0  0  0
 11 12  1  0  0  0  0
 11 13  1  0  0  0  0
 11 14  1  0  0  0  0
  9 10  1  0  0  0  0
  9 11  1  0  0  0  0
  9 23  1  0  0  0  0
  7  8  1  0  0  0  0
  7  9  1  0  0  0  0
 27 28  1  0  0  0  0
 27 29  1  0  0  0  0
 27 30  1  0  0  0  0
 25 26  1  0  0  0  0
 25 27  1  0  0  0  0
M  CHG  1  15   1
M  END
$$$$
default_name
  -OEChem-02102213163D

 30 30  0     1  0  0  0  0  0999 V2000
   -3.5507   -3.2183    1.8116 H   0  0  0  0  0  0  0  0  0  0  0  0
   -3.4597   -2.3913    1.1076 C   0  0  0  0  0  0  0  0  0  0  0  0
   -4.1577   -1.6043    1.3866 H   0  0  0  0  0  0  0  0  0  0  0  0
   -3.6807   -2.7523    0.1036 H   0  0  0  0  0  0  0  0  0  0  0  0
   -2.0477   -1.8543    1.1546 C   0  0  0  0  0  0  0  0  0  0  0  0
   -1.2227   -2.3443    1.9146 O   0  0  0  0  0  0  0  0  0  0  0  0
   -1.7517   -0.8483    0.3266 N   0  0  0  0  0  0  0  0  0  0  0  0
   -2.4847   -0.5123   -0.2804 H   0  0  0  0  0  0  0  0  0  0  0  0
   -0.4117   -0.2463    0.2186 C   0  0  1  0  0  0  0  0  0  0  0  0
    0.1554   -0.5152    1.1133 H   0  0  0  0  0  0  0  0  0  0  0  0
    0.3164   -0.8780   -0.9905 C   0  0  0  0  0  0  0  0  0  0  0  0
    1.3867   -0.9142   -0.7725 H   0  0  0  0  0  0  0  0  0  0  0  0
   -0.0217   -1.9097   -1.1090 H   0  0  0  0  0  0  0  0  0  0  0  0
    0.1140   -0.1623   -2.3093 C   0  0  0  0  0  0  0  0  0  0  0  0
    0.4082   -0.6840   -3.5542 N   0  3  0  0  0  0  0  0  0  0  0  0
    0.7360   -1.6429   -3.7019 H   0  0  0  0  0  0  0  0  0  0  0  0
    0.0977    0.2385   -4.4865 C   0  0  0  0  0  0  0  0  0  0  0  0
    0.2082    0.1091   -5.5613 H   0  0  0  0  0  0  0  0  0  0  0  0
   -0.3862    1.3348   -3.8601 N   0  0  0  0  0  0  0  0  0  0  0  0
   -0.7038    2.1887   -4.3113 H   0  0  0  0  0  0  0  0  0  0  0  0
   -0.3826    1.1000   -2.4921 C   0  0  0  0  0  0  0  0  0  0  0  0
   -0.7092    1.7794   -1.7097 H   0  0  0  0  0  0  0  0  0  0  0  0
   -0.4874    1.2908    0.1962 C   0  0  0  0  0  0  0  0  0  0  0  0
   -1.3116    1.8673   -0.5151 O   0  0  0  0  0  0  0  0  0  0  0  0
    0.3889    1.9422    0.9708 N   0  0  0  0  0  0  0  0  0  0  0  0
    1.0197    1.3866    1.5283 H   0  0  0  0  0  0  0  0  0  0  0  0
    0.5081    3.3999    1.0720 C   0  0  0  0  0  0  0  0  0  0  0  0
    0.0188    3.7538    1.9817 H   0  0  0  0  0  0  0  0  0  0  0  0
    1.5607    3.6858    1.1098 H   0  0  0  0  0  0  0  0  0  0  0  0
    0.0459    3.8890    0.2119 H   0  0  0  0  0  0  0  0  0  0  0  0
  5  6  2  0  0  0  0
  5  7  1  0  0  0  0
  2  3  1  0  0  0  0
  2  4  1  0  0  0  0
  2  5  1  0  0  0  0
  1  2  1  0  0  0  0
 23 24  2  0  0  0  0
 23 25  1  0  0  0  0
 21 22  1  0  0  0  0
 19 20  1  0  0  0  0
 19 21  1  0  0  0  0
 17 18  1  0  0  0  0
 17 19  1  0  0  0  0
 15 16  1  0  0  0  0
 15 17  2  0  0  0  0
 14 15  1  0  0  0  0
 14 21  2  0  0  0  0
 11 12  1  0  0  0  0
 11 13  1  0  0  0  0
 11 14  1  0  0  0  0
  9 10  1  0  0  0  0
  9 11  1  0  0  0  0
  9 23  1  0  0  0  0
  7  8  1  0  0  0  0
  7  9  1  0  0  0  0
 27 28  1  0  0  0  0
 27 29  1  0  0  0  0
 27 30  1  0  0  0  0
 25 26  1  0  0  0  0
 25 27  1  0  0  0  0
M  CHG  1  15   1
M  END
$$$$
default_name
  -OEChem-02102213163D

 30 30  0     1  0  0  0  0  0999 V2000
   -3.5507   -3.2183    1.8116 H   0  0  0  0  0  0  0  0  0  0  0  0
   -3.4597   -2.3913    1.1076 C   0  0  0  0  0  0  0  0  0  0  0  0
   -4.1577   -1.6043    1.3866 H   0  0  0  0  0  0  0  0  0  0  0  0
   -3.6807   -2.7523    0.1036 H   0  0  0  0  0  0  0  0  0  0  0  0
   -2.0477   -1.8543    1.1546 C   0  0  0  0  0  0  0  0  0  0  0  0
   -1.2227   -2.3443    1.9146 O   0  0  0  0  0  0  0  0  0  0  0  0
   -1.7517   -0.8483    0.3266 N   0  0  0  0  0  0  0  0  0  0  0  0
   -2.4847   -0.5123   -0.2804 H   0  0  0  0  0  0  0  0  0  0  0  0
   -0.4117   -0.2463    0.2186 C   0  0  1  0  0  0  0  0  0  0  0  0
    0.1554   -0.5152    1.1133 H   0  0  0  0  0  0  0  0  0  0  0  0
    0.3164   -0.8780   -0.9905 C   0  0  0  0  0  0  0  0  0  0  0  0
    1.3867   -0.9142   -0.7725 H   0  0  0  0  0  0  0  0  0  0  0  0
   -0.0217   -1.9097   -1.1090 H   0  0  0  0  0  0  0  0  0  0  0  0
    0.1140   -0.1623   -2.3093 C   0  0  0  0  0  0  0  0  0  0  0  0
    0.1246   -0.7628   -3.5534 N   0  3  0  0  0  0  0  0  0  0  0  0
    0.2087   -1.7739   -3.6921 H   0  0  0  0  0  0  0  0  0  0  0  0
   -0.0873    0.1868   -4.4862 C   0  0  0  0  0  0  0  0  0  0  0  0
   -0.1451    0.0136   -5.5589 H   0  0  0  0  0  0  0  0  0  0  0  0
   -0.2310    1.3772   -3.8610 N   0  0  0  0  0  0  0  0  0  0  0  0
   -0.4044    2.2714   -4.3124 H   0  0  0  0  0  0  0  0  0  0  0  0
   -0.1072    1.1759   -2.4932 C   0  0  0  0  0  0  0  0  0  0  0  0
   -0.1724    1.9277   -1.7116 H   0  0  0  0  0  0  0  0  0  0  0  0
   -0.4874    1.2908    0.1962 C   0  0  0  0  0  0  0  0  0  0  0  0
   -1.3116    1.8673   -0.5151 O   0  0  0  0  0  0  0  0  0  0  0  0
    0.3889    1.9422    0.9708 N   0  0  0  0  0  0  0  0  0  0  0  0
    1.0197    1.3866    1.5283 H   0  0  0  0  0  0  0  0  0  0  0  0
    0.5081    3.3999    1.0720 C   0  0  0  0  0  0  0  0  0  0  0  0
    0.0188    3.7538    1.9817 H   0  0  0  0  0  0  0  0  0  0  0  0
    1.5607    3.6858    1.1098 H   0  0  0  0  0  0  0  0  0  0  0  0
    0.0459    3.8890    0.2119 H   0  0  0  0  0  0  0  0  0  0  0  0
  5  6  2  0  0  0  0
  5  7  1  0  0  0  0
  2  3  1  0  0  0  0
  2  4  1  0  0  0  0
  2  5  1  0  0  0  0
  1  2  1  0  0  0  0
 23 24  2  0  0  0  0
 23 25  1  0  0  0  0
 21 22  1  0  0  0  0
 19 20  1  0  0  0  0
 19 21  1  0  0  0  0
 17 18  1  0  0  0  0
 17 19  1  0  0  0  0
 15 16  1  0  0  0  0
 15 17  2  0  0  0  0
 14 15  1  0  0  0  0
 14 21  2  0  0  0  0
 11 12  1  0  0  0  0
 11 13  1  0  0  0  0
 11 14  1  0  0  0  0
  9 10  1  0  0  0  0
  9 11  1  0  0  0  0
  9 23  1  0  0  0  0
  7  8  1  0  0  0  0
  7  9  1  0  0  0  0
 27 28  1  0  0  0  0
 27 29  1  0  0  0  0
 27 30  1  0  0  0  0
 25 26  1  0  0  0  0
 25 27  1  0  0  0  0
M  CHG  1  15   1
M  END
$$$$
default_name
  -OEChem-02102213163D

 30 30  0     1  0  0  0  0  0999 V2000
   -3.5507   -3.2183    1.8116 H   0  0  0  0  0  0  0  0  0  0  0  0
   -3.4597   -2.3913    1.1076 C   0  0  0  0  0  0  0  0  0  0  0  0
   -4.1577   -1.6043    1.3866 H   0  0  0  0  0  0  0  0  0  0  0  0
   -3.6807   -2.7523    0.1036 H   0  0  0  0  0  0  0  0  0  0  0  0
   -2.0477   -1.8543    1.1546 C   0  0  0  0  0  0  0  0  0  0  0  0
   -1.2227   -2.3443    1.9146 O   0  0  0  0  0  0  0  0  0  0  0  0
   -1.7517   -0.8483    0.3266 N   0  0  0  0  0  0  0  0  0  0  0  0
   -2.4847   -0.5123   -0.2804 H   0  0  0  0  0  0  0  0  0  0  0  0
   -0.4117   -0.2463    0.2186 C   0  0  1  0  0  0  0  0  0  0  0  0
    0.1554   -0.5152    1.1133 H   0  0  0  0  0  0  0  0  0  0  0  0
    0.3164   -0.8780   -0.9905 C   0  0  0  0  0  0  0  0  0  0  0  0
    1.3867   -0.9142   -0.7725 H   0  0  0  0  0  0  0  0  0  0  0  0
   -0.0217   -1.9097   -1.1090 H   0  0  0  0  0  0  0  0  0  0  0  0
    0.1140   -0.1623   -2.3093 C   0  0  0  0  0  0  0  0  0  0  0  0
   -0.1670   -0.7749   -3.5152 N   0  3  0  0  0  0  0  0  0  0  0  0
   -0.3290   -1.7812   -3.6136 H   0  0  0  0  0  0  0  0  0  0  0  0
   -0.2775    0.1786   -4.4614 C   0  0  0  0  0  0  0  0  0  0  0  0
   -0.5076    0.0011   -5.5100 H   0  0  0  0  0  0  0  0  0  0  0  0
   -0.0717    1.3830   -3.8822 N   0  0  0  0  0  0  0  0  0  0  0  0
   -0.0967    2.2838   -4.3529 H   0  0  0  0  0  0  0  0  0  0  0  0
    0.1758    1.1870   -2.5306 C   0  0  0  0  0  0  0  0  0  0  0  0
    0.3794    1.9499   -1.7843 H   0  0  0  0  0  0  0  0  0  0  0  0
   -0.4874    1.2908    0.1962 C   0  0  0  0  0  0  0  0  0  0  0  0
   -1.3116    1.8673   -0.5151 O   0  0  0  0  0  0  0  0  0  0  0  0
    0.3889    1.9422    0.9708 N   0  0  0  0  0  0  0  0  0  0  0  0
    1.0197    1.3866    1.5283 H   0  0  0  0  0  0  0  0  0  0  0  0
    0.5081    3.3999    1.0720 C   0  0  0  0  0  0  0  0  0  0  0  0
    0.0188    3.7538    1.9817 H   0  0  0  0  0  0  0  0  0  0  0  0
    1.5607    3.6858    1.1098 H   0  0  0  0  0  0  0  0  0  0  0  0
    0.0459    3.8890    0.2119 H   0  0  0  0  0  0  0  0  0  0  0  0
  5  6  2  0  0  0  0
  5  7  1  0  0  0  0
  2  3  1  0  0  0  0
  2  4  1  0  0  0  0
  2  5  1  0  0  0  0
  1  2  1  0  0  0  0
 23 24  2  0  0  0  0
 23 25  1  0  0  0  0
 21 22  1  0  0  0  0
 19 20  1  0  0  0  0
 19 21  1  0  0  0  0
 17 18  1  0  0  0  0
 17 19  1  0  0  0  0
 15 16  1  0  0  0  0
 15 17  2  0  0  0  0
 14 15  1  0  0  0  0
 14 21  2  0  0  0  0
 11 12  1  0  0  0  0
 11 13  1  0  0  0  0
 11 14  1  0  0  0  0
  9 10  1  0  0  0  0
  9 11  1  0  0  0  0
  9 23  1  0  0  0  0
  7  8  1  0  0  0  0
  7  9  1  0  0  0  0
 27 28  1  0  0  0  0
 27 29  1  0  0  0  0
 27 30  1  0  0  0  0
 25 26  1  0  0  0  0
 25 27  1  0  0  0  0
M  CHG  1  15   1
M  END
$$$$
default_name
  -OEChem-02102213163D

 30 30  0     1  0  0  0  0  0999 V2000
   -3.5507   -3.2183    1.8116 H   0  0  0  0  0  0  0  0  0  0  0  0
   -3.4597   -2.3913    1.1076 C   0  0  0  0  0  0  0  0  0  0  0  0
   -4.1577   -1.6043    1.3866 H   0  0  0  0  0  0  0  0  0  0  0  0
   -3.6807   -2.7523    0.1036 H   0  0  0  0  0  0  0  0  0  0  0  0
   -2.0477   -1.8543    1.1546 C   0  0  0  0  0  0  0  0  0  0  0  0
   -1.2227   -2.3443    1.9146 O   0  0  0  0  0  0  0  0  0  0  0  0
   -1.7517   -0.8483    0.3266 N   0  0  0  0  0  0  0  0  0  0  0  0
   -2.4847   -0.5123   -0.2804 H   0  0  0  0  0  0  0  0  0  0  0  0
   -0.4117   -0.2463    0.2186 C   0  0  1  0  0  0  0  0  0  0  0  0
    0.1554   -0.5152    1.1133 H   0  0  0  0  0  0  0  0  0  0  0  0
    0.3164   -0.8780   -0.9905 C   0  0  0  0  0  0  0  0  0  0  0  0
    1.3867   -0.9142   -0.7725 H   0  0  0  0  0  0  0  0  0  0  0  0
   -0.0217   -1.9097   -1.1090 H   0  0  0  0  0  0  0  0  0  0  0  0
    0.1140   -0.1623   -2.3093 C   0  0  0  0  0  0  0  0  0  0  0  0
   -0.4467   -0.7195   -3.4423 N   0  3  0  0  0  0  0  0  0  0  0  0
   -0.8404   -1.6644   -3.4717 H   0  0  0  0  0  0  0  0  0  0  0  0
   -0.4601    0.2145   -4.4140 C   0  0  0  0  0  0  0  0  0  0  0  0
   -0.8546    0.0724   -5.4181 H   0  0  0  0  0  0  0  0  0  0  0  0
    0.0809    1.3521   -3.9224 N   0  0  0  0  0  0  0  0  0  0  0  0
    0.1985    2.2250   -4.4301 H   0  0  0  0  0  0  0  0  0  0  0  0
    0.4470    1.1327   -2.6017 C   0  0  0  0  0  0  0  0  0  0  0  0
    0.9084    1.8444   -1.9227 H   0  0  0  0  0  0  0  0  0  0  0  0
   -0.4874    1.2908    0.1962 C   0  0  0  0  0  0  0  0  0  0  0  0
   -1.3116    1.8673   -0.5151 O   0  0  0  0  0  0  0  0  0  0  0  0
    0.3889    1.9422    0.9708 N   0  0  0  0  0  0  0  0  0  0  0  0
    1.0197    1.3866    1.5283 H   0  0  0  0  0  0  0  0  0  0  0  0
    0.5081    3.3999    1.0720 C   0  0  0  0  0  0  0  0  0  0  0  0
    0.0188    3.7538    1.9817 H   0  0  0  0  0  0  0  0  0  0  0  0
    1.5607    3.6858    1.1098 H   0  0  0  0  0  0  0  0  0  0  0  0
    0.0459    3.8890    0.2119 H   0  0  0  0  0  0  0  0  0  0  0  0
  5  6  2  0  0  0  0
  5  7  1  0  0  0  0
  2  3  1  0  0  0  0
  2  4  1  0  0  0  0
  2  5  1  0  0  0  0
  1  2  1  0  0  0  0
 23 24  2  0  0  0  0
 23 25  1  0  0  0  0
 21 22  1  0  0  0  0
 19 20  1  0  0  0  0
 19 21  1  0  0  0  0
 17 18  1  0  0  0  0
 17 19  1  0  0  0  0
 15 16  1  0  0  0  0
 15 17  2  0  0  0  0
 14 15  1  0  0  0  0
 14 21  2  0  0  0  0
 11 12  1  0  0  0  0
 11 13  1  0  0  0  0
 11 14  1  0  0  0  0
  9 10  1  0  0  0  0
  9 11  1  0  0  0  0
  9 23  1  0  0  0  0
  7  8  1  0  0  0  0
  7  9  1  0  0  0  0
 27 28  1  0  0  0  0
 27 29  1  0  0  0  0
 27 30  1  0  0  0  0
 25 26  1  0  0  0  0
 25 27  1  0  0  0  0
M  CHG  1  15   1
M  END
$$$$
default_name
  -OEChem-02102213163D

 30 30  0     1  0  0  0  0  0999 V2000
   -3.5507   -3.2183    1.8116 H   0  0  0  0  0  0  0  0  0  0  0  0
   -3.4597   -2.3913    1.1076 C   0  0  0  0  0  0  0  0  0  0  0  0
   -4.1577   -1.6043    1.3866 H   0  0  0  0  0  0  0  0  0  0  0  0
   -3.6807   -2.7523    0.1036 H   0  0  0  0  0  0  0  0  0  0  0  0
   -2.0477   -1.8543    1.1546 C   0  0  0  0  0  0  0  0  0  0  0  0
   -1.2227   -2.3443    1.9146 O   0  0  0  0  0  0  0  0  0  0  0  0
   -1.7517   -0.8483    0.3266 N   0  0  0  0  0  0  0  0  0  0  0  0
   -2.4847   -0.5123   -0.2804 H   0  0  0  0  0  0  0  0  0  0  0  0
   -0.4117   -0.2463    0.2186 C   0  0  1  0  0  0  0  0  0  0  0  0
    0.1554   -0.5152    1.1133 H   0  0  0  0  0  0  0  0  0  0  0  0
    0.3164   -0.8780   -0.9905 C   0  0  0  0  0  0  0  0  0  0  0  0
    1.3867   -0.9142   -0.7725 H   0  0  0  0  0  0  0  0  0  0  0  0
   -0.0217   -1.9097   -1.1090 H   0  0  0  0  0  0  0  0  0  0  0  0
    0.1140   -0.1623   -2.3093 C   0  0  0  0  0  0  0  0  0  0  0  0
   -0.6954   -0.6005   -3.3395 N   0  3  0  0  0  0  0  0  0  0  0  0
   -1.2907   -1.4314   -3.2761 H   0  0  0  0  0  0  0  0  0  0  0  0
   -0.6226    0.2919   -4.3470 C   0  0  0  0  0  0  0  0  0  0  0  0
   -1.1625    0.2227   -5.2893 H   0  0  0  0  0  0  0  0  0  0  0  0
    0.2164    1.2863   -3.9789 N   0  0  0  0  0  0  0  0  0  0  0  0
    0.4608    2.0990   -4.5387 H   0  0  0  0  0  0  0  0  0  0  0  0
    0.6881    1.0166   -2.7017 C   0  0  0  0  0  0  0  0  0  0  0  0
    1.3788    1.6184   -2.1175 H   0  0  0  0  0  0  0  0  0  0  0  0
   -0.4874    1.2908    0.1962 C   0  0  0  0  0  0  0  0  0  0  0  0
   -1.3116    1.8673   -0.5151 O   0  0  0  0  0  0  0  0  0  0  0  0
    0.3889    1.9422    0.9708 N   0  0  0  0  0  0  0  0  0  0  0  0
    1.0197    1.3866    1.5283 H   0  0  0  0  0  0  0  0  0  0  0  0
    0.5081    3.3999    1.0720 C   0  0  0  0  0  0  0  0  0  0  0  0
    0.0188    3.7538    1.9817 H   0  0  0  0  0  0  0  0  0  0  0  0
    1.5607    3.6858    1.1098 H   0  0  0  0  0  0  0  0  0  0  0  0
    0.0459    3.8890    0.2119 H   0  0  0  0  0  0  0  0  0  0  0  0
  5  6  2  0  0  0  0
  5  7  1  0  0  0  0
  2  3  1  0  0  0  0
  2  4  1  0  0  0  0
  2  5  1  0  0  0  0
  1  2  1  0  0  0  0
 23 24  2  0  0  0  0
 23 25  1  0  0  0  0
 21 22  1  0  0  0  0
 19 20  1  0  0  0  0
 19 21  1  0  0  0  0
 17 18  1  0  0  0  0
 17 19  1  0  0  0  0
 15 16  1  0  0  0  0
 15 17  2  0  0  0  0
 14 15  1  0  0  0  0
 14 21  2  0  0  0  0
 11 12  1  0  0  0  0
 11 13  1  0  0  0  0
 11 14  1  0  0  0  0
  9 10  1  0  0  0  0
  9 11  1  0  0  0  0
  9 23  1  0  0  0  0
  7  8  1  0  0  0  0
  7  9  1  0  0  0  0
 27 28  1  0  0  0  0
 27 29  1  0  0  0  0
 27 30  1  0  0  0  0
 25 26  1  0  0  0  0
 25 27  1  0  0  0  0
M  CHG  1  15   1
M  END
$$$$
default_name
  -OEChem-02102213163D

 30 30  0     1  0  0  0  0  0999 V2000
   -3.5507   -3.2183    1.8116 H   0  0  0  0  0  0  0  0  0  0  0  0
   -3.4597   -2.3913    1.1076 C   0  0  0  0  0  0  0  0  0  0  0  0
   -4.1577   -1.6043    1.3866 H   0  0  0  0  0  0  0  0  0  0  0  0
   -3.6807   -2.7523    0.1036 H   0  0  0  0  0  0  0  0  0  0  0  0
   -2.0477   -1.8543    1.1546 C   0  0  0  0  0  0  0  0  0  0  0  0
   -1.2227   -2.3443    1.9146 O   0  0  0  0  0  0  0  0  0  0  0  0
   -1.7517   -0.8483    0.3266 N   0  0  0  0  0  0  0  0  0  0  0  0
   -2.4847   -0.5123   -0.2804 H   0  0  0  0  0  0  0  0  0  0  0  0
   -0.4117   -0.2463    0.2186 C   0  0  1  0  0  0  0  0  0  0  0  0
    0.1554   -0.5152    1.1133 H   0  0  0  0  0  0  0  0  0  0  0  0
    0.3164   -0.8780   -0.9905 C   0  0  0  0  0  0  0  0  0  0  0  0
    1.3867   -0.9142   -0.7725 H   0  0  0  0  0  0  0  0  0  0  0  0
   -0.0217   -1.9097   -1.1090 H   0  0  0  0  0  0  0  0  0  0  0  0
    0.1140   -0.1623   -2.3093 C   0  0  0  0  0  0  0  0  0  0  0  0
   -0.8963   -0.4259   -3.2139 N   0  3  0  0  0  0  0  0  0  0  0  0
   -1.6492   -1.0980   -3.0402 H   0  0  0  0  0  0  0  0  0  0  0  0
   -0.7540    0.4056   -4.2651 C   0  0  0  0  0  0  0  0  0  0  0  0
   -1.4102    0.4417   -5.1324 H   0  0  0  0  0  0  0  0  0  0  0  0
    0.3255    1.1904   -4.0477 N   0  0  0  0  0  0  0  0  0  0  0  0
    0.6725    1.9144   -4.6714 H   0  0  0  0  0  0  0  0  0  0  0  0
    0.8826    0.8467   -2.8238 C   0  0  0  0  0  0  0  0  0  0  0  0
    1.7583    1.2874   -2.3554 H   0  0  0  0  0  0  0  0  0  0  0  0
   -0.4874    1.2908    0.1962 C   0  0  0  0  0  0  0  0  0  0  0  0
   -1.3116    1.8673   -0.5151 O   0  0  0  0  0  0  0  0  0  0  0  0
    0.3889    1.9422    0.9708 N   0  0  0  0  0  0  0  0  0  0  0  0
    1.0197    1.3866    1.5283 H   0  0  0  0  0  0  0  0  0  0  0  0
    0.5081    3.3999    1.0720 C   0  0  0  0  0  0  0  0  0  0  0  0
    0.0188    3.7538    1.9817 H   0  0  0  0  0  0  0  0  0  0  0  0
    1.5607    3.6858    1.1098 H   0  0  0  0  0  0  0  0  0  0  0  0
    0.0459    3.8890    0.2119 H   0  0  0  0  0  0  0  0  0  0  0  0
  5  6  2  0  0  0  0
  5  7  1  0  0  0  0
  2  3  1  0  0  0  0
  2  4  1  0  0  0  0
  2  5  1  0  0  0  0
  1  2  1  0  0  0  0
 23 24  2  0  0  0  0
 23 25  1  0  0  0  0
 21 22  1  0  0  0  0
 19 20  1  0  0  0  0
 19 21  1  0  0  0  0
 17 18  1  0  0  0  0
 17 19  1  0  0  0  0
 15 16  1  0  0  0  0
 15 17  2  0  0  0  0
 14 15  1  0  0  0  0
 14 21  2  0  0  0  0
 11 12  1  0  0  0  0
 11 13  1  0  0  0  0
 11 14  1  0  0  0  0
  9 10  1  0  0  0  0
  9 11  1  0  0  0  0
  9 23  1  0  0  0  0
  7  8  1  0  0  0  0
  7  9  1  0  0  0  0
 27 28  1  0  0  0  0
 27 29  1  0  0  0  0
 27 30  1  0  0  0  0
 25 26  1  0  0  0  0
 25 27  1  0  0  0  0
M  CHG  1  15   1
M  END
$$$$
default_name
  -OEChem-02102213163D

 30 30  0     1  0  0  0  0  0999 V2000
   -3.5507   -3.2183    1.8116 H   0  0  0  0  0  0  0  0  0  0  0  0
   -3.4597   -2.3913    1.1076 C   0  0  0  0  0  0  0  0  0  0  0  0
   -4.1577   -1.6043    1.3866 H   0  0  0  0  0  0  0  0  0  0  0  0
   -3.6807   -2.7523    0.1036 H   0  0  0  0  0  0  0  0  0  0  0  0
   -2.0477   -1.8543    1.1546 C   0  0  0  0  0  0  0  0  0  0  0  0
   -1.2227   -2.3443    1.9146 O   0  0  0  0  0  0  0  0  0  0  0  0
   -1.7517   -0.8483    0.3266 N   0  0  0  0  0  0  0  0  0  0  0  0
   -2.4847   -0.5123   -0.2804 H   0  0  0  0  0  0  0  0  0  0  0  0
   -0.4117   -0.2463    0.2186 C   0  0  1  0  0  0  0  0  0  0  0  0
    0.1554   -0.5152    1.1133 H   0  0  0  0  0  0  0  0  0  0  0  0
    0.3164   -0.8780   -0.9905 C   0  0  0  0  0  0  0  0  0  0  0  0
    1.3867   -0.9142   -0.7725 H   0  0  0  0  0  0  0  0  0  0  0  0
   -0.0217   -1.9097   -1.1090 H   0  0  0  0  0  0  0  0  0  0  0  0
    0.1140   -0.1623   -2.3093 C   0  0  0  0  0  0  0  0  0  0  0  0
   -1.0356   -0.2076   -3.0741 N   0  3  0  0  0  0  0  0  0  0  0  0
   -1.8914   -0.6870   -2.7800 H   0  0  0  0  0  0  0  0  0  0  0  0
   -0.8452    0.5479   -4.1739 C   0  0  0  0  0  0  0  0  0  0  0  0
   -1.5809    0.7146   -4.9581 H   0  0  0  0  0  0  0  0  0  0  0  0
    0.4009    1.0707   -4.1243 N   0  0  0  0  0  0  0  0  0  0  0  0
    0.8191    1.6837   -4.8191 H   0  0  0  0  0  0  0  0  0  0  0  0
    1.0172    0.6345   -2.9596 C   0  0  0  0  0  0  0  0  0  0  0  0
    2.0211    0.8739   -2.6202 H   0  0  0  0  0  0  0  0  0  0  0  0
   -0.4874    1.2908    0.1962 C   0  0  0  0  0  0  0  0  0  0  0  0
   -1.3116    1.8673   -0.5151 O   0  0  0  0  0  0  0  0  0  0  0  0
    0.3889    1.9422    0.9708 N   0  0  0  0  0  0  0  0  0  0  0  0
    1.0197    1.3866    1.5283 H   0  0  0  0  0  0  0  0  0  0  0  0
    0.5081    3.3999    1.0720 C   0  0  0  0  0  0  0  0  0  0  0  0
    0.0188    3.7538    1.9817 H   0  0  0  0  0  0  0  0  0  0  0  0
    1.5607    3.6858    1.1098 H   0  0  0  0  0  0  0  0  0  0  0  0
    0.0459    3.8890    0.2119 H   0  0  0  0  0  0  0  0  0  0  0  0
  5  6  2  0  0  0  0
  5  7  1  0  0  0  0
  2  3  1  0  0  0  0
  2  4  1  0  0  0  0
  2  5  1  0  0  0  0
  1  2  1  0  0  0  0
 23 24  2  0  0  0  0
 23 25  1  0  0  0  0
 21 22  1  0  0  0  0
 19 20  1  0  0  0  0
 19 21  1  0  0  0  0
 17 18  1  0  0  0  0
 17 19  1  0  0  0  0
 15 16  1  0  0  0  0
 15 17  2  0  0  0  0
 14 15  1  0  0  0  0
 14 21  2  0  0  0  0
 11 12  1  0  0  0  0
 11 13  1  0  0  0  0
 11 14  1  0  0  0  0
  9 10  1  0  0  0  0
  9 11  1  0  0  0  0
  9 23  1  0  0  0  0
  7  8  1  0  0  0  0
  7  9  1  0  0  0  0
 27 28  1  0  0  0  0
 27 29  1  0  0  0  0
 27 30  1  0  0  0  0
 25 26  1  0  0  0  0
 25 27  1  0  0  0  0
M  CHG  1  15   1
M  END
$$$$
default_name
  -OEChem-02102213163D

 30 30  0     1  0  0  0  0  0999 V2000
   -3.5507   -3.2183    1.8116 H   0  0  0  0  0  0  0  0  0  0  0  0
   -3.4597   -2.3913    1.1076 C   0  0  0  0  0  0  0  0  0  0  0  0
   -4.1577   -1.6043    1.3866 H   0  0  0  0  0  0  0  0  0  0  0  0
   -3.6807   -2.7523    0.1036 H   0  0  0  0  0  0  0  0  0  0  0  0
   -2.0477   -1.8543    1.1546 C   0  0  0  0  0  0  0  0  0  0  0  0
   -1.2227   -2.3443    1.9146 O   0  0  0  0  0  0  0  0  0  0  0  0
   -1.7517   -0.8483    0.3266 N   0  0  0  0  0  0  0  0  0  0  0  0
   -2.4847   -0.5123   -0.2804 H   0  0  0  0  0  0  0  0  0  0  0  0
   -0.4117   -0.2463    0.2186 C   0  0  1  0  0  0  0  0  0  0  0  0
    0.1554   -0.5152    1.1133 H   0  0  0  0  0  0  0  0  0  0  0  0
    0.3164   -0.8780   -0.9905 C   0  0  0  0  0  0  0  0  0  0  0  0
    1.3867   -0.9142   -0.7725 H   0  0  0  0  0  0  0  0  0  0  0  0
   -0.0217   -1.9097   -1.1090 H   0  0  0  0  0  0  0  0  0  0  0  0
    0.1140   -0.1623   -2.3093 C   0  0  0  0  0  0  0  0  0  0  0  0
   -1.1038    0.0395   -2.9295 N   0  3  0  0  0  0  0  0  0  0  0  0
   -2.0009   -0.2264   -2.5132 H   0  0  0  0  0  0  0  0  0  0  0  0
   -0.8900    0.7090   -4.0796 C   0  0  0  0  0  0  0  0  0  0  0  0
   -1.6629    1.0226   -4.7783 H   0  0  0  0  0  0  0  0  0  0  0  0
    0.4374    0.9354   -4.2032 N   0  0  0  0  0  0  0  0  0  0  0  0
    0.8907    1.4228   -4.9717 H   0  0  0  0  0  0  0  0  0  0  0  0
    1.0827    0.3945   -3.0999 C   0  0  0  0  0  0  0  0  0  0  0  0
    2.1494    0.4060   -2.8937 H   0  0  0  0  0  0  0  0  0  0  0  0
   -0.4874    1.2908    0.1962 C   0  0  0  0  0  0  0  0  0  0  0  0
   -1.3116    1.8673   -0.5151 O   0  0  0  0  0  0  0  0  0  0  0  0
    0.3889    1.9422    0.9708 N   0  0  0  0  0  0  0  0  0  0  0  0
    1.0197    1.3866    1.5283 H   0  0  0  0  0  0  0  0  0  0  0  0
    0.5081    3.3999    1.0720 C   0  0  0  0  0  0  0  0  0  0  0  0
    0.0188    3.7538    1.9817 H   0  0  0  0  0  0  0  0  0  0  0  0
    1.5607    3.6858    1.1098 H   0  0  0  0  0  0  0  0  0  0  0  0
    0.0459    3.8890    0.2119 H   0  0  0  0  0  0  0  0  0  0  0  0
  5  6  2  0  0  0  0
  5  7  1  0  0  0  0
  2  3  1  0  0  0  0
  2  4  1  0  0  0  0
  2  5  1  0  0  0  0
  1  2  1  0  0  0  0
 23 24  2  0  0  0  0
 23 25  1  0  0  0  0
 21 22  1  0  0  0  0
 19 20  1  0  0  0  0
 19 21  1  0  0  0  0
 17 18  1  0  0  0  0
 17 19  1  0  0  0  0
 15 16  1  0  0  0  0
 15 17  2  0  0  0  0
 14 15  1  0  0  0  0
 14 21  2  0  0  0  0
 11 12  1  0  0  0  0
 11 13  1  0  0  0  0
 11 14  1  0  0  0  0
  9 10  1  0  0  0  0
  9 11  1  0  0  0  0
  9 23  1  0  0  0  0
  7  8  1  0  0  0  0
  7  9  1  0  0  0  0
 27 28  1  0  0  0  0
 27 29  1  0  0  0  0
 27 30  1  0  0  0  0
 25 26  1  0  0  0  0
 25 27  1  0  0  0  0
M  CHG  1  15   1
M  END
$$$$
default_name
  -OEChem-02102213163D

 30 30  0     1  0  0  0  0  0999 V2000
   -3.5507   -3.2183    1.8116 H   0  0  0  0  0  0  0  0  0  0  0  0
   -3.4597   -2.3913    1.1076 C   0  0  0  0  0  0  0  0  0  0  0  0
   -4.1577   -1.6043    1.3866 H   0  0  0  0  0  0  0  0  0  0  0  0
   -3.6807   -2.7523    0.1036 H   0  0  0  0  0  0  0  0  0  0  0  0
   -2.0477   -1.8543    1.1546 C   0  0  0  0  0  0  0  0  0  0  0  0
   -1.2227   -2.3443    1.9146 O   0  0  0  0  0  0  0  0  0  0  0  0
   -1.7517   -0.8483    0.3266 N   0  0  0  0  0  0  0  0  0  0  0  0
   -2.4847   -0.5123   -0.2804 H   0  0  0  0  0  0  0  0  0  0  0  0
   -0.4117   -0.2463    0.2186 C   0  0  1  0  0  0  0  0  0  0  0  0
    0.1554   -0.5152    1.1133 H   0  0  0  0  0  0  0  0  0  0  0  0
    0.3164   -0.8780   -0.9905 C   0  0  0  0  0  0  0  0  0  0  0  0
    1.3867   -0.9142   -0.7725 H   0  0  0  0  0  0  0  0  0  0  0  0
   -0.0217   -1.9097   -1.1090 H   0  0  0  0  0  0  0  0  0  0  0  0
    0.1140   -0.1623   -2.3093 C   0  0  0  0  0  0  0  0  0  0  0  0
   -1.0963    0.2986   -2.7900 N   0  3  0  0  0  0  0  0  0  0  0  0
   -1.9701    0.2525   -2.2580 H   0  0  0  0  0  0  0  0  0  0  0  0
   -0.8855    0.8781   -3.9885 C   0  0  0  0  0  0  0  0  0  0  0  0
   -1.6508    1.3449   -4.6053 H   0  0  0  0  0  0  0  0  0  0  0  0
    0.4324    0.7938   -4.2793 N   0  0  0  0  0  0  0  0  0  0  0  0
    0.8824    1.1493   -5.1188 H   0  0  0  0  0  0  0  0  0  0  0  0
    1.0748    0.1430   -3.2351 C   0  0  0  0  0  0  0  0  0  0  0  0
    2.1344   -0.0843   -3.1575 H   0  0  0  0  0  0  0  0  0  0  0  0
   -0.4874    1.2908    0.1962 C   0  0  0  0  0  0  0  0  0  0  0  0
   -1.3116    1.8673   -0.5151 O   0  0  0  0  0  0  0  0  0  0  0  0
    0.3889    1.9422    0.9708 N   0  0  0  0  0  0  0  0  0  0  0  0
    1.0197    1.3866    1.5283 H   0  0  0  0  0  0  0  0  0  0  0  0
    0.5081    3.3999    1.0720 C   0  0  0  0  0  0  0  0  0  0  0  0
    0.0188    3.7538    1.9817 H   0  0  0  0  0  0  0  0  0  0  0  0
    1.5607    3.6858    1.1098 H   0  0  0  0  0  0  0  0  0  0  0  0
    0.0459    3.8890    0.2119 H   0  0  0  0  0  0  0  0  0  0  0  0
  5  6  2  0  0  0  0
  5  7  1  0  0  0  0
  2  3  1  0  0  0  0
  2  4  1  0  0  0  0
  2  5  1  0  0  0  0
  1  2  1  0  0  0  0
 23 24  2  0  0  0  0
 23 25  1  0  0  0  0
 21 22  1  0  0  0  0
 19 20  1  0  0  0  0
 19 21  1  0  0  0  0
 17 18  1  0  0  0  0
 17 19  1  0  0  0  0
 15 16  1  0  0  0  0
 15 17  2  0  0  0  0
 14 15  1  0  0  0  0
 14 21  2  0  0  0  0
 11 12  1  0  0  0  0
 11 13  1  0  0  0  0
 11 14  1  0  0  0  0
  9 10  1  0  0  0  0
  9 11  1  0  0  0  0
  9 23  1  0  0  0  0
  7  8  1  0  0  0  0
  7  9  1  0  0  0  0
 27 28  1  0  0  0  0
 27 29  1  0  0  0  0
 27 30  1  0  0  0  0
 25 26  1  0  0  0  0
 25 27  1  0  0  0  0
M  CHG  1  15   1
M  END
$$$$
default_name
  -OEChem-02102213163D

 30 30  0     1  0  0  0  0  0999 V2000
   -3.5507   -3.2183    1.8116 H   0  0  0  0  0  0  0  0  0  0  0  0
   -3.4597   -2.3913    1.1076 C   0  0  0  0  0  0  0  0  0  0  0  0
   -4.1577   -1.6043    1.3866 H   0  0  0  0  0  0  0  0  0  0  0  0
   -3.6807   -2.7523    0.1036 H   0  0  0  0  0  0  0  0  0  0  0  0
   -2.0477   -1.8543    1.1546 C   0  0  0  0  0  0  0  0  0  0  0  0
   -1.2227   -2.3443    1.9146 O   0  0  0  0  0  0  0  0  0  0  0  0
   -1.7517   -0.8483    0.3266 N   0  0  0  0  0  0  0  0  0  0  0  0
   -2.4847   -0.5123   -0.2804 H   0  0  0  0  0  0  0  0  0  0  0  0
   -0.4117   -0.2463    0.2186 C   0  0  1  0  0  0  0  0  0  0  0  0
    0.1554   -0.5152    1.1133 H   0  0  0  0  0  0  0  0  0  0  0  0
    0.3164   -0.8780   -0.9905 C   0  0  0  0  0  0  0  0  0  0  0  0
    1.3867   -0.9142   -0.7725 H   0  0  0  0  0  0  0  0  0  0  0  0
   -0.0217   -1.9097   -1.1090 H   0  0  0  0  0  0  0  0  0  0  0  0
    0.1140   -0.1623   -2.3093 C   0  0  0  0  0  0  0  0  0  0  0  0
   -1.0136    0.5520   -2.6652 N   0  3  0  0  0  0  0  0  0  0  0  0
   -1.8013    0.7169   -2.0319 H   0  0  0  0  0  0  0  0  0  0  0  0
   -0.8318    1.0435   -3.9070 C   0  0  0  0  0  0  0  0  0  0  0  0
   -1.5452    1.6595   -4.4508 H   0  0  0  0  0  0  0  0  0  0  0  0
    0.3864    0.6556   -4.3473 N   0  0  0  0  0  0  0  0  0  0  0  0
    0.7946    0.8819   -5.2504 H   0  0  0  0  0  0  0  0  0  0  0  0
    0.9938   -0.1028   -3.3561 C   0  0  0  0  0  0  0  0  0  0  0  0
    1.9771   -0.5636   -3.3935 H   0  0  0  0  0  0  0  0  0  0  0  0
   -0.4874    1.2908    0.1962 C   0  0  0  0  0  0  0  0  0  0  0  0
   -1.3116    1.8673   -0.5151 O   0  0  0  0  0  0  0  0  0  0  0  0
    0.3889    1.9422    0.9708 N   0  0  0  0  0  0  0  0  0  0  0  0
    1.0197    1.3866    1.5283 H   0  0  0  0  0  0  0  0  0  0  0  0
    0.5081    3.3999    1.0720 C   0  0  0  0  0  0  0  0  0  0  0  0
    0.0188    3.7538    1.9817 H   0  0  0  0  0  0  0  0  0  0  0  0
    1.5607    3.6858    1.1098 H   0  0  0  0  0  0  0  0  0  0  0  0
    0.0459    3.8890    0.2119 H   0  0  0  0  0  0  0  0  0  0  0  0
  5  6  2  0  0  0  0
  5  7  1  0  0  0  0
  2  3  1  0  0  0  0
  2  4  1  0  0  0  0
  2  5  1  0  0  0  0
  1  2  1  0  0  0  0
 23 24  2  0  0  0  0
 23 25  1  0  0  0  0
 21 22  1  0  0  0  0
 19 20  1  0  0  0  0
 19 21  1  0  0  0  0
 17 18  1  0  0  0  0
 17 19  1  0  0  0  0
 15 16  1  0  0  0  0
 15 17  2  0  0  0  0
 14 15  1  0  0  0  0
 14 21  2  0  0  0  0
 11 12  1  0  0  0  0
 11 13  1  0  0  0  0
 11 14  1  0  0  0  0
  9 10  1  0  0  0  0
  9 11  1  0  0  0  0
  9 23  1  0  0  0  0
  7  8  1  0  0  0  0
  7  9  1  0  0  0  0
 27 28  1  0  0  0  0
 27 29  1  0  0  0  0
 27 30  1  0  0  0  0
 25 26  1  0  0  0  0
 25 27  1  0  0  0  0
M  CHG  1  15   1
M  END
$$$$
default_name
  -OEChem-02102213163D

 30 30  0     1  0  0  0  0  0999 V2000
   -3.5507   -3.2183    1.8116 H   0  0  0  0  0  0  0  0  0  0  0  0
   -3.4597   -2.3913    1.1076 C   0  0  0  0  0  0  0  0  0  0  0  0
   -4.1577   -1.6043    1.3866 H   0  0  0  0  0  0  0  0  0  0  0  0
   -3.6807   -2.7523    0.1036 H   0  0  0  0  0  0  0  0  0  0  0  0
   -2.0477   -1.8543    1.1546 C   0  0  0  0  0  0  0  0  0  0  0  0
   -1.2227   -2.3443    1.9146 O   0  0  0  0  0  0  0  0  0  0  0  0
   -1.7517   -0.8483    0.3266 N   0  0  0  0  0  0  0  0  0  0  0  0
   -2.4847   -0.5123   -0.2804 H   0  0  0  0  0  0  0  0  0  0  0  0
   -0.4117   -0.2463    0.2186 C   0  0  1  0  0  0  0  0  0  0  0  0
    0.1554   -0.5152    1.1133 H   0  0  0  0  0  0  0  0  0  0  0  0
    0.3164   -0.8780   -0.9905 C   0  0  0  0  0  0  0  0  0  0  0  0
    1.3867   -0.9142   -0.7725 H   0  0  0  0  0  0  0  0  0  0  0  0
   -0.0217   -1.9097   -1.1090 H   0  0  0  0  0  0  0  0  0  0  0  0
    0.1140   -0.1623   -2.3093 C   0  0  0  0  0  0  0  0  0  0  0  0
   -0.8613    0.7824   -2.5636 N   0  3  0  0  0  0  0  0  0  0  0  0
   -1.5059    1.1352   -1.8502 H   0  0  0  0  0  0  0  0  0  0  0  0
   -0.7327    1.1940   -3.8406 C   0  0  0  0  0  0  0  0  0  0  0  0
   -1.3534    1.9448   -4.3254 H   0  0  0  0  0  0  0  0  0  0  0  0
    0.3025    0.5300   -4.4026 N   0  0  0  0  0  0  0  0  0  0  0  0
    0.6335    0.6389   -5.3576 H   0  0  0  0  0  0  0  0  0  0  0  0
    0.8455   -0.3261   -3.4545 C   0  0  0  0  0  0  0  0  0  0  0  0
    1.6882   -0.9993   -3.5856 H   0  0  0  0  0  0  0  0  0  0  0  0
   -0.4874    1.2908    0.1962 C   0  0  0  0  0  0  0  0  0  0  0  0
   -1.3116    1.8673   -0.5151 O   0  0  0  0  0  0  0  0  0  0  0  0
    0.3889    1.9422    0.9708 N   0  0  0  0  0  0  0  0  0  0  0  0
    1.0197    1.3866    1.5283 H   0  0  0  0  0  0  0  0  0  0  0  0
    0.5081    3.3999    1.0720 C   0  0  0  0  0  0  0  0  0  0  0  0
    0.0188    3.7538    1.9817 H   0  0  0  0  0  0  0  0  0  0  0  0
    1.5607    3.6858    1.1098 H   0  0  0  0  0  0  0  0  0  0  0  0
    0.0459    3.8890    0.2119 H   0  0  0  0  0  0  0  0  0  0  0  0
  5  6  2  0  0  0  0
  5  7  1  0  0  0  0
  2  3  1  0  0  0  0
  2  4  1  0  0  0  0
  2  5  1  0  0  0  0
  1  2  1  0  0  0  0
 23 24  2  0  0  0  0
 23 25  1  0  0  0  0
 21 22  1  0  0  0  0
 19 20  1  0  0  0  0
 19 21  1  0  0  0  0
 17 18  1  0  0  0  0
 17 19  1  0  0  0  0
 15 16  1  0  0  0  0
 15 17  2  0  0  0  0
 14 15  1  0  0  0  0
 14 21  2  0  0  0  0
 11 12  1  0  0  0  0
 11 13  1  0  0  0  0
 11 14  1  0  0  0  0
  9 10  1  0  0  0  0
  9 11  1  0  0  0  0
  9 23  1  0  0  0  0
  7  8  1  0  0  0  0
  7  9  1  0  0  0  0
 27 28  1  0  0  0  0
 27 29  1  0  0  0  0
 27 30  1  0  0  0  0
 25 26  1  0  0  0  0
 25 27  1  0  0  0  0
M  CHG  1  15   1
M  END
$$$$
default_name
  -OEChem-02102213163D

 30 30  0     1  0  0  0  0  0999 V2000
   -3.5507   -3.2183    1.8116 H   0  0  0  0  0  0  0  0  0  0  0  0
   -3.4597   -2.3913    1.1076 C   0  0  0  0  0  0  0  0  0  0  0  0
   -4.1577   -1.6043    1.3866 H   0  0  0  0  0  0  0  0  0  0  0  0
   -3.6807   -2.7523    0.1036 H   0  0  0  0  0  0  0  0  0  0  0  0
   -2.0477   -1.8543    1.1546 C   0  0  0  0  0  0  0  0  0  0  0  0
   -1.2227   -2.3443    1.9146 O   0  0  0  0  0  0  0  0  0  0  0  0
   -1.7517   -0.8483    0.3266 N   0  0  0  0  0  0  0  0  0  0  0  0
   -2.4847   -0.5123   -0.2804 H   0  0  0  0  0  0  0  0  0  0  0  0
   -0.4117   -0.2463    0.2186 C   0  0  1  0  0  0  0  0  0  0  0  0
    0.1554   -0.5152    1.1133 H   0  0  0  0  0  0  0  0  0  0  0  0
    0.3164   -0.8780   -0.9905 C   0  0  0  0  0  0  0  0  0  0  0  0
    1.3867   -0.9142   -0.7725 H   0  0  0  0  0  0  0  0  0  0  0  0
   -0.0217   -1.9097   -1.1090 H   0  0  0  0  0  0  0  0  0  0  0  0
    0.1140   -0.1623   -2.3093 C   0  0  0  0  0  0  0  0  0  0  0  0
   -0.6499    0.9742   -2.4919 N   0  3  0  0  0  0  0  0  0  0  0  0
   -1.1039    1.4790   -1.7253 H   0  0  0  0  0  0  0  0  0  0  0  0
   -0.5950    1.3193   -3.7937 C   0  0  0  0  0  0  0  0  0  0  0  0
   -1.0884    2.1815   -4.2376 H   0  0  0  0  0  0  0  0  0  0  0  0
    0.1864    0.4257   -4.4413 N   0  0  0  0  0  0  0  0  0  0  0  0
    0.4100    0.4368   -5.4330 H   0  0  0  0  0  0  0  0  0  0  0  0
    0.6398   -0.5118   -3.5237 C   0  0  0  0  0  0  0  0  0  0  0  0
    1.2874   -1.3617   -3.7208 H   0  0  0  0  0  0  0  0  0  0  0  0
   -0.4874    1.2908    0.1962 C   0  0  0  0  0  0  0  0  0  0  0  0
   -1.3116    1.8673   -0.5151 O   0  0  0  0  0  0  0  0  0  0  0  0
    0.3889    1.9422    0.9708 N   0  0  0  0  0  0  0  0  0  0  0  0
    1.0197    1.3866    1.5283 H   0  0  0  0  0  0  0  0  0  0  0  0
    0.5081    3.3999    1.0720 C   0  0  0  0  0  0  0  0  0  0  0  0
    0.0188    3.7538    1.9817 H   0  0  0  0  0  0  0  0  0  0  0  0
    1.5607    3.6858    1.1098 H   0  0  0  0  0  0  0  0  0  0  0  0
    0.0459    3.8890    0.2119 H   0  0  0  0  0  0  0  0  0  0  0  0
  5  6  2  0  0  0  0
  5  7  1  0  0  0  0
  2  3  1  0  0  0  0
  2  4  1  0  0  0  0
  2  5  1  0  0  0  0
  1  2  1  0  0  0  0
 23 24  2  0  0  0  0
 23 25  1  0  0  0  0
 21 22  1  0  0  0  0
 19 20  1  0  0  0  0
 19 21  1  0  0  0  0
 17 18  1  0  0  0  0
 17 19  1  0  0  0  0
 15 16  1  0  0  0  0
 15 17  2  0  0  0  0
 14 15  1  0  0  0  0
 14 21  2  0  0  0  0
 11 12  1  0  0  0  0
 11 13  1  0  0  0  0
 11 14  1  0  0  0  0
  9 10  1  0  0  0  0
  9 11  1  0  0  0  0
  9 23  1  0  0  0  0
  7  8  1  0  0  0  0
  7  9  1  0  0  0  0
 27 28  1  0  0  0  0
 27 29  1  0  0  0  0
 27 30  1  0  0  0  0
 25 26  1  0  0  0  0
 25 27  1  0  0  0  0
M  CHG  1  15   1
M  END
$$$$
default_name
  -OEChem-02102213163D

 30 30  0     1  0  0  0  0  0999 V2000
   -3.5507   -3.2183    1.8116 H   0  0  0  0  0  0  0  0  0  0  0  0
   -3.4597   -2.3913    1.1076 C   0  0  0  0  0  0  0  0  0  0  0  0
   -4.1577   -1.6043    1.3866 H   0  0  0  0  0  0  0  0  0  0  0  0
   -3.6807   -2.7523    0.1036 H   0  0  0  0  0  0  0  0  0  0  0  0
   -2.0477   -1.8543    1.1546 C   0  0  0  0  0  0  0  0  0  0  0  0
   -1.2227   -2.3443    1.9146 O   0  0  0  0  0  0  0  0  0  0  0  0
   -1.7517   -0.8483    0.3266 N   0  0  0  0  0  0  0  0  0  0  0  0
   -2.4847   -0.5123   -0.2804 H   0  0  0  0  0  0  0  0  0  0  0  0
   -0.4117   -0.2463    0.2186 C   0  0  1  0  0  0  0  0  0  0  0  0
    0.1554   -0.5152    1.1133 H   0  0  0  0  0  0  0  0  0  0  0  0
    0.3164   -0.8780   -0.9905 C   0  0  0  0  0  0  0  0  0  0  0  0
    1.3867   -0.9142   -0.7725 H   0  0  0  0  0  0  0  0  0  0  0  0
   -0.0217   -1.9097   -1.1090 H   0  0  0  0  0  0  0  0  0  0  0  0
    0.1140   -0.1623   -2.3093 C   0  0  0  0  0  0  0  0  0  0  0  0
   -0.3936    1.1142   -2.4553 N   0  3  0  0  0  0  0  0  0  0  0  0
   -0.6229    1.7248   -1.6658 H   0  0  0  0  0  0  0  0  0  0  0  0
   -0.4279    1.4109   -3.7696 C   0  0  0  0  0  0  0  0  0  0  0  0
   -0.7684    2.3535   -4.1934 H   0  0  0  0  0  0  0  0  0  0  0  0
    0.0459    0.3498   -4.4610 N   0  0  0  0  0  0  0  0  0  0  0  0
    0.1393    0.2893   -5.4715 H   0  0  0  0  0  0  0  0  0  0  0  0
    0.3907   -0.6472   -3.5590 C   0  0  0  0  0  0  0  0  0  0  0  0
    0.8020   -1.6260   -3.7898 H   0  0  0  0  0  0  0  0  0  0  0  0
   -0.4874    1.2908    0.1962 C   0  0  0  0  0  0  0  0  0  0  0  0
   -1.3116    1.8673   -0.5151 O   0  0  0  0  0  0  0  0  0  0  0  0
    0.3889    1.9422    0.9708 N   0  0  0  0  0  0  0  0  0  0  0  0
    1.0197    1.3866    1.5283 H   0  0  0  0  0  0  0  0  0  0  0  0
    0.5081    3.3999    1.0720 C   0  0  0  0  0  0  0  0  0  0  0  0
    0.0188    3.7538    1.9817 H   0  0  0  0  0  0  0  0  0  0  0  0
    1.5607    3.6858    1.1098 H   0  0  0  0  0  0  0  0  0  0  0  0
    0.0459    3.8890    0.2119 H   0  0  0  0  0  0  0  0  0  0  0  0
  5  6  2  0  0  0  0
  5  7  1  0  0  0  0
  2  3  1  0  0  0  0
  2  4  1  0  0  0  0
  2  5  1  0  0  0  0
  1  2  1  0  0  0  0
 23 24  2  0  0  0  0
 23 25  1  0  0  0  0
 21 22  1  0  0  0  0
 19 20  1  0  0  0  0
 19 21  1  0  0  0  0
 17 18  1  0  0  0  0
 17 19  1  0  0  0  0
 15 16  1  0  0  0  0
 15 17  2  0  0  0  0
 14 15  1  0  0  0  0
 14 21  2  0  0  0  0
 11 12  1  0  0  0  0
 11 13  1  0  0  0  0
 11 14  1  0  0  0  0
  9 10  1  0  0  0  0
  9 11  1  0  0  0  0
  9 23  1  0  0  0  0
  7  8  1  0  0  0  0
  7  9  1  0  0  0  0
 27 28  1  0  0  0  0
 27 29  1  0  0  0  0
 27 30  1  0  0  0  0
 25 26  1  0  0  0  0
 25 27  1  0  0  0  0
M  CHG  1  15   1
M  END
$$$$
default_name
  -OEChem-02102213163D

 30 30  0     1  0  0  0  0  0999 V2000
   -3.5507   -3.2183    1.8116 H   0  0  0  0  0  0  0  0  0  0  0  0
   -3.4597   -2.3913    1.1076 C   0  0  0  0  0  0  0  0  0  0  0  0
   -4.1577   -1.6043    1.3866 H   0  0  0  0  0  0  0  0  0  0  0  0
   -3.6807   -2.7523    0.1036 H   0  0  0  0  0  0  0  0  0  0  0  0
   -2.0477   -1.8543    1.1546 C   0  0  0  0  0  0  0  0  0  0  0  0
   -1.2227   -2.3443    1.9146 O   0  0  0  0  0  0  0  0  0  0  0  0
   -1.7517   -0.8483    0.3266 N   0  0  0  0  0  0  0  0  0  0  0  0
   -2.4847   -0.5123   -0.2804 H   0  0  0  0  0  0  0  0  0  0  0  0
   -0.4117   -0.2463    0.2186 C   0  0  1  0  0  0  0  0  0  0  0  0
    0.1554   -0.5152    1.1133 H   0  0  0  0  0  0  0  0  0  0  0  0
    0.3164   -0.8780   -0.9905 C   0  0  0  0  0  0  0  0  0  0  0  0
    1.3867   -0.9142   -0.7725 H   0  0  0  0  0  0  0  0  0  0  0  0
   -0.0217   -1.9097   -1.1090 H   0  0  0  0  0  0  0  0  0  0  0  0
    0.1140   -0.1623   -2.3093 C   0  0  0  0  0  0  0  0  0  0  0  0
   -0.1101    1.1929   -2.4561 N   0  3  0  0  0  0  0  0  0  0  0  0
   -0.0956    1.8558   -1.6756 H   0  0  0  0  0  0  0  0  0  0  0  0
   -0.2430    1.4626   -3.7699 C   0  0  0  0  0  0  0  0  0  0  0  0
   -0.4151    2.4490   -4.1957 H   0  0  0  0  0  0  0  0  0  0  0  0
   -0.1092    0.3075   -4.4601 N   0  0  0  0  0  0  0  0  0  0  0  0
   -0.1601    0.2065   -5.4704 H   0  0  0  0  0  0  0  0  0  0  0  0
    0.1153   -0.7231   -3.5579 C   0  0  0  0  0  0  0  0  0  0  0  0
    0.2652   -1.7743   -3.7879 H   0  0  0  0  0  0  0  0  0  0  0  0
   -0.4874    1.2908    0.1962 C   0  0  0  0  0  0  0  0  0  0  0  0
   -1.3116    1.8673   -0.5151 O   0  0  0  0  0  0  0  0  0  0  0  0
    0.3889    1.9422    0.9708 N   0  0  0  0  0  0  0  0  0  0  0  0
    1.0197    1.3866    1.5283 H   0  0  0  0  0  0  0  0  0  0  0  0
    0.5081    3.3999    1.0720 C   0  0  0  0  0  0  0  0  0  0  0  0
    0.0188    3.7538    1.9817 H   0  0  0  0  0  0  0  0  0  0  0  0
    1.5607    3.6858    1.1098 H   0  0  0  0  0  0  0  0  0  0  0  0
    0.0459    3.8890    0.2119 H   0  0  0  0  0  0  0  0  0  0  0  0
  5  6  2  0  0  0  0
  5  7  1  0  0  0  0
  2  3  1  0  0  0  0
  2  4  1  0  0  0  0
  2  5  1  0  0  0  0
  1  2  1  0  0  0  0
 23 24  2  0  0  0  0
 23 25  1  0  0  0  0
 21 22  1  0  0  0  0
 19 20  1  0  0  0  0
 19 21  1  0  0  0  0
 17 18  1  0  0  0  0
 17 19  1  0  0  0  0
 15 16  1  0  0  0  0
 15 17  2  0  0  0  0
 14 15  1  0  0  0  0
 14 21  2  0  0  0  0
 11 12  1  0  0  0  0
 11 13  1  0  0  0  0
 11 14  1  0  0  0  0
  9 10  1  0  0  0  0
  9 11  1  0  0  0  0
  9 23  1  0  0  0  0
  7  8  1  0  0  0  0
  7  9  1  0  0  0  0
 27 28  1  0  0  0  0
 27 29  1  0  0  0  0
 27 30  1  0  0  0  0
 25 26  1  0  0  0  0
 25 27  1  0  0  0  0
M  CHG  1  15   1
M  END
$$$$
default_name
  -OEChem-02102213163D

 30 30  0     1  0  0  0  0  0999 V2000
   -3.5507   -3.2183    1.8116 H   0  0  0  0  0  0  0  0  0  0  0  0
   -3.4597   -2.3913    1.1076 C   0  0  0  0  0  0  0  0  0  0  0  0
   -4.1577   -1.6043    1.3866 H   0  0  0  0  0  0  0  0  0  0  0  0
   -3.6807   -2.7523    0.1036 H   0  0  0  0  0  0  0  0  0  0  0  0
   -2.0477   -1.8543    1.1546 C   0  0  0  0  0  0  0  0  0  0  0  0
   -1.2227   -2.3443    1.9146 O   0  0  0  0  0  0  0  0  0  0  0  0
   -1.7517   -0.8483    0.3266 N   0  0  0  0  0  0  0  0  0  0  0  0
   -2.4847   -0.5123   -0.2804 H   0  0  0  0  0  0  0  0  0  0  0  0
   -0.4117   -0.2463    0.2186 C   0  0  1  0  0  0  0  0  0  0  0  0
    0.1554   -0.5152    1.1133 H   0  0  0  0  0  0  0  0  0  0  0  0
    0.3164   -0.8780   -0.9905 C   0  0  0  0  0  0  0  0  0  0  0  0
    1.3867   -0.9142   -0.7725 H   0  0  0  0  0  0  0  0  0  0  0  0
   -0.0217   -1.9097   -1.1090 H   0  0  0  0  0  0  0  0  0  0  0  0
    0.1140   -0.1623   -2.3093 C   0  0  0  0  0  0  0  0  0  0  0  0
    0.1815    1.2050   -2.4942 N   0  3  0  0  0  0  0  0  0  0  0  0
    0.4420    1.8631   -1.7541 H   0  0  0  0  0  0  0  0  0  0  0  0
   -0.0527    1.4708   -3.7947 C   0  0  0  0  0  0  0  0  0  0  0  0
   -0.0526    2.4616   -4.2446 H   0  0  0  0  0  0  0  0  0  0  0  0
   -0.2685    0.3017   -4.4389 N   0  0  0  0  0  0  0  0  0  0  0  0
   -0.4679    0.1942   -5.4299 H   0  0  0  0  0  0  0  0  0  0  0  0
   -0.1676   -0.7342   -3.5205 C   0  0  0  0  0  0  0  0  0  0  0  0
   -0.2866   -1.7965   -3.7152 H   0  0  0  0  0  0  0  0  0  0  0  0
   -0.4874    1.2908    0.1962 C   0  0  0  0  0  0  0  0  0  0  0  0
   -1.3116    1.8673   -0.5151 O   0  0  0  0  0  0  0  0  0  0  0  0
    0.3889    1.9422    0.9708 N   0  0  0  0  0  0  0  0  0  0  0  0
    1.0197    1.3866    1.5283 H   0  0  0  0  0  0  0  0  0  0  0  0
    0.5081    3.3999    1.0720 C   0  0  0  0  0  0  0  0  0  0  0  0
    0.0188    3.7538    1.9817 H   0  0  0  0  0  0  0  0  0  0  0  0
    1.5607    3.6858    1.1098 H   0  0  0  0  0  0  0  0  0  0  0  0
    0.0459    3.8890    0.2119 H   0  0  0  0  0  0  0  0  0  0  0  0
  5  6  2  0  0  0  0
  5  7  1  0  0  0  0
  2  3  1  0  0  0  0
  2  4  1  0  0  0  0
  2  5  1  0  0  0  0
  1  2  1  0  0  0  0
 23 24  2  0  0  0  0
 23 25  1  0  0  0  0
 21 22  1  0  0  0  0
 19 20  1  0  0  0  0
 19 21  1  0  0  0  0
 17 18  1  0  0  0  0
 17 19  1  0  0  0  0
 15 16  1  0  0  0  0
 15 17  2  0  0  0  0
 14 15  1  0  0  0  0
 14 21  2  0  0  0  0
 11 12  1  0  0  0  0
 11 13  1  0  0  0  0
 11 14  1  0  0  0  0
  9 10  1  0  0  0  0
  9 11  1  0  0  0  0
  9 23  1  0  0  0  0
  7  8  1  0  0  0  0
  7  9  1  0  0  0  0
 27 28  1  0  0  0  0
 27 29  1  0  0  0  0
 27 30  1  0  0  0  0
 25 26  1  0  0  0  0
 25 27  1  0  0  0  0
M  CHG  1  15   1
M  END
$$$$
default_name
  -OEChem-02102213163D

 30 30  0     1  0  0  0  0  0999 V2000
   -3.5507   -3.2183    1.8116 H   0  0  0  0  0  0  0  0  0  0  0  0
   -3.4597   -2.3913    1.1076 C   0  0  0  0  0  0  0  0  0  0  0  0
   -4.1577   -1.6043    1.3866 H   0  0  0  0  0  0  0  0  0  0  0  0
   -3.6807   -2.7523    0.1036 H   0  0  0  0  0  0  0  0  0  0  0  0
   -2.0477   -1.8543    1.1546 C   0  0  0  0  0  0  0  0  0  0  0  0
   -1.2227   -2.3443    1.9146 O   0  0  0  0  0  0  0  0  0  0  0  0
   -1.7517   -0.8483    0.3266 N   0  0  0  0  0  0  0  0  0  0  0  0
   -2.4847   -0.5123   -0.2804 H   0  0  0  0  0  0  0  0  0  0  0  0
   -0.4117   -0.2463    0.2186 C   0  0  1  0  0  0  0  0  0  0  0  0
    0.1554   -0.5152    1.1133 H   0  0  0  0  0  0  0  0  0  0  0  0
    0.3164   -0.8780   -0.9905 C   0  0  0  0  0  0  0  0  0  0  0  0
    1.3867   -0.9142   -0.7725 H   0  0  0  0  0  0  0  0  0  0  0  0
   -0.0217   -1.9097   -1.1090 H   0  0  0  0  0  0  0  0  0  0  0  0
    0.1140   -0.1623   -2.3093 C   0  0  0  0  0  0  0  0  0  0  0  0
    0.4612    1.1497   -2.5672 N   0  3  0  0  0  0  0  0  0  0  0  0
    0.9534    1.7463   -1.8960 H   0  0  0  0  0  0  0  0  0  0  0  0
    0.1299    1.4350   -3.8421 C   0  0  0  0  0  0  0  0  0  0  0  0
    0.2944    2.3902   -4.3365 H   0  0  0  0  0  0  0  0  0  0  0  0
   -0.4211    0.3326   -4.3986 N   0  0  0  0  0  0  0  0  0  0  0  0
   -0.7630    0.2530   -5.3527 H   0  0  0  0  0  0  0  0  0  0  0  0
   -0.4389   -0.6799   -3.4494 C   0  0  0  0  0  0  0  0  0  0  0  0
   -0.8156   -1.6910   -3.5768 H   0  0  0  0  0  0  0  0  0  0  0  0
   -0.4874    1.2908    0.1962 C   0  0  0  0  0  0  0  0  0  0  0  0
   -1.3116    1.8673   -0.5151 O   0  0  0  0  0  0  0  0  0  0  0  0
    0.3889    1.9422    0.9708 N   0  0  0  0  0  0  0  0  0  0  0  0
    1.0197    1.3866    1.5283 H   0  0  0  0  0  0  0  0  0  0  0  0
    0.5081    3.3999    1.0720 C   0  0  0  0  0  0  0  0  0  0  0  0
    0.0188    3.7538    1.9817 H   0  0  0  0  0  0  0  0  0  0  0  0
    1.5607    3.6858    1.1098 H   0  0  0  0  0  0  0  0  0  0  0  0
    0.0459    3.8890    0.2119 H   0  0  0  0  0  0  0  0  0  0  0  0
  5  6  2  0  0  0  0
  5  7  1  0  0  0  0
  2  3  1  0  0  0  0
  2  4  1  0  0  0  0
  2  5  1  0  0  0  0
  1  2  1  0  0  0  0
 23 24  2  0  0  0  0
 23 25  1  0  0  0  0
 21 22  1  0  0  0  0
 19 20  1  0  0  0  0
 19 21  1  0  0  0  0
 17 18  1  0  0  0  0
 17 19  1  0  0  0  0
 15 16  1  0  0  0  0
 15 17  2  0  0  0  0
 14 15  1  0  0  0  0
 14 21  2  0  0  0  0
 11 12  1  0  0  0  0
 11 13  1  0  0  0  0
 11 14  1  0  0  0  0
  9 10  1  0  0  0  0
  9 11  1  0  0  0  0
  9 23  1  0  0  0  0
  7  8  1  0  0  0  0
  7  9  1  0  0  0  0
 27 28  1  0  0  0  0
 27 29  1  0  0  0  0
 27 30  1  0  0  0  0
 25 26  1  0  0  0  0
 25 27  1  0  0  0  0
M  CHG  1  15   1
M  END
$$$$
default_name
  -OEChem-02102213163D

 30 30  0     1  0  0  0  0  0999 V2000
   -3.5507   -3.2183    1.8116 H   0  0  0  0  0  0  0  0  0  0  0  0
   -3.4597   -2.3913    1.1076 C   0  0  0  0  0  0  0  0  0  0  0  0
   -4.1577   -1.6043    1.3866 H   0  0  0  0  0  0  0  0  0  0  0  0
   -3.6807   -2.7523    0.1036 H   0  0  0  0  0  0  0  0  0  0  0  0
   -2.0477   -1.8543    1.1546 C   0  0  0  0  0  0  0  0  0  0  0  0
   -1.2227   -2.3443    1.9146 O   0  0  0  0  0  0  0  0  0  0  0  0
   -1.7517   -0.8483    0.3266 N   0  0  0  0  0  0  0  0  0  0  0  0
   -2.4847   -0.5123   -0.2804 H   0  0  0  0  0  0  0  0  0  0  0  0
   -0.4117   -0.2463    0.2186 C   0  0  1  0  0  0  0  0  0  0  0  0
    0.1554   -0.5152    1.1133 H   0  0  0  0  0  0  0  0  0  0  0  0
    0.3164   -0.8780   -0.9905 C   0  0  0  0  0  0  0  0  0  0  0  0
    1.3867   -0.9142   -0.7725 H   0  0  0  0  0  0  0  0  0  0  0  0
   -0.0217   -1.9097   -1.1090 H   0  0  0  0  0  0  0  0  0  0  0  0
    0.1140   -0.1623   -2.3093 C   0  0  0  0  0  0  0  0  0  0  0  0
    0.7100    1.0306   -2.6700 N   0  3  0  0  0  0  0  0  0  0  0  0
    1.4037    1.5133   -2.0916 H   0  0  0  0  0  0  0  0  0  0  0  0
    0.2924    1.3575   -3.9091 C   0  0  0  0  0  0  0  0  0  0  0  0
    0.6022    2.2399   -4.4653 H   0  0  0  0  0  0  0  0  0  0  0  0
   -0.5566    0.3983   -4.3422 N   0  0  0  0  0  0  0  0  0  0  0  0
   -1.0253    0.3790   -5.2441 H   0  0  0  0  0  0  0  0  0  0  0  0
   -0.6800   -0.5638   -3.3494 C   0  0  0  0  0  0  0  0  0  0  0  0
   -1.2860   -1.4650   -3.3820 H   0  0  0  0  0  0  0  0  0  0  0  0
   -0.4874    1.2908    0.1962 C   0  0  0  0  0  0  0  0  0  0  0  0
   -1.3116    1.8673   -0.5151 O   0  0  0  0  0  0  0  0  0  0  0  0
    0.3889    1.9422    0.9708 N   0  0  0  0  0  0  0  0  0  0  0  0
    1.0197    1.3866    1.5283 H   0  0  0  0  0  0  0  0  0  0  0  0
    0.5081    3.3999    1.0720 C   0  0  0  0  0  0  0  0  0  0  0  0
    0.0188    3.7538    1.9817 H   0  0  0  0  0  0  0  0  0  0  0  0
    1.5607    3.6858    1.1098 H   0  0  0  0  0  0  0  0  0  0  0  0
    0.0459    3.8890    0.2119 H   0  0  0  0  0  0  0  0  0  0  0  0
  5  6  2  0  0  0  0
  5  7  1  0  0  0  0
  2  3  1  0  0  0  0
  2  4  1  0  0  0  0
  2  5  1  0  0  0  0
  1  2  1  0  0  0  0
 23 24  2  0  0  0  0
 23 25  1  0  0  0  0
 21 22  1  0  0  0  0
 19 20  1  0  0  0  0
 19 21  1  0  0  0  0
 17 18  1  0  0  0  0
 17 19  1  0  0  0  0
 15 16  1  0  0  0  0
 15 17  2  0  0  0  0
 14 15  1  0  0  0  0
 14 21  2  0  0  0  0
 11 12  1  0  0  0  0
 11 13  1  0  0  0  0
 11 14  1  0  0  0  0
  9 10  1  0  0  0  0
  9 11  1  0  0  0  0
  9 23  1  0  0  0  0
  7  8  1  0  0  0  0
  7  9  1  0  0  0  0
 27 28  1  0  0  0  0
 27 29  1  0  0  0  0
 27 30  1  0  0  0  0
 25 26  1  0  0  0  0
 25 27  1  0  0  0  0
M  CHG  1  15   1
M  END
$$$$
default_name
  -OEChem-02102213163D

 30 30  0     1  0  0  0  0  0999 V2000
   -3.5507   -3.2183    1.8116 H   0  0  0  0  0  0  0  0  0  0  0  0
   -3.4597   -2.3913    1.1076 C   0  0  0  0  0  0  0  0  0  0  0  0
   -4.1577   -1.6043    1.3866 H   0  0  0  0  0  0  0  0  0  0  0  0
   -3.6807   -2.7523    0.1036 H   0  0  0  0  0  0  0  0  0  0  0  0
   -2.0477   -1.8543    1.1546 C   0  0  0  0  0  0  0  0  0  0  0  0
   -1.2227   -2.3443    1.9146 O   0  0  0  0  0  0  0  0  0  0  0  0
   -1.7517   -0.8483    0.3266 N   0  0  0  0  0  0  0  0  0  0  0  0
   -2.4847   -0.5123   -0.2804 H   0  0  0  0  0  0  0  0  0  0  0  0
   -0.4117   -0.2463    0.2186 C   0  0  1  0  0  0  0  0  0  0  0  0
    0.1554   -0.5152    1.1133 H   0  0  0  0  0  0  0  0  0  0  0  0
    0.3164   -0.8780   -0.9905 C   0  0  0  0  0  0  0  0  0  0  0  0
    1.3867   -0.9142   -0.7725 H   0  0  0  0  0  0  0  0  0  0  0  0
   -0.0217   -1.9097   -1.1090 H   0  0  0  0  0  0  0  0  0  0  0  0
    0.1140   -0.1623   -2.3093 C   0  0  0  0  0  0  0  0  0  0  0  0
    0.9108    0.8560   -2.7956 N   0  3  0  0  0  0  0  0  0  0  0  0
    1.7622    1.1799   -2.3275 H   0  0  0  0  0  0  0  0  0  0  0  0
    0.4237    1.2438   -3.9910 C   0  0  0  0  0  0  0  0  0  0  0  0
    0.8500    2.0209   -4.6222 H   0  0  0  0  0  0  0  0  0  0  0  0
   -0.6657    0.4943   -4.2734 N   0  0  0  0  0  0  0  0  0  0  0  0
   -1.2370    0.5636   -5.1114 H   0  0  0  0  0  0  0  0  0  0  0  0
   -0.8744   -0.3939   -3.2274 C   0  0  0  0  0  0  0  0  0  0  0  0
   -1.6655   -1.1340   -3.1441 H   0  0  0  0  0  0  0  0  0  0  0  0
   -0.4874    1.2908    0.1962 C   0  0  0  0  0  0  0  0  0  0  0  0
   -1.3116    1.8673   -0.5151 O   0  0  0  0  0  0  0  0  0  0  0  0
    0.3889    1.9422    0.9708 N   0  0  0  0  0  0  0  0  0  0  0  0
    1.0197    1.3866    1.5283 H   0  0  0  0  0  0  0  0  0  0  0  0
    0.5081    3.3999    1.0720 C   0  0  0  0  0  0  0  0  0  0  0  0
    0.0188    3.7538    1.9817 H   0  0  0  0  0  0  0  0  0  0  0  0
    1.5607    3.6858    1.1098 H   0  0  0  0  0  0  0  0  0  0  0  0
    0.0459    3.8890    0.2119 H   0  0  0  0  0  0  0  0  0  0  0  0
  5  6  2  0  0  0  0
  5  7  1  0  0  0  0
  2  3  1  0  0  0  0
  2  4  1  0  0  0  0
  2  5  1  0  0  0  0
  1  2  1  0  0  0  0
 23 24  2  0  0  0  0
 23 25  1  0  0  0  0
 21 22  1  0  0  0  0
 19 20  1  0  0  0  0
 19 21  1  0  0  0  0
 17 18  1  0  0  0  0
 17 19  1  0  0  0  0
 15 16  1  0  0  0  0
 15 17  2  0  0  0  0
 14 15  1  0  0  0  0
 14 21  2  0  0  0  0
 11 12  1  0  0  0  0
 11 13  1  0  0  0  0
 11 14  1  0  0  0  0
  9 10  1  0  0  0  0
  9 11  1  0  0  0  0
  9 23  1  0  0  0  0
  7  8  1  0  0  0  0
  7  9  1  0  0  0  0
 27 28  1  0  0  0  0
 27 29  1  0  0  0  0
 27 30  1  0  0  0  0
 25 26  1  0  0  0  0
 25 27  1  0  0  0  0
M  CHG  1  15   1
M  END
$$$$
default_name
  -OEChem-02102213163D

 30 30  0     1  0  0  0  0  0999 V2000
   -3.5507   -3.2183    1.8116 H   0  0  0  0  0  0  0  0  0  0  0  0
   -3.4597   -2.3913    1.1076 C   0  0  0  0  0  0  0  0  0  0  0  0
   -4.1577   -1.6043    1.3866 H   0  0  0  0  0  0  0  0  0  0  0  0
   -3.6807   -2.7523    0.1036 H   0  0  0  0  0  0  0  0  0  0  0  0
   -2.0477   -1.8543    1.1546 C   0  0  0  0  0  0  0  0  0  0  0  0
   -1.2227   -2.3443    1.9146 O   0  0  0  0  0  0  0  0  0  0  0  0
   -1.7517   -0.8483    0.3266 N   0  0  0  0  0  0  0  0  0  0  0  0
   -2.4847   -0.5123   -0.2804 H   0  0  0  0  0  0  0  0  0  0  0  0
   -0.4117   -0.2463    0.2186 C   0  0  1  0  0  0  0  0  0  0  0  0
    0.1554   -0.5152    1.1133 H   0  0  0  0  0  0  0  0  0  0  0  0
    0.3164   -0.8780   -0.9905 C   0  0  0  0  0  0  0  0  0  0  0  0
    1.3867   -0.9142   -0.7725 H   0  0  0  0  0  0  0  0  0  0  0  0
   -0.0217   -1.9097   -1.1090 H   0  0  0  0  0  0  0  0  0  0  0  0
    0.1140   -0.1623   -2.3093 C   0  0  0  0  0  0  0  0  0  0  0  0
    1.0501    0.6377   -2.9354 N   0  3  0  0  0  0  0  0  0  0  0  0
    2.0044    0.7689   -2.5877 H   0  0  0  0  0  0  0  0  0  0  0  0
    0.5149    1.1015   -4.0822 C   0  0  0  0  0  0  0  0  0  0  0  0
    1.0207    1.7481   -4.7965 H   0  0  0  0  0  0  0  0  0  0  0  0
   -0.7411    0.6140   -4.1968 N   0  0  0  0  0  0  0  0  0  0  0  0
   -1.3837    0.7942   -4.9637 H   0  0  0  0  0  0  0  0  0  0  0  0
   -1.0090   -0.1817   -3.0916 C   0  0  0  0  0  0  0  0  0  0  0  0
   -1.9283   -0.7205   -2.8793 H   0  0  0  0  0  0  0  0  0  0  0  0
   -0.4874    1.2908    0.1962 C   0  0  0  0  0  0  0  0  0  0  0  0
   -1.3116    1.8673   -0.5151 O   0  0  0  0  0  0  0  0  0  0  0  0
    0.3889    1.9422    0.9708 N   0  0  0  0  0  0  0  0  0  0  0  0
    1.0197    1.3866    1.5283 H   0  0  0  0  0  0  0  0  0  0  0  0
    0.5081    3.3999    1.0720 C   0  0  0  0  0  0  0  0  0  0  0  0
    0.0188    3.7538    1.9817 H   0  0  0  0  0  0  0  0  0  0  0  0
    1.5607    3.6858    1.1098 H   0  0  0  0  0  0  0  0  0  0  0  0
    0.0459    3.8890    0.2119 H   0  0  0  0  0  0  0  0  0  0  0  0
  5  6  2  0  0  0  0
  5  7  1  0  0  0  0
  2  3  1  0  0  0  0
  2  4  1  0  0  0  0
  2  5  1  0  0  0  0
  1  2  1  0  0  0  0
 23 24  2  0  0  0  0
 23 25  1  0  0  0  0
 21 22  1  0  0  0  0
 19 20  1  0  0  0  0
 19 21  1  0  0  0  0
 17 18  1  0  0  0  0
 17 19  1  0  0  0  0
 15 16  1  0  0  0  0
 15 17  2  0  0  0  0
 14 15  1  0  0  0  0
 14 21  2  0  0  0  0
 11 12  1  0  0  0  0
 11 13  1  0  0  0  0
 11 14  1  0  0  0  0
  9 10  1  0  0  0  0
  9 11  1  0  0  0  0
  9 23  1  0  0  0  0
  7  8  1  0  0  0  0
  7  9  1  0  0  0  0
 27 28  1  0  0  0  0
 27 29  1  0  0  0  0
 27 30  1  0  0  0  0
 25 26  1  0  0  0  0
 25 27  1  0  0  0  0
M  CHG  1  15   1
M  END
$$$$
default_name
  -OEChem-02102213163D

 30 30  0     1  0  0  0  0  0999 V2000
   -3.5507   -3.2183    1.8116 H   0  0  0  0  0  0  0  0  0  0  0  0
   -3.4597   -2.3913    1.1076 C   0  0  0  0  0  0  0  0  0  0  0  0
   -4.1577   -1.6043    1.3866 H   0  0  0  0  0  0  0  0  0  0  0  0
   -3.6807   -2.7523    0.1036 H   0  0  0  0  0  0  0  0  0  0  0  0
   -2.0477   -1.8543    1.1546 C   0  0  0  0  0  0  0  0  0  0  0  0
   -1.2227   -2.3443    1.9146 O   0  0  0  0  0  0  0  0  0  0  0  0
   -1.7517   -0.8483    0.3266 N   0  0  0  0  0  0  0  0  0  0  0  0
   -2.4847   -0.5123   -0.2804 H   0  0  0  0  0  0  0  0  0  0  0  0
   -0.4117   -0.2463    0.2186 C   0  0  1  0  0  0  0  0  0  0  0  0
    0.1554   -0.5152    1.1133 H   0  0  0  0  0  0  0  0  0  0  0  0
    0.3164   -0.8780   -0.9905 C   0  0  0  0  0  0  0  0  0  0  0  0
    1.3867   -0.9142   -0.7725 H   0  0  0  0  0  0  0  0  0  0  0  0
   -0.0217   -1.9097   -1.1090 H   0  0  0  0  0  0  0  0  0  0  0  0
    0.1140   -0.1623   -2.3093 C   0  0  0  0  0  0  0  0  0  0  0  0
    1.1184    0.3906   -3.0800 N   0  3  0  0  0  0  0  0  0  0  0  0
    2.1139    0.3083   -2.8545 H   0  0  0  0  0  0  0  0  0  0  0  0
    0.5598    0.9404   -4.1765 C   0  0  0  0  0  0  0  0  0  0  0  0
    1.1027    1.4400   -4.9763 H   0  0  0  0  0  0  0  0  0  0  0  0
   -0.7776    0.7493   -4.1178 N   0  0  0  0  0  0  0  0  0  0  0  0
   -1.4553    1.0552   -4.8111 H   0  0  0  0  0  0  0  0  0  0  0  0
   -1.0746    0.0583   -2.9512 C   0  0  0  0  0  0  0  0  0  0  0  0
   -2.0566   -0.2526   -2.6057 H   0  0  0  0  0  0  0  0  0  0  0  0
   -0.4874    1.2908    0.1962 C   0  0  0  0  0  0  0  0  0  0  0  0
   -1.3116    1.8673   -0.5151 O   0  0  0  0  0  0  0  0  0  0  0  0
    0.3889    1.9422    0.9708 N   0  0  0  0  0  0  0  0  0  0  0  0
    1.0197    1.3866    1.5283 H   0  0  0  0  0  0  0  0  0  0  0  0
    0.5081    3.3999    1.0720 C   0  0  0  0  0  0  0  0  0  0  0  0
    0.0188    3.7538    1.9817 H   0  0  0  0  0  0  0  0  0  0  0  0
    1.5607    3.6858    1.1098 H   0  0  0  0  0  0  0  0  0  0  0  0
    0.0459    3.8890    0.2119 H   0  0  0  0  0  0  0  0  0  0  0  0
  5  6  2  0  0  0  0
  5  7  1  0  0  0  0
  2  3  1  0  0  0  0
  2  4  1  0  0  0  0
  2  5  1  0  0  0  0
  1  2  1  0  0  0  0
 23 24  2  0  0  0  0
 23 25  1  0  0  0  0
 21 22  1  0  0  0  0
 19 20  1  0  0  0  0
 19 21  1  0  0  0  0
 17 18  1  0  0  0  0
 17 19  1  0  0  0  0
 15 16  1  0  0  0  0
 15 17  2  0  0  0  0
 14 15  1  0  0  0  0
 14 21  2  0  0  0  0
 11 12  1  0  0  0  0
 11 13  1  0  0  0  0
 11 14  1  0  0  0  0
  9 10  1  0  0  0  0
  9 11  1  0  0  0  0
  9 23  1  0  0  0  0
  7  8  1  0  0  0  0
  7  9  1  0  0  0  0
 27 28  1  0  0  0  0
 27 29  1  0  0  0  0
 27 30  1  0  0  0  0
 25 26  1  0  0  0  0
 25 27  1  0  0  0  0
M  CHG  1  15   1
M  END
$$$$
default_name
  -OEChem-02102213163D

 30 30  0     1  0  0  0  0  0999 V2000
   -3.5507   -3.2183    1.8116 H   0  0  0  0  0  0  0  0  0  0  0  0
   -3.4597   -2.3913    1.1076 C   0  0  0  0  0  0  0  0  0  0  0  0
   -4.1577   -1.6043    1.3866 H   0  0  0  0  0  0  0  0  0  0  0  0
   -3.6807   -2.7523    0.1036 H   0  0  0  0  0  0  0  0  0  0  0  0
   -2.0477   -1.8543    1.1546 C   0  0  0  0  0  0  0  0  0  0  0  0
   -1.2227   -2.3443    1.9146 O   0  0  0  0  0  0  0  0  0  0  0  0
   -1.7517   -0.8483    0.3266 N   0  0  0  0  0  0  0  0  0  0  0  0
   -2.4847   -0.5123   -0.2804 H   0  0  0  0  0  0  0  0  0  0  0  0
   -0.4117   -0.2463    0.2186 C   0  0  1  0  0  0  0  0  0  0  0  0
    0.1554   -0.5152    1.1133 H   0  0  0  0  0  0  0  0  0  0  0  0
    0.3164   -0.8780   -0.9905 C   0  0  0  0  0  0  0  0  0  0  0  0
    1.3867   -0.9142   -0.7725 H   0  0  0  0  0  0  0  0  0  0  0  0
   -0.0217   -1.9097   -1.1090 H   0  0  0  0  0  0  0  0  0  0  0  0
    0.1140   -0.1623   -2.3093 C   0  0  0  0  0  0  0  0  0  0  0  0
    1.1109    0.1316   -3.2194 N   0  3  0  0  0  0  0  0  0  0  0  0
    2.0832   -0.1706   -3.1097 H   0  0  0  0  0  0  0  0  0  0  0  0
    0.5552    0.7714   -4.2676 C   0  0  0  0  0  0  0  0  0  0  0  0
    1.0905    1.1177   -5.1493 H   0  0  0  0  0  0  0  0  0  0  0  0
   -0.7726    0.8908   -4.0418 N   0  0  0  0  0  0  0  0  0  0  0  0
   -1.4469    1.3287   -4.6640 H   0  0  0  0  0  0  0  0  0  0  0  0
   -1.0666    0.3098   -2.8160 C   0  0  0  0  0  0  0  0  0  0  0  0
   -2.0416    0.2377   -2.3419 H   0  0  0  0  0  0  0  0  0  0  0  0
   -0.4874    1.2908    0.1962 C   0  0  0  0  0  0  0  0  0  0  0  0
   -1.3116    1.8673   -0.5151 O   0  0  0  0  0  0  0  0  0  0  0  0
    0.3889    1.9422    0.9708 N   0  0  0  0  0  0  0  0  0  0  0  0
    1.0197    1.3866    1.5283 H   0  0  0  0  0  0  0  0  0  0  0  0
    0.5081    3.3999    1.0720 C   0  0  0  0  0  0  0  0  0  0  0  0
    0.0188    3.7538    1.9817 H   0  0  0  0  0  0  0  0  0  0  0  0
    1.5607    3.6858    1.1098 H   0  0  0  0  0  0  0  0  0  0  0  0
    0.0459    3.8890    0.2119 H   0  0  0  0  0  0  0  0  0  0  0  0
  5  6  2  0  0  0  0
  5  7  1  0  0  0  0
  2  3  1  0  0  0  0
  2  4  1  0  0  0  0
  2  5  1  0  0  0  0
  1  2  1  0  0  0  0
 23 24  2  0  0  0  0
 23 25  1  0  0  0  0
 21 22  1  0  0  0  0
 19 20  1  0  0  0  0
 19 21  1  0  0  0  0
 17 18  1  0  0  0  0
 17 19  1  0  0  0  0
 15 16  1  0  0  0  0
 15 17  2  0  0  0  0
 14 15  1  0  0  0  0
 14 21  2  0  0  0  0
 11 12  1  0  0  0  0
 11 13  1  0  0  0  0
 11 14  1  0  0  0  0
  9 10  1  0  0  0  0
  9 11  1  0  0  0  0
  9 23  1  0  0  0  0
  7  8  1  0  0  0  0
  7  9  1  0  0  0  0
 27 28  1  0  0  0  0
 27 29  1  0  0  0  0
 27 30  1  0  0  0  0
 25 26  1  0  0  0  0
 25 27  1  0  0  0  0
M  CHG  1  15   1
M  END
$$$$
default_name
  -OEChem-02102213163D

 30 30  0     1  0  0  0  0  0999 V2000
   -3.5507   -3.2183    1.8116 H   0  0  0  0  0  0  0  0  0  0  0  0
   -3.4597   -2.3913    1.1076 C   0  0  0  0  0  0  0  0  0  0  0  0
   -4.1577   -1.6043    1.3866 H   0  0  0  0  0  0  0  0  0  0  0  0
   -3.6807   -2.7523    0.1036 H   0  0  0  0  0  0  0  0  0  0  0  0
   -2.0477   -1.8543    1.1546 C   0  0  0  0  0  0  0  0  0  0  0  0
   -1.2227   -2.3443    1.9146 O   0  0  0  0  0  0  0  0  0  0  0  0
   -1.7517   -0.8483    0.3266 N   0  0  0  0  0  0  0  0  0  0  0  0
   -2.4847   -0.5123   -0.2804 H   0  0  0  0  0  0  0  0  0  0  0  0
   -0.4117   -0.2463    0.2186 C   0  0  1  0  0  0  0  0  0  0  0  0
    0.1554   -0.5152    1.1133 H   0  0  0  0  0  0  0  0  0  0  0  0
    0.3164   -0.8780   -0.9905 C   0  0  0  0  0  0  0  0  0  0  0  0
    1.3867   -0.9142   -0.7725 H   0  0  0  0  0  0  0  0  0  0  0  0
   -0.0217   -1.9097   -1.1090 H   0  0  0  0  0  0  0  0  0  0  0  0
    0.1140   -0.1623   -2.3093 C   0  0  0  0  0  0  0  0  0  0  0  0
    1.0282   -0.1218   -3.3442 N   0  3  0  0  0  0  0  0  0  0  0  0
    1.9143   -0.6350   -3.3358 H   0  0  0  0  0  0  0  0  0  0  0  0
    0.5016    0.6060   -4.3491 C   0  0  0  0  0  0  0  0  0  0  0  0
    0.9850    0.8032   -5.3038 H   0  0  0  0  0  0  0  0  0  0  0  0
   -0.7266    1.0291   -3.9738 N   0  0  0  0  0  0  0  0  0  0  0  0
   -1.3592    1.5960   -4.5324 H   0  0  0  0  0  0  0  0  0  0  0  0
   -0.9857    0.5556   -2.6950 C   0  0  0  0  0  0  0  0  0  0  0  0
   -1.8843    0.7170   -2.1060 H   0  0  0  0  0  0  0  0  0  0  0  0
   -0.4874    1.2908    0.1962 C   0  0  0  0  0  0  0  0  0  0  0  0
   -1.3116    1.8673   -0.5151 O   0  0  0  0  0  0  0  0  0  0  0  0
    0.3889    1.9422    0.9708 N   0  0  0  0  0  0  0  0  0  0  0  0
    1.0197    1.3866    1.5283 H   0  0  0  0  0  0  0  0  0  0  0  0
    0.5081    3.3999    1.0720 C   0  0  0  0  0  0  0  0  0  0  0  0
    0.0188    3.7538    1.9817 H   0  0  0  0  0  0  0  0  0  0  0  0
    1.5607    3.6858    1.1098 H   0  0  0  0  0  0  0  0  0  0  0  0
    0.0459    3.8890    0.2119 H   0  0  0  0  0  0  0  0  0  0  0  0
  5  6  2  0  0  0  0
  5  7  1  0  0  0  0
  2  3  1  0  0  0  0
  2  4  1  0  0  0  0
  2  5  1  0  0  0  0
  1  2  1  0  0  0  0
 23 24  2  0  0  0  0
 23 25  1  0  0  0  0
 21 22  1  0  0  0  0
 19 20  1  0  0  0  0
 19 21  1  0  0  0  0
 17 18  1  0  0  0  0
 17 19  1  0  0  0  0
 15 16  1  0  0  0  0
 15 17  2  0  0  0  0
 14 15  1  0  0  0  0
 14 21  2  0  0  0  0
 11 12  1  0  0  0  0
 11 13  1  0  0  0  0
 11 14  1  0  0  0  0
  9 10  1  0  0  0  0
  9 11  1  0  0  0  0
  9 23  1  0  0  0  0
  7  8  1  0  0  0  0
  7  9  1  0  0  0  0
 27 28  1  0  0  0  0
 27 29  1  0  0  0  0
 27 30  1  0  0  0  0
 25 26  1  0  0  0  0
 25 27  1  0  0  0  0
M  CHG  1  15   1
M  END
$$$$
default_name
  -OEChem-02102213163D

 30 30  0     1  0  0  0  0  0999 V2000
   -3.5507   -3.2183    1.8116 H   0  0  0  0  0  0  0  0  0  0  0  0
   -3.4597   -2.3913    1.1076 C   0  0  0  0  0  0  0  0  0  0  0  0
   -4.1577   -1.6043    1.3866 H   0  0  0  0  0  0  0  0  0  0  0  0
   -3.6807   -2.7523    0.1036 H   0  0  0  0  0  0  0  0  0  0  0  0
   -2.0477   -1.8543    1.1546 C   0  0  0  0  0  0  0  0  0  0  0  0
   -1.2227   -2.3443    1.9146 O   0  0  0  0  0  0  0  0  0  0  0  0
   -1.7517   -0.8483    0.3266 N   0  0  0  0  0  0  0  0  0  0  0  0
   -2.4847   -0.5123   -0.2804 H   0  0  0  0  0  0  0  0  0  0  0  0
   -0.4117   -0.2463    0.2186 C   0  0  1  0  0  0  0  0  0  0  0  0
    0.1554   -0.5152    1.1133 H   0  0  0  0  0  0  0  0  0  0  0  0
    0.3164   -0.8780   -0.9905 C   0  0  0  0  0  0  0  0  0  0  0  0
    1.3867   -0.9142   -0.7725 H   0  0  0  0  0  0  0  0  0  0  0  0
   -0.0217   -1.9097   -1.1090 H   0  0  0  0  0  0  0  0  0  0  0  0
    0.1140   -0.1623   -2.3093 C   0  0  0  0  0  0  0  0  0  0  0  0
    0.8759   -0.3522   -3.4459 N   0  3  0  0  0  0  0  0  0  0  0  0
    1.6189   -1.0533   -3.5175 H   0  0  0  0  0  0  0  0  0  0  0  0
    0.4025    0.4555   -4.4155 C   0  0  0  0  0  0  0  0  0  0  0  0
    0.7932    0.5178   -5.4292 H   0  0  0  0  0  0  0  0  0  0  0  0
   -0.6427    1.1547   -3.9185 N   0  0  0  0  0  0  0  0  0  0  0  0
   -1.1981    1.8391   -4.4252 H   0  0  0  0  0  0  0  0  0  0  0  0
   -0.8373    0.7789   -2.5966 C   0  0  0  0  0  0  0  0  0  0  0  0
   -1.5954    1.1527   -1.9138 H   0  0  0  0  0  0  0  0  0  0  0  0
   -0.4874    1.2908    0.1962 C   0  0  0  0  0  0  0  0  0  0  0  0
   -1.3116    1.8673   -0.5151 O   0  0  0  0  0  0  0  0  0  0  0  0
    0.3889    1.9422    0.9708 N   0  0  0  0  0  0  0  0  0  0  0  0
    1.0197    1.3866    1.5283 H   0  0  0  0  0  0  0  0  0  0  0  0
    0.5081    3.3999    1.0720 C   0  0  0  0  0  0  0  0  0  0  0  0
    0.0188    3.7538    1.9817 H   0  0  0  0  0  0  0  0  0  0  0  0
    1.5607    3.6858    1.1098 H   0  0  0  0  0  0  0  0  0  0  0  0
    0.0459    3.8890    0.2119 H   0  0  0  0  0  0  0  0  0  0  0  0
  5  6  2  0  0  0  0
  5  7  1  0  0  0  0
  2  3  1  0  0  0  0
  2  4  1  0  0  0  0
  2  5  1  0  0  0  0
  1  2  1  0  0  0  0
 23 24  2  0  0  0  0
 23 25  1  0  0  0  0
 21 22  1  0  0  0  0
 19 20  1  0  0  0  0
 19 21  1  0  0  0  0
 17 18  1  0  0  0  0
 17 19  1  0  0  0  0
 15 16  1  0  0  0  0
 15 17  2  0  0  0  0
 14 15  1  0  0  0  0
 14 21  2  0  0  0  0
 11 12  1  0  0  0  0
 11 13  1  0  0  0  0
 11 14  1  0  0  0  0
  9 10  1  0  0  0  0
  9 11  1  0  0  0  0
  9 23  1  0  0  0  0
  7  8  1  0  0  0  0
  7  9  1  0  0  0  0
 27 28  1  0  0  0  0
 27 29  1  0  0  0  0
 27 30  1  0  0  0  0
 25 26  1  0  0  0  0
 25 27  1  0  0  0  0
M  CHG  1  15   1
M  END
$$$$
default_name
  -OEChem-02102213163D

 30 30  0     1  0  0  0  0  0999 V2000
   -3.5507   -3.2183    1.8116 H   0  0  0  0  0  0  0  0  0  0  0  0
   -3.4597   -2.3913    1.1076 C   0  0  0  0  0  0  0  0  0  0  0  0
   -4.1577   -1.6043    1.3866 H   0  0  0  0  0  0  0  0  0  0  0  0
   -3.6807   -2.7523    0.1036 H   0  0  0  0  0  0  0  0  0  0  0  0
   -2.0477   -1.8543    1.1546 C   0  0  0  0  0  0  0  0  0  0  0  0
   -1.2227   -2.3443    1.9146 O   0  0  0  0  0  0  0  0  0  0  0  0
   -1.7517   -0.8483    0.3266 N   0  0  0  0  0  0  0  0  0  0  0  0
   -2.4847   -0.5123   -0.2804 H   0  0  0  0  0  0  0  0  0  0  0  0
   -0.4117   -0.2463    0.2186 C   0  0  1  0  0  0  0  0  0  0  0  0
    0.1554   -0.5152    1.1133 H   0  0  0  0  0  0  0  0  0  0  0  0
    0.3164   -0.8780   -0.9905 C   0  0  0  0  0  0  0  0  0  0  0  0
    1.3255   -1.1610   -0.6804 H   0  0  0  0  0  0  0  0  0  0  0  0
   -0.2008   -1.7966   -1.2759 H   0  0  0  0  0  0  0  0  0  0  0  0
    0.4155    0.0060   -2.2157 C   0  0  0  0  0  0  0  0  0  0  0  0
    1.0195   -0.3458   -3.4073 N   0  3  0  0  0  0  0  0  0  0  0  0
    1.4051   -1.2763   -3.5922 H   0  0  0  0  0  0  0  0  0  0  0  0
    0.9134    0.6919   -4.2609 C   0  0  0  0  0  0  0  0  0  0  0  0
    1.2850    0.7062   -5.2835 H   0  0  0  0  0  0  0  0  0  0  0  0
    0.2560    1.6950   -3.6364 N   0  0  0  0  0  0  0  0  0  0  0  0
    0.0287    2.6008   -4.0381 H   0  0  0  0  0  0  0  0  0  0  0  0
   -0.0639    1.2809   -2.3508 C   0  0  0  0  0  0  0  0  0  0  0  0
   -0.5926    1.8503   -1.5914 H   0  0  0  0  0  0  0  0  0  0  0  0
   -0.4874    1.2908    0.1962 C   0  0  0  0  0  0  0  0  0  0  0  0
   -1.3116    1.8673   -0.5151 O   0  0  0  0  0  0  0  0  0  0  0  0
    0.3889    1.9422    0.9708 N   0  0  0  0  0  0  0  0  0  0  0  0
    1.0197    1.3866    1.5283 H   0  0  0  0  0  0  0  0  0  0  0  0
    0.5081    3.3999    1.0720 C   0  0  0  0  0  0  0  0  0  0  0  0
    0.0188    3.7538    1.9817 H   0  0  0  0  0  0  0  0  0  0  0  0
    1.5607    3.6858    1.1098 H   0  0  0  0  0  0  0  0  0  0  0  0
    0.0459    3.8890    0.2119 H   0  0  0  0  0  0  0  0  0  0  0  0
  5  6  2  0  0  0  0
  5  7  1  0  0  0  0
  2  3  1  0  0  0  0
  2  4  1  0  0  0  0
  2  5  1  0  0  0  0
  1  2  1  0  0  0  0
 23 24  2  0  0  0  0
 23 25  1  0  0  0  0
 21 22  1  0  0  0  0
 19 20  1  0  0  0  0
 19 21  1  0  0  0  0
 17 18  1  0  0  0  0
 17 19  1  0  0  0  0
 15 16  1  0  0  0  0
 15 17  2  0  0  0  0
 14 15  1  0  0  0  0
 14 21  2  0  0  0  0
 11 12  1  0  0  0  0
 11 13  1  0  0  0  0
 11 14  1  0  0  0  0
  9 10  1  0  0  0  0
  9 11  1  0  0  0  0
  9 23  1  0  0  0  0
  7  8  1  0  0  0  0
  7  9  1  0  0  0  0
 27 28  1  0  0  0  0
 27 29  1  0  0  0  0
 27 30  1  0  0  0  0
 25 26  1  0  0  0  0
 25 27  1  0  0  0  0
M  CHG  1  15   1
M  END
$$$$
default_name
  -OEChem-02102213163D

 30 30  0     1  0  0  0  0  0999 V2000
   -3.5507   -3.2183    1.8116 H   0  0  0  0  0  0  0  0  0  0  0  0
   -3.4597   -2.3913    1.1076 C   0  0  0  0  0  0  0  0  0  0  0  0
   -4.1577   -1.6043    1.3866 H   0  0  0  0  0  0  0  0  0  0  0  0
   -3.6807   -2.7523    0.1036 H   0  0  0  0  0  0  0  0  0  0  0  0
   -2.0477   -1.8543    1.1546 C   0  0  0  0  0  0  0  0  0  0  0  0
   -1.2227   -2.3443    1.9146 O   0  0  0  0  0  0  0  0  0  0  0  0
   -1.7517   -0.8483    0.3266 N   0  0  0  0  0  0  0  0  0  0  0  0
   -2.4847   -0.5123   -0.2804 H   0  0  0  0  0  0  0  0  0  0  0  0
   -0.4117   -0.2463    0.2186 C   0  0  1  0  0  0  0  0  0  0  0  0
    0.1554   -0.5152    1.1133 H   0  0  0  0  0  0  0  0  0  0  0  0
    0.3164   -0.8780   -0.9905 C   0  0  0  0  0  0  0  0  0  0  0  0
    1.3255   -1.1610   -0.6804 H   0  0  0  0  0  0  0  0  0  0  0  0
   -0.2008   -1.7966   -1.2759 H   0  0  0  0  0  0  0  0  0  0  0  0
    0.4155    0.0060   -2.2157 C   0  0  0  0  0  0  0  0  0  0  0  0
    0.7470   -0.4242   -3.4859 N   0  3  0  0  0  0  0  0  0  0  0  0
    0.8958   -1.4079   -3.7285 H   0  0  0  0  0  0  0  0  0  0  0  0
    0.7356    0.6405   -4.3124 C   0  0  0  0  0  0  0  0  0  0  0  0
    0.9450    0.6109   -5.3798 H   0  0  0  0  0  0  0  0  0  0  0  0
    0.4052    1.7372   -3.5939 N   0  0  0  0  0  0  0  0  0  0  0  0
    0.3165    2.6833   -3.9554 H   0  0  0  0  0  0  0  0  0  0  0  0
    0.2009    1.3565   -2.2748 C   0  0  0  0  0  0  0  0  0  0  0  0
   -0.0766    1.9981   -1.4430 H   0  0  0  0  0  0  0  0  0  0  0  0
   -0.4874    1.2908    0.1962 C   0  0  0  0  0  0  0  0  0  0  0  0
   -1.3116    1.8673   -0.5151 O   0  0  0  0  0  0  0  0  0  0  0  0
    0.3889    1.9422    0.9708 N   0  0  0  0  0  0  0  0  0  0  0  0
    1.0197    1.3866    1.5283 H   0  0  0  0  0  0  0  0  0  0  0  0
    0.5081    3.3999    1.0720 C   0  0  0  0  0  0  0  0  0  0  0  0
    0.0188    3.7538    1.9817 H   0  0  0  0  0  0  0  0  0  0  0  0
    1.5607    3.6858    1.1098 H   0  0  0  0  0  0  0  0  0  0  0  0
    0.0459    3.8890    0.2119 H   0  0  0  0  0  0  0  0  0  0  0  0
  5  6  2  0  0  0  0
  5  7  1  0  0  0  0
  2  3  1  0  0  0  0
  2  4  1  0  0  0  0
  2  5  1  0  0  0  0
  1  2  1  0  0  0  0
 23 24  2  0  0  0  0
 23 25  1  0  0  0  0
 21 22  1  0  0  0  0
 19 20  1  0  0  0  0
 19 21  1  0  0  0  0
 17 18  1  0  0  0  0
 17 19  1  0  0  0  0
 15 16  1  0  0  0  0
 15 17  2  0  0  0  0
 14 15  1  0  0  0  0
 14 21  2  0  0  0  0
 11 12  1  0  0  0  0
 11 13  1  0  0  0  0
 11 14  1  0  0  0  0
  9 10  1  0  0  0  0
  9 11  1  0  0  0  0
  9 23  1  0  0  0  0
  7  8  1  0  0  0  0
  7  9  1  0  0  0  0
 27 28  1  0  0  0  0
 27 29  1  0  0  0  0
 27 30  1  0  0  0  0
 25 26  1  0  0  0  0
 25 27  1  0  0  0  0
M  CHG  1  15   1
M  END
$$$$
default_name
  -OEChem-02102213163D

 30 30  0     1  0  0  0  0  0999 V2000
   -3.5507   -3.2183    1.8116 H   0  0  0  0  0  0  0  0  0  0  0  0
   -3.4597   -2.3913    1.1076 C   0  0  0  0  0  0  0  0  0  0  0  0
   -4.1577   -1.6043    1.3866 H   0  0  0  0  0  0  0  0  0  0  0  0
   -3.6807   -2.7523    0.1036 H   0  0  0  0  0  0  0  0  0  0  0  0
   -2.0477   -1.8543    1.1546 C   0  0  0  0  0  0  0  0  0  0  0  0
   -1.2227   -2.3443    1.9146 O   0  0  0  0  0  0  0  0  0  0  0  0
   -1.7517   -0.8483    0.3266 N   0  0  0  0  0  0  0  0  0  0  0  0
   -2.4847   -0.5123   -0.2804 H   0  0  0  0  0  0  0  0  0  0  0  0
   -0.4117   -0.2463    0.2186 C   0  0  1  0  0  0  0  0  0  0  0  0
    0.1554   -0.5152    1.1133 H   0  0  0  0  0  0  0  0  0  0  0  0
    0.3164   -0.8780   -0.9905 C   0  0  0  0  0  0  0  0  0  0  0  0
    1.3255   -1.1610   -0.6804 H   0  0  0  0  0  0  0  0  0  0  0  0
   -0.2008   -1.7966   -1.2759 H   0  0  0  0  0  0  0  0  0  0  0  0
    0.4155    0.0060   -2.2157 C   0  0  0  0  0  0  0  0  0  0  0  0
    0.4554   -0.4416   -3.5220 N   0  3  0  0  0  0  0  0  0  0  0  0
    0.3556   -1.4262   -3.7853 H   0  0  0  0  0  0  0  0  0  0  0  0
    0.5454    0.6289   -4.3362 C   0  0  0  0  0  0  0  0  0  0  0  0
    0.5821    0.5917   -5.4230 H   0  0  0  0  0  0  0  0  0  0  0  0
    0.5647    1.7460   -3.5746 N   0  0  0  0  0  0  0  0  0  0  0  0
    0.6244    2.7012   -3.9175 H   0  0  0  0  0  0  0  0  0  0  0  0
    0.4840    1.3728   -2.2402 C   0  0  0  0  0  0  0  0  0  0  0  0
    0.4753    2.0302   -1.3752 H   0  0  0  0  0  0  0  0  0  0  0  0
   -0.4874    1.2908    0.1962 C   0  0  0  0  0  0  0  0  0  0  0  0
   -1.3116    1.8673   -0.5151 O   0  0  0  0  0  0  0  0  0  0  0  0
    0.3889    1.9422    0.9708 N   0  0  0  0  0  0  0  0  0  0  0  0
    1.0197    1.3866    1.5283 H   0  0  0  0  0  0  0  0  0  0  0  0
    0.5081    3.3999    1.0720 C   0  0  0  0  0  0  0  0  0  0  0  0
    0.0188    3.7538    1.9817 H   0  0  0  0  0  0  0  0  0  0  0  0
    1.5607    3.6858    1.1098 H   0  0  0  0  0  0  0  0  0  0  0  0
    0.0459    3.8890    0.2119 H   0  0  0  0  0  0  0  0  0  0  0  0
  5  6  2  0  0  0  0
  5  7  1  0  0  0  0
  2  3  1  0  0  0  0
  2  4  1  0  0  0  0
  2  5  1  0  0  0  0
  1  2  1  0  0  0  0
 23 24  2  0  0  0  0
 23 25  1  0  0  0  0
 21 22  1  0  0  0  0
 19 20  1  0  0  0  0
 19 21  1  0  0  0  0
 17 18  1  0  0  0  0
 17 19  1  0  0  0  0
 15 16  1  0  0  0  0
 15 17  2  0  0  0  0
 14 15  1  0  0  0  0
 14 21  2  0  0  0  0
 11 12  1  0  0  0  0
 11 13  1  0  0  0  0
 11 14  1  0  0  0  0
  9 10  1  0  0  0  0
  9 11  1  0  0  0  0
  9 23  1  0  0  0  0
  7  8  1  0  0  0  0
  7  9  1  0  0  0  0
 27 28  1  0  0  0  0
 27 29  1  0  0  0  0
 27 30  1  0  0  0  0
 25 26  1  0  0  0  0
 25 27  1  0  0  0  0
M  CHG  1  15   1
M  END
$$$$
default_name
  -OEChem-02102213163D

 30 30  0     1  0  0  0  0  0999 V2000
   -3.5507   -3.2183    1.8116 H   0  0  0  0  0  0  0  0  0  0  0  0
   -3.4597   -2.3913    1.1076 C   0  0  0  0  0  0  0  0  0  0  0  0
   -4.1577   -1.6043    1.3866 H   0  0  0  0  0  0  0  0  0  0  0  0
   -3.6807   -2.7523    0.1036 H   0  0  0  0  0  0  0  0  0  0  0  0
   -2.0477   -1.8543    1.1546 C   0  0  0  0  0  0  0  0  0  0  0  0
   -1.2227   -2.3443    1.9146 O   0  0  0  0  0  0  0  0  0  0  0  0
   -1.7517   -0.8483    0.3266 N   0  0  0  0  0  0  0  0  0  0  0  0
   -2.4847   -0.5123   -0.2804 H   0  0  0  0  0  0  0  0  0  0  0  0
   -0.4117   -0.2463    0.2186 C   0  0  1  0  0  0  0  0  0  0  0  0
    0.1554   -0.5152    1.1133 H   0  0  0  0  0  0  0  0  0  0  0  0
    0.3164   -0.8780   -0.9905 C   0  0  0  0  0  0  0  0  0  0  0  0
    1.3255   -1.1610   -0.6804 H   0  0  0  0  0  0  0  0  0  0  0  0
   -0.2008   -1.7966   -1.2759 H   0  0  0  0  0  0  0  0  0  0  0  0
    0.4155    0.0060   -2.2157 C   0  0  0  0  0  0  0  0  0  0  0  0
    0.1647   -0.3966   -3.5132 N   0  3  0  0  0  0  0  0  0  0  0  0
   -0.1785   -1.3297   -3.7589 H   0  0  0  0  0  0  0  0  0  0  0  0
    0.3557    0.6579   -4.3306 C   0  0  0  0  0  0  0  0  0  0  0  0
    0.2210    0.6498   -5.4103 H   0  0  0  0  0  0  0  0  0  0  0  0
    0.7234    1.7208   -3.5800 N   0  0  0  0  0  0  0  0  0  0  0  0
    0.9312    2.6535   -3.9271 H   0  0  0  0  0  0  0  0  0  0  0  0
    0.7660    1.3287   -2.2492 C   0  0  0  0  0  0  0  0  0  0  0  0
    1.0254    1.9445   -1.3925 H   0  0  0  0  0  0  0  0  0  0  0  0
   -0.4874    1.2908    0.1962 C   0  0  0  0  0  0  0  0  0  0  0  0
   -1.3116    1.8673   -0.5151 O   0  0  0  0  0  0  0  0  0  0  0  0
    0.3889    1.9422    0.9708 N   0  0  0  0  0  0  0  0  0  0  0  0
    1.0197    1.3866    1.5283 H   0  0  0  0  0  0  0  0  0  0  0  0
    0.5081    3.3999    1.0720 C   0  0  0  0  0  0  0  0  0  0  0  0
    0.0188    3.7538    1.9817 H   0  0  0  0  0  0  0  0  0  0  0  0
    1.5607    3.6858    1.1098 H   0  0  0  0  0  0  0  0  0  0  0  0
    0.0459    3.8890    0.2119 H   0  0  0  0  0  0  0  0  0  0  0  0
  5  6  2  0  0  0  0
  5  7  1  0  0  0  0
  2  3  1  0  0  0  0
  2  4  1  0  0  0  0
  2  5  1  0  0  0  0
  1  2  1  0  0  0  0
 23 24  2  0  0  0  0
 23 25  1  0  0  0  0
 21 22  1  0  0  0  0
 19 20  1  0  0  0  0
 19 21  1  0  0  0  0
 17 18  1  0  0  0  0
 17 19  1  0  0  0  0
 15 16  1  0  0  0  0
 15 17  2  0  0  0  0
 14 15  1  0  0  0  0
 14 21  2  0  0  0  0
 11 12  1  0  0  0  0
 11 13  1  0  0  0  0
 11 14  1  0  0  0  0
  9 10  1  0  0  0  0
  9 11  1  0  0  0  0
  9 23  1  0  0  0  0
  7  8  1  0  0  0  0
  7  9  1  0  0  0  0
 27 28  1  0  0  0  0
 27 29  1  0  0  0  0
 27 30  1  0  0  0  0
 25 26  1  0  0  0  0
 25 27  1  0  0  0  0
M  CHG  1  15   1
M  END
$$$$
default_name
  -OEChem-02102213163D

 30 30  0     1  0  0  0  0  0999 V2000
   -3.5507   -3.2183    1.8116 H   0  0  0  0  0  0  0  0  0  0  0  0
   -3.4597   -2.3913    1.1076 C   0  0  0  0  0  0  0  0  0  0  0  0
   -4.1577   -1.6043    1.3866 H   0  0  0  0  0  0  0  0  0  0  0  0
   -3.6807   -2.7523    0.1036 H   0  0  0  0  0  0  0  0  0  0  0  0
   -2.0477   -1.8543    1.1546 C   0  0  0  0  0  0  0  0  0  0  0  0
   -1.2227   -2.3443    1.9146 O   0  0  0  0  0  0  0  0  0  0  0  0
   -1.7517   -0.8483    0.3266 N   0  0  0  0  0  0  0  0  0  0  0  0
   -2.4847   -0.5123   -0.2804 H   0  0  0  0  0  0  0  0  0  0  0  0
   -0.4117   -0.2463    0.2186 C   0  0  1  0  0  0  0  0  0  0  0  0
    0.1554   -0.5152    1.1133 H   0  0  0  0  0  0  0  0  0  0  0  0
    0.3164   -0.8780   -0.9905 C   0  0  0  0  0  0  0  0  0  0  0  0
    1.3255   -1.1610   -0.6804 H   0  0  0  0  0  0  0  0  0  0  0  0
   -0.2008   -1.7966   -1.2759 H   0  0  0  0  0  0  0  0  0  0  0  0
    0.4155    0.0060   -2.2157 C   0  0  0  0  0  0  0  0  0  0  0  0
   -0.1054   -0.2925   -3.4599 N   0  3  0  0  0  0  0  0  0  0  0  0
   -0.6703   -1.1251   -3.6510 H   0  0  0  0  0  0  0  0  0  0  0  0
    0.1793    0.7256   -4.2960 C   0  0  0  0  0  0  0  0  0  0  0  0
   -0.1137    0.7814   -5.3424 H   0  0  0  0  0  0  0  0  0  0  0  0
    0.8706    1.6633   -3.6096 N   0  0  0  0  0  0  0  0  0  0  0  0
    1.2161    2.5432   -3.9836 H   0  0  0  0  0  0  0  0  0  0  0  0
    1.0279    1.2271   -2.3013 C   0  0  0  0  0  0  0  0  0  0  0  0
    1.5361    1.7469   -1.4938 H   0  0  0  0  0  0  0  0  0  0  0  0
   -0.4874    1.2908    0.1962 C   0  0  0  0  0  0  0  0  0  0  0  0
   -1.3116    1.8673   -0.5151 O   0  0  0  0  0  0  0  0  0  0  0  0
    0.3889    1.9422    0.9708 N   0  0  0  0  0  0  0  0  0  0  0  0
    1.0197    1.3866    1.5283 H   0  0  0  0  0  0  0  0  0  0  0  0
    0.5081    3.3999    1.0720 C   0  0  0  0  0  0  0  0  0  0  0  0
    0.0188    3.7538    1.9817 H   0  0  0  0  0  0  0  0  0  0  0  0
    1.5607    3.6858    1.1098 H   0  0  0  0  0  0  0  0  0  0  0  0
    0.0459    3.8890    0.2119 H   0  0  0  0  0  0  0  0  0  0  0  0
  5  6  2  0  0  0  0
  5  7  1  0  0  0  0
  2  3  1  0  0  0  0
  2  4  1  0  0  0  0
  2  5  1  0  0  0  0
  1  2  1  0  0  0  0
 23 24  2  0  0  0  0
 23 25  1  0  0  0  0
 21 22  1  0  0  0  0
 19 20  1  0  0  0  0
 19 21  1  0  0  0  0
 17 18  1  0  0  0  0
 17 19  1  0  0  0  0
 15 16  1  0  0  0  0
 15 17  2  0  0  0  0
 14 15  1  0  0  0  0
 14 21  2  0  0  0  0
 11 12  1  0  0  0  0
 11 13  1  0  0  0  0
 11 14  1  0  0  0  0
  9 10  1  0  0  0  0
  9 11  1  0  0  0  0
  9 23  1  0  0  0  0
  7  8  1  0  0  0  0
  7  9  1  0  0  0  0
 27 28  1  0  0  0  0
 27 29  1  0  0  0  0
 27 30  1  0  0  0  0
 25 26  1  0  0  0  0
 25 27  1  0  0  0  0
M  CHG  1  15   1
M  END
$$$$
default_name
  -OEChem-02102213163D

 30 30  0     1  0  0  0  0  0999 V2000
   -3.5507   -3.2183    1.8116 H   0  0  0  0  0  0  0  0  0  0  0  0
   -3.4597   -2.3913    1.1076 C   0  0  0  0  0  0  0  0  0  0  0  0
   -4.1577   -1.6043    1.3866 H   0  0  0  0  0  0  0  0  0  0  0  0
   -3.6807   -2.7523    0.1036 H   0  0  0  0  0  0  0  0  0  0  0  0
   -2.0477   -1.8543    1.1546 C   0  0  0  0  0  0  0  0  0  0  0  0
   -1.2227   -2.3443    1.9146 O   0  0  0  0  0  0  0  0  0  0  0  0
   -1.7517   -0.8483    0.3266 N   0  0  0  0  0  0  0  0  0  0  0  0
   -2.4847   -0.5123   -0.2804 H   0  0  0  0  0  0  0  0  0  0  0  0
   -0.4117   -0.2463    0.2186 C   0  0  1  0  0  0  0  0  0  0  0  0
    0.1554   -0.5152    1.1133 H   0  0  0  0  0  0  0  0  0  0  0  0
    0.3164   -0.8780   -0.9905 C   0  0  0  0  0  0  0  0  0  0  0  0
    1.3255   -1.1610   -0.6804 H   0  0  0  0  0  0  0  0  0  0  0  0
   -0.2008   -1.7966   -1.2759 H   0  0  0  0  0  0  0  0  0  0  0  0
    0.4155    0.0060   -2.2157 C   0  0  0  0  0  0  0  0  0  0  0  0
   -0.3364   -0.1363   -3.3658 N   0  3  0  0  0  0  0  0  0  0  0  0
   -1.0861   -0.8262   -3.4691 H   0  0  0  0  0  0  0  0  0  0  0  0
    0.0284    0.8273   -4.2348 C   0  0  0  0  0  0  0  0  0  0  0  0
   -0.3992    0.9775   -5.2241 H   0  0  0  0  0  0  0  0  0  0  0  0
    0.9963    1.5774   -3.6614 N   0  0  0  0  0  0  0  0  0  0  0  0
    1.4596    2.3780   -4.0831 H   0  0  0  0  0  0  0  0  0  0  0  0
    1.2517    1.0750   -2.3929 C   0  0  0  0  0  0  0  0  0  0  0  0
    1.9728    1.4507   -1.6722 H   0  0  0  0  0  0  0  0  0  0  0  0
   -0.4874    1.2908    0.1962 C   0  0  0  0  0  0  0  0  0  0  0  0
   -1.3116    1.8673   -0.5151 O   0  0  0  0  0  0  0  0  0  0  0  0
    0.3889    1.9422    0.9708 N   0  0  0  0  0  0  0  0  0  0  0  0
    1.0197    1.3866    1.5283 H   0  0  0  0  0  0  0  0  0  0  0  0
    0.5081    3.3999    1.0720 C   0  0  0  0  0  0  0  0  0  0  0  0
    0.0188    3.7538    1.9817 H   0  0  0  0  0  0  0  0  0  0  0  0
    1.5607    3.6858    1.1098 H   0  0  0  0  0  0  0  0  0  0  0  0
    0.0459    3.8890    0.2119 H   0  0  0  0  0  0  0  0  0  0  0  0
  5  6  2  0  0  0  0
  5  7  1  0  0  0  0
  2  3  1  0  0  0  0
  2  4  1  0  0  0  0
  2  5  1  0  0  0  0
  1  2  1  0  0  0  0
 23 24  2  0  0  0  0
 23 25  1  0  0  0  0
 21 22  1  0  0  0  0
 19 20  1  0  0  0  0
 19 21  1  0  0  0  0
 17 18  1  0  0  0  0
 17 19  1  0  0  0  0
 15 16  1  0  0  0  0
 15 17  2  0  0  0  0
 14 15  1  0  0  0  0
 14 21  2  0  0  0  0
 11 12  1  0  0  0  0
 11 13  1  0  0  0  0
 11 14  1  0  0  0  0
  9 10  1  0  0  0  0
  9 11  1  0  0  0  0
  9 23  1  0  0  0  0
  7  8  1  0  0  0  0
  7  9  1  0  0  0  0
 27 28  1  0  0  0  0
 27 29  1  0  0  0  0
 27 30  1  0  0  0  0
 25 26  1  0  0  0  0
 25 27  1  0  0  0  0
M  CHG  1  15   1
M  END
$$$$
default_name
  -OEChem-02102213163D

 30 30  0     1  0  0  0  0  0999 V2000
   -3.5507   -3.2183    1.8116 H   0  0  0  0  0  0  0  0  0  0  0  0
   -3.4597   -2.3913    1.1076 C   0  0  0  0  0  0  0  0  0  0  0  0
   -4.1577   -1.6043    1.3866 H   0  0  0  0  0  0  0  0  0  0  0  0
   -3.6807   -2.7523    0.1036 H   0  0  0  0  0  0  0  0  0  0  0  0
   -2.0477   -1.8543    1.1546 C   0  0  0  0  0  0  0  0  0  0  0  0
   -1.2227   -2.3443    1.9146 O   0  0  0  0  0  0  0  0  0  0  0  0
   -1.7517   -0.8483    0.3266 N   0  0  0  0  0  0  0  0  0  0  0  0
   -2.4847   -0.5123   -0.2804 H   0  0  0  0  0  0  0  0  0  0  0  0
   -0.4117   -0.2463    0.2186 C   0  0  1  0  0  0  0  0  0  0  0  0
    0.1554   -0.5152    1.1133 H   0  0  0  0  0  0  0  0  0  0  0  0
    0.3164   -0.8780   -0.9905 C   0  0  0  0  0  0  0  0  0  0  0  0
    1.3255   -1.1610   -0.6804 H   0  0  0  0  0  0  0  0  0  0  0  0
   -0.2008   -1.7966   -1.2759 H   0  0  0  0  0  0  0  0  0  0  0  0
    0.4155    0.0060   -2.2157 C   0  0  0  0  0  0  0  0  0  0  0  0
   -0.5126    0.0614   -3.2375 N   0  3  0  0  0  0  0  0  0  0  0  0
   -1.3977   -0.4536   -3.2254 H   0  0  0  0  0  0  0  0  0  0  0  0
   -0.0869    0.9562   -4.1511 C   0  0  0  0  0  0  0  0  0  0  0  0
   -0.6160    1.2246   -5.0633 H   0  0  0  0  0  0  0  0  0  0  0  0
    1.0919    1.4690   -3.7318 N   0  0  0  0  0  0  0  0  0  0  0  0
    1.6453    2.1691   -4.2188 H   0  0  0  0  0  0  0  0  0  0  0  0
    1.4221    0.8829   -2.5178 C   0  0  0  0  0  0  0  0  0  0  0  0
    2.3055    1.0761   -1.9155 H   0  0  0  0  0  0  0  0  0  0  0  0
   -0.4874    1.2908    0.1962 C   0  0  0  0  0  0  0  0  0  0  0  0
   -1.3116    1.8673   -0.5151 O   0  0  0  0  0  0  0  0  0  0  0  0
    0.3889    1.9422    0.9708 N   0  0  0  0  0  0  0  0  0  0  0  0
    1.0197    1.3866    1.5283 H   0  0  0  0  0  0  0  0  0  0  0  0
    0.5081    3.3999    1.0720 C   0  0  0  0  0  0  0  0  0  0  0  0
    0.0188    3.7538    1.9817 H   0  0  0  0  0  0  0  0  0  0  0  0
    1.5607    3.6858    1.1098 H   0  0  0  0  0  0  0  0  0  0  0  0
    0.0459    3.8890    0.2119 H   0  0  0  0  0  0  0  0  0  0  0  0
  5  6  2  0  0  0  0
  5  7  1  0  0  0  0
  2  3  1  0  0  0  0
  2  4  1  0  0  0  0
  2  5  1  0  0  0  0
  1  2  1  0  0  0  0
 23 24  2  0  0  0  0
 23 25  1  0  0  0  0
 21 22  1  0  0  0  0
 19 20  1  0  0  0  0
 19 21  1  0  0  0  0
 17 18  1  0  0  0  0
 17 19  1  0  0  0  0
 15 16  1  0  0  0  0
 15 17  2  0  0  0  0
 14 15  1  0  0  0  0
 14 21  2  0  0  0  0
 11 12  1  0  0  0  0
 11 13  1  0  0  0  0
 11 14  1  0  0  0  0
  9 10  1  0  0  0  0
  9 11  1  0  0  0  0
  9 23  1  0  0  0  0
  7  8  1  0  0  0  0
  7  9  1  0  0  0  0
 27 28  1  0  0  0  0
 27 29  1  0  0  0  0
 27 30  1  0  0  0  0
 25 26  1  0  0  0  0
 25 27  1  0  0  0  0
M  CHG  1  15   1
M  END
$$$$
default_name
  -OEChem-02102213163D

 30 30  0     1  0  0  0  0  0999 V2000
   -3.5507   -3.2183    1.8116 H   0  0  0  0  0  0  0  0  0  0  0  0
   -3.4597   -2.3913    1.1076 C   0  0  0  0  0  0  0  0  0  0  0  0
   -4.1577   -1.6043    1.3866 H   0  0  0  0  0  0  0  0  0  0  0  0
   -3.6807   -2.7523    0.1036 H   0  0  0  0  0  0  0  0  0  0  0  0
   -2.0477   -1.8543    1.1546 C   0  0  0  0  0  0  0  0  0  0  0  0
   -1.2227   -2.3443    1.9146 O   0  0  0  0  0  0  0  0  0  0  0  0
   -1.7517   -0.8483    0.3266 N   0  0  0  0  0  0  0  0  0  0  0  0
   -2.4847   -0.5123   -0.2804 H   0  0  0  0  0  0  0  0  0  0  0  0
   -0.4117   -0.2463    0.2186 C   0  0  1  0  0  0  0  0  0  0  0  0
    0.1554   -0.5152    1.1133 H   0  0  0  0  0  0  0  0  0  0  0  0
    0.3164   -0.8780   -0.9905 C   0  0  0  0  0  0  0  0  0  0  0  0
    1.3255   -1.1610   -0.6804 H   0  0  0  0  0  0  0  0  0  0  0  0
   -0.2008   -1.7966   -1.2759 H   0  0  0  0  0  0  0  0  0  0  0  0
    0.4155    0.0060   -2.2157 C   0  0  0  0  0  0  0  0  0  0  0  0
   -0.6220    0.2871   -3.0835 N   0  3  0  0  0  0  0  0  0  0  0  0
   -1.5838   -0.0325   -2.9367 H   0  0  0  0  0  0  0  0  0  0  0  0
   -0.1586    1.1033   -4.0508 C   0  0  0  0  0  0  0  0  0  0  0  0
   -0.7494    1.5061   -4.8710 H   0  0  0  0  0  0  0  0  0  0  0  0
    1.1509    1.3455   -3.8162 N   0  0  0  0  0  0  0  0  0  0  0  0
    1.7603    1.9308   -4.3815 H   0  0  0  0  0  0  0  0  0  0  0  0
    1.5277    0.6636   -2.6674 C   0  0  0  0  0  0  0  0  0  0  0  0
    2.5117    0.6488   -2.2072 H   0  0  0  0  0  0  0  0  0  0  0  0
   -0.4874    1.2908    0.1962 C   0  0  0  0  0  0  0  0  0  0  0  0
   -1.3116    1.8673   -0.5151 O   0  0  0  0  0  0  0  0  0  0  0  0
    0.3889    1.9422    0.9708 N   0  0  0  0  0  0  0  0  0  0  0  0
    1.0197    1.3866    1.5283 H   0  0  0  0  0  0  0  0  0  0  0  0
    0.5081    3.3999    1.0720 C   0  0  0  0  0  0  0  0  0  0  0  0
    0.0188    3.7538    1.9817 H   0  0  0  0  0  0  0  0  0  0  0  0
    1.5607    3.6858    1.1098 H   0  0  0  0  0  0  0  0  0  0  0  0
    0.0459    3.8890    0.2119 H   0  0  0  0  0  0  0  0  0  0  0  0
  5  6  2  0  0  0  0
  5  7  1  0  0  0  0
  2  3  1  0  0  0  0
  2  4  1  0  0  0  0
  2  5  1  0  0  0  0
  1  2  1  0  0  0  0
 23 24  2  0  0  0  0
 23 25  1  0  0  0  0
 21 22  1  0  0  0  0
 19 20  1  0  0  0  0
 19 21  1  0  0  0  0
 17 18  1  0  0  0  0
 17 19  1  0  0  0  0
 15 16  1  0  0  0  0
 15 17  2  0  0  0  0
 14 15  1  0  0  0  0
 14 21  2  0  0  0  0
 11 12  1  0  0  0  0
 11 13  1  0  0  0  0
 11 14  1  0  0  0  0
  9 10  1  0  0  0  0
  9 11  1  0  0  0  0
  9 23  1  0  0  0  0
  7  8  1  0  0  0  0
  7  9  1  0  0  0  0
 27 28  1  0  0  0  0
 27 29  1  0  0  0  0
 27 30  1  0  0  0  0
 25 26  1  0  0  0  0
 25 27  1  0  0  0  0
M  CHG  1  15   1
M  END
$$$$
default_name
  -OEChem-02102213163D

 30 30  0     1  0  0  0  0  0999 V2000
   -3.5507   -3.2183    1.8116 H   0  0  0  0  0  0  0  0  0  0  0  0
   -3.4597   -2.3913    1.1076 C   0  0  0  0  0  0  0  0  0  0  0  0
   -4.1577   -1.6043    1.3866 H   0  0  0  0  0  0  0  0  0  0  0  0
   -3.6807   -2.7523    0.1036 H   0  0  0  0  0  0  0  0  0  0  0  0
   -2.0477   -1.8543    1.1546 C   0  0  0  0  0  0  0  0  0  0  0  0
   -1.2227   -2.3443    1.9146 O   0  0  0  0  0  0  0  0  0  0  0  0
   -1.7517   -0.8483    0.3266 N   0  0  0  0  0  0  0  0  0  0  0  0
   -2.4847   -0.5123   -0.2804 H   0  0  0  0  0  0  0  0  0  0  0  0
   -0.4117   -0.2463    0.2186 C   0  0  1  0  0  0  0  0  0  0  0  0
    0.1554   -0.5152    1.1133 H   0  0  0  0  0  0  0  0  0  0  0  0
    0.3164   -0.8780   -0.9905 C   0  0  0  0  0  0  0  0  0  0  0  0
    1.3255   -1.1610   -0.6804 H   0  0  0  0  0  0  0  0  0  0  0  0
   -0.2008   -1.7966   -1.2759 H   0  0  0  0  0  0  0  0  0  0  0  0
    0.4155    0.0060   -2.2157 C   0  0  0  0  0  0  0  0  0  0  0  0
   -0.6571    0.5254   -2.9144 N   0  3  0  0  0  0  0  0  0  0  0  0
   -1.6317    0.4083   -2.6225 H   0  0  0  0  0  0  0  0  0  0  0  0
   -0.1819    1.2588   -3.9404 C   0  0  0  0  0  0  0  0  0  0  0  0
   -0.7902    1.8026   -4.6604 H   0  0  0  0  0  0  0  0  0  0  0  0
    1.1693    1.2152   -3.9087 N   0  0  0  0  0  0  0  0  0  0  0  0
    1.7969    1.6792   -4.5600 H   0  0  0  0  0  0  0  0  0  0  0  0
    1.5611    0.4323   -2.8316 C   0  0  0  0  0  0  0  0  0  0  0  0
    2.5774    0.1978   -2.5273 H   0  0  0  0  0  0  0  0  0  0  0  0
   -0.4874    1.2908    0.1962 C   0  0  0  0  0  0  0  0  0  0  0  0
   -1.3116    1.8673   -0.5151 O   0  0  0  0  0  0  0  0  0  0  0  0
    0.3889    1.9422    0.9708 N   0  0  0  0  0  0  0  0  0  0  0  0
    1.0197    1.3866    1.5283 H   0  0  0  0  0  0  0  0  0  0  0  0
    0.5081    3.3999    1.0720 C   0  0  0  0  0  0  0  0  0  0  0  0
    0.0188    3.7538    1.9817 H   0  0  0  0  0  0  0  0  0  0  0  0
    1.5607    3.6858    1.1098 H   0  0  0  0  0  0  0  0  0  0  0  0
    0.0459    3.8890    0.2119 H   0  0  0  0  0  0  0  0  0  0  0  0
  5  6  2  0  0  0  0
  5  7  1  0  0  0  0
  2  3  1  0  0  0  0
  2  4  1  0  0  0  0
  2  5  1  0  0  0  0
  1  2  1  0  0  0  0
 23 24  2  0  0  0  0
 23 25  1  0  0  0  0
 21 22  1  0  0  0  0
 19 20  1  0  0  0  0
 19 21  1  0  0  0  0
 17 18  1  0  0  0  0
 17 19  1  0  0  0  0
 15 16  1  0  0  0  0
 15 17  2  0  0  0  0
 14 15  1  0  0  0  0
 14 21  2  0  0  0  0
 11 12  1  0  0  0  0
 11 13  1  0  0  0  0
 11 14  1  0  0  0  0
  9 10  1  0  0  0  0
  9 11  1  0  0  0  0
  9 23  1  0  0  0  0
  7  8  1  0  0  0  0
  7  9  1  0  0  0  0
 27 28  1  0  0  0  0
 27 29  1  0  0  0  0
 27 30  1  0  0  0  0
 25 26  1  0  0  0  0
 25 27  1  0  0  0  0
M  CHG  1  15   1
M  END
$$$$
default_name
  -OEChem-02102213163D

 30 30  0     1  0  0  0  0  0999 V2000
   -3.5507   -3.2183    1.8116 H   0  0  0  0  0  0  0  0  0  0  0  0
   -3.4597   -2.3913    1.1076 C   0  0  0  0  0  0  0  0  0  0  0  0
   -4.1577   -1.6043    1.3866 H   0  0  0  0  0  0  0  0  0  0  0  0
   -3.6807   -2.7523    0.1036 H   0  0  0  0  0  0  0  0  0  0  0  0
   -2.0477   -1.8543    1.1546 C   0  0  0  0  0  0  0  0  0  0  0  0
   -1.2227   -2.3443    1.9146 O   0  0  0  0  0  0  0  0  0  0  0  0
   -1.7517   -0.8483    0.3266 N   0  0  0  0  0  0  0  0  0  0  0  0
   -2.4847   -0.5123   -0.2804 H   0  0  0  0  0  0  0  0  0  0  0  0
   -0.4117   -0.2463    0.2186 C   0  0  1  0  0  0  0  0  0  0  0  0
    0.1554   -0.5152    1.1133 H   0  0  0  0  0  0  0  0  0  0  0  0
    0.3164   -0.8780   -0.9905 C   0  0  0  0  0  0  0  0  0  0  0  0
    1.3255   -1.1610   -0.6804 H   0  0  0  0  0  0  0  0  0  0  0  0
   -0.2008   -1.7966   -1.2759 H   0  0  0  0  0  0  0  0  0  0  0  0
    0.4155    0.0060   -2.2157 C   0  0  0  0  0  0  0  0  0  0  0  0
   -0.6156    0.7601   -2.7417 N   0  3  0  0  0  0  0  0  0  0  0  0
   -1.5382    0.8388   -2.3043 H   0  0  0  0  0  0  0  0  0  0  0  0
   -0.1551    1.4120   -3.8278 C   0  0  0  0  0  0  0  0  0  0  0  0
   -0.7357    2.0939   -4.4457 H   0  0  0  0  0  0  0  0  0  0  0  0
    1.1457    1.0871   -4.0031 N   0  0  0  0  0  0  0  0  0  0  0  0
    1.7526    1.4316   -4.7423 H   0  0  0  0  0  0  0  0  0  0  0  0
    1.5201    0.2046   -2.9992 C   0  0  0  0  0  0  0  0  0  0  0  0
    2.4979   -0.2462   -2.8541 H   0  0  0  0  0  0  0  0  0  0  0  0
   -0.4874    1.2908    0.1962 C   0  0  0  0  0  0  0  0  0  0  0  0
   -1.3116    1.8673   -0.5151 O   0  0  0  0  0  0  0  0  0  0  0  0
    0.3889    1.9422    0.9708 N   0  0  0  0  0  0  0  0  0  0  0  0
    1.0197    1.3866    1.5283 H   0  0  0  0  0  0  0  0  0  0  0  0
    0.5081    3.3999    1.0720 C   0  0  0  0  0  0  0  0  0  0  0  0
    0.0188    3.7538    1.9817 H   0  0  0  0  0  0  0  0  0  0  0  0
    1.5607    3.6858    1.1098 H   0  0  0  0  0  0  0  0  0  0  0  0
    0.0459    3.8890    0.2119 H   0  0  0  0  0  0  0  0  0  0  0  0
  5  6  2  0  0  0  0
  5  7  1  0  0  0  0
  2  3  1  0  0  0  0
  2  4  1  0  0  0  0
  2  5  1  0  0  0  0
  1  2  1  0  0  0  0
 23 24  2  0  0  0  0
 23 25  1  0  0  0  0
 21 22  1  0  0  0  0
 19 20  1  0  0  0  0
 19 21  1  0  0  0  0
 17 18  1  0  0  0  0
 17 19  1  0  0  0  0
 15 16  1  0  0  0  0
 15 17  2  0  0  0  0
 14 15  1  0  0  0  0
 14 21  2  0  0  0  0
 11 12  1  0  0  0  0
 11 13  1  0  0  0  0
 11 14  1  0  0  0  0
  9 10  1  0  0  0  0
  9 11  1  0  0  0  0
  9 23  1  0  0  0  0
  7  8  1  0  0  0  0
  7  9  1  0  0  0  0
 27 28  1  0  0  0  0
 27 29  1  0  0  0  0
 27 30  1  0  0  0  0
 25 26  1  0  0  0  0
 25 27  1  0  0  0  0
M  CHG  1  15   1
M  END
$$$$
default_name
  -OEChem-02102213163D

 30 30  0     1  0  0  0  0  0999 V2000
   -3.5507   -3.2183    1.8116 H   0  0  0  0  0  0  0  0  0  0  0  0
   -3.4597   -2.3913    1.1076 C   0  0  0  0  0  0  0  0  0  0  0  0
   -4.1577   -1.6043    1.3866 H   0  0  0  0  0  0  0  0  0  0  0  0
   -3.6807   -2.7523    0.1036 H   0  0  0  0  0  0  0  0  0  0  0  0
   -2.0477   -1.8543    1.1546 C   0  0  0  0  0  0  0  0  0  0  0  0
   -1.2227   -2.3443    1.9146 O   0  0  0  0  0  0  0  0  0  0  0  0
   -1.7517   -0.8483    0.3266 N   0  0  0  0  0  0  0  0  0  0  0  0
   -2.4847   -0.5123   -0.2804 H   0  0  0  0  0  0  0  0  0  0  0  0
   -0.4117   -0.2463    0.2186 C   0  0  1  0  0  0  0  0  0  0  0  0
    0.1554   -0.5152    1.1133 H   0  0  0  0  0  0  0  0  0  0  0  0
    0.3164   -0.8780   -0.9905 C   0  0  0  0  0  0  0  0  0  0  0  0
    1.3255   -1.1610   -0.6804 H   0  0  0  0  0  0  0  0  0  0  0  0
   -0.2008   -1.7966   -1.2759 H   0  0  0  0  0  0  0  0  0  0  0  0
    0.4155    0.0060   -2.2157 C   0  0  0  0  0  0  0  0  0  0  0  0
   -0.5002    0.9751   -2.5772 N   0  3  0  0  0  0  0  0  0  0  0  0
   -1.3096    1.2296   -2.0038 H   0  0  0  0  0  0  0  0  0  0  0  0
   -0.0801    1.5525   -3.7204 C   0  0  0  0  0  0  0  0  0  0  0  0
   -0.5896    2.3604   -4.2417 H   0  0  0  0  0  0  0  0  0  0  0  0
    1.0819    0.9699   -4.0928 N   0  0  0  0  0  0  0  0  0  0  0  0
    1.6305    1.2048   -4.9159 H   0  0  0  0  0  0  0  0  0  0  0  0
    1.4075   -0.0038   -3.1587 C   0  0  0  0  0  0  0  0  0  0  0  0
    2.2788   -0.6529   -3.1652 H   0  0  0  0  0  0  0  0  0  0  0  0
   -0.4874    1.2908    0.1962 C   0  0  0  0  0  0  0  0  0  0  0  0
   -1.3116    1.8673   -0.5151 O   0  0  0  0  0  0  0  0  0  0  0  0
    0.3889    1.9422    0.9708 N   0  0  0  0  0  0  0  0  0  0  0  0
    1.0197    1.3866    1.5283 H   0  0  0  0  0  0  0  0  0  0  0  0
    0.5081    3.3999    1.0720 C   0  0  0  0  0  0  0  0  0  0  0  0
    0.0188    3.7538    1.9817 H   0  0  0  0  0  0  0  0  0  0  0  0
    1.5607    3.6858    1.1098 H   0  0  0  0  0  0  0  0  0  0  0  0
    0.0459    3.8890    0.2119 H   0  0  0  0  0  0  0  0  0  0  0  0
  5  6  2  0  0  0  0
  5  7  1  0  0  0  0
  2  3  1  0  0  0  0
  2  4  1  0  0  0  0
  2  5  1  0  0  0  0
  1  2  1  0  0  0  0
 23 24  2  0  0  0  0
 23 25  1  0  0  0  0
 21 22  1  0  0  0  0
 19 20  1  0  0  0  0
 19 21  1  0  0  0  0
 17 18  1  0  0  0  0
 17 19  1  0  0  0  0
 15 16  1  0  0  0  0
 15 17  2  0  0  0  0
 14 15  1  0  0  0  0
 14 21  2  0  0  0  0
 11 12  1  0  0  0  0
 11 13  1  0  0  0  0
 11 14  1  0  0  0  0
  9 10  1  0  0  0  0
  9 11  1  0  0  0  0
  9 23  1  0  0  0  0
  7  8  1  0  0  0  0
  7  9  1  0  0  0  0
 27 28  1  0  0  0  0
 27 29  1  0  0  0  0
 27 30  1  0  0  0  0
 25 26  1  0  0  0  0
 25 27  1  0  0  0  0
M  CHG  1  15   1
M  END
$$$$
default_name
  -OEChem-02102213163D

 30 30  0     1  0  0  0  0  0999 V2000
   -3.5507   -3.2183    1.8116 H   0  0  0  0  0  0  0  0  0  0  0  0
   -3.4597   -2.3913    1.1076 C   0  0  0  0  0  0  0  0  0  0  0  0
   -4.1577   -1.6043    1.3866 H   0  0  0  0  0  0  0  0  0  0  0  0
   -3.6807   -2.7523    0.1036 H   0  0  0  0  0  0  0  0  0  0  0  0
   -2.0477   -1.8543    1.1546 C   0  0  0  0  0  0  0  0  0  0  0  0
   -1.2227   -2.3443    1.9146 O   0  0  0  0  0  0  0  0  0  0  0  0
   -1.7517   -0.8483    0.3266 N   0  0  0  0  0  0  0  0  0  0  0  0
   -2.4847   -0.5123   -0.2804 H   0  0  0  0  0  0  0  0  0  0  0  0
   -0.4117   -0.2463    0.2186 C   0  0  1  0  0  0  0  0  0  0  0  0
    0.1554   -0.5152    1.1133 H   0  0  0  0  0  0  0  0  0  0  0  0
    0.3164   -0.8780   -0.9905 C   0  0  0  0  0  0  0  0  0  0  0  0
    1.3255   -1.1610   -0.6804 H   0  0  0  0  0  0  0  0  0  0  0  0
   -0.2008   -1.7966   -1.2759 H   0  0  0  0  0  0  0  0  0  0  0  0
    0.4155    0.0060   -2.2157 C   0  0  0  0  0  0  0  0  0  0  0  0
   -0.3189    1.1559   -2.4321 N   0  3  0  0  0  0  0  0  0  0  0  0
   -0.9616    1.5542   -1.7414 H   0  0  0  0  0  0  0  0  0  0  0  0
    0.0379    1.6706   -3.6256 C   0  0  0  0  0  0  0  0  0  0  0  0
   -0.3618    2.5836   -4.0621 H   0  0  0  0  0  0  0  0  0  0  0  0
    0.9822    0.8716   -4.1718 N   0  0  0  0  0  0  0  0  0  0  0  0
    1.4387    1.0142   -5.0689 H   0  0  0  0  0  0  0  0  0  0  0  0
    1.2310   -0.1789   -3.2994 C   0  0  0  0  0  0  0  0  0  0  0  0
    1.9350   -0.9945   -3.4395 H   0  0  0  0  0  0  0  0  0  0  0  0
   -0.4874    1.2908    0.1962 C   0  0  0  0  0  0  0  0  0  0  0  0
   -1.3116    1.8673   -0.5151 O   0  0  0  0  0  0  0  0  0  0  0  0
    0.3889    1.9422    0.9708 N   0  0  0  0  0  0  0  0  0  0  0  0
    1.0197    1.3866    1.5283 H   0  0  0  0  0  0  0  0  0  0  0  0
    0.5081    3.3999    1.0720 C   0  0  0  0  0  0  0  0  0  0  0  0
    0.0188    3.7538    1.9817 H   0  0  0  0  0  0  0  0  0  0  0  0
    1.5607    3.6858    1.1098 H   0  0  0  0  0  0  0  0  0  0  0  0
    0.0459    3.8890    0.2119 H   0  0  0  0  0  0  0  0  0  0  0  0
  5  6  2  0  0  0  0
  5  7  1  0  0  0  0
  2  3  1  0  0  0  0
  2  4  1  0  0  0  0
  2  5  1  0  0  0  0
  1  2  1  0  0  0  0
 23 24  2  0  0  0  0
 23 25  1  0  0  0  0
 21 22  1  0  0  0  0
 19 20  1  0  0  0  0
 19 21  1  0  0  0  0
 17 18  1  0  0  0  0
 17 19  1  0  0  0  0
 15 16  1  0  0  0  0
 15 17  2  0  0  0  0
 14 15  1  0  0  0  0
 14 21  2  0  0  0  0
 11 12  1  0  0  0  0
 11 13  1  0  0  0  0
 11 14  1  0  0  0  0
  9 10  1  0  0  0  0
  9 11  1  0  0  0  0
  9 23  1  0  0  0  0
  7  8  1  0  0  0  0
  7  9  1  0  0  0  0
 27 28  1  0  0  0  0
 27 29  1  0  0  0  0
 27 30  1  0  0  0  0
 25 26  1  0  0  0  0
 25 27  1  0  0  0  0
M  CHG  1  15   1
M  END
$$$$
default_name
  -OEChem-02102213163D

 30 30  0     1  0  0  0  0  0999 V2000
   -3.5507   -3.2183    1.8116 H   0  0  0  0  0  0  0  0  0  0  0  0
   -3.4597   -2.3913    1.1076 C   0  0  0  0  0  0  0  0  0  0  0  0
   -4.1577   -1.6043    1.3866 H   0  0  0  0  0  0  0  0  0  0  0  0
   -3.6807   -2.7523    0.1036 H   0  0  0  0  0  0  0  0  0  0  0  0
   -2.0477   -1.8543    1.1546 C   0  0  0  0  0  0  0  0  0  0  0  0
   -1.2227   -2.3443    1.9146 O   0  0  0  0  0  0  0  0  0  0  0  0
   -1.7517   -0.8483    0.3266 N   0  0  0  0  0  0  0  0  0  0  0  0
   -2.4847   -0.5123   -0.2804 H   0  0  0  0  0  0  0  0  0  0  0  0
   -0.4117   -0.2463    0.2186 C   0  0  1  0  0  0  0  0  0  0  0  0
    0.1554   -0.5152    1.1133 H   0  0  0  0  0  0  0  0  0  0  0  0
    0.3164   -0.8780   -0.9905 C   0  0  0  0  0  0  0  0  0  0  0  0
    1.3255   -1.1610   -0.6804 H   0  0  0  0  0  0  0  0  0  0  0  0
   -0.2008   -1.7966   -1.2759 H   0  0  0  0  0  0  0  0  0  0  0  0
    0.4155    0.0060   -2.2157 C   0  0  0  0  0  0  0  0  0  0  0  0
   -0.0840    1.2901   -2.3163 N   0  3  0  0  0  0  0  0  0  0  0  0
   -0.5178    1.7904   -1.5351 H   0  0  0  0  0  0  0  0  0  0  0  0
    0.1910    1.7584   -3.5498 C   0  0  0  0  0  0  0  0  0  0  0  0
   -0.0680    2.7485   -3.9194 H   0  0  0  0  0  0  0  0  0  0  0  0
    0.8533    0.7988   -4.2347 N   0  0  0  0  0  0  0  0  0  0  0  0
    1.1904    0.8728   -5.1909 H   0  0  0  0  0  0  0  0  0  0  0  0
    1.0025   -0.3087   -3.4115 C   0  0  0  0  0  0  0  0  0  0  0  0
    1.4898   -1.2478   -3.6583 H   0  0  0  0  0  0  0  0  0  0  0  0
   -0.4874    1.2908    0.1962 C   0  0  0  0  0  0  0  0  0  0  0  0
   -1.3116    1.8673   -0.5151 O   0  0  0  0  0  0  0  0  0  0  0  0
    0.3889    1.9422    0.9708 N   0  0  0  0  0  0  0  0  0  0  0  0
    1.0197    1.3866    1.5283 H   0  0  0  0  0  0  0  0  0  0  0  0
    0.5081    3.3999    1.0720 C   0  0  0  0  0  0  0  0  0  0  0  0
    0.0188    3.7538    1.9817 H   0  0  0  0  0  0  0  0  0  0  0  0
    1.5607    3.6858    1.1098 H   0  0  0  0  0  0  0  0  0  0  0  0
    0.0459    3.8890    0.2119 H   0  0  0  0  0  0  0  0  0  0  0  0
  5  6  2  0  0  0  0
  5  7  1  0  0  0  0
  2  3  1  0  0  0  0
  2  4  1  0  0  0  0
  2  5  1  0  0  0  0
  1  2  1  0  0  0  0
 23 24  2  0  0  0  0
 23 25  1  0  0  0  0
 21 22  1  0  0  0  0
 19 20  1  0  0  0  0
 19 21  1  0  0  0  0
 17 18  1  0  0  0  0
 17 19  1  0  0  0  0
 15 16  1  0  0  0  0
 15 17  2  0  0  0  0
 14 15  1  0  0  0  0
 14 21  2  0  0  0  0
 11 12  1  0  0  0  0
 11 13  1  0  0  0  0
 11 14  1  0  0  0  0
  9 10  1  0  0  0  0
  9 11  1  0  0  0  0
  9 23  1  0  0  0  0
  7  8  1  0  0  0  0
  7  9  1  0  0  0  0
 27 28  1  0  0  0  0
 27 29  1  0  0  0  0
 27 30  1  0  0  0  0
 25 26  1  0  0  0  0
 25 27  1  0  0  0  0
M  CHG  1  15   1
M  END
$$$$
default_name
  -OEChem-02102213163D

 30 30  0     1  0  0  0  0  0999 V2000
   -3.5507   -3.2183    1.8116 H   0  0  0  0  0  0  0  0  0  0  0  0
   -3.4597   -2.3913    1.1076 C   0  0  0  0  0  0  0  0  0  0  0  0
   -4.1577   -1.6043    1.3866 H   0  0  0  0  0  0  0  0  0  0  0  0
   -3.6807   -2.7523    0.1036 H   0  0  0  0  0  0  0  0  0  0  0  0
   -2.0477   -1.8543    1.1546 C   0  0  0  0  0  0  0  0  0  0  0  0
   -1.2227   -2.3443    1.9146 O   0  0  0  0  0  0  0  0  0  0  0  0
   -1.7517   -0.8483    0.3266 N   0  0  0  0  0  0  0  0  0  0  0  0
   -2.4847   -0.5123   -0.2804 H   0  0  0  0  0  0  0  0  0  0  0  0
   -0.4117   -0.2463    0.2186 C   0  0  1  0  0  0  0  0  0  0  0  0
    0.1554   -0.5152    1.1133 H   0  0  0  0  0  0  0  0  0  0  0  0
    0.3164   -0.8780   -0.9905 C   0  0  0  0  0  0  0  0  0  0  0  0
    1.3255   -1.1610   -0.6804 H   0  0  0  0  0  0  0  0  0  0  0  0
   -0.2008   -1.7966   -1.2759 H   0  0  0  0  0  0  0  0  0  0  0  0
    0.4155    0.0060   -2.2157 C   0  0  0  0  0  0  0  0  0  0  0  0
    0.1886    1.3685   -2.2376 N   0  3  0  0  0  0  0  0  0  0  0  0
   -0.0085    1.9221   -1.3989 H   0  0  0  0  0  0  0  0  0  0  0  0
    0.3687    1.8098   -3.4983 C   0  0  0  0  0  0  0  0  0  0  0  0
    0.2720    2.8439   -3.8231 H   0  0  0  0  0  0  0  0  0  0  0  0
    0.7040    0.7566   -4.2773 N   0  0  0  0  0  0  0  0  0  0  0  0
    0.9026    0.7904   -5.2737 H   0  0  0  0  0  0  0  0  0  0  0  0
    0.7377   -0.3843   -3.4874 C   0  0  0  0  0  0  0  0  0  0  0  0
    0.9738   -1.3956   -3.8067 H   0  0  0  0  0  0  0  0  0  0  0  0
   -0.4874    1.2908    0.1962 C   0  0  0  0  0  0  0  0  0  0  0  0
   -1.3116    1.8673   -0.5151 O   0  0  0  0  0  0  0  0  0  0  0  0
    0.3889    1.9422    0.9708 N   0  0  0  0  0  0  0  0  0  0  0  0
    1.0197    1.3866    1.5283 H   0  0  0  0  0  0  0  0  0  0  0  0
    0.5081    3.3999    1.0720 C   0  0  0  0  0  0  0  0  0  0  0  0
    0.0188    3.7538    1.9817 H   0  0  0  0  0  0  0  0  0  0  0  0
    1.5607    3.6858    1.1098 H   0  0  0  0  0  0  0  0  0  0  0  0
    0.0459    3.8890    0.2119 H   0  0  0  0  0  0  0  0  0  0  0  0
  5  6  2  0  0  0  0
  5  7  1  0  0  0  0
  2  3  1  0  0  0  0
  2  4  1  0  0  0  0
  2  5  1  0  0  0  0
  1  2  1  0  0  0  0
 23 24  2  0  0  0  0
 23 25  1  0  0  0  0
 21 22  1  0  0  0  0
 19 20  1  0  0  0  0
 19 21  1  0  0  0  0
 17 18  1  0  0  0  0
 17 19  1  0  0  0  0
 15 16  1  0  0  0  0
 15 17  2  0  0  0  0
 14 15  1  0  0  0  0
 14 21  2  0  0  0  0
 11 12  1  0  0  0  0
 11 13  1  0  0  0  0
 11 14  1  0  0  0  0
  9 10  1  0  0  0  0
  9 11  1  0  0  0  0
  9 23  1  0  0  0  0
  7  8  1  0  0  0  0
  7  9  1  0  0  0  0
 27 28  1  0  0  0  0
 27 29  1  0  0  0  0
 27 30  1  0  0  0  0
 25 26  1  0  0  0  0
 25 27  1  0  0  0  0
M  CHG  1  15   1
M  END
$$$$
default_name
  -OEChem-02102213163D

 30 30  0     1  0  0  0  0  0999 V2000
   -3.5507   -3.2183    1.8116 H   0  0  0  0  0  0  0  0  0  0  0  0
   -3.4597   -2.3913    1.1076 C   0  0  0  0  0  0  0  0  0  0  0  0
   -4.1577   -1.6043    1.3866 H   0  0  0  0  0  0  0  0  0  0  0  0
   -3.6807   -2.7523    0.1036 H   0  0  0  0  0  0  0  0  0  0  0  0
   -2.0477   -1.8543    1.1546 C   0  0  0  0  0  0  0  0  0  0  0  0
   -1.2227   -2.3443    1.9146 O   0  0  0  0  0  0  0  0  0  0  0  0
   -1.7517   -0.8483    0.3266 N   0  0  0  0  0  0  0  0  0  0  0  0
   -2.4847   -0.5123   -0.2804 H   0  0  0  0  0  0  0  0  0  0  0  0
   -0.4117   -0.2463    0.2186 C   0  0  1  0  0  0  0  0  0  0  0  0
    0.1554   -0.5152    1.1133 H   0  0  0  0  0  0  0  0  0  0  0  0
    0.3164   -0.8780   -0.9905 C   0  0  0  0  0  0  0  0  0  0  0  0
    1.3255   -1.1610   -0.6804 H   0  0  0  0  0  0  0  0  0  0  0  0
   -0.2008   -1.7966   -1.2759 H   0  0  0  0  0  0  0  0  0  0  0  0
    0.4155    0.0060   -2.2157 C   0  0  0  0  0  0  0  0  0  0  0  0
    0.4801    1.3859   -2.2015 N   0  3  0  0  0  0  0  0  0  0  0  0
    0.5317    1.9403   -1.3420 H   0  0  0  0  0  0  0  0  0  0  0  0
    0.5590    1.8214   -3.4746 C   0  0  0  0  0  0  0  0  0  0  0  0
    0.6349    2.8631   -3.7798 H   0  0  0  0  0  0  0  0  0  0  0  0
    0.5446    0.7478   -4.2965 N   0  0  0  0  0  0  0  0  0  0  0  0
    0.5948    0.7724   -5.3116 H   0  0  0  0  0  0  0  0  0  0  0  0
    0.4547   -0.4006   -3.5221 C   0  0  0  0  0  0  0  0  0  0  0  0
    0.4219   -1.4278   -3.8746 H   0  0  0  0  0  0  0  0  0  0  0  0
   -0.4874    1.2908    0.1962 C   0  0  0  0  0  0  0  0  0  0  0  0
   -1.3116    1.8673   -0.5151 O   0  0  0  0  0  0  0  0  0  0  0  0
    0.3889    1.9422    0.9708 N   0  0  0  0  0  0  0  0  0  0  0  0
    1.0197    1.3866    1.5283 H   0  0  0  0  0  0  0  0  0  0  0  0
    0.5081    3.3999    1.0720 C   0  0  0  0  0  0  0  0  0  0  0  0
    0.0188    3.7538    1.9817 H   0  0  0  0  0  0  0  0  0  0  0  0
    1.5607    3.6858    1.1098 H   0  0  0  0  0  0  0  0  0  0  0  0
    0.0459    3.8890    0.2119 H   0  0  0  0  0  0  0  0  0  0  0  0
  5  6  2  0  0  0  0
  5  7  1  0  0  0  0
  2  3  1  0  0  0  0
  2  4  1  0  0  0  0
  2  5  1  0  0  0  0
  1  2  1  0  0  0  0
 23 24  2  0  0  0  0
 23 25  1  0  0  0  0
 21 22  1  0  0  0  0
 19 20  1  0  0  0  0
 19 21  1  0  0  0  0
 17 18  1  0  0  0  0
 17 19  1  0  0  0  0
 15 16  1  0  0  0  0
 15 17  2  0  0  0  0
 14 15  1  0  0  0  0
 14 21  2  0  0  0  0
 11 12  1  0  0  0  0
 11 13  1  0  0  0  0
 11 14  1  0  0  0  0
  9 10  1  0  0  0  0
  9 11  1  0  0  0  0
  9 23  1  0  0  0  0
  7  8  1  0  0  0  0
  7  9  1  0  0  0  0
 27 28  1  0  0  0  0
 27 29  1  0  0  0  0
 27 30  1  0  0  0  0
 25 26  1  0  0  0  0
 25 27  1  0  0  0  0
M  CHG  1  15   1
M  END
$$$$
default_name
  -OEChem-02102213163D

 30 30  0     1  0  0  0  0  0999 V2000
   -3.5507   -3.2183    1.8116 H   0  0  0  0  0  0  0  0  0  0  0  0
   -3.4597   -2.3913    1.1076 C   0  0  0  0  0  0  0  0  0  0  0  0
   -4.1577   -1.6043    1.3866 H   0  0  0  0  0  0  0  0  0  0  0  0
   -3.6807   -2.7523    0.1036 H   0  0  0  0  0  0  0  0  0  0  0  0
   -2.0477   -1.8543    1.1546 C   0  0  0  0  0  0  0  0  0  0  0  0
   -1.2227   -2.3443    1.9146 O   0  0  0  0  0  0  0  0  0  0  0  0
   -1.7517   -0.8483    0.3266 N   0  0  0  0  0  0  0  0  0  0  0  0
   -2.4847   -0.5123   -0.2804 H   0  0  0  0  0  0  0  0  0  0  0  0
   -0.4117   -0.2463    0.2186 C   0  0  1  0  0  0  0  0  0  0  0  0
    0.1554   -0.5152    1.1133 H   0  0  0  0  0  0  0  0  0  0  0  0
    0.3164   -0.8780   -0.9905 C   0  0  0  0  0  0  0  0  0  0  0  0
    1.3255   -1.1610   -0.6804 H   0  0  0  0  0  0  0  0  0  0  0  0
   -0.2008   -1.7966   -1.2759 H   0  0  0  0  0  0  0  0  0  0  0  0
    0.4155    0.0060   -2.2157 C   0  0  0  0  0  0  0  0  0  0  0  0
    0.7709    1.3410   -2.2104 N   0  3  0  0  0  0  0  0  0  0  0  0
    1.0658    1.8438   -1.3684 H   0  0  0  0  0  0  0  0  0  0  0  0
    0.7487    1.7924   -3.4802 C   0  0  0  0  0  0  0  0  0  0  0  0
    0.9961    2.8049   -3.7926 H   0  0  0  0  0  0  0  0  0  0  0  0
    0.3859    0.7730   -4.2911 N   0  0  0  0  0  0  0  0  0  0  0  0
    0.2880    0.8202   -5.3019 H   0  0  0  0  0  0  0  0  0  0  0  0
    0.1726   -0.3564   -3.5131 C   0  0  0  0  0  0  0  0  0  0  0  0
   -0.1282   -1.3421   -3.8572 H   0  0  0  0  0  0  0  0  0  0  0  0
   -0.4874    1.2908    0.1962 C   0  0  0  0  0  0  0  0  0  0  0  0
   -1.3116    1.8673   -0.5151 O   0  0  0  0  0  0  0  0  0  0  0  0
    0.3889    1.9422    0.9708 N   0  0  0  0  0  0  0  0  0  0  0  0
    1.0197    1.3866    1.5283 H   0  0  0  0  0  0  0  0  0  0  0  0
    0.5081    3.3999    1.0720 C   0  0  0  0  0  0  0  0  0  0  0  0
    0.0188    3.7538    1.9817 H   0  0  0  0  0  0  0  0  0  0  0  0
    1.5607    3.6858    1.1098 H   0  0  0  0  0  0  0  0  0  0  0  0
    0.0459    3.8890    0.2119 H   0  0  0  0  0  0  0  0  0  0  0  0
  5  6  2  0  0  0  0
  5  7  1  0  0  0  0
  2  3  1  0  0  0  0
  2  4  1  0  0  0  0
  2  5  1  0  0  0  0
  1  2  1  0  0  0  0
 23 24  2  0  0  0  0
 23 25  1  0  0  0  0
 21 22  1  0  0  0  0
 19 20  1  0  0  0  0
 19 21  1  0  0  0  0
 17 18  1  0  0  0  0
 17 19  1  0  0  0  0
 15 16  1  0  0  0  0
 15 17  2  0  0  0  0
 14 15  1  0  0  0  0
 14 21  2  0  0  0  0
 11 12  1  0  0  0  0
 11 13  1  0  0  0  0
 11 14  1  0  0  0  0
  9 10  1  0  0  0  0
  9 11  1  0  0  0  0
  9 23  1  0  0  0  0
  7  8  1  0  0  0  0
  7  9  1  0  0  0  0
 27 28  1  0  0  0  0
 27 29  1  0  0  0  0
 27 30  1  0  0  0  0
 25 26  1  0  0  0  0
 25 27  1  0  0  0  0
M  CHG  1  15   1
M  END
$$$$
default_name
  -OEChem-02102213163D

 30 30  0     1  0  0  0  0  0999 V2000
   -3.5507   -3.2183    1.8116 H   0  0  0  0  0  0  0  0  0  0  0  0
   -3.4597   -2.3913    1.1076 C   0  0  0  0  0  0  0  0  0  0  0  0
   -4.1577   -1.6043    1.3866 H   0  0  0  0  0  0  0  0  0  0  0  0
   -3.6807   -2.7523    0.1036 H   0  0  0  0  0  0  0  0  0  0  0  0
   -2.0477   -1.8543    1.1546 C   0  0  0  0  0  0  0  0  0  0  0  0
   -1.2227   -2.3443    1.9146 O   0  0  0  0  0  0  0  0  0  0  0  0
   -1.7517   -0.8483    0.3266 N   0  0  0  0  0  0  0  0  0  0  0  0
   -2.4847   -0.5123   -0.2804 H   0  0  0  0  0  0  0  0  0  0  0  0
   -0.4117   -0.2463    0.2186 C   0  0  1  0  0  0  0  0  0  0  0  0
    0.1554   -0.5152    1.1133 H   0  0  0  0  0  0  0  0  0  0  0  0
    0.3164   -0.8780   -0.9905 C   0  0  0  0  0  0  0  0  0  0  0  0
    1.3255   -1.1610   -0.6804 H   0  0  0  0  0  0  0  0  0  0  0  0
   -0.2008   -1.7966   -1.2759 H   0  0  0  0  0  0  0  0  0  0  0  0
    0.4155    0.0060   -2.2157 C   0  0  0  0  0  0  0  0  0  0  0  0
    1.0409    1.2368   -2.2637 N   0  3  0  0  0  0  0  0  0  0  0  0
    1.5575    1.6392   -1.4763 H   0  0  0  0  0  0  0  0  0  0  0  0
    0.9251    1.7247   -3.5147 C   0  0  0  0  0  0  0  0  0  0  0  0
    1.3308    2.6734   -3.8605 H   0  0  0  0  0  0  0  0  0  0  0  0
    0.2386    0.8305   -4.2616 N   0  0  0  0  0  0  0  0  0  0  0  0
    0.0031    0.9305   -5.2454 H   0  0  0  0  0  0  0  0  0  0  0  0
   -0.0892   -0.2549   -3.4610 C   0  0  0  0  0  0  0  0  0  0  0  0
   -0.6389   -1.1444   -3.7559 H   0  0  0  0  0  0  0  0  0  0  0  0
   -0.4874    1.2908    0.1962 C   0  0  0  0  0  0  0  0  0  0  0  0
   -1.3116    1.8673   -0.5151 O   0  0  0  0  0  0  0  0  0  0  0  0
    0.3889    1.9422    0.9708 N   0  0  0  0  0  0  0  0  0  0  0  0
    1.0197    1.3866    1.5283 H   0  0  0  0  0  0  0  0  0  0  0  0
    0.5081    3.3999    1.0720 C   0  0  0  0  0  0  0  0  0  0  0  0
    0.0188    3.7538    1.9817 H   0  0  0  0  0  0  0  0  0  0  0  0
    1.5607    3.6858    1.1098 H   0  0  0  0  0  0  0  0  0  0  0  0
    0.0459    3.8890    0.2119 H   0  0  0  0  0  0  0  0  0  0  0  0
  5  6  2  0  0  0  0
  5  7  1  0  0  0  0
  2  3  1  0  0  0  0
  2  4  1  0  0  0  0
  2  5  1  0  0  0  0
  1  2  1  0  0  0  0
 23 24  2  0  0  0  0
 23 25  1  0  0  0  0
 21 22  1  0  0  0  0
 19 20  1  0  0  0  0
 19 21  1  0  0  0  0
 17 18  1  0  0  0  0
 17 19  1  0  0  0  0
 15 16  1  0  0  0  0
 15 17  2  0  0  0  0
 14 15  1  0  0  0  0
 14 21  2  0  0  0  0
 11 12  1  0  0  0  0
 11 13  1  0  0  0  0
 11 14  1  0  0  0  0
  9 10  1  0  0  0  0
  9 11  1  0  0  0  0
  9 23  1  0  0  0  0
  7  8  1  0  0  0  0
  7  9  1  0  0  0  0
 27 28  1  0  0  0  0
 27 29  1  0  0  0  0
 27 30  1  0  0  0  0
 25 26  1  0  0  0  0
 25 27  1  0  0  0  0
M  CHG  1  15   1
M  END
$$$$
default_name
  -OEChem-02102213163D

 30 30  0     1  0  0  0  0  0999 V2000
   -3.5507   -3.2183    1.8116 H   0  0  0  0  0  0  0  0  0  0  0  0
   -3.4597   -2.3913    1.1076 C   0  0  0  0  0  0  0  0  0  0  0  0
   -4.1577   -1.6043    1.3866 H   0  0  0  0  0  0  0  0  0  0  0  0
   -3.6807   -2.7523    0.1036 H   0  0  0  0  0  0  0  0  0  0  0  0
   -2.0477   -1.8543    1.1546 C   0  0  0  0  0  0  0  0  0  0  0  0
   -1.2227   -2.3443    1.9146 O   0  0  0  0  0  0  0  0  0  0  0  0
   -1.7517   -0.8483    0.3266 N   0  0  0  0  0  0  0  0  0  0  0  0
   -2.4847   -0.5123   -0.2804 H   0  0  0  0  0  0  0  0  0  0  0  0
   -0.4117   -0.2463    0.2186 C   0  0  1  0  0  0  0  0  0  0  0  0
    0.1554   -0.5152    1.1133 H   0  0  0  0  0  0  0  0  0  0  0  0
    0.3164   -0.8780   -0.9905 C   0  0  0  0  0  0  0  0  0  0  0  0
    1.3255   -1.1610   -0.6804 H   0  0  0  0  0  0  0  0  0  0  0  0
   -0.2008   -1.7966   -1.2759 H   0  0  0  0  0  0  0  0  0  0  0  0
    0.4155    0.0060   -2.2157 C   0  0  0  0  0  0  0  0  0  0  0  0
    1.2719    1.0806   -2.3577 N   0  3  0  0  0  0  0  0  0  0  0  0
    1.9734    1.3404   -1.6583 H   0  0  0  0  0  0  0  0  0  0  0  0
    1.0760    1.6230   -3.5759 C   0  0  0  0  0  0  0  0  0  0  0  0
    1.6162    2.4773   -3.9788 H   0  0  0  0  0  0  0  0  0  0  0  0
    0.1129    0.9164   -4.2097 N   0  0  0  0  0  0  0  0  0  0  0  0
   -0.2405    1.0956   -5.1459 H   0  0  0  0  0  0  0  0  0  0  0  0
   -0.3130   -0.1028   -3.3694 C   0  0  0  0  0  0  0  0  0  0  0  0
   -1.0756   -0.8482   -3.5775 H   0  0  0  0  0  0  0  0  0  0  0  0
   -0.4874    1.2908    0.1962 C   0  0  0  0  0  0  0  0  0  0  0  0
   -1.3116    1.8673   -0.5151 O   0  0  0  0  0  0  0  0  0  0  0  0
    0.3889    1.9422    0.9708 N   0  0  0  0  0  0  0  0  0  0  0  0
    1.0197    1.3866    1.5283 H   0  0  0  0  0  0  0  0  0  0  0  0
    0.5081    3.3999    1.0720 C   0  0  0  0  0  0  0  0  0  0  0  0
    0.0188    3.7538    1.9817 H   0  0  0  0  0  0  0  0  0  0  0  0
    1.5607    3.6858    1.1098 H   0  0  0  0  0  0  0  0  0  0  0  0
    0.0459    3.8890    0.2119 H   0  0  0  0  0  0  0  0  0  0  0  0
  5  6  2  0  0  0  0
  5  7  1  0  0  0  0
  2  3  1  0  0  0  0
  2  4  1  0  0  0  0
  2  5  1  0  0  0  0
  1  2  1  0  0  0  0
 23 24  2  0  0  0  0
 23 25  1  0  0  0  0
 21 22  1  0  0  0  0
 19 20  1  0  0  0  0
 19 21  1  0  0  0  0
 17 18  1  0  0  0  0
 17 19  1  0  0  0  0
 15 16  1  0  0  0  0
 15 17  2  0  0  0  0
 14 15  1  0  0  0  0
 14 21  2  0  0  0  0
 11 12  1  0  0  0  0
 11 13  1  0  0  0  0
 11 14  1  0  0  0  0
  9 10  1  0  0  0  0
  9 11  1  0  0  0  0
  9 23  1  0  0  0  0
  7  8  1  0  0  0  0
  7  9  1  0  0  0  0
 27 28  1  0  0  0  0
 27 29  1  0  0  0  0
 27 30  1  0  0  0  0
 25 26  1  0  0  0  0
 25 27  1  0  0  0  0
M  CHG  1  15   1
M  END
$$$$
default_name
  -OEChem-02102213163D

 30 30  0     1  0  0  0  0  0999 V2000
   -3.5507   -3.2183    1.8116 H   0  0  0  0  0  0  0  0  0  0  0  0
   -3.4597   -2.3913    1.1076 C   0  0  0  0  0  0  0  0  0  0  0  0
   -4.1577   -1.6043    1.3866 H   0  0  0  0  0  0  0  0  0  0  0  0
   -3.6807   -2.7523    0.1036 H   0  0  0  0  0  0  0  0  0  0  0  0
   -2.0477   -1.8543    1.1546 C   0  0  0  0  0  0  0  0  0  0  0  0
   -1.2227   -2.3443    1.9146 O   0  0  0  0  0  0  0  0  0  0  0  0
   -1.7517   -0.8483    0.3266 N   0  0  0  0  0  0  0  0  0  0  0  0
   -2.4847   -0.5123   -0.2804 H   0  0  0  0  0  0  0  0  0  0  0  0
   -0.4117   -0.2463    0.2186 C   0  0  1  0  0  0  0  0  0  0  0  0
    0.1554   -0.5152    1.1133 H   0  0  0  0  0  0  0  0  0  0  0  0
    0.3164   -0.8780   -0.9905 C   0  0  0  0  0  0  0  0  0  0  0  0
    1.3255   -1.1610   -0.6804 H   0  0  0  0  0  0  0  0  0  0  0  0
   -0.2008   -1.7966   -1.2759 H   0  0  0  0  0  0  0  0  0  0  0  0
    0.4155    0.0060   -2.2157 C   0  0  0  0  0  0  0  0  0  0  0  0
    1.4481    0.8829   -2.4861 N   0  3  0  0  0  0  0  0  0  0  0  0
    2.2850    0.9677   -1.9019 H   0  0  0  0  0  0  0  0  0  0  0  0
    1.1913    1.4941   -3.6596 C   0  0  0  0  0  0  0  0  0  0  0  0
    1.8331    2.2301   -4.1396 H   0  0  0  0  0  0  0  0  0  0  0  0
    0.0173    1.0249   -4.1393 N   0  0  0  0  0  0  0  0  0  0  0  0
   -0.4261    1.3045   -5.0102 H   0  0  0  0  0  0  0  0  0  0  0  0
   -0.4835    0.0894   -3.2445 C   0  0  0  0  0  0  0  0  0  0  0  0
   -1.4083   -0.4737   -3.3342 H   0  0  0  0  0  0  0  0  0  0  0  0
   -0.4874    1.2908    0.1962 C   0  0  0  0  0  0  0  0  0  0  0  0
   -1.3116    1.8673   -0.5151 O   0  0  0  0  0  0  0  0  0  0  0  0
    0.3889    1.9422    0.9708 N   0  0  0  0  0  0  0  0  0  0  0  0
    1.0197    1.3866    1.5283 H   0  0  0  0  0  0  0  0  0  0  0  0
    0.5081    3.3999    1.0720 C   0  0  0  0  0  0  0  0  0  0  0  0
    0.0188    3.7538    1.9817 H   0  0  0  0  0  0  0  0  0  0  0  0
    1.5607    3.6858    1.1098 H   0  0  0  0  0  0  0  0  0  0  0  0
    0.0459    3.8890    0.2119 H   0  0  0  0  0  0  0  0  0  0  0  0
  5  6  2  0  0  0  0
  5  7  1  0  0  0  0
  2  3  1  0  0  0  0
  2  4  1  0  0  0  0
  2  5  1  0  0  0  0
  1  2  1  0  0  0  0
 23 24  2  0  0  0  0
 23 25  1  0  0  0  0
 21 22  1  0  0  0  0
 19 20  1  0  0  0  0
 19 21  1  0  0  0  0
 17 18  1  0  0  0  0
 17 19  1  0  0  0  0
 15 16  1  0  0  0  0
 15 17  2  0  0  0  0
 14 15  1  0  0  0  0
 14 21  2  0  0  0  0
 11 12  1  0  0  0  0
 11 13  1  0  0  0  0
 11 14  1  0  0  0  0
  9 10  1  0  0  0  0
  9 11  1  0  0  0  0
  9 23  1  0  0  0  0
  7  8  1  0  0  0  0
  7  9  1  0  0  0  0
 27 28  1  0  0  0  0
 27 29  1  0  0  0  0
 27 30  1  0  0  0  0
 25 26  1  0  0  0  0
 25 27  1  0  0  0  0
M  CHG  1  15   1
M  END
$$$$
default_name
  -OEChem-02102213163D

 30 30  0     1  0  0  0  0  0999 V2000
   -3.5507   -3.2183    1.8116 H   0  0  0  0  0  0  0  0  0  0  0  0
   -3.4597   -2.3913    1.1076 C   0  0  0  0  0  0  0  0  0  0  0  0
   -4.1577   -1.6043    1.3866 H   0  0  0  0  0  0  0  0  0  0  0  0
   -3.6807   -2.7523    0.1036 H   0  0  0  0  0  0  0  0  0  0  0  0
   -2.0477   -1.8543    1.1546 C   0  0  0  0  0  0  0  0  0  0  0  0
   -1.2227   -2.3443    1.9146 O   0  0  0  0  0  0  0  0  0  0  0  0
   -1.7517   -0.8483    0.3266 N   0  0  0  0  0  0  0  0  0  0  0  0
   -2.4847   -0.5123   -0.2804 H   0  0  0  0  0  0  0  0  0  0  0  0
   -0.4117   -0.2463    0.2186 C   0  0  1  0  0  0  0  0  0  0  0  0
    0.1554   -0.5152    1.1133 H   0  0  0  0  0  0  0  0  0  0  0  0
    0.3164   -0.8780   -0.9905 C   0  0  0  0  0  0  0  0  0  0  0  0
    1.3255   -1.1610   -0.6804 H   0  0  0  0  0  0  0  0  0  0  0  0
   -0.2008   -1.7966   -1.2759 H   0  0  0  0  0  0  0  0  0  0  0  0
    0.4155    0.0060   -2.2157 C   0  0  0  0  0  0  0  0  0  0  0  0
    1.5575    0.6572   -2.6401 N   0  3  0  0  0  0  0  0  0  0  0  0
    2.4711    0.5467   -2.1907 H   0  0  0  0  0  0  0  0  0  0  0  0
    1.2630    1.3469   -3.7600 C   0  0  0  0  0  0  0  0  0  0  0  0
    1.9664    1.9487   -4.3319 H   0  0  0  0  0  0  0  0  0  0  0  0
   -0.0416    1.1484   -4.0549 N   0  0  0  0  0  0  0  0  0  0  0  0
   -0.5412    1.5429   -4.8476 H   0  0  0  0  0  0  0  0  0  0  0  0
   -0.5890    0.3086   -3.0948 C   0  0  0  0  0  0  0  0  0  0  0  0
   -1.6145   -0.0464   -3.0426 H   0  0  0  0  0  0  0  0  0  0  0  0
   -0.4874    1.2908    0.1962 C   0  0  0  0  0  0  0  0  0  0  0  0
   -1.3116    1.8673   -0.5151 O   0  0  0  0  0  0  0  0  0  0  0  0
    0.3889    1.9422    0.9708 N   0  0  0  0  0  0  0  0  0  0  0  0
    1.0197    1.3866    1.5283 H   0  0  0  0  0  0  0  0  0  0  0  0
    0.5081    3.3999    1.0720 C   0  0  0  0  0  0  0  0  0  0  0  0
    0.0188    3.7538    1.9817 H   0  0  0  0  0  0  0  0  0  0  0  0
    1.5607    3.6858    1.1098 H   0  0  0  0  0  0  0  0  0  0  0  0
    0.0459    3.8890    0.2119 H   0  0  0  0  0  0  0  0  0  0  0  0
  5  6  2  0  0  0  0
  5  7  1  0  0  0  0
  2  3  1  0  0  0  0
  2  4  1  0  0  0  0
  2  5  1  0  0  0  0
  1  2  1  0  0  0  0
 23 24  2  0  0  0  0
 23 25  1  0  0  0  0
 21 22  1  0  0  0  0
 19 20  1  0  0  0  0
 19 21  1  0  0  0  0
 17 18  1  0  0  0  0
 17 19  1  0  0  0  0
 15 16  1  0  0  0  0
 15 17  2  0  0  0  0
 14 15  1  0  0  0  0
 14 21  2  0  0  0  0
 11 12  1  0  0  0  0
 11 13  1  0  0  0  0
 11 14  1  0  0  0  0
  9 10  1  0  0  0  0
  9 11  1  0  0  0  0
  9 23  1  0  0  0  0
  7  8  1  0  0  0  0
  7  9  1  0  0  0  0
 27 28  1  0  0  0  0
 27 29  1  0  0  0  0
 27 30  1  0  0  0  0
 25 26  1  0  0  0  0
 25 27  1  0  0  0  0
M  CHG  1  15   1
M  END
$$$$
default_name
  -OEChem-02102213163D

 30 30  0     1  0  0  0  0  0999 V2000
   -3.5507   -3.2183    1.8116 H   0  0  0  0  0  0  0  0  0  0  0  0
   -3.4597   -2.3913    1.1076 C   0  0  0  0  0  0  0  0  0  0  0  0
   -4.1577   -1.6043    1.3866 H   0  0  0  0  0  0  0  0  0  0  0  0
   -3.6807   -2.7523    0.1036 H   0  0  0  0  0  0  0  0  0  0  0  0
   -2.0477   -1.8543    1.1546 C   0  0  0  0  0  0  0  0  0  0  0  0
   -1.2227   -2.3443    1.9146 O   0  0  0  0  0  0  0  0  0  0  0  0
   -1.7517   -0.8483    0.3266 N   0  0  0  0  0  0  0  0  0  0  0  0
   -2.4847   -0.5123   -0.2804 H   0  0  0  0  0  0  0  0  0  0  0  0
   -0.4117   -0.2463    0.2186 C   0  0  1  0  0  0  0  0  0  0  0  0
    0.1554   -0.5152    1.1133 H   0  0  0  0  0  0  0  0  0  0  0  0
    0.3164   -0.8780   -0.9905 C   0  0  0  0  0  0  0  0  0  0  0  0
    1.3255   -1.1610   -0.6804 H   0  0  0  0  0  0  0  0  0  0  0  0
   -0.2008   -1.7966   -1.2759 H   0  0  0  0  0  0  0  0  0  0  0  0
    0.4155    0.0060   -2.2157 C   0  0  0  0  0  0  0  0  0  0  0  0
    1.5927    0.4189   -2.8092 N   0  3  0  0  0  0  0  0  0  0  0  0
    2.5190    0.1059   -2.5049 H   0  0  0  0  0  0  0  0  0  0  0  0
    1.2862    1.1915   -3.8703 C   0  0  0  0  0  0  0  0  0  0  0  0
    2.0072    1.6522   -4.5425 H   0  0  0  0  0  0  0  0  0  0  0  0
   -0.0600    1.2787   -3.9624 N   0  0  0  0  0  0  0  0  0  0  0  0
   -0.5778    1.7944   -4.6690 H   0  0  0  0  0  0  0  0  0  0  0  0
   -0.6224    0.5399   -2.9306 C   0  0  0  0  0  0  0  0  0  0  0  0
   -1.6802    0.4047   -2.7225 H   0  0  0  0  0  0  0  0  0  0  0  0
   -0.4874    1.2908    0.1962 C   0  0  0  0  0  0  0  0  0  0  0  0
   -1.3116    1.8673   -0.5151 O   0  0  0  0  0  0  0  0  0  0  0  0
    0.3889    1.9422    0.9708 N   0  0  0  0  0  0  0  0  0  0  0  0
    1.0197    1.3866    1.5283 H   0  0  0  0  0  0  0  0  0  0  0  0
    0.5081    3.3999    1.0720 C   0  0  0  0  0  0  0  0  0  0  0  0
    0.0188    3.7538    1.9817 H   0  0  0  0  0  0  0  0  0  0  0  0
    1.5607    3.6858    1.1098 H   0  0  0  0  0  0  0  0  0  0  0  0
    0.0459    3.8890    0.2119 H   0  0  0  0  0  0  0  0  0  0  0  0
  5  6  2  0  0  0  0
  5  7  1  0  0  0  0
  2  3  1  0  0  0  0
  2  4  1  0  0  0  0
  2  5  1  0  0  0  0
  1  2  1  0  0  0  0
 23 24  2  0  0  0  0
 23 25  1  0  0  0  0
 21 22  1  0  0  0  0
 19 20  1  0  0  0  0
 19 21  1  0  0  0  0
 17 18  1  0  0  0  0
 17 19  1  0  0  0  0
 15 16  1  0  0  0  0
 15 17  2  0  0  0  0
 14 15  1  0  0  0  0
 14 21  2  0  0  0  0
 11 12  1  0  0  0  0
 11 13  1  0  0  0  0
 11 14  1  0  0  0  0
  9 10  1  0  0  0  0
  9 11  1  0  0  0  0
  9 23  1  0  0  0  0
  7  8  1  0  0  0  0
  7  9  1  0  0  0  0
 27 28  1  0  0  0  0
 27 29  1  0  0  0  0
 27 30  1  0  0  0  0
 25 26  1  0  0  0  0
 25 27  1  0  0  0  0
M  CHG  1  15   1
M  END
$$$$
default_name
  -OEChem-02102213163D

 30 30  0     1  0  0  0  0  0999 V2000
   -3.5507   -3.2183    1.8116 H   0  0  0  0  0  0  0  0  0  0  0  0
   -3.4597   -2.3913    1.1076 C   0  0  0  0  0  0  0  0  0  0  0  0
   -4.1577   -1.6043    1.3866 H   0  0  0  0  0  0  0  0  0  0  0  0
   -3.6807   -2.7523    0.1036 H   0  0  0  0  0  0  0  0  0  0  0  0
   -2.0477   -1.8543    1.1546 C   0  0  0  0  0  0  0  0  0  0  0  0
   -1.2227   -2.3443    1.9146 O   0  0  0  0  0  0  0  0  0  0  0  0
   -1.7517   -0.8483    0.3266 N   0  0  0  0  0  0  0  0  0  0  0  0
   -2.4847   -0.5123   -0.2804 H   0  0  0  0  0  0  0  0  0  0  0  0
   -0.4117   -0.2463    0.2186 C   0  0  1  0  0  0  0  0  0  0  0  0
    0.1554   -0.5152    1.1133 H   0  0  0  0  0  0  0  0  0  0  0  0
    0.3164   -0.8780   -0.9905 C   0  0  0  0  0  0  0  0  0  0  0  0
    1.3255   -1.1610   -0.6804 H   0  0  0  0  0  0  0  0  0  0  0  0
   -0.2008   -1.7966   -1.2759 H   0  0  0  0  0  0  0  0  0  0  0  0
    0.4155    0.0060   -2.2157 C   0  0  0  0  0  0  0  0  0  0  0  0
    1.5511    0.1842   -2.9819 N   0  3  0  0  0  0  0  0  0  0  0  0
    2.4255   -0.3246   -2.8231 H   0  0  0  0  0  0  0  0  0  0  0  0
    1.2595    1.0383   -3.9830 C   0  0  0  0  0  0  0  0  0  0  0  0
    1.9527    1.3608   -4.7572 H   0  0  0  0  0  0  0  0  0  0  0  0
   -0.0365    1.4068   -3.8680 N   0  0  0  0  0  0  0  0  0  0  0  0
   -0.5335    2.0421   -4.4868 H   0  0  0  0  0  0  0  0  0  0  0  0
   -0.5814    0.7676   -2.7630 C   0  0  0  0  0  0  0  0  0  0  0  0
   -1.6007    0.8486   -2.3957 H   0  0  0  0  0  0  0  0  0  0  0  0
   -0.4874    1.2908    0.1962 C   0  0  0  0  0  0  0  0  0  0  0  0
   -1.3116    1.8673   -0.5151 O   0  0  0  0  0  0  0  0  0  0  0  0
    0.3889    1.9422    0.9708 N   0  0  0  0  0  0  0  0  0  0  0  0
    1.0197    1.3866    1.5283 H   0  0  0  0  0  0  0  0  0  0  0  0
    0.5081    3.3999    1.0720 C   0  0  0  0  0  0  0  0  0  0  0  0
    0.0188    3.7538    1.9817 H   0  0  0  0  0  0  0  0  0  0  0  0
    1.5607    3.6858    1.1098 H   0  0  0  0  0  0  0  0  0  0  0  0
    0.0459    3.8890    0.2119 H   0  0  0  0  0  0  0  0  0  0  0  0
  5  6  2  0  0  0  0
  5  7  1  0  0  0  0
  2  3  1  0  0  0  0
  2  4  1  0  0  0  0
  2  5  1  0  0  0  0
  1  2  1  0  0  0  0
 23 24  2  0  0  0  0
 23 25  1  0  0  0  0
 21 22  1  0  0  0  0
 19 20  1  0  0  0  0
 19 21  1  0  0  0  0
 17 18  1  0  0  0  0
 17 19  1  0  0  0  0
 15 16  1  0  0  0  0
 15 17  2  0  0  0  0
 14 15  1  0  0  0  0
 14 21  2  0  0  0  0
 11 12  1  0  0  0  0
 11 13  1  0  0  0  0
 11 14  1  0  0  0  0
  9 10  1  0  0  0  0
  9 11  1  0  0  0  0
  9 23  1  0  0  0  0
  7  8  1  0  0  0  0
  7  9  1  0  0  0  0
 27 28  1  0  0  0  0
 27 29  1  0  0  0  0
 27 30  1  0  0  0  0
 25 26  1  0  0  0  0
 25 27  1  0  0  0  0
M  CHG  1  15   1
M  END
$$$$
default_name
  -OEChem-02102213163D

 30 30  0     1  0  0  0  0  0999 V2000
   -3.5507   -3.2183    1.8116 H   0  0  0  0  0  0  0  0  0  0  0  0
   -3.4597   -2.3913    1.1076 C   0  0  0  0  0  0  0  0  0  0  0  0
   -4.1577   -1.6043    1.3866 H   0  0  0  0  0  0  0  0  0  0  0  0
   -3.6807   -2.7523    0.1036 H   0  0  0  0  0  0  0  0  0  0  0  0
   -2.0477   -1.8543    1.1546 C   0  0  0  0  0  0  0  0  0  0  0  0
   -1.2227   -2.3443    1.9146 O   0  0  0  0  0  0  0  0  0  0  0  0
   -1.7517   -0.8483    0.3266 N   0  0  0  0  0  0  0  0  0  0  0  0
   -2.4847   -0.5123   -0.2804 H   0  0  0  0  0  0  0  0  0  0  0  0
   -0.4117   -0.2463    0.2186 C   0  0  1  0  0  0  0  0  0  0  0  0
    0.1554   -0.5152    1.1133 H   0  0  0  0  0  0  0  0  0  0  0  0
    0.3164   -0.8780   -0.9905 C   0  0  0  0  0  0  0  0  0  0  0  0
    1.3255   -1.1610   -0.6804 H   0  0  0  0  0  0  0  0  0  0  0  0
   -0.2008   -1.7966   -1.2759 H   0  0  0  0  0  0  0  0  0  0  0  0
    0.4155    0.0060   -2.2157 C   0  0  0  0  0  0  0  0  0  0  0  0
    1.4358   -0.0308   -3.1464 N   0  3  0  0  0  0  0  0  0  0  0  0
    2.1969   -0.7155   -3.1236 H   0  0  0  0  0  0  0  0  0  0  0  0
    1.1845    0.8978   -4.0904 C   0  0  0  0  0  0  0  0  0  0  0  0
    1.8066    1.0944   -4.9612 H   0  0  0  0  0  0  0  0  0  0  0  0
    0.0274    1.5240   -3.7783 N   0  0  0  0  0  0  0  0  0  0  0  0
   -0.4113    2.2689   -4.3132 H   0  0  0  0  0  0  0  0  0  0  0  0
   -0.4688    0.9761   -2.6035 C   0  0  0  0  0  0  0  0  0  0  0  0
   -1.3816    1.2553   -2.0845 H   0  0  0  0  0  0  0  0  0  0  0  0
   -0.4874    1.2908    0.1962 C   0  0  0  0  0  0  0  0  0  0  0  0
   -1.3116    1.8673   -0.5151 O   0  0  0  0  0  0  0  0  0  0  0  0
    0.3889    1.9422    0.9708 N   0  0  0  0  0  0  0  0  0  0  0  0
    1.0197    1.3866    1.5283 H   0  0  0  0  0  0  0  0  0  0  0  0
    0.5081    3.3999    1.0720 C   0  0  0  0  0  0  0  0  0  0  0  0
    0.0188    3.7538    1.9817 H   0  0  0  0  0  0  0  0  0  0  0  0
    1.5607    3.6858    1.1098 H   0  0  0  0  0  0  0  0  0  0  0  0
    0.0459    3.8890    0.2119 H   0  0  0  0  0  0  0  0  0  0  0  0
  5  6  2  0  0  0  0
  5  7  1  0  0  0  0
  2  3  1  0  0  0  0
  2  4  1  0  0  0  0
  2  5  1  0  0  0  0
  1  2  1  0  0  0  0
 23 24  2  0  0  0  0
 23 25  1  0  0  0  0
 21 22  1  0  0  0  0
 19 20  1  0  0  0  0
 19 21  1  0  0  0  0
 17 18  1  0  0  0  0
 17 19  1  0  0  0  0
 15 16  1  0  0  0  0
 15 17  2  0  0  0  0
 14 15  1  0  0  0  0
 14 21  2  0  0  0  0
 11 12  1  0  0  0  0
 11 13  1  0  0  0  0
 11 14  1  0  0  0  0
  9 10  1  0  0  0  0
  9 11  1  0  0  0  0
  9 23  1  0  0  0  0
  7  8  1  0  0  0  0
  7  9  1  0  0  0  0
 27 28  1  0  0  0  0
 27 29  1  0  0  0  0
 27 30  1  0  0  0  0
 25 26  1  0  0  0  0
 25 27  1  0  0  0  0
M  CHG  1  15   1
M  END
$$$$
default_name
  -OEChem-02102213163D

 30 30  0     1  0  0  0  0  0999 V2000
   -3.5507   -3.2183    1.8116 H   0  0  0  0  0  0  0  0  0  0  0  0
   -3.4597   -2.3913    1.1076 C   0  0  0  0  0  0  0  0  0  0  0  0
   -4.1577   -1.6043    1.3866 H   0  0  0  0  0  0  0  0  0  0  0  0
   -3.6807   -2.7523    0.1036 H   0  0  0  0  0  0  0  0  0  0  0  0
   -2.0477   -1.8543    1.1546 C   0  0  0  0  0  0  0  0  0  0  0  0
   -1.2227   -2.3443    1.9146 O   0  0  0  0  0  0  0  0  0  0  0  0
   -1.7517   -0.8483    0.3266 N   0  0  0  0  0  0  0  0  0  0  0  0
   -2.4847   -0.5123   -0.2804 H   0  0  0  0  0  0  0  0  0  0  0  0
   -0.4117   -0.2463    0.2186 C   0  0  1  0  0  0  0  0  0  0  0  0
    0.1554   -0.5152    1.1133 H   0  0  0  0  0  0  0  0  0  0  0  0
    0.3164   -0.8780   -0.9905 C   0  0  0  0  0  0  0  0  0  0  0  0
    1.3255   -1.1610   -0.6804 H   0  0  0  0  0  0  0  0  0  0  0  0
   -0.2008   -1.7966   -1.2759 H   0  0  0  0  0  0  0  0  0  0  0  0
    0.4155    0.0060   -2.2157 C   0  0  0  0  0  0  0  0  0  0  0  0
    1.2544   -0.2116   -3.2915 N   0  3  0  0  0  0  0  0  0  0  0  0
    1.8489   -1.0401   -3.3859 H   0  0  0  0  0  0  0  0  0  0  0  0
    1.0665    0.7797   -4.1852 C   0  0  0  0  0  0  0  0  0  0  0  0
    1.5789    0.8712   -5.1407 H   0  0  0  0  0  0  0  0  0  0  0  0
    0.1271    1.6223   -3.6993 N   0  0  0  0  0  0  0  0  0  0  0  0
   -0.2196    2.4595   -4.1602 H   0  0  0  0  0  0  0  0  0  0  0  0
   -0.2923    1.1511   -2.4629 C   0  0  0  0  0  0  0  0  0  0  0  0
   -1.0378    1.5970   -1.8102 H   0  0  0  0  0  0  0  0  0  0  0  0
   -0.4874    1.2908    0.1962 C   0  0  0  0  0  0  0  0  0  0  0  0
   -1.3116    1.8673   -0.5151 O   0  0  0  0  0  0  0  0  0  0  0  0
    0.3889    1.9422    0.9708 N   0  0  0  0  0  0  0  0  0  0  0  0
    1.0197    1.3866    1.5283 H   0  0  0  0  0  0  0  0  0  0  0  0
    0.5081    3.3999    1.0720 C   0  0  0  0  0  0  0  0  0  0  0  0
    0.0188    3.7538    1.9817 H   0  0  0  0  0  0  0  0  0  0  0  0
    1.5607    3.6858    1.1098 H   0  0  0  0  0  0  0  0  0  0  0  0
    0.0459    3.8890    0.2119 H   0  0  0  0  0  0  0  0  0  0  0  0
  5  6  2  0  0  0  0
  5  7  1  0  0  0  0
  2  3  1  0  0  0  0
  2  4  1  0  0  0  0
  2  5  1  0  0  0  0
  1  2  1  0  0  0  0
 23 24  2  0  0  0  0
 23 25  1  0  0  0  0
 21 22  1  0  0  0  0
 19 20  1  0  0  0  0
 19 21  1  0  0  0  0
 17 18  1  0  0  0  0
 17 19  1  0  0  0  0
 15 16  1  0  0  0  0
 15 17  2  0  0  0  0
 14 15  1  0  0  0  0
 14 21  2  0  0  0  0
 11 12  1  0  0  0  0
 11 13  1  0  0  0  0
 11 14  1  0  0  0  0
  9 10  1  0  0  0  0
  9 11  1  0  0  0  0
  9 23  1  0  0  0  0
  7  8  1  0  0  0  0
  7  9  1  0  0  0  0
 27 28  1  0  0  0  0
 27 29  1  0  0  0  0
 27 30  1  0  0  0  0
 25 26  1  0  0  0  0
 25 27  1  0  0  0  0
M  CHG  1  15   1
M  END
$$$$
default_name
  -OEChem-02102213163D

 30 30  0     1  0  0  0  0  0999 V2000
   -3.5507   -3.2183    1.8116 H   0  0  0  0  0  0  0  0  0  0  0  0
   -3.4597   -2.3913    1.1076 C   0  0  0  0  0  0  0  0  0  0  0  0
   -4.1577   -1.6043    1.3866 H   0  0  0  0  0  0  0  0  0  0  0  0
   -3.6807   -2.7523    0.1036 H   0  0  0  0  0  0  0  0  0  0  0  0
   -2.0477   -1.8543    1.1546 C   0  0  0  0  0  0  0  0  0  0  0  0
   -1.2227   -2.3443    1.9146 O   0  0  0  0  0  0  0  0  0  0  0  0
   -1.7517   -0.8483    0.3266 N   0  0  0  0  0  0  0  0  0  0  0  0
   -2.4847   -0.5123   -0.2804 H   0  0  0  0  0  0  0  0  0  0  0  0
   -0.4117   -0.2463    0.2186 C   0  0  1  0  0  0  0  0  0  0  0  0
    0.1554   -0.5152    1.1133 H   0  0  0  0  0  0  0  0  0  0  0  0
    0.3164   -0.8780   -0.9905 C   0  0  0  0  0  0  0  0  0  0  0  0
    1.2066   -1.3983   -0.6280 H   0  0  0  0  0  0  0  0  0  0  0  0
   -0.3332   -1.6308   -1.4422 H   0  0  0  0  0  0  0  0  0  0  0  0
    0.7309    0.0961   -2.0729 C   0  0  0  0  0  0  0  0  0  0  0  0
    1.3909   -0.2396   -3.2391 N   0  3  0  0  0  0  0  0  0  0  0  0
    1.6060   -1.2037   -3.5092 H   0  0  0  0  0  0  0  0  0  0  0  0
    1.5918    0.8855   -3.9536 C   0  0  0  0  0  0  0  0  0  0  0  0
    2.0773    0.9353   -4.9261 H   0  0  0  0  0  0  0  0  0  0  0  0
    1.0744    1.9282   -3.2654 N   0  0  0  0  0  0  0  0  0  0  0  0
    1.0780    2.9004   -3.5628 H   0  0  0  0  0  0  0  0  0  0  0  0
    0.5299    1.4500   -2.0816 C   0  0  0  0  0  0  0  0  0  0  0  0
    0.0368    2.0295   -1.3060 H   0  0  0  0  0  0  0  0  0  0  0  0
   -0.4874    1.2908    0.1962 C   0  0  0  0  0  0  0  0  0  0  0  0
   -1.3116    1.8673   -0.5151 O   0  0  0  0  0  0  0  0  0  0  0  0
    0.3889    1.9422    0.9708 N   0  0  0  0  0  0  0  0  0  0  0  0
    1.0197    1.3866    1.5283 H   0  0  0  0  0  0  0  0  0  0  0  0
    0.5081    3.3999    1.0720 C   0  0  0  0  0  0  0  0  0  0  0  0
    0.0188    3.7538    1.9817 H   0  0  0  0  0  0  0  0  0  0  0  0
    1.5607    3.6858    1.1098 H   0  0  0  0  0  0  0  0  0  0  0  0
    0.0459    3.8890    0.2119 H   0  0  0  0  0  0  0  0  0  0  0  0
  5  6  2  0  0  0  0
  5  7  1  0  0  0  0
  2  3  1  0  0  0  0
  2  4  1  0  0  0  0
  2  5  1  0  0  0  0
  1  2  1  0  0  0  0
 23 24  2  0  0  0  0
 23 25  1  0  0  0  0
 21 22  1  0  0  0  0
 19 20  1  0  0  0  0
 19 21  1  0  0  0  0
 17 18  1  0  0  0  0
 17 19  1  0  0  0  0
 15 16  1  0  0  0  0
 15 17  2  0  0  0  0
 14 15  1  0  0  0  0
 14 21  2  0  0  0  0
 11 12  1  0  0  0  0
 11 13  1  0  0  0  0
 11 14  1  0  0  0  0
  9 10  1  0  0  0  0
  9 11  1  0  0  0  0
  9 23  1  0  0  0  0
  7  8  1  0  0  0  0
  7  9  1  0  0  0  0
 27 28  1  0  0  0  0
 27 29  1  0  0  0  0
 27 30  1  0  0  0  0
 25 26  1  0  0  0  0
 25 27  1  0  0  0  0
M  CHG  1  15   1
M  END
$$$$
default_name
  -OEChem-02102213163D

 30 30  0     1  0  0  0  0  0999 V2000
   -3.5507   -3.2183    1.8116 H   0  0  0  0  0  0  0  0  0  0  0  0
   -3.4597   -2.3913    1.1076 C   0  0  0  0  0  0  0  0  0  0  0  0
   -4.1577   -1.6043    1.3866 H   0  0  0  0  0  0  0  0  0  0  0  0
   -3.6807   -2.7523    0.1036 H   0  0  0  0  0  0  0  0  0  0  0  0
   -2.0477   -1.8543    1.1546 C   0  0  0  0  0  0  0  0  0  0  0  0
   -1.2227   -2.3443    1.9146 O   0  0  0  0  0  0  0  0  0  0  0  0
   -1.7517   -0.8483    0.3266 N   0  0  0  0  0  0  0  0  0  0  0  0
   -2.4847   -0.5123   -0.2804 H   0  0  0  0  0  0  0  0  0  0  0  0
   -0.4117   -0.2463    0.2186 C   0  0  1  0  0  0  0  0  0  0  0  0
    0.1554   -0.5152    1.1133 H   0  0  0  0  0  0  0  0  0  0  0  0
    0.3164   -0.8780   -0.9905 C   0  0  0  0  0  0  0  0  0  0  0  0
    1.2066   -1.3983   -0.6280 H   0  0  0  0  0  0  0  0  0  0  0  0
   -0.3332   -1.6308   -1.4422 H   0  0  0  0  0  0  0  0  0  0  0  0
    0.7309    0.0961   -2.0729 C   0  0  0  0  0  0  0  0  0  0  0  0
    1.1196   -0.2501   -3.3525 N   0  3  0  0  0  0  0  0  0  0  0  0
    1.1005   -1.2101   -3.7086 H   0  0  0  0  0  0  0  0  0  0  0  0
    1.4148    0.8784   -4.0278 C   0  0  0  0  0  0  0  0  0  0  0  0
    1.7391    0.9244   -5.0655 H   0  0  0  0  0  0  0  0  0  0  0  0
    1.2229    1.9333   -3.2040 N   0  0  0  0  0  0  0  0  0  0  0  0
    1.3646    2.9111   -3.4434 H   0  0  0  0  0  0  0  0  0  0  0  0
    0.7935    1.4597   -1.9720 C   0  0  0  0  0  0  0  0  0  0  0  0
    0.5506    2.0487   -1.0919 H   0  0  0  0  0  0  0  0  0  0  0  0
   -0.4874    1.2908    0.1962 C   0  0  0  0  0  0  0  0  0  0  0  0
   -1.3116    1.8673   -0.5151 O   0  0  0  0  0  0  0  0  0  0  0  0
    0.3889    1.9422    0.9708 N   0  0  0  0  0  0  0  0  0  0  0  0
    1.0197    1.3866    1.5283 H   0  0  0  0  0  0  0  0  0  0  0  0
    0.5081    3.3999    1.0720 C   0  0  0  0  0  0  0  0  0  0  0  0
    0.0188    3.7538    1.9817 H   0  0  0  0  0  0  0  0  0  0  0  0
    1.5607    3.6858    1.1098 H   0  0  0  0  0  0  0  0  0  0  0  0
    0.0459    3.8890    0.2119 H   0  0  0  0  0  0  0  0  0  0  0  0
  5  6  2  0  0  0  0
  5  7  1  0  0  0  0
  2  3  1  0  0  0  0
  2  4  1  0  0  0  0
  2  5  1  0  0  0  0
  1  2  1  0  0  0  0
 23 24  2  0  0  0  0
 23 25  1  0  0  0  0
 21 22  1  0  0  0  0
 19 20  1  0  0  0  0
 19 21  1  0  0  0  0
 17 18  1  0  0  0  0
 17 19  1  0  0  0  0
 15 16  1  0  0  0  0
 15 17  2  0  0  0  0
 14 15  1  0  0  0  0
 14 21  2  0  0  0  0
 11 12  1  0  0  0  0
 11 13  1  0  0  0  0
 11 14  1  0  0  0  0
  9 10  1  0  0  0  0
  9 11  1  0  0  0  0
  9 23  1  0  0  0  0
  7  8  1  0  0  0  0
  7  9  1  0  0  0  0
 27 28  1  0  0  0  0
 27 29  1  0  0  0  0
 27 30  1  0  0  0  0
 25 26  1  0  0  0  0
 25 27  1  0  0  0  0
M  CHG  1  15   1
M  END
$$$$
default_name
  -OEChem-02102213163D

 30 30  0     1  0  0  0  0  0999 V2000
   -3.5507   -3.2183    1.8116 H   0  0  0  0  0  0  0  0  0  0  0  0
   -3.4597   -2.3913    1.1076 C   0  0  0  0  0  0  0  0  0  0  0  0
   -4.1577   -1.6043    1.3866 H   0  0  0  0  0  0  0  0  0  0  0  0
   -3.6807   -2.7523    0.1036 H   0  0  0  0  0  0  0  0  0  0  0  0
   -2.0477   -1.8543    1.1546 C   0  0  0  0  0  0  0  0  0  0  0  0
   -1.2227   -2.3443    1.9146 O   0  0  0  0  0  0  0  0  0  0  0  0
   -1.7517   -0.8483    0.3266 N   0  0  0  0  0  0  0  0  0  0  0  0
   -2.4847   -0.5123   -0.2804 H   0  0  0  0  0  0  0  0  0  0  0  0
   -0.4117   -0.2463    0.2186 C   0  0  1  0  0  0  0  0  0  0  0  0
    0.1554   -0.5152    1.1133 H   0  0  0  0  0  0  0  0  0  0  0  0
    0.3164   -0.8780   -0.9905 C   0  0  0  0  0  0  0  0  0  0  0  0
    1.2066   -1.3983   -0.6280 H   0  0  0  0  0  0  0  0  0  0  0  0
   -0.3332   -1.6308   -1.4422 H   0  0  0  0  0  0  0  0  0  0  0  0
    0.7309    0.0961   -2.0729 C   0  0  0  0  0  0  0  0  0  0  0  0
    0.8366   -0.2021   -3.4176 N   0  3  0  0  0  0  0  0  0  0  0  0
    0.5778   -1.1087   -3.8174 H   0  0  0  0  0  0  0  0  0  0  0  0
    1.2302    0.9095   -4.0705 C   0  0  0  0  0  0  0  0  0  0  0  0
    1.3871    0.9863   -5.1445 H   0  0  0  0  0  0  0  0  0  0  0  0
    1.3776    1.9064   -3.1689 N   0  0  0  0  0  0  0  0  0  0  0  0
    1.6633    2.8601   -3.3749 H   0  0  0  0  0  0  0  0  0  0  0  0
    1.0681    1.4126   -1.9092 C   0  0  0  0  0  0  0  0  0  0  0  0
    1.0861    1.9571   -0.9692 H   0  0  0  0  0  0  0  0  0  0  0  0
   -0.4874    1.2908    0.1962 C   0  0  0  0  0  0  0  0  0  0  0  0
   -1.3116    1.8673   -0.5151 O   0  0  0  0  0  0  0  0  0  0  0  0
    0.3889    1.9422    0.9708 N   0  0  0  0  0  0  0  0  0  0  0  0
    1.0197    1.3866    1.5283 H   0  0  0  0  0  0  0  0  0  0  0  0
    0.5081    3.3999    1.0720 C   0  0  0  0  0  0  0  0  0  0  0  0
    0.0188    3.7538    1.9817 H   0  0  0  0  0  0  0  0  0  0  0  0
    1.5607    3.6858    1.1098 H   0  0  0  0  0  0  0  0  0  0  0  0
    0.0459    3.8890    0.2119 H   0  0  0  0  0  0  0  0  0  0  0  0
  5  6  2  0  0  0  0
  5  7  1  0  0  0  0
  2  3  1  0  0  0  0
  2  4  1  0  0  0  0
  2  5  1  0  0  0  0
  1  2  1  0  0  0  0
 23 24  2  0  0  0  0
 23 25  1  0  0  0  0
 21 22  1  0  0  0  0
 19 20  1  0  0  0  0
 19 21  1  0  0  0  0
 17 18  1  0  0  0  0
 17 19  1  0  0  0  0
 15 16  1  0  0  0  0
 15 17  2  0  0  0  0
 14 15  1  0  0  0  0
 14 21  2  0  0  0  0
 11 12  1  0  0  0  0
 11 13  1  0  0  0  0
 11 14  1  0  0  0  0
  9 10  1  0  0  0  0
  9 11  1  0  0  0  0
  9 23  1  0  0  0  0
  7  8  1  0  0  0  0
  7  9  1  0  0  0  0
 27 28  1  0  0  0  0
 27 29  1  0  0  0  0
 27 30  1  0  0  0  0
 25 26  1  0  0  0  0
 25 27  1  0  0  0  0
M  CHG  1  15   1
M  END
$$$$
default_name
  -OEChem-02102213163D

 30 30  0     1  0  0  0  0  0999 V2000
   -3.5507   -3.2183    1.8116 H   0  0  0  0  0  0  0  0  0  0  0  0
   -3.4597   -2.3913    1.1076 C   0  0  0  0  0  0  0  0  0  0  0  0
   -4.1577   -1.6043    1.3866 H   0  0  0  0  0  0  0  0  0  0  0  0
   -3.6807   -2.7523    0.1036 H   0  0  0  0  0  0  0  0  0  0  0  0
   -2.0477   -1.8543    1.1546 C   0  0  0  0  0  0  0  0  0  0  0  0
   -1.2227   -2.3443    1.9146 O   0  0  0  0  0  0  0  0  0  0  0  0
   -1.7517   -0.8483    0.3266 N   0  0  0  0  0  0  0  0  0  0  0  0
   -2.4847   -0.5123   -0.2804 H   0  0  0  0  0  0  0  0  0  0  0  0
   -0.4117   -0.2463    0.2186 C   0  0  1  0  0  0  0  0  0  0  0  0
    0.1554   -0.5152    1.1133 H   0  0  0  0  0  0  0  0  0  0  0  0
    0.3164   -0.8780   -0.9905 C   0  0  0  0  0  0  0  0  0  0  0  0
    1.2066   -1.3983   -0.6280 H   0  0  0  0  0  0  0  0  0  0  0  0
   -0.3332   -1.6308   -1.4422 H   0  0  0  0  0  0  0  0  0  0  0  0
    0.7309    0.0961   -2.0729 C   0  0  0  0  0  0  0  0  0  0  0  0
    0.5613   -0.0987   -3.4300 N   0  3  0  0  0  0  0  0  0  0  0  0
    0.0736   -0.9063   -3.8283 H   0  0  0  0  0  0  0  0  0  0  0  0
    1.0505    0.9767   -4.0788 C   0  0  0  0  0  0  0  0  0  0  0  0
    1.0455    1.1169   -5.1579 H   0  0  0  0  0  0  0  0  0  0  0  0
    1.5278    1.8494   -3.1628 N   0  0  0  0  0  0  0  0  0  0  0  0
    1.9538    2.7506   -3.3622 H   0  0  0  0  0  0  0  0  0  0  0  0
    1.3351    1.3117   -1.8977 C   0  0  0  0  0  0  0  0  0  0  0  0
    1.6069    1.7609   -0.9465 H   0  0  0  0  0  0  0  0  0  0  0  0
   -0.4874    1.2908    0.1962 C   0  0  0  0  0  0  0  0  0  0  0  0
   -1.3116    1.8673   -0.5151 O   0  0  0  0  0  0  0  0  0  0  0  0
    0.3889    1.9422    0.9708 N   0  0  0  0  0  0  0  0  0  0  0  0
    1.0197    1.3866    1.5283 H   0  0  0  0  0  0  0  0  0  0  0  0
    0.5081    3.3999    1.0720 C   0  0  0  0  0  0  0  0  0  0  0  0
    0.0188    3.7538    1.9817 H   0  0  0  0  0  0  0  0  0  0  0  0
    1.5607    3.6858    1.1098 H   0  0  0  0  0  0  0  0  0  0  0  0
    0.0459    3.8890    0.2119 H   0  0  0  0  0  0  0  0  0  0  0  0
  5  6  2  0  0  0  0
  5  7  1  0  0  0  0
  2  3  1  0  0  0  0
  2  4  1  0  0  0  0
  2  5  1  0  0  0  0
  1  2  1  0  0  0  0
 23 24  2  0  0  0  0
 23 25  1  0  0  0  0
 21 22  1  0  0  0  0
 19 20  1  0  0  0  0
 19 21  1  0  0  0  0
 17 18  1  0  0  0  0
 17 19  1  0  0  0  0
 15 16  1  0  0  0  0
 15 17  2  0  0  0  0
 14 15  1  0  0  0  0
 14 21  2  0  0  0  0
 11 12  1  0  0  0  0
 11 13  1  0  0  0  0
 11 14  1  0  0  0  0
  9 10  1  0  0  0  0
  9 11  1  0  0  0  0
  9 23  1  0  0  0  0
  7  8  1  0  0  0  0
  7  9  1  0  0  0  0
 27 28  1  0  0  0  0
 27 29  1  0  0  0  0
 27 30  1  0  0  0  0
 25 26  1  0  0  0  0
 25 27  1  0  0  0  0
M  CHG  1  15   1
M  END
$$$$
default_name
  -OEChem-02102213163D

 30 30  0     1  0  0  0  0  0999 V2000
   -3.5507   -3.2183    1.8116 H   0  0  0  0  0  0  0  0  0  0  0  0
   -3.4597   -2.3913    1.1076 C   0  0  0  0  0  0  0  0  0  0  0  0
   -4.1577   -1.6043    1.3866 H   0  0  0  0  0  0  0  0  0  0  0  0
   -3.6807   -2.7523    0.1036 H   0  0  0  0  0  0  0  0  0  0  0  0
   -2.0477   -1.8543    1.1546 C   0  0  0  0  0  0  0  0  0  0  0  0
   -1.2227   -2.3443    1.9146 O   0  0  0  0  0  0  0  0  0  0  0  0
   -1.7517   -0.8483    0.3266 N   0  0  0  0  0  0  0  0  0  0  0  0
   -2.4847   -0.5123   -0.2804 H   0  0  0  0  0  0  0  0  0  0  0  0
   -0.4117   -0.2463    0.2186 C   0  0  1  0  0  0  0  0  0  0  0  0
    0.1554   -0.5152    1.1133 H   0  0  0  0  0  0  0  0  0  0  0  0
    0.3164   -0.8780   -0.9905 C   0  0  0  0  0  0  0  0  0  0  0  0
    1.2066   -1.3983   -0.6280 H   0  0  0  0  0  0  0  0  0  0  0  0
   -0.3332   -1.6308   -1.4422 H   0  0  0  0  0  0  0  0  0  0  0  0
    0.7309    0.0961   -2.0729 C   0  0  0  0  0  0  0  0  0  0  0  0
    0.3125    0.0530   -3.3888 N   0  3  0  0  0  0  0  0  0  0  0  0
   -0.3778   -0.6167   -3.7406 H   0  0  0  0  0  0  0  0  0  0  0  0
    0.8879    1.0755   -4.0521 C   0  0  0  0  0  0  0  0  0  0  0  0
    0.7374    1.3071   -5.1046 H   0  0  0  0  0  0  0  0  0  0  0  0
    1.6634    1.7660   -3.1859 N   0  0  0  0  0  0  0  0  0  0  0  0
    2.2162    2.5903   -3.4060 H   0  0  0  0  0  0  0  0  0  0  0  0
    1.5763    1.1641   -1.9382 C   0  0  0  0  0  0  0  0  0  0  0  0
    2.0773    1.4733   -1.0251 H   0  0  0  0  0  0  0  0  0  0  0  0
   -0.4874    1.2908    0.1962 C   0  0  0  0  0  0  0  0  0  0  0  0
   -1.3116    1.8673   -0.5151 O   0  0  0  0  0  0  0  0  0  0  0  0
    0.3889    1.9422    0.9708 N   0  0  0  0  0  0  0  0  0  0  0  0
    1.0197    1.3866    1.5283 H   0  0  0  0  0  0  0  0  0  0  0  0
    0.5081    3.3999    1.0720 C   0  0  0  0  0  0  0  0  0  0  0  0
    0.0188    3.7538    1.9817 H   0  0  0  0  0  0  0  0  0  0  0  0
    1.5607    3.6858    1.1098 H   0  0  0  0  0  0  0  0  0  0  0  0
    0.0459    3.8890    0.2119 H   0  0  0  0  0  0  0  0  0  0  0  0
  5  6  2  0  0  0  0
  5  7  1  0  0  0  0
  2  3  1  0  0  0  0
  2  4  1  0  0  0  0
  2  5  1  0  0  0  0
  1  2  1  0  0  0  0
 23 24  2  0  0  0  0
 23 25  1  0  0  0  0
 21 22  1  0  0  0  0
 19 20  1  0  0  0  0
 19 21  1  0  0  0  0
 17 18  1  0  0  0  0
 17 19  1  0  0  0  0
 15 16  1  0  0  0  0
 15 17  2  0  0  0  0
 14 15  1  0  0  0  0
 14 21  2  0  0  0  0
 11 12  1  0  0  0  0
 11 13  1  0  0  0  0
 11 14  1  0  0  0  0
  9 10  1  0  0  0  0
  9 11  1  0  0  0  0
  9 23  1  0  0  0  0
  7  8  1  0  0  0  0
  7  9  1  0  0  0  0
 27 28  1  0  0  0  0
 27 29  1  0  0  0  0
 27 30  1  0  0  0  0
 25 26  1  0  0  0  0
 25 27  1  0  0  0  0
M  CHG  1  15   1
M  END
$$$$
default_name
  -OEChem-02102213163D

 30 30  0     1  0  0  0  0  0999 V2000
   -3.5507   -3.2183    1.8116 H   0  0  0  0  0  0  0  0  0  0  0  0
   -3.4597   -2.3913    1.1076 C   0  0  0  0  0  0  0  0  0  0  0  0
   -4.1577   -1.6043    1.3866 H   0  0  0  0  0  0  0  0  0  0  0  0
   -3.6807   -2.7523    0.1036 H   0  0  0  0  0  0  0  0  0  0  0  0
   -2.0477   -1.8543    1.1546 C   0  0  0  0  0  0  0  0  0  0  0  0
   -1.2227   -2.3443    1.9146 O   0  0  0  0  0  0  0  0  0  0  0  0
   -1.7517   -0.8483    0.3266 N   0  0  0  0  0  0  0  0  0  0  0  0
   -2.4847   -0.5123   -0.2804 H   0  0  0  0  0  0  0  0  0  0  0  0
   -0.4117   -0.2463    0.2186 C   0  0  1  0  0  0  0  0  0  0  0  0
    0.1554   -0.5152    1.1133 H   0  0  0  0  0  0  0  0  0  0  0  0
    0.3164   -0.8780   -0.9905 C   0  0  0  0  0  0  0  0  0  0  0  0
    1.2066   -1.3983   -0.6280 H   0  0  0  0  0  0  0  0  0  0  0  0
   -0.3332   -1.6308   -1.4422 H   0  0  0  0  0  0  0  0  0  0  0  0
    0.7309    0.0961   -2.0729 C   0  0  0  0  0  0  0  0  0  0  0  0
    0.1071    0.2426   -3.2968 N   0  3  0  0  0  0  0  0  0  0  0  0
   -0.7456   -0.2596   -3.5601 H   0  0  0  0  0  0  0  0  0  0  0  0
    0.7537    1.1991   -3.9923 C   0  0  0  0  0  0  0  0  0  0  0  0
    0.4838    1.5441   -4.9884 H   0  0  0  0  0  0  0  0  0  0  0  0
    1.7750    1.6620   -3.2367 N   0  0  0  0  0  0  0  0  0  0  0  0
    2.4327    2.3899   -3.5034 H   0  0  0  0  0  0  0  0  0  0  0  0
    1.7752    0.9798   -2.0279 C   0  0  0  0  0  0  0  0  0  0  0  0
    2.4655    1.1141   -1.1997 H   0  0  0  0  0  0  0  0  0  0  0  0
   -0.4874    1.2908    0.1962 C   0  0  0  0  0  0  0  0  0  0  0  0
   -1.3116    1.8673   -0.5151 O   0  0  0  0  0  0  0  0  0  0  0  0
    0.3889    1.9422    0.9708 N   0  0  0  0  0  0  0  0  0  0  0  0
    1.0197    1.3866    1.5283 H   0  0  0  0  0  0  0  0  0  0  0  0
    0.5081    3.3999    1.0720 C   0  0  0  0  0  0  0  0  0  0  0  0
    0.0188    3.7538    1.9817 H   0  0  0  0  0  0  0  0  0  0  0  0
    1.5607    3.6858    1.1098 H   0  0  0  0  0  0  0  0  0  0  0  0
    0.0459    3.8890    0.2119 H   0  0  0  0  0  0  0  0  0  0  0  0
  5  6  2  0  0  0  0
  5  7  1  0  0  0  0
  2  3  1  0  0  0  0
  2  4  1  0  0  0  0
  2  5  1  0  0  0  0
  1  2  1  0  0  0  0
 23 24  2  0  0  0  0
 23 25  1  0  0  0  0
 21 22  1  0  0  0  0
 19 20  1  0  0  0  0
 19 21  1  0  0  0  0
 17 18  1  0  0  0  0
 17 19  1  0  0  0  0
 15 16  1  0  0  0  0
 15 17  2  0  0  0  0
 14 15  1  0  0  0  0
 14 21  2  0  0  0  0
 11 12  1  0  0  0  0
 11 13  1  0  0  0  0
 11 14  1  0  0  0  0
  9 10  1  0  0  0  0
  9 11  1  0  0  0  0
  9 23  1  0  0  0  0
  7  8  1  0  0  0  0
  7  9  1  0  0  0  0
 27 28  1  0  0  0  0
 27 29  1  0  0  0  0
 27 30  1  0  0  0  0
 25 26  1  0  0  0  0
 25 27  1  0  0  0  0
M  CHG  1  15   1
M  END
$$$$
default_name
  -OEChem-02102213163D

 30 30  0     1  0  0  0  0  0999 V2000
   -3.5507   -3.2183    1.8116 H   0  0  0  0  0  0  0  0  0  0  0  0
   -3.4597   -2.3913    1.1076 C   0  0  0  0  0  0  0  0  0  0  0  0
   -4.1577   -1.6043    1.3866 H   0  0  0  0  0  0  0  0  0  0  0  0
   -3.6807   -2.7523    0.1036 H   0  0  0  0  0  0  0  0  0  0  0  0
   -2.0477   -1.8543    1.1546 C   0  0  0  0  0  0  0  0  0  0  0  0
   -1.2227   -2.3443    1.9146 O   0  0  0  0  0  0  0  0  0  0  0  0
   -1.7517   -0.8483    0.3266 N   0  0  0  0  0  0  0  0  0  0  0  0
   -2.4847   -0.5123   -0.2804 H   0  0  0  0  0  0  0  0  0  0  0  0
   -0.4117   -0.2463    0.2186 C   0  0  1  0  0  0  0  0  0  0  0  0
    0.1554   -0.5152    1.1133 H   0  0  0  0  0  0  0  0  0  0  0  0
    0.3164   -0.8780   -0.9905 C   0  0  0  0  0  0  0  0  0  0  0  0
    1.2066   -1.3983   -0.6280 H   0  0  0  0  0  0  0  0  0  0  0  0
   -0.3332   -1.6308   -1.4422 H   0  0  0  0  0  0  0  0  0  0  0  0
    0.7309    0.0961   -2.0729 C   0  0  0  0  0  0  0  0  0  0  0  0
   -0.0409    0.4573   -3.1603 N   0  3  0  0  0  0  0  0  0  0  0  0
   -1.0048    0.1405   -3.2992 H   0  0  0  0  0  0  0  0  0  0  0  0
    0.6568    1.3391   -3.9034 C   0  0  0  0  0  0  0  0  0  0  0  0
    0.3022    1.8117   -4.8171 H   0  0  0  0  0  0  0  0  0  0  0  0
    1.8552    1.5445   -3.3117 N   0  0  0  0  0  0  0  0  0  0  0  0
    2.5886    2.1632   -3.6478 H   0  0  0  0  0  0  0  0  0  0  0  0
    1.9183    0.7713   -2.1608 C   0  0  0  0  0  0  0  0  0  0  0  0
    2.7449    0.7077   -1.4585 H   0  0  0  0  0  0  0  0  0  0  0  0
   -0.4874    1.2908    0.1962 C   0  0  0  0  0  0  0  0  0  0  0  0
   -1.3116    1.8673   -0.5151 O   0  0  0  0  0  0  0  0  0  0  0  0
    0.3889    1.9422    0.9708 N   0  0  0  0  0  0  0  0  0  0  0  0
    1.0197    1.3866    1.5283 H   0  0  0  0  0  0  0  0  0  0  0  0
    0.5081    3.3999    1.0720 C   0  0  0  0  0  0  0  0  0  0  0  0
    0.0188    3.7538    1.9817 H   0  0  0  0  0  0  0  0  0  0  0  0
    1.5607    3.6858    1.1098 H   0  0  0  0  0  0  0  0  0  0  0  0
    0.0459    3.8890    0.2119 H   0  0  0  0  0  0  0  0  0  0  0  0
  5  6  2  0  0  0  0
  5  7  1  0  0  0  0
  2  3  1  0  0  0  0
  2  4  1  0  0  0  0
  2  5  1  0  0  0  0
  1  2  1  0  0  0  0
 23 24  2  0  0  0  0
 23 25  1  0  0  0  0
 21 22  1  0  0  0  0
 19 20  1  0  0  0  0
 19 21  1  0  0  0  0
 17 18  1  0  0  0  0
 17 19  1  0  0  0  0
 15 16  1  0  0  0  0
 15 17  2  0  0  0  0
 14 15  1  0  0  0  0
 14 21  2  0  0  0  0
 11 12  1  0  0  0  0
 11 13  1  0  0  0  0
 11 14  1  0  0  0  0
  9 10  1  0  0  0  0
  9 11  1  0  0  0  0
  9 23  1  0  0  0  0
  7  8  1  0  0  0  0
  7  9  1  0  0  0  0
 27 28  1  0  0  0  0
 27 29  1  0  0  0  0
 27 30  1  0  0  0  0
 25 26  1  0  0  0  0
 25 27  1  0  0  0  0
M  CHG  1  15   1
M  END
$$$$
default_name
  -OEChem-02102213163D

 30 30  0     1  0  0  0  0  0999 V2000
   -3.5507   -3.2183    1.8116 H   0  0  0  0  0  0  0  0  0  0  0  0
   -3.4597   -2.3913    1.1076 C   0  0  0  0  0  0  0  0  0  0  0  0
   -4.1577   -1.6043    1.3866 H   0  0  0  0  0  0  0  0  0  0  0  0
   -3.6807   -2.7523    0.1036 H   0  0  0  0  0  0  0  0  0  0  0  0
   -2.0477   -1.8543    1.1546 C   0  0  0  0  0  0  0  0  0  0  0  0
   -1.2227   -2.3443    1.9146 O   0  0  0  0  0  0  0  0  0  0  0  0
   -1.7517   -0.8483    0.3266 N   0  0  0  0  0  0  0  0  0  0  0  0
   -2.4847   -0.5123   -0.2804 H   0  0  0  0  0  0  0  0  0  0  0  0
   -0.4117   -0.2463    0.2186 C   0  0  1  0  0  0  0  0  0  0  0  0
    0.1554   -0.5152    1.1133 H   0  0  0  0  0  0  0  0  0  0  0  0
    0.3164   -0.8780   -0.9905 C   0  0  0  0  0  0  0  0  0  0  0  0
    1.2066   -1.3983   -0.6280 H   0  0  0  0  0  0  0  0  0  0  0  0
   -0.3332   -1.6308   -1.4422 H   0  0  0  0  0  0  0  0  0  0  0  0
    0.7309    0.0961   -2.0729 C   0  0  0  0  0  0  0  0  0  0  0  0
   -0.1214    0.6823   -2.9885 N   0  3  0  0  0  0  0  0  0  0  0  0
   -1.1376    0.5564   -2.9757 H   0  0  0  0  0  0  0  0  0  0  0  0
    0.6040    1.4859   -3.7915 C   0  0  0  0  0  0  0  0  0  0  0  0
    0.2047    2.0917   -4.6025 H   0  0  0  0  0  0  0  0  0  0  0  0
    1.8984    1.4215   -3.4059 N   0  0  0  0  0  0  0  0  0  0  0  0
    2.6731    1.9257   -3.8292 H   0  0  0  0  0  0  0  0  0  0  0  0
    1.9958    0.5529   -2.3277 C   0  0  0  0  0  0  0  0  0  0  0  0
    2.8964    0.2818   -1.7838 H   0  0  0  0  0  0  0  0  0  0  0  0
   -0.4874    1.2908    0.1962 C   0  0  0  0  0  0  0  0  0  0  0  0
   -1.3116    1.8673   -0.5151 O   0  0  0  0  0  0  0  0  0  0  0  0
    0.3889    1.9422    0.9708 N   0  0  0  0  0  0  0  0  0  0  0  0
    1.0197    1.3866    1.5283 H   0  0  0  0  0  0  0  0  0  0  0  0
    0.5081    3.3999    1.0720 C   0  0  0  0  0  0  0  0  0  0  0  0
    0.0188    3.7538    1.9817 H   0  0  0  0  0  0  0  0  0  0  0  0
    1.5607    3.6858    1.1098 H   0  0  0  0  0  0  0  0  0  0  0  0
    0.0459    3.8890    0.2119 H   0  0  0  0  0  0  0  0  0  0  0  0
  5  6  2  0  0  0  0
  5  7  1  0  0  0  0
  2  3  1  0  0  0  0
  2  4  1  0  0  0  0
  2  5  1  0  0  0  0
  1  2  1  0  0  0  0
 23 24  2  0  0  0  0
 23 25  1  0  0  0  0
 21 22  1  0  0  0  0
 19 20  1  0  0  0  0
 19 21  1  0  0  0  0
 17 18  1  0  0  0  0
 17 19  1  0  0  0  0
 15 16  1  0  0  0  0
 15 17  2  0  0  0  0
 14 15  1  0  0  0  0
 14 21  2  0  0  0  0
 11 12  1  0  0  0  0
 11 13  1  0  0  0  0
 11 14  1  0  0  0  0
  9 10  1  0  0  0  0
  9 11  1  0  0  0  0
  9 23  1  0  0  0  0
  7  8  1  0  0  0  0
  7  9  1  0  0  0  0
 27 28  1  0  0  0  0
 27 29  1  0  0  0  0
 27 30  1  0  0  0  0
 25 26  1  0  0  0  0
 25 27  1  0  0  0  0
M  CHG  1  15   1
M  END
$$$$
default_name
  -OEChem-02102213163D

 30 30  0     1  0  0  0  0  0999 V2000
   -3.5507   -3.2183    1.8116 H   0  0  0  0  0  0  0  0  0  0  0  0
   -3.4597   -2.3913    1.1076 C   0  0  0  0  0  0  0  0  0  0  0  0
   -4.1577   -1.6043    1.3866 H   0  0  0  0  0  0  0  0  0  0  0  0
   -3.6807   -2.7523    0.1036 H   0  0  0  0  0  0  0  0  0  0  0  0
   -2.0477   -1.8543    1.1546 C   0  0  0  0  0  0  0  0  0  0  0  0
   -1.2227   -2.3443    1.9146 O   0  0  0  0  0  0  0  0  0  0  0  0
   -1.7517   -0.8483    0.3266 N   0  0  0  0  0  0  0  0  0  0  0  0
   -2.4847   -0.5123   -0.2804 H   0  0  0  0  0  0  0  0  0  0  0  0
   -0.4117   -0.2463    0.2186 C   0  0  1  0  0  0  0  0  0  0  0  0
    0.1554   -0.5152    1.1133 H   0  0  0  0  0  0  0  0  0  0  0  0
    0.3164   -0.8780   -0.9905 C   0  0  0  0  0  0  0  0  0  0  0  0
    1.2066   -1.3983   -0.6280 H   0  0  0  0  0  0  0  0  0  0  0  0
   -0.3332   -1.6308   -1.4422 H   0  0  0  0  0  0  0  0  0  0  0  0
    0.7309    0.0961   -2.0729 C   0  0  0  0  0  0  0  0  0  0  0  0
   -0.1289    0.9024   -2.7933 N   0  3  0  0  0  0  0  0  0  0  0  0
   -1.1351    0.9599   -2.6117 H   0  0  0  0  0  0  0  0  0  0  0  0
    0.5987    1.6296   -3.6642 C   0  0  0  0  0  0  0  0  0  0  0  0
    0.1981    2.3649   -4.3591 H   0  0  0  0  0  0  0  0  0  0  0  0
    1.9017    1.3014   -3.5128 N   0  0  0  0  0  0  0  0  0  0  0  0
    2.6806    1.6934   -4.0354 H   0  0  0  0  0  0  0  0  0  0  0  0
    2.0024    0.3394   -2.5173 C   0  0  0  0  0  0  0  0  0  0  0  0
    2.9098   -0.1346   -2.1534 H   0  0  0  0  0  0  0  0  0  0  0  0
   -0.4874    1.2908    0.1962 C   0  0  0  0  0  0  0  0  0  0  0  0
   -1.3116    1.8673   -0.5151 O   0  0  0  0  0  0  0  0  0  0  0  0
    0.3889    1.9422    0.9708 N   0  0  0  0  0  0  0  0  0  0  0  0
    1.0197    1.3866    1.5283 H   0  0  0  0  0  0  0  0  0  0  0  0
    0.5081    3.3999    1.0720 C   0  0  0  0  0  0  0  0  0  0  0  0
    0.0188    3.7538    1.9817 H   0  0  0  0  0  0  0  0  0  0  0  0
    1.5607    3.6858    1.1098 H   0  0  0  0  0  0  0  0  0  0  0  0
    0.0459    3.8890    0.2119 H   0  0  0  0  0  0  0  0  0  0  0  0
  5  6  2  0  0  0  0
  5  7  1  0  0  0  0
  2  3  1  0  0  0  0
  2  4  1  0  0  0  0
  2  5  1  0  0  0  0
  1  2  1  0  0  0  0
 23 24  2  0  0  0  0
 23 25  1  0  0  0  0
 21 22  1  0  0  0  0
 19 20  1  0  0  0  0
 19 21  1  0  0  0  0
 17 18  1  0  0  0  0
 17 19  1  0  0  0  0
 15 16  1  0  0  0  0
 15 17  2  0  0  0  0
 14 15  1  0  0  0  0
 14 21  2  0  0  0  0
 11 12  1  0  0  0  0
 11 13  1  0  0  0  0
 11 14  1  0  0  0  0
  9 10  1  0  0  0  0
  9 11  1  0  0  0  0
  9 23  1  0  0  0  0
  7  8  1  0  0  0  0
  7  9  1  0  0  0  0
 27 28  1  0  0  0  0
 27 29  1  0  0  0  0
 27 30  1  0  0  0  0
 25 26  1  0  0  0  0
 25 27  1  0  0  0  0
M  CHG  1  15   1
M  END
$$$$
default_name
  -OEChem-02102213163D

 30 30  0     1  0  0  0  0  0999 V2000
   -3.5507   -3.2183    1.8116 H   0  0  0  0  0  0  0  0  0  0  0  0
   -3.4597   -2.3913    1.1076 C   0  0  0  0  0  0  0  0  0  0  0  0
   -4.1577   -1.6043    1.3866 H   0  0  0  0  0  0  0  0  0  0  0  0
   -3.6807   -2.7523    0.1036 H   0  0  0  0  0  0  0  0  0  0  0  0
   -2.0477   -1.8543    1.1546 C   0  0  0  0  0  0  0  0  0  0  0  0
   -1.2227   -2.3443    1.9146 O   0  0  0  0  0  0  0  0  0  0  0  0
   -1.7517   -0.8483    0.3266 N   0  0  0  0  0  0  0  0  0  0  0  0
   -2.4847   -0.5123   -0.2804 H   0  0  0  0  0  0  0  0  0  0  0  0
   -0.4117   -0.2463    0.2186 C   0  0  1  0  0  0  0  0  0  0  0  0
    0.1554   -0.5152    1.1133 H   0  0  0  0  0  0  0  0  0  0  0  0
    0.3164   -0.8780   -0.9905 C   0  0  0  0  0  0  0  0  0  0  0  0
    1.2066   -1.3983   -0.6280 H   0  0  0  0  0  0  0  0  0  0  0  0
   -0.3332   -1.6308   -1.4422 H   0  0  0  0  0  0  0  0  0  0  0  0
    0.7309    0.0961   -2.0729 C   0  0  0  0  0  0  0  0  0  0  0  0
   -0.0630    1.1026   -2.5879 N   0  3  0  0  0  0  0  0  0  0  0  0
   -0.9974    1.3233   -2.2318 H   0  0  0  0  0  0  0  0  0  0  0  0
    0.6415    1.7603   -3.5302 C   0  0  0  0  0  0  0  0  0  0  0  0
    0.2829    2.6128   -4.1035 H   0  0  0  0  0  0  0  0  0  0  0  0
    1.8649    1.1923   -3.6250 N   0  0  0  0  0  0  0  0  0  0  0  0
    2.6106    1.4823   -4.2522 H   0  0  0  0  0  0  0  0  0  0  0  0
    1.9378    0.1453   -2.7167 C   0  0  0  0  0  0  0  0  0  0  0  0
    2.7842   -0.5131   -2.5422 H   0  0  0  0  0  0  0  0  0  0  0  0
   -0.4874    1.2908    0.1962 C   0  0  0  0  0  0  0  0  0  0  0  0
   -1.3116    1.8673   -0.5151 O   0  0  0  0  0  0  0  0  0  0  0  0
    0.3889    1.9422    0.9708 N   0  0  0  0  0  0  0  0  0  0  0  0
    1.0197    1.3866    1.5283 H   0  0  0  0  0  0  0  0  0  0  0  0
    0.5081    3.3999    1.0720 C   0  0  0  0  0  0  0  0  0  0  0  0
    0.0188    3.7538    1.9817 H   0  0  0  0  0  0  0  0  0  0  0  0
    1.5607    3.6858    1.1098 H   0  0  0  0  0  0  0  0  0  0  0  0
    0.0459    3.8890    0.2119 H   0  0  0  0  0  0  0  0  0  0  0  0
  5  6  2  0  0  0  0
  5  7  1  0  0  0  0
  2  3  1  0  0  0  0
  2  4  1  0  0  0  0
  2  5  1  0  0  0  0
  1  2  1  0  0  0  0
 23 24  2  0  0  0  0
 23 25  1  0  0  0  0
 21 22  1  0  0  0  0
 19 20  1  0  0  0  0
 19 21  1  0  0  0  0
 17 18  1  0  0  0  0
 17 19  1  0  0  0  0
 15 16  1  0  0  0  0
 15 17  2  0  0  0  0
 14 15  1  0  0  0  0
 14 21  2  0  0  0  0
 11 12  1  0  0  0  0
 11 13  1  0  0  0  0
 11 14  1  0  0  0  0
  9 10  1  0  0  0  0
  9 11  1  0  0  0  0
  9 23  1  0  0  0  0
  7  8  1  0  0  0  0
  7  9  1  0  0  0  0
 27 28  1  0  0  0  0
 27 29  1  0  0  0  0
 27 30  1  0  0  0  0
 25 26  1  0  0  0  0
 25 27  1  0  0  0  0
M  CHG  1  15   1
M  END
$$$$
default_name
  -OEChem-02102213163D

 30 30  0     1  0  0  0  0  0999 V2000
   -3.5507   -3.2183    1.8116 H   0  0  0  0  0  0  0  0  0  0  0  0
   -3.4597   -2.3913    1.1076 C   0  0  0  0  0  0  0  0  0  0  0  0
   -4.1577   -1.6043    1.3866 H   0  0  0  0  0  0  0  0  0  0  0  0
   -3.6807   -2.7523    0.1036 H   0  0  0  0  0  0  0  0  0  0  0  0
   -2.0477   -1.8543    1.1546 C   0  0  0  0  0  0  0  0  0  0  0  0
   -1.2227   -2.3443    1.9146 O   0  0  0  0  0  0  0  0  0  0  0  0
   -1.7517   -0.8483    0.3266 N   0  0  0  0  0  0  0  0  0  0  0  0
   -2.4847   -0.5123   -0.2804 H   0  0  0  0  0  0  0  0  0  0  0  0
   -0.4117   -0.2463    0.2186 C   0  0  1  0  0  0  0  0  0  0  0  0
    0.1554   -0.5152    1.1133 H   0  0  0  0  0  0  0  0  0  0  0  0
    0.3164   -0.8780   -0.9905 C   0  0  0  0  0  0  0  0  0  0  0  0
    1.2066   -1.3983   -0.6280 H   0  0  0  0  0  0  0  0  0  0  0  0
   -0.3332   -1.6308   -1.4422 H   0  0  0  0  0  0  0  0  0  0  0  0
    0.7309    0.0961   -2.0729 C   0  0  0  0  0  0  0  0  0  0  0  0
    0.0720    1.2692   -2.3863 N   0  3  0  0  0  0  0  0  0  0  0  0
   -0.7339    1.6220   -1.8621 H   0  0  0  0  0  0  0  0  0  0  0  0
    0.7292    1.8692   -3.3985 C   0  0  0  0  0  0  0  0  0  0  0  0
    0.4531    2.8185   -3.8532 H   0  0  0  0  0  0  0  0  0  0  0  0
    1.7904    1.1017   -3.7351 N   0  0  0  0  0  0  0  0  0  0  0  0
    2.4678    1.3067   -4.4650 H   0  0  0  0  0  0  0  0  0  0  0  0
    1.8062   -0.0160   -2.9123 C   0  0  0  0  0  0  0  0  0  0  0  0
    2.5281   -0.8279   -2.9236 H   0  0  0  0  0  0  0  0  0  0  0  0
   -0.4874    1.2908    0.1962 C   0  0  0  0  0  0  0  0  0  0  0  0
   -1.3116    1.8673   -0.5151 O   0  0  0  0  0  0  0  0  0  0  0  0
    0.3889    1.9422    0.9708 N   0  0  0  0  0  0  0  0  0  0  0  0
    1.0197    1.3866    1.5283 H   0  0  0  0  0  0  0  0  0  0  0  0
    0.5081    3.3999    1.0720 C   0  0  0  0  0  0  0  0  0  0  0  0
    0.0188    3.7538    1.9817 H   0  0  0  0  0  0  0  0  0  0  0  0
    1.5607    3.6858    1.1098 H   0  0  0  0  0  0  0  0  0  0  0  0
    0.0459    3.8890    0.2119 H   0  0  0  0  0  0  0  0  0  0  0  0
  5  6  2  0  0  0  0
  5  7  1  0  0  0  0
  2  3  1  0  0  0  0
  2  4  1  0  0  0  0
  2  5  1  0  0  0  0
  1  2  1  0  0  0  0
 23 24  2  0  0  0  0
 23 25  1  0  0  0  0
 21 22  1  0  0  0  0
 19 20  1  0  0  0  0
 19 21  1  0  0  0  0
 17 18  1  0  0  0  0
 17 19  1  0  0  0  0
 15 16  1  0  0  0  0
 15 17  2  0  0  0  0
 14 15  1  0  0  0  0
 14 21  2  0  0  0  0
 11 12  1  0  0  0  0
 11 13  1  0  0  0  0
 11 14  1  0  0  0  0
  9 10  1  0  0  0  0
  9 11  1  0  0  0  0
  9 23  1  0  0  0  0
  7  8  1  0  0  0  0
  7  9  1  0  0  0  0
 27 28  1  0  0  0  0
 27 29  1  0  0  0  0
 27 30  1  0  0  0  0
 25 26  1  0  0  0  0
 25 27  1  0  0  0  0
M  CHG  1  15   1
M  END
$$$$
default_name
  -OEChem-02102213163D

 30 30  0     1  0  0  0  0  0999 V2000
   -3.5507   -3.2183    1.8116 H   0  0  0  0  0  0  0  0  0  0  0  0
   -3.4597   -2.3913    1.1076 C   0  0  0  0  0  0  0  0  0  0  0  0
   -4.1577   -1.6043    1.3866 H   0  0  0  0  0  0  0  0  0  0  0  0
   -3.6807   -2.7523    0.1036 H   0  0  0  0  0  0  0  0  0  0  0  0
   -2.0477   -1.8543    1.1546 C   0  0  0  0  0  0  0  0  0  0  0  0
   -1.2227   -2.3443    1.9146 O   0  0  0  0  0  0  0  0  0  0  0  0
   -1.7517   -0.8483    0.3266 N   0  0  0  0  0  0  0  0  0  0  0  0
   -2.4847   -0.5123   -0.2804 H   0  0  0  0  0  0  0  0  0  0  0  0
   -0.4117   -0.2463    0.2186 C   0  0  1  0  0  0  0  0  0  0  0  0
    0.1554   -0.5152    1.1133 H   0  0  0  0  0  0  0  0  0  0  0  0
    0.3164   -0.8780   -0.9905 C   0  0  0  0  0  0  0  0  0  0  0  0
    1.2066   -1.3983   -0.6280 H   0  0  0  0  0  0  0  0  0  0  0  0
   -0.3332   -1.6308   -1.4422 H   0  0  0  0  0  0  0  0  0  0  0  0
    0.7309    0.0961   -2.0729 C   0  0  0  0  0  0  0  0  0  0  0  0
    0.2667    1.3909   -2.2022 N   0  3  0  0  0  0  0  0  0  0  0  0
   -0.3626    1.8355   -1.5277 H   0  0  0  0  0  0  0  0  0  0  0  0
    0.8561    1.9488   -3.2783 C   0  0  0  0  0  0  0  0  0  0  0  0
    0.6973    2.9679   -3.6252 H   0  0  0  0  0  0  0  0  0  0  0  0
    1.6834    1.0358   -3.8354 N   0  0  0  0  0  0  0  0  0  0  0  0
    2.2619    1.1785   -4.6591 H   0  0  0  0  0  0  0  0  0  0  0  0
    1.6167   -0.1336   -3.0908 C   0  0  0  0  0  0  0  0  0  0  0  0
    2.1589   -1.0576   -3.2717 H   0  0  0  0  0  0  0  0  0  0  0  0
   -0.4874    1.2908    0.1962 C   0  0  0  0  0  0  0  0  0  0  0  0
   -1.3116    1.8673   -0.5151 O   0  0  0  0  0  0  0  0  0  0  0  0
    0.3889    1.9422    0.9708 N   0  0  0  0  0  0  0  0  0  0  0  0
    1.0197    1.3866    1.5283 H   0  0  0  0  0  0  0  0  0  0  0  0
    0.5081    3.3999    1.0720 C   0  0  0  0  0  0  0  0  0  0  0  0
    0.0188    3.7538    1.9817 H   0  0  0  0  0  0  0  0  0  0  0  0
    1.5607    3.6858    1.1098 H   0  0  0  0  0  0  0  0  0  0  0  0
    0.0459    3.8890    0.2119 H   0  0  0  0  0  0  0  0  0  0  0  0
  5  6  2  0  0  0  0
  5  7  1  0  0  0  0
  2  3  1  0  0  0  0
  2  4  1  0  0  0  0
  2  5  1  0  0  0  0
  1  2  1  0  0  0  0
 23 24  2  0  0  0  0
 23 25  1  0  0  0  0
 21 22  1  0  0  0  0
 19 20  1  0  0  0  0
 19 21  1  0  0  0  0
 17 18  1  0  0  0  0
 17 19  1  0  0  0  0
 15 16  1  0  0  0  0
 15 17  2  0  0  0  0
 14 15  1  0  0  0  0
 14 21  2  0  0  0  0
 11 12  1  0  0  0  0
 11 13  1  0  0  0  0
 11 14  1  0  0  0  0
  9 10  1  0  0  0  0
  9 11  1  0  0  0  0
  9 23  1  0  0  0  0
  7  8  1  0  0  0  0
  7  9  1  0  0  0  0
 27 28  1  0  0  0  0
 27 29  1  0  0  0  0
 27 30  1  0  0  0  0
 25 26  1  0  0  0  0
 25 27  1  0  0  0  0
M  CHG  1  15   1
M  END
$$$$
default_name
  -OEChem-02102213163D

 30 30  0     1  0  0  0  0  0999 V2000
   -3.5507   -3.2183    1.8116 H   0  0  0  0  0  0  0  0  0  0  0  0
   -3.4597   -2.3913    1.1076 C   0  0  0  0  0  0  0  0  0  0  0  0
   -4.1577   -1.6043    1.3866 H   0  0  0  0  0  0  0  0  0  0  0  0
   -3.6807   -2.7523    0.1036 H   0  0  0  0  0  0  0  0  0  0  0  0
   -2.0477   -1.8543    1.1546 C   0  0  0  0  0  0  0  0  0  0  0  0
   -1.2227   -2.3443    1.9146 O   0  0  0  0  0  0  0  0  0  0  0  0
   -1.7517   -0.8483    0.3266 N   0  0  0  0  0  0  0  0  0  0  0  0
   -2.4847   -0.5123   -0.2804 H   0  0  0  0  0  0  0  0  0  0  0  0
   -0.4117   -0.2463    0.2186 C   0  0  1  0  0  0  0  0  0  0  0  0
    0.1554   -0.5152    1.1133 H   0  0  0  0  0  0  0  0  0  0  0  0
    0.3164   -0.8780   -0.9905 C   0  0  0  0  0  0  0  0  0  0  0  0
    1.2066   -1.3983   -0.6280 H   0  0  0  0  0  0  0  0  0  0  0  0
   -0.3332   -1.6308   -1.4422 H   0  0  0  0  0  0  0  0  0  0  0  0
    0.7309    0.0961   -2.0729 C   0  0  0  0  0  0  0  0  0  0  0  0
    0.5080    1.4593   -2.0482 N   0  3  0  0  0  0  0  0  0  0  0  0
    0.0913    1.9494   -1.2514 H   0  0  0  0  0  0  0  0  0  0  0  0
    1.0134    1.9937   -3.1777 C   0  0  0  0  0  0  0  0  0  0  0  0
    0.9988    3.0509   -3.4350 H   0  0  0  0  0  0  0  0  0  0  0  0
    1.5511    0.9990   -3.9192 N   0  0  0  0  0  0  0  0  0  0  0  0
    2.0069    1.1066   -4.8215 H   0  0  0  0  0  0  0  0  0  0  0  0
    1.3822   -0.1996   -3.2399 C   0  0  0  0  0  0  0  0  0  0  0  0
    1.7018   -1.1865   -3.5628 H   0  0  0  0  0  0  0  0  0  0  0  0
   -0.4874    1.2908    0.1962 C   0  0  0  0  0  0  0  0  0  0  0  0
   -1.3116    1.8673   -0.5151 O   0  0  0  0  0  0  0  0  0  0  0  0
    0.3889    1.9422    0.9708 N   0  0  0  0  0  0  0  0  0  0  0  0
    1.0197    1.3866    1.5283 H   0  0  0  0  0  0  0  0  0  0  0  0
    0.5081    3.3999    1.0720 C   0  0  0  0  0  0  0  0  0  0  0  0
    0.0188    3.7538    1.9817 H   0  0  0  0  0  0  0  0  0  0  0  0
    1.5607    3.6858    1.1098 H   0  0  0  0  0  0  0  0  0  0  0  0
    0.0459    3.8890    0.2119 H   0  0  0  0  0  0  0  0  0  0  0  0
  5  6  2  0  0  0  0
  5  7  1  0  0  0  0
  2  3  1  0  0  0  0
  2  4  1  0  0  0  0
  2  5  1  0  0  0  0
  1  2  1  0  0  0  0
 23 24  2  0  0  0  0
 23 25  1  0  0  0  0
 21 22  1  0  0  0  0
 19 20  1  0  0  0  0
 19 21  1  0  0  0  0
 17 18  1  0  0  0  0
 17 19  1  0  0  0  0
 15 16  1  0  0  0  0
 15 17  2  0  0  0  0
 14 15  1  0  0  0  0
 14 21  2  0  0  0  0
 11 12  1  0  0  0  0
 11 13  1  0  0  0  0
 11 14  1  0  0  0  0
  9 10  1  0  0  0  0
  9 11  1  0  0  0  0
  9 23  1  0  0  0  0
  7  8  1  0  0  0  0
  7  9  1  0  0  0  0
 27 28  1  0  0  0  0
 27 29  1  0  0  0  0
 27 30  1  0  0  0  0
 25 26  1  0  0  0  0
 25 27  1  0  0  0  0
M  CHG  1  15   1
M  END
$$$$
default_name
  -OEChem-02102213163D

 30 30  0     1  0  0  0  0  0999 V2000
   -3.5507   -3.2183    1.8116 H   0  0  0  0  0  0  0  0  0  0  0  0
   -3.4597   -2.3913    1.1076 C   0  0  0  0  0  0  0  0  0  0  0  0
   -4.1577   -1.6043    1.3866 H   0  0  0  0  0  0  0  0  0  0  0  0
   -3.6807   -2.7523    0.1036 H   0  0  0  0  0  0  0  0  0  0  0  0
   -2.0477   -1.8543    1.1546 C   0  0  0  0  0  0  0  0  0  0  0  0
   -1.2227   -2.3443    1.9146 O   0  0  0  0  0  0  0  0  0  0  0  0
   -1.7517   -0.8483    0.3266 N   0  0  0  0  0  0  0  0  0  0  0  0
   -2.4847   -0.5123   -0.2804 H   0  0  0  0  0  0  0  0  0  0  0  0
   -0.4117   -0.2463    0.2186 C   0  0  1  0  0  0  0  0  0  0  0  0
    0.1554   -0.5152    1.1133 H   0  0  0  0  0  0  0  0  0  0  0  0
    0.3164   -0.8780   -0.9905 C   0  0  0  0  0  0  0  0  0  0  0  0
    1.2066   -1.3983   -0.6280 H   0  0  0  0  0  0  0  0  0  0  0  0
   -0.3332   -1.6308   -1.4422 H   0  0  0  0  0  0  0  0  0  0  0  0
    0.7309    0.0961   -2.0729 C   0  0  0  0  0  0  0  0  0  0  0  0
    0.7794    1.4698   -1.9348 N   0  3  0  0  0  0  0  0  0  0  0  0
    0.5968    1.9558   -1.0521 H   0  0  0  0  0  0  0  0  0  0  0  0
    1.1903    2.0009   -3.1035 C   0  0  0  0  0  0  0  0  0  0  0  0
    1.3371    3.0618   -3.2957 H   0  0  0  0  0  0  0  0  0  0  0  0
    1.4026    0.9939   -3.9806 N   0  0  0  0  0  0  0  0  0  0  0  0
    1.7204    1.0959   -4.9409 H   0  0  0  0  0  0  0  0  0  0  0  0
    1.1186   -0.2093   -3.3496 C   0  0  0  0  0  0  0  0  0  0  0  0
    1.1881   -1.2058   -3.7769 H   0  0  0  0  0  0  0  0  0  0  0  0
   -0.4874    1.2908    0.1962 C   0  0  0  0  0  0  0  0  0  0  0  0
   -1.3116    1.8673   -0.5151 O   0  0  0  0  0  0  0  0  0  0  0  0
    0.3889    1.9422    0.9708 N   0  0  0  0  0  0  0  0  0  0  0  0
    1.0197    1.3866    1.5283 H   0  0  0  0  0  0  0  0  0  0  0  0
    0.5081    3.3999    1.0720 C   0  0  0  0  0  0  0  0  0  0  0  0
    0.0188    3.7538    1.9817 H   0  0  0  0  0  0  0  0  0  0  0  0
    1.5607    3.6858    1.1098 H   0  0  0  0  0  0  0  0  0  0  0  0
    0.0459    3.8890    0.2119 H   0  0  0  0  0  0  0  0  0  0  0  0
  5  6  2  0  0  0  0
  5  7  1  0  0  0  0
  2  3  1  0  0  0  0
  2  4  1  0  0  0  0
  2  5  1  0  0  0  0
  1  2  1  0  0  0  0
 23 24  2  0  0  0  0
 23 25  1  0  0  0  0
 21 22  1  0  0  0  0
 19 20  1  0  0  0  0
 19 21  1  0  0  0  0
 17 18  1  0  0  0  0
 17 19  1  0  0  0  0
 15 16  1  0  0  0  0
 15 17  2  0  0  0  0
 14 15  1  0  0  0  0
 14 21  2  0  0  0  0
 11 12  1  0  0  0  0
 11 13  1  0  0  0  0
 11 14  1  0  0  0  0
  9 10  1  0  0  0  0
  9 11  1  0  0  0  0
  9 23  1  0  0  0  0
  7  8  1  0  0  0  0
  7  9  1  0  0  0  0
 27 28  1  0  0  0  0
 27 29  1  0  0  0  0
 27 30  1  0  0  0  0
 25 26  1  0  0  0  0
 25 27  1  0  0  0  0
M  CHG  1  15   1
M  END
$$$$
default_name
  -OEChem-02102213163D

 30 30  0     1  0  0  0  0  0999 V2000
   -3.5507   -3.2183    1.8116 H   0  0  0  0  0  0  0  0  0  0  0  0
   -3.4597   -2.3913    1.1076 C   0  0  0  0  0  0  0  0  0  0  0  0
   -4.1577   -1.6043    1.3866 H   0  0  0  0  0  0  0  0  0  0  0  0
   -3.6807   -2.7523    0.1036 H   0  0  0  0  0  0  0  0  0  0  0  0
   -2.0477   -1.8543    1.1546 C   0  0  0  0  0  0  0  0  0  0  0  0
   -1.2227   -2.3443    1.9146 O   0  0  0  0  0  0  0  0  0  0  0  0
   -1.7517   -0.8483    0.3266 N   0  0  0  0  0  0  0  0  0  0  0  0
   -2.4847   -0.5123   -0.2804 H   0  0  0  0  0  0  0  0  0  0  0  0
   -0.4117   -0.2463    0.2186 C   0  0  1  0  0  0  0  0  0  0  0  0
    0.1554   -0.5152    1.1133 H   0  0  0  0  0  0  0  0  0  0  0  0
    0.3164   -0.8780   -0.9905 C   0  0  0  0  0  0  0  0  0  0  0  0
    1.2066   -1.3983   -0.6280 H   0  0  0  0  0  0  0  0  0  0  0  0
   -0.3332   -1.6308   -1.4422 H   0  0  0  0  0  0  0  0  0  0  0  0
    0.7309    0.0961   -2.0729 C   0  0  0  0  0  0  0  0  0  0  0  0
    1.0624    1.4218   -1.8697 N   0  3  0  0  0  0  0  0  0  0  0  0
    1.1194    1.8543   -0.9432 H   0  0  0  0  0  0  0  0  0  0  0  0
    1.3750    1.9698   -3.0608 C   0  0  0  0  0  0  0  0  0  0  0  0
    1.6890    2.9999   -3.2166 H   0  0  0  0  0  0  0  0  0  0  0  0
    1.2480    1.0208   -4.0156 N   0  0  0  0  0  0  0  0  0  0  0  0
    1.4217    1.1469   -5.0093 H   0  0  0  0  0  0  0  0  0  0  0  0
    0.8439   -0.1621   -3.4123 C   0  0  0  0  0  0  0  0  0  0  0  0
    0.6525   -1.1142   -3.8995 H   0  0  0  0  0  0  0  0  0  0  0  0
   -0.4874    1.2908    0.1962 C   0  0  0  0  0  0  0  0  0  0  0  0
   -1.3116    1.8673   -0.5151 O   0  0  0  0  0  0  0  0  0  0  0  0
    0.3889    1.9422    0.9708 N   0  0  0  0  0  0  0  0  0  0  0  0
    1.0197    1.3866    1.5283 H   0  0  0  0  0  0  0  0  0  0  0  0
    0.5081    3.3999    1.0720 C   0  0  0  0  0  0  0  0  0  0  0  0
    0.0188    3.7538    1.9817 H   0  0  0  0  0  0  0  0  0  0  0  0
    1.5607    3.6858    1.1098 H   0  0  0  0  0  0  0  0  0  0  0  0
    0.0459    3.8890    0.2119 H   0  0  0  0  0  0  0  0  0  0  0  0
  5  6  2  0  0  0  0
  5  7  1  0  0  0  0
  2  3  1  0  0  0  0
  2  4  1  0  0  0  0
  2  5  1  0  0  0  0
  1  2  1  0  0  0  0
 23 24  2  0  0  0  0
 23 25  1  0  0  0  0
 21 22  1  0  0  0  0
 19 20  1  0  0  0  0
 19 21  1  0  0  0  0
 17 18  1  0  0  0  0
 17 19  1  0  0  0  0
 15 16  1  0  0  0  0
 15 17  2  0  0  0  0
 14 15  1  0  0  0  0
 14 21  2  0  0  0  0
 11 12  1  0  0  0  0
 11 13  1  0  0  0  0
 11 14  1  0  0  0  0
  9 10  1  0  0  0  0
  9 11  1  0  0  0  0
  9 23  1  0  0  0  0
  7  8  1  0  0  0  0
  7  9  1  0  0  0  0
 27 28  1  0  0  0  0
 27 29  1  0  0  0  0
 27 30  1  0  0  0  0
 25 26  1  0  0  0  0
 25 27  1  0  0  0  0
M  CHG  1  15   1
M  END
$$$$
default_name
  -OEChem-02102213163D

 30 30  0     1  0  0  0  0  0999 V2000
   -3.5507   -3.2183    1.8116 H   0  0  0  0  0  0  0  0  0  0  0  0
   -3.4597   -2.3913    1.1076 C   0  0  0  0  0  0  0  0  0  0  0  0
   -4.1577   -1.6043    1.3866 H   0  0  0  0  0  0  0  0  0  0  0  0
   -3.6807   -2.7523    0.1036 H   0  0  0  0  0  0  0  0  0  0  0  0
   -2.0477   -1.8543    1.1546 C   0  0  0  0  0  0  0  0  0  0  0  0
   -1.2227   -2.3443    1.9146 O   0  0  0  0  0  0  0  0  0  0  0  0
   -1.7517   -0.8483    0.3266 N   0  0  0  0  0  0  0  0  0  0  0  0
   -2.4847   -0.5123   -0.2804 H   0  0  0  0  0  0  0  0  0  0  0  0
   -0.4117   -0.2463    0.2186 C   0  0  1  0  0  0  0  0  0  0  0  0
    0.1554   -0.5152    1.1133 H   0  0  0  0  0  0  0  0  0  0  0  0
    0.3164   -0.8780   -0.9905 C   0  0  0  0  0  0  0  0  0  0  0  0
    1.2066   -1.3983   -0.6280 H   0  0  0  0  0  0  0  0  0  0  0  0
   -0.3332   -1.6308   -1.4422 H   0  0  0  0  0  0  0  0  0  0  0  0
    0.7309    0.0961   -2.0729 C   0  0  0  0  0  0  0  0  0  0  0  0
    1.3376    1.3184   -1.8573 N   0  3  0  0  0  0  0  0  0  0  0  0
    1.6236    1.6519   -0.9323 H   0  0  0  0  0  0  0  0  0  0  0  0
    1.5547    1.9025   -3.0525 C   0  0  0  0  0  0  0  0  0  0  0  0
    2.0307    2.8693   -3.2033 H   0  0  0  0  0  0  0  0  0  0  0  0
    1.0978    1.0779   -4.0218 N   0  0  0  0  0  0  0  0  0  0  0  0
    1.1312    1.2564   -5.0221 H   0  0  0  0  0  0  0  0  0  0  0  0
    0.5769   -0.0613   -3.4238 C   0  0  0  0  0  0  0  0  0  0  0  0
    0.1318   -0.9179   -3.9223 H   0  0  0  0  0  0  0  0  0  0  0  0
   -0.4874    1.2908    0.1962 C   0  0  0  0  0  0  0  0  0  0  0  0
   -1.3116    1.8673   -0.5151 O   0  0  0  0  0  0  0  0  0  0  0  0
    0.3889    1.9422    0.9708 N   0  0  0  0  0  0  0  0  0  0  0  0
    1.0197    1.3866    1.5283 H   0  0  0  0  0  0  0  0  0  0  0  0
    0.5081    3.3999    1.0720 C   0  0  0  0  0  0  0  0  0  0  0  0
    0.0188    3.7538    1.9817 H   0  0  0  0  0  0  0  0  0  0  0  0
    1.5607    3.6858    1.1098 H   0  0  0  0  0  0  0  0  0  0  0  0
    0.0459    3.8890    0.2119 H   0  0  0  0  0  0  0  0  0  0  0  0
  5  6  2  0  0  0  0
  5  7  1  0  0  0  0
  2  3  1  0  0  0  0
  2  4  1  0  0  0  0
  2  5  1  0  0  0  0
  1  2  1  0  0  0  0
 23 24  2  0  0  0  0
 23 25  1  0  0  0  0
 21 22  1  0  0  0  0
 19 20  1  0  0  0  0
 19 21  1  0  0  0  0
 17 18  1  0  0  0  0
 17 19  1  0  0  0  0
 15 16  1  0  0  0  0
 15 17  2  0  0  0  0
 14 15  1  0  0  0  0
 14 21  2  0  0  0  0
 11 12  1  0  0  0  0
 11 13  1  0  0  0  0
 11 14  1  0  0  0  0
  9 10  1  0  0  0  0
  9 11  1  0  0  0  0
  9 23  1  0  0  0  0
  7  8  1  0  0  0  0
  7  9  1  0  0  0  0
 27 28  1  0  0  0  0
 27 29  1  0  0  0  0
 27 30  1  0  0  0  0
 25 26  1  0  0  0  0
 25 27  1  0  0  0  0
M  CHG  1  15   1
M  END
$$$$
default_name
  -OEChem-02102213163D

 30 30  0     1  0  0  0  0  0999 V2000
   -3.5507   -3.2183    1.8116 H   0  0  0  0  0  0  0  0  0  0  0  0
   -3.4597   -2.3913    1.1076 C   0  0  0  0  0  0  0  0  0  0  0  0
   -4.1577   -1.6043    1.3866 H   0  0  0  0  0  0  0  0  0  0  0  0
   -3.6807   -2.7523    0.1036 H   0  0  0  0  0  0  0  0  0  0  0  0
   -2.0477   -1.8543    1.1546 C   0  0  0  0  0  0  0  0  0  0  0  0
   -1.2227   -2.3443    1.9146 O   0  0  0  0  0  0  0  0  0  0  0  0
   -1.7517   -0.8483    0.3266 N   0  0  0  0  0  0  0  0  0  0  0  0
   -2.4847   -0.5123   -0.2804 H   0  0  0  0  0  0  0  0  0  0  0  0
   -0.4117   -0.2463    0.2186 C   0  0  1  0  0  0  0  0  0  0  0  0
    0.1554   -0.5152    1.1133 H   0  0  0  0  0  0  0  0  0  0  0  0
    0.3164   -0.8780   -0.9905 C   0  0  0  0  0  0  0  0  0  0  0  0
    1.2066   -1.3983   -0.6280 H   0  0  0  0  0  0  0  0  0  0  0  0
   -0.3332   -1.6308   -1.4422 H   0  0  0  0  0  0  0  0  0  0  0  0
    0.7309    0.0961   -2.0729 C   0  0  0  0  0  0  0  0  0  0  0  0
    1.5864    1.1667   -1.8986 N   0  3  0  0  0  0  0  0  0  0  0  0
    2.0750    1.3623   -1.0201 H   0  0  0  0  0  0  0  0  0  0  0  0
    1.7172    1.8037   -3.0791 C   0  0  0  0  0  0  0  0  0  0  0  0
    2.3388    2.6791   -3.2565 H   0  0  0  0  0  0  0  0  0  0  0  0
    0.9622    1.1613   -3.9987 N   0  0  0  0  0  0  0  0  0  0  0  0
    0.8688    1.4167   -4.9782 H   0  0  0  0  0  0  0  0  0  0  0  0
    0.3358    0.0863   -3.3833 C   0  0  0  0  0  0  0  0  0  0  0  0
   -0.3387   -0.6304   -3.8437 H   0  0  0  0  0  0  0  0  0  0  0  0
   -0.4874    1.2908    0.1962 C   0  0  0  0  0  0  0  0  0  0  0  0
   -1.3116    1.8673   -0.5151 O   0  0  0  0  0  0  0  0  0  0  0  0
    0.3889    1.9422    0.9708 N   0  0  0  0  0  0  0  0  0  0  0  0
    1.0197    1.3866    1.5283 H   0  0  0  0  0  0  0  0  0  0  0  0
    0.5081    3.3999    1.0720 C   0  0  0  0  0  0  0  0  0  0  0  0
    0.0188    3.7538    1.9817 H   0  0  0  0  0  0  0  0  0  0  0  0
    1.5607    3.6858    1.1098 H   0  0  0  0  0  0  0  0  0  0  0  0
    0.0459    3.8890    0.2119 H   0  0  0  0  0  0  0  0  0  0  0  0
  5  6  2  0  0  0  0
  5  7  1  0  0  0  0
  2  3  1  0  0  0  0
  2  4  1  0  0  0  0
  2  5  1  0  0  0  0
  1  2  1  0  0  0  0
 23 24  2  0  0  0  0
 23 25  1  0  0  0  0
 21 22  1  0  0  0  0
 19 20  1  0  0  0  0
 19 21  1  0  0  0  0
 17 18  1  0  0  0  0
 17 19  1  0  0  0  0
 15 16  1  0  0  0  0
 15 17  2  0  0  0  0
 14 15  1  0  0  0  0
 14 21  2  0  0  0  0
 11 12  1  0  0  0  0
 11 13  1  0  0  0  0
 11 14  1  0  0  0  0
  9 10  1  0  0  0  0
  9 11  1  0  0  0  0
  9 23  1  0  0  0  0
  7  8  1  0  0  0  0
  7  9  1  0  0  0  0
 27 28  1  0  0  0  0
 27 29  1  0  0  0  0
 27 30  1  0  0  0  0
 25 26  1  0  0  0  0
 25 27  1  0  0  0  0
M  CHG  1  15   1
M  END
$$$$
default_name
  -OEChem-02102213163D

 30 30  0     1  0  0  0  0  0999 V2000
   -3.5507   -3.2183    1.8116 H   0  0  0  0  0  0  0  0  0  0  0  0
   -3.4597   -2.3913    1.1076 C   0  0  0  0  0  0  0  0  0  0  0  0
   -4.1577   -1.6043    1.3866 H   0  0  0  0  0  0  0  0  0  0  0  0
   -3.6807   -2.7523    0.1036 H   0  0  0  0  0  0  0  0  0  0  0  0
   -2.0477   -1.8543    1.1546 C   0  0  0  0  0  0  0  0  0  0  0  0
   -1.2227   -2.3443    1.9146 O   0  0  0  0  0  0  0  0  0  0  0  0
   -1.7517   -0.8483    0.3266 N   0  0  0  0  0  0  0  0  0  0  0  0
   -2.4847   -0.5123   -0.2804 H   0  0  0  0  0  0  0  0  0  0  0  0
   -0.4117   -0.2463    0.2186 C   0  0  1  0  0  0  0  0  0  0  0  0
    0.1554   -0.5152    1.1133 H   0  0  0  0  0  0  0  0  0  0  0  0
    0.3164   -0.8780   -0.9905 C   0  0  0  0  0  0  0  0  0  0  0  0
    1.2066   -1.3983   -0.6280 H   0  0  0  0  0  0  0  0  0  0  0  0
   -0.3332   -1.6308   -1.4422 H   0  0  0  0  0  0  0  0  0  0  0  0
    0.7309    0.0961   -2.0729 C   0  0  0  0  0  0  0  0  0  0  0  0
    1.7918    0.9771   -1.9906 N   0  3  0  0  0  0  0  0  0  0  0  0
    2.4428    1.0053   -1.2005 H   0  0  0  0  0  0  0  0  0  0  0  0
    1.8514    1.6802   -3.1389 C   0  0  0  0  0  0  0  0  0  0  0  0
    2.5923    2.4421   -3.3727 H   0  0  0  0  0  0  0  0  0  0  0  0
    0.8505    1.2652   -3.9479 N   0  0  0  0  0  0  0  0  0  0  0  0
    0.6523    1.6171   -4.8808 H   0  0  0  0  0  0  0  0  0  0  0  0
    0.1369    0.2707   -3.2936 C   0  0  0  0  0  0  0  0  0  0  0  0
   -0.7268   -0.2712   -3.6691 H   0  0  0  0  0  0  0  0  0  0  0  0
   -0.4874    1.2908    0.1962 C   0  0  0  0  0  0  0  0  0  0  0  0
   -1.3116    1.8673   -0.5151 O   0  0  0  0  0  0  0  0  0  0  0  0
    0.3889    1.9422    0.9708 N   0  0  0  0  0  0  0  0  0  0  0  0
    1.0197    1.3866    1.5283 H   0  0  0  0  0  0  0  0  0  0  0  0
    0.5081    3.3999    1.0720 C   0  0  0  0  0  0  0  0  0  0  0  0
    0.0188    3.7538    1.9817 H   0  0  0  0  0  0  0  0  0  0  0  0
    1.5607    3.6858    1.1098 H   0  0  0  0  0  0  0  0  0  0  0  0
    0.0459    3.8890    0.2119 H   0  0  0  0  0  0  0  0  0  0  0  0
  5  6  2  0  0  0  0
  5  7  1  0  0  0  0
  2  3  1  0  0  0  0
  2  4  1  0  0  0  0
  2  5  1  0  0  0  0
  1  2  1  0  0  0  0
 23 24  2  0  0  0  0
 23 25  1  0  0  0  0
 21 22  1  0  0  0  0
 19 20  1  0  0  0  0
 19 21  1  0  0  0  0
 17 18  1  0  0  0  0
 17 19  1  0  0  0  0
 15 16  1  0  0  0  0
 15 17  2  0  0  0  0
 14 15  1  0  0  0  0
 14 21  2  0  0  0  0
 11 12  1  0  0  0  0
 11 13  1  0  0  0  0
 11 14  1  0  0  0  0
  9 10  1  0  0  0  0
  9 11  1  0  0  0  0
  9 23  1  0  0  0  0
  7  8  1  0  0  0  0
  7  9  1  0  0  0  0
 27 28  1  0  0  0  0
 27 29  1  0  0  0  0
 27 30  1  0  0  0  0
 25 26  1  0  0  0  0
 25 27  1  0  0  0  0
M  CHG  1  15   1
M  END
$$$$
default_name
  -OEChem-02102213163D

 30 30  0     1  0  0  0  0  0999 V2000
   -3.5507   -3.2183    1.8116 H   0  0  0  0  0  0  0  0  0  0  0  0
   -3.4597   -2.3913    1.1076 C   0  0  0  0  0  0  0  0  0  0  0  0
   -4.1577   -1.6043    1.3866 H   0  0  0  0  0  0  0  0  0  0  0  0
   -3.6807   -2.7523    0.1036 H   0  0  0  0  0  0  0  0  0  0  0  0
   -2.0477   -1.8543    1.1546 C   0  0  0  0  0  0  0  0  0  0  0  0
   -1.2227   -2.3443    1.9146 O   0  0  0  0  0  0  0  0  0  0  0  0
   -1.7517   -0.8483    0.3266 N   0  0  0  0  0  0  0  0  0  0  0  0
   -2.4847   -0.5123   -0.2804 H   0  0  0  0  0  0  0  0  0  0  0  0
   -0.4117   -0.2463    0.2186 C   0  0  1  0  0  0  0  0  0  0  0  0
    0.1554   -0.5152    1.1133 H   0  0  0  0  0  0  0  0  0  0  0  0
    0.3164   -0.8780   -0.9905 C   0  0  0  0  0  0  0  0  0  0  0  0
    1.2066   -1.3983   -0.6280 H   0  0  0  0  0  0  0  0  0  0  0  0
   -0.3332   -1.6308   -1.4422 H   0  0  0  0  0  0  0  0  0  0  0  0
    0.7309    0.0961   -2.0729 C   0  0  0  0  0  0  0  0  0  0  0  0
    1.9398    0.7624   -2.1271 N   0  3  0  0  0  0  0  0  0  0  0  0
    2.7020    0.6052   -1.4614 H   0  0  0  0  0  0  0  0  0  0  0  0
    1.9483    1.5402   -3.2278 C   0  0  0  0  0  0  0  0  0  0  0  0
    2.7740    2.1745   -3.5440 H   0  0  0  0  0  0  0  0  0  0  0  0
    0.7703    1.3827   -3.8729 N   0  0  0  0  0  0  0  0  0  0  0  0
    0.4964    1.8438   -4.7365 H   0  0  0  0  0  0  0  0  0  0  0  0
   -0.0062    0.4792   -3.1608 C   0  0  0  0  0  0  0  0  0  0  0  0
   -1.0062    0.1353   -3.4103 H   0  0  0  0  0  0  0  0  0  0  0  0
   -0.4874    1.2908    0.1962 C   0  0  0  0  0  0  0  0  0  0  0  0
   -1.3116    1.8673   -0.5151 O   0  0  0  0  0  0  0  0  0  0  0  0
    0.3889    1.9422    0.9708 N   0  0  0  0  0  0  0  0  0  0  0  0
    1.0197    1.3866    1.5283 H   0  0  0  0  0  0  0  0  0  0  0  0
    0.5081    3.3999    1.0720 C   0  0  0  0  0  0  0  0  0  0  0  0
    0.0188    3.7538    1.9817 H   0  0  0  0  0  0  0  0  0  0  0  0
    1.5607    3.6858    1.1098 H   0  0  0  0  0  0  0  0  0  0  0  0
    0.0459    3.8890    0.2119 H   0  0  0  0  0  0  0  0  0  0  0  0
  5  6  2  0  0  0  0
  5  7  1  0  0  0  0
  2  3  1  0  0  0  0
  2  4  1  0  0  0  0
  2  5  1  0  0  0  0
  1  2  1  0  0  0  0
 23 24  2  0  0  0  0
 23 25  1  0  0  0  0
 21 22  1  0  0  0  0
 19 20  1  0  0  0  0
 19 21  1  0  0  0  0
 17 18  1  0  0  0  0
 17 19  1  0  0  0  0
 15 16  1  0  0  0  0
 15 17  2  0  0  0  0
 14 15  1  0  0  0  0
 14 21  2  0  0  0  0
 11 12  1  0  0  0  0
 11 13  1  0  0  0  0
 11 14  1  0  0  0  0
  9 10  1  0  0  0  0
  9 11  1  0  0  0  0
  9 23  1  0  0  0  0
  7  8  1  0  0  0  0
  7  9  1  0  0  0  0
 27 28  1  0  0  0  0
 27 29  1  0  0  0  0
 27 30  1  0  0  0  0
 25 26  1  0  0  0  0
 25 27  1  0  0  0  0
M  CHG  1  15   1
M  END
$$$$
default_name
  -OEChem-02102213163D

 30 30  0     1  0  0  0  0  0999 V2000
   -3.5507   -3.2183    1.8116 H   0  0  0  0  0  0  0  0  0  0  0  0
   -3.4597   -2.3913    1.1076 C   0  0  0  0  0  0  0  0  0  0  0  0
   -4.1577   -1.6043    1.3866 H   0  0  0  0  0  0  0  0  0  0  0  0
   -3.6807   -2.7523    0.1036 H   0  0  0  0  0  0  0  0  0  0  0  0
   -2.0477   -1.8543    1.1546 C   0  0  0  0  0  0  0  0  0  0  0  0
   -1.2227   -2.3443    1.9146 O   0  0  0  0  0  0  0  0  0  0  0  0
   -1.7517   -0.8483    0.3266 N   0  0  0  0  0  0  0  0  0  0  0  0
   -2.4847   -0.5123   -0.2804 H   0  0  0  0  0  0  0  0  0  0  0  0
   -0.4117   -0.2463    0.2186 C   0  0  1  0  0  0  0  0  0  0  0  0
    0.1554   -0.5152    1.1133 H   0  0  0  0  0  0  0  0  0  0  0  0
    0.3164   -0.8780   -0.9905 C   0  0  0  0  0  0  0  0  0  0  0  0
    1.2066   -1.3983   -0.6280 H   0  0  0  0  0  0  0  0  0  0  0  0
   -0.3332   -1.6308   -1.4422 H   0  0  0  0  0  0  0  0  0  0  0  0
    0.7309    0.0961   -2.0729 C   0  0  0  0  0  0  0  0  0  0  0  0
    2.0204    0.5374   -2.2988 N   0  3  0  0  0  0  0  0  0  0  0  0
    2.8349    0.1892   -1.7849 H   0  0  0  0  0  0  0  0  0  0  0  0
    2.0012    1.3933   -3.3398 C   0  0  0  0  0  0  0  0  0  0  0  0
    2.8714    1.8945   -3.7587 H   0  0  0  0  0  0  0  0  0  0  0  0
    0.7271    1.5057   -3.7787 N   0  0  0  0  0  0  0  0  0  0  0  0
    0.4119    2.0813   -4.5551 H   0  0  0  0  0  0  0  0  0  0  0  0
   -0.0837    0.6976   -2.9938 C   0  0  0  0  0  0  0  0  0  0  0  0
   -1.1578    0.5612   -3.0850 H   0  0  0  0  0  0  0  0  0  0  0  0
   -0.4874    1.2908    0.1962 C   0  0  0  0  0  0  0  0  0  0  0  0
   -1.3116    1.8673   -0.5151 O   0  0  0  0  0  0  0  0  0  0  0  0
    0.3889    1.9422    0.9708 N   0  0  0  0  0  0  0  0  0  0  0  0
    1.0197    1.3866    1.5283 H   0  0  0  0  0  0  0  0  0  0  0  0
    0.5081    3.3999    1.0720 C   0  0  0  0  0  0  0  0  0  0  0  0
    0.0188    3.7538    1.9817 H   0  0  0  0  0  0  0  0  0  0  0  0
    1.5607    3.6858    1.1098 H   0  0  0  0  0  0  0  0  0  0  0  0
    0.0459    3.8890    0.2119 H   0  0  0  0  0  0  0  0  0  0  0  0
  5  6  2  0  0  0  0
  5  7  1  0  0  0  0
  2  3  1  0  0  0  0
  2  4  1  0  0  0  0
  2  5  1  0  0  0  0
  1  2  1  0  0  0  0
 23 24  2  0  0  0  0
 23 25  1  0  0  0  0
 21 22  1  0  0  0  0
 19 20  1  0  0  0  0
 19 21  1  0  0  0  0
 17 18  1  0  0  0  0
 17 19  1  0  0  0  0
 15 16  1  0  0  0  0
 15 17  2  0  0  0  0
 14 15  1  0  0  0  0
 14 21  2  0  0  0  0
 11 12  1  0  0  0  0
 11 13  1  0  0  0  0
 11 14  1  0  0  0  0
  9 10  1  0  0  0  0
  9 11  1  0  0  0  0
  9 23  1  0  0  0  0
  7  8  1  0  0  0  0
  7  9  1  0  0  0  0
 27 28  1  0  0  0  0
 27 29  1  0  0  0  0
 27 30  1  0  0  0  0
 25 26  1  0  0  0  0
 25 27  1  0  0  0  0
M  CHG  1  15   1
M  END
$$$$
default_name
  -OEChem-02102213163D

 30 30  0     1  0  0  0  0  0999 V2000
   -3.5507   -3.2183    1.8116 H   0  0  0  0  0  0  0  0  0  0  0  0
   -3.4597   -2.3913    1.1076 C   0  0  0  0  0  0  0  0  0  0  0  0
   -4.1577   -1.6043    1.3866 H   0  0  0  0  0  0  0  0  0  0  0  0
   -3.6807   -2.7523    0.1036 H   0  0  0  0  0  0  0  0  0  0  0  0
   -2.0477   -1.8543    1.1546 C   0  0  0  0  0  0  0  0  0  0  0  0
   -1.2227   -2.3443    1.9146 O   0  0  0  0  0  0  0  0  0  0  0  0
   -1.7517   -0.8483    0.3266 N   0  0  0  0  0  0  0  0  0  0  0  0
   -2.4847   -0.5123   -0.2804 H   0  0  0  0  0  0  0  0  0  0  0  0
   -0.4117   -0.2463    0.2186 C   0  0  1  0  0  0  0  0  0  0  0  0
    0.1554   -0.5152    1.1133 H   0  0  0  0  0  0  0  0  0  0  0  0
    0.3164   -0.8780   -0.9905 C   0  0  0  0  0  0  0  0  0  0  0  0
    1.2066   -1.3983   -0.6280 H   0  0  0  0  0  0  0  0  0  0  0  0
   -0.3332   -1.6308   -1.4422 H   0  0  0  0  0  0  0  0  0  0  0  0
    0.7309    0.0961   -2.0729 C   0  0  0  0  0  0  0  0  0  0  0  0
    2.0279    0.3173   -2.4940 N   0  3  0  0  0  0  0  0  0  0  0  0
    2.8324   -0.2142   -2.1490 H   0  0  0  0  0  0  0  0  0  0  0  0
    2.0064    1.2496   -3.4671 C   0  0  0  0  0  0  0  0  0  0  0  0
    2.8780    1.6213   -4.0021 H   0  0  0  0  0  0  0  0  0  0  0  0
    0.7238    1.6259   -3.6718 N   0  0  0  0  0  0  0  0  0  0  0  0
    0.4043    2.3136   -4.3489 H   0  0  0  0  0  0  0  0  0  0  0  0
   -0.0904    0.9111   -2.8042 C   0  0  0  0  0  0  0  0  0  0  0  0
   -1.1712    0.9776   -2.7153 H   0  0  0  0  0  0  0  0  0  0  0  0
   -0.4874    1.2908    0.1962 C   0  0  0  0  0  0  0  0  0  0  0  0
   -1.3116    1.8673   -0.5151 O   0  0  0  0  0  0  0  0  0  0  0  0
    0.3889    1.9422    0.9708 N   0  0  0  0  0  0  0  0  0  0  0  0
    1.0197    1.3866    1.5283 H   0  0  0  0  0  0  0  0  0  0  0  0
    0.5081    3.3999    1.0720 C   0  0  0  0  0  0  0  0  0  0  0  0
    0.0188    3.7538    1.9817 H   0  0  0  0  0  0  0  0  0  0  0  0
    1.5607    3.6858    1.1098 H   0  0  0  0  0  0  0  0  0  0  0  0
    0.0459    3.8890    0.2119 H   0  0  0  0  0  0  0  0  0  0  0  0
  5  6  2  0  0  0  0
  5  7  1  0  0  0  0
  2  3  1  0  0  0  0
  2  4  1  0  0  0  0
  2  5  1  0  0  0  0
  1  2  1  0  0  0  0
 23 24  2  0  0  0  0
 23 25  1  0  0  0  0
 21 22  1  0  0  0  0
 19 20  1  0  0  0  0
 19 21  1  0  0  0  0
 17 18  1  0  0  0  0
 17 19  1  0  0  0  0
 15 16  1  0  0  0  0
 15 17  2  0  0  0  0
 14 15  1  0  0  0  0
 14 21  2  0  0  0  0
 11 12  1  0  0  0  0
 11 13  1  0  0  0  0
 11 14  1  0  0  0  0
  9 10  1  0  0  0  0
  9 11  1  0  0  0  0
  9 23  1  0  0  0  0
  7  8  1  0  0  0  0
  7  9  1  0  0  0  0
 27 28  1  0  0  0  0
 27 29  1  0  0  0  0
 27 30  1  0  0  0  0
 25 26  1  0  0  0  0
 25 27  1  0  0  0  0
M  CHG  1  15   1
M  END
$$$$
default_name
  -OEChem-02102213163D

 30 30  0     1  0  0  0  0  0999 V2000
   -3.5507   -3.2183    1.8116 H   0  0  0  0  0  0  0  0  0  0  0  0
   -3.4597   -2.3913    1.1076 C   0  0  0  0  0  0  0  0  0  0  0  0
   -4.1577   -1.6043    1.3866 H   0  0  0  0  0  0  0  0  0  0  0  0
   -3.6807   -2.7523    0.1036 H   0  0  0  0  0  0  0  0  0  0  0  0
   -2.0477   -1.8543    1.1546 C   0  0  0  0  0  0  0  0  0  0  0  0
   -1.2227   -2.3443    1.9146 O   0  0  0  0  0  0  0  0  0  0  0  0
   -1.7517   -0.8483    0.3266 N   0  0  0  0  0  0  0  0  0  0  0  0
   -2.4847   -0.5123   -0.2804 H   0  0  0  0  0  0  0  0  0  0  0  0
   -0.4117   -0.2463    0.2186 C   0  0  1  0  0  0  0  0  0  0  0  0
    0.1554   -0.5152    1.1133 H   0  0  0  0  0  0  0  0  0  0  0  0
    0.3164   -0.8780   -0.9905 C   0  0  0  0  0  0  0  0  0  0  0  0
    1.2066   -1.3983   -0.6280 H   0  0  0  0  0  0  0  0  0  0  0  0
   -0.3332   -1.6308   -1.4422 H   0  0  0  0  0  0  0  0  0  0  0  0
    0.7309    0.0961   -2.0729 C   0  0  0  0  0  0  0  0  0  0  0  0
    1.9619    0.1171   -2.6994 N   0  3  0  0  0  0  0  0  0  0  0  0
    2.6947   -0.5777   -2.5288 H   0  0  0  0  0  0  0  0  0  0  0  0
    1.9637    1.1189   -3.6011 C   0  0  0  0  0  0  0  0  0  0  0  0
    2.7933    1.3734   -4.2576 H   0  0  0  0  0  0  0  0  0  0  0  0
    0.7607    1.7349   -3.5596 N   0  0  0  0  0  0  0  0  0  0  0  0
    0.4744    2.5247   -4.1321 H   0  0  0  0  0  0  0  0  0  0  0  0
   -0.0257    1.1052   -2.6048 C   0  0  0  0  0  0  0  0  0  0  0  0
   -1.0455    1.3561   -2.3266 H   0  0  0  0  0  0  0  0  0  0  0  0
   -0.4874    1.2908    0.1962 C   0  0  0  0  0  0  0  0  0  0  0  0
   -1.3116    1.8673   -0.5151 O   0  0  0  0  0  0  0  0  0  0  0  0
    0.3889    1.9422    0.9708 N   0  0  0  0  0  0  0  0  0  0  0  0
    1.0197    1.3866    1.5283 H   0  0  0  0  0  0  0  0  0  0  0  0
    0.5081    3.3999    1.0720 C   0  0  0  0  0  0  0  0  0  0  0  0
    0.0188    3.7538    1.9817 H   0  0  0  0  0  0  0  0  0  0  0  0
    1.5607    3.6858    1.1098 H   0  0  0  0  0  0  0  0  0  0  0  0
    0.0459    3.8890    0.2119 H   0  0  0  0  0  0  0  0  0  0  0  0
  5  6  2  0  0  0  0
  5  7  1  0  0  0  0
  2  3  1  0  0  0  0
  2  4  1  0  0  0  0
  2  5  1  0  0  0  0
  1  2  1  0  0  0  0
 23 24  2  0  0  0  0
 23 25  1  0  0  0  0
 21 22  1  0  0  0  0
 19 20  1  0  0  0  0
 19 21  1  0  0  0  0
 17 18  1  0  0  0  0
 17 19  1  0  0  0  0
 15 16  1  0  0  0  0
 15 17  2  0  0  0  0
 14 15  1  0  0  0  0
 14 21  2  0  0  0  0
 11 12  1  0  0  0  0
 11 13  1  0  0  0  0
 11 14  1  0  0  0  0
  9 10  1  0  0  0  0
  9 11  1  0  0  0  0
  9 23  1  0  0  0  0
  7  8  1  0  0  0  0
  7  9  1  0  0  0  0
 27 28  1  0  0  0  0
 27 29  1  0  0  0  0
 27 30  1  0  0  0  0
 25 26  1  0  0  0  0
 25 27  1  0  0  0  0
M  CHG  1  15   1
M  END
$$$$
default_name
  -OEChem-02102213163D

 30 30  0     1  0  0  0  0  0999 V2000
   -3.5507   -3.2183    1.8116 H   0  0  0  0  0  0  0  0  0  0  0  0
   -3.4597   -2.3913    1.1076 C   0  0  0  0  0  0  0  0  0  0  0  0
   -4.1577   -1.6043    1.3866 H   0  0  0  0  0  0  0  0  0  0  0  0
   -3.6807   -2.7523    0.1036 H   0  0  0  0  0  0  0  0  0  0  0  0
   -2.0477   -1.8543    1.1546 C   0  0  0  0  0  0  0  0  0  0  0  0
   -1.2227   -2.3443    1.9146 O   0  0  0  0  0  0  0  0  0  0  0  0
   -1.7517   -0.8483    0.3266 N   0  0  0  0  0  0  0  0  0  0  0  0
   -2.4847   -0.5123   -0.2804 H   0  0  0  0  0  0  0  0  0  0  0  0
   -0.4117   -0.2463    0.2186 C   0  0  1  0  0  0  0  0  0  0  0  0
    0.1554   -0.5152    1.1133 H   0  0  0  0  0  0  0  0  0  0  0  0
    0.3164   -0.8780   -0.9905 C   0  0  0  0  0  0  0  0  0  0  0  0
    1.2066   -1.3983   -0.6280 H   0  0  0  0  0  0  0  0  0  0  0  0
   -0.3332   -1.6308   -1.4422 H   0  0  0  0  0  0  0  0  0  0  0  0
    0.7309    0.0961   -2.0729 C   0  0  0  0  0  0  0  0  0  0  0  0
    1.8270   -0.0495   -2.9010 N   0  3  0  0  0  0  0  0  0  0  0  0
    2.4312   -0.8763   -2.8985 H   0  0  0  0  0  0  0  0  0  0  0  0
    1.8759    1.0100   -3.7327 C   0  0  0  0  0  0  0  0  0  0  0  0
    2.6230    1.1677   -4.5079 H   0  0  0  0  0  0  0  0  0  0  0  0
    0.8351    1.8255   -3.4495 N   0  0  0  0  0  0  0  0  0  0  0  0
    0.6172    2.7003   -3.9193 H   0  0  0  0  0  0  0  0  0  0  0  0
    0.1059    1.2665   -2.4092 C   0  0  0  0  0  0  0  0  0  0  0  0
   -0.7894    1.6709   -1.9451 H   0  0  0  0  0  0  0  0  0  0  0  0
   -0.4874    1.2908    0.1962 C   0  0  0  0  0  0  0  0  0  0  0  0
   -1.3116    1.8673   -0.5151 O   0  0  0  0  0  0  0  0  0  0  0  0
    0.3889    1.9422    0.9708 N   0  0  0  0  0  0  0  0  0  0  0  0
    1.0197    1.3866    1.5283 H   0  0  0  0  0  0  0  0  0  0  0  0
    0.5081    3.3999    1.0720 C   0  0  0  0  0  0  0  0  0  0  0  0
    0.0188    3.7538    1.9817 H   0  0  0  0  0  0  0  0  0  0  0  0
    1.5607    3.6858    1.1098 H   0  0  0  0  0  0  0  0  0  0  0  0
    0.0459    3.8890    0.2119 H   0  0  0  0  0  0  0  0  0  0  0  0
  5  6  2  0  0  0  0
  5  7  1  0  0  0  0
  2  3  1  0  0  0  0
  2  4  1  0  0  0  0
  2  5  1  0  0  0  0
  1  2  1  0  0  0  0
 23 24  2  0  0  0  0
 23 25  1  0  0  0  0
 21 22  1  0  0  0  0
 19 20  1  0  0  0  0
 19 21  1  0  0  0  0
 17 18  1  0  0  0  0
 17 19  1  0  0  0  0
 15 16  1  0  0  0  0
 15 17  2  0  0  0  0
 14 15  1  0  0  0  0
 14 21  2  0  0  0  0
 11 12  1  0  0  0  0
 11 13  1  0  0  0  0
 11 14  1  0  0  0  0
  9 10  1  0  0  0  0
  9 11  1  0  0  0  0
  9 23  1  0  0  0  0
  7  8  1  0  0  0  0
  7  9  1  0  0  0  0
 27 28  1  0  0  0  0
 27 29  1  0  0  0  0
 27 30  1  0  0  0  0
 25 26  1  0  0  0  0
 25 27  1  0  0  0  0
M  CHG  1  15   1
M  END
$$$$
default_name
  -OEChem-02102213163D

 30 30  0     1  0  0  0  0  0999 V2000
   -3.5507   -3.2183    1.8116 H   0  0  0  0  0  0  0  0  0  0  0  0
   -3.4597   -2.3913    1.1076 C   0  0  0  0  0  0  0  0  0  0  0  0
   -4.1577   -1.6043    1.3866 H   0  0  0  0  0  0  0  0  0  0  0  0
   -3.6807   -2.7523    0.1036 H   0  0  0  0  0  0  0  0  0  0  0  0
   -2.0477   -1.8543    1.1546 C   0  0  0  0  0  0  0  0  0  0  0  0
   -1.2227   -2.3443    1.9146 O   0  0  0  0  0  0  0  0  0  0  0  0
   -1.7517   -0.8483    0.3266 N   0  0  0  0  0  0  0  0  0  0  0  0
   -2.4847   -0.5123   -0.2804 H   0  0  0  0  0  0  0  0  0  0  0  0
   -0.4117   -0.2463    0.2186 C   0  0  1  0  0  0  0  0  0  0  0  0
    0.1554   -0.5152    1.1133 H   0  0  0  0  0  0  0  0  0  0  0  0
    0.3164   -0.8780   -0.9905 C   0  0  0  0  0  0  0  0  0  0  0  0
    1.2066   -1.3983   -0.6280 H   0  0  0  0  0  0  0  0  0  0  0  0
   -0.3332   -1.6308   -1.4422 H   0  0  0  0  0  0  0  0  0  0  0  0
    0.7309    0.0961   -2.0729 C   0  0  0  0  0  0  0  0  0  0  0  0
    1.6322   -0.1712   -3.0851 N   0  3  0  0  0  0  0  0  0  0  0  0
    2.0598   -1.0899   -3.2329 H   0  0  0  0  0  0  0  0  0  0  0  0
    1.7490    0.9304   -3.8529 C   0  0  0  0  0  0  0  0  0  0  0  0
    2.3788    1.0183   -4.7360 H   0  0  0  0  0  0  0  0  0  0  0  0
    0.9422    1.8915   -3.3492 N   0  0  0  0  0  0  0  0  0  0  0  0
    0.8231    2.8285   -3.7252 H   0  0  0  0  0  0  0  0  0  0  0  0
    0.2954    1.3841   -2.2308 C   0  0  0  0  0  0  0  0  0  0  0  0
   -0.4202    1.9006   -1.5970 H   0  0  0  0  0  0  0  0  0  0  0  0
   -0.4874    1.2908    0.1962 C   0  0  0  0  0  0  0  0  0  0  0  0
   -1.3116    1.8673   -0.5151 O   0  0  0  0  0  0  0  0  0  0  0  0
    0.3889    1.9422    0.9708 N   0  0  0  0  0  0  0  0  0  0  0  0
    1.0197    1.3866    1.5283 H   0  0  0  0  0  0  0  0  0  0  0  0
    0.5081    3.3999    1.0720 C   0  0  0  0  0  0  0  0  0  0  0  0
    0.0188    3.7538    1.9817 H   0  0  0  0  0  0  0  0  0  0  0  0
    1.5607    3.6858    1.1098 H   0  0  0  0  0  0  0  0  0  0  0  0
    0.0459    3.8890    0.2119 H   0  0  0  0  0  0  0  0  0  0  0  0
  5  6  2  0  0  0  0
  5  7  1  0  0  0  0
  2  3  1  0  0  0  0
  2  4  1  0  0  0  0
  2  5  1  0  0  0  0
  1  2  1  0  0  0  0
 23 24  2  0  0  0  0
 23 25  1  0  0  0  0
 21 22  1  0  0  0  0
 19 20  1  0  0  0  0
 19 21  1  0  0  0  0
 17 18  1  0  0  0  0
 17 19  1  0  0  0  0
 15 16  1  0  0  0  0
 15 17  2  0  0  0  0
 14 15  1  0  0  0  0
 14 21  2  0  0  0  0
 11 12  1  0  0  0  0
 11 13  1  0  0  0  0
 11 14  1  0  0  0  0
  9 10  1  0  0  0  0
  9 11  1  0  0  0  0
  9 23  1  0  0  0  0
  7  8  1  0  0  0  0
  7  9  1  0  0  0  0
 27 28  1  0  0  0  0
 27 29  1  0  0  0  0
 27 30  1  0  0  0  0
 25 26  1  0  0  0  0
 25 27  1  0  0  0  0
M  CHG  1  15   1
M  END
$$$$
default_name
  -OEChem-02102213163D

 30 30  0     1  0  0  0  0  0999 V2000
   -3.5507   -3.2183    1.8116 H   0  0  0  0  0  0  0  0  0  0  0  0
   -3.4597   -2.3913    1.1076 C   0  0  0  0  0  0  0  0  0  0  0  0
   -4.1577   -1.6043    1.3866 H   0  0  0  0  0  0  0  0  0  0  0  0
   -3.6807   -2.7523    0.1036 H   0  0  0  0  0  0  0  0  0  0  0  0
   -2.0477   -1.8543    1.1546 C   0  0  0  0  0  0  0  0  0  0  0  0
   -1.2227   -2.3443    1.9146 O   0  0  0  0  0  0  0  0  0  0  0  0
   -1.7517   -0.8483    0.3266 N   0  0  0  0  0  0  0  0  0  0  0  0
   -2.4847   -0.5123   -0.2804 H   0  0  0  0  0  0  0  0  0  0  0  0
   -0.4117   -0.2463    0.2186 C   0  0  1  0  0  0  0  0  0  0  0  0
    0.1554   -0.5152    1.1133 H   0  0  0  0  0  0  0  0  0  0  0  0
    0.3164   -0.8780   -0.9905 C   0  0  0  0  0  0  0  0  0  0  0  0
    1.0382   -1.6097   -0.6189 H   0  0  0  0  0  0  0  0  0  0  0  0
   -0.4100   -1.4236   -1.5967 H   0  0  0  0  0  0  0  0  0  0  0  0
    1.0387    0.1020   -1.8906 C   0  0  0  0  0  0  0  0  0  0  0  0
    1.7534   -0.2327   -3.0245 N   0  3  0  0  0  0  0  0  0  0  0  0
    1.8059   -1.1844   -3.3989 H   0  0  0  0  0  0  0  0  0  0  0  0
    2.2538    0.8978   -3.5614 C   0  0  0  0  0  0  0  0  0  0  0  0
    2.8512    0.9526   -4.4692 H   0  0  0  0  0  0  0  0  0  0  0  0
    1.8729    1.9426   -2.7922 N   0  0  0  0  0  0  0  0  0  0  0  0
    2.1020    2.9194   -2.9562 H   0  0  0  0  0  0  0  0  0  0  0  0
    1.1092    1.4604   -1.7383 C   0  0  0  0  0  0  0  0  0  0  0  0
    0.6509    2.0403   -0.9420 H   0  0  0  0  0  0  0  0  0  0  0  0
   -0.4874    1.2908    0.1962 C   0  0  0  0  0  0  0  0  0  0  0  0
   -1.3116    1.8673   -0.5151 O   0  0  0  0  0  0  0  0  0  0  0  0
    0.3889    1.9422    0.9708 N   0  0  0  0  0  0  0  0  0  0  0  0
    1.0197    1.3866    1.5283 H   0  0  0  0  0  0  0  0  0  0  0  0
    0.5081    3.3999    1.0720 C   0  0  0  0  0  0  0  0  0  0  0  0
    0.0188    3.7538    1.9817 H   0  0  0  0  0  0  0  0  0  0  0  0
    1.5607    3.6858    1.1098 H   0  0  0  0  0  0  0  0  0  0  0  0
    0.0459    3.8890    0.2119 H   0  0  0  0  0  0  0  0  0  0  0  0
  5  6  2  0  0  0  0
  5  7  1  0  0  0  0
  2  3  1  0  0  0  0
  2  4  1  0  0  0  0
  2  5  1  0  0  0  0
  1  2  1  0  0  0  0
 23 24  2  0  0  0  0
 23 25  1  0  0  0  0
 21 22  1  0  0  0  0
 19 20  1  0  0  0  0
 19 21  1  0  0  0  0
 17 18  1  0  0  0  0
 17 19  1  0  0  0  0
 15 16  1  0  0  0  0
 15 17  2  0  0  0  0
 14 15  1  0  0  0  0
 14 21  2  0  0  0  0
 11 12  1  0  0  0  0
 11 13  1  0  0  0  0
 11 14  1  0  0  0  0
  9 10  1  0  0  0  0
  9 11  1  0  0  0  0
  9 23  1  0  0  0  0
  7  8  1  0  0  0  0
  7  9  1  0  0  0  0
 27 28  1  0  0  0  0
 27 29  1  0  0  0  0
 27 30  1  0  0  0  0
 25 26  1  0  0  0  0
 25 27  1  0  0  0  0
M  CHG  1  15   1
M  END
$$$$
default_name
  -OEChem-02102213163D

 30 30  0     1  0  0  0  0  0999 V2000
   -3.5507   -3.2183    1.8116 H   0  0  0  0  0  0  0  0  0  0  0  0
   -3.4597   -2.3913    1.1076 C   0  0  0  0  0  0  0  0  0  0  0  0
   -4.1577   -1.6043    1.3866 H   0  0  0  0  0  0  0  0  0  0  0  0
   -3.6807   -2.7523    0.1036 H   0  0  0  0  0  0  0  0  0  0  0  0
   -2.0477   -1.8543    1.1546 C   0  0  0  0  0  0  0  0  0  0  0  0
   -1.2227   -2.3443    1.9146 O   0  0  0  0  0  0  0  0  0  0  0  0
   -1.7517   -0.8483    0.3266 N   0  0  0  0  0  0  0  0  0  0  0  0
   -2.4847   -0.5123   -0.2804 H   0  0  0  0  0  0  0  0  0  0  0  0
   -0.4117   -0.2463    0.2186 C   0  0  1  0  0  0  0  0  0  0  0  0
    0.1554   -0.5152    1.1133 H   0  0  0  0  0  0  0  0  0  0  0  0
    0.3164   -0.8780   -0.9905 C   0  0  0  0  0  0  0  0  0  0  0  0
    1.0382   -1.6097   -0.6189 H   0  0  0  0  0  0  0  0  0  0  0  0
   -0.4100   -1.4236   -1.5967 H   0  0  0  0  0  0  0  0  0  0  0  0
    1.0387    0.1020   -1.8906 C   0  0  0  0  0  0  0  0  0  0  0  0
    1.5006   -0.1737   -3.1631 N   0  3  0  0  0  0  0  0  0  0  0  0
    1.3361   -1.0629   -3.6436 H   0  0  0  0  0  0  0  0  0  0  0  0
    2.0888    0.9361   -3.6521 C   0  0  0  0  0  0  0  0  0  0  0  0
    2.5363    1.0282   -4.6397 H   0  0  0  0  0  0  0  0  0  0  0  0
    2.0112    1.9097   -2.7170 N   0  0  0  0  0  0  0  0  0  0  0  0
    2.3690    2.8568   -2.8102 H   0  0  0  0  0  0  0  0  0  0  0  0
    1.3547    1.4026   -1.6042 C   0  0  0  0  0  0  0  0  0  0  0  0
    1.1295    1.9280   -0.6802 H   0  0  0  0  0  0  0  0  0  0  0  0
   -0.4874    1.2908    0.1962 C   0  0  0  0  0  0  0  0  0  0  0  0
   -1.3116    1.8673   -0.5151 O   0  0  0  0  0  0  0  0  0  0  0  0
    0.3889    1.9422    0.9708 N   0  0  0  0  0  0  0  0  0  0  0  0
    1.0197    1.3866    1.5283 H   0  0  0  0  0  0  0  0  0  0  0  0
    0.5081    3.3999    1.0720 C   0  0  0  0  0  0  0  0  0  0  0  0
    0.0188    3.7538    1.9817 H   0  0  0  0  0  0  0  0  0  0  0  0
    1.5607    3.6858    1.1098 H   0  0  0  0  0  0  0  0  0  0  0  0
    0.0459    3.8890    0.2119 H   0  0  0  0  0  0  0  0  0  0  0  0
  5  6  2  0  0  0  0
  5  7  1  0  0  0  0
  2  3  1  0  0  0  0
  2  4  1  0  0  0  0
  2  5  1  0  0  0  0
  1  2  1  0  0  0  0
 23 24  2  0  0  0  0
 23 25  1  0  0  0  0
 21 22  1  0  0  0  0
 19 20  1  0  0  0  0
 19 21  1  0  0  0  0
 17 18  1  0  0  0  0
 17 19  1  0  0  0  0
 15 16  1  0  0  0  0
 15 17  2  0  0  0  0
 14 15  1  0  0  0  0
 14 21  2  0  0  0  0
 11 12  1  0  0  0  0
 11 13  1  0  0  0  0
 11 14  1  0  0  0  0
  9 10  1  0  0  0  0
  9 11  1  0  0  0  0
  9 23  1  0  0  0  0
  7  8  1  0  0  0  0
  7  9  1  0  0  0  0
 27 28  1  0  0  0  0
 27 29  1  0  0  0  0
 27 30  1  0  0  0  0
 25 26  1  0  0  0  0
 25 27  1  0  0  0  0
M  CHG  1  15   1
M  END
$$$$
default_name
  -OEChem-02102213163D

 30 30  0     1  0  0  0  0  0999 V2000
   -3.5507   -3.2183    1.8116 H   0  0  0  0  0  0  0  0  0  0  0  0
   -3.4597   -2.3913    1.1076 C   0  0  0  0  0  0  0  0  0  0  0  0
   -4.1577   -1.6043    1.3866 H   0  0  0  0  0  0  0  0  0  0  0  0
   -3.6807   -2.7523    0.1036 H   0  0  0  0  0  0  0  0  0  0  0  0
   -2.0477   -1.8543    1.1546 C   0  0  0  0  0  0  0  0  0  0  0  0
   -1.2227   -2.3443    1.9146 O   0  0  0  0  0  0  0  0  0  0  0  0
   -1.7517   -0.8483    0.3266 N   0  0  0  0  0  0  0  0  0  0  0  0
   -2.4847   -0.5123   -0.2804 H   0  0  0  0  0  0  0  0  0  0  0  0
   -0.4117   -0.2463    0.2186 C   0  0  1  0  0  0  0  0  0  0  0  0
    0.1554   -0.5152    1.1133 H   0  0  0  0  0  0  0  0  0  0  0  0
    0.3164   -0.8780   -0.9905 C   0  0  0  0  0  0  0  0  0  0  0  0
    1.0382   -1.6097   -0.6189 H   0  0  0  0  0  0  0  0  0  0  0  0
   -0.4100   -1.4236   -1.5967 H   0  0  0  0  0  0  0  0  0  0  0  0
    1.0387    0.1020   -1.8906 C   0  0  0  0  0  0  0  0  0  0  0  0
    1.2422   -0.0606   -3.2473 N   0  3  0  0  0  0  0  0  0  0  0  0
    0.8601   -0.8430   -3.7862 H   0  0  0  0  0  0  0  0  0  0  0  0
    1.9203    1.0096   -3.7073 C   0  0  0  0  0  0  0  0  0  0  0  0
    2.2151    1.1706   -4.7423 H   0  0  0  0  0  0  0  0  0  0  0  0
    2.1524    1.8474   -2.6716 N   0  0  0  0  0  0  0  0  0  0  0  0
    2.6416    2.7371   -2.7217 H   0  0  0  0  0  0  0  0  0  0  0  0
    1.6054    1.2924   -1.5230 C   0  0  0  0  0  0  0  0  0  0  0  0
    1.6184    1.7135   -0.5215 H   0  0  0  0  0  0  0  0  0  0  0  0
   -0.4874    1.2908    0.1962 C   0  0  0  0  0  0  0  0  0  0  0  0
   -1.3116    1.8673   -0.5151 O   0  0  0  0  0  0  0  0  0  0  0  0
    0.3889    1.9422    0.9708 N   0  0  0  0  0  0  0  0  0  0  0  0
    1.0197    1.3866    1.5283 H   0  0  0  0  0  0  0  0  0  0  0  0
    0.5081    3.3999    1.0720 C   0  0  0  0  0  0  0  0  0  0  0  0
    0.0188    3.7538    1.9817 H   0  0  0  0  0  0  0  0  0  0  0  0
    1.5607    3.6858    1.1098 H   0  0  0  0  0  0  0  0  0  0  0  0
    0.0459    3.8890    0.2119 H   0  0  0  0  0  0  0  0  0  0  0  0
  5  6  2  0  0  0  0
  5  7  1  0  0  0  0
  2  3  1  0  0  0  0
  2  4  1  0  0  0  0
  2  5  1  0  0  0  0
  1  2  1  0  0  0  0
 23 24  2  0  0  0  0
 23 25  1  0  0  0  0
 21 22  1  0  0  0  0
 19 20  1  0  0  0  0
 19 21  1  0  0  0  0
 17 18  1  0  0  0  0
 17 19  1  0  0  0  0
 15 16  1  0  0  0  0
 15 17  2  0  0  0  0
 14 15  1  0  0  0  0
 14 21  2  0  0  0  0
 11 12  1  0  0  0  0
 11 13  1  0  0  0  0
 11 14  1  0  0  0  0
  9 10  1  0  0  0  0
  9 11  1  0  0  0  0
  9 23  1  0  0  0  0
  7  8  1  0  0  0  0
  7  9  1  0  0  0  0
 27 28  1  0  0  0  0
 27 29  1  0  0  0  0
 27 30  1  0  0  0  0
 25 26  1  0  0  0  0
 25 27  1  0  0  0  0
M  CHG  1  15   1
M  END
$$$$
default_name
  -OEChem-02102213163D

 30 30  0     1  0  0  0  0  0999 V2000
   -3.5507   -3.2183    1.8116 H   0  0  0  0  0  0  0  0  0  0  0  0
   -3.4597   -2.3913    1.1076 C   0  0  0  0  0  0  0  0  0  0  0  0
   -4.1577   -1.6043    1.3866 H   0  0  0  0  0  0  0  0  0  0  0  0
   -3.6807   -2.7523    0.1036 H   0  0  0  0  0  0  0  0  0  0  0  0
   -2.0477   -1.8543    1.1546 C   0  0  0  0  0  0  0  0  0  0  0  0
   -1.2227   -2.3443    1.9146 O   0  0  0  0  0  0  0  0  0  0  0  0
   -1.7517   -0.8483    0.3266 N   0  0  0  0  0  0  0  0  0  0  0  0
   -2.4847   -0.5123   -0.2804 H   0  0  0  0  0  0  0  0  0  0  0  0
   -0.4117   -0.2463    0.2186 C   0  0  1  0  0  0  0  0  0  0  0  0
    0.1554   -0.5152    1.1133 H   0  0  0  0  0  0  0  0  0  0  0  0
    0.3164   -0.8780   -0.9905 C   0  0  0  0  0  0  0  0  0  0  0  0
    1.0382   -1.6097   -0.6189 H   0  0  0  0  0  0  0  0  0  0  0  0
   -0.4100   -1.4236   -1.5967 H   0  0  0  0  0  0  0  0  0  0  0  0
    1.0387    0.1020   -1.8906 C   0  0  0  0  0  0  0  0  0  0  0  0
    0.9960    0.0987   -3.2714 N   0  3  0  0  0  0  0  0  0  0  0  0
    0.4102   -0.5398   -3.8171 H   0  0  0  0  0  0  0  0  0  0  0  0
    1.7595    1.1134   -3.7233 C   0  0  0  0  0  0  0  0  0  0  0  0
    1.9097    1.3703   -4.7699 H   0  0  0  0  0  0  0  0  0  0  0  0
    2.2867    1.7599   -2.6591 N   0  0  0  0  0  0  0  0  0  0  0  0
    2.9014    2.5687   -2.6966 H   0  0  0  0  0  0  0  0  0  0  0  0
    1.8442    1.1374   -1.5001 C   0  0  0  0  0  0  0  0  0  0  0  0
    2.0842    1.4114   -0.4765 H   0  0  0  0  0  0  0  0  0  0  0  0
   -0.4874    1.2908    0.1962 C   0  0  0  0  0  0  0  0  0  0  0  0
   -1.3116    1.8673   -0.5151 O   0  0  0  0  0  0  0  0  0  0  0  0
    0.3889    1.9422    0.9708 N   0  0  0  0  0  0  0  0  0  0  0  0
    1.0197    1.3866    1.5283 H   0  0  0  0  0  0  0  0  0  0  0  0
    0.5081    3.3999    1.0720 C   0  0  0  0  0  0  0  0  0  0  0  0
    0.0188    3.7538    1.9817 H   0  0  0  0  0  0  0  0  0  0  0  0
    1.5607    3.6858    1.1098 H   0  0  0  0  0  0  0  0  0  0  0  0
    0.0459    3.8890    0.2119 H   0  0  0  0  0  0  0  0  0  0  0  0
  5  6  2  0  0  0  0
  5  7  1  0  0  0  0
  2  3  1  0  0  0  0
  2  4  1  0  0  0  0
  2  5  1  0  0  0  0
  1  2  1  0  0  0  0
 23 24  2  0  0  0  0
 23 25  1  0  0  0  0
 21 22  1  0  0  0  0
 19 20  1  0  0  0  0
 19 21  1  0  0  0  0
 17 18  1  0  0  0  0
 17 19  1  0  0  0  0
 15 16  1  0  0  0  0
 15 17  2  0  0  0  0
 14 15  1  0  0  0  0
 14 21  2  0  0  0  0
 11 12  1  0  0  0  0
 11 13  1  0  0  0  0
 11 14  1  0  0  0  0
  9 10  1  0  0  0  0
  9 11  1  0  0  0  0
  9 23  1  0  0  0  0
  7  8  1  0  0  0  0
  7  9  1  0  0  0  0
 27 28  1  0  0  0  0
 27 29  1  0  0  0  0
 27 30  1  0  0  0  0
 25 26  1  0  0  0  0
 25 27  1  0  0  0  0
M  CHG  1  15   1
M  END
$$$$
default_name
  -OEChem-02102213163D

 30 30  0     1  0  0  0  0  0999 V2000
   -3.5507   -3.2183    1.8116 H   0  0  0  0  0  0  0  0  0  0  0  0
   -3.4597   -2.3913    1.1076 C   0  0  0  0  0  0  0  0  0  0  0  0
   -4.1577   -1.6043    1.3866 H   0  0  0  0  0  0  0  0  0  0  0  0
   -3.6807   -2.7523    0.1036 H   0  0  0  0  0  0  0  0  0  0  0  0
   -2.0477   -1.8543    1.1546 C   0  0  0  0  0  0  0  0  0  0  0  0
   -1.2227   -2.3443    1.9146 O   0  0  0  0  0  0  0  0  0  0  0  0
   -1.7517   -0.8483    0.3266 N   0  0  0  0  0  0  0  0  0  0  0  0
   -2.4847   -0.5123   -0.2804 H   0  0  0  0  0  0  0  0  0  0  0  0
   -0.4117   -0.2463    0.2186 C   0  0  1  0  0  0  0  0  0  0  0  0
    0.1554   -0.5152    1.1133 H   0  0  0  0  0  0  0  0  0  0  0  0
    0.3164   -0.8780   -0.9905 C   0  0  0  0  0  0  0  0  0  0  0  0
    1.0382   -1.6097   -0.6189 H   0  0  0  0  0  0  0  0  0  0  0  0
   -0.4100   -1.4236   -1.5967 H   0  0  0  0  0  0  0  0  0  0  0  0
    1.0387    0.1020   -1.8906 C   0  0  0  0  0  0  0  0  0  0  0  0
    0.7786    0.2935   -3.2338 N   0  3  0  0  0  0  0  0  0  0  0  0
    0.0171   -0.1739   -3.7341 H   0  0  0  0  0  0  0  0  0  0  0  0
    1.6175    1.2404   -3.6990 C   0  0  0  0  0  0  0  0  0  0  0  0
    1.6407    1.6137   -4.7209 H   0  0  0  0  0  0  0  0  0  0  0  0
    2.4051    1.6531   -2.6803 N   0  0  0  0  0  0  0  0  0  0  0  0
    3.1307    2.3629   -2.7366 H   0  0  0  0  0  0  0  0  0  0  0  0
    2.0549    0.9481   -1.5372 C   0  0  0  0  0  0  0  0  0  0  0  0
    2.4952    1.0425   -0.5484 H   0  0  0  0  0  0  0  0  0  0  0  0
   -0.4874    1.2908    0.1962 C   0  0  0  0  0  0  0  0  0  0  0  0
   -1.3116    1.8673   -0.5151 O   0  0  0  0  0  0  0  0  0  0  0  0
    0.3889    1.9422    0.9708 N   0  0  0  0  0  0  0  0  0  0  0  0
    1.0197    1.3866    1.5283 H   0  0  0  0  0  0  0  0  0  0  0  0
    0.5081    3.3999    1.0720 C   0  0  0  0  0  0  0  0  0  0  0  0
    0.0188    3.7538    1.9817 H   0  0  0  0  0  0  0  0  0  0  0  0
    1.5607    3.6858    1.1098 H   0  0  0  0  0  0  0  0  0  0  0  0
    0.0459    3.8890    0.2119 H   0  0  0  0  0  0  0  0  0  0  0  0
  5  6  2  0  0  0  0
  5  7  1  0  0  0  0
  2  3  1  0  0  0  0
  2  4  1  0  0  0  0
  2  5  1  0  0  0  0
  1  2  1  0  0  0  0
 23 24  2  0  0  0  0
 23 25  1  0  0  0  0
 21 22  1  0  0  0  0
 19 20  1  0  0  0  0
 19 21  1  0  0  0  0
 17 18  1  0  0  0  0
 17 19  1  0  0  0  0
 15 16  1  0  0  0  0
 15 17  2  0  0  0  0
 14 15  1  0  0  0  0
 14 21  2  0  0  0  0
 11 12  1  0  0  0  0
 11 13  1  0  0  0  0
 11 14  1  0  0  0  0
  9 10  1  0  0  0  0
  9 11  1  0  0  0  0
  9 23  1  0  0  0  0
  7  8  1  0  0  0  0
  7  9  1  0  0  0  0
 27 28  1  0  0  0  0
 27 29  1  0  0  0  0
 27 30  1  0  0  0  0
 25 26  1  0  0  0  0
 25 27  1  0  0  0  0
M  CHG  1  15   1
M  END
$$$$
default_name
  -OEChem-02102213163D

 30 30  0     1  0  0  0  0  0999 V2000
   -3.5507   -3.2183    1.8116 H   0  0  0  0  0  0  0  0  0  0  0  0
   -3.4597   -2.3913    1.1076 C   0  0  0  0  0  0  0  0  0  0  0  0
   -4.1577   -1.6043    1.3866 H   0  0  0  0  0  0  0  0  0  0  0  0
   -3.6807   -2.7523    0.1036 H   0  0  0  0  0  0  0  0  0  0  0  0
   -2.0477   -1.8543    1.1546 C   0  0  0  0  0  0  0  0  0  0  0  0
   -1.2227   -2.3443    1.9146 O   0  0  0  0  0  0  0  0  0  0  0  0
   -1.7517   -0.8483    0.3266 N   0  0  0  0  0  0  0  0  0  0  0  0
   -2.4847   -0.5123   -0.2804 H   0  0  0  0  0  0  0  0  0  0  0  0
   -0.4117   -0.2463    0.2186 C   0  0  1  0  0  0  0  0  0  0  0  0
    0.1554   -0.5152    1.1133 H   0  0  0  0  0  0  0  0  0  0  0  0
    0.3164   -0.8780   -0.9905 C   0  0  0  0  0  0  0  0  0  0  0  0
    1.0382   -1.6097   -0.6189 H   0  0  0  0  0  0  0  0  0  0  0  0
   -0.4100   -1.4236   -1.5967 H   0  0  0  0  0  0  0  0  0  0  0  0
    1.0387    0.1020   -1.8906 C   0  0  0  0  0  0  0  0  0  0  0  0
    0.6049    0.5105   -3.1370 N   0  3  0  0  0  0  0  0  0  0  0  0
   -0.2924    0.2298   -3.5430 H   0  0  0  0  0  0  0  0  0  0  0  0
    1.5039    1.3819   -3.6361 C   0  0  0  0  0  0  0  0  0  0  0  0
    1.4266    1.8840   -4.5984 H   0  0  0  0  0  0  0  0  0  0  0  0
    2.4994    1.5344   -2.7339 N   0  0  0  0  0  0  0  0  0  0  0  0
    3.3138    2.1338   -2.8392 H   0  0  0  0  0  0  0  0  0  0  0  0
    2.2230    0.7374   -1.6316 C   0  0  0  0  0  0  0  0  0  0  0  0
    2.8233    0.6318   -0.7322 H   0  0  0  0  0  0  0  0  0  0  0  0
   -0.4874    1.2908    0.1962 C   0  0  0  0  0  0  0  0  0  0  0  0
   -1.3116    1.8673   -0.5151 O   0  0  0  0  0  0  0  0  0  0  0  0
    0.3889    1.9422    0.9708 N   0  0  0  0  0  0  0  0  0  0  0  0
    1.0197    1.3866    1.5283 H   0  0  0  0  0  0  0  0  0  0  0  0
    0.5081    3.3999    1.0720 C   0  0  0  0  0  0  0  0  0  0  0  0
    0.0188    3.7538    1.9817 H   0  0  0  0  0  0  0  0  0  0  0  0
    1.5607    3.6858    1.1098 H   0  0  0  0  0  0  0  0  0  0  0  0
    0.0459    3.8890    0.2119 H   0  0  0  0  0  0  0  0  0  0  0  0
  5  6  2  0  0  0  0
  5  7  1  0  0  0  0
  2  3  1  0  0  0  0
  2  4  1  0  0  0  0
  2  5  1  0  0  0  0
  1  2  1  0  0  0  0
 23 24  2  0  0  0  0
 23 25  1  0  0  0  0
 21 22  1  0  0  0  0
 19 20  1  0  0  0  0
 19 21  1  0  0  0  0
 17 18  1  0  0  0  0
 17 19  1  0  0  0  0
 15 16  1  0  0  0  0
 15 17  2  0  0  0  0
 14 15  1  0  0  0  0
 14 21  2  0  0  0  0
 11 12  1  0  0  0  0
 11 13  1  0  0  0  0
 11 14  1  0  0  0  0
  9 10  1  0  0  0  0
  9 11  1  0  0  0  0
  9 23  1  0  0  0  0
  7  8  1  0  0  0  0
  7  9  1  0  0  0  0
 27 28  1  0  0  0  0
 27 29  1  0  0  0  0
 27 30  1  0  0  0  0
 25 26  1  0  0  0  0
 25 27  1  0  0  0  0
M  CHG  1  15   1
M  END
$$$$
default_name
  -OEChem-02102213163D

 30 30  0     1  0  0  0  0  0999 V2000
   -3.5507   -3.2183    1.8116 H   0  0  0  0  0  0  0  0  0  0  0  0
   -3.4597   -2.3913    1.1076 C   0  0  0  0  0  0  0  0  0  0  0  0
   -4.1577   -1.6043    1.3866 H   0  0  0  0  0  0  0  0  0  0  0  0
   -3.6807   -2.7523    0.1036 H   0  0  0  0  0  0  0  0  0  0  0  0
   -2.0477   -1.8543    1.1546 C   0  0  0  0  0  0  0  0  0  0  0  0
   -1.2227   -2.3443    1.9146 O   0  0  0  0  0  0  0  0  0  0  0  0
   -1.7517   -0.8483    0.3266 N   0  0  0  0  0  0  0  0  0  0  0  0
   -2.4847   -0.5123   -0.2804 H   0  0  0  0  0  0  0  0  0  0  0  0
   -0.4117   -0.2463    0.2186 C   0  0  1  0  0  0  0  0  0  0  0  0
    0.1554   -0.5152    1.1133 H   0  0  0  0  0  0  0  0  0  0  0  0
    0.3164   -0.8780   -0.9905 C   0  0  0  0  0  0  0  0  0  0  0  0
    1.0382   -1.6097   -0.6189 H   0  0  0  0  0  0  0  0  0  0  0  0
   -0.4100   -1.4236   -1.5967 H   0  0  0  0  0  0  0  0  0  0  0  0
    1.0387    0.1020   -1.8906 C   0  0  0  0  0  0  0  0  0  0  0  0
    0.4867    0.7348   -2.9876 N   0  3  0  0  0  0  0  0  0  0  0  0
   -0.4972    0.6438   -3.2566 H   0  0  0  0  0  0  0  0  0  0  0  0
    1.4265    1.5283   -3.5388 C   0  0  0  0  0  0  0  0  0  0  0  0
    1.2819    2.1630   -4.4108 H   0  0  0  0  0  0  0  0  0  0  0  0
    2.5634    1.4118   -2.8160 N   0  0  0  0  0  0  0  0  0  0  0  0
    3.4382    1.8970   -2.9971 H   0  0  0  0  0  0  0  0  0  0  0  0
    2.3372    0.5197   -1.7771 C   0  0  0  0  0  0  0  0  0  0  0  0
    3.0463    0.2072   -1.0155 H   0  0  0  0  0  0  0  0  0  0  0  0
   -0.4874    1.2908    0.1962 C   0  0  0  0  0  0  0  0  0  0  0  0
   -1.3116    1.8673   -0.5151 O   0  0  0  0  0  0  0  0  0  0  0  0
    0.3889    1.9422    0.9708 N   0  0  0  0  0  0  0  0  0  0  0  0
    1.0197    1.3866    1.5283 H   0  0  0  0  0  0  0  0  0  0  0  0
    0.5081    3.3999    1.0720 C   0  0  0  0  0  0  0  0  0  0  0  0
    0.0188    3.7538    1.9817 H   0  0  0  0  0  0  0  0  0  0  0  0
    1.5607    3.6858    1.1098 H   0  0  0  0  0  0  0  0  0  0  0  0
    0.0459    3.8890    0.2119 H   0  0  0  0  0  0  0  0  0  0  0  0
  5  6  2  0  0  0  0
  5  7  1  0  0  0  0
  2  3  1  0  0  0  0
  2  4  1  0  0  0  0
  2  5  1  0  0  0  0
  1  2  1  0  0  0  0
 23 24  2  0  0  0  0
 23 25  1  0  0  0  0
 21 22  1  0  0  0  0
 19 20  1  0  0  0  0
 19 21  1  0  0  0  0
 17 18  1  0  0  0  0
 17 19  1  0  0  0  0
 15 16  1  0  0  0  0
 15 17  2  0  0  0  0
 14 15  1  0  0  0  0
 14 21  2  0  0  0  0
 11 12  1  0  0  0  0
 11 13  1  0  0  0  0
 11 14  1  0  0  0  0
  9 10  1  0  0  0  0
  9 11  1  0  0  0  0
  9 23  1  0  0  0  0
  7  8  1  0  0  0  0
  7  9  1  0  0  0  0
 27 28  1  0  0  0  0
 27 29  1  0  0  0  0
 27 30  1  0  0  0  0
 25 26  1  0  0  0  0
 25 27  1  0  0  0  0
M  CHG  1  15   1
M  END
$$$$
default_name
  -OEChem-02102213163D

 30 30  0     1  0  0  0  0  0999 V2000
   -3.5507   -3.2183    1.8116 H   0  0  0  0  0  0  0  0  0  0  0  0
   -3.4597   -2.3913    1.1076 C   0  0  0  0  0  0  0  0  0  0  0  0
   -4.1577   -1.6043    1.3866 H   0  0  0  0  0  0  0  0  0  0  0  0
   -3.6807   -2.7523    0.1036 H   0  0  0  0  0  0  0  0  0  0  0  0
   -2.0477   -1.8543    1.1546 C   0  0  0  0  0  0  0  0  0  0  0  0
   -1.2227   -2.3443    1.9146 O   0  0  0  0  0  0  0  0  0  0  0  0
   -1.7517   -0.8483    0.3266 N   0  0  0  0  0  0  0  0  0  0  0  0
   -2.4847   -0.5123   -0.2804 H   0  0  0  0  0  0  0  0  0  0  0  0
   -0.4117   -0.2463    0.2186 C   0  0  1  0  0  0  0  0  0  0  0  0
    0.1554   -0.5152    1.1133 H   0  0  0  0  0  0  0  0  0  0  0  0
    0.3164   -0.8780   -0.9905 C   0  0  0  0  0  0  0  0  0  0  0  0
    1.0382   -1.6097   -0.6189 H   0  0  0  0  0  0  0  0  0  0  0  0
   -0.4100   -1.4236   -1.5967 H   0  0  0  0  0  0  0  0  0  0  0  0
    1.0387    0.1020   -1.8906 C   0  0  0  0  0  0  0  0  0  0  0  0
    0.4321    0.9512   -2.7958 N   0  3  0  0  0  0  0  0  0  0  0  0
   -0.5833    1.0398   -2.8945 H   0  0  0  0  0  0  0  0  0  0  0  0
    1.3906    1.6696   -3.4138 C   0  0  0  0  0  0  0  0  0  0  0  0
    1.2164    2.4315   -4.1709 H   0  0  0  0  0  0  0  0  0  0  0  0
    2.5925    1.2937   -2.9212 N   0  0  0  0  0  0  0  0  0  0  0  0
    3.4954    1.6687   -3.1998 H   0  0  0  0  0  0  0  0  0  0  0  0
    2.3896    0.3097   -1.9636 C   0  0  0  0  0  0  0  0  0  0  0  0
    3.1489   -0.2022   -1.3789 H   0  0  0  0  0  0  0  0  0  0  0  0
   -0.4874    1.2908    0.1962 C   0  0  0  0  0  0  0  0  0  0  0  0
   -1.3116    1.8673   -0.5151 O   0  0  0  0  0  0  0  0  0  0  0  0
    0.3889    1.9422    0.9708 N   0  0  0  0  0  0  0  0  0  0  0  0
    1.0197    1.3866    1.5283 H   0  0  0  0  0  0  0  0  0  0  0  0
    0.5081    3.3999    1.0720 C   0  0  0  0  0  0  0  0  0  0  0  0
    0.0188    3.7538    1.9817 H   0  0  0  0  0  0  0  0  0  0  0  0
    1.5607    3.6858    1.1098 H   0  0  0  0  0  0  0  0  0  0  0  0
    0.0459    3.8890    0.2119 H   0  0  0  0  0  0  0  0  0  0  0  0
  5  6  2  0  0  0  0
  5  7  1  0  0  0  0
  2  3  1  0  0  0  0
  2  4  1  0  0  0  0
  2  5  1  0  0  0  0
  1  2  1  0  0  0  0
 23 24  2  0  0  0  0
 23 25  1  0  0  0  0
 21 22  1  0  0  0  0
 19 20  1  0  0  0  0
 19 21  1  0  0  0  0
 17 18  1  0  0  0  0
 17 19  1  0  0  0  0
 15 16  1  0  0  0  0
 15 17  2  0  0  0  0
 14 15  1  0  0  0  0
 14 21  2  0  0  0  0
 11 12  1  0  0  0  0
 11 13  1  0  0  0  0
 11 14  1  0  0  0  0
  9 10  1  0  0  0  0
  9 11  1  0  0  0  0
  9 23  1  0  0  0  0
  7  8  1  0  0  0  0
  7  9  1  0  0  0  0
 27 28  1  0  0  0  0
 27 29  1  0  0  0  0
 27 30  1  0  0  0  0
 25 26  1  0  0  0  0
 25 27  1  0  0  0  0
M  CHG  1  15   1
M  END
$$$$
default_name
  -OEChem-02102213163D

 30 30  0     1  0  0  0  0  0999 V2000
   -3.5507   -3.2183    1.8116 H   0  0  0  0  0  0  0  0  0  0  0  0
   -3.4597   -2.3913    1.1076 C   0  0  0  0  0  0  0  0  0  0  0  0
   -4.1577   -1.6043    1.3866 H   0  0  0  0  0  0  0  0  0  0  0  0
   -3.6807   -2.7523    0.1036 H   0  0  0  0  0  0  0  0  0  0  0  0
   -2.0477   -1.8543    1.1546 C   0  0  0  0  0  0  0  0  0  0  0  0
   -1.2227   -2.3443    1.9146 O   0  0  0  0  0  0  0  0  0  0  0  0
   -1.7517   -0.8483    0.3266 N   0  0  0  0  0  0  0  0  0  0  0  0
   -2.4847   -0.5123   -0.2804 H   0  0  0  0  0  0  0  0  0  0  0  0
   -0.4117   -0.2463    0.2186 C   0  0  1  0  0  0  0  0  0  0  0  0
    0.1554   -0.5152    1.1133 H   0  0  0  0  0  0  0  0  0  0  0  0
    0.3164   -0.8780   -0.9905 C   0  0  0  0  0  0  0  0  0  0  0  0
    1.0382   -1.6097   -0.6189 H   0  0  0  0  0  0  0  0  0  0  0  0
   -0.4100   -1.4236   -1.5967 H   0  0  0  0  0  0  0  0  0  0  0  0
    1.0387    0.1020   -1.8906 C   0  0  0  0  0  0  0  0  0  0  0  0
    0.4448    1.1450   -2.5746 N   0  3  0  0  0  0  0  0  0  0  0  0
   -0.5450    1.3909   -2.4815 H   0  0  0  0  0  0  0  0  0  0  0  0
    1.3985    1.7961   -3.2696 C   0  0  0  0  0  0  0  0  0  0  0  0
    1.2348    2.6714   -3.8950 H   0  0  0  0  0  0  0  0  0  0  0  0
    2.5848    1.1882   -3.0423 N   0  0  0  0  0  0  0  0  0  0  0  0
    3.4816    1.4643   -3.4334 H   0  0  0  0  0  0  0  0  0  0  0  0
    2.3767    0.1219   -2.1784 C   0  0  0  0  0  0  0  0  0  0  0  0
    3.1242   -0.5685   -1.7977 H   0  0  0  0  0  0  0  0  0  0  0  0
   -0.4874    1.2908    0.1962 C   0  0  0  0  0  0  0  0  0  0  0  0
   -1.3116    1.8673   -0.5151 O   0  0  0  0  0  0  0  0  0  0  0  0
    0.3889    1.9422    0.9708 N   0  0  0  0  0  0  0  0  0  0  0  0
    1.0197    1.3866    1.5283 H   0  0  0  0  0  0  0  0  0  0  0  0
    0.5081    3.3999    1.0720 C   0  0  0  0  0  0  0  0  0  0  0  0
    0.0188    3.7538    1.9817 H   0  0  0  0  0  0  0  0  0  0  0  0
    1.5607    3.6858    1.1098 H   0  0  0  0  0  0  0  0  0  0  0  0
    0.0459    3.8890    0.2119 H   0  0  0  0  0  0  0  0  0  0  0  0
  5  6  2  0  0  0  0
  5  7  1  0  0  0  0
  2  3  1  0  0  0  0
  2  4  1  0  0  0  0
  2  5  1  0  0  0  0
  1  2  1  0  0  0  0
 23 24  2  0  0  0  0
 23 25  1  0  0  0  0
 21 22  1  0  0  0  0
 19 20  1  0  0  0  0
 19 21  1  0  0  0  0
 17 18  1  0  0  0  0
 17 19  1  0  0  0  0
 15 16  1  0  0  0  0
 15 17  2  0  0  0  0
 14 15  1  0  0  0  0
 14 21  2  0  0  0  0
 11 12  1  0  0  0  0
 11 13  1  0  0  0  0
 11 14  1  0  0  0  0
  9 10  1  0  0  0  0
  9 11  1  0  0  0  0
  9 23  1  0  0  0  0
  7  8  1  0  0  0  0
  7  9  1  0  0  0  0
 27 28  1  0  0  0  0
 27 29  1  0  0  0  0
 27 30  1  0  0  0  0
 25 26  1  0  0  0  0
 25 27  1  0  0  0  0
M  CHG  1  15   1
M  END
$$$$
default_name
  -OEChem-02102213163D

 30 30  0     1  0  0  0  0  0999 V2000
   -3.5507   -3.2183    1.8116 H   0  0  0  0  0  0  0  0  0  0  0  0
   -3.4597   -2.3913    1.1076 C   0  0  0  0  0  0  0  0  0  0  0  0
   -4.1577   -1.6043    1.3866 H   0  0  0  0  0  0  0  0  0  0  0  0
   -3.6807   -2.7523    0.1036 H   0  0  0  0  0  0  0  0  0  0  0  0
   -2.0477   -1.8543    1.1546 C   0  0  0  0  0  0  0  0  0  0  0  0
   -1.2227   -2.3443    1.9146 O   0  0  0  0  0  0  0  0  0  0  0  0
   -1.7517   -0.8483    0.3266 N   0  0  0  0  0  0  0  0  0  0  0  0
   -2.4847   -0.5123   -0.2804 H   0  0  0  0  0  0  0  0  0  0  0  0
   -0.4117   -0.2463    0.2186 C   0  0  1  0  0  0  0  0  0  0  0  0
    0.1554   -0.5152    1.1133 H   0  0  0  0  0  0  0  0  0  0  0  0
    0.3164   -0.8780   -0.9905 C   0  0  0  0  0  0  0  0  0  0  0  0
    1.0382   -1.6097   -0.6189 H   0  0  0  0  0  0  0  0  0  0  0  0
   -0.4100   -1.4236   -1.5967 H   0  0  0  0  0  0  0  0  0  0  0  0
    1.0387    0.1020   -1.8906 C   0  0  0  0  0  0  0  0  0  0  0  0
    0.5239    1.3029   -2.3392 N   0  3  0  0  0  0  0  0  0  0  0  0
   -0.3847    1.6731   -2.0456 H   0  0  0  0  0  0  0  0  0  0  0  0
    1.4499    1.8994   -3.1160 C   0  0  0  0  0  0  0  0  0  0  0  0
    1.3356    2.8662   -3.6020 H   0  0  0  0  0  0  0  0  0  0  0  0
    2.5408    1.1024   -3.1710 N   0  0  0  0  0  0  0  0  0  0  0  0
    3.3977    1.2979   -3.6819 H   0  0  0  0  0  0  0  0  0  0  0  0
    2.2993   -0.0309   -2.4069 C   0  0  0  0  0  0  0  0  0  0  0  0
    2.9737   -0.8669   -2.2433 H   0  0  0  0  0  0  0  0  0  0  0  0
   -0.4874    1.2908    0.1962 C   0  0  0  0  0  0  0  0  0  0  0  0
   -1.3116    1.8673   -0.5151 O   0  0  0  0  0  0  0  0  0  0  0  0
    0.3889    1.9422    0.9708 N   0  0  0  0  0  0  0  0  0  0  0  0
    1.0197    1.3866    1.5283 H   0  0  0  0  0  0  0  0  0  0  0  0
    0.5081    3.3999    1.0720 C   0  0  0  0  0  0  0  0  0  0  0  0
    0.0188    3.7538    1.9817 H   0  0  0  0  0  0  0  0  0  0  0  0
    1.5607    3.6858    1.1098 H   0  0  0  0  0  0  0  0  0  0  0  0
    0.0459    3.8890    0.2119 H   0  0  0  0  0  0  0  0  0  0  0  0
  5  6  2  0  0  0  0
  5  7  1  0  0  0  0
  2  3  1  0  0  0  0
  2  4  1  0  0  0  0
  2  5  1  0  0  0  0
  1  2  1  0  0  0  0
 23 24  2  0  0  0  0
 23 25  1  0  0  0  0
 21 22  1  0  0  0  0
 19 20  1  0  0  0  0
 19 21  1  0  0  0  0
 17 18  1  0  0  0  0
 17 19  1  0  0  0  0
 15 16  1  0  0  0  0
 15 17  2  0  0  0  0
 14 15  1  0  0  0  0
 14 21  2  0  0  0  0
 11 12  1  0  0  0  0
 11 13  1  0  0  0  0
 11 14  1  0  0  0  0
  9 10  1  0  0  0  0
  9 11  1  0  0  0  0
  9 23  1  0  0  0  0
  7  8  1  0  0  0  0
  7  9  1  0  0  0  0
 27 28  1  0  0  0  0
 27 29  1  0  0  0  0
 27 30  1  0  0  0  0
 25 26  1  0  0  0  0
 25 27  1  0  0  0  0
M  CHG  1  15   1
M  END
$$$$
default_name
  -OEChem-02102213163D

 30 30  0     1  0  0  0  0  0999 V2000
   -3.5507   -3.2183    1.8116 H   0  0  0  0  0  0  0  0  0  0  0  0
   -3.4597   -2.3913    1.1076 C   0  0  0  0  0  0  0  0  0  0  0  0
   -4.1577   -1.6043    1.3866 H   0  0  0  0  0  0  0  0  0  0  0  0
   -3.6807   -2.7523    0.1036 H   0  0  0  0  0  0  0  0  0  0  0  0
   -2.0477   -1.8543    1.1546 C   0  0  0  0  0  0  0  0  0  0  0  0
   -1.2227   -2.3443    1.9146 O   0  0  0  0  0  0  0  0  0  0  0  0
   -1.7517   -0.8483    0.3266 N   0  0  0  0  0  0  0  0  0  0  0  0
   -2.4847   -0.5123   -0.2804 H   0  0  0  0  0  0  0  0  0  0  0  0
   -0.4117   -0.2463    0.2186 C   0  0  1  0  0  0  0  0  0  0  0  0
    0.1554   -0.5152    1.1133 H   0  0  0  0  0  0  0  0  0  0  0  0
    0.3164   -0.8780   -0.9905 C   0  0  0  0  0  0  0  0  0  0  0  0
    1.0382   -1.6097   -0.6189 H   0  0  0  0  0  0  0  0  0  0  0  0
   -0.4100   -1.4236   -1.5967 H   0  0  0  0  0  0  0  0  0  0  0  0
    1.0387    0.1020   -1.8906 C   0  0  0  0  0  0  0  0  0  0  0  0
    0.6640    1.4142   -2.1056 N   0  3  0  0  0  0  0  0  0  0  0  0
   -0.1134    1.8672   -1.6166 H   0  0  0  0  0  0  0  0  0  0  0  0
    1.5411    1.9722   -2.9635 C   0  0  0  0  0  0  0  0  0  0  0  0
    1.5120    3.0027   -3.3119 H   0  0  0  0  0  0  0  0  0  0  0  0
    2.4636    1.0421   -3.2986 N   0  0  0  0  0  0  0  0  0  0  0  0
    3.2495    1.1807   -3.9285 H   0  0  0  0  0  0  0  0  0  0  0  0
    2.1628   -0.1385   -2.6336 C   0  0  0  0  0  0  0  0  0  0  0  0
    2.7079   -1.0770   -2.6853 H   0  0  0  0  0  0  0  0  0  0  0  0
   -0.4874    1.2908    0.1962 C   0  0  0  0  0  0  0  0  0  0  0  0
   -1.3116    1.8673   -0.5151 O   0  0  0  0  0  0  0  0  0  0  0  0
    0.3889    1.9422    0.9708 N   0  0  0  0  0  0  0  0  0  0  0  0
    1.0197    1.3866    1.5283 H   0  0  0  0  0  0  0  0  0  0  0  0
    0.5081    3.3999    1.0720 C   0  0  0  0  0  0  0  0  0  0  0  0
    0.0188    3.7538    1.9817 H   0  0  0  0  0  0  0  0  0  0  0  0
    1.5607    3.6858    1.1098 H   0  0  0  0  0  0  0  0  0  0  0  0
    0.0459    3.8890    0.2119 H   0  0  0  0  0  0  0  0  0  0  0  0
  5  6  2  0  0  0  0
  5  7  1  0  0  0  0
  2  3  1  0  0  0  0
  2  4  1  0  0  0  0
  2  5  1  0  0  0  0
  1  2  1  0  0  0  0
 23 24  2  0  0  0  0
 23 25  1  0  0  0  0
 21 22  1  0  0  0  0
 19 20  1  0  0  0  0
 19 21  1  0  0  0  0
 17 18  1  0  0  0  0
 17 19  1  0  0  0  0
 15 16  1  0  0  0  0
 15 17  2  0  0  0  0
 14 15  1  0  0  0  0
 14 21  2  0  0  0  0
 11 12  1  0  0  0  0
 11 13  1  0  0  0  0
 11 14  1  0  0  0  0
  9 10  1  0  0  0  0
  9 11  1  0  0  0  0
  9 23  1  0  0  0  0
  7  8  1  0  0  0  0
  7  9  1  0  0  0  0
 27 28  1  0  0  0  0
 27 29  1  0  0  0  0
 27 30  1  0  0  0  0
 25 26  1  0  0  0  0
 25 27  1  0  0  0  0
M  CHG  1  15   1
M  END
$$$$
default_name
  -OEChem-02102213163D

 30 30  0     1  0  0  0  0  0999 V2000
   -3.5507   -3.2183    1.8116 H   0  0  0  0  0  0  0  0  0  0  0  0
   -3.4597   -2.3913    1.1076 C   0  0  0  0  0  0  0  0  0  0  0  0
   -4.1577   -1.6043    1.3866 H   0  0  0  0  0  0  0  0  0  0  0  0
   -3.6807   -2.7523    0.1036 H   0  0  0  0  0  0  0  0  0  0  0  0
   -2.0477   -1.8543    1.1546 C   0  0  0  0  0  0  0  0  0  0  0  0
   -1.2227   -2.3443    1.9146 O   0  0  0  0  0  0  0  0  0  0  0  0
   -1.7517   -0.8483    0.3266 N   0  0  0  0  0  0  0  0  0  0  0  0
   -2.4847   -0.5123   -0.2804 H   0  0  0  0  0  0  0  0  0  0  0  0
   -0.4117   -0.2463    0.2186 C   0  0  1  0  0  0  0  0  0  0  0  0
    0.1554   -0.5152    1.1133 H   0  0  0  0  0  0  0  0  0  0  0  0
    0.3164   -0.8780   -0.9905 C   0  0  0  0  0  0  0  0  0  0  0  0
    1.0382   -1.6097   -0.6189 H   0  0  0  0  0  0  0  0  0  0  0  0
   -0.4100   -1.4236   -1.5967 H   0  0  0  0  0  0  0  0  0  0  0  0
    1.0387    0.1020   -1.8906 C   0  0  0  0  0  0  0  0  0  0  0  0
    0.8557    1.4713   -1.8896 N   0  3  0  0  0  0  0  0  0  0  0  0
    0.2503    1.9599   -1.2237 H   0  0  0  0  0  0  0  0  0  0  0  0
    1.6659    2.0097   -2.8225 C   0  0  0  0  0  0  0  0  0  0  0  0
    1.7520    3.0715   -3.0443 H   0  0  0  0  0  0  0  0  0  0  0  0
    2.3584    1.0116   -3.4163 N   0  0  0  0  0  0  0  0  0  0  0  0
    3.0469    1.1208   -4.1563 H   0  0  0  0  0  0  0  0  0  0  0  0
    1.9764   -0.1934   -2.8430 C   0  0  0  0  0  0  0  0  0  0  0  0
    2.3447   -1.1843   -3.0937 H   0  0  0  0  0  0  0  0  0  0  0  0
   -0.4874    1.2908    0.1962 C   0  0  0  0  0  0  0  0  0  0  0  0
   -1.3116    1.8673   -0.5151 O   0  0  0  0  0  0  0  0  0  0  0  0
    0.3889    1.9422    0.9708 N   0  0  0  0  0  0  0  0  0  0  0  0
    1.0197    1.3866    1.5283 H   0  0  0  0  0  0  0  0  0  0  0  0
    0.5081    3.3999    1.0720 C   0  0  0  0  0  0  0  0  0  0  0  0
    0.0188    3.7538    1.9817 H   0  0  0  0  0  0  0  0  0  0  0  0
    1.5607    3.6858    1.1098 H   0  0  0  0  0  0  0  0  0  0  0  0
    0.0459    3.8890    0.2119 H   0  0  0  0  0  0  0  0  0  0  0  0
  5  6  2  0  0  0  0
  5  7  1  0  0  0  0
  2  3  1  0  0  0  0
  2  4  1  0  0  0  0
  2  5  1  0  0  0  0
  1  2  1  0  0  0  0
 23 24  2  0  0  0  0
 23 25  1  0  0  0  0
 21 22  1  0  0  0  0
 19 20  1  0  0  0  0
 19 21  1  0  0  0  0
 17 18  1  0  0  0  0
 17 19  1  0  0  0  0
 15 16  1  0  0  0  0
 15 17  2  0  0  0  0
 14 15  1  0  0  0  0
 14 21  2  0  0  0  0
 11 12  1  0  0  0  0
 11 13  1  0  0  0  0
 11 14  1  0  0  0  0
  9 10  1  0  0  0  0
  9 11  1  0  0  0  0
  9 23  1  0  0  0  0
  7  8  1  0  0  0  0
  7  9  1  0  0  0  0
 27 28  1  0  0  0  0
 27 29  1  0  0  0  0
 27 30  1  0  0  0  0
 25 26  1  0  0  0  0
 25 27  1  0  0  0  0
M  CHG  1  15   1
M  END
$$$$
default_name
  -OEChem-02102213163D

 30 30  0     1  0  0  0  0  0999 V2000
   -3.5507   -3.2183    1.8116 H   0  0  0  0  0  0  0  0  0  0  0  0
   -3.4597   -2.3913    1.1076 C   0  0  0  0  0  0  0  0  0  0  0  0
   -4.1577   -1.6043    1.3866 H   0  0  0  0  0  0  0  0  0  0  0  0
   -3.6807   -2.7523    0.1036 H   0  0  0  0  0  0  0  0  0  0  0  0
   -2.0477   -1.8543    1.1546 C   0  0  0  0  0  0  0  0  0  0  0  0
   -1.2227   -2.3443    1.9146 O   0  0  0  0  0  0  0  0  0  0  0  0
   -1.7517   -0.8483    0.3266 N   0  0  0  0  0  0  0  0  0  0  0  0
   -2.4847   -0.5123   -0.2804 H   0  0  0  0  0  0  0  0  0  0  0  0
   -0.4117   -0.2463    0.2186 C   0  0  1  0  0  0  0  0  0  0  0  0
    0.1554   -0.5152    1.1133 H   0  0  0  0  0  0  0  0  0  0  0  0
    0.3164   -0.8780   -0.9905 C   0  0  0  0  0  0  0  0  0  0  0  0
    1.0382   -1.6097   -0.6189 H   0  0  0  0  0  0  0  0  0  0  0  0
   -0.4100   -1.4236   -1.5967 H   0  0  0  0  0  0  0  0  0  0  0  0
    1.0387    0.1020   -1.8906 C   0  0  0  0  0  0  0  0  0  0  0  0
    1.0858    1.4703   -1.7061 N   0  3  0  0  0  0  0  0  0  0  0  0
    0.6818    1.9451   -0.8937 H   0  0  0  0  0  0  0  0  0  0  0  0
    1.8159    2.0093   -2.7026 C   0  0  0  0  0  0  0  0  0  0  0  0
    2.0393    3.0680   -2.8176 H   0  0  0  0  0  0  0  0  0  0  0  0
    2.2324    1.0128   -3.5162 N   0  0  0  0  0  0  0  0  0  0  0  0
    2.8039    1.1222   -4.3498 H   0  0  0  0  0  0  0  0  0  0  0  0
    1.7528   -0.1919   -3.0207 C   0  0  0  0  0  0  0  0  0  0  0  0
    1.9089   -1.1818   -3.4405 H   0  0  0  0  0  0  0  0  0  0  0  0
   -0.4874    1.2908    0.1962 C   0  0  0  0  0  0  0  0  0  0  0  0
   -1.3116    1.8673   -0.5151 O   0  0  0  0  0  0  0  0  0  0  0  0
    0.3889    1.9422    0.9708 N   0  0  0  0  0  0  0  0  0  0  0  0
    1.0197    1.3866    1.5283 H   0  0  0  0  0  0  0  0  0  0  0  0
    0.5081    3.3999    1.0720 C   0  0  0  0  0  0  0  0  0  0  0  0
    0.0188    3.7538    1.9817 H   0  0  0  0  0  0  0  0  0  0  0  0
    1.5607    3.6858    1.1098 H   0  0  0  0  0  0  0  0  0  0  0  0
    0.0459    3.8890    0.2119 H   0  0  0  0  0  0  0  0  0  0  0  0
  5  6  2  0  0  0  0
  5  7  1  0  0  0  0
  2  3  1  0  0  0  0
  2  4  1  0  0  0  0
  2  5  1  0  0  0  0
  1  2  1  0  0  0  0
 23 24  2  0  0  0  0
 23 25  1  0  0  0  0
 21 22  1  0  0  0  0
 19 20  1  0  0  0  0
 19 21  1  0  0  0  0
 17 18  1  0  0  0  0
 17 19  1  0  0  0  0
 15 16  1  0  0  0  0
 15 17  2  0  0  0  0
 14 15  1  0  0  0  0
 14 21  2  0  0  0  0
 11 12  1  0  0  0  0
 11 13  1  0  0  0  0
 11 14  1  0  0  0  0
  9 10  1  0  0  0  0
  9 11  1  0  0  0  0
  9 23  1  0  0  0  0
  7  8  1  0  0  0  0
  7  9  1  0  0  0  0
 27 28  1  0  0  0  0
 27 29  1  0  0  0  0
 27 30  1  0  0  0  0
 25 26  1  0  0  0  0
 25 27  1  0  0  0  0
M  CHG  1  15   1
M  END
$$$$
default_name
  -OEChem-02102213163D

 30 30  0     1  0  0  0  0  0999 V2000
   -3.5507   -3.2183    1.8116 H   0  0  0  0  0  0  0  0  0  0  0  0
   -3.4597   -2.3913    1.1076 C   0  0  0  0  0  0  0  0  0  0  0  0
   -4.1577   -1.6043    1.3866 H   0  0  0  0  0  0  0  0  0  0  0  0
   -3.6807   -2.7523    0.1036 H   0  0  0  0  0  0  0  0  0  0  0  0
   -2.0477   -1.8543    1.1546 C   0  0  0  0  0  0  0  0  0  0  0  0
   -1.2227   -2.3443    1.9146 O   0  0  0  0  0  0  0  0  0  0  0  0
   -1.7517   -0.8483    0.3266 N   0  0  0  0  0  0  0  0  0  0  0  0
   -2.4847   -0.5123   -0.2804 H   0  0  0  0  0  0  0  0  0  0  0  0
   -0.4117   -0.2463    0.2186 C   0  0  1  0  0  0  0  0  0  0  0  0
    0.1554   -0.5152    1.1133 H   0  0  0  0  0  0  0  0  0  0  0  0
    0.3164   -0.8780   -0.9905 C   0  0  0  0  0  0  0  0  0  0  0  0
    1.0382   -1.6097   -0.6189 H   0  0  0  0  0  0  0  0  0  0  0  0
   -0.4100   -1.4236   -1.5967 H   0  0  0  0  0  0  0  0  0  0  0  0
    1.0387    0.1020   -1.8906 C   0  0  0  0  0  0  0  0  0  0  0  0
    1.3386    1.4112   -1.5675 N   0  3  0  0  0  0  0  0  0  0  0  0
    1.1516    1.8236   -0.6490 H   0  0  0  0  0  0  0  0  0  0  0  0
    1.9808    1.9710   -2.6119 C   0  0  0  0  0  0  0  0  0  0  0  0
    2.3542    2.9925   -2.6471 H   0  0  0  0  0  0  0  0  0  0  0  0
    2.0940    1.0456   -3.5913 N   0  0  0  0  0  0  0  0  0  0  0  0
    2.5369    1.1848   -4.4958 H   0  0  0  0  0  0  0  0  0  0  0  0
    1.5073   -0.1341   -3.1548 C   0  0  0  0  0  0  0  0  0  0  0  0
    1.4303   -1.0694   -3.7023 H   0  0  0  0  0  0  0  0  0  0  0  0
   -0.4874    1.2908    0.1962 C   0  0  0  0  0  0  0  0  0  0  0  0
   -1.3116    1.8673   -0.5151 O   0  0  0  0  0  0  0  0  0  0  0  0
    0.3889    1.9422    0.9708 N   0  0  0  0  0  0  0  0  0  0  0  0
    1.0197    1.3866    1.5283 H   0  0  0  0  0  0  0  0  0  0  0  0
    0.5081    3.3999    1.0720 C   0  0  0  0  0  0  0  0  0  0  0  0
    0.0188    3.7538    1.9817 H   0  0  0  0  0  0  0  0  0  0  0  0
    1.5607    3.6858    1.1098 H   0  0  0  0  0  0  0  0  0  0  0  0
    0.0459    3.8890    0.2119 H   0  0  0  0  0  0  0  0  0  0  0  0
  5  6  2  0  0  0  0
  5  7  1  0  0  0  0
  2  3  1  0  0  0  0
  2  4  1  0  0  0  0
  2  5  1  0  0  0  0
  1  2  1  0  0  0  0
 23 24  2  0  0  0  0
 23 25  1  0  0  0  0
 21 22  1  0  0  0  0
 19 20  1  0  0  0  0
 19 21  1  0  0  0  0
 17 18  1  0  0  0  0
 17 19  1  0  0  0  0
 15 16  1  0  0  0  0
 15 17  2  0  0  0  0
 14 15  1  0  0  0  0
 14 21  2  0  0  0  0
 11 12  1  0  0  0  0
 11 13  1  0  0  0  0
 11 14  1  0  0  0  0
  9 10  1  0  0  0  0
  9 11  1  0  0  0  0
  9 23  1  0  0  0  0
  7  8  1  0  0  0  0
  7  9  1  0  0  0  0
 27 28  1  0  0  0  0
 27 29  1  0  0  0  0
 27 30  1  0  0  0  0
 25 26  1  0  0  0  0
 25 27  1  0  0  0  0
M  CHG  1  15   1
M  END
$$$$
default_name
  -OEChem-02102213163D

 30 30  0     1  0  0  0  0  0999 V2000
   -3.5507   -3.2183    1.8116 H   0  0  0  0  0  0  0  0  0  0  0  0
   -3.4597   -2.3913    1.1076 C   0  0  0  0  0  0  0  0  0  0  0  0
   -4.1577   -1.6043    1.3866 H   0  0  0  0  0  0  0  0  0  0  0  0
   -3.6807   -2.7523    0.1036 H   0  0  0  0  0  0  0  0  0  0  0  0
   -2.0477   -1.8543    1.1546 C   0  0  0  0  0  0  0  0  0  0  0  0
   -1.2227   -2.3443    1.9146 O   0  0  0  0  0  0  0  0  0  0  0  0
   -1.7517   -0.8483    0.3266 N   0  0  0  0  0  0  0  0  0  0  0  0
   -2.4847   -0.5123   -0.2804 H   0  0  0  0  0  0  0  0  0  0  0  0
   -0.4117   -0.2463    0.2186 C   0  0  1  0  0  0  0  0  0  0  0  0
    0.1554   -0.5152    1.1133 H   0  0  0  0  0  0  0  0  0  0  0  0
    0.3164   -0.8780   -0.9905 C   0  0  0  0  0  0  0  0  0  0  0  0
    1.0382   -1.6097   -0.6189 H   0  0  0  0  0  0  0  0  0  0  0  0
   -0.4100   -1.4236   -1.5967 H   0  0  0  0  0  0  0  0  0  0  0  0
    1.0387    0.1020   -1.8906 C   0  0  0  0  0  0  0  0  0  0  0  0
    1.5969    1.2982   -1.4833 N   0  3  0  0  0  0  0  0  0  0  0  0
    1.6276    1.6037   -0.5063 H   0  0  0  0  0  0  0  0  0  0  0  0
    2.1494    1.8975   -2.5567 C   0  0  0  0  0  0  0  0  0  0  0  0
    2.6753    2.8500   -2.5445 H   0  0  0  0  0  0  0  0  0  0  0  0
    1.9529    1.1080   -3.6367 N   0  0  0  0  0  0  0  0  0  0  0  0
    2.2643    1.3045   -4.5843 H   0  0  0  0  0  0  0  0  0  0  0  0
    1.2566   -0.0239   -3.2360 C   0  0  0  0  0  0  0  0  0  0  0  0
    0.9415   -0.8549   -3.8610 H   0  0  0  0  0  0  0  0  0  0  0  0
   -0.4874    1.2908    0.1962 C   0  0  0  0  0  0  0  0  0  0  0  0
   -1.3116    1.8673   -0.5151 O   0  0  0  0  0  0  0  0  0  0  0  0
    0.3889    1.9422    0.9708 N   0  0  0  0  0  0  0  0  0  0  0  0
    1.0197    1.3866    1.5283 H   0  0  0  0  0  0  0  0  0  0  0  0
    0.5081    3.3999    1.0720 C   0  0  0  0  0  0  0  0  0  0  0  0
    0.0188    3.7538    1.9817 H   0  0  0  0  0  0  0  0  0  0  0  0
    1.5607    3.6858    1.1098 H   0  0  0  0  0  0  0  0  0  0  0  0
    0.0459    3.8890    0.2119 H   0  0  0  0  0  0  0  0  0  0  0  0
  5  6  2  0  0  0  0
  5  7  1  0  0  0  0
  2  3  1  0  0  0  0
  2  4  1  0  0  0  0
  2  5  1  0  0  0  0
  1  2  1  0  0  0  0
 23 24  2  0  0  0  0
 23 25  1  0  0  0  0
 21 22  1  0  0  0  0
 19 20  1  0  0  0  0
 19 21  1  0  0  0  0
 17 18  1  0  0  0  0
 17 19  1  0  0  0  0
 15 16  1  0  0  0  0
 15 17  2  0  0  0  0
 14 15  1  0  0  0  0
 14 21  2  0  0  0  0
 11 12  1  0  0  0  0
 11 13  1  0  0  0  0
 11 14  1  0  0  0  0
  9 10  1  0  0  0  0
  9 11  1  0  0  0  0
  9 23  1  0  0  0  0
  7  8  1  0  0  0  0
  7  9  1  0  0  0  0
 27 28  1  0  0  0  0
 27 29  1  0  0  0  0
 27 30  1  0  0  0  0
 25 26  1  0  0  0  0
 25 27  1  0  0  0  0
M  CHG  1  15   1
M  END
$$$$
default_name
  -OEChem-02102213163D

 30 30  0     1  0  0  0  0  0999 V2000
   -3.5507   -3.2183    1.8116 H   0  0  0  0  0  0  0  0  0  0  0  0
   -3.4597   -2.3913    1.1076 C   0  0  0  0  0  0  0  0  0  0  0  0
   -4.1577   -1.6043    1.3866 H   0  0  0  0  0  0  0  0  0  0  0  0
   -3.6807   -2.7523    0.1036 H   0  0  0  0  0  0  0  0  0  0  0  0
   -2.0477   -1.8543    1.1546 C   0  0  0  0  0  0  0  0  0  0  0  0
   -1.2227   -2.3443    1.9146 O   0  0  0  0  0  0  0  0  0  0  0  0
   -1.7517   -0.8483    0.3266 N   0  0  0  0  0  0  0  0  0  0  0  0
   -2.4847   -0.5123   -0.2804 H   0  0  0  0  0  0  0  0  0  0  0  0
   -0.4117   -0.2463    0.2186 C   0  0  1  0  0  0  0  0  0  0  0  0
    0.1554   -0.5152    1.1133 H   0  0  0  0  0  0  0  0  0  0  0  0
    0.3164   -0.8780   -0.9905 C   0  0  0  0  0  0  0  0  0  0  0  0
    1.0382   -1.6097   -0.6189 H   0  0  0  0  0  0  0  0  0  0  0  0
   -0.4100   -1.4236   -1.5967 H   0  0  0  0  0  0  0  0  0  0  0  0
    1.0387    0.1020   -1.8906 C   0  0  0  0  0  0  0  0  0  0  0  0
    1.8432    1.1388   -1.4591 N   0  3  0  0  0  0  0  0  0  0  0  0
    2.0775    1.3005   -0.4754 H   0  0  0  0  0  0  0  0  0  0  0  0
    2.3102    1.7937   -2.5407 C   0  0  0  0  0  0  0  0  0  0  0  0
    2.9808    2.6503   -2.5168 H   0  0  0  0  0  0  0  0  0  0  0  0
    1.8186    1.1955   -3.6492 N   0  0  0  0  0  0  0  0  0  0  0  0
    2.0044    1.4729   -4.6094 H   0  0  0  0  0  0  0  0  0  0  0  0
    1.0178    0.1311   -3.2589 C   0  0  0  0  0  0  0  0  0  0  0  0
    0.4757   -0.5529   -3.9060 H   0  0  0  0  0  0  0  0  0  0  0  0
   -0.4874    1.2908    0.1962 C   0  0  0  0  0  0  0  0  0  0  0  0
   -1.3116    1.8673   -0.5151 O   0  0  0  0  0  0  0  0  0  0  0  0
    0.3889    1.9422    0.9708 N   0  0  0  0  0  0  0  0  0  0  0  0
    1.0197    1.3866    1.5283 H   0  0  0  0  0  0  0  0  0  0  0  0
    0.5081    3.3999    1.0720 C   0  0  0  0  0  0  0  0  0  0  0  0
    0.0188    3.7538    1.9817 H   0  0  0  0  0  0  0  0  0  0  0  0
    1.5607    3.6858    1.1098 H   0  0  0  0  0  0  0  0  0  0  0  0
    0.0459    3.8890    0.2119 H   0  0  0  0  0  0  0  0  0  0  0  0
  5  6  2  0  0  0  0
  5  7  1  0  0  0  0
  2  3  1  0  0  0  0
  2  4  1  0  0  0  0
  2  5  1  0  0  0  0
  1  2  1  0  0  0  0
 23 24  2  0  0  0  0
 23 25  1  0  0  0  0
 21 22  1  0  0  0  0
 19 20  1  0  0  0  0
 19 21  1  0  0  0  0
 17 18  1  0  0  0  0
 17 19  1  0  0  0  0
 15 16  1  0  0  0  0
 15 17  2  0  0  0  0
 14 15  1  0  0  0  0
 14 21  2  0  0  0  0
 11 12  1  0  0  0  0
 11 13  1  0  0  0  0
 11 14  1  0  0  0  0
  9 10  1  0  0  0  0
  9 11  1  0  0  0  0
  9 23  1  0  0  0  0
  7  8  1  0  0  0  0
  7  9  1  0  0  0  0
 27 28  1  0  0  0  0
 27 29  1  0  0  0  0
 27 30  1  0  0  0  0
 25 26  1  0  0  0  0
 25 27  1  0  0  0  0
M  CHG  1  15   1
M  END
$$$$
default_name
  -OEChem-02102213163D

 30 30  0     1  0  0  0  0  0999 V2000
   -3.5507   -3.2183    1.8116 H   0  0  0  0  0  0  0  0  0  0  0  0
   -3.4597   -2.3913    1.1076 C   0  0  0  0  0  0  0  0  0  0  0  0
   -4.1577   -1.6043    1.3866 H   0  0  0  0  0  0  0  0  0  0  0  0
   -3.6807   -2.7523    0.1036 H   0  0  0  0  0  0  0  0  0  0  0  0
   -2.0477   -1.8543    1.1546 C   0  0  0  0  0  0  0  0  0  0  0  0
   -1.2227   -2.3443    1.9146 O   0  0  0  0  0  0  0  0  0  0  0  0
   -1.7517   -0.8483    0.3266 N   0  0  0  0  0  0  0  0  0  0  0  0
   -2.4847   -0.5123   -0.2804 H   0  0  0  0  0  0  0  0  0  0  0  0
   -0.4117   -0.2463    0.2186 C   0  0  1  0  0  0  0  0  0  0  0  0
    0.1554   -0.5152    1.1133 H   0  0  0  0  0  0  0  0  0  0  0  0
    0.3164   -0.8780   -0.9905 C   0  0  0  0  0  0  0  0  0  0  0  0
    1.0382   -1.6097   -0.6189 H   0  0  0  0  0  0  0  0  0  0  0  0
   -0.4100   -1.4236   -1.5967 H   0  0  0  0  0  0  0  0  0  0  0  0
    1.0387    0.1020   -1.8906 C   0  0  0  0  0  0  0  0  0  0  0  0
    2.0606    0.9440   -1.4968 N   0  3  0  0  0  0  0  0  0  0  0  0
    2.4706    0.9345   -0.5584 H   0  0  0  0  0  0  0  0  0  0  0  0
    2.4522    1.6667   -2.5649 C   0  0  0  0  0  0  0  0  0  0  0  0
    3.2497    2.4070   -2.5659 H   0  0  0  0  0  0  0  0  0  0  0  0
    1.7002    1.3023   -3.6280 N   0  0  0  0  0  0  0  0  0  0  0  0
    1.7752    1.6787   -4.5694 H   0  0  0  0  0  0  0  0  0  0  0  0
    0.8071    0.3204   -3.2218 C   0  0  0  0  0  0  0  0  0  0  0  0
    0.0647   -0.1839   -3.8341 H   0  0  0  0  0  0  0  0  0  0  0  0
   -0.4874    1.2908    0.1962 C   0  0  0  0  0  0  0  0  0  0  0  0
   -1.3116    1.8673   -0.5151 O   0  0  0  0  0  0  0  0  0  0  0  0
    0.3889    1.9422    0.9708 N   0  0  0  0  0  0  0  0  0  0  0  0
    1.0197    1.3866    1.5283 H   0  0  0  0  0  0  0  0  0  0  0  0
    0.5081    3.3999    1.0720 C   0  0  0  0  0  0  0  0  0  0  0  0
    0.0188    3.7538    1.9817 H   0  0  0  0  0  0  0  0  0  0  0  0
    1.5607    3.6858    1.1098 H   0  0  0  0  0  0  0  0  0  0  0  0
    0.0459    3.8890    0.2119 H   0  0  0  0  0  0  0  0  0  0  0  0
  5  6  2  0  0  0  0
  5  7  1  0  0  0  0
  2  3  1  0  0  0  0
  2  4  1  0  0  0  0
  2  5  1  0  0  0  0
  1  2  1  0  0  0  0
 23 24  2  0  0  0  0
 23 25  1  0  0  0  0
 21 22  1  0  0  0  0
 19 20  1  0  0  0  0
 19 21  1  0  0  0  0
 17 18  1  0  0  0  0
 17 19  1  0  0  0  0
 15 16  1  0  0  0  0
 15 17  2  0  0  0  0
 14 15  1  0  0  0  0
 14 21  2  0  0  0  0
 11 12  1  0  0  0  0
 11 13  1  0  0  0  0
 11 14  1  0  0  0  0
  9 10  1  0  0  0  0
  9 11  1  0  0  0  0
  9 23  1  0  0  0  0
  7  8  1  0  0  0  0
  7  9  1  0  0  0  0
 27 28  1  0  0  0  0
 27 29  1  0  0  0  0
 27 30  1  0  0  0  0
 25 26  1  0  0  0  0
 25 27  1  0  0  0  0
M  CHG  1  15   1
M  END
$$$$
default_name
  -OEChem-02102213163D

 30 30  0     1  0  0  0  0  0999 V2000
   -3.5507   -3.2183    1.8116 H   0  0  0  0  0  0  0  0  0  0  0  0
   -3.4597   -2.3913    1.1076 C   0  0  0  0  0  0  0  0  0  0  0  0
   -4.1577   -1.6043    1.3866 H   0  0  0  0  0  0  0  0  0  0  0  0
   -3.6807   -2.7523    0.1036 H   0  0  0  0  0  0  0  0  0  0  0  0
   -2.0477   -1.8543    1.1546 C   0  0  0  0  0  0  0  0  0  0  0  0
   -1.2227   -2.3443    1.9146 O   0  0  0  0  0  0  0  0  0  0  0  0
   -1.7517   -0.8483    0.3266 N   0  0  0  0  0  0  0  0  0  0  0  0
   -2.4847   -0.5123   -0.2804 H   0  0  0  0  0  0  0  0  0  0  0  0
   -0.4117   -0.2463    0.2186 C   0  0  1  0  0  0  0  0  0  0  0  0
    0.1554   -0.5152    1.1133 H   0  0  0  0  0  0  0  0  0  0  0  0
    0.3164   -0.8780   -0.9905 C   0  0  0  0  0  0  0  0  0  0  0  0
    1.0382   -1.6097   -0.6189 H   0  0  0  0  0  0  0  0  0  0  0  0
   -0.4100   -1.4236   -1.5967 H   0  0  0  0  0  0  0  0  0  0  0  0
    1.0387    0.1020   -1.8906 C   0  0  0  0  0  0  0  0  0  0  0  0
    2.2343    0.7271   -1.5936 N   0  3  0  0  0  0  0  0  0  0  0  0
    2.7801    0.5308   -0.7496 H   0  0  0  0  0  0  0  0  0  0  0  0
    2.5658    1.5252   -2.6279 C   0  0  0  0  0  0  0  0  0  0  0  0
    3.4639    2.1366   -2.6884 H   0  0  0  0  0  0  0  0  0  0  0  0
    1.6058    1.4210   -3.5745 N   0  0  0  0  0  0  0  0  0  0  0  0
    1.5921    1.9078   -4.4668 H   0  0  0  0  0  0  0  0  0  0  0  0
    0.6390    0.5311   -3.1274 C   0  0  0  0  0  0  0  0  0  0  0  0
   -0.2635    0.2268   -3.6503 H   0  0  0  0  0  0  0  0  0  0  0  0
   -0.4874    1.2908    0.1962 C   0  0  0  0  0  0  0  0  0  0  0  0
   -1.3116    1.8673   -0.5151 O   0  0  0  0  0  0  0  0  0  0  0  0
    0.3889    1.9422    0.9708 N   0  0  0  0  0  0  0  0  0  0  0  0
    1.0197    1.3866    1.5283 H   0  0  0  0  0  0  0  0  0  0  0  0
    0.5081    3.3999    1.0720 C   0  0  0  0  0  0  0  0  0  0  0  0
    0.0188    3.7538    1.9817 H   0  0  0  0  0  0  0  0  0  0  0  0
    1.5607    3.6858    1.1098 H   0  0  0  0  0  0  0  0  0  0  0  0
    0.0459    3.8890    0.2119 H   0  0  0  0  0  0  0  0  0  0  0  0
  5  6  2  0  0  0  0
  5  7  1  0  0  0  0
  2  3  1  0  0  0  0
  2  4  1  0  0  0  0
  2  5  1  0  0  0  0
  1  2  1  0  0  0  0
 23 24  2  0  0  0  0
 23 25  1  0  0  0  0
 21 22  1  0  0  0  0
 19 20  1  0  0  0  0
 19 21  1  0  0  0  0
 17 18  1  0  0  0  0
 17 19  1  0  0  0  0
 15 16  1  0  0  0  0
 15 17  2  0  0  0  0
 14 15  1  0  0  0  0
 14 21  2  0  0  0  0
 11 12  1  0  0  0  0
 11 13  1  0  0  0  0
 11 14  1  0  0  0  0
  9 10  1  0  0  0  0
  9 11  1  0  0  0  0
  9 23  1  0  0  0  0
  7  8  1  0  0  0  0
  7  9  1  0  0  0  0
 27 28  1  0  0  0  0
 27 29  1  0  0  0  0
 27 30  1  0  0  0  0
 25 26  1  0  0  0  0
 25 27  1  0  0  0  0
M  CHG  1  15   1
M  END
$$$$
default_name
  -OEChem-02102213163D

 30 30  0     1  0  0  0  0  0999 V2000
   -3.5507   -3.2183    1.8116 H   0  0  0  0  0  0  0  0  0  0  0  0
   -3.4597   -2.3913    1.1076 C   0  0  0  0  0  0  0  0  0  0  0  0
   -4.1577   -1.6043    1.3866 H   0  0  0  0  0  0  0  0  0  0  0  0
   -3.6807   -2.7523    0.1036 H   0  0  0  0  0  0  0  0  0  0  0  0
   -2.0477   -1.8543    1.1546 C   0  0  0  0  0  0  0  0  0  0  0  0
   -1.2227   -2.3443    1.9146 O   0  0  0  0  0  0  0  0  0  0  0  0
   -1.7517   -0.8483    0.3266 N   0  0  0  0  0  0  0  0  0  0  0  0
   -2.4847   -0.5123   -0.2804 H   0  0  0  0  0  0  0  0  0  0  0  0
   -0.4117   -0.2463    0.2186 C   0  0  1  0  0  0  0  0  0  0  0  0
    0.1554   -0.5152    1.1133 H   0  0  0  0  0  0  0  0  0  0  0  0
    0.3164   -0.8780   -0.9905 C   0  0  0  0  0  0  0  0  0  0  0  0
    1.0382   -1.6097   -0.6189 H   0  0  0  0  0  0  0  0  0  0  0  0
   -0.4100   -1.4236   -1.5967 H   0  0  0  0  0  0  0  0  0  0  0  0
    1.0387    0.1020   -1.8906 C   0  0  0  0  0  0  0  0  0  0  0  0
    2.3525    0.5028   -1.7430 N   0  3  0  0  0  0  0  0  0  0  0  0
    2.9849    0.1169   -1.0360 H   0  0  0  0  0  0  0  0  0  0  0  0
    2.6432    1.3788   -2.7252 C   0  0  0  0  0  0  0  0  0  0  0  0
    3.6086    1.8577   -2.8760 H   0  0  0  0  0  0  0  0  0  0  0  0
    1.5419    1.5435   -3.4923 N   0  0  0  0  0  0  0  0  0  0  0  0
    1.4677    2.1446   -4.3089 H   0  0  0  0  0  0  0  0  0  0  0  0
    0.5248    0.7489   -2.9819 C   0  0  0  0  0  0  0  0  0  0  0  0
   -0.4865    0.6513   -3.3670 H   0  0  0  0  0  0  0  0  0  0  0  0
   -0.4874    1.2908    0.1962 C   0  0  0  0  0  0  0  0  0  0  0  0
   -1.3116    1.8673   -0.5151 O   0  0  0  0  0  0  0  0  0  0  0  0
    0.3889    1.9422    0.9708 N   0  0  0  0  0  0  0  0  0  0  0  0
    1.0197    1.3866    1.5283 H   0  0  0  0  0  0  0  0  0  0  0  0
    0.5081    3.3999    1.0720 C   0  0  0  0  0  0  0  0  0  0  0  0
    0.0188    3.7538    1.9817 H   0  0  0  0  0  0  0  0  0  0  0  0
    1.5607    3.6858    1.1098 H   0  0  0  0  0  0  0  0  0  0  0  0
    0.0459    3.8890    0.2119 H   0  0  0  0  0  0  0  0  0  0  0  0
  5  6  2  0  0  0  0
  5  7  1  0  0  0  0
  2  3  1  0  0  0  0
  2  4  1  0  0  0  0
  2  5  1  0  0  0  0
  1  2  1  0  0  0  0
 23 24  2  0  0  0  0
 23 25  1  0  0  0  0
 21 22  1  0  0  0  0
 19 20  1  0  0  0  0
 19 21  1  0  0  0  0
 17 18  1  0  0  0  0
 17 19  1  0  0  0  0
 15 16  1  0  0  0  0
 15 17  2  0  0  0  0
 14 15  1  0  0  0  0
 14 21  2  0  0  0  0
 11 12  1  0  0  0  0
 11 13  1  0  0  0  0
 11 14  1  0  0  0  0
  9 10  1  0  0  0  0
  9 11  1  0  0  0  0
  9 23  1  0  0  0  0
  7  8  1  0  0  0  0
  7  9  1  0  0  0  0
 27 28  1  0  0  0  0
 27 29  1  0  0  0  0
 27 30  1  0  0  0  0
 25 26  1  0  0  0  0
 25 27  1  0  0  0  0
M  CHG  1  15   1
M  END
$$$$
default_name
  -OEChem-02102213163D

 30 30  0     1  0  0  0  0  0999 V2000
   -3.5507   -3.2183    1.8116 H   0  0  0  0  0  0  0  0  0  0  0  0
   -3.4597   -2.3913    1.1076 C   0  0  0  0  0  0  0  0  0  0  0  0
   -4.1577   -1.6043    1.3866 H   0  0  0  0  0  0  0  0  0  0  0  0
   -3.6807   -2.7523    0.1036 H   0  0  0  0  0  0  0  0  0  0  0  0
   -2.0477   -1.8543    1.1546 C   0  0  0  0  0  0  0  0  0  0  0  0
   -1.2227   -2.3443    1.9146 O   0  0  0  0  0  0  0  0  0  0  0  0
   -1.7517   -0.8483    0.3266 N   0  0  0  0  0  0  0  0  0  0  0  0
   -2.4847   -0.5123   -0.2804 H   0  0  0  0  0  0  0  0  0  0  0  0
   -0.4117   -0.2463    0.2186 C   0  0  1  0  0  0  0  0  0  0  0  0
    0.1554   -0.5152    1.1133 H   0  0  0  0  0  0  0  0  0  0  0  0
    0.3164   -0.8780   -0.9905 C   0  0  0  0  0  0  0  0  0  0  0  0
    1.0382   -1.6097   -0.6189 H   0  0  0  0  0  0  0  0  0  0  0  0
   -0.4100   -1.4236   -1.5967 H   0  0  0  0  0  0  0  0  0  0  0  0
    1.0387    0.1020   -1.8906 C   0  0  0  0  0  0  0  0  0  0  0  0
    2.4071    0.2863   -1.9348 N   0  3  0  0  0  0  0  0  0  0  0  0
    3.0710   -0.2791   -1.3980 H   0  0  0  0  0  0  0  0  0  0  0  0
    2.6791    1.2375   -2.8502 C   0  0  0  0  0  0  0  0  0  0  0  0
    3.6740    1.5891   -3.1159 H   0  0  0  0  0  0  0  0  0  0  0  0
    1.5128    1.6616   -3.3871 N   0  0  0  0  0  0  0  0  0  0  0  0
    1.4105    2.3729   -4.1062 H   0  0  0  0  0  0  0  0  0  0  0  0
    0.4724    0.9588   -2.7954 C   0  0  0  0  0  0  0  0  0  0  0  0
   -0.5891    1.0608   -3.0036 H   0  0  0  0  0  0  0  0  0  0  0  0
   -0.4874    1.2908    0.1962 C   0  0  0  0  0  0  0  0  0  0  0  0
   -1.3116    1.8673   -0.5151 O   0  0  0  0  0  0  0  0  0  0  0  0
    0.3889    1.9422    0.9708 N   0  0  0  0  0  0  0  0  0  0  0  0
    1.0197    1.3866    1.5283 H   0  0  0  0  0  0  0  0  0  0  0  0
    0.5081    3.3999    1.0720 C   0  0  0  0  0  0  0  0  0  0  0  0
    0.0188    3.7538    1.9817 H   0  0  0  0  0  0  0  0  0  0  0  0
    1.5607    3.6858    1.1098 H   0  0  0  0  0  0  0  0  0  0  0  0
    0.0459    3.8890    0.2119 H   0  0  0  0  0  0  0  0  0  0  0  0
  5  6  2  0  0  0  0
  5  7  1  0  0  0  0
  2  3  1  0  0  0  0
  2  4  1  0  0  0  0
  2  5  1  0  0  0  0
  1  2  1  0  0  0  0
 23 24  2  0  0  0  0
 23 25  1  0  0  0  0
 21 22  1  0  0  0  0
 19 20  1  0  0  0  0
 19 21  1  0  0  0  0
 17 18  1  0  0  0  0
 17 19  1  0  0  0  0
 15 16  1  0  0  0  0
 15 17  2  0  0  0  0
 14 15  1  0  0  0  0
 14 21  2  0  0  0  0
 11 12  1  0  0  0  0
 11 13  1  0  0  0  0
 11 14  1  0  0  0  0
  9 10  1  0  0  0  0
  9 11  1  0  0  0  0
  9 23  1  0  0  0  0
  7  8  1  0  0  0  0
  7  9  1  0  0  0  0
 27 28  1  0  0  0  0
 27 29  1  0  0  0  0
 27 30  1  0  0  0  0
 25 26  1  0  0  0  0
 25 27  1  0  0  0  0
M  CHG  1  15   1
M  END
$$$$
default_name
  -OEChem-02102213163D

 30 30  0     1  0  0  0  0  0999 V2000
   -3.5507   -3.2183    1.8116 H   0  0  0  0  0  0  0  0  0  0  0  0
   -3.4597   -2.3913    1.1076 C   0  0  0  0  0  0  0  0  0  0  0  0
   -4.1577   -1.6043    1.3866 H   0  0  0  0  0  0  0  0  0  0  0  0
   -3.6807   -2.7523    0.1036 H   0  0  0  0  0  0  0  0  0  0  0  0
   -2.0477   -1.8543    1.1546 C   0  0  0  0  0  0  0  0  0  0  0  0
   -1.2227   -2.3443    1.9146 O   0  0  0  0  0  0  0  0  0  0  0  0
   -1.7517   -0.8483    0.3266 N   0  0  0  0  0  0  0  0  0  0  0  0
   -2.4847   -0.5123   -0.2804 H   0  0  0  0  0  0  0  0  0  0  0  0
   -0.4117   -0.2463    0.2186 C   0  0  1  0  0  0  0  0  0  0  0  0
    0.1554   -0.5152    1.1133 H   0  0  0  0  0  0  0  0  0  0  0  0
    0.3164   -0.8780   -0.9905 C   0  0  0  0  0  0  0  0  0  0  0  0
    1.0382   -1.6097   -0.6189 H   0  0  0  0  0  0  0  0  0  0  0  0
   -0.4100   -1.4236   -1.5967 H   0  0  0  0  0  0  0  0  0  0  0  0
    1.0387    0.1020   -1.8906 C   0  0  0  0  0  0  0  0  0  0  0  0
    2.3944    0.0926   -2.1560 N   0  3  0  0  0  0  0  0  0  0  0  0
    3.0326   -0.6302   -1.8110 H   0  0  0  0  0  0  0  0  0  0  0  0
    2.6711    1.1110   -2.9944 C   0  0  0  0  0  0  0  0  0  0  0  0
    3.6557    1.3493   -3.3917 H   0  0  0  0  0  0  0  0  0  0  0  0
    1.5205    1.7672   -3.2660 N   0  0  0  0  0  0  0  0  0  0  0  0
    1.4243    2.5773   -3.8726 H   0  0  0  0  0  0  0  0  0  0  0  0
    0.4853    1.1466   -2.5806 C   0  0  0  0  0  0  0  0  0  0  0  0
   -0.5643    1.4271   -2.5848 H   0  0  0  0  0  0  0  0  0  0  0  0
   -0.4874    1.2908    0.1962 C   0  0  0  0  0  0  0  0  0  0  0  0
   -1.3116    1.8673   -0.5151 O   0  0  0  0  0  0  0  0  0  0  0  0
    0.3889    1.9422    0.9708 N   0  0  0  0  0  0  0  0  0  0  0  0
    1.0197    1.3866    1.5283 H   0  0  0  0  0  0  0  0  0  0  0  0
    0.5081    3.3999    1.0720 C   0  0  0  0  0  0  0  0  0  0  0  0
    0.0188    3.7538    1.9817 H   0  0  0  0  0  0  0  0  0  0  0  0
    1.5607    3.6858    1.1098 H   0  0  0  0  0  0  0  0  0  0  0  0
    0.0459    3.8890    0.2119 H   0  0  0  0  0  0  0  0  0  0  0  0
  5  6  2  0  0  0  0
  5  7  1  0  0  0  0
  2  3  1  0  0  0  0
  2  4  1  0  0  0  0
  2  5  1  0  0  0  0
  1  2  1  0  0  0  0
 23 24  2  0  0  0  0
 23 25  1  0  0  0  0
 21 22  1  0  0  0  0
 19 20  1  0  0  0  0
 19 21  1  0  0  0  0
 17 18  1  0  0  0  0
 17 19  1  0  0  0  0
 15 16  1  0  0  0  0
 15 17  2  0  0  0  0
 14 15  1  0  0  0  0
 14 21  2  0  0  0  0
 11 12  1  0  0  0  0
 11 13  1  0  0  0  0
 11 14  1  0  0  0  0
  9 10  1  0  0  0  0
  9 11  1  0  0  0  0
  9 23  1  0  0  0  0
  7  8  1  0  0  0  0
  7  9  1  0  0  0  0
 27 28  1  0  0  0  0
 27 29  1  0  0  0  0
 27 30  1  0  0  0  0
 25 26  1  0  0  0  0
 25 27  1  0  0  0  0
M  CHG  1  15   1
M  END
$$$$
default_name
  -OEChem-02102213163D

 30 30  0     1  0  0  0  0  0999 V2000
   -3.5507   -3.2183    1.8116 H   0  0  0  0  0  0  0  0  0  0  0  0
   -3.4597   -2.3913    1.1076 C   0  0  0  0  0  0  0  0  0  0  0  0
   -4.1577   -1.6043    1.3866 H   0  0  0  0  0  0  0  0  0  0  0  0
   -3.6807   -2.7523    0.1036 H   0  0  0  0  0  0  0  0  0  0  0  0
   -2.0477   -1.8543    1.1546 C   0  0  0  0  0  0  0  0  0  0  0  0
   -1.2227   -2.3443    1.9146 O   0  0  0  0  0  0  0  0  0  0  0  0
   -1.7517   -0.8483    0.3266 N   0  0  0  0  0  0  0  0  0  0  0  0
   -2.4847   -0.5123   -0.2804 H   0  0  0  0  0  0  0  0  0  0  0  0
   -0.4117   -0.2463    0.2186 C   0  0  1  0  0  0  0  0  0  0  0  0
    0.1554   -0.5152    1.1133 H   0  0  0  0  0  0  0  0  0  0  0  0
    0.3164   -0.8780   -0.9905 C   0  0  0  0  0  0  0  0  0  0  0  0
    1.0382   -1.6097   -0.6189 H   0  0  0  0  0  0  0  0  0  0  0  0
   -0.4100   -1.4236   -1.5967 H   0  0  0  0  0  0  0  0  0  0  0  0
    1.0387    0.1020   -1.8906 C   0  0  0  0  0  0  0  0  0  0  0  0
    2.3153   -0.0653   -2.3914 N   0  3  0  0  0  0  0  0  0  0  0  0
    2.8724   -0.9124   -2.2469 H   0  0  0  0  0  0  0  0  0  0  0  0
    2.6198    1.0077   -3.1480 C   0  0  0  0  0  0  0  0  0  0  0  0
    3.5549    1.1545   -3.6847 H   0  0  0  0  0  0  0  0  0  0  0  0
    1.5644    1.8530   -3.1373 N   0  0  0  0  0  0  0  0  0  0  0  0
    1.5081    2.7437   -3.6241 H   0  0  0  0  0  0  0  0  0  0  0  0
    0.5627    1.2995   -2.3521 C   0  0  0  0  0  0  0  0  0  0  0  0
   -0.4139    1.7255   -2.1392 H   0  0  0  0  0  0  0  0  0  0  0  0
   -0.4874    1.2908    0.1962 C   0  0  0  0  0  0  0  0  0  0  0  0
   -1.3116    1.8673   -0.5151 O   0  0  0  0  0  0  0  0  0  0  0  0
    0.3889    1.9422    0.9708 N   0  0  0  0  0  0  0  0  0  0  0  0
    1.0197    1.3866    1.5283 H   0  0  0  0  0  0  0  0  0  0  0  0
    0.5081    3.3999    1.0720 C   0  0  0  0  0  0  0  0  0  0  0  0
    0.0188    3.7538    1.9817 H   0  0  0  0  0  0  0  0  0  0  0  0
    1.5607    3.6858    1.1098 H   0  0  0  0  0  0  0  0  0  0  0  0
    0.0459    3.8890    0.2119 H   0  0  0  0  0  0  0  0  0  0  0  0
  5  6  2  0  0  0  0
  5  7  1  0  0  0  0
  2  3  1  0  0  0  0
  2  4  1  0  0  0  0
  2  5  1  0  0  0  0
  1  2  1  0  0  0  0
 23 24  2  0  0  0  0
 23 25  1  0  0  0  0
 21 22  1  0  0  0  0
 19 20  1  0  0  0  0
 19 21  1  0  0  0  0
 17 18  1  0  0  0  0
 17 19  1  0  0  0  0
 15 16  1  0  0  0  0
 15 17  2  0  0  0  0
 14 15  1  0  0  0  0
 14 21  2  0  0  0  0
 11 12  1  0  0  0  0
 11 13  1  0  0  0  0
 11 14  1  0  0  0  0
  9 10  1  0  0  0  0
  9 11  1  0  0  0  0
  9 23  1  0  0  0  0
  7  8  1  0  0  0  0
  7  9  1  0  0  0  0
 27 28  1  0  0  0  0
 27 29  1  0  0  0  0
 27 30  1  0  0  0  0
 25 26  1  0  0  0  0
 25 27  1  0  0  0  0
M  CHG  1  15   1
M  END
$$$$
default_name
  -OEChem-02102213163D

 30 30  0     1  0  0  0  0  0999 V2000
   -3.5507   -3.2183    1.8116 H   0  0  0  0  0  0  0  0  0  0  0  0
   -3.4597   -2.3913    1.1076 C   0  0  0  0  0  0  0  0  0  0  0  0
   -4.1577   -1.6043    1.3866 H   0  0  0  0  0  0  0  0  0  0  0  0
   -3.6807   -2.7523    0.1036 H   0  0  0  0  0  0  0  0  0  0  0  0
   -2.0477   -1.8543    1.1546 C   0  0  0  0  0  0  0  0  0  0  0  0
   -1.2227   -2.3443    1.9146 O   0  0  0  0  0  0  0  0  0  0  0  0
   -1.7517   -0.8483    0.3266 N   0  0  0  0  0  0  0  0  0  0  0  0
   -2.4847   -0.5123   -0.2804 H   0  0  0  0  0  0  0  0  0  0  0  0
   -0.4117   -0.2463    0.2186 C   0  0  1  0  0  0  0  0  0  0  0  0
    0.1554   -0.5152    1.1133 H   0  0  0  0  0  0  0  0  0  0  0  0
    0.3164   -0.8780   -0.9905 C   0  0  0  0  0  0  0  0  0  0  0  0
    1.0382   -1.6097   -0.6189 H   0  0  0  0  0  0  0  0  0  0  0  0
   -0.4100   -1.4236   -1.5967 H   0  0  0  0  0  0  0  0  0  0  0  0
    1.0387    0.1020   -1.8906 C   0  0  0  0  0  0  0  0  0  0  0  0
    2.1751   -0.1766   -2.6250 N   0  3  0  0  0  0  0  0  0  0  0  0
    2.6011   -1.1065   -2.6759 H   0  0  0  0  0  0  0  0  0  0  0  0
    2.5286    0.9349   -3.3005 C   0  0  0  0  0  0  0  0  0  0  0  0
    3.3785    1.0180   -3.9749 H   0  0  0  0  0  0  0  0  0  0  0  0
    1.6417    1.9133   -3.0097 N   0  0  0  0  0  0  0  0  0  0  0  0
    1.6564    2.8609   -3.3775 H   0  0  0  0  0  0  0  0  0  0  0  0
    0.6992    1.4070   -2.1254 C   0  0  0  0  0  0  0  0  0  0  0  0
   -0.1480    1.9355   -1.6972 H   0  0  0  0  0  0  0  0  0  0  0  0
   -0.4874    1.2908    0.1962 C   0  0  0  0  0  0  0  0  0  0  0  0
   -1.3116    1.8673   -0.5151 O   0  0  0  0  0  0  0  0  0  0  0  0
    0.3889    1.9422    0.9708 N   0  0  0  0  0  0  0  0  0  0  0  0
    1.0197    1.3866    1.5283 H   0  0  0  0  0  0  0  0  0  0  0  0
    0.5081    3.3999    1.0720 C   0  0  0  0  0  0  0  0  0  0  0  0
    0.0188    3.7538    1.9817 H   0  0  0  0  0  0  0  0  0  0  0  0
    1.5607    3.6858    1.1098 H   0  0  0  0  0  0  0  0  0  0  0  0
    0.0459    3.8890    0.2119 H   0  0  0  0  0  0  0  0  0  0  0  0
  5  6  2  0  0  0  0
  5  7  1  0  0  0  0
  2  3  1  0  0  0  0
  2  4  1  0  0  0  0
  2  5  1  0  0  0  0
  1  2  1  0  0  0  0
 23 24  2  0  0  0  0
 23 25  1  0  0  0  0
 21 22  1  0  0  0  0
 19 20  1  0  0  0  0
 19 21  1  0  0  0  0
 17 18  1  0  0  0  0
 17 19  1  0  0  0  0
 15 16  1  0  0  0  0
 15 17  2  0  0  0  0
 14 15  1  0  0  0  0
 14 21  2  0  0  0  0
 11 12  1  0  0  0  0
 11 13  1  0  0  0  0
 11 14  1  0  0  0  0
  9 10  1  0  0  0  0
  9 11  1  0  0  0  0
  9 23  1  0  0  0  0
  7  8  1  0  0  0  0
  7  9  1  0  0  0  0
 27 28  1  0  0  0  0
 27 29  1  0  0  0  0
 27 30  1  0  0  0  0
 25 26  1  0  0  0  0
 25 27  1  0  0  0  0
M  CHG  1  15   1
M  END
$$$$
default_name
  -OEChem-02102213163D

 30 30  0     1  0  0  0  0  0999 V2000
   -3.5507   -3.2183    1.8116 H   0  0  0  0  0  0  0  0  0  0  0  0
   -3.4597   -2.3913    1.1076 C   0  0  0  0  0  0  0  0  0  0  0  0
   -4.1577   -1.6043    1.3866 H   0  0  0  0  0  0  0  0  0  0  0  0
   -3.6807   -2.7523    0.1036 H   0  0  0  0  0  0  0  0  0  0  0  0
   -2.0477   -1.8543    1.1546 C   0  0  0  0  0  0  0  0  0  0  0  0
   -1.2227   -2.3443    1.9146 O   0  0  0  0  0  0  0  0  0  0  0  0
   -1.7517   -0.8483    0.3266 N   0  0  0  0  0  0  0  0  0  0  0  0
   -2.4847   -0.5123   -0.2804 H   0  0  0  0  0  0  0  0  0  0  0  0
   -0.4117   -0.2463    0.2186 C   0  0  1  0  0  0  0  0  0  0  0  0
    0.1554   -0.5152    1.1133 H   0  0  0  0  0  0  0  0  0  0  0  0
    0.3164   -0.8780   -0.9905 C   0  0  0  0  0  0  0  0  0  0  0  0
    1.0382   -1.6097   -0.6189 H   0  0  0  0  0  0  0  0  0  0  0  0
   -0.4100   -1.4236   -1.5967 H   0  0  0  0  0  0  0  0  0  0  0  0
    1.0387    0.1020   -1.8906 C   0  0  0  0  0  0  0  0  0  0  0  0
    1.9835   -0.2337   -2.8409 N   0  3  0  0  0  0  0  0  0  0  0  0
    2.2373   -1.1993   -3.0689 H   0  0  0  0  0  0  0  0  0  0  0  0
    2.4038    0.8974   -3.4415 C   0  0  0  0  0  0  0  0  0  0  0  0
    3.1385    0.9492   -4.2425 H   0  0  0  0  0  0  0  0  0  0  0  0
    1.7469    1.9438   -2.8920 N   0  0  0  0  0  0  0  0  0  0  0  0
    1.8590    2.9208   -3.1497 H   0  0  0  0  0  0  0  0  0  0  0  0
    0.8856    1.4619   -1.9160 C   0  0  0  0  0  0  0  0  0  0  0  0
    0.2152    2.0429   -1.2888 H   0  0  0  0  0  0  0  0  0  0  0  0
   -0.4874    1.2908    0.1962 C   0  0  0  0  0  0  0  0  0  0  0  0
   -1.3116    1.8673   -0.5151 O   0  0  0  0  0  0  0  0  0  0  0  0
    0.3889    1.9422    0.9708 N   0  0  0  0  0  0  0  0  0  0  0  0
    1.0197    1.3866    1.5283 H   0  0  0  0  0  0  0  0  0  0  0  0
    0.5081    3.3999    1.0720 C   0  0  0  0  0  0  0  0  0  0  0  0
    0.0188    3.7538    1.9817 H   0  0  0  0  0  0  0  0  0  0  0  0
    1.5607    3.6858    1.1098 H   0  0  0  0  0  0  0  0  0  0  0  0
    0.0459    3.8890    0.2119 H   0  0  0  0  0  0  0  0  0  0  0  0
  5  6  2  0  0  0  0
  5  7  1  0  0  0  0
  2  3  1  0  0  0  0
  2  4  1  0  0  0  0
  2  5  1  0  0  0  0
  1  2  1  0  0  0  0
 23 24  2  0  0  0  0
 23 25  1  0  0  0  0
 21 22  1  0  0  0  0
 19 20  1  0  0  0  0
 19 21  1  0  0  0  0
 17 18  1  0  0  0  0
 17 19  1  0  0  0  0
 15 16  1  0  0  0  0
 15 17  2  0  0  0  0
 14 15  1  0  0  0  0
 14 21  2  0  0  0  0
 11 12  1  0  0  0  0
 11 13  1  0  0  0  0
 11 14  1  0  0  0  0
  9 10  1  0  0  0  0
  9 11  1  0  0  0  0
  9 23  1  0  0  0  0
  7  8  1  0  0  0  0
  7  9  1  0  0  0  0
 27 28  1  0  0  0  0
 27 29  1  0  0  0  0
 27 30  1  0  0  0  0
 25 26  1  0  0  0  0
 25 27  1  0  0  0  0
M  CHG  1  15   1
M  END
$$$$
default_name
  -OEChem-02102213163D

 30 30  0     1  0  0  0  0  0999 V2000
   -3.5507   -3.2183    1.8116 H   0  0  0  0  0  0  0  0  0  0  0  0
   -3.4597   -2.3913    1.1076 C   0  0  0  0  0  0  0  0  0  0  0  0
   -4.1577   -1.6043    1.3866 H   0  0  0  0  0  0  0  0  0  0  0  0
   -3.6807   -2.7523    0.1036 H   0  0  0  0  0  0  0  0  0  0  0  0
   -2.0477   -1.8543    1.1546 C   0  0  0  0  0  0  0  0  0  0  0  0
   -1.2227   -2.3443    1.9146 O   0  0  0  0  0  0  0  0  0  0  0  0
   -1.7517   -0.8483    0.3266 N   0  0  0  0  0  0  0  0  0  0  0  0
   -2.4847   -0.5123   -0.2804 H   0  0  0  0  0  0  0  0  0  0  0  0
   -0.4117   -0.2463    0.2186 C   0  0  1  0  0  0  0  0  0  0  0  0
    0.1554   -0.5152    1.1133 H   0  0  0  0  0  0  0  0  0  0  0  0
    0.3164   -0.8780   -0.9905 C   0  0  0  0  0  0  0  0  0  0  0  0
    0.8318   -1.7810   -0.6537 H   0  0  0  0  0  0  0  0  0  0  0  0
   -0.4259   -1.1891   -1.7288 H   0  0  0  0  0  0  0  0  0  0  0  0
    1.3179    0.0231   -1.6813 C   0  0  0  0  0  0  0  0  0  0  0  0
    2.0822   -0.3256   -2.7780 N   0  3  0  0  0  0  0  0  0  0  0  0
    1.9912   -1.2197   -3.2689 H   0  0  0  0  0  0  0  0  0  0  0  0
    2.8542    0.7279   -3.1111 C   0  0  0  0  0  0  0  0  0  0  0  0
    3.5539    0.7571   -3.9439 H   0  0  0  0  0  0  0  0  0  0  0  0
    2.5971    1.7373   -2.2489 N   0  0  0  0  0  0  0  0  0  0  0  0
    3.0308    2.6567   -2.2597 H   0  0  0  0  0  0  0  0  0  0  0  0
    1.6345    1.3113   -1.3441 C   0  0  0  0  0  0  0  0  0  0  0  0
    1.2078    1.8822   -0.5240 H   0  0  0  0  0  0  0  0  0  0  0  0
   -0.4874    1.2908    0.1962 C   0  0  0  0  0  0  0  0  0  0  0  0
   -1.3116    1.8673   -0.5151 O   0  0  0  0  0  0  0  0  0  0  0  0
    0.3889    1.9422    0.9708 N   0  0  0  0  0  0  0  0  0  0  0  0
    1.0197    1.3866    1.5283 H   0  0  0  0  0  0  0  0  0  0  0  0
    0.5081    3.3999    1.0720 C   0  0  0  0  0  0  0  0  0  0  0  0
    0.0188    3.7538    1.9817 H   0  0  0  0  0  0  0  0  0  0  0  0
    1.5607    3.6858    1.1098 H   0  0  0  0  0  0  0  0  0  0  0  0
    0.0459    3.8890    0.2119 H   0  0  0  0  0  0  0  0  0  0  0  0
  5  6  2  0  0  0  0
  5  7  1  0  0  0  0
  2  3  1  0  0  0  0
  2  4  1  0  0  0  0
  2  5  1  0  0  0  0
  1  2  1  0  0  0  0
 23 24  2  0  0  0  0
 23 25  1  0  0  0  0
 21 22  1  0  0  0  0
 19 20  1  0  0  0  0
 19 21  1  0  0  0  0
 17 18  1  0  0  0  0
 17 19  1  0  0  0  0
 15 16  1  0  0  0  0
 15 17  2  0  0  0  0
 14 15  1  0  0  0  0
 14 21  2  0  0  0  0
 11 12  1  0  0  0  0
 11 13  1  0  0  0  0
 11 14  1  0  0  0  0
  9 10  1  0  0  0  0
  9 11  1  0  0  0  0
  9 23  1  0  0  0  0
  7  8  1  0  0  0  0
  7  9  1  0  0  0  0
 27 28  1  0  0  0  0
 27 29  1  0  0  0  0
 27 30  1  0  0  0  0
 25 26  1  0  0  0  0
 25 27  1  0  0  0  0
M  CHG  1  15   1
M  END
$$$$
default_name
  -OEChem-02102213163D

 30 30  0     1  0  0  0  0  0999 V2000
   -3.5507   -3.2183    1.8116 H   0  0  0  0  0  0  0  0  0  0  0  0
   -3.4597   -2.3913    1.1076 C   0  0  0  0  0  0  0  0  0  0  0  0
   -4.1577   -1.6043    1.3866 H   0  0  0  0  0  0  0  0  0  0  0  0
   -3.6807   -2.7523    0.1036 H   0  0  0  0  0  0  0  0  0  0  0  0
   -2.0477   -1.8543    1.1546 C   0  0  0  0  0  0  0  0  0  0  0  0
   -1.2227   -2.3443    1.9146 O   0  0  0  0  0  0  0  0  0  0  0  0
   -1.7517   -0.8483    0.3266 N   0  0  0  0  0  0  0  0  0  0  0  0
   -2.4847   -0.5123   -0.2804 H   0  0  0  0  0  0  0  0  0  0  0  0
   -0.4117   -0.2463    0.2186 C   0  0  1  0  0  0  0  0  0  0  0  0
    0.1554   -0.5152    1.1133 H   0  0  0  0  0  0  0  0  0  0  0  0
    0.3164   -0.8780   -0.9905 C   0  0  0  0  0  0  0  0  0  0  0  0
    0.8318   -1.7810   -0.6537 H   0  0  0  0  0  0  0  0  0  0  0  0
   -0.4259   -1.1891   -1.7288 H   0  0  0  0  0  0  0  0  0  0  0  0
    1.3179    0.0231   -1.6813 C   0  0  0  0  0  0  0  0  0  0  0  0
    1.8641   -0.2000   -2.9305 N   0  3  0  0  0  0  0  0  0  0  0  0
    1.5867   -0.9763   -3.5380 H   0  0  0  0  0  0  0  0  0  0  0  0
    2.7119    0.8096   -3.2109 C   0  0  0  0  0  0  0  0  0  0  0  0
    3.2823    0.9152   -4.1315 H   0  0  0  0  0  0  0  0  0  0  0  0
    2.7164    1.6681   -2.1661 N   0  0  0  0  0  0  0  0  0  0  0  0
    3.2611    2.5238   -2.0991 H   0  0  0  0  0  0  0  0  0  0  0  0
    1.8463    1.1890   -1.1966 C   0  0  0  0  0  0  0  0  0  0  0  0
    1.6207    1.6440   -0.2361 H   0  0  0  0  0  0  0  0  0  0  0  0
   -0.4874    1.2908    0.1962 C   0  0  0  0  0  0  0  0  0  0  0  0
   -1.3116    1.8673   -0.5151 O   0  0  0  0  0  0  0  0  0  0  0  0
    0.3889    1.9422    0.9708 N   0  0  0  0  0  0  0  0  0  0  0  0
    1.0197    1.3866    1.5283 H   0  0  0  0  0  0  0  0  0  0  0  0
    0.5081    3.3999    1.0720 C   0  0  0  0  0  0  0  0  0  0  0  0
    0.0188    3.7538    1.9817 H   0  0  0  0  0  0  0  0  0  0  0  0
    1.5607    3.6858    1.1098 H   0  0  0  0  0  0  0  0  0  0  0  0
    0.0459    3.8890    0.2119 H   0  0  0  0  0  0  0  0  0  0  0  0
  5  6  2  0  0  0  0
  5  7  1  0  0  0  0
  2  3  1  0  0  0  0
  2  4  1  0  0  0  0
  2  5  1  0  0  0  0
  1  2  1  0  0  0  0
 23 24  2  0  0  0  0
 23 25  1  0  0  0  0
 21 22  1  0  0  0  0
 19 20  1  0  0  0  0
 19 21  1  0  0  0  0
 17 18  1  0  0  0  0
 17 19  1  0  0  0  0
 15 16  1  0  0  0  0
 15 17  2  0  0  0  0
 14 15  1  0  0  0  0
 14 21  2  0  0  0  0
 11 12  1  0  0  0  0
 11 13  1  0  0  0  0
 11 14  1  0  0  0  0
  9 10  1  0  0  0  0
  9 11  1  0  0  0  0
  9 23  1  0  0  0  0
  7  8  1  0  0  0  0
  7  9  1  0  0  0  0
 27 28  1  0  0  0  0
 27 29  1  0  0  0  0
 27 30  1  0  0  0  0
 25 26  1  0  0  0  0
 25 27  1  0  0  0  0
M  CHG  1  15   1
M  END
$$$$
default_name
  -OEChem-02102213163D

 30 30  0     1  0  0  0  0  0999 V2000
   -3.5507   -3.2183    1.8116 H   0  0  0  0  0  0  0  0  0  0  0  0
   -3.4597   -2.3913    1.1076 C   0  0  0  0  0  0  0  0  0  0  0  0
   -4.1577   -1.6043    1.3866 H   0  0  0  0  0  0  0  0  0  0  0  0
   -3.6807   -2.7523    0.1036 H   0  0  0  0  0  0  0  0  0  0  0  0
   -2.0477   -1.8543    1.1546 C   0  0  0  0  0  0  0  0  0  0  0  0
   -1.2227   -2.3443    1.9146 O   0  0  0  0  0  0  0  0  0  0  0  0
   -1.7517   -0.8483    0.3266 N   0  0  0  0  0  0  0  0  0  0  0  0
   -2.4847   -0.5123   -0.2804 H   0  0  0  0  0  0  0  0  0  0  0  0
   -0.4117   -0.2463    0.2186 C   0  0  1  0  0  0  0  0  0  0  0  0
    0.1554   -0.5152    1.1133 H   0  0  0  0  0  0  0  0  0  0  0  0
    0.3164   -0.8780   -0.9905 C   0  0  0  0  0  0  0  0  0  0  0  0
    0.8318   -1.7810   -0.6537 H   0  0  0  0  0  0  0  0  0  0  0  0
   -0.4259   -1.1891   -1.7288 H   0  0  0  0  0  0  0  0  0  0  0  0
    1.3179    0.0231   -1.6813 C   0  0  0  0  0  0  0  0  0  0  0  0
    1.6447   -0.0268   -3.0226 N   0  3  0  0  0  0  0  0  0  0  0  0
    1.1832   -0.6474   -3.6939 H   0  0  0  0  0  0  0  0  0  0  0  0
    2.5687    0.9224   -3.2713 C   0  0  0  0  0  0  0  0  0  0  0  0
    3.0097    1.1321   -4.2437 H   0  0  0  0  0  0  0  0  0  0  0  0
    2.8362    1.5730   -2.1165 N   0  0  0  0  0  0  0  0  0  0  0  0
    3.4927    2.3408   -2.0022 H   0  0  0  0  0  0  0  0  0  0  0  0
    2.0592    1.0206   -1.1077 C   0  0  0  0  0  0  0  0  0  0  0  0
    2.0359    1.3158   -0.0623 H   0  0  0  0  0  0  0  0  0  0  0  0
   -0.4874    1.2908    0.1962 C   0  0  0  0  0  0  0  0  0  0  0  0
   -1.3116    1.8673   -0.5151 O   0  0  0  0  0  0  0  0  0  0  0  0
    0.3889    1.9422    0.9708 N   0  0  0  0  0  0  0  0  0  0  0  0
    1.0197    1.3866    1.5283 H   0  0  0  0  0  0  0  0  0  0  0  0
    0.5081    3.3999    1.0720 C   0  0  0  0  0  0  0  0  0  0  0  0
    0.0188    3.7538    1.9817 H   0  0  0  0  0  0  0  0  0  0  0  0
    1.5607    3.6858    1.1098 H   0  0  0  0  0  0  0  0  0  0  0  0
    0.0459    3.8890    0.2119 H   0  0  0  0  0  0  0  0  0  0  0  0
  5  6  2  0  0  0  0
  5  7  1  0  0  0  0
  2  3  1  0  0  0  0
  2  4  1  0  0  0  0
  2  5  1  0  0  0  0
  1  2  1  0  0  0  0
 23 24  2  0  0  0  0
 23 25  1  0  0  0  0
 21 22  1  0  0  0  0
 19 20  1  0  0  0  0
 19 21  1  0  0  0  0
 17 18  1  0  0  0  0
 17 19  1  0  0  0  0
 15 16  1  0  0  0  0
 15 17  2  0  0  0  0
 14 15  1  0  0  0  0
 14 21  2  0  0  0  0
 11 12  1  0  0  0  0
 11 13  1  0  0  0  0
 11 14  1  0  0  0  0
  9 10  1  0  0  0  0
  9 11  1  0  0  0  0
  9 23  1  0  0  0  0
  7  8  1  0  0  0  0
  7  9  1  0  0  0  0
 27 28  1  0  0  0  0
 27 29  1  0  0  0  0
 27 30  1  0  0  0  0
 25 26  1  0  0  0  0
 25 27  1  0  0  0  0
M  CHG  1  15   1
M  END
$$$$
default_name
  -OEChem-02102213163D

 30 30  0     1  0  0  0  0  0999 V2000
   -3.5507   -3.2183    1.8116 H   0  0  0  0  0  0  0  0  0  0  0  0
   -3.4597   -2.3913    1.1076 C   0  0  0  0  0  0  0  0  0  0  0  0
   -4.1577   -1.6043    1.3866 H   0  0  0  0  0  0  0  0  0  0  0  0
   -3.6807   -2.7523    0.1036 H   0  0  0  0  0  0  0  0  0  0  0  0
   -2.0477   -1.8543    1.1546 C   0  0  0  0  0  0  0  0  0  0  0  0
   -1.2227   -2.3443    1.9146 O   0  0  0  0  0  0  0  0  0  0  0  0
   -1.7517   -0.8483    0.3266 N   0  0  0  0  0  0  0  0  0  0  0  0
   -2.4847   -0.5123   -0.2804 H   0  0  0  0  0  0  0  0  0  0  0  0
   -0.4117   -0.2463    0.2186 C   0  0  1  0  0  0  0  0  0  0  0  0
    0.1554   -0.5152    1.1133 H   0  0  0  0  0  0  0  0  0  0  0  0
    0.3164   -0.8780   -0.9905 C   0  0  0  0  0  0  0  0  0  0  0  0
    0.8318   -1.7810   -0.6537 H   0  0  0  0  0  0  0  0  0  0  0  0
   -0.4259   -1.1891   -1.7288 H   0  0  0  0  0  0  0  0  0  0  0  0
    1.3179    0.0231   -1.6813 C   0  0  0  0  0  0  0  0  0  0  0  0
    1.4390    0.1821   -3.0482 N   0  3  0  0  0  0  0  0  0  0  0  0
    0.8082   -0.2553   -3.7261 H   0  0  0  0  0  0  0  0  0  0  0  0
    2.4344    1.0586   -3.2883 C   0  0  0  0  0  0  0  0  0  0  0  0
    2.7547    1.3930   -4.2730 H   0  0  0  0  0  0  0  0  0  0  0  0
    2.9484    1.4585   -2.1032 N   0  0  0  0  0  0  0  0  0  0  0  0
    3.7096    2.1200   -1.9755 H   0  0  0  0  0  0  0  0  0  0  0  0
    2.2586    0.8175   -1.0835 C   0  0  0  0  0  0  0  0  0  0  0  0
    2.4248    0.9201   -0.0147 H   0  0  0  0  0  0  0  0  0  0  0  0
   -0.4874    1.2908    0.1962 C   0  0  0  0  0  0  0  0  0  0  0  0
   -1.3116    1.8673   -0.5151 O   0  0  0  0  0  0  0  0  0  0  0  0
    0.3889    1.9422    0.9708 N   0  0  0  0  0  0  0  0  0  0  0  0
    1.0197    1.3866    1.5283 H   0  0  0  0  0  0  0  0  0  0  0  0
    0.5081    3.3999    1.0720 C   0  0  0  0  0  0  0  0  0  0  0  0
    0.0188    3.7538    1.9817 H   0  0  0  0  0  0  0  0  0  0  0  0
    1.5607    3.6858    1.1098 H   0  0  0  0  0  0  0  0  0  0  0  0
    0.0459    3.8890    0.2119 H   0  0  0  0  0  0  0  0  0  0  0  0
  5  6  2  0  0  0  0
  5  7  1  0  0  0  0
  2  3  1  0  0  0  0
  2  4  1  0  0  0  0
  2  5  1  0  0  0  0
  1  2  1  0  0  0  0
 23 24  2  0  0  0  0
 23 25  1  0  0  0  0
 21 22  1  0  0  0  0
 19 20  1  0  0  0  0
 19 21  1  0  0  0  0
 17 18  1  0  0  0  0
 17 19  1  0  0  0  0
 15 16  1  0  0  0  0
 15 17  2  0  0  0  0
 14 15  1  0  0  0  0
 14 21  2  0  0  0  0
 11 12  1  0  0  0  0
 11 13  1  0  0  0  0
 11 14  1  0  0  0  0
  9 10  1  0  0  0  0
  9 11  1  0  0  0  0
  9 23  1  0  0  0  0
  7  8  1  0  0  0  0
  7  9  1  0  0  0  0
 27 28  1  0  0  0  0
 27 29  1  0  0  0  0
 27 30  1  0  0  0  0
 25 26  1  0  0  0  0
 25 27  1  0  0  0  0
M  CHG  1  15   1
M  END
$$$$
default_name
  -OEChem-02102213163D

 30 30  0     1  0  0  0  0  0999 V2000
   -3.5507   -3.2183    1.8116 H   0  0  0  0  0  0  0  0  0  0  0  0
   -3.4597   -2.3913    1.1076 C   0  0  0  0  0  0  0  0  0  0  0  0
   -4.1577   -1.6043    1.3866 H   0  0  0  0  0  0  0  0  0  0  0  0
   -3.6807   -2.7523    0.1036 H   0  0  0  0  0  0  0  0  0  0  0  0
   -2.0477   -1.8543    1.1546 C   0  0  0  0  0  0  0  0  0  0  0  0
   -1.2227   -2.3443    1.9146 O   0  0  0  0  0  0  0  0  0  0  0  0
   -1.7517   -0.8483    0.3266 N   0  0  0  0  0  0  0  0  0  0  0  0
   -2.4847   -0.5123   -0.2804 H   0  0  0  0  0  0  0  0  0  0  0  0
   -0.4117   -0.2463    0.2186 C   0  0  1  0  0  0  0  0  0  0  0  0
    0.1554   -0.5152    1.1133 H   0  0  0  0  0  0  0  0  0  0  0  0
    0.3164   -0.8780   -0.9905 C   0  0  0  0  0  0  0  0  0  0  0  0
    0.8318   -1.7810   -0.6537 H   0  0  0  0  0  0  0  0  0  0  0  0
   -0.4259   -1.1891   -1.7288 H   0  0  0  0  0  0  0  0  0  0  0  0
    1.3179    0.0231   -1.6813 C   0  0  0  0  0  0  0  0  0  0  0  0
    1.2611    0.4126   -3.0055 N   0  3  0  0  0  0  0  0  0  0  0  0
    0.4874    0.1731   -3.6322 H   0  0  0  0  0  0  0  0  0  0  0  0
    2.3182    1.2090   -3.2607 C   0  0  0  0  0  0  0  0  0  0  0  0
    2.5348    1.6802   -4.2173 H   0  0  0  0  0  0  0  0  0  0  0  0
    3.0452    1.3324   -2.1273 N   0  0  0  0  0  0  0  0  0  0  0  0
    3.8973    1.8767   -2.0210 H   0  0  0  0  0  0  0  0  0  0  0  0
    2.4310    0.5937   -1.1255 C   0  0  0  0  0  0  0  0  0  0  0  0
    2.7612    0.4837   -0.0963 H   0  0  0  0  0  0  0  0  0  0  0  0
   -0.4874    1.2908    0.1962 C   0  0  0  0  0  0  0  0  0  0  0  0
   -1.3116    1.8673   -0.5151 O   0  0  0  0  0  0  0  0  0  0  0  0
    0.3889    1.9422    0.9708 N   0  0  0  0  0  0  0  0  0  0  0  0
    1.0197    1.3866    1.5283 H   0  0  0  0  0  0  0  0  0  0  0  0
    0.5081    3.3999    1.0720 C   0  0  0  0  0  0  0  0  0  0  0  0
    0.0188    3.7538    1.9817 H   0  0  0  0  0  0  0  0  0  0  0  0
    1.5607    3.6858    1.1098 H   0  0  0  0  0  0  0  0  0  0  0  0
    0.0459    3.8890    0.2119 H   0  0  0  0  0  0  0  0  0  0  0  0
  5  6  2  0  0  0  0
  5  7  1  0  0  0  0
  2  3  1  0  0  0  0
  2  4  1  0  0  0  0
  2  5  1  0  0  0  0
  1  2  1  0  0  0  0
 23 24  2  0  0  0  0
 23 25  1  0  0  0  0
 21 22  1  0  0  0  0
 19 20  1  0  0  0  0
 19 21  1  0  0  0  0
 17 18  1  0  0  0  0
 17 19  1  0  0  0  0
 15 16  1  0  0  0  0
 15 17  2  0  0  0  0
 14 15  1  0  0  0  0
 14 21  2  0  0  0  0
 11 12  1  0  0  0  0
 11 13  1  0  0  0  0
 11 14  1  0  0  0  0
  9 10  1  0  0  0  0
  9 11  1  0  0  0  0
  9 23  1  0  0  0  0
  7  8  1  0  0  0  0
  7  9  1  0  0  0  0
 27 28  1  0  0  0  0
 27 29  1  0  0  0  0
 27 30  1  0  0  0  0
 25 26  1  0  0  0  0
 25 27  1  0  0  0  0
M  CHG  1  15   1
M  END
$$$$
default_name
  -OEChem-02102213163D

 30 30  0     1  0  0  0  0  0999 V2000
   -3.5507   -3.2183    1.8116 H   0  0  0  0  0  0  0  0  0  0  0  0
   -3.4597   -2.3913    1.1076 C   0  0  0  0  0  0  0  0  0  0  0  0
   -4.1577   -1.6043    1.3866 H   0  0  0  0  0  0  0  0  0  0  0  0
   -3.6807   -2.7523    0.1036 H   0  0  0  0  0  0  0  0  0  0  0  0
   -2.0477   -1.8543    1.1546 C   0  0  0  0  0  0  0  0  0  0  0  0
   -1.2227   -2.3443    1.9146 O   0  0  0  0  0  0  0  0  0  0  0  0
   -1.7517   -0.8483    0.3266 N   0  0  0  0  0  0  0  0  0  0  0  0
   -2.4847   -0.5123   -0.2804 H   0  0  0  0  0  0  0  0  0  0  0  0
   -0.4117   -0.2463    0.2186 C   0  0  1  0  0  0  0  0  0  0  0  0
    0.1554   -0.5152    1.1133 H   0  0  0  0  0  0  0  0  0  0  0  0
    0.3164   -0.8780   -0.9905 C   0  0  0  0  0  0  0  0  0  0  0  0
    0.8318   -1.7810   -0.6537 H   0  0  0  0  0  0  0  0  0  0  0  0
   -0.4259   -1.1891   -1.7288 H   0  0  0  0  0  0  0  0  0  0  0  0
    1.3179    0.0231   -1.6813 C   0  0  0  0  0  0  0  0  0  0  0  0
    1.1230    0.6490   -2.8974 N   0  3  0  0  0  0  0  0  0  0  0  0
    0.2426    0.6088   -3.4188 H   0  0  0  0  0  0  0  0  0  0  0  0
    2.2279    1.3632   -3.1904 C   0  0  0  0  0  0  0  0  0  0  0  0
    2.3648    1.9740   -4.0805 H   0  0  0  0  0  0  0  0  0  0  0  0
    3.1202    1.2033   -2.1871 N   0  0  0  0  0  0  0  0  0  0  0  0
    4.0427    1.6272   -2.1356 H   0  0  0  0  0  0  0  0  0  0  0  0
    2.5646    0.3643   -1.2310 C   0  0  0  0  0  0  0  0  0  0  0  0
    3.0220    0.0364   -0.3016 H   0  0  0  0  0  0  0  0  0  0  0  0
   -0.4874    1.2908    0.1962 C   0  0  0  0  0  0  0  0  0  0  0  0
   -1.3116    1.8673   -0.5151 O   0  0  0  0  0  0  0  0  0  0  0  0
    0.3889    1.9422    0.9708 N   0  0  0  0  0  0  0  0  0  0  0  0
    1.0197    1.3866    1.5283 H   0  0  0  0  0  0  0  0  0  0  0  0
    0.5081    3.3999    1.0720 C   0  0  0  0  0  0  0  0  0  0  0  0
    0.0188    3.7538    1.9817 H   0  0  0  0  0  0  0  0  0  0  0  0
    1.5607    3.6858    1.1098 H   0  0  0  0  0  0  0  0  0  0  0  0
    0.0459    3.8890    0.2119 H   0  0  0  0  0  0  0  0  0  0  0  0
  5  6  2  0  0  0  0
  5  7  1  0  0  0  0
  2  3  1  0  0  0  0
  2  4  1  0  0  0  0
  2  5  1  0  0  0  0
  1  2  1  0  0  0  0
 23 24  2  0  0  0  0
 23 25  1  0  0  0  0
 21 22  1  0  0  0  0
 19 20  1  0  0  0  0
 19 21  1  0  0  0  0
 17 18  1  0  0  0  0
 17 19  1  0  0  0  0
 15 16  1  0  0  0  0
 15 17  2  0  0  0  0
 14 15  1  0  0  0  0
 14 21  2  0  0  0  0
 11 12  1  0  0  0  0
 11 13  1  0  0  0  0
 11 14  1  0  0  0  0
  9 10  1  0  0  0  0
  9 11  1  0  0  0  0
  9 23  1  0  0  0  0
  7  8  1  0  0  0  0
  7  9  1  0  0  0  0
 27 28  1  0  0  0  0
 27 29  1  0  0  0  0
 27 30  1  0  0  0  0
 25 26  1  0  0  0  0
 25 27  1  0  0  0  0
M  CHG  1  15   1
M  END
$$$$
default_name
  -OEChem-02102213163D

 30 30  0     1  0  0  0  0  0999 V2000
   -3.5507   -3.2183    1.8116 H   0  0  0  0  0  0  0  0  0  0  0  0
   -3.4597   -2.3913    1.1076 C   0  0  0  0  0  0  0  0  0  0  0  0
   -4.1577   -1.6043    1.3866 H   0  0  0  0  0  0  0  0  0  0  0  0
   -3.6807   -2.7523    0.1036 H   0  0  0  0  0  0  0  0  0  0  0  0
   -2.0477   -1.8543    1.1546 C   0  0  0  0  0  0  0  0  0  0  0  0
   -1.2227   -2.3443    1.9146 O   0  0  0  0  0  0  0  0  0  0  0  0
   -1.7517   -0.8483    0.3266 N   0  0  0  0  0  0  0  0  0  0  0  0
   -2.4847   -0.5123   -0.2804 H   0  0  0  0  0  0  0  0  0  0  0  0
   -0.4117   -0.2463    0.2186 C   0  0  1  0  0  0  0  0  0  0  0  0
    0.1554   -0.5152    1.1133 H   0  0  0  0  0  0  0  0  0  0  0  0
    0.3164   -0.8780   -0.9905 C   0  0  0  0  0  0  0  0  0  0  0  0
    0.8318   -1.7810   -0.6537 H   0  0  0  0  0  0  0  0  0  0  0  0
   -0.4259   -1.1891   -1.7288 H   0  0  0  0  0  0  0  0  0  0  0  0
    1.3179    0.0231   -1.6813 C   0  0  0  0  0  0  0  0  0  0  0  0
    1.0342    0.8750   -2.7312 N   0  3  0  0  0  0  0  0  0  0  0  0
    0.0904    1.0220   -3.1004 H   0  0  0  0  0  0  0  0  0  0  0  0
    2.1697    1.5108   -3.0822 C   0  0  0  0  0  0  0  0  0  0  0  0
    2.2563    2.2545   -3.8718 H   0  0  0  0  0  0  0  0  0  0  0  0
    3.1681    1.0799   -2.2785 N   0  0  0  0  0  0  0  0  0  0  0  0
    4.1361    1.3887   -2.3113 H   0  0  0  0  0  0  0  0  0  0  0  0
    2.6503    0.1450   -1.3928 C   0  0  0  0  0  0  0  0  0  0  0  0
    3.1894   -0.3912   -0.6167 H   0  0  0  0  0  0  0  0  0  0  0  0
   -0.4874    1.2908    0.1962 C   0  0  0  0  0  0  0  0  0  0  0  0
   -1.3116    1.8673   -0.5151 O   0  0  0  0  0  0  0  0  0  0  0  0
    0.3889    1.9422    0.9708 N   0  0  0  0  0  0  0  0  0  0  0  0
    1.0197    1.3866    1.5283 H   0  0  0  0  0  0  0  0  0  0  0  0
    0.5081    3.3999    1.0720 C   0  0  0  0  0  0  0  0  0  0  0  0
    0.0188    3.7538    1.9817 H   0  0  0  0  0  0  0  0  0  0  0  0
    1.5607    3.6858    1.1098 H   0  0  0  0  0  0  0  0  0  0  0  0
    0.0459    3.8890    0.2119 H   0  0  0  0  0  0  0  0  0  0  0  0
  5  6  2  0  0  0  0
  5  7  1  0  0  0  0
  2  3  1  0  0  0  0
  2  4  1  0  0  0  0
  2  5  1  0  0  0  0
  1  2  1  0  0  0  0
 23 24  2  0  0  0  0
 23 25  1  0  0  0  0
 21 22  1  0  0  0  0
 19 20  1  0  0  0  0
 19 21  1  0  0  0  0
 17 18  1  0  0  0  0
 17 19  1  0  0  0  0
 15 16  1  0  0  0  0
 15 17  2  0  0  0  0
 14 15  1  0  0  0  0
 14 21  2  0  0  0  0
 11 12  1  0  0  0  0
 11 13  1  0  0  0  0
 11 14  1  0  0  0  0
  9 10  1  0  0  0  0
  9 11  1  0  0  0  0
  9 23  1  0  0  0  0
  7  8  1  0  0  0  0
  7  9  1  0  0  0  0
 27 28  1  0  0  0  0
 27 29  1  0  0  0  0
 27 30  1  0  0  0  0
 25 26  1  0  0  0  0
 25 27  1  0  0  0  0
M  CHG  1  15   1
M  END
$$$$
default_name
  -OEChem-02102213163D

 30 30  0     1  0  0  0  0  0999 V2000
   -3.5507   -3.2183    1.8116 H   0  0  0  0  0  0  0  0  0  0  0  0
   -3.4597   -2.3913    1.1076 C   0  0  0  0  0  0  0  0  0  0  0  0
   -4.1577   -1.6043    1.3866 H   0  0  0  0  0  0  0  0  0  0  0  0
   -3.6807   -2.7523    0.1036 H   0  0  0  0  0  0  0  0  0  0  0  0
   -2.0477   -1.8543    1.1546 C   0  0  0  0  0  0  0  0  0  0  0  0
   -1.2227   -2.3443    1.9146 O   0  0  0  0  0  0  0  0  0  0  0  0
   -1.7517   -0.8483    0.3266 N   0  0  0  0  0  0  0  0  0  0  0  0
   -2.4847   -0.5123   -0.2804 H   0  0  0  0  0  0  0  0  0  0  0  0
   -0.4117   -0.2463    0.2186 C   0  0  1  0  0  0  0  0  0  0  0  0
    0.1554   -0.5152    1.1133 H   0  0  0  0  0  0  0  0  0  0  0  0
    0.3164   -0.8780   -0.9905 C   0  0  0  0  0  0  0  0  0  0  0  0
    0.8318   -1.7810   -0.6537 H   0  0  0  0  0  0  0  0  0  0  0  0
   -0.4259   -1.1891   -1.7288 H   0  0  0  0  0  0  0  0  0  0  0  0
    1.3179    0.0231   -1.6813 C   0  0  0  0  0  0  0  0  0  0  0  0
    1.0008    1.0754   -2.5183 N   0  3  0  0  0  0  0  0  0  0  0  0
    0.0413    1.3846   -2.6986 H   0  0  0  0  0  0  0  0  0  0  0  0
    2.1476    1.6417   -2.9435 C   0  0  0  0  0  0  0  0  0  0  0  0
    2.2168    2.5024   -3.6056 H   0  0  0  0  0  0  0  0  0  0  0  0
    3.1858    0.9708   -2.3953 N   0  0  0  0  0  0  0  0  0  0  0  0
    4.1711    1.1773   -2.5363 H   0  0  0  0  0  0  0  0  0  0  0  0
    2.6823   -0.0492   -1.5998 C   0  0  0  0  0  0  0  0  0  0  0  0
    3.2521   -0.7701   -1.0201 H   0  0  0  0  0  0  0  0  0  0  0  0
   -0.4874    1.2908    0.1962 C   0  0  0  0  0  0  0  0  0  0  0  0
   -1.3116    1.8673   -0.5151 O   0  0  0  0  0  0  0  0  0  0  0  0
    0.3889    1.9422    0.9708 N   0  0  0  0  0  0  0  0  0  0  0  0
    1.0197    1.3866    1.5283 H   0  0  0  0  0  0  0  0  0  0  0  0
    0.5081    3.3999    1.0720 C   0  0  0  0  0  0  0  0  0  0  0  0
    0.0188    3.7538    1.9817 H   0  0  0  0  0  0  0  0  0  0  0  0
    1.5607    3.6858    1.1098 H   0  0  0  0  0  0  0  0  0  0  0  0
    0.0459    3.8890    0.2119 H   0  0  0  0  0  0  0  0  0  0  0  0
  5  6  2  0  0  0  0
  5  7  1  0  0  0  0
  2  3  1  0  0  0  0
  2  4  1  0  0  0  0
  2  5  1  0  0  0  0
  1  2  1  0  0  0  0
 23 24  2  0  0  0  0
 23 25  1  0  0  0  0
 21 22  1  0  0  0  0
 19 20  1  0  0  0  0
 19 21  1  0  0  0  0
 17 18  1  0  0  0  0
 17 19  1  0  0  0  0
 15 16  1  0  0  0  0
 15 17  2  0  0  0  0
 14 15  1  0  0  0  0
 14 21  2  0  0  0  0
 11 12  1  0  0  0  0
 11 13  1  0  0  0  0
 11 14  1  0  0  0  0
  9 10  1  0  0  0  0
  9 11  1  0  0  0  0
  9 23  1  0  0  0  0
  7  8  1  0  0  0  0
  7  9  1  0  0  0  0
 27 28  1  0  0  0  0
 27 29  1  0  0  0  0
 27 30  1  0  0  0  0
 25 26  1  0  0  0  0
 25 27  1  0  0  0  0
M  CHG  1  15   1
M  END
$$$$
default_name
  -OEChem-02102213163D

 30 30  0     1  0  0  0  0  0999 V2000
   -3.5507   -3.2183    1.8116 H   0  0  0  0  0  0  0  0  0  0  0  0
   -3.4597   -2.3913    1.1076 C   0  0  0  0  0  0  0  0  0  0  0  0
   -4.1577   -1.6043    1.3866 H   0  0  0  0  0  0  0  0  0  0  0  0
   -3.6807   -2.7523    0.1036 H   0  0  0  0  0  0  0  0  0  0  0  0
   -2.0477   -1.8543    1.1546 C   0  0  0  0  0  0  0  0  0  0  0  0
   -1.2227   -2.3443    1.9146 O   0  0  0  0  0  0  0  0  0  0  0  0
   -1.7517   -0.8483    0.3266 N   0  0  0  0  0  0  0  0  0  0  0  0
   -2.4847   -0.5123   -0.2804 H   0  0  0  0  0  0  0  0  0  0  0  0
   -0.4117   -0.2463    0.2186 C   0  0  1  0  0  0  0  0  0  0  0  0
    0.1554   -0.5152    1.1133 H   0  0  0  0  0  0  0  0  0  0  0  0
    0.3164   -0.8780   -0.9905 C   0  0  0  0  0  0  0  0  0  0  0  0
    0.8318   -1.7810   -0.6537 H   0  0  0  0  0  0  0  0  0  0  0  0
   -0.4259   -1.1891   -1.7288 H   0  0  0  0  0  0  0  0  0  0  0  0
    1.3179    0.0231   -1.6813 C   0  0  0  0  0  0  0  0  0  0  0  0
    1.0249    1.2365   -2.2732 N   0  3  0  0  0  0  0  0  0  0  0  0
    0.0985    1.6719   -2.2409 H   0  0  0  0  0  0  0  0  0  0  0  0
    2.1631    1.7470   -2.7836 C   0  0  0  0  0  0  0  0  0  0  0  0
    2.2490    2.7010   -3.2999 H   0  0  0  0  0  0  0  0  0  0  0  0
    3.1719    0.8833   -2.5295 N   0  0  0  0  0  0  0  0  0  0  0  0
    4.1453    1.0076   -2.7952 H   0  0  0  0  0  0  0  0  0  0  0  0
    2.6584   -0.2051   -1.8379 C   0  0  0  0  0  0  0  0  0  0  0  0
    3.2058   -1.0744   -1.4843 H   0  0  0  0  0  0  0  0  0  0  0  0
   -0.4874    1.2908    0.1962 C   0  0  0  0  0  0  0  0  0  0  0  0
   -1.3116    1.8673   -0.5151 O   0  0  0  0  0  0  0  0  0  0  0  0
    0.3889    1.9422    0.9708 N   0  0  0  0  0  0  0  0  0  0  0  0
    1.0197    1.3866    1.5283 H   0  0  0  0  0  0  0  0  0  0  0  0
    0.5081    3.3999    1.0720 C   0  0  0  0  0  0  0  0  0  0  0  0
    0.0188    3.7538    1.9817 H   0  0  0  0  0  0  0  0  0  0  0  0
    1.5607    3.6858    1.1098 H   0  0  0  0  0  0  0  0  0  0  0  0
    0.0459    3.8890    0.2119 H   0  0  0  0  0  0  0  0  0  0  0  0
  5  6  2  0  0  0  0
  5  7  1  0  0  0  0
  2  3  1  0  0  0  0
  2  4  1  0  0  0  0
  2  5  1  0  0  0  0
  1  2  1  0  0  0  0
 23 24  2  0  0  0  0
 23 25  1  0  0  0  0
 21 22  1  0  0  0  0
 19 20  1  0  0  0  0
 19 21  1  0  0  0  0
 17 18  1  0  0  0  0
 17 19  1  0  0  0  0
 15 16  1  0  0  0  0
 15 17  2  0  0  0  0
 14 15  1  0  0  0  0
 14 21  2  0  0  0  0
 11 12  1  0  0  0  0
 11 13  1  0  0  0  0
 11 14  1  0  0  0  0
  9 10  1  0  0  0  0
  9 11  1  0  0  0  0
  9 23  1  0  0  0  0
  7  8  1  0  0  0  0
  7  9  1  0  0  0  0
 27 28  1  0  0  0  0
 27 29  1  0  0  0  0
 27 30  1  0  0  0  0
 25 26  1  0  0  0  0
 25 27  1  0  0  0  0
M  CHG  1  15   1
M  END
$$$$
default_name
  -OEChem-02102213163D

 30 30  0     1  0  0  0  0  0999 V2000
   -3.5507   -3.2183    1.8116 H   0  0  0  0  0  0  0  0  0  0  0  0
   -3.4597   -2.3913    1.1076 C   0  0  0  0  0  0  0  0  0  0  0  0
   -4.1577   -1.6043    1.3866 H   0  0  0  0  0  0  0  0  0  0  0  0
   -3.6807   -2.7523    0.1036 H   0  0  0  0  0  0  0  0  0  0  0  0
   -2.0477   -1.8543    1.1546 C   0  0  0  0  0  0  0  0  0  0  0  0
   -1.2227   -2.3443    1.9146 O   0  0  0  0  0  0  0  0  0  0  0  0
   -1.7517   -0.8483    0.3266 N   0  0  0  0  0  0  0  0  0  0  0  0
   -2.4847   -0.5123   -0.2804 H   0  0  0  0  0  0  0  0  0  0  0  0
   -0.4117   -0.2463    0.2186 C   0  0  1  0  0  0  0  0  0  0  0  0
    0.1554   -0.5152    1.1133 H   0  0  0  0  0  0  0  0  0  0  0  0
    0.3164   -0.8780   -0.9905 C   0  0  0  0  0  0  0  0  0  0  0  0
    0.8318   -1.7810   -0.6537 H   0  0  0  0  0  0  0  0  0  0  0  0
   -0.4259   -1.1891   -1.7288 H   0  0  0  0  0  0  0  0  0  0  0  0
    1.3179    0.0231   -1.6813 C   0  0  0  0  0  0  0  0  0  0  0  0
    1.1050    1.3473   -2.0125 N   0  3  0  0  0  0  0  0  0  0  0  0
    0.2583    1.8642   -1.7584 H   0  0  0  0  0  0  0  0  0  0  0  0
    2.2151    1.8195   -2.6136 C   0  0  0  0  0  0  0  0  0  0  0  0
    2.3506    2.8367   -2.9755 H   0  0  0  0  0  0  0  0  0  0  0  0
    3.1276    0.8233   -2.6720 N   0  0  0  0  0  0  0  0  0  0  0  0
    4.0605    0.8909   -3.0703 H   0  0  0  0  0  0  0  0  0  0  0  0
    2.5801   -0.3121   -2.0910 C   0  0  0  0  0  0  0  0  0  0  0  0
    3.0536   -1.2834   -1.9776 H   0  0  0  0  0  0  0  0  0  0  0  0
   -0.4874    1.2908    0.1962 C   0  0  0  0  0  0  0  0  0  0  0  0
   -1.3116    1.8673   -0.5151 O   0  0  0  0  0  0  0  0  0  0  0  0
    0.3889    1.9422    0.9708 N   0  0  0  0  0  0  0  0  0  0  0  0
    1.0197    1.3866    1.5283 H   0  0  0  0  0  0  0  0  0  0  0  0
    0.5081    3.3999    1.0720 C   0  0  0  0  0  0  0  0  0  0  0  0
    0.0188    3.7538    1.9817 H   0  0  0  0  0  0  0  0  0  0  0  0
    1.5607    3.6858    1.1098 H   0  0  0  0  0  0  0  0  0  0  0  0
    0.0459    3.8890    0.2119 H   0  0  0  0  0  0  0  0  0  0  0  0
  5  6  2  0  0  0  0
  5  7  1  0  0  0  0
  2  3  1  0  0  0  0
  2  4  1  0  0  0  0
  2  5  1  0  0  0  0
  1  2  1  0  0  0  0
 23 24  2  0  0  0  0
 23 25  1  0  0  0  0
 21 22  1  0  0  0  0
 19 20  1  0  0  0  0
 19 21  1  0  0  0  0
 17 18  1  0  0  0  0
 17 19  1  0  0  0  0
 15 16  1  0  0  0  0
 15 17  2  0  0  0  0
 14 15  1  0  0  0  0
 14 21  2  0  0  0  0
 11 12  1  0  0  0  0
 11 13  1  0  0  0  0
 11 14  1  0  0  0  0
  9 10  1  0  0  0  0
  9 11  1  0  0  0  0
  9 23  1  0  0  0  0
  7  8  1  0  0  0  0
  7  9  1  0  0  0  0
 27 28  1  0  0  0  0
 27 29  1  0  0  0  0
 27 30  1  0  0  0  0
 25 26  1  0  0  0  0
 25 27  1  0  0  0  0
M  CHG  1  15   1
M  END
$$$$
default_name
  -OEChem-02102213163D

 30 30  0     1  0  0  0  0  0999 V2000
   -3.5507   -3.2183    1.8116 H   0  0  0  0  0  0  0  0  0  0  0  0
   -3.4597   -2.3913    1.1076 C   0  0  0  0  0  0  0  0  0  0  0  0
   -4.1577   -1.6043    1.3866 H   0  0  0  0  0  0  0  0  0  0  0  0
   -3.6807   -2.7523    0.1036 H   0  0  0  0  0  0  0  0  0  0  0  0
   -2.0477   -1.8543    1.1546 C   0  0  0  0  0  0  0  0  0  0  0  0
   -1.2227   -2.3443    1.9146 O   0  0  0  0  0  0  0  0  0  0  0  0
   -1.7517   -0.8483    0.3266 N   0  0  0  0  0  0  0  0  0  0  0  0
   -2.4847   -0.5123   -0.2804 H   0  0  0  0  0  0  0  0  0  0  0  0
   -0.4117   -0.2463    0.2186 C   0  0  1  0  0  0  0  0  0  0  0  0
    0.1554   -0.5152    1.1133 H   0  0  0  0  0  0  0  0  0  0  0  0
    0.3164   -0.8780   -0.9905 C   0  0  0  0  0  0  0  0  0  0  0  0
    0.8318   -1.7810   -0.6537 H   0  0  0  0  0  0  0  0  0  0  0  0
   -0.4259   -1.1891   -1.7288 H   0  0  0  0  0  0  0  0  0  0  0  0
    1.3179    0.0231   -1.6813 C   0  0  0  0  0  0  0  0  0  0  0  0
    1.2356    1.4002   -1.7541 N   0  3  0  0  0  0  0  0  0  0  0  0
    0.5096    1.9485   -1.2840 H   0  0  0  0  0  0  0  0  0  0  0  0
    2.3001    1.8543   -2.4449 C   0  0  0  0  0  0  0  0  0  0  0  0
    2.5148    2.9003   -2.6546 H   0  0  0  0  0  0  0  0  0  0  0  0
    3.0557    0.7951   -2.8131 N   0  0  0  0  0  0  0  0  0  0  0  0
    3.9223    0.8354   -3.3430 H   0  0  0  0  0  0  0  0  0  0  0  0
    2.4530   -0.3629   -2.3416 C   0  0  0  0  0  0  0  0  0  0  0  0
    2.8059   -1.3829   -2.4664 H   0  0  0  0  0  0  0  0  0  0  0  0
   -0.4874    1.2908    0.1962 C   0  0  0  0  0  0  0  0  0  0  0  0
   -1.3116    1.8673   -0.5151 O   0  0  0  0  0  0  0  0  0  0  0  0
    0.3889    1.9422    0.9708 N   0  0  0  0  0  0  0  0  0  0  0  0
    1.0197    1.3866    1.5283 H   0  0  0  0  0  0  0  0  0  0  0  0
    0.5081    3.3999    1.0720 C   0  0  0  0  0  0  0  0  0  0  0  0
    0.0188    3.7538    1.9817 H   0  0  0  0  0  0  0  0  0  0  0  0
    1.5607    3.6858    1.1098 H   0  0  0  0  0  0  0  0  0  0  0  0
    0.0459    3.8890    0.2119 H   0  0  0  0  0  0  0  0  0  0  0  0
  5  6  2  0  0  0  0
  5  7  1  0  0  0  0
  2  3  1  0  0  0  0
  2  4  1  0  0  0  0
  2  5  1  0  0  0  0
  1  2  1  0  0  0  0
 23 24  2  0  0  0  0
 23 25  1  0  0  0  0
 21 22  1  0  0  0  0
 19 20  1  0  0  0  0
 19 21  1  0  0  0  0
 17 18  1  0  0  0  0
 17 19  1  0  0  0  0
 15 16  1  0  0  0  0
 15 17  2  0  0  0  0
 14 15  1  0  0  0  0
 14 21  2  0  0  0  0
 11 12  1  0  0  0  0
 11 13  1  0  0  0  0
 11 14  1  0  0  0  0
  9 10  1  0  0  0  0
  9 11  1  0  0  0  0
  9 23  1  0  0  0  0
  7  8  1  0  0  0  0
  7  9  1  0  0  0  0
 27 28  1  0  0  0  0
 27 29  1  0  0  0  0
 27 30  1  0  0  0  0
 25 26  1  0  0  0  0
 25 27  1  0  0  0  0
M  CHG  1  15   1
M  END
$$$$
default_name
  -OEChem-02102213163D

 30 30  0     1  0  0  0  0  0999 V2000
   -3.5507   -3.2183    1.8116 H   0  0  0  0  0  0  0  0  0  0  0  0
   -3.4597   -2.3913    1.1076 C   0  0  0  0  0  0  0  0  0  0  0  0
   -4.1577   -1.6043    1.3866 H   0  0  0  0  0  0  0  0  0  0  0  0
   -3.6807   -2.7523    0.1036 H   0  0  0  0  0  0  0  0  0  0  0  0
   -2.0477   -1.8543    1.1546 C   0  0  0  0  0  0  0  0  0  0  0  0
   -1.2227   -2.3443    1.9146 O   0  0  0  0  0  0  0  0  0  0  0  0
   -1.7517   -0.8483    0.3266 N   0  0  0  0  0  0  0  0  0  0  0  0
   -2.4847   -0.5123   -0.2804 H   0  0  0  0  0  0  0  0  0  0  0  0
   -0.4117   -0.2463    0.2186 C   0  0  1  0  0  0  0  0  0  0  0  0
    0.1554   -0.5152    1.1133 H   0  0  0  0  0  0  0  0  0  0  0  0
    0.3164   -0.8780   -0.9905 C   0  0  0  0  0  0  0  0  0  0  0  0
    0.8318   -1.7810   -0.6537 H   0  0  0  0  0  0  0  0  0  0  0  0
   -0.4259   -1.1891   -1.7288 H   0  0  0  0  0  0  0  0  0  0  0  0
    1.3179    0.0231   -1.6813 C   0  0  0  0  0  0  0  0  0  0  0  0
    1.4078    1.3917   -1.5156 N   0  3  0  0  0  0  0  0  0  0  0  0
    0.8354    1.9191   -0.8501 H   0  0  0  0  0  0  0  0  0  0  0  0
    2.4123    1.8490   -2.2892 C   0  0  0  0  0  0  0  0  0  0  0  0
    2.7303    2.8873   -2.3591 H   0  0  0  0  0  0  0  0  0  0  0  0
    2.9612    0.8004   -2.9431 N   0  0  0  0  0  0  0  0  0  0  0  0
    3.7404    0.8448   -3.5946 H   0  0  0  0  0  0  0  0  0  0  0  0
    2.2855   -0.3541   -2.5729 C   0  0  0  0  0  0  0  0  0  0  0  0
    2.4796   -1.3660   -2.9175 H   0  0  0  0  0  0  0  0  0  0  0  0
   -0.4874    1.2908    0.1962 C   0  0  0  0  0  0  0  0  0  0  0  0
   -1.3116    1.8673   -0.5151 O   0  0  0  0  0  0  0  0  0  0  0  0
    0.3889    1.9422    0.9708 N   0  0  0  0  0  0  0  0  0  0  0  0
    1.0197    1.3866    1.5283 H   0  0  0  0  0  0  0  0  0  0  0  0
    0.5081    3.3999    1.0720 C   0  0  0  0  0  0  0  0  0  0  0  0
    0.0188    3.7538    1.9817 H   0  0  0  0  0  0  0  0  0  0  0  0
    1.5607    3.6858    1.1098 H   0  0  0  0  0  0  0  0  0  0  0  0
    0.0459    3.8890    0.2119 H   0  0  0  0  0  0  0  0  0  0  0  0
  5  6  2  0  0  0  0
  5  7  1  0  0  0  0
  2  3  1  0  0  0  0
  2  4  1  0  0  0  0
  2  5  1  0  0  0  0
  1  2  1  0  0  0  0
 23 24  2  0  0  0  0
 23 25  1  0  0  0  0
 21 22  1  0  0  0  0
 19 20  1  0  0  0  0
 19 21  1  0  0  0  0
 17 18  1  0  0  0  0
 17 19  1  0  0  0  0
 15 16  1  0  0  0  0
 15 17  2  0  0  0  0
 14 15  1  0  0  0  0
 14 21  2  0  0  0  0
 11 12  1  0  0  0  0
 11 13  1  0  0  0  0
 11 14  1  0  0  0  0
  9 10  1  0  0  0  0
  9 11  1  0  0  0  0
  9 23  1  0  0  0  0
  7  8  1  0  0  0  0
  7  9  1  0  0  0  0
 27 28  1  0  0  0  0
 27 29  1  0  0  0  0
 27 30  1  0  0  0  0
 25 26  1  0  0  0  0
 25 27  1  0  0  0  0
M  CHG  1  15   1
M  END
$$$$
default_name
  -OEChem-02102213163D

 30 30  0     1  0  0  0  0  0999 V2000
   -3.5507   -3.2183    1.8116 H   0  0  0  0  0  0  0  0  0  0  0  0
   -3.4597   -2.3913    1.1076 C   0  0  0  0  0  0  0  0  0  0  0  0
   -4.1577   -1.6043    1.3866 H   0  0  0  0  0  0  0  0  0  0  0  0
   -3.6807   -2.7523    0.1036 H   0  0  0  0  0  0  0  0  0  0  0  0
   -2.0477   -1.8543    1.1546 C   0  0  0  0  0  0  0  0  0  0  0  0
   -1.2227   -2.3443    1.9146 O   0  0  0  0  0  0  0  0  0  0  0  0
   -1.7517   -0.8483    0.3266 N   0  0  0  0  0  0  0  0  0  0  0  0
   -2.4847   -0.5123   -0.2804 H   0  0  0  0  0  0  0  0  0  0  0  0
   -0.4117   -0.2463    0.2186 C   0  0  1  0  0  0  0  0  0  0  0  0
    0.1554   -0.5152    1.1133 H   0  0  0  0  0  0  0  0  0  0  0  0
    0.3164   -0.8780   -0.9905 C   0  0  0  0  0  0  0  0  0  0  0  0
    0.8318   -1.7810   -0.6537 H   0  0  0  0  0  0  0  0  0  0  0  0
   -0.4259   -1.1891   -1.7288 H   0  0  0  0  0  0  0  0  0  0  0  0
    1.3179    0.0231   -1.6813 C   0  0  0  0  0  0  0  0  0  0  0  0
    1.6098    1.3223   -1.3132 N   0  3  0  0  0  0  0  0  0  0  0  0
    1.2135    1.7778   -0.4862 H   0  0  0  0  0  0  0  0  0  0  0  0
    2.5441    1.8040   -2.1569 C   0  0  0  0  0  0  0  0  0  0  0  0
    2.9824    2.7988   -2.1090 H   0  0  0  0  0  0  0  0  0  0  0  0
    2.8505    0.8390   -3.0532 N   0  0  0  0  0  0  0  0  0  0  0  0
    3.5269    0.9185   -3.8080 H   0  0  0  0  0  0  0  0  0  0  0  0
    2.0892   -0.2862   -2.7689 C   0  0  0  0  0  0  0  0  0  0  0  0
    2.0970   -1.2340   -3.3000 H   0  0  0  0  0  0  0  0  0  0  0  0
   -0.4874    1.2908    0.1962 C   0  0  0  0  0  0  0  0  0  0  0  0
   -1.3116    1.8673   -0.5151 O   0  0  0  0  0  0  0  0  0  0  0  0
    0.3889    1.9422    0.9708 N   0  0  0  0  0  0  0  0  0  0  0  0
    1.0197    1.3866    1.5283 H   0  0  0  0  0  0  0  0  0  0  0  0
    0.5081    3.3999    1.0720 C   0  0  0  0  0  0  0  0  0  0  0  0
    0.0188    3.7538    1.9817 H   0  0  0  0  0  0  0  0  0  0  0  0
    1.5607    3.6858    1.1098 H   0  0  0  0  0  0  0  0  0  0  0  0
    0.0459    3.8890    0.2119 H   0  0  0  0  0  0  0  0  0  0  0  0
  5  6  2  0  0  0  0
  5  7  1  0  0  0  0
  2  3  1  0  0  0  0
  2  4  1  0  0  0  0
  2  5  1  0  0  0  0
  1  2  1  0  0  0  0
 23 24  2  0  0  0  0
 23 25  1  0  0  0  0
 21 22  1  0  0  0  0
 19 20  1  0  0  0  0
 19 21  1  0  0  0  0
 17 18  1  0  0  0  0
 17 19  1  0  0  0  0
 15 16  1  0  0  0  0
 15 17  2  0  0  0  0
 14 15  1  0  0  0  0
 14 21  2  0  0  0  0
 11 12  1  0  0  0  0
 11 13  1  0  0  0  0
 11 14  1  0  0  0  0
  9 10  1  0  0  0  0
  9 11  1  0  0  0  0
  9 23  1  0  0  0  0
  7  8  1  0  0  0  0
  7  9  1  0  0  0  0
 27 28  1  0  0  0  0
 27 29  1  0  0  0  0
 27 30  1  0  0  0  0
 25 26  1  0  0  0  0
 25 27  1  0  0  0  0
M  CHG  1  15   1
M  END
$$$$
default_name
  -OEChem-02102213163D

 30 30  0     1  0  0  0  0  0999 V2000
   -3.5507   -3.2183    1.8116 H   0  0  0  0  0  0  0  0  0  0  0  0
   -3.4597   -2.3913    1.1076 C   0  0  0  0  0  0  0  0  0  0  0  0
   -4.1577   -1.6043    1.3866 H   0  0  0  0  0  0  0  0  0  0  0  0
   -3.6807   -2.7523    0.1036 H   0  0  0  0  0  0  0  0  0  0  0  0
   -2.0477   -1.8543    1.1546 C   0  0  0  0  0  0  0  0  0  0  0  0
   -1.2227   -2.3443    1.9146 O   0  0  0  0  0  0  0  0  0  0  0  0
   -1.7517   -0.8483    0.3266 N   0  0  0  0  0  0  0  0  0  0  0  0
   -2.4847   -0.5123   -0.2804 H   0  0  0  0  0  0  0  0  0  0  0  0
   -0.4117   -0.2463    0.2186 C   0  0  1  0  0  0  0  0  0  0  0  0
    0.1554   -0.5152    1.1133 H   0  0  0  0  0  0  0  0  0  0  0  0
    0.3164   -0.8780   -0.9905 C   0  0  0  0  0  0  0  0  0  0  0  0
    0.8318   -1.7810   -0.6537 H   0  0  0  0  0  0  0  0  0  0  0  0
   -0.4259   -1.1891   -1.7288 H   0  0  0  0  0  0  0  0  0  0  0  0
    1.3179    0.0231   -1.6813 C   0  0  0  0  0  0  0  0  0  0  0  0
    1.8280    1.1967   -1.1607 N   0  3  0  0  0  0  0  0  0  0  0  0
    1.6181    1.5345   -0.2171 H   0  0  0  0  0  0  0  0  0  0  0  0
    2.6864    1.7223   -2.0571 C   0  0  0  0  0  0  0  0  0  0  0  0
    3.2540    2.6407   -1.9215 H   0  0  0  0  0  0  0  0  0  0  0  0
    2.7312    0.9082   -3.1359 N   0  0  0  0  0  0  0  0  0  0  0  0
    3.2966    1.0513   -3.9686 H   0  0  0  0  0  0  0  0  0  0  0  0
    1.8774   -0.1638   -2.9164 C   0  0  0  0  0  0  0  0  0  0  0  0
    1.6840   -0.9958   -3.5880 H   0  0  0  0  0  0  0  0  0  0  0  0
   -0.4874    1.2908    0.1962 C   0  0  0  0  0  0  0  0  0  0  0  0
   -1.3116    1.8673   -0.5151 O   0  0  0  0  0  0  0  0  0  0  0  0
    0.3889    1.9422    0.9708 N   0  0  0  0  0  0  0  0  0  0  0  0
    1.0197    1.3866    1.5283 H   0  0  0  0  0  0  0  0  0  0  0  0
    0.5081    3.3999    1.0720 C   0  0  0  0  0  0  0  0  0  0  0  0
    0.0188    3.7538    1.9817 H   0  0  0  0  0  0  0  0  0  0  0  0
    1.5607    3.6858    1.1098 H   0  0  0  0  0  0  0  0  0  0  0  0
    0.0459    3.8890    0.2119 H   0  0  0  0  0  0  0  0  0  0  0  0
  5  6  2  0  0  0  0
  5  7  1  0  0  0  0
  2  3  1  0  0  0  0
  2  4  1  0  0  0  0
  2  5  1  0  0  0  0
  1  2  1  0  0  0  0
 23 24  2  0  0  0  0
 23 25  1  0  0  0  0
 21 22  1  0  0  0  0
 19 20  1  0  0  0  0
 19 21  1  0  0  0  0
 17 18  1  0  0  0  0
 17 19  1  0  0  0  0
 15 16  1  0  0  0  0
 15 17  2  0  0  0  0
 14 15  1  0  0  0  0
 14 21  2  0  0  0  0
 11 12  1  0  0  0  0
 11 13  1  0  0  0  0
 11 14  1  0  0  0  0
  9 10  1  0  0  0  0
  9 11  1  0  0  0  0
  9 23  1  0  0  0  0
  7  8  1  0  0  0  0
  7  9  1  0  0  0  0
 27 28  1  0  0  0  0
 27 29  1  0  0  0  0
 27 30  1  0  0  0  0
 25 26  1  0  0  0  0
 25 27  1  0  0  0  0
M  CHG  1  15   1
M  END
$$$$
default_name
  -OEChem-02102213163D

 30 30  0     1  0  0  0  0  0999 V2000
   -3.5507   -3.2183    1.8116 H   0  0  0  0  0  0  0  0  0  0  0  0
   -3.4597   -2.3913    1.1076 C   0  0  0  0  0  0  0  0  0  0  0  0
   -4.1577   -1.6043    1.3866 H   0  0  0  0  0  0  0  0  0  0  0  0
   -3.6807   -2.7523    0.1036 H   0  0  0  0  0  0  0  0  0  0  0  0
   -2.0477   -1.8543    1.1546 C   0  0  0  0  0  0  0  0  0  0  0  0
   -1.2227   -2.3443    1.9146 O   0  0  0  0  0  0  0  0  0  0  0  0
   -1.7517   -0.8483    0.3266 N   0  0  0  0  0  0  0  0  0  0  0  0
   -2.4847   -0.5123   -0.2804 H   0  0  0  0  0  0  0  0  0  0  0  0
   -0.4117   -0.2463    0.2186 C   0  0  1  0  0  0  0  0  0  0  0  0
    0.1554   -0.5152    1.1133 H   0  0  0  0  0  0  0  0  0  0  0  0
    0.3164   -0.8780   -0.9905 C   0  0  0  0  0  0  0  0  0  0  0  0
    0.8318   -1.7810   -0.6537 H   0  0  0  0  0  0  0  0  0  0  0  0
   -0.4259   -1.1891   -1.7288 H   0  0  0  0  0  0  0  0  0  0  0  0
    1.3179    0.0231   -1.6813 C   0  0  0  0  0  0  0  0  0  0  0  0
    2.0474    1.0235   -1.0685 N   0  3  0  0  0  0  0  0  0  0  0  0
    2.0216    1.2056   -0.0611 H   0  0  0  0  0  0  0  0  0  0  0  0
    2.8296    1.6095   -1.9967 C   0  0  0  0  0  0  0  0  0  0  0  0
    3.5266    2.4238   -1.8092 H   0  0  0  0  0  0  0  0  0  0  0  0
    2.6114    1.0033   -3.1856 N   0  0  0  0  0  0  0  0  0  0  0  0
    3.0651    1.2343   -4.0655 H   0  0  0  0  0  0  0  0  0  0  0  0
    1.6645    0.0046   -3.0053 C   0  0  0  0  0  0  0  0  0  0  0  0
    1.2689   -0.6676   -3.7617 H   0  0  0  0  0  0  0  0  0  0  0  0
   -0.4874    1.2908    0.1962 C   0  0  0  0  0  0  0  0  0  0  0  0
   -1.3116    1.8673   -0.5151 O   0  0  0  0  0  0  0  0  0  0  0  0
    0.3889    1.9422    0.9708 N   0  0  0  0  0  0  0  0  0  0  0  0
    1.0197    1.3866    1.5283 H   0  0  0  0  0  0  0  0  0  0  0  0
    0.5081    3.3999    1.0720 C   0  0  0  0  0  0  0  0  0  0  0  0
    0.0188    3.7538    1.9817 H   0  0  0  0  0  0  0  0  0  0  0  0
    1.5607    3.6858    1.1098 H   0  0  0  0  0  0  0  0  0  0  0  0
    0.0459    3.8890    0.2119 H   0  0  0  0  0  0  0  0  0  0  0  0
  5  6  2  0  0  0  0
  5  7  1  0  0  0  0
  2  3  1  0  0  0  0
  2  4  1  0  0  0  0
  2  5  1  0  0  0  0
  1  2  1  0  0  0  0
 23 24  2  0  0  0  0
 23 25  1  0  0  0  0
 21 22  1  0  0  0  0
 19 20  1  0  0  0  0
 19 21  1  0  0  0  0
 17 18  1  0  0  0  0
 17 19  1  0  0  0  0
 15 16  1  0  0  0  0
 15 17  2  0  0  0  0
 14 15  1  0  0  0  0
 14 21  2  0  0  0  0
 11 12  1  0  0  0  0
 11 13  1  0  0  0  0
 11 14  1  0  0  0  0
  9 10  1  0  0  0  0
  9 11  1  0  0  0  0
  9 23  1  0  0  0  0
  7  8  1  0  0  0  0
  7  9  1  0  0  0  0
 27 28  1  0  0  0  0
 27 29  1  0  0  0  0
 27 30  1  0  0  0  0
 25 26  1  0  0  0  0
 25 27  1  0  0  0  0
M  CHG  1  15   1
M  END
$$$$
default_name
  -OEChem-02102213163D

 30 30  0     1  0  0  0  0  0999 V2000
   -3.5507   -3.2183    1.8116 H   0  0  0  0  0  0  0  0  0  0  0  0
   -3.4597   -2.3913    1.1076 C   0  0  0  0  0  0  0  0  0  0  0  0
   -4.1577   -1.6043    1.3866 H   0  0  0  0  0  0  0  0  0  0  0  0
   -3.6807   -2.7523    0.1036 H   0  0  0  0  0  0  0  0  0  0  0  0
   -2.0477   -1.8543    1.1546 C   0  0  0  0  0  0  0  0  0  0  0  0
   -1.2227   -2.3443    1.9146 O   0  0  0  0  0  0  0  0  0  0  0  0
   -1.7517   -0.8483    0.3266 N   0  0  0  0  0  0  0  0  0  0  0  0
   -2.4847   -0.5123   -0.2804 H   0  0  0  0  0  0  0  0  0  0  0  0
   -0.4117   -0.2463    0.2186 C   0  0  1  0  0  0  0  0  0  0  0  0
    0.1554   -0.5152    1.1133 H   0  0  0  0  0  0  0  0  0  0  0  0
    0.3164   -0.8780   -0.9905 C   0  0  0  0  0  0  0  0  0  0  0  0
    0.8318   -1.7810   -0.6537 H   0  0  0  0  0  0  0  0  0  0  0  0
   -0.4259   -1.1891   -1.7288 H   0  0  0  0  0  0  0  0  0  0  0  0
    1.3179    0.0231   -1.6813 C   0  0  0  0  0  0  0  0  0  0  0  0
    2.2531    0.8146   -1.0429 N   0  3  0  0  0  0  0  0  0  0  0  0
    2.3965    0.8135   -0.0290 H   0  0  0  0  0  0  0  0  0  0  0  0
    2.9639    1.4733   -1.9797 C   0  0  0  0  0  0  0  0  0  0  0  0
    3.7816    2.1628   -1.7800 H   0  0  0  0  0  0  0  0  0  0  0  0
    2.4993    1.1178   -3.1988 N   0  0  0  0  0  0  0  0  0  0  0  0
    2.8481    1.4551   -4.0922 H   0  0  0  0  0  0  0  0  0  0  0  0
    1.4651    0.2076   -3.0296 C   0  0  0  0  0  0  0  0  0  0  0  0
    0.8799   -0.2719   -3.8094 H   0  0  0  0  0  0  0  0  0  0  0  0
   -0.4874    1.2908    0.1962 C   0  0  0  0  0  0  0  0  0  0  0  0
   -1.3116    1.8673   -0.5151 O   0  0  0  0  0  0  0  0  0  0  0  0
    0.3889    1.9422    0.9708 N   0  0  0  0  0  0  0  0  0  0  0  0
    1.0197    1.3866    1.5283 H   0  0  0  0  0  0  0  0  0  0  0  0
    0.5081    3.3999    1.0720 C   0  0  0  0  0  0  0  0  0  0  0  0
    0.0188    3.7538    1.9817 H   0  0  0  0  0  0  0  0  0  0  0  0
    1.5607    3.6858    1.1098 H   0  0  0  0  0  0  0  0  0  0  0  0
    0.0459    3.8890    0.2119 H   0  0  0  0  0  0  0  0  0  0  0  0
  5  6  2  0  0  0  0
  5  7  1  0  0  0  0
  2  3  1  0  0  0  0
  2  4  1  0  0  0  0
  2  5  1  0  0  0  0
  1  2  1  0  0  0  0
 23 24  2  0  0  0  0
 23 25  1  0  0  0  0
 21 22  1  0  0  0  0
 19 20  1  0  0  0  0
 19 21  1  0  0  0  0
 17 18  1  0  0  0  0
 17 19  1  0  0  0  0
 15 16  1  0  0  0  0
 15 17  2  0  0  0  0
 14 15  1  0  0  0  0
 14 21  2  0  0  0  0
 11 12  1  0  0  0  0
 11 13  1  0  0  0  0
 11 14  1  0  0  0  0
  9 10  1  0  0  0  0
  9 11  1  0  0  0  0
  9 23  1  0  0  0  0
  7  8  1  0  0  0  0
  7  9  1  0  0  0  0
 27 28  1  0  0  0  0
 27 29  1  0  0  0  0
 27 30  1  0  0  0  0
 25 26  1  0  0  0  0
 25 27  1  0  0  0  0
M  CHG  1  15   1
M  END
$$$$
default_name
  -OEChem-02102213163D

 30 30  0     1  0  0  0  0  0999 V2000
   -3.5507   -3.2183    1.8116 H   0  0  0  0  0  0  0  0  0  0  0  0
   -3.4597   -2.3913    1.1076 C   0  0  0  0  0  0  0  0  0  0  0  0
   -4.1577   -1.6043    1.3866 H   0  0  0  0  0  0  0  0  0  0  0  0
   -3.6807   -2.7523    0.1036 H   0  0  0  0  0  0  0  0  0  0  0  0
   -2.0477   -1.8543    1.1546 C   0  0  0  0  0  0  0  0  0  0  0  0
   -1.2227   -2.3443    1.9146 O   0  0  0  0  0  0  0  0  0  0  0  0
   -1.7517   -0.8483    0.3266 N   0  0  0  0  0  0  0  0  0  0  0  0
   -2.4847   -0.5123   -0.2804 H   0  0  0  0  0  0  0  0  0  0  0  0
   -0.4117   -0.2463    0.2186 C   0  0  1  0  0  0  0  0  0  0  0  0
    0.1554   -0.5152    1.1133 H   0  0  0  0  0  0  0  0  0  0  0  0
    0.3164   -0.8780   -0.9905 C   0  0  0  0  0  0  0  0  0  0  0  0
    0.8318   -1.7810   -0.6537 H   0  0  0  0  0  0  0  0  0  0  0  0
   -0.4259   -1.1891   -1.7288 H   0  0  0  0  0  0  0  0  0  0  0  0
    1.3179    0.0231   -1.6813 C   0  0  0  0  0  0  0  0  0  0  0  0
    2.4310    0.5841   -1.0857 N   0  3  0  0  0  0  0  0  0  0  0  0
    2.7173    0.3850   -0.1228 H   0  0  0  0  0  0  0  0  0  0  0  0
    3.0801    1.3229   -2.0073 C   0  0  0  0  0  0  0  0  0  0  0  0
    4.0016    1.8757   -1.8356 H   0  0  0  0  0  0  0  0  0  0  0  0
    2.4024    1.2439   -3.1747 N   0  0  0  0  0  0  0  0  0  0  0  0
    2.6605    1.6984   -4.0467 H   0  0  0  0  0  0  0  0  0  0  0  0
    1.2927    0.4315   -2.9875 C   0  0  0  0  0  0  0  0  0  0  0  0
    0.5436    0.1645   -3.7278 H   0  0  0  0  0  0  0  0  0  0  0  0
   -0.4874    1.2908    0.1962 C   0  0  0  0  0  0  0  0  0  0  0  0
   -1.3116    1.8673   -0.5151 O   0  0  0  0  0  0  0  0  0  0  0  0
    0.3889    1.9422    0.9708 N   0  0  0  0  0  0  0  0  0  0  0  0
    1.0197    1.3866    1.5283 H   0  0  0  0  0  0  0  0  0  0  0  0
    0.5081    3.3999    1.0720 C   0  0  0  0  0  0  0  0  0  0  0  0
    0.0188    3.7538    1.9817 H   0  0  0  0  0  0  0  0  0  0  0  0
    1.5607    3.6858    1.1098 H   0  0  0  0  0  0  0  0  0  0  0  0
    0.0459    3.8890    0.2119 H   0  0  0  0  0  0  0  0  0  0  0  0
  5  6  2  0  0  0  0
  5  7  1  0  0  0  0
  2  3  1  0  0  0  0
  2  4  1  0  0  0  0
  2  5  1  0  0  0  0
  1  2  1  0  0  0  0
 23 24  2  0  0  0  0
 23 25  1  0  0  0  0
 21 22  1  0  0  0  0
 19 20  1  0  0  0  0
 19 21  1  0  0  0  0
 17 18  1  0  0  0  0
 17 19  1  0  0  0  0
 15 16  1  0  0  0  0
 15 17  2  0  0  0  0
 14 15  1  0  0  0  0
 14 21  2  0  0  0  0
 11 12  1  0  0  0  0
 11 13  1  0  0  0  0
 11 14  1  0  0  0  0
  9 10  1  0  0  0  0
  9 11  1  0  0  0  0
  9 23  1  0  0  0  0
  7  8  1  0  0  0  0
  7  9  1  0  0  0  0
 27 28  1  0  0  0  0
 27 29  1  0  0  0  0
 27 30  1  0  0  0  0
 25 26  1  0  0  0  0
 25 27  1  0  0  0  0
M  CHG  1  15   1
M  END
$$$$
default_name
  -OEChem-02102213163D

 30 30  0     1  0  0  0  0  0999 V2000
   -3.5507   -3.2183    1.8116 H   0  0  0  0  0  0  0  0  0  0  0  0
   -3.4597   -2.3913    1.1076 C   0  0  0  0  0  0  0  0  0  0  0  0
   -4.1577   -1.6043    1.3866 H   0  0  0  0  0  0  0  0  0  0  0  0
   -3.6807   -2.7523    0.1036 H   0  0  0  0  0  0  0  0  0  0  0  0
   -2.0477   -1.8543    1.1546 C   0  0  0  0  0  0  0  0  0  0  0  0
   -1.2227   -2.3443    1.9146 O   0  0  0  0  0  0  0  0  0  0  0  0
   -1.7517   -0.8483    0.3266 N   0  0  0  0  0  0  0  0  0  0  0  0
   -2.4847   -0.5123   -0.2804 H   0  0  0  0  0  0  0  0  0  0  0  0
   -0.4117   -0.2463    0.2186 C   0  0  1  0  0  0  0  0  0  0  0  0
    0.1554   -0.5152    1.1133 H   0  0  0  0  0  0  0  0  0  0  0  0
    0.3164   -0.8780   -0.9905 C   0  0  0  0  0  0  0  0  0  0  0  0
    0.8318   -1.7810   -0.6537 H   0  0  0  0  0  0  0  0  0  0  0  0
   -0.4259   -1.1891   -1.7288 H   0  0  0  0  0  0  0  0  0  0  0  0
    1.3179    0.0231   -1.6813 C   0  0  0  0  0  0  0  0  0  0  0  0
    2.5691    0.3477   -1.1938 N   0  3  0  0  0  0  0  0  0  0  0  0
    2.9621   -0.0507   -0.3362 H   0  0  0  0  0  0  0  0  0  0  0  0
    3.1704    1.1687   -2.0776 C   0  0  0  0  0  0  0  0  0  0  0  0
    4.1716    1.5819   -1.9724 H   0  0  0  0  0  0  0  0  0  0  0  0
    2.3275    1.3730   -3.1149 N   0  0  0  0  0  0  0  0  0  0  0  0
    2.5150    1.9479   -3.9321 H   0  0  0  0  0  0  0  0  0  0  0  0
    1.1591    0.6609   -2.8820 C   0  0  0  0  0  0  0  0  0  0  0  0
    0.2828    0.6118   -3.5224 H   0  0  0  0  0  0  0  0  0  0  0  0
   -0.4874    1.2908    0.1962 C   0  0  0  0  0  0  0  0  0  0  0  0
   -1.3116    1.8673   -0.5151 O   0  0  0  0  0  0  0  0  0  0  0  0
    0.3889    1.9422    0.9708 N   0  0  0  0  0  0  0  0  0  0  0  0
    1.0197    1.3866    1.5283 H   0  0  0  0  0  0  0  0  0  0  0  0
    0.5081    3.3999    1.0720 C   0  0  0  0  0  0  0  0  0  0  0  0
    0.0188    3.7538    1.9817 H   0  0  0  0  0  0  0  0  0  0  0  0
    1.5607    3.6858    1.1098 H   0  0  0  0  0  0  0  0  0  0  0  0
    0.0459    3.8890    0.2119 H   0  0  0  0  0  0  0  0  0  0  0  0
  5  6  2  0  0  0  0
  5  7  1  0  0  0  0
  2  3  1  0  0  0  0
  2  4  1  0  0  0  0
  2  5  1  0  0  0  0
  1  2  1  0  0  0  0
 23 24  2  0  0  0  0
 23 25  1  0  0  0  0
 21 22  1  0  0  0  0
 19 20  1  0  0  0  0
 19 21  1  0  0  0  0
 17 18  1  0  0  0  0
 17 19  1  0  0  0  0
 15 16  1  0  0  0  0
 15 17  2  0  0  0  0
 14 15  1  0  0  0  0
 14 21  2  0  0  0  0
 11 12  1  0  0  0  0
 11 13  1  0  0  0  0
 11 14  1  0  0  0  0
  9 10  1  0  0  0  0
  9 11  1  0  0  0  0
  9 23  1  0  0  0  0
  7  8  1  0  0  0  0
  7  9  1  0  0  0  0
 27 28  1  0  0  0  0
 27 29  1  0  0  0  0
 27 30  1  0  0  0  0
 25 26  1  0  0  0  0
 25 27  1  0  0  0  0
M  CHG  1  15   1
M  END
$$$$
default_name
  -OEChem-02102213163D

 30 30  0     1  0  0  0  0  0999 V2000
   -3.5507   -3.2183    1.8116 H   0  0  0  0  0  0  0  0  0  0  0  0
   -3.4597   -2.3913    1.1076 C   0  0  0  0  0  0  0  0  0  0  0  0
   -4.1577   -1.6043    1.3866 H   0  0  0  0  0  0  0  0  0  0  0  0
   -3.6807   -2.7523    0.1036 H   0  0  0  0  0  0  0  0  0  0  0  0
   -2.0477   -1.8543    1.1546 C   0  0  0  0  0  0  0  0  0  0  0  0
   -1.2227   -2.3443    1.9146 O   0  0  0  0  0  0  0  0  0  0  0  0
   -1.7517   -0.8483    0.3266 N   0  0  0  0  0  0  0  0  0  0  0  0
   -2.4847   -0.5123   -0.2804 H   0  0  0  0  0  0  0  0  0  0  0  0
   -0.4117   -0.2463    0.2186 C   0  0  1  0  0  0  0  0  0  0  0  0
    0.1554   -0.5152    1.1133 H   0  0  0  0  0  0  0  0  0  0  0  0
    0.3164   -0.8780   -0.9905 C   0  0  0  0  0  0  0  0  0  0  0  0
    0.8318   -1.7810   -0.6537 H   0  0  0  0  0  0  0  0  0  0  0  0
   -0.4259   -1.1891   -1.7288 H   0  0  0  0  0  0  0  0  0  0  0  0
    1.3179    0.0231   -1.6813 C   0  0  0  0  0  0  0  0  0  0  0  0
    2.6579    0.1216   -1.3600 N   0  3  0  0  0  0  0  0  0  0  0  0
    3.1143   -0.4639   -0.6546 H   0  0  0  0  0  0  0  0  0  0  0  0
    3.2286    1.0211   -2.1858 C   0  0  0  0  0  0  0  0  0  0  0  0
    4.2800    1.3014   -2.1811 H   0  0  0  0  0  0  0  0  0  0  0  0
    2.2795    1.4964   -3.0235 N   0  0  0  0  0  0  0  0  0  0  0  0
    2.4216    2.1864   -3.7564 H   0  0  0  0  0  0  0  0  0  0  0  0
    1.0734    0.8801   -2.7202 C   0  0  0  0  0  0  0  0  0  0  0  0
    0.1154    1.0394   -3.2073 H   0  0  0  0  0  0  0  0  0  0  0  0
   -0.4874    1.2908    0.1962 C   0  0  0  0  0  0  0  0  0  0  0  0
   -1.3116    1.8673   -0.5151 O   0  0  0  0  0  0  0  0  0  0  0  0
    0.3889    1.9422    0.9708 N   0  0  0  0  0  0  0  0  0  0  0  0
    1.0197    1.3866    1.5283 H   0  0  0  0  0  0  0  0  0  0  0  0
    0.5081    3.3999    1.0720 C   0  0  0  0  0  0  0  0  0  0  0  0
    0.0188    3.7538    1.9817 H   0  0  0  0  0  0  0  0  0  0  0  0
    1.5607    3.6858    1.1098 H   0  0  0  0  0  0  0  0  0  0  0  0
    0.0459    3.8890    0.2119 H   0  0  0  0  0  0  0  0  0  0  0  0
  5  6  2  0  0  0  0
  5  7  1  0  0  0  0
  2  3  1  0  0  0  0
  2  4  1  0  0  0  0
  2  5  1  0  0  0  0
  1  2  1  0  0  0  0
 23 24  2  0  0  0  0
 23 25  1  0  0  0  0
 21 22  1  0  0  0  0
 19 20  1  0  0  0  0
 19 21  1  0  0  0  0
 17 18  1  0  0  0  0
 17 19  1  0  0  0  0
 15 16  1  0  0  0  0
 15 17  2  0  0  0  0
 14 15  1  0  0  0  0
 14 21  2  0  0  0  0
 11 12  1  0  0  0  0
 11 13  1  0  0  0  0
 11 14  1  0  0  0  0
  9 10  1  0  0  0  0
  9 11  1  0  0  0  0
  9 23  1  0  0  0  0
  7  8  1  0  0  0  0
  7  9  1  0  0  0  0
 27 28  1  0  0  0  0
 27 29  1  0  0  0  0
 27 30  1  0  0  0  0
 25 26  1  0  0  0  0
 25 27  1  0  0  0  0
M  CHG  1  15   1
M  END
$$$$
default_name
  -OEChem-02102213163D

 30 30  0     1  0  0  0  0  0999 V2000
   -3.5507   -3.2183    1.8116 H   0  0  0  0  0  0  0  0  0  0  0  0
   -3.4597   -2.3913    1.1076 C   0  0  0  0  0  0  0  0  0  0  0  0
   -4.1577   -1.6043    1.3866 H   0  0  0  0  0  0  0  0  0  0  0  0
   -3.6807   -2.7523    0.1036 H   0  0  0  0  0  0  0  0  0  0  0  0
   -2.0477   -1.8543    1.1546 C   0  0  0  0  0  0  0  0  0  0  0  0
   -1.2227   -2.3443    1.9146 O   0  0  0  0  0  0  0  0  0  0  0  0
   -1.7517   -0.8483    0.3266 N   0  0  0  0  0  0  0  0  0  0  0  0
   -2.4847   -0.5123   -0.2804 H   0  0  0  0  0  0  0  0  0  0  0  0
   -0.4117   -0.2463    0.2186 C   0  0  1  0  0  0  0  0  0  0  0  0
    0.1554   -0.5152    1.1133 H   0  0  0  0  0  0  0  0  0  0  0  0
    0.3164   -0.8780   -0.9905 C   0  0  0  0  0  0  0  0  0  0  0  0
    0.8318   -1.7810   -0.6537 H   0  0  0  0  0  0  0  0  0  0  0  0
   -0.4259   -1.1891   -1.7288 H   0  0  0  0  0  0  0  0  0  0  0  0
    1.3179    0.0231   -1.6813 C   0  0  0  0  0  0  0  0  0  0  0  0
    2.6913   -0.0788   -1.5729 N   0  3  0  0  0  0  0  0  0  0  0  0
    3.1634   -0.8265   -1.0564 H   0  0  0  0  0  0  0  0  0  0  0  0
    3.2507    0.8902   -2.3245 C   0  0  0  0  0  0  0  0  0  0  0  0
    4.3195    1.0534   -2.4474 H   0  0  0  0  0  0  0  0  0  0  0  0
    2.2619    1.6055   -2.9067 N   0  0  0  0  0  0  0  0  0  0  0  0
    2.3866    2.3978   -3.5314 H   0  0  0  0  0  0  0  0  0  0  0  0
    1.0414    1.0743   -2.5132 C   0  0  0  0  0  0  0  0  0  0  0  0
    0.0527    1.4183   -2.8040 H   0  0  0  0  0  0  0  0  0  0  0  0
   -0.4874    1.2908    0.1962 C   0  0  0  0  0  0  0  0  0  0  0  0
   -1.3116    1.8673   -0.5151 O   0  0  0  0  0  0  0  0  0  0  0  0
    0.3889    1.9422    0.9708 N   0  0  0  0  0  0  0  0  0  0  0  0
    1.0197    1.3866    1.5283 H   0  0  0  0  0  0  0  0  0  0  0  0
    0.5081    3.3999    1.0720 C   0  0  0  0  0  0  0  0  0  0  0  0
    0.0188    3.7538    1.9817 H   0  0  0  0  0  0  0  0  0  0  0  0
    1.5607    3.6858    1.1098 H   0  0  0  0  0  0  0  0  0  0  0  0
    0.0459    3.8890    0.2119 H   0  0  0  0  0  0  0  0  0  0  0  0
  5  6  2  0  0  0  0
  5  7  1  0  0  0  0
  2  3  1  0  0  0  0
  2  4  1  0  0  0  0
  2  5  1  0  0  0  0
  1  2  1  0  0  0  0
 23 24  2  0  0  0  0
 23 25  1  0  0  0  0
 21 22  1  0  0  0  0
 19 20  1  0  0  0  0
 19 21  1  0  0  0  0
 17 18  1  0  0  0  0
 17 19  1  0  0  0  0
 15 16  1  0  0  0  0
 15 17  2  0  0  0  0
 14 15  1  0  0  0  0
 14 21  2  0  0  0  0
 11 12  1  0  0  0  0
 11 13  1  0  0  0  0
 11 14  1  0  0  0  0
  9 10  1  0  0  0  0
  9 11  1  0  0  0  0
  9 23  1  0  0  0  0
  7  8  1  0  0  0  0
  7  9  1  0  0  0  0
 27 28  1  0  0  0  0
 27 29  1  0  0  0  0
 27 30  1  0  0  0  0
 25 26  1  0  0  0  0
 25 27  1  0  0  0  0
M  CHG  1  15   1
M  END
$$$$
default_name
  -OEChem-02102213163D

 30 30  0     1  0  0  0  0  0999 V2000
   -3.5507   -3.2183    1.8116 H   0  0  0  0  0  0  0  0  0  0  0  0
   -3.4597   -2.3913    1.1076 C   0  0  0  0  0  0  0  0  0  0  0  0
   -4.1577   -1.6043    1.3866 H   0  0  0  0  0  0  0  0  0  0  0  0
   -3.6807   -2.7523    0.1036 H   0  0  0  0  0  0  0  0  0  0  0  0
   -2.0477   -1.8543    1.1546 C   0  0  0  0  0  0  0  0  0  0  0  0
   -1.2227   -2.3443    1.9146 O   0  0  0  0  0  0  0  0  0  0  0  0
   -1.7517   -0.8483    0.3266 N   0  0  0  0  0  0  0  0  0  0  0  0
   -2.4847   -0.5123   -0.2804 H   0  0  0  0  0  0  0  0  0  0  0  0
   -0.4117   -0.2463    0.2186 C   0  0  1  0  0  0  0  0  0  0  0  0
    0.1554   -0.5152    1.1133 H   0  0  0  0  0  0  0  0  0  0  0  0
    0.3164   -0.8780   -0.9905 C   0  0  0  0  0  0  0  0  0  0  0  0
    0.8318   -1.7810   -0.6537 H   0  0  0  0  0  0  0  0  0  0  0  0
   -0.4259   -1.1891   -1.7288 H   0  0  0  0  0  0  0  0  0  0  0  0
    1.3179    0.0231   -1.6813 C   0  0  0  0  0  0  0  0  0  0  0  0
    2.6672   -0.2398   -1.8180 N   0  3  0  0  0  0  0  0  0  0  0  0
    3.1062   -1.1137   -1.5142 H   0  0  0  0  0  0  0  0  0  0  0  0
    3.2352    0.7849   -2.4844 C   0  0  0  0  0  0  0  0  0  0  0  0
    4.2873    0.8548   -2.7531 H   0  0  0  0  0  0  0  0  0  0  0  0
    2.2757    1.6930   -2.7725 N   0  0  0  0  0  0  0  0  0  0  0  0
    2.4124    2.5676   -3.2725 H   0  0  0  0  0  0  0  0  0  0  0  0
    1.0654    1.2303   -2.2751 C   0  0  0  0  0  0  0  0  0  0  0  0
    0.0990    1.7226   -2.3398 H   0  0  0  0  0  0  0  0  0  0  0  0
   -0.4874    1.2908    0.1962 C   0  0  0  0  0  0  0  0  0  0  0  0
   -1.3116    1.8673   -0.5151 O   0  0  0  0  0  0  0  0  0  0  0  0
    0.3889    1.9422    0.9708 N   0  0  0  0  0  0  0  0  0  0  0  0
    1.0197    1.3866    1.5283 H   0  0  0  0  0  0  0  0  0  0  0  0
    0.5081    3.3999    1.0720 C   0  0  0  0  0  0  0  0  0  0  0  0
    0.0188    3.7538    1.9817 H   0  0  0  0  0  0  0  0  0  0  0  0
    1.5607    3.6858    1.1098 H   0  0  0  0  0  0  0  0  0  0  0  0
    0.0459    3.8890    0.2119 H   0  0  0  0  0  0  0  0  0  0  0  0
  5  6  2  0  0  0  0
  5  7  1  0  0  0  0
  2  3  1  0  0  0  0
  2  4  1  0  0  0  0
  2  5  1  0  0  0  0
  1  2  1  0  0  0  0
 23 24  2  0  0  0  0
 23 25  1  0  0  0  0
 21 22  1  0  0  0  0
 19 20  1  0  0  0  0
 19 21  1  0  0  0  0
 17 18  1  0  0  0  0
 17 19  1  0  0  0  0
 15 16  1  0  0  0  0
 15 17  2  0  0  0  0
 14 15  1  0  0  0  0
 14 21  2  0  0  0  0
 11 12  1  0  0  0  0
 11 13  1  0  0  0  0
 11 14  1  0  0  0  0
  9 10  1  0  0  0  0
  9 11  1  0  0  0  0
  9 23  1  0  0  0  0
  7  8  1  0  0  0  0
  7  9  1  0  0  0  0
 27 28  1  0  0  0  0
 27 29  1  0  0  0  0
 27 30  1  0  0  0  0
 25 26  1  0  0  0  0
 25 27  1  0  0  0  0
M  CHG  1  15   1
M  END
$$$$
default_name
  -OEChem-02102213163D

 30 30  0     1  0  0  0  0  0999 V2000
   -3.5507   -3.2183    1.8116 H   0  0  0  0  0  0  0  0  0  0  0  0
   -3.4597   -2.3913    1.1076 C   0  0  0  0  0  0  0  0  0  0  0  0
   -4.1577   -1.6043    1.3866 H   0  0  0  0  0  0  0  0  0  0  0  0
   -3.6807   -2.7523    0.1036 H   0  0  0  0  0  0  0  0  0  0  0  0
   -2.0477   -1.8543    1.1546 C   0  0  0  0  0  0  0  0  0  0  0  0
   -1.2227   -2.3443    1.9146 O   0  0  0  0  0  0  0  0  0  0  0  0
   -1.7517   -0.8483    0.3266 N   0  0  0  0  0  0  0  0  0  0  0  0
   -2.4847   -0.5123   -0.2804 H   0  0  0  0  0  0  0  0  0  0  0  0
   -0.4117   -0.2463    0.2186 C   0  0  1  0  0  0  0  0  0  0  0  0
    0.1554   -0.5152    1.1133 H   0  0  0  0  0  0  0  0  0  0  0  0
    0.3164   -0.8780   -0.9905 C   0  0  0  0  0  0  0  0  0  0  0  0
    0.8318   -1.7810   -0.6537 H   0  0  0  0  0  0  0  0  0  0  0  0
   -0.4259   -1.1891   -1.7288 H   0  0  0  0  0  0  0  0  0  0  0  0
    1.3179    0.0231   -1.6813 C   0  0  0  0  0  0  0  0  0  0  0  0
    2.5871   -0.3506   -2.0787 N   0  3  0  0  0  0  0  0  0  0  0  0
    2.9464   -1.3061   -1.9967 H   0  0  0  0  0  0  0  0  0  0  0  0
    3.1832    0.7123   -2.6544 C   0  0  0  0  0  0  0  0  0  0  0  0
    4.1857    0.7191   -3.0774 H   0  0  0  0  0  0  0  0  0  0  0  0
    2.3201    1.7529   -2.6300 N   0  0  0  0  0  0  0  0  0  0  0  0
    2.4973    2.6842   -2.9974 H   0  0  0  0  0  0  0  0  0  0  0  0
    1.1436    1.3373   -2.0221 C   0  0  0  0  0  0  0  0  0  0  0  0
    0.2512    1.9316   -1.8465 H   0  0  0  0  0  0  0  0  0  0  0  0
   -0.4874    1.2908    0.1962 C   0  0  0  0  0  0  0  0  0  0  0  0
   -1.3116    1.8673   -0.5151 O   0  0  0  0  0  0  0  0  0  0  0  0
    0.3889    1.9422    0.9708 N   0  0  0  0  0  0  0  0  0  0  0  0
    1.0197    1.3866    1.5283 H   0  0  0  0  0  0  0  0  0  0  0  0
    0.5081    3.3999    1.0720 C   0  0  0  0  0  0  0  0  0  0  0  0
    0.0188    3.7538    1.9817 H   0  0  0  0  0  0  0  0  0  0  0  0
    1.5607    3.6858    1.1098 H   0  0  0  0  0  0  0  0  0  0  0  0
    0.0459    3.8890    0.2119 H   0  0  0  0  0  0  0  0  0  0  0  0
  5  6  2  0  0  0  0
  5  7  1  0  0  0  0
  2  3  1  0  0  0  0
  2  4  1  0  0  0  0
  2  5  1  0  0  0  0
  1  2  1  0  0  0  0
 23 24  2  0  0  0  0
 23 25  1  0  0  0  0
 21 22  1  0  0  0  0
 19 20  1  0  0  0  0
 19 21  1  0  0  0  0
 17 18  1  0  0  0  0
 17 19  1  0  0  0  0
 15 16  1  0  0  0  0
 15 17  2  0  0  0  0
 14 15  1  0  0  0  0
 14 21  2  0  0  0  0
 11 12  1  0  0  0  0
 11 13  1  0  0  0  0
 11 14  1  0  0  0  0
  9 10  1  0  0  0  0
  9 11  1  0  0  0  0
  9 23  1  0  0  0  0
  7  8  1  0  0  0  0
  7  9  1  0  0  0  0
 27 28  1  0  0  0  0
 27 29  1  0  0  0  0
 27 30  1  0  0  0  0
 25 26  1  0  0  0  0
 25 27  1  0  0  0  0
M  CHG  1  15   1
M  END
$$$$
default_name
  -OEChem-02102213163D

 30 30  0     1  0  0  0  0  0999 V2000
   -3.5507   -3.2183    1.8116 H   0  0  0  0  0  0  0  0  0  0  0  0
   -3.4597   -2.3913    1.1076 C   0  0  0  0  0  0  0  0  0  0  0  0
   -4.1577   -1.6043    1.3866 H   0  0  0  0  0  0  0  0  0  0  0  0
   -3.6807   -2.7523    0.1036 H   0  0  0  0  0  0  0  0  0  0  0  0
   -2.0477   -1.8543    1.1546 C   0  0  0  0  0  0  0  0  0  0  0  0
   -1.2227   -2.3443    1.9146 O   0  0  0  0  0  0  0  0  0  0  0  0
   -1.7517   -0.8483    0.3266 N   0  0  0  0  0  0  0  0  0  0  0  0
   -2.4847   -0.5123   -0.2804 H   0  0  0  0  0  0  0  0  0  0  0  0
   -0.4117   -0.2463    0.2186 C   0  0  1  0  0  0  0  0  0  0  0  0
    0.1554   -0.5152    1.1133 H   0  0  0  0  0  0  0  0  0  0  0  0
    0.3164   -0.8780   -0.9905 C   0  0  0  0  0  0  0  0  0  0  0  0
    0.8318   -1.7810   -0.6537 H   0  0  0  0  0  0  0  0  0  0  0  0
   -0.4259   -1.1891   -1.7288 H   0  0  0  0  0  0  0  0  0  0  0  0
    1.3179    0.0231   -1.6813 C   0  0  0  0  0  0  0  0  0  0  0  0
    2.4565   -0.4035   -2.3370 N   0  3  0  0  0  0  0  0  0  0  0  0
    2.6951   -1.3904   -2.4710 H   0  0  0  0  0  0  0  0  0  0  0  0
    3.0982    0.6775   -2.8231 C   0  0  0  0  0  0  0  0  0  0  0  0
    4.0215    0.6556   -3.3983 H   0  0  0  0  0  0  0  0  0  0  0  0
    2.3919    1.7812   -2.4890 N   0  0  0  0  0  0  0  0  0  0  0  0
    2.6354    2.7397   -2.7247 H   0  0  0  0  0  0  0  0  0  0  0  0
    1.2708    1.3881   -1.7714 C   0  0  0  0  0  0  0  0  0  0  0  0
    0.4988    2.0311   -1.3576 H   0  0  0  0  0  0  0  0  0  0  0  0
   -0.4874    1.2908    0.1962 C   0  0  0  0  0  0  0  0  0  0  0  0
   -1.3116    1.8673   -0.5151 O   0  0  0  0  0  0  0  0  0  0  0  0
    0.3889    1.9422    0.9708 N   0  0  0  0  0  0  0  0  0  0  0  0
    1.0197    1.3866    1.5283 H   0  0  0  0  0  0  0  0  0  0  0  0
    0.5081    3.3999    1.0720 C   0  0  0  0  0  0  0  0  0  0  0  0
    0.0188    3.7538    1.9817 H   0  0  0  0  0  0  0  0  0  0  0  0
    1.5607    3.6858    1.1098 H   0  0  0  0  0  0  0  0  0  0  0  0
    0.0459    3.8890    0.2119 H   0  0  0  0  0  0  0  0  0  0  0  0
  5  6  2  0  0  0  0
  5  7  1  0  0  0  0
  2  3  1  0  0  0  0
  2  4  1  0  0  0  0
  2  5  1  0  0  0  0
  1  2  1  0  0  0  0
 23 24  2  0  0  0  0
 23 25  1  0  0  0  0
 21 22  1  0  0  0  0
 19 20  1  0  0  0  0
 19 21  1  0  0  0  0
 17 18  1  0  0  0  0
 17 19  1  0  0  0  0
 15 16  1  0  0  0  0
 15 17  2  0  0  0  0
 14 15  1  0  0  0  0
 14 21  2  0  0  0  0
 11 12  1  0  0  0  0
 11 13  1  0  0  0  0
 11 14  1  0  0  0  0
  9 10  1  0  0  0  0
  9 11  1  0  0  0  0
  9 23  1  0  0  0  0
  7  8  1  0  0  0  0
  7  9  1  0  0  0  0
 27 28  1  0  0  0  0
 27 29  1  0  0  0  0
 27 30  1  0  0  0  0
 25 26  1  0  0  0  0
 25 27  1  0  0  0  0
M  CHG  1  15   1
M  END
$$$$
default_name
  -OEChem-02102213163D

 30 30  0     1  0  0  0  0  0999 V2000
   -3.5507   -3.2183    1.8116 H   0  0  0  0  0  0  0  0  0  0  0  0
   -3.4597   -2.3913    1.1076 C   0  0  0  0  0  0  0  0  0  0  0  0
   -4.1577   -1.6043    1.3866 H   0  0  0  0  0  0  0  0  0  0  0  0
   -3.6807   -2.7523    0.1036 H   0  0  0  0  0  0  0  0  0  0  0  0
   -2.0477   -1.8543    1.1546 C   0  0  0  0  0  0  0  0  0  0  0  0
   -1.2227   -2.3443    1.9146 O   0  0  0  0  0  0  0  0  0  0  0  0
   -1.7517   -0.8483    0.3266 N   0  0  0  0  0  0  0  0  0  0  0  0
   -2.4847   -0.5123   -0.2804 H   0  0  0  0  0  0  0  0  0  0  0  0
   -0.4117   -0.2463    0.2186 C   0  0  1  0  0  0  0  0  0  0  0  0
    0.1554   -0.5152    1.1133 H   0  0  0  0  0  0  0  0  0  0  0  0
    0.3164   -0.8780   -0.9905 C   0  0  0  0  0  0  0  0  0  0  0  0
    0.8318   -1.7810   -0.6537 H   0  0  0  0  0  0  0  0  0  0  0  0
   -0.4259   -1.1891   -1.7288 H   0  0  0  0  0  0  0  0  0  0  0  0
    1.3179    0.0231   -1.6813 C   0  0  0  0  0  0  0  0  0  0  0  0
    2.2843   -0.3950   -2.5756 N   0  3  0  0  0  0  0  0  0  0  0  0
    2.3693   -1.3609   -2.9050 H   0  0  0  0  0  0  0  0  0  0  0  0
    2.9860    0.6828   -2.9788 C   0  0  0  0  0  0  0  0  0  0  0  0
    3.8061    0.6685   -3.6939 H   0  0  0  0  0  0  0  0  0  0  0  0
    2.4864    1.7758   -2.3590 N   0  0  0  0  0  0  0  0  0  0  0  0
    2.8174    2.7303   -2.4731 H   0  0  0  0  0  0  0  0  0  0  0  0
    1.4382    1.3793   -1.5401 C   0  0  0  0  0  0  0  0  0  0  0  0
    0.8251    2.0142   -0.9066 H   0  0  0  0  0  0  0  0  0  0  0  0
   -0.4874    1.2908    0.1962 C   0  0  0  0  0  0  0  0  0  0  0  0
   -1.3116    1.8673   -0.5151 O   0  0  0  0  0  0  0  0  0  0  0  0
    0.3889    1.9422    0.9708 N   0  0  0  0  0  0  0  0  0  0  0  0
    1.0197    1.3866    1.5283 H   0  0  0  0  0  0  0  0  0  0  0  0
    0.5081    3.3999    1.0720 C   0  0  0  0  0  0  0  0  0  0  0  0
    0.0188    3.7538    1.9817 H   0  0  0  0  0  0  0  0  0  0  0  0
    1.5607    3.6858    1.1098 H   0  0  0  0  0  0  0  0  0  0  0  0
    0.0459    3.8890    0.2119 H   0  0  0  0  0  0  0  0  0  0  0  0
  5  6  2  0  0  0  0
  5  7  1  0  0  0  0
  2  3  1  0  0  0  0
  2  4  1  0  0  0  0
  2  5  1  0  0  0  0
  1  2  1  0  0  0  0
 23 24  2  0  0  0  0
 23 25  1  0  0  0  0
 21 22  1  0  0  0  0
 19 20  1  0  0  0  0
 19 21  1  0  0  0  0
 17 18  1  0  0  0  0
 17 19  1  0  0  0  0
 15 16  1  0  0  0  0
 15 17  2  0  0  0  0
 14 15  1  0  0  0  0
 14 21  2  0  0  0  0
 11 12  1  0  0  0  0
 11 13  1  0  0  0  0
 11 14  1  0  0  0  0
  9 10  1  0  0  0  0
  9 11  1  0  0  0  0
  9 23  1  0  0  0  0
  7  8  1  0  0  0  0
  7  9  1  0  0  0  0
 27 28  1  0  0  0  0
 27 29  1  0  0  0  0
 27 30  1  0  0  0  0
 25 26  1  0  0  0  0
 25 27  1  0  0  0  0
M  CHG  1  15   1
M  END
$$$$
default_name
  -OEChem-02102213163D

 30 30  0     1  0  0  0  0  0999 V2000
   -3.5507   -3.2183    1.8116 H   0  0  0  0  0  0  0  0  0  0  0  0
   -3.4597   -2.3913    1.1076 C   0  0  0  0  0  0  0  0  0  0  0  0
   -4.1577   -1.6043    1.3866 H   0  0  0  0  0  0  0  0  0  0  0  0
   -3.6807   -2.7523    0.1036 H   0  0  0  0  0  0  0  0  0  0  0  0
   -2.0477   -1.8543    1.1546 C   0  0  0  0  0  0  0  0  0  0  0  0
   -1.2227   -2.3443    1.9146 O   0  0  0  0  0  0  0  0  0  0  0  0
   -1.7517   -0.8483    0.3266 N   0  0  0  0  0  0  0  0  0  0  0  0
   -2.4847   -0.5123   -0.2804 H   0  0  0  0  0  0  0  0  0  0  0  0
   -0.4117   -0.2463    0.2186 C   0  0  1  0  0  0  0  0  0  0  0  0
    0.1554   -0.5152    1.1133 H   0  0  0  0  0  0  0  0  0  0  0  0
    0.3164   -0.8780   -0.9905 C   0  0  0  0  0  0  0  0  0  0  0  0
    0.6015   -1.9004   -0.7300 H   0  0  0  0  0  0  0  0  0  0  0  0
   -0.3798   -0.9432   -1.8295 H   0  0  0  0  0  0  0  0  0  0  0  0
    1.5495   -0.1350   -1.4592 C   0  0  0  0  0  0  0  0  0  0  0  0
    2.3550   -0.5119   -2.5164 N   0  3  0  0  0  0  0  0  0  0  0  0
    2.1494   -1.3071   -3.1280 H   0  0  0  0  0  0  0  0  0  0  0  0
    3.3522    0.3874   -2.6334 C   0  0  0  0  0  0  0  0  0  0  0  0
    4.1376    0.3619   -3.3861 H   0  0  0  0  0  0  0  0  0  0  0  0
    3.1976    1.3261   -1.6725 N   0  0  0  0  0  0  0  0  0  0  0  0
    3.8011    2.1300   -1.5208 H   0  0  0  0  0  0  0  0  0  0  0  0
    2.0701    1.0130   -0.9260 C   0  0  0  0  0  0  0  0  0  0  0  0
    1.6695    1.5658   -0.0808 H   0  0  0  0  0  0  0  0  0  0  0  0
   -0.4874    1.2908    0.1962 C   0  0  0  0  0  0  0  0  0  0  0  0
   -1.3116    1.8673   -0.5151 O   0  0  0  0  0  0  0  0  0  0  0  0
    0.3889    1.9422    0.9708 N   0  0  0  0  0  0  0  0  0  0  0  0
    1.0197    1.3866    1.5283 H   0  0  0  0  0  0  0  0  0  0  0  0
    0.5081    3.3999    1.0720 C   0  0  0  0  0  0  0  0  0  0  0  0
    0.0188    3.7538    1.9817 H   0  0  0  0  0  0  0  0  0  0  0  0
    1.5607    3.6858    1.1098 H   0  0  0  0  0  0  0  0  0  0  0  0
    0.0459    3.8890    0.2119 H   0  0  0  0  0  0  0  0  0  0  0  0
  5  6  2  0  0  0  0
  5  7  1  0  0  0  0
  2  3  1  0  0  0  0
  2  4  1  0  0  0  0
  2  5  1  0  0  0  0
  1  2  1  0  0  0  0
 23 24  2  0  0  0  0
 23 25  1  0  0  0  0
 21 22  1  0  0  0  0
 19 20  1  0  0  0  0
 19 21  1  0  0  0  0
 17 18  1  0  0  0  0
 17 19  1  0  0  0  0
 15 16  1  0  0  0  0
 15 17  2  0  0  0  0
 14 15  1  0  0  0  0
 14 21  2  0  0  0  0
 11 12  1  0  0  0  0
 11 13  1  0  0  0  0
 11 14  1  0  0  0  0
  9 10  1  0  0  0  0
  9 11  1  0  0  0  0
  9 23  1  0  0  0  0
  7  8  1  0  0  0  0
  7  9  1  0  0  0  0
 27 28  1  0  0  0  0
 27 29  1  0  0  0  0
 27 30  1  0  0  0  0
 25 26  1  0  0  0  0
 25 27  1  0  0  0  0
M  CHG  1  15   1
M  END
$$$$
default_name
  -OEChem-02102213163D

 30 30  0     1  0  0  0  0  0999 V2000
   -3.5507   -3.2183    1.8116 H   0  0  0  0  0  0  0  0  0  0  0  0
   -3.4597   -2.3913    1.1076 C   0  0  0  0  0  0  0  0  0  0  0  0
   -4.1577   -1.6043    1.3866 H   0  0  0  0  0  0  0  0  0  0  0  0
   -3.6807   -2.7523    0.1036 H   0  0  0  0  0  0  0  0  0  0  0  0
   -2.0477   -1.8543    1.1546 C   0  0  0  0  0  0  0  0  0  0  0  0
   -1.2227   -2.3443    1.9146 O   0  0  0  0  0  0  0  0  0  0  0  0
   -1.7517   -0.8483    0.3266 N   0  0  0  0  0  0  0  0  0  0  0  0
   -2.4847   -0.5123   -0.2804 H   0  0  0  0  0  0  0  0  0  0  0  0
   -0.4117   -0.2463    0.2186 C   0  0  1  0  0  0  0  0  0  0  0  0
    0.1554   -0.5152    1.1133 H   0  0  0  0  0  0  0  0  0  0  0  0
    0.3164   -0.8780   -0.9905 C   0  0  0  0  0  0  0  0  0  0  0  0
    0.6015   -1.9004   -0.7300 H   0  0  0  0  0  0  0  0  0  0  0  0
   -0.3798   -0.9432   -1.8295 H   0  0  0  0  0  0  0  0  0  0  0  0
    1.5495   -0.1350   -1.4592 C   0  0  0  0  0  0  0  0  0  0  0  0
    2.1853   -0.3273   -2.6705 N   0  3  0  0  0  0  0  0  0  0  0  0
    1.8350   -0.9562   -3.3989 H   0  0  0  0  0  0  0  0  0  0  0  0
    3.2415    0.5075   -2.7342 C   0  0  0  0  0  0  0  0  0  0  0  0
    3.9263    0.5931   -3.5755 H   0  0  0  0  0  0  0  0  0  0  0  0
    3.2904    1.2248   -1.5890 N   0  0  0  0  0  0  0  0  0  0  0  0
    3.9803    1.9350   -1.3585 H   0  0  0  0  0  0  0  0  0  0  0  0
    2.2349    0.8335   -0.7769 C   0  0  0  0  0  0  0  0  0  0  0  0
    1.9908    1.2161    0.2102 H   0  0  0  0  0  0  0  0  0  0  0  0
   -0.4874    1.2908    0.1962 C   0  0  0  0  0  0  0  0  0  0  0  0
   -1.3116    1.8673   -0.5151 O   0  0  0  0  0  0  0  0  0  0  0  0
    0.3889    1.9422    0.9708 N   0  0  0  0  0  0  0  0  0  0  0  0
    1.0197    1.3866    1.5283 H   0  0  0  0  0  0  0  0  0  0  0  0
    0.5081    3.3999    1.0720 C   0  0  0  0  0  0  0  0  0  0  0  0
    0.0188    3.7538    1.9817 H   0  0  0  0  0  0  0  0  0  0  0  0
    1.5607    3.6858    1.1098 H   0  0  0  0  0  0  0  0  0  0  0  0
    0.0459    3.8890    0.2119 H   0  0  0  0  0  0  0  0  0  0  0  0
  5  6  2  0  0  0  0
  5  7  1  0  0  0  0
  2  3  1  0  0  0  0
  2  4  1  0  0  0  0
  2  5  1  0  0  0  0
  1  2  1  0  0  0  0
 23 24  2  0  0  0  0
 23 25  1  0  0  0  0
 21 22  1  0  0  0  0
 19 20  1  0  0  0  0
 19 21  1  0  0  0  0
 17 18  1  0  0  0  0
 17 19  1  0  0  0  0
 15 16  1  0  0  0  0
 15 17  2  0  0  0  0
 14 15  1  0  0  0  0
 14 21  2  0  0  0  0
 11 12  1  0  0  0  0
 11 13  1  0  0  0  0
 11 14  1  0  0  0  0
  9 10  1  0  0  0  0
  9 11  1  0  0  0  0
  9 23  1  0  0  0  0
  7  8  1  0  0  0  0
  7  9  1  0  0  0  0
 27 28  1  0  0  0  0
 27 29  1  0  0  0  0
 27 30  1  0  0  0  0
 25 26  1  0  0  0  0
 25 27  1  0  0  0  0
M  CHG  1  15   1
M  END
$$$$
default_name
  -OEChem-02102213163D

 30 30  0     1  0  0  0  0  0999 V2000
   -3.5507   -3.2183    1.8116 H   0  0  0  0  0  0  0  0  0  0  0  0
   -3.4597   -2.3913    1.1076 C   0  0  0  0  0  0  0  0  0  0  0  0
   -4.1577   -1.6043    1.3866 H   0  0  0  0  0  0  0  0  0  0  0  0
   -3.6807   -2.7523    0.1036 H   0  0  0  0  0  0  0  0  0  0  0  0
   -2.0477   -1.8543    1.1546 C   0  0  0  0  0  0  0  0  0  0  0  0
   -1.2227   -2.3443    1.9146 O   0  0  0  0  0  0  0  0  0  0  0  0
   -1.7517   -0.8483    0.3266 N   0  0  0  0  0  0  0  0  0  0  0  0
   -2.4847   -0.5123   -0.2804 H   0  0  0  0  0  0  0  0  0  0  0  0
   -0.4117   -0.2463    0.2186 C   0  0  1  0  0  0  0  0  0  0  0  0
    0.1554   -0.5152    1.1133 H   0  0  0  0  0  0  0  0  0  0  0  0
    0.3164   -0.8780   -0.9905 C   0  0  0  0  0  0  0  0  0  0  0  0
    0.6015   -1.9004   -0.7300 H   0  0  0  0  0  0  0  0  0  0  0  0
   -0.3798   -0.9432   -1.8295 H   0  0  0  0  0  0  0  0  0  0  0  0
    1.5495   -0.1350   -1.4592 C   0  0  0  0  0  0  0  0  0  0  0  0
    2.0165   -0.1030   -2.7590 N   0  3  0  0  0  0  0  0  0  0  0  0
    1.5251   -0.5351   -3.5467 H   0  0  0  0  0  0  0  0  0  0  0  0
    3.1313    0.6538   -2.7922 C   0  0  0  0  0  0  0  0  0  0  0  0
    3.7167    0.8733   -3.6828 H   0  0  0  0  0  0  0  0  0  0  0  0
    3.3825    1.1019   -1.5414 N   0  0  0  0  0  0  0  0  0  0  0  0
    4.1584    1.6980   -1.2655 H   0  0  0  0  0  0  0  0  0  0  0  0
    2.3986    0.6155   -0.6917 C   0  0  0  0  0  0  0  0  0  0  0  0
    2.3101    0.7913    0.3768 H   0  0  0  0  0  0  0  0  0  0  0  0
   -0.4874    1.2908    0.1962 C   0  0  0  0  0  0  0  0  0  0  0  0
   -1.3116    1.8673   -0.5151 O   0  0  0  0  0  0  0  0  0  0  0  0
    0.3889    1.9422    0.9708 N   0  0  0  0  0  0  0  0  0  0  0  0
    1.0197    1.3866    1.5283 H   0  0  0  0  0  0  0  0  0  0  0  0
    0.5081    3.3999    1.0720 C   0  0  0  0  0  0  0  0  0  0  0  0
    0.0188    3.7538    1.9817 H   0  0  0  0  0  0  0  0  0  0  0  0
    1.5607    3.6858    1.1098 H   0  0  0  0  0  0  0  0  0  0  0  0
    0.0459    3.8890    0.2119 H   0  0  0  0  0  0  0  0  0  0  0  0
  5  6  2  0  0  0  0
  5  7  1  0  0  0  0
  2  3  1  0  0  0  0
  2  4  1  0  0  0  0
  2  5  1  0  0  0  0
  1  2  1  0  0  0  0
 23 24  2  0  0  0  0
 23 25  1  0  0  0  0
 21 22  1  0  0  0  0
 19 20  1  0  0  0  0
 19 21  1  0  0  0  0
 17 18  1  0  0  0  0
 17 19  1  0  0  0  0
 15 16  1  0  0  0  0
 15 17  2  0  0  0  0
 14 15  1  0  0  0  0
 14 21  2  0  0  0  0
 11 12  1  0  0  0  0
 11 13  1  0  0  0  0
 11 14  1  0  0  0  0
  9 10  1  0  0  0  0
  9 11  1  0  0  0  0
  9 23  1  0  0  0  0
  7  8  1  0  0  0  0
  7  9  1  0  0  0  0
 27 28  1  0  0  0  0
 27 29  1  0  0  0  0
 27 30  1  0  0  0  0
 25 26  1  0  0  0  0
 25 27  1  0  0  0  0
M  CHG  1  15   1
M  END
$$$$
default_name
  -OEChem-02102213163D

 30 30  0     1  0  0  0  0  0999 V2000
   -3.5507   -3.2183    1.8116 H   0  0  0  0  0  0  0  0  0  0  0  0
   -3.4597   -2.3913    1.1076 C   0  0  0  0  0  0  0  0  0  0  0  0
   -4.1577   -1.6043    1.3866 H   0  0  0  0  0  0  0  0  0  0  0  0
   -3.6807   -2.7523    0.1036 H   0  0  0  0  0  0  0  0  0  0  0  0
   -2.0477   -1.8543    1.1546 C   0  0  0  0  0  0  0  0  0  0  0  0
   -1.2227   -2.3443    1.9146 O   0  0  0  0  0  0  0  0  0  0  0  0
   -1.7517   -0.8483    0.3266 N   0  0  0  0  0  0  0  0  0  0  0  0
   -2.4847   -0.5123   -0.2804 H   0  0  0  0  0  0  0  0  0  0  0  0
   -0.4117   -0.2463    0.2186 C   0  0  1  0  0  0  0  0  0  0  0  0
    0.1554   -0.5152    1.1133 H   0  0  0  0  0  0  0  0  0  0  0  0
    0.3164   -0.8780   -0.9905 C   0  0  0  0  0  0  0  0  0  0  0  0
    0.6015   -1.9004   -0.7300 H   0  0  0  0  0  0  0  0  0  0  0  0
   -0.3798   -0.9432   -1.8295 H   0  0  0  0  0  0  0  0  0  0  0  0
    1.5495   -0.1350   -1.4592 C   0  0  0  0  0  0  0  0  0  0  0  0
    1.8602    0.1458   -2.7757 N   0  3  0  0  0  0  0  0  0  0  0  0
    1.2407   -0.0722   -3.5614 H   0  0  0  0  0  0  0  0  0  0  0  0
    3.0293    0.8161   -2.8034 C   0  0  0  0  0  0  0  0  0  0  0  0
    3.5230    1.1833   -3.7008 H   0  0  0  0  0  0  0  0  0  0  0  0
    3.4677    0.9657   -1.5331 N   0  0  0  0  0  0  0  0  0  0  0  0
    4.3233    1.4353   -1.2483 H   0  0  0  0  0  0  0  0  0  0  0  0
    2.5501    0.3739   -0.6762 C   0  0  0  0  0  0  0  0  0  0  0  0
    2.6056    0.3202    0.4076 H   0  0  0  0  0  0  0  0  0  0  0  0
   -0.4874    1.2908    0.1962 C   0  0  0  0  0  0  0  0  0  0  0  0
   -1.3116    1.8673   -0.5151 O   0  0  0  0  0  0  0  0  0  0  0  0
    0.3889    1.9422    0.9708 N   0  0  0  0  0  0  0  0  0  0  0  0
    1.0197    1.3866    1.5283 H   0  0  0  0  0  0  0  0  0  0  0  0
    0.5081    3.3999    1.0720 C   0  0  0  0  0  0  0  0  0  0  0  0
    0.0188    3.7538    1.9817 H   0  0  0  0  0  0  0  0  0  0  0  0
    1.5607    3.6858    1.1098 H   0  0  0  0  0  0  0  0  0  0  0  0
    0.0459    3.8890    0.2119 H   0  0  0  0  0  0  0  0  0  0  0  0
  5  6  2  0  0  0  0
  5  7  1  0  0  0  0
  2  3  1  0  0  0  0
  2  4  1  0  0  0  0
  2  5  1  0  0  0  0
  1  2  1  0  0  0  0
 23 24  2  0  0  0  0
 23 25  1  0  0  0  0
 21 22  1  0  0  0  0
 19 20  1  0  0  0  0
 19 21  1  0  0  0  0
 17 18  1  0  0  0  0
 17 19  1  0  0  0  0
 15 16  1  0  0  0  0
 15 17  2  0  0  0  0
 14 15  1  0  0  0  0
 14 21  2  0  0  0  0
 11 12  1  0  0  0  0
 11 13  1  0  0  0  0
 11 14  1  0  0  0  0
  9 10  1  0  0  0  0
  9 11  1  0  0  0  0
  9 23  1  0  0  0  0
  7  8  1  0  0  0  0
  7  9  1  0  0  0  0
 27 28  1  0  0  0  0
 27 29  1  0  0  0  0
 27 30  1  0  0  0  0
 25 26  1  0  0  0  0
 25 27  1  0  0  0  0
M  CHG  1  15   1
M  END
$$$$
default_name
  -OEChem-02102213163D

 30 30  0     1  0  0  0  0  0999 V2000
   -3.5507   -3.2183    1.8116 H   0  0  0  0  0  0  0  0  0  0  0  0
   -3.4597   -2.3913    1.1076 C   0  0  0  0  0  0  0  0  0  0  0  0
   -4.1577   -1.6043    1.3866 H   0  0  0  0  0  0  0  0  0  0  0  0
   -3.6807   -2.7523    0.1036 H   0  0  0  0  0  0  0  0  0  0  0  0
   -2.0477   -1.8543    1.1546 C   0  0  0  0  0  0  0  0  0  0  0  0
   -1.2227   -2.3443    1.9146 O   0  0  0  0  0  0  0  0  0  0  0  0
   -1.7517   -0.8483    0.3266 N   0  0  0  0  0  0  0  0  0  0  0  0
   -2.4847   -0.5123   -0.2804 H   0  0  0  0  0  0  0  0  0  0  0  0
   -0.4117   -0.2463    0.2186 C   0  0  1  0  0  0  0  0  0  0  0  0
    0.1554   -0.5152    1.1133 H   0  0  0  0  0  0  0  0  0  0  0  0
    0.3164   -0.8780   -0.9905 C   0  0  0  0  0  0  0  0  0  0  0  0
    0.6015   -1.9004   -0.7300 H   0  0  0  0  0  0  0  0  0  0  0  0
   -0.3798   -0.9432   -1.8295 H   0  0  0  0  0  0  0  0  0  0  0  0
    1.5495   -0.1350   -1.4592 C   0  0  0  0  0  0  0  0  0  0  0  0
    1.7271    0.4022   -2.7195 N   0  3  0  0  0  0  0  0  0  0  0  0
    1.0012    0.4007   -3.4418 H   0  0  0  0  0  0  0  0  0  0  0  0
    2.9423    0.9834   -2.7671 C   0  0  0  0  0  0  0  0  0  0  0  0
    3.3585    1.5021   -3.6283 H   0  0  0  0  0  0  0  0  0  0  0  0
    3.5402    0.8256   -1.5646 N   0  0  0  0  0  0  0  0  0  0  0  0
    4.4636    1.1646   -1.3080 H   0  0  0  0  0  0  0  0  0  0  0  0
    2.6791    0.1250   -0.7313 C   0  0  0  0  0  0  0  0  0  0  0  0
    2.8572   -0.1650    0.3005 H   0  0  0  0  0  0  0  0  0  0  0  0
   -0.4874    1.2908    0.1962 C   0  0  0  0  0  0  0  0  0  0  0  0
   -1.3116    1.8673   -0.5151 O   0  0  0  0  0  0  0  0  0  0  0  0
    0.3889    1.9422    0.9708 N   0  0  0  0  0  0  0  0  0  0  0  0
    1.0197    1.3866    1.5283 H   0  0  0  0  0  0  0  0  0  0  0  0
    0.5081    3.3999    1.0720 C   0  0  0  0  0  0  0  0  0  0  0  0
    0.0188    3.7538    1.9817 H   0  0  0  0  0  0  0  0  0  0  0  0
    1.5607    3.6858    1.1098 H   0  0  0  0  0  0  0  0  0  0  0  0
    0.0459    3.8890    0.2119 H   0  0  0  0  0  0  0  0  0  0  0  0
  5  6  2  0  0  0  0
  5  7  1  0  0  0  0
  2  3  1  0  0  0  0
  2  4  1  0  0  0  0
  2  5  1  0  0  0  0
  1  2  1  0  0  0  0
 23 24  2  0  0  0  0
 23 25  1  0  0  0  0
 21 22  1  0  0  0  0
 19 20  1  0  0  0  0
 19 21  1  0  0  0  0
 17 18  1  0  0  0  0
 17 19  1  0  0  0  0
 15 16  1  0  0  0  0
 15 17  2  0  0  0  0
 14 15  1  0  0  0  0
 14 21  2  0  0  0  0
 11 12  1  0  0  0  0
 11 13  1  0  0  0  0
 11 14  1  0  0  0  0
  9 10  1  0  0  0  0
  9 11  1  0  0  0  0
  9 23  1  0  0  0  0
  7  8  1  0  0  0  0
  7  9  1  0  0  0  0
 27 28  1  0  0  0  0
 27 29  1  0  0  0  0
 27 30  1  0  0  0  0
 25 26  1  0  0  0  0
 25 27  1  0  0  0  0
M  CHG  1  15   1
M  END
$$$$
default_name
  -OEChem-02102213163D

 30 30  0     1  0  0  0  0  0999 V2000
   -3.5507   -3.2183    1.8116 H   0  0  0  0  0  0  0  0  0  0  0  0
   -3.4597   -2.3913    1.1076 C   0  0  0  0  0  0  0  0  0  0  0  0
   -4.1577   -1.6043    1.3866 H   0  0  0  0  0  0  0  0  0  0  0  0
   -3.6807   -2.7523    0.1036 H   0  0  0  0  0  0  0  0  0  0  0  0
   -2.0477   -1.8543    1.1546 C   0  0  0  0  0  0  0  0  0  0  0  0
   -1.2227   -2.3443    1.9146 O   0  0  0  0  0  0  0  0  0  0  0  0
   -1.7517   -0.8483    0.3266 N   0  0  0  0  0  0  0  0  0  0  0  0
   -2.4847   -0.5123   -0.2804 H   0  0  0  0  0  0  0  0  0  0  0  0
   -0.4117   -0.2463    0.2186 C   0  0  1  0  0  0  0  0  0  0  0  0
    0.1554   -0.5152    1.1133 H   0  0  0  0  0  0  0  0  0  0  0  0
    0.3164   -0.8780   -0.9905 C   0  0  0  0  0  0  0  0  0  0  0  0
    0.6015   -1.9004   -0.7300 H   0  0  0  0  0  0  0  0  0  0  0  0
   -0.3798   -0.9432   -1.8295 H   0  0  0  0  0  0  0  0  0  0  0  0
    1.5495   -0.1350   -1.4592 C   0  0  0  0  0  0  0  0  0  0  0  0
    1.6262    0.6487   -2.5943 N   0  3  0  0  0  0  0  0  0  0  0  0
    0.8229    0.8515   -3.1962 H   0  0  0  0  0  0  0  0  0  0  0  0
    2.8763    1.1443   -2.6857 C   0  0  0  0  0  0  0  0  0  0  0  0
    3.2344    1.8079   -3.4701 H   0  0  0  0  0  0  0  0  0  0  0  0
    3.5949    0.6911   -1.6337 N   0  0  0  0  0  0  0  0  0  0  0  0
    4.5699    0.9046   -1.4406 H   0  0  0  0  0  0  0  0  0  0  0  0
    2.7767   -0.1140   -0.8534 C   0  0  0  0  0  0  0  0  0  0  0  0
    3.0478   -0.6313    0.0628 H   0  0  0  0  0  0  0  0  0  0  0  0
   -0.4874    1.2908    0.1962 C   0  0  0  0  0  0  0  0  0  0  0  0
   -1.3116    1.8673   -0.5151 O   0  0  0  0  0  0  0  0  0  0  0  0
    0.3889    1.9422    0.9708 N   0  0  0  0  0  0  0  0  0  0  0  0
    1.0197    1.3866    1.5283 H   0  0  0  0  0  0  0  0  0  0  0  0
    0.5081    3.3999    1.0720 C   0  0  0  0  0  0  0  0  0  0  0  0
    0.0188    3.7538    1.9817 H   0  0  0  0  0  0  0  0  0  0  0  0
    1.5607    3.6858    1.1098 H   0  0  0  0  0  0  0  0  0  0  0  0
    0.0459    3.8890    0.2119 H   0  0  0  0  0  0  0  0  0  0  0  0
  5  6  2  0  0  0  0
  5  7  1  0  0  0  0
  2  3  1  0  0  0  0
  2  4  1  0  0  0  0
  2  5  1  0  0  0  0
  1  2  1  0  0  0  0
 23 24  2  0  0  0  0
 23 25  1  0  0  0  0
 21 22  1  0  0  0  0
 19 20  1  0  0  0  0
 19 21  1  0  0  0  0
 17 18  1  0  0  0  0
 17 19  1  0  0  0  0
 15 16  1  0  0  0  0
 15 17  2  0  0  0  0
 14 15  1  0  0  0  0
 14 21  2  0  0  0  0
 11 12  1  0  0  0  0
 11 13  1  0  0  0  0
 11 14  1  0  0  0  0
  9 10  1  0  0  0  0
  9 11  1  0  0  0  0
  9 23  1  0  0  0  0
  7  8  1  0  0  0  0
  7  9  1  0  0  0  0
 27 28  1  0  0  0  0
 27 29  1  0  0  0  0
 27 30  1  0  0  0  0
 25 26  1  0  0  0  0
 25 27  1  0  0  0  0
M  CHG  1  15   1
M  END
$$$$
default_name
  -OEChem-02102213163D

 30 30  0     1  0  0  0  0  0999 V2000
   -3.5507   -3.2183    1.8116 H   0  0  0  0  0  0  0  0  0  0  0  0
   -3.4597   -2.3913    1.1076 C   0  0  0  0  0  0  0  0  0  0  0  0
   -4.1577   -1.6043    1.3866 H   0  0  0  0  0  0  0  0  0  0  0  0
   -3.6807   -2.7523    0.1036 H   0  0  0  0  0  0  0  0  0  0  0  0
   -2.0477   -1.8543    1.1546 C   0  0  0  0  0  0  0  0  0  0  0  0
   -1.2227   -2.3443    1.9146 O   0  0  0  0  0  0  0  0  0  0  0  0
   -1.7517   -0.8483    0.3266 N   0  0  0  0  0  0  0  0  0  0  0  0
   -2.4847   -0.5123   -0.2804 H   0  0  0  0  0  0  0  0  0  0  0  0
   -0.4117   -0.2463    0.2186 C   0  0  1  0  0  0  0  0  0  0  0  0
    0.1554   -0.5152    1.1133 H   0  0  0  0  0  0  0  0  0  0  0  0
    0.3164   -0.8780   -0.9905 C   0  0  0  0  0  0  0  0  0  0  0  0
    0.6015   -1.9004   -0.7300 H   0  0  0  0  0  0  0  0  0  0  0  0
   -0.3798   -0.9432   -1.8295 H   0  0  0  0  0  0  0  0  0  0  0  0
    1.5495   -0.1350   -1.4592 C   0  0  0  0  0  0  0  0  0  0  0  0
    1.5644    0.8684   -2.4086 N   0  3  0  0  0  0  0  0  0  0  0  0
    0.7180    1.2494   -2.8413 H   0  0  0  0  0  0  0  0  0  0  0  0
    2.8357    1.2879   -2.5647 C   0  0  0  0  0  0  0  0  0  0  0  0
    3.1591    2.0799   -3.2371 H   0  0  0  0  0  0  0  0  0  0  0  0
    3.6282    0.5714   -1.7358 N   0  0  0  0  0  0  0  0  0  0  0  0
    4.6349    0.6728   -1.6370 H   0  0  0  0  0  0  0  0  0  0  0  0
    2.8364   -0.3270   -1.0342 C   0  0  0  0  0  0  0  0  0  0  0  0
    3.1643   -1.0468   -0.2893 H   0  0  0  0  0  0  0  0  0  0  0  0
   -0.4874    1.2908    0.1962 C   0  0  0  0  0  0  0  0  0  0  0  0
   -1.3116    1.8673   -0.5151 O   0  0  0  0  0  0  0  0  0  0  0  0
    0.3889    1.9422    0.9708 N   0  0  0  0  0  0  0  0  0  0  0  0
    1.0197    1.3866    1.5283 H   0  0  0  0  0  0  0  0  0  0  0  0
    0.5081    3.3999    1.0720 C   0  0  0  0  0  0  0  0  0  0  0  0
    0.0188    3.7538    1.9817 H   0  0  0  0  0  0  0  0  0  0  0  0
    1.5607    3.6858    1.1098 H   0  0  0  0  0  0  0  0  0  0  0  0
    0.0459    3.8890    0.2119 H   0  0  0  0  0  0  0  0  0  0  0  0
  5  6  2  0  0  0  0
  5  7  1  0  0  0  0
  2  3  1  0  0  0  0
  2  4  1  0  0  0  0
  2  5  1  0  0  0  0
  1  2  1  0  0  0  0
 23 24  2  0  0  0  0
 23 25  1  0  0  0  0
 21 22  1  0  0  0  0
 19 20  1  0  0  0  0
 19 21  1  0  0  0  0
 17 18  1  0  0  0  0
 17 19  1  0  0  0  0
 15 16  1  0  0  0  0
 15 17  2  0  0  0  0
 14 15  1  0  0  0  0
 14 21  2  0  0  0  0
 11 12  1  0  0  0  0
 11 13  1  0  0  0  0
 11 14  1  0  0  0  0
  9 10  1  0  0  0  0
  9 11  1  0  0  0  0
  9 23  1  0  0  0  0
  7  8  1  0  0  0  0
  7  9  1  0  0  0  0
 27 28  1  0  0  0  0
 27 29  1  0  0  0  0
 27 30  1  0  0  0  0
 25 26  1  0  0  0  0
 25 27  1  0  0  0  0
M  CHG  1  15   1
M  END
$$$$
default_name
  -OEChem-02102213163D

 30 30  0     1  0  0  0  0  0999 V2000
   -3.5507   -3.2183    1.8116 H   0  0  0  0  0  0  0  0  0  0  0  0
   -3.4597   -2.3913    1.1076 C   0  0  0  0  0  0  0  0  0  0  0  0
   -4.1577   -1.6043    1.3866 H   0  0  0  0  0  0  0  0  0  0  0  0
   -3.6807   -2.7523    0.1036 H   0  0  0  0  0  0  0  0  0  0  0  0
   -2.0477   -1.8543    1.1546 C   0  0  0  0  0  0  0  0  0  0  0  0
   -1.2227   -2.3443    1.9146 O   0  0  0  0  0  0  0  0  0  0  0  0
   -1.7517   -0.8483    0.3266 N   0  0  0  0  0  0  0  0  0  0  0  0
   -2.4847   -0.5123   -0.2804 H   0  0  0  0  0  0  0  0  0  0  0  0
   -0.4117   -0.2463    0.2186 C   0  0  1  0  0  0  0  0  0  0  0  0
    0.1554   -0.5152    1.1133 H   0  0  0  0  0  0  0  0  0  0  0  0
    0.3164   -0.8780   -0.9905 C   0  0  0  0  0  0  0  0  0  0  0  0
    0.6015   -1.9004   -0.7300 H   0  0  0  0  0  0  0  0  0  0  0  0
   -0.3798   -0.9432   -1.8295 H   0  0  0  0  0  0  0  0  0  0  0  0
    1.5495   -0.1350   -1.4592 C   0  0  0  0  0  0  0  0  0  0  0  0
    1.5459    1.0465   -2.1750 N   0  3  0  0  0  0  0  0  0  0  0  0
    0.6937    1.5674   -2.4013 H   0  0  0  0  0  0  0  0  0  0  0  0
    2.8234    1.4043   -2.4125 C   0  0  0  0  0  0  0  0  0  0  0  0
    3.1377    2.2996   -2.9451 H   0  0  0  0  0  0  0  0  0  0  0  0
    3.6379    0.4747   -1.8639 N   0  0  0  0  0  0  0  0  0  0  0  0
    4.6542    0.4851   -1.8838 H   0  0  0  0  0  0  0  0  0  0  0  0
    2.8539   -0.4994   -1.2612 C   0  0  0  0  0  0  0  0  0  0  0  0
    3.1989   -1.3833   -0.7318 H   0  0  0  0  0  0  0  0  0  0  0  0
   -0.4874    1.2908    0.1962 C   0  0  0  0  0  0  0  0  0  0  0  0
   -1.3116    1.8673   -0.5151 O   0  0  0  0  0  0  0  0  0  0  0  0
    0.3889    1.9422    0.9708 N   0  0  0  0  0  0  0  0  0  0  0  0
    1.0197    1.3866    1.5283 H   0  0  0  0  0  0  0  0  0  0  0  0
    0.5081    3.3999    1.0720 C   0  0  0  0  0  0  0  0  0  0  0  0
    0.0188    3.7538    1.9817 H   0  0  0  0  0  0  0  0  0  0  0  0
    1.5607    3.6858    1.1098 H   0  0  0  0  0  0  0  0  0  0  0  0
    0.0459    3.8890    0.2119 H   0  0  0  0  0  0  0  0  0  0  0  0
  5  6  2  0  0  0  0
  5  7  1  0  0  0  0
  2  3  1  0  0  0  0
  2  4  1  0  0  0  0
  2  5  1  0  0  0  0
  1  2  1  0  0  0  0
 23 24  2  0  0  0  0
 23 25  1  0  0  0  0
 21 22  1  0  0  0  0
 19 20  1  0  0  0  0
 19 21  1  0  0  0  0
 17 18  1  0  0  0  0
 17 19  1  0  0  0  0
 15 16  1  0  0  0  0
 15 17  2  0  0  0  0
 14 15  1  0  0  0  0
 14 21  2  0  0  0  0
 11 12  1  0  0  0  0
 11 13  1  0  0  0  0
 11 14  1  0  0  0  0
  9 10  1  0  0  0  0
  9 11  1  0  0  0  0
  9 23  1  0  0  0  0
  7  8  1  0  0  0  0
  7  9  1  0  0  0  0
 27 28  1  0  0  0  0
 27 29  1  0  0  0  0
 27 30  1  0  0  0  0
 25 26  1  0  0  0  0
 25 27  1  0  0  0  0
M  CHG  1  15   1
M  END
$$$$
default_name
  -OEChem-02102213163D

 30 30  0     1  0  0  0  0  0999 V2000
   -3.5507   -3.2183    1.8116 H   0  0  0  0  0  0  0  0  0  0  0  0
   -3.4597   -2.3913    1.1076 C   0  0  0  0  0  0  0  0  0  0  0  0
   -4.1577   -1.6043    1.3866 H   0  0  0  0  0  0  0  0  0  0  0  0
   -3.6807   -2.7523    0.1036 H   0  0  0  0  0  0  0  0  0  0  0  0
   -2.0477   -1.8543    1.1546 C   0  0  0  0  0  0  0  0  0  0  0  0
   -1.2227   -2.3443    1.9146 O   0  0  0  0  0  0  0  0  0  0  0  0
   -1.7517   -0.8483    0.3266 N   0  0  0  0  0  0  0  0  0  0  0  0
   -2.4847   -0.5123   -0.2804 H   0  0  0  0  0  0  0  0  0  0  0  0
   -0.4117   -0.2463    0.2186 C   0  0  1  0  0  0  0  0  0  0  0  0
    0.1554   -0.5152    1.1133 H   0  0  0  0  0  0  0  0  0  0  0  0
    0.3164   -0.8780   -0.9905 C   0  0  0  0  0  0  0  0  0  0  0  0
    0.6015   -1.9004   -0.7300 H   0  0  0  0  0  0  0  0  0  0  0  0
   -0.3798   -0.9432   -1.8295 H   0  0  0  0  0  0  0  0  0  0  0  0
    1.5495   -0.1350   -1.4592 C   0  0  0  0  0  0  0  0  0  0  0  0
    1.5719    1.1708   -1.9095 N   0  3  0  0  0  0  0  0  0  0  0  0
    0.7515    1.7838   -1.9062 H   0  0  0  0  0  0  0  0  0  0  0  0
    2.8402    1.4856   -2.2393 C   0  0  0  0  0  0  0  0  0  0  0  0
    3.1718    2.4519   -2.6141 H   0  0  0  0  0  0  0  0  0  0  0  0
    3.6231    0.4074   -2.0092 N   0  0  0  0  0  0  0  0  0  0  0  0
    4.6265    0.3543   -2.1641 H   0  0  0  0  0  0  0  0  0  0  0  0
    2.8283   -0.6195   -1.5191 C   0  0  0  0  0  0  0  0  0  0  0  0
    3.1491   -1.6178   -1.2345 H   0  0  0  0  0  0  0  0  0  0  0  0
   -0.4874    1.2908    0.1962 C   0  0  0  0  0  0  0  0  0  0  0  0
   -1.3116    1.8673   -0.5151 O   0  0  0  0  0  0  0  0  0  0  0  0
    0.3889    1.9422    0.9708 N   0  0  0  0  0  0  0  0  0  0  0  0
    1.0197    1.3866    1.5283 H   0  0  0  0  0  0  0  0  0  0  0  0
    0.5081    3.3999    1.0720 C   0  0  0  0  0  0  0  0  0  0  0  0
    0.0188    3.7538    1.9817 H   0  0  0  0  0  0  0  0  0  0  0  0
    1.5607    3.6858    1.1098 H   0  0  0  0  0  0  0  0  0  0  0  0
    0.0459    3.8890    0.2119 H   0  0  0  0  0  0  0  0  0  0  0  0
  5  6  2  0  0  0  0
  5  7  1  0  0  0  0
  2  3  1  0  0  0  0
  2  4  1  0  0  0  0
  2  5  1  0  0  0  0
  1  2  1  0  0  0  0
 23 24  2  0  0  0  0
 23 25  1  0  0  0  0
 21 22  1  0  0  0  0
 19 20  1  0  0  0  0
 19 21  1  0  0  0  0
 17 18  1  0  0  0  0
 17 19  1  0  0  0  0
 15 16  1  0  0  0  0
 15 17  2  0  0  0  0
 14 15  1  0  0  0  0
 14 21  2  0  0  0  0
 11 12  1  0  0  0  0
 11 13  1  0  0  0  0
 11 14  1  0  0  0  0
  9 10  1  0  0  0  0
  9 11  1  0  0  0  0
  9 23  1  0  0  0  0
  7  8  1  0  0  0  0
  7  9  1  0  0  0  0
 27 28  1  0  0  0  0
 27 29  1  0  0  0  0
 27 30  1  0  0  0  0
 25 26  1  0  0  0  0
 25 27  1  0  0  0  0
M  CHG  1  15   1
M  END
$$$$
default_name
  -OEChem-02102213163D

 30 30  0     1  0  0  0  0  0999 V2000
   -3.5507   -3.2183    1.8116 H   0  0  0  0  0  0  0  0  0  0  0  0
   -3.4597   -2.3913    1.1076 C   0  0  0  0  0  0  0  0  0  0  0  0
   -4.1577   -1.6043    1.3866 H   0  0  0  0  0  0  0  0  0  0  0  0
   -3.6807   -2.7523    0.1036 H   0  0  0  0  0  0  0  0  0  0  0  0
   -2.0477   -1.8543    1.1546 C   0  0  0  0  0  0  0  0  0  0  0  0
   -1.2227   -2.3443    1.9146 O   0  0  0  0  0  0  0  0  0  0  0  0
   -1.7517   -0.8483    0.3266 N   0  0  0  0  0  0  0  0  0  0  0  0
   -2.4847   -0.5123   -0.2804 H   0  0  0  0  0  0  0  0  0  0  0  0
   -0.4117   -0.2463    0.2186 C   0  0  1  0  0  0  0  0  0  0  0  0
    0.1554   -0.5152    1.1133 H   0  0  0  0  0  0  0  0  0  0  0  0
    0.3164   -0.8780   -0.9905 C   0  0  0  0  0  0  0  0  0  0  0  0
    0.6015   -1.9004   -0.7300 H   0  0  0  0  0  0  0  0  0  0  0  0
   -0.3798   -0.9432   -1.8295 H   0  0  0  0  0  0  0  0  0  0  0  0
    1.5495   -0.1350   -1.4592 C   0  0  0  0  0  0  0  0  0  0  0  0
    1.6407    1.2328   -1.6301 N   0  3  0  0  0  0  0  0  0  0  0  0
    0.8876    1.8837   -1.3896 H   0  0  0  0  0  0  0  0  0  0  0  0
    2.8850    1.5264   -2.0571 C   0  0  0  0  0  0  0  0  0  0  0  0
    3.2589    2.5265   -2.2665 H   0  0  0  0  0  0  0  0  0  0  0  0
    3.5851    0.3743   -2.1619 N   0  0  0  0  0  0  0  0  0  0  0  0
    4.5536    0.2892   -2.4590 H   0  0  0  0  0  0  0  0  0  0  0  0
    2.7611   -0.6791   -1.7903 C   0  0  0  0  0  0  0  0  0  0  0  0
    3.0184   -1.7343   -1.7632 H   0  0  0  0  0  0  0  0  0  0  0  0
   -0.4874    1.2908    0.1962 C   0  0  0  0  0  0  0  0  0  0  0  0
   -1.3116    1.8673   -0.5151 O   0  0  0  0  0  0  0  0  0  0  0  0
    0.3889    1.9422    0.9708 N   0  0  0  0  0  0  0  0  0  0  0  0
    1.0197    1.3866    1.5283 H   0  0  0  0  0  0  0  0  0  0  0  0
    0.5081    3.3999    1.0720 C   0  0  0  0  0  0  0  0  0  0  0  0
    0.0188    3.7538    1.9817 H   0  0  0  0  0  0  0  0  0  0  0  0
    1.5607    3.6858    1.1098 H   0  0  0  0  0  0  0  0  0  0  0  0
    0.0459    3.8890    0.2119 H   0  0  0  0  0  0  0  0  0  0  0  0
  5  6  2  0  0  0  0
  5  7  1  0  0  0  0
  2  3  1  0  0  0  0
  2  4  1  0  0  0  0
  2  5  1  0  0  0  0
  1  2  1  0  0  0  0
 23 24  2  0  0  0  0
 23 25  1  0  0  0  0
 21 22  1  0  0  0  0
 19 20  1  0  0  0  0
 19 21  1  0  0  0  0
 17 18  1  0  0  0  0
 17 19  1  0  0  0  0
 15 16  1  0  0  0  0
 15 17  2  0  0  0  0
 14 15  1  0  0  0  0
 14 21  2  0  0  0  0
 11 12  1  0  0  0  0
 11 13  1  0  0  0  0
 11 14  1  0  0  0  0
  9 10  1  0  0  0  0
  9 11  1  0  0  0  0
  9 23  1  0  0  0  0
  7  8  1  0  0  0  0
  7  9  1  0  0  0  0
 27 28  1  0  0  0  0
 27 29  1  0  0  0  0
 27 30  1  0  0  0  0
 25 26  1  0  0  0  0
 25 27  1  0  0  0  0
M  CHG  1  15   1
M  END
$$$$
default_name
  -OEChem-02102213163D

 30 30  0     1  0  0  0  0  0999 V2000
   -3.5507   -3.2183    1.8116 H   0  0  0  0  0  0  0  0  0  0  0  0
   -3.4597   -2.3913    1.1076 C   0  0  0  0  0  0  0  0  0  0  0  0
   -4.1577   -1.6043    1.3866 H   0  0  0  0  0  0  0  0  0  0  0  0
   -3.6807   -2.7523    0.1036 H   0  0  0  0  0  0  0  0  0  0  0  0
   -2.0477   -1.8543    1.1546 C   0  0  0  0  0  0  0  0  0  0  0  0
   -1.2227   -2.3443    1.9146 O   0  0  0  0  0  0  0  0  0  0  0  0
   -1.7517   -0.8483    0.3266 N   0  0  0  0  0  0  0  0  0  0  0  0
   -2.4847   -0.5123   -0.2804 H   0  0  0  0  0  0  0  0  0  0  0  0
   -0.4117   -0.2463    0.2186 C   0  0  1  0  0  0  0  0  0  0  0  0
    0.1554   -0.5152    1.1133 H   0  0  0  0  0  0  0  0  0  0  0  0
    0.3164   -0.8780   -0.9905 C   0  0  0  0  0  0  0  0  0  0  0  0
    0.6015   -1.9004   -0.7300 H   0  0  0  0  0  0  0  0  0  0  0  0
   -0.3798   -0.9432   -1.8295 H   0  0  0  0  0  0  0  0  0  0  0  0
    1.5495   -0.1350   -1.4592 C   0  0  0  0  0  0  0  0  0  0  0  0
    1.7477    1.2282   -1.3560 N   0  3  0  0  0  0  0  0  0  0  0  0
    1.0927    1.8605   -0.8869 H   0  0  0  0  0  0  0  0  0  0  0  0
    2.9546    1.5237   -1.8781 C   0  0  0  0  0  0  0  0  0  0  0  0
    3.3932    2.5184   -1.9262 H   0  0  0  0  0  0  0  0  0  0  0  0
    3.5263    0.3775   -2.3116 N   0  0  0  0  0  0  0  0  0  0  0  0
    4.4405    0.2944   -2.7483 H   0  0  0  0  0  0  0  0  0  0  0  0
    2.6570   -0.6741   -2.0563 C   0  0  0  0  0  0  0  0  0  0  0  0
    2.8156   -1.7250   -2.2819 H   0  0  0  0  0  0  0  0  0  0  0  0
   -0.4874    1.2908    0.1962 C   0  0  0  0  0  0  0  0  0  0  0  0
   -1.3116    1.8673   -0.5151 O   0  0  0  0  0  0  0  0  0  0  0  0
    0.3889    1.9422    0.9708 N   0  0  0  0  0  0  0  0  0  0  0  0
    1.0197    1.3866    1.5283 H   0  0  0  0  0  0  0  0  0  0  0  0
    0.5081    3.3999    1.0720 C   0  0  0  0  0  0  0  0  0  0  0  0
    0.0188    3.7538    1.9817 H   0  0  0  0  0  0  0  0  0  0  0  0
    1.5607    3.6858    1.1098 H   0  0  0  0  0  0  0  0  0  0  0  0
    0.0459    3.8890    0.2119 H   0  0  0  0  0  0  0  0  0  0  0  0
  5  6  2  0  0  0  0
  5  7  1  0  0  0  0
  2  3  1  0  0  0  0
  2  4  1  0  0  0  0
  2  5  1  0  0  0  0
  1  2  1  0  0  0  0
 23 24  2  0  0  0  0
 23 25  1  0  0  0  0
 21 22  1  0  0  0  0
 19 20  1  0  0  0  0
 19 21  1  0  0  0  0
 17 18  1  0  0  0  0
 17 19  1  0  0  0  0
 15 16  1  0  0  0  0
 15 17  2  0  0  0  0
 14 15  1  0  0  0  0
 14 21  2  0  0  0  0
 11 12  1  0  0  0  0
 11 13  1  0  0  0  0
 11 14  1  0  0  0  0
  9 10  1  0  0  0  0
  9 11  1  0  0  0  0
  9 23  1  0  0  0  0
  7  8  1  0  0  0  0
  7  9  1  0  0  0  0
 27 28  1  0  0  0  0
 27 29  1  0  0  0  0
 27 30  1  0  0  0  0
 25 26  1  0  0  0  0
 25 27  1  0  0  0  0
M  CHG  1  15   1
M  END
$$$$
default_name
  -OEChem-02102213163D

 30 30  0     1  0  0  0  0  0999 V2000
   -3.5507   -3.2183    1.8116 H   0  0  0  0  0  0  0  0  0  0  0  0
   -3.4597   -2.3913    1.1076 C   0  0  0  0  0  0  0  0  0  0  0  0
   -4.1577   -1.6043    1.3866 H   0  0  0  0  0  0  0  0  0  0  0  0
   -3.6807   -2.7523    0.1036 H   0  0  0  0  0  0  0  0  0  0  0  0
   -2.0477   -1.8543    1.1546 C   0  0  0  0  0  0  0  0  0  0  0  0
   -1.2227   -2.3443    1.9146 O   0  0  0  0  0  0  0  0  0  0  0  0
   -1.7517   -0.8483    0.3266 N   0  0  0  0  0  0  0  0  0  0  0  0
   -2.4847   -0.5123   -0.2804 H   0  0  0  0  0  0  0  0  0  0  0  0
   -0.4117   -0.2463    0.2186 C   0  0  1  0  0  0  0  0  0  0  0  0
    0.1554   -0.5152    1.1133 H   0  0  0  0  0  0  0  0  0  0  0  0
    0.3164   -0.8780   -0.9905 C   0  0  0  0  0  0  0  0  0  0  0  0
    0.6015   -1.9004   -0.7300 H   0  0  0  0  0  0  0  0  0  0  0  0
   -0.3798   -0.9432   -1.8295 H   0  0  0  0  0  0  0  0  0  0  0  0
    1.5495   -0.1350   -1.4592 C   0  0  0  0  0  0  0  0  0  0  0  0
    1.8854    1.1575   -1.1057 N   0  3  0  0  0  0  0  0  0  0  0  0
    1.3528    1.7156   -0.4323 H   0  0  0  0  0  0  0  0  0  0  0  0
    3.0444    1.4778   -1.7147 C   0  0  0  0  0  0  0  0  0  0  0  0
    3.5655    2.4280   -1.6162 H   0  0  0  0  0  0  0  0  0  0  0  0
    3.4507    0.4169   -2.4480 N   0  0  0  0  0  0  0  0  0  0  0  0
    4.2949    0.3695   -3.0123 H   0  0  0  0  0  0  0  0  0  0  0  0
    2.5231   -0.6048   -2.2989 C   0  0  0  0  0  0  0  0  0  0  0  0
    2.5546   -1.5904   -2.7551 H   0  0  0  0  0  0  0  0  0  0  0  0
   -0.4874    1.2908    0.1962 C   0  0  0  0  0  0  0  0  0  0  0  0
   -1.3116    1.8673   -0.5151 O   0  0  0  0  0  0  0  0  0  0  0  0
    0.3889    1.9422    0.9708 N   0  0  0  0  0  0  0  0  0  0  0  0
    1.0197    1.3866    1.5283 H   0  0  0  0  0  0  0  0  0  0  0  0
    0.5081    3.3999    1.0720 C   0  0  0  0  0  0  0  0  0  0  0  0
    0.0188    3.7538    1.9817 H   0  0  0  0  0  0  0  0  0  0  0  0
    1.5607    3.6858    1.1098 H   0  0  0  0  0  0  0  0  0  0  0  0
    0.0459    3.8890    0.2119 H   0  0  0  0  0  0  0  0  0  0  0  0
  5  6  2  0  0  0  0
  5  7  1  0  0  0  0
  2  3  1  0  0  0  0
  2  4  1  0  0  0  0
  2  5  1  0  0  0  0
  1  2  1  0  0  0  0
 23 24  2  0  0  0  0
 23 25  1  0  0  0  0
 21 22  1  0  0  0  0
 19 20  1  0  0  0  0
 19 21  1  0  0  0  0
 17 18  1  0  0  0  0
 17 19  1  0  0  0  0
 15 16  1  0  0  0  0
 15 17  2  0  0  0  0
 14 15  1  0  0  0  0
 14 21  2  0  0  0  0
 11 12  1  0  0  0  0
 11 13  1  0  0  0  0
 11 14  1  0  0  0  0
  9 10  1  0  0  0  0
  9 11  1  0  0  0  0
  9 23  1  0  0  0  0
  7  8  1  0  0  0  0
  7  9  1  0  0  0  0
 27 28  1  0  0  0  0
 27 29  1  0  0  0  0
 27 30  1  0  0  0  0
 25 26  1  0  0  0  0
 25 27  1  0  0  0  0
M  CHG  1  15   1
M  END
$$$$
default_name
  -OEChem-02102213163D

 30 30  0     1  0  0  0  0  0999 V2000
   -3.5507   -3.2183    1.8116 H   0  0  0  0  0  0  0  0  0  0  0  0
   -3.4597   -2.3913    1.1076 C   0  0  0  0  0  0  0  0  0  0  0  0
   -4.1577   -1.6043    1.3866 H   0  0  0  0  0  0  0  0  0  0  0  0
   -3.6807   -2.7523    0.1036 H   0  0  0  0  0  0  0  0  0  0  0  0
   -2.0477   -1.8543    1.1546 C   0  0  0  0  0  0  0  0  0  0  0  0
   -1.2227   -2.3443    1.9146 O   0  0  0  0  0  0  0  0  0  0  0  0
   -1.7517   -0.8483    0.3266 N   0  0  0  0  0  0  0  0  0  0  0  0
   -2.4847   -0.5123   -0.2804 H   0  0  0  0  0  0  0  0  0  0  0  0
   -0.4117   -0.2463    0.2186 C   0  0  1  0  0  0  0  0  0  0  0  0
    0.1554   -0.5152    1.1133 H   0  0  0  0  0  0  0  0  0  0  0  0
    0.3164   -0.8780   -0.9905 C   0  0  0  0  0  0  0  0  0  0  0  0
    0.6015   -1.9004   -0.7300 H   0  0  0  0  0  0  0  0  0  0  0  0
   -0.3798   -0.9432   -1.8295 H   0  0  0  0  0  0  0  0  0  0  0  0
    1.5495   -0.1350   -1.4592 C   0  0  0  0  0  0  0  0  0  0  0  0
    2.0446    1.0253   -0.8964 N   0  3  0  0  0  0  0  0  0  0  0  0
    1.6501    1.4590   -0.0567 H   0  0  0  0  0  0  0  0  0  0  0  0
    3.1482    1.3919   -1.5778 C   0  0  0  0  0  0  0  0  0  0  0  0
    3.7640    2.2615   -1.3577 H   0  0  0  0  0  0  0  0  0  0  0  0
    3.3635    0.4897   -2.5618 N   0  0  0  0  0  0  0  0  0  0  0  0
    4.1268    0.5093   -3.2330 H   0  0  0  0  0  0  0  0  0  0  0  0
    2.3684   -0.4761   -2.5016 C   0  0  0  0  0  0  0  0  0  0  0  0
    2.2532   -1.3397   -3.1508 H   0  0  0  0  0  0  0  0  0  0  0  0
   -0.4874    1.2908    0.1962 C   0  0  0  0  0  0  0  0  0  0  0  0
   -1.3116    1.8673   -0.5151 O   0  0  0  0  0  0  0  0  0  0  0  0
    0.3889    1.9422    0.9708 N   0  0  0  0  0  0  0  0  0  0  0  0
    1.0197    1.3866    1.5283 H   0  0  0  0  0  0  0  0  0  0  0  0
    0.5081    3.3999    1.0720 C   0  0  0  0  0  0  0  0  0  0  0  0
    0.0188    3.7538    1.9817 H   0  0  0  0  0  0  0  0  0  0  0  0
    1.5607    3.6858    1.1098 H   0  0  0  0  0  0  0  0  0  0  0  0
    0.0459    3.8890    0.2119 H   0  0  0  0  0  0  0  0  0  0  0  0
  5  6  2  0  0  0  0
  5  7  1  0  0  0  0
  2  3  1  0  0  0  0
  2  4  1  0  0  0  0
  2  5  1  0  0  0  0
  1  2  1  0  0  0  0
 23 24  2  0  0  0  0
 23 25  1  0  0  0  0
 21 22  1  0  0  0  0
 19 20  1  0  0  0  0
 19 21  1  0  0  0  0
 17 18  1  0  0  0  0
 17 19  1  0  0  0  0
 15 16  1  0  0  0  0
 15 17  2  0  0  0  0
 14 15  1  0  0  0  0
 14 21  2  0  0  0  0
 11 12  1  0  0  0  0
 11 13  1  0  0  0  0
 11 14  1  0  0  0  0
  9 10  1  0  0  0  0
  9 11  1  0  0  0  0
  9 23  1  0  0  0  0
  7  8  1  0  0  0  0
  7  9  1  0  0  0  0
 27 28  1  0  0  0  0
 27 29  1  0  0  0  0
 27 30  1  0  0  0  0
 25 26  1  0  0  0  0
 25 27  1  0  0  0  0
M  CHG  1  15   1
M  END
$$$$
default_name
  -OEChem-02102213163D

 30 30  0     1  0  0  0  0  0999 V2000
   -3.5507   -3.2183    1.8116 H   0  0  0  0  0  0  0  0  0  0  0  0
   -3.4597   -2.3913    1.1076 C   0  0  0  0  0  0  0  0  0  0  0  0
   -4.1577   -1.6043    1.3866 H   0  0  0  0  0  0  0  0  0  0  0  0
   -3.6807   -2.7523    0.1036 H   0  0  0  0  0  0  0  0  0  0  0  0
   -2.0477   -1.8543    1.1546 C   0  0  0  0  0  0  0  0  0  0  0  0
   -1.2227   -2.3443    1.9146 O   0  0  0  0  0  0  0  0  0  0  0  0
   -1.7517   -0.8483    0.3266 N   0  0  0  0  0  0  0  0  0  0  0  0
   -2.4847   -0.5123   -0.2804 H   0  0  0  0  0  0  0  0  0  0  0  0
   -0.4117   -0.2463    0.2186 C   0  0  1  0  0  0  0  0  0  0  0  0
    0.1554   -0.5152    1.1133 H   0  0  0  0  0  0  0  0  0  0  0  0
    0.3164   -0.8780   -0.9905 C   0  0  0  0  0  0  0  0  0  0  0  0
    0.6015   -1.9004   -0.7300 H   0  0  0  0  0  0  0  0  0  0  0  0
   -0.3798   -0.9432   -1.8295 H   0  0  0  0  0  0  0  0  0  0  0  0
    1.5495   -0.1350   -1.4592 C   0  0  0  0  0  0  0  0  0  0  0  0
    2.2143    0.8408   -0.7422 N   0  3  0  0  0  0  0  0  0  0  0  0
    1.9645    1.1082    0.2142 H   0  0  0  0  0  0  0  0  0  0  0  0
    3.2589    1.2717   -1.4770 C   0  0  0  0  0  0  0  0  0  0  0  0
    3.9753    2.0303   -1.1683 H   0  0  0  0  0  0  0  0  0  0  0  0
    3.2707    0.5910   -2.6453 N   0  0  0  0  0  0  0  0  0  0  0  0
    3.9476    0.7043   -3.3953 H   0  0  0  0  0  0  0  0  0  0  0  0
    2.2036   -0.2966   -2.6507 C   0  0  0  0  0  0  0  0  0  0  0  0
    1.9319   -0.9900   -3.4418 H   0  0  0  0  0  0  0  0  0  0  0  0
   -0.4874    1.2908    0.1962 C   0  0  0  0  0  0  0  0  0  0  0  0
   -1.3116    1.8673   -0.5151 O   0  0  0  0  0  0  0  0  0  0  0  0
    0.3889    1.9422    0.9708 N   0  0  0  0  0  0  0  0  0  0  0  0
    1.0197    1.3866    1.5283 H   0  0  0  0  0  0  0  0  0  0  0  0
    0.5081    3.3999    1.0720 C   0  0  0  0  0  0  0  0  0  0  0  0
    0.0188    3.7538    1.9817 H   0  0  0  0  0  0  0  0  0  0  0  0
    1.5607    3.6858    1.1098 H   0  0  0  0  0  0  0  0  0  0  0  0
    0.0459    3.8890    0.2119 H   0  0  0  0  0  0  0  0  0  0  0  0
  5  6  2  0  0  0  0
  5  7  1  0  0  0  0
  2  3  1  0  0  0  0
  2  4  1  0  0  0  0
  2  5  1  0  0  0  0
  1  2  1  0  0  0  0
 23 24  2  0  0  0  0
 23 25  1  0  0  0  0
 21 22  1  0  0  0  0
 19 20  1  0  0  0  0
 19 21  1  0  0  0  0
 17 18  1  0  0  0  0
 17 19  1  0  0  0  0
 15 16  1  0  0  0  0
 15 17  2  0  0  0  0
 14 15  1  0  0  0  0
 14 21  2  0  0  0  0
 11 12  1  0  0  0  0
 11 13  1  0  0  0  0
 11 14  1  0  0  0  0
  9 10  1  0  0  0  0
  9 11  1  0  0  0  0
  9 23  1  0  0  0  0
  7  8  1  0  0  0  0
  7  9  1  0  0  0  0
 27 28  1  0  0  0  0
 27 29  1  0  0  0  0
 27 30  1  0  0  0  0
 25 26  1  0  0  0  0
 25 27  1  0  0  0  0
M  CHG  1  15   1
M  END
$$$$
default_name
  -OEChem-02102213163D

 30 30  0     1  0  0  0  0  0999 V2000
   -3.5507   -3.2183    1.8116 H   0  0  0  0  0  0  0  0  0  0  0  0
   -3.4597   -2.3913    1.1076 C   0  0  0  0  0  0  0  0  0  0  0  0
   -4.1577   -1.6043    1.3866 H   0  0  0  0  0  0  0  0  0  0  0  0
   -3.6807   -2.7523    0.1036 H   0  0  0  0  0  0  0  0  0  0  0  0
   -2.0477   -1.8543    1.1546 C   0  0  0  0  0  0  0  0  0  0  0  0
   -1.2227   -2.3443    1.9146 O   0  0  0  0  0  0  0  0  0  0  0  0
   -1.7517   -0.8483    0.3266 N   0  0  0  0  0  0  0  0  0  0  0  0
   -2.4847   -0.5123   -0.2804 H   0  0  0  0  0  0  0  0  0  0  0  0
   -0.4117   -0.2463    0.2186 C   0  0  1  0  0  0  0  0  0  0  0  0
    0.1554   -0.5152    1.1133 H   0  0  0  0  0  0  0  0  0  0  0  0
    0.3164   -0.8780   -0.9905 C   0  0  0  0  0  0  0  0  0  0  0  0
    0.6015   -1.9004   -0.7300 H   0  0  0  0  0  0  0  0  0  0  0  0
   -0.3798   -0.9432   -1.8295 H   0  0  0  0  0  0  0  0  0  0  0  0
    1.5495   -0.1350   -1.4592 C   0  0  0  0  0  0  0  0  0  0  0  0
    2.3831    0.6165   -0.6538 N   0  3  0  0  0  0  0  0  0  0  0  0
    2.2744    0.6870    0.3621 H   0  0  0  0  0  0  0  0  0  0  0  0
    3.3691    1.1254   -1.4190 C   0  0  0  0  0  0  0  0  0  0  0  0
    4.1849    1.7501   -1.0610 H   0  0  0  0  0  0  0  0  0  0  0  0
    3.1786    0.7140   -2.6929 N   0  0  0  0  0  0  0  0  0  0  0  0
    3.7695    0.9413   -3.4883 H   0  0  0  0  0  0  0  0  0  0  0  0
    2.0399   -0.0786   -2.7359 C   0  0  0  0  0  0  0  0  0  0  0  0
    1.6126   -0.5651   -3.6083 H   0  0  0  0  0  0  0  0  0  0  0  0
   -0.4874    1.2908    0.1962 C   0  0  0  0  0  0  0  0  0  0  0  0
   -1.3116    1.8673   -0.5151 O   0  0  0  0  0  0  0  0  0  0  0  0
    0.3889    1.9422    0.9708 N   0  0  0  0  0  0  0  0  0  0  0  0
    1.0197    1.3866    1.5283 H   0  0  0  0  0  0  0  0  0  0  0  0
    0.5081    3.3999    1.0720 C   0  0  0  0  0  0  0  0  0  0  0  0
    0.0188    3.7538    1.9817 H   0  0  0  0  0  0  0  0  0  0  0  0
    1.5607    3.6858    1.1098 H   0  0  0  0  0  0  0  0  0  0  0  0
    0.0459    3.8890    0.2119 H   0  0  0  0  0  0  0  0  0  0  0  0
  5  6  2  0  0  0  0
  5  7  1  0  0  0  0
  2  3  1  0  0  0  0
  2  4  1  0  0  0  0
  2  5  1  0  0  0  0
  1  2  1  0  0  0  0
 23 24  2  0  0  0  0
 23 25  1  0  0  0  0
 21 22  1  0  0  0  0
 19 20  1  0  0  0  0
 19 21  1  0  0  0  0
 17 18  1  0  0  0  0
 17 19  1  0  0  0  0
 15 16  1  0  0  0  0
 15 17  2  0  0  0  0
 14 15  1  0  0  0  0
 14 21  2  0  0  0  0
 11 12  1  0  0  0  0
 11 13  1  0  0  0  0
 11 14  1  0  0  0  0
  9 10  1  0  0  0  0
  9 11  1  0  0  0  0
  9 23  1  0  0  0  0
  7  8  1  0  0  0  0
  7  9  1  0  0  0  0
 27 28  1  0  0  0  0
 27 29  1  0  0  0  0
 27 30  1  0  0  0  0
 25 26  1  0  0  0  0
 25 27  1  0  0  0  0
M  CHG  1  15   1
M  END
$$$$
default_name
  -OEChem-02102213163D

 30 30  0     1  0  0  0  0  0999 V2000
   -3.5507   -3.2183    1.8116 H   0  0  0  0  0  0  0  0  0  0  0  0
   -3.4597   -2.3913    1.1076 C   0  0  0  0  0  0  0  0  0  0  0  0
   -4.1577   -1.6043    1.3866 H   0  0  0  0  0  0  0  0  0  0  0  0
   -3.6807   -2.7523    0.1036 H   0  0  0  0  0  0  0  0  0  0  0  0
   -2.0477   -1.8543    1.1546 C   0  0  0  0  0  0  0  0  0  0  0  0
   -1.2227   -2.3443    1.9146 O   0  0  0  0  0  0  0  0  0  0  0  0
   -1.7517   -0.8483    0.3266 N   0  0  0  0  0  0  0  0  0  0  0  0
   -2.4847   -0.5123   -0.2804 H   0  0  0  0  0  0  0  0  0  0  0  0
   -0.4117   -0.2463    0.2186 C   0  0  1  0  0  0  0  0  0  0  0  0
    0.1554   -0.5152    1.1133 H   0  0  0  0  0  0  0  0  0  0  0  0
    0.3164   -0.8780   -0.9905 C   0  0  0  0  0  0  0  0  0  0  0  0
    0.6015   -1.9004   -0.7300 H   0  0  0  0  0  0  0  0  0  0  0  0
   -0.3798   -0.9432   -1.8295 H   0  0  0  0  0  0  0  0  0  0  0  0
    1.5495   -0.1350   -1.4592 C   0  0  0  0  0  0  0  0  0  0  0  0
    2.5394    0.3677   -0.6371 N   0  3  0  0  0  0  0  0  0  0  0  0
    2.5588    0.2242    0.3767 H   0  0  0  0  0  0  0  0  0  0  0  0
    3.4711    0.9631   -1.4078 C   0  0  0  0  0  0  0  0  0  0  0  0
    4.3785    1.4401   -1.0429 H   0  0  0  0  0  0  0  0  0  0  0  0
    3.0934    0.8501   -2.7012 N   0  0  0  0  0  0  0  0  0  0  0  0
    3.6047    1.2040   -3.5055 H   0  0  0  0  0  0  0  0  0  0  0  0
    1.8884    0.1631   -2.7514 C   0  0  0  0  0  0  0  0  0  0  0  0
    1.3171   -0.0940   -3.6391 H   0  0  0  0  0  0  0  0  0  0  0  0
   -0.4874    1.2908    0.1962 C   0  0  0  0  0  0  0  0  0  0  0  0
   -1.3116    1.8673   -0.5151 O   0  0  0  0  0  0  0  0  0  0  0  0
    0.3889    1.9422    0.9708 N   0  0  0  0  0  0  0  0  0  0  0  0
    1.0197    1.3866    1.5283 H   0  0  0  0  0  0  0  0  0  0  0  0
    0.5081    3.3999    1.0720 C   0  0  0  0  0  0  0  0  0  0  0  0
    0.0188    3.7538    1.9817 H   0  0  0  0  0  0  0  0  0  0  0  0
    1.5607    3.6858    1.1098 H   0  0  0  0  0  0  0  0  0  0  0  0
    0.0459    3.8890    0.2119 H   0  0  0  0  0  0  0  0  0  0  0  0
  5  6  2  0  0  0  0
  5  7  1  0  0  0  0
  2  3  1  0  0  0  0
  2  4  1  0  0  0  0
  2  5  1  0  0  0  0
  1  2  1  0  0  0  0
 23 24  2  0  0  0  0
 23 25  1  0  0  0  0
 21 22  1  0  0  0  0
 19 20  1  0  0  0  0
 19 21  1  0  0  0  0
 17 18  1  0  0  0  0
 17 19  1  0  0  0  0
 15 16  1  0  0  0  0
 15 17  2  0  0  0  0
 14 15  1  0  0  0  0
 14 21  2  0  0  0  0
 11 12  1  0  0  0  0
 11 13  1  0  0  0  0
 11 14  1  0  0  0  0
  9 10  1  0  0  0  0
  9 11  1  0  0  0  0
  9 23  1  0  0  0  0
  7  8  1  0  0  0  0
  7  9  1  0  0  0  0
 27 28  1  0  0  0  0
 27 29  1  0  0  0  0
 27 30  1  0  0  0  0
 25 26  1  0  0  0  0
 25 27  1  0  0  0  0
M  CHG  1  15   1
M  END
$$$$
default_name
  -OEChem-02102213163D

 30 30  0     1  0  0  0  0  0999 V2000
   -3.5507   -3.2183    1.8116 H   0  0  0  0  0  0  0  0  0  0  0  0
   -3.4597   -2.3913    1.1076 C   0  0  0  0  0  0  0  0  0  0  0  0
   -4.1577   -1.6043    1.3866 H   0  0  0  0  0  0  0  0  0  0  0  0
   -3.6807   -2.7523    0.1036 H   0  0  0  0  0  0  0  0  0  0  0  0
   -2.0477   -1.8543    1.1546 C   0  0  0  0  0  0  0  0  0  0  0  0
   -1.2227   -2.3443    1.9146 O   0  0  0  0  0  0  0  0  0  0  0  0
   -1.7517   -0.8483    0.3266 N   0  0  0  0  0  0  0  0  0  0  0  0
   -2.4847   -0.5123   -0.2804 H   0  0  0  0  0  0  0  0  0  0  0  0
   -0.4117   -0.2463    0.2186 C   0  0  1  0  0  0  0  0  0  0  0  0
    0.1554   -0.5152    1.1133 H   0  0  0  0  0  0  0  0  0  0  0  0
    0.3164   -0.8780   -0.9905 C   0  0  0  0  0  0  0  0  0  0  0  0
    0.6015   -1.9004   -0.7300 H   0  0  0  0  0  0  0  0  0  0  0  0
   -0.3798   -0.9432   -1.8295 H   0  0  0  0  0  0  0  0  0  0  0  0
    1.5495   -0.1350   -1.4592 C   0  0  0  0  0  0  0  0  0  0  0  0
    2.6725    0.1113   -0.6933 N   0  3  0  0  0  0  0  0  0  0  0  0
    2.7983   -0.2488    0.2571 H   0  0  0  0  0  0  0  0  0  0  0  0
    3.5581    0.7958   -1.4441 C   0  0  0  0  0  0  0  0  0  0  0  0
    4.5430    1.1213   -1.1155 H   0  0  0  0  0  0  0  0  0  0  0  0
    3.0210    0.9902   -2.6697 N   0  0  0  0  0  0  0  0  0  0  0  0
    3.4643    1.4747   -3.4457 H   0  0  0  0  0  0  0  0  0  0  0  0
    1.7594    0.4119   -2.6962 C   0  0  0  0  0  0  0  0  0  0  0  0
    1.0655    0.3912   -3.5320 H   0  0  0  0  0  0  0  0  0  0  0  0
   -0.4874    1.2908    0.1962 C   0  0  0  0  0  0  0  0  0  0  0  0
   -1.3116    1.8673   -0.5151 O   0  0  0  0  0  0  0  0  0  0  0  0
    0.3889    1.9422    0.9708 N   0  0  0  0  0  0  0  0  0  0  0  0
    1.0197    1.3866    1.5283 H   0  0  0  0  0  0  0  0  0  0  0  0
    0.5081    3.3999    1.0720 C   0  0  0  0  0  0  0  0  0  0  0  0
    0.0188    3.7538    1.9817 H   0  0  0  0  0  0  0  0  0  0  0  0
    1.5607    3.6858    1.1098 H   0  0  0  0  0  0  0  0  0  0  0  0
    0.0459    3.8890    0.2119 H   0  0  0  0  0  0  0  0  0  0  0  0
  5  6  2  0  0  0  0
  5  7  1  0  0  0  0
  2  3  1  0  0  0  0
  2  4  1  0  0  0  0
  2  5  1  0  0  0  0
  1  2  1  0  0  0  0
 23 24  2  0  0  0  0
 23 25  1  0  0  0  0
 21 22  1  0  0  0  0
 19 20  1  0  0  0  0
 19 21  1  0  0  0  0
 17 18  1  0  0  0  0
 17 19  1  0  0  0  0
 15 16  1  0  0  0  0
 15 17  2  0  0  0  0
 14 15  1  0  0  0  0
 14 21  2  0  0  0  0
 11 12  1  0  0  0  0
 11 13  1  0  0  0  0
 11 14  1  0  0  0  0
  9 10  1  0  0  0  0
  9 11  1  0  0  0  0
  9 23  1  0  0  0  0
  7  8  1  0  0  0  0
  7  9  1  0  0  0  0
 27 28  1  0  0  0  0
 27 29  1  0  0  0  0
 27 30  1  0  0  0  0
 25 26  1  0  0  0  0
 25 27  1  0  0  0  0
M  CHG  1  15   1
M  END
$$$$
default_name
  -OEChem-02102213163D

 30 30  0     1  0  0  0  0  0999 V2000
   -3.5507   -3.2183    1.8116 H   0  0  0  0  0  0  0  0  0  0  0  0
   -3.4597   -2.3913    1.1076 C   0  0  0  0  0  0  0  0  0  0  0  0
   -4.1577   -1.6043    1.3866 H   0  0  0  0  0  0  0  0  0  0  0  0
   -3.6807   -2.7523    0.1036 H   0  0  0  0  0  0  0  0  0  0  0  0
   -2.0477   -1.8543    1.1546 C   0  0  0  0  0  0  0  0  0  0  0  0
   -1.2227   -2.3443    1.9146 O   0  0  0  0  0  0  0  0  0  0  0  0
   -1.7517   -0.8483    0.3266 N   0  0  0  0  0  0  0  0  0  0  0  0
   -2.4847   -0.5123   -0.2804 H   0  0  0  0  0  0  0  0  0  0  0  0
   -0.4117   -0.2463    0.2186 C   0  0  1  0  0  0  0  0  0  0  0  0
    0.1554   -0.5152    1.1133 H   0  0  0  0  0  0  0  0  0  0  0  0
    0.3164   -0.8780   -0.9905 C   0  0  0  0  0  0  0  0  0  0  0  0
    0.6015   -1.9004   -0.7300 H   0  0  0  0  0  0  0  0  0  0  0  0
   -0.3798   -0.9432   -1.8295 H   0  0  0  0  0  0  0  0  0  0  0  0
    1.5495   -0.1350   -1.4592 C   0  0  0  0  0  0  0  0  0  0  0  0
    2.7734   -0.1352   -0.8185 N   0  3  0  0  0  0  0  0  0  0  0  0
    2.9766   -0.6996    0.0115 H   0  0  0  0  0  0  0  0  0  0  0  0
    3.6241    0.6349   -1.5255 C   0  0  0  0  0  0  0  0  0  0  0  0
    4.6672    0.8155   -1.2737 H   0  0  0  0  0  0  0  0  0  0  0  0
    2.9662    1.1247   -2.6006 N   0  0  0  0  0  0  0  0  0  0  0  0
    3.3580    1.7347   -3.3132 H   0  0  0  0  0  0  0  0  0  0  0  0
    1.6618    0.6510   -2.5741 C   0  0  0  0  0  0  0  0  0  0  0  0
    0.8749    0.8574   -3.2943 H   0  0  0  0  0  0  0  0  0  0  0  0
   -0.4874    1.2908    0.1962 C   0  0  0  0  0  0  0  0  0  0  0  0
   -1.3116    1.8673   -0.5151 O   0  0  0  0  0  0  0  0  0  0  0  0
    0.3889    1.9422    0.9708 N   0  0  0  0  0  0  0  0  0  0  0  0
    1.0197    1.3866    1.5283 H   0  0  0  0  0  0  0  0  0  0  0  0
    0.5081    3.3999    1.0720 C   0  0  0  0  0  0  0  0  0  0  0  0
    0.0188    3.7538    1.9817 H   0  0  0  0  0  0  0  0  0  0  0  0
    1.5607    3.6858    1.1098 H   0  0  0  0  0  0  0  0  0  0  0  0
    0.0459    3.8890    0.2119 H   0  0  0  0  0  0  0  0  0  0  0  0
  5  6  2  0  0  0  0
  5  7  1  0  0  0  0
  2  3  1  0  0  0  0
  2  4  1  0  0  0  0
  2  5  1  0  0  0  0
  1  2  1  0  0  0  0
 23 24  2  0  0  0  0
 23 25  1  0  0  0  0
 21 22  1  0  0  0  0
 19 20  1  0  0  0  0
 19 21  1  0  0  0  0
 17 18  1  0  0  0  0
 17 19  1  0  0  0  0
 15 16  1  0  0  0  0
 15 17  2  0  0  0  0
 14 15  1  0  0  0  0
 14 21  2  0  0  0  0
 11 12  1  0  0  0  0
 11 13  1  0  0  0  0
 11 14  1  0  0  0  0
  9 10  1  0  0  0  0
  9 11  1  0  0  0  0
  9 23  1  0  0  0  0
  7  8  1  0  0  0  0
  7  9  1  0  0  0  0
 27 28  1  0  0  0  0
 27 29  1  0  0  0  0
 27 30  1  0  0  0  0
 25 26  1  0  0  0  0
 25 27  1  0  0  0  0
M  CHG  1  15   1
M  END
$$$$
default_name
  -OEChem-02102213163D

 30 30  0     1  0  0  0  0  0999 V2000
   -3.5507   -3.2183    1.8116 H   0  0  0  0  0  0  0  0  0  0  0  0
   -3.4597   -2.3913    1.1076 C   0  0  0  0  0  0  0  0  0  0  0  0
   -4.1577   -1.6043    1.3866 H   0  0  0  0  0  0  0  0  0  0  0  0
   -3.6807   -2.7523    0.1036 H   0  0  0  0  0  0  0  0  0  0  0  0
   -2.0477   -1.8543    1.1546 C   0  0  0  0  0  0  0  0  0  0  0  0
   -1.2227   -2.3443    1.9146 O   0  0  0  0  0  0  0  0  0  0  0  0
   -1.7517   -0.8483    0.3266 N   0  0  0  0  0  0  0  0  0  0  0  0
   -2.4847   -0.5123   -0.2804 H   0  0  0  0  0  0  0  0  0  0  0  0
   -0.4117   -0.2463    0.2186 C   0  0  1  0  0  0  0  0  0  0  0  0
    0.1554   -0.5152    1.1133 H   0  0  0  0  0  0  0  0  0  0  0  0
    0.3164   -0.8780   -0.9905 C   0  0  0  0  0  0  0  0  0  0  0  0
    0.6015   -1.9004   -0.7300 H   0  0  0  0  0  0  0  0  0  0  0  0
   -0.3798   -0.9432   -1.8295 H   0  0  0  0  0  0  0  0  0  0  0  0
    1.5495   -0.1350   -1.4592 C   0  0  0  0  0  0  0  0  0  0  0  0
    2.8352   -0.3550   -1.0042 N   0  3  0  0  0  0  0  0  0  0  0  0
    3.0815   -1.0975   -0.3434 H   0  0  0  0  0  0  0  0  0  0  0  0
    3.6646    0.4913   -1.6465 C   0  0  0  0  0  0  0  0  0  0  0  0
    4.7425    0.5435   -1.5067 H   0  0  0  0  0  0  0  0  0  0  0  0
    2.9329    1.2444   -2.4985 N   0  0  0  0  0  0  0  0  0  0  0  0
    3.2930    1.9665   -3.1168 H   0  0  0  0  0  0  0  0  0  0  0  0
    1.6022    0.8640   -2.3934 C   0  0  0  0  0  0  0  0  0  0  0  0
    0.7584    1.2730   -2.9422 H   0  0  0  0  0  0  0  0  0  0  0  0
   -0.4874    1.2908    0.1962 C   0  0  0  0  0  0  0  0  0  0  0  0
   -1.3116    1.8673   -0.5151 O   0  0  0  0  0  0  0  0  0  0  0  0
    0.3889    1.9422    0.9708 N   0  0  0  0  0  0  0  0  0  0  0  0
    1.0197    1.3866    1.5283 H   0  0  0  0  0  0  0  0  0  0  0  0
    0.5081    3.3999    1.0720 C   0  0  0  0  0  0  0  0  0  0  0  0
    0.0188    3.7538    1.9817 H   0  0  0  0  0  0  0  0  0  0  0  0
    1.5607    3.6858    1.1098 H   0  0  0  0  0  0  0  0  0  0  0  0
    0.0459    3.8890    0.2119 H   0  0  0  0  0  0  0  0  0  0  0  0
  5  6  2  0  0  0  0
  5  7  1  0  0  0  0
  2  3  1  0  0  0  0
  2  4  1  0  0  0  0
  2  5  1  0  0  0  0
  1  2  1  0  0  0  0
 23 24  2  0  0  0  0
 23 25  1  0  0  0  0
 21 22  1  0  0  0  0
 19 20  1  0  0  0  0
 19 21  1  0  0  0  0
 17 18  1  0  0  0  0
 17 19  1  0  0  0  0
 15 16  1  0  0  0  0
 15 17  2  0  0  0  0
 14 15  1  0  0  0  0
 14 21  2  0  0  0  0
 11 12  1  0  0  0  0
 11 13  1  0  0  0  0
 11 14  1  0  0  0  0
  9 10  1  0  0  0  0
  9 11  1  0  0  0  0
  9 23  1  0  0  0  0
  7  8  1  0  0  0  0
  7  9  1  0  0  0  0
 27 28  1  0  0  0  0
 27 29  1  0  0  0  0
 27 30  1  0  0  0  0
 25 26  1  0  0  0  0
 25 27  1  0  0  0  0
M  CHG  1  15   1
M  END
$$$$
default_name
  -OEChem-02102213163D

 30 30  0     1  0  0  0  0  0999 V2000
   -3.5507   -3.2183    1.8116 H   0  0  0  0  0  0  0  0  0  0  0  0
   -3.4597   -2.3913    1.1076 C   0  0  0  0  0  0  0  0  0  0  0  0
   -4.1577   -1.6043    1.3866 H   0  0  0  0  0  0  0  0  0  0  0  0
   -3.6807   -2.7523    0.1036 H   0  0  0  0  0  0  0  0  0  0  0  0
   -2.0477   -1.8543    1.1546 C   0  0  0  0  0  0  0  0  0  0  0  0
   -1.2227   -2.3443    1.9146 O   0  0  0  0  0  0  0  0  0  0  0  0
   -1.7517   -0.8483    0.3266 N   0  0  0  0  0  0  0  0  0  0  0  0
   -2.4847   -0.5123   -0.2804 H   0  0  0  0  0  0  0  0  0  0  0  0
   -0.4117   -0.2463    0.2186 C   0  0  1  0  0  0  0  0  0  0  0  0
    0.1554   -0.5152    1.1133 H   0  0  0  0  0  0  0  0  0  0  0  0
    0.3164   -0.8780   -0.9905 C   0  0  0  0  0  0  0  0  0  0  0  0
    0.6015   -1.9004   -0.7300 H   0  0  0  0  0  0  0  0  0  0  0  0
   -0.3798   -0.9432   -1.8295 H   0  0  0  0  0  0  0  0  0  0  0  0
    1.5495   -0.1350   -1.4592 C   0  0  0  0  0  0  0  0  0  0  0  0
    2.8537   -0.5330   -1.2378 N   0  3  0  0  0  0  0  0  0  0  0  0
    3.1058   -1.4155   -0.7834 H   0  0  0  0  0  0  0  0  0  0  0  0
    3.6769    0.3749   -1.7987 C   0  0  0  0  0  0  0  0  0  0  0  0
    4.7639    0.3239   -1.7986 H   0  0  0  0  0  0  0  0  0  0  0  0
    2.9233    1.3412   -2.3704 N   0  0  0  0  0  0  0  0  0  0  0  0
    3.2737    2.1542   -2.8700 H   0  0  0  0  0  0  0  0  0  0  0  0
    1.5846    1.0364   -2.1663 C   0  0  0  0  0  0  0  0  0  0  0  0
    0.7238    1.6094   -2.4997 H   0  0  0  0  0  0  0  0  0  0  0  0
   -0.4874    1.2908    0.1962 C   0  0  0  0  0  0  0  0  0  0  0  0
   -1.3116    1.8673   -0.5151 O   0  0  0  0  0  0  0  0  0  0  0  0
    0.3889    1.9422    0.9708 N   0  0  0  0  0  0  0  0  0  0  0  0
    1.0197    1.3866    1.5283 H   0  0  0  0  0  0  0  0  0  0  0  0
    0.5081    3.3999    1.0720 C   0  0  0  0  0  0  0  0  0  0  0  0
    0.0188    3.7538    1.9817 H   0  0  0  0  0  0  0  0  0  0  0  0
    1.5607    3.6858    1.1098 H   0  0  0  0  0  0  0  0  0  0  0  0
    0.0459    3.8890    0.2119 H   0  0  0  0  0  0  0  0  0  0  0  0
  5  6  2  0  0  0  0
  5  7  1  0  0  0  0
  2  3  1  0  0  0  0
  2  4  1  0  0  0  0
  2  5  1  0  0  0  0
  1  2  1  0  0  0  0
 23 24  2  0  0  0  0
 23 25  1  0  0  0  0
 21 22  1  0  0  0  0
 19 20  1  0  0  0  0
 19 21  1  0  0  0  0
 17 18  1  0  0  0  0
 17 19  1  0  0  0  0
 15 16  1  0  0  0  0
 15 17  2  0  0  0  0
 14 15  1  0  0  0  0
 14 21  2  0  0  0  0
 11 12  1  0  0  0  0
 11 13  1  0  0  0  0
 11 14  1  0  0  0  0
  9 10  1  0  0  0  0
  9 11  1  0  0  0  0
  9 23  1  0  0  0  0
  7  8  1  0  0  0  0
  7  9  1  0  0  0  0
 27 28  1  0  0  0  0
 27 29  1  0  0  0  0
 27 30  1  0  0  0  0
 25 26  1  0  0  0  0
 25 27  1  0  0  0  0
M  CHG  1  15   1
M  END
$$$$
default_name
  -OEChem-02102213163D

 30 30  0     1  0  0  0  0  0999 V2000
   -3.5507   -3.2183    1.8116 H   0  0  0  0  0  0  0  0  0  0  0  0
   -3.4597   -2.3913    1.1076 C   0  0  0  0  0  0  0  0  0  0  0  0
   -4.1577   -1.6043    1.3866 H   0  0  0  0  0  0  0  0  0  0  0  0
   -3.6807   -2.7523    0.1036 H   0  0  0  0  0  0  0  0  0  0  0  0
   -2.0477   -1.8543    1.1546 C   0  0  0  0  0  0  0  0  0  0  0  0
   -1.2227   -2.3443    1.9146 O   0  0  0  0  0  0  0  0  0  0  0  0
   -1.7517   -0.8483    0.3266 N   0  0  0  0  0  0  0  0  0  0  0  0
   -2.4847   -0.5123   -0.2804 H   0  0  0  0  0  0  0  0  0  0  0  0
   -0.4117   -0.2463    0.2186 C   0  0  1  0  0  0  0  0  0  0  0  0
    0.1554   -0.5152    1.1133 H   0  0  0  0  0  0  0  0  0  0  0  0
    0.3164   -0.8780   -0.9905 C   0  0  0  0  0  0  0  0  0  0  0  0
    0.6015   -1.9004   -0.7300 H   0  0  0  0  0  0  0  0  0  0  0  0
   -0.3798   -0.9432   -1.8295 H   0  0  0  0  0  0  0  0  0  0  0  0
    1.5495   -0.1350   -1.4592 C   0  0  0  0  0  0  0  0  0  0  0  0
    2.8277   -0.6573   -1.5033 N   0  3  0  0  0  0  0  0  0  0  0  0
    3.0480   -1.6318   -1.2785 H   0  0  0  0  0  0  0  0  0  0  0  0
    3.6601    0.2936   -1.9719 C   0  0  0  0  0  0  0  0  0  0  0  0
    4.7298    0.1715   -2.1297 H   0  0  0  0  0  0  0  0  0  0  0  0
    2.9380    1.4084   -2.2251 N   0  0  0  0  0  0  0  0  0  0  0  0
    3.3015    2.2850   -2.5896 H   0  0  0  0  0  0  0  0  0  0  0  0
    1.6103    1.1565   -1.9084 C   0  0  0  0  0  0  0  0  0  0  0  0
    0.7736    1.8439   -1.9970 H   0  0  0  0  0  0  0  0  0  0  0  0
   -0.4874    1.2908    0.1962 C   0  0  0  0  0  0  0  0  0  0  0  0
   -1.3116    1.8673   -0.5151 O   0  0  0  0  0  0  0  0  0  0  0  0
    0.3889    1.9422    0.9708 N   0  0  0  0  0  0  0  0  0  0  0  0
    1.0197    1.3866    1.5283 H   0  0  0  0  0  0  0  0  0  0  0  0
    0.5081    3.3999    1.0720 C   0  0  0  0  0  0  0  0  0  0  0  0
    0.0188    3.7538    1.9817 H   0  0  0  0  0  0  0  0  0  0  0  0
    1.5607    3.6858    1.1098 H   0  0  0  0  0  0  0  0  0  0  0  0
    0.0459    3.8890    0.2119 H   0  0  0  0  0  0  0  0  0  0  0  0
  5  6  2  0  0  0  0
  5  7  1  0  0  0  0
  2  3  1  0  0  0  0
  2  4  1  0  0  0  0
  2  5  1  0  0  0  0
  1  2  1  0  0  0  0
 23 24  2  0  0  0  0
 23 25  1  0  0  0  0
 21 22  1  0  0  0  0
 19 20  1  0  0  0  0
 19 21  1  0  0  0  0
 17 18  1  0  0  0  0
 17 19  1  0  0  0  0
 15 16  1  0  0  0  0
 15 17  2  0  0  0  0
 14 15  1  0  0  0  0
 14 21  2  0  0  0  0
 11 12  1  0  0  0  0
 11 13  1  0  0  0  0
 11 14  1  0  0  0  0
  9 10  1  0  0  0  0
  9 11  1  0  0  0  0
  9 23  1  0  0  0  0
  7  8  1  0  0  0  0
  7  9  1  0  0  0  0
 27 28  1  0  0  0  0
 27 29  1  0  0  0  0
 27 30  1  0  0  0  0
 25 26  1  0  0  0  0
 25 27  1  0  0  0  0
M  CHG  1  15   1
M  END
$$$$
default_name
  -OEChem-02102213163D

 30 30  0     1  0  0  0  0  0999 V2000
   -3.5507   -3.2183    1.8116 H   0  0  0  0  0  0  0  0  0  0  0  0
   -3.4597   -2.3913    1.1076 C   0  0  0  0  0  0  0  0  0  0  0  0
   -4.1577   -1.6043    1.3866 H   0  0  0  0  0  0  0  0  0  0  0  0
   -3.6807   -2.7523    0.1036 H   0  0  0  0  0  0  0  0  0  0  0  0
   -2.0477   -1.8543    1.1546 C   0  0  0  0  0  0  0  0  0  0  0  0
   -1.2227   -2.3443    1.9146 O   0  0  0  0  0  0  0  0  0  0  0  0
   -1.7517   -0.8483    0.3266 N   0  0  0  0  0  0  0  0  0  0  0  0
   -2.4847   -0.5123   -0.2804 H   0  0  0  0  0  0  0  0  0  0  0  0
   -0.4117   -0.2463    0.2186 C   0  0  1  0  0  0  0  0  0  0  0  0
    0.1554   -0.5152    1.1133 H   0  0  0  0  0  0  0  0  0  0  0  0
    0.3164   -0.8780   -0.9905 C   0  0  0  0  0  0  0  0  0  0  0  0
    0.6015   -1.9004   -0.7300 H   0  0  0  0  0  0  0  0  0  0  0  0
   -0.3798   -0.9432   -1.8295 H   0  0  0  0  0  0  0  0  0  0  0  0
    1.5495   -0.1350   -1.4592 C   0  0  0  0  0  0  0  0  0  0  0  0
    2.7589   -0.7193   -1.7826 N   0  3  0  0  0  0  0  0  0  0  0  0
    2.9119   -1.7318   -1.7951 H   0  0  0  0  0  0  0  0  0  0  0  0
    3.6154    0.2528   -2.1541 C   0  0  0  0  0  0  0  0  0  0  0  0
    4.6427    0.0969   -2.4772 H   0  0  0  0  0  0  0  0  0  0  0  0
    2.9761    1.4415   -2.0724 N   0  0  0  0  0  0  0  0  0  0  0  0
    3.3744    2.3501   -2.2947 H   0  0  0  0  0  0  0  0  0  0  0  0
    1.6775    1.2160   -1.6373 C   0  0  0  0  0  0  0  0  0  0  0  0
    0.9044    1.9605   -1.4683 H   0  0  0  0  0  0  0  0  0  0  0  0
   -0.4874    1.2908    0.1962 C   0  0  0  0  0  0  0  0  0  0  0  0
   -1.3116    1.8673   -0.5151 O   0  0  0  0  0  0  0  0  0  0  0  0
    0.3889    1.9422    0.9708 N   0  0  0  0  0  0  0  0  0  0  0  0
    1.0197    1.3866    1.5283 H   0  0  0  0  0  0  0  0  0  0  0  0
    0.5081    3.3999    1.0720 C   0  0  0  0  0  0  0  0  0  0  0  0
    0.0188    3.7538    1.9817 H   0  0  0  0  0  0  0  0  0  0  0  0
    1.5607    3.6858    1.1098 H   0  0  0  0  0  0  0  0  0  0  0  0
    0.0459    3.8890    0.2119 H   0  0  0  0  0  0  0  0  0  0  0  0
  5  6  2  0  0  0  0
  5  7  1  0  0  0  0
  2  3  1  0  0  0  0
  2  4  1  0  0  0  0
  2  5  1  0  0  0  0
  1  2  1  0  0  0  0
 23 24  2  0  0  0  0
 23 25  1  0  0  0  0
 21 22  1  0  0  0  0
 19 20  1  0  0  0  0
 19 21  1  0  0  0  0
 17 18  1  0  0  0  0
 17 19  1  0  0  0  0
 15 16  1  0  0  0  0
 15 17  2  0  0  0  0
 14 15  1  0  0  0  0
 14 21  2  0  0  0  0
 11 12  1  0  0  0  0
 11 13  1  0  0  0  0
 11 14  1  0  0  0  0
  9 10  1  0  0  0  0
  9 11  1  0  0  0  0
  9 23  1  0  0  0  0
  7  8  1  0  0  0  0
  7  9  1  0  0  0  0
 27 28  1  0  0  0  0
 27 29  1  0  0  0  0
 27 30  1  0  0  0  0
 25 26  1  0  0  0  0
 25 27  1  0  0  0  0
M  CHG  1  15   1
M  END
$$$$
default_name
  -OEChem-02102213163D

 30 30  0     1  0  0  0  0  0999 V2000
   -3.5507   -3.2183    1.8116 H   0  0  0  0  0  0  0  0  0  0  0  0
   -3.4597   -2.3913    1.1076 C   0  0  0  0  0  0  0  0  0  0  0  0
   -4.1577   -1.6043    1.3866 H   0  0  0  0  0  0  0  0  0  0  0  0
   -3.6807   -2.7523    0.1036 H   0  0  0  0  0  0  0  0  0  0  0  0
   -2.0477   -1.8543    1.1546 C   0  0  0  0  0  0  0  0  0  0  0  0
   -1.2227   -2.3443    1.9146 O   0  0  0  0  0  0  0  0  0  0  0  0
   -1.7517   -0.8483    0.3266 N   0  0  0  0  0  0  0  0  0  0  0  0
   -2.4847   -0.5123   -0.2804 H   0  0  0  0  0  0  0  0  0  0  0  0
   -0.4117   -0.2463    0.2186 C   0  0  1  0  0  0  0  0  0  0  0  0
    0.1554   -0.5152    1.1133 H   0  0  0  0  0  0  0  0  0  0  0  0
    0.3164   -0.8780   -0.9905 C   0  0  0  0  0  0  0  0  0  0  0  0
    0.6015   -1.9004   -0.7300 H   0  0  0  0  0  0  0  0  0  0  0  0
   -0.3798   -0.9432   -1.8295 H   0  0  0  0  0  0  0  0  0  0  0  0
    1.5495   -0.1350   -1.4592 C   0  0  0  0  0  0  0  0  0  0  0  0
    2.6519   -0.7147   -2.0568 N   0  3  0  0  0  0  0  0  0  0  0  0
    2.7068   -1.7085   -2.2978 H   0  0  0  0  0  0  0  0  0  0  0  0
    3.5458    0.2555   -2.3331 C   0  0  0  0  0  0  0  0  0  0  0  0
    4.5084    0.1051   -2.8176 H   0  0  0  0  0  0  0  0  0  0  0  0
    3.0349    1.4383   -1.9227 N   0  0  0  0  0  0  0  0  0  0  0  0
    3.4875    2.3449   -2.0055 H   0  0  0  0  0  0  0  0  0  0  0  0
    1.7816    1.2110   -1.3713 C   0  0  0  0  0  0  0  0  0  0  0  0
    1.1071    1.9511   -0.9496 H   0  0  0  0  0  0  0  0  0  0  0  0
   -0.4874    1.2908    0.1962 C   0  0  0  0  0  0  0  0  0  0  0  0
   -1.3116    1.8673   -0.5151 O   0  0  0  0  0  0  0  0  0  0  0  0
    0.3889    1.9422    0.9708 N   0  0  0  0  0  0  0  0  0  0  0  0
    1.0197    1.3866    1.5283 H   0  0  0  0  0  0  0  0  0  0  0  0
    0.5081    3.3999    1.0720 C   0  0  0  0  0  0  0  0  0  0  0  0
    0.0188    3.7538    1.9817 H   0  0  0  0  0  0  0  0  0  0  0  0
    1.5607    3.6858    1.1098 H   0  0  0  0  0  0  0  0  0  0  0  0
    0.0459    3.8890    0.2119 H   0  0  0  0  0  0  0  0  0  0  0  0
  5  6  2  0  0  0  0
  5  7  1  0  0  0  0
  2  3  1  0  0  0  0
  2  4  1  0  0  0  0
  2  5  1  0  0  0  0
  1  2  1  0  0  0  0
 23 24  2  0  0  0  0
 23 25  1  0  0  0  0
 21 22  1  0  0  0  0
 19 20  1  0  0  0  0
 19 21  1  0  0  0  0
 17 18  1  0  0  0  0
 17 19  1  0  0  0  0
 15 16  1  0  0  0  0
 15 17  2  0  0  0  0
 14 15  1  0  0  0  0
 14 21  2  0  0  0  0
 11 12  1  0  0  0  0
 11 13  1  0  0  0  0
 11 14  1  0  0  0  0
  9 10  1  0  0  0  0
  9 11  1  0  0  0  0
  9 23  1  0  0  0  0
  7  8  1  0  0  0  0
  7  9  1  0  0  0  0
 27 28  1  0  0  0  0
 27 29  1  0  0  0  0
 27 30  1  0  0  0  0
 25 26  1  0  0  0  0
 25 27  1  0  0  0  0
M  CHG  1  15   1
M  END
$$$$
default_name
  -OEChem-02102213163D

 30 30  0     1  0  0  0  0  0999 V2000
   -3.5507   -3.2183    1.8116 H   0  0  0  0  0  0  0  0  0  0  0  0
   -3.4597   -2.3913    1.1076 C   0  0  0  0  0  0  0  0  0  0  0  0
   -4.1577   -1.6043    1.3866 H   0  0  0  0  0  0  0  0  0  0  0  0
   -3.6807   -2.7523    0.1036 H   0  0  0  0  0  0  0  0  0  0  0  0
   -2.0477   -1.8543    1.1546 C   0  0  0  0  0  0  0  0  0  0  0  0
   -1.2227   -2.3443    1.9146 O   0  0  0  0  0  0  0  0  0  0  0  0
   -1.7517   -0.8483    0.3266 N   0  0  0  0  0  0  0  0  0  0  0  0
   -2.4847   -0.5123   -0.2804 H   0  0  0  0  0  0  0  0  0  0  0  0
   -0.4117   -0.2463    0.2186 C   0  0  1  0  0  0  0  0  0  0  0  0
    0.1554   -0.5152    1.1133 H   0  0  0  0  0  0  0  0  0  0  0  0
    0.3164   -0.8780   -0.9905 C   0  0  0  0  0  0  0  0  0  0  0  0
    0.6015   -1.9004   -0.7300 H   0  0  0  0  0  0  0  0  0  0  0  0
   -0.3798   -0.9432   -1.8295 H   0  0  0  0  0  0  0  0  0  0  0  0
    1.5495   -0.1350   -1.4592 C   0  0  0  0  0  0  0  0  0  0  0  0
    2.5142   -0.6440   -2.3071 N   0  3  0  0  0  0  0  0  0  0  0  0
    2.4467   -1.5637   -2.7524 H   0  0  0  0  0  0  0  0  0  0  0  0
    3.4560    0.3014   -2.4965 C   0  0  0  0  0  0  0  0  0  0  0  0
    4.3361    0.1955   -3.1276 H   0  0  0  0  0  0  0  0  0  0  0  0
    3.1104    1.3990   -1.7864 N   0  0  0  0  0  0  0  0  0  0  0  0
    3.6330    2.2698   -1.7415 H   0  0  0  0  0  0  0  0  0  0  0  0
    1.9155    1.1418   -1.1287 C   0  0  0  0  0  0  0  0  0  0  0  0
    1.3681    1.8165   -0.4764 H   0  0  0  0  0  0  0  0  0  0  0  0
   -0.4874    1.2908    0.1962 C   0  0  0  0  0  0  0  0  0  0  0  0
   -1.3116    1.8673   -0.5151 O   0  0  0  0  0  0  0  0  0  0  0  0
    0.3889    1.9422    0.9708 N   0  0  0  0  0  0  0  0  0  0  0  0
    1.0197    1.3866    1.5283 H   0  0  0  0  0  0  0  0  0  0  0  0
    0.5081    3.3999    1.0720 C   0  0  0  0  0  0  0  0  0  0  0  0
    0.0188    3.7538    1.9817 H   0  0  0  0  0  0  0  0  0  0  0  0
    1.5607    3.6858    1.1098 H   0  0  0  0  0  0  0  0  0  0  0  0
    0.0459    3.8890    0.2119 H   0  0  0  0  0  0  0  0  0  0  0  0
  5  6  2  0  0  0  0
  5  7  1  0  0  0  0
  2  3  1  0  0  0  0
  2  4  1  0  0  0  0
  2  5  1  0  0  0  0
  1  2  1  0  0  0  0
 23 24  2  0  0  0  0
 23 25  1  0  0  0  0
 21 22  1  0  0  0  0
 19 20  1  0  0  0  0
 19 21  1  0  0  0  0
 17 18  1  0  0  0  0
 17 19  1  0  0  0  0
 15 16  1  0  0  0  0
 15 17  2  0  0  0  0
 14 15  1  0  0  0  0
 14 21  2  0  0  0  0
 11 12  1  0  0  0  0
 11 13  1  0  0  0  0
 11 14  1  0  0  0  0
  9 10  1  0  0  0  0
  9 11  1  0  0  0  0
  9 23  1  0  0  0  0
  7  8  1  0  0  0  0
  7  9  1  0  0  0  0
 27 28  1  0  0  0  0
 27 29  1  0  0  0  0
 27 30  1  0  0  0  0
 25 26  1  0  0  0  0
 25 27  1  0  0  0  0
M  CHG  1  15   1
M  END
$$$$
