
  -OEChem-04042216003D

 30 30  0     1  0  0  0  0  0999 V2000
   -3.3028   -3.7613    1.3735 H   0  0  0  0  0  0  0  0  0  0  0  0
   -3.1906   -2.9732    0.6229 C   0  0  0  0  0  0  0  0  0  0  0  0
   -3.9453   -2.2051    0.8071 H   0  0  0  0  0  0  0  0  0  0  0  0
   -3.3533   -3.4076   -0.3662 H   0  0  0  0  0  0  0  0  0  0  0  0
   -1.8008   -2.3717    0.7056 C   0  0  0  0  0  0  0  0  0  0  0  0
   -1.0058   -2.7850    1.5284 O   0  0  0  0  0  0  0  0  0  0  0  0
   -1.4228   -1.3661   -0.1684 N   0  0  0  0  0  0  0  0  0  0  0  0
   -2.0922   -1.1285   -0.8955 H   0  0  0  0  0  0  0  0  0  0  0  0
   -0.0637   -0.7801   -0.2089 C   0  0  1  0  0  0  0  0  0  0  0  0
    0.6672   -1.5733   -0.4067 H   0  0  0  0  0  0  0  0  0  0  0  0
   -0.0349    0.2534   -1.3592 C   0  0  0  0  0  0  0  0  0  0  0  0
   -0.3091   -0.2627   -2.2854 H   0  0  0  0  0  0  0  0  0  0  0  0
   -0.8067    1.0035   -1.1560 H   0  0  0  0  0  0  0  0  0  0  0  0
    1.2732    0.9909   -1.6050 C   0  0  0  0  0  0  0  0  0  0  0  0
    1.4356    1.9523   -2.6089 N   0  3  0  0  0  0  0  0  0  0  0  0
    0.6647    2.2762   -3.1983 H   0  0  0  0  0  0  0  0  0  0  0  0
    2.6736    2.3830   -2.6511 C   0  0  0  0  0  0  0  0  0  0  0  0
    3.0768    3.1445   -3.3216 H   0  0  0  0  0  0  0  0  0  0  0  0
    3.3820    1.6838   -1.6810 N   0  0  0  0  0  0  0  0  0  0  0  0
    4.3786    1.7914   -1.4668 H   0  0  0  0  0  0  0  0  0  0  0  0
    2.5193    0.8003   -1.0489 C   0  0  0  0  0  0  0  0  0  0  0  0
    2.7985    0.0845   -0.2751 H   0  0  0  0  0  0  0  0  0  0  0  0
    0.3060   -0.1358    1.1534 C   0  0  0  0  0  0  0  0  0  0  0  0
    1.4554   -0.1937    1.5674 O   0  0  0  0  0  0  0  0  0  0  0  0
   -0.6074    0.6644    1.8174 N   0  0  0  0  0  0  0  0  0  0  0  0
   -1.5790    0.5453    1.5461 H   0  0  0  0  0  0  0  0  0  0  0  0
   -0.3322    1.2306    3.1356 C   0  0  0  0  0  0  0  0  0  0  0  0
    0.5533    1.8744    3.1022 H   0  0  0  0  0  0  0  0  0  0  0  0
   -1.1801    1.8326    3.4768 H   0  0  0  0  0  0  0  0  0  0  0  0
   -0.1574    0.4330    3.8663 H   0  0  0  0  0  0  0  0  0  0  0  0
  1  2  1  0  0  0  0
  2  3  1  0  0  0  0
  2  4  1  0  0  0  0
  2  5  1  0  0  0  0
  5  6  2  0  0  0  0
  5  7  1  0  0  0  0
  7  8  1  0  0  0  0
  7  9  1  0  0  0  0
  9 10  1  0  0  0  0
  9 11  1  0  0  0  0
  9 23  1  0  0  0  0
 11 12  1  0  0  0  0
 11 13  1  0  0  0  0
 11 14  1  0  0  0  0
 14 15  1  0  0  0  0
 14 21  2  0  0  0  0
 15 16  1  0  0  0  0
 15 17  2  0  0  0  0
 17 18  1  0  0  0  0
 17 19  1  0  0  0  0
 19 20  1  0  0  0  0
 19 21  1  0  0  0  0
 21 22  1  0  0  0  0
 23 24  2  0  0  0  0
 23 25  1  0  0  0  0
 25 26  1  0  0  0  0
 25 27  1  0  0  0  0
 27 28  1  0  0  0  0
 27 29  1  0  0  0  0
 27 30  1  0  0  0  0
M  CHG  1  15   1
M  END
$$$$

  -OEChem-04042216003D

 30 30  0     1  0  0  0  0  0999 V2000
   -3.2866   -3.7830    1.3907 H   0  0  0  0  0  0  0  0  0  0  0  0
   -3.1902   -3.0007    0.6317 C   0  0  0  0  0  0  0  0  0  0  0  0
   -3.9558   -2.2424    0.8120 H   0  0  0  0  0  0  0  0  0  0  0  0
   -3.3517   -3.4478   -0.3520 H   0  0  0  0  0  0  0  0  0  0  0  0
   -1.8094   -2.3773    0.7006 C   0  0  0  0  0  0  0  0  0  0  0  0
   -0.9999   -2.7756    1.5168 O   0  0  0  0  0  0  0  0  0  0  0  0
   -1.4551   -1.3674   -0.1776 N   0  0  0  0  0  0  0  0  0  0  0  0
   -2.1330   -1.1431   -0.9010 H   0  0  0  0  0  0  0  0  0  0  0  0
   -0.0999   -0.7775   -0.2429 C   0  0  1  0  0  0  0  0  0  0  0  0
    0.6207   -1.5766   -0.4537 H   0  0  0  0  0  0  0  0  0  0  0  0
   -0.0795    0.2492   -1.3982 C   0  0  0  0  0  0  0  0  0  0  0  0
   -0.3627   -0.2594   -2.3257 H   0  0  0  0  0  0  0  0  0  0  0  0
   -0.8431    1.0055   -1.1875 H   0  0  0  0  0  0  0  0  0  0  0  0
    1.2401    0.9659   -1.6311 C   0  0  0  0  0  0  0  0  0  0  0  0
    1.3884    2.1216   -2.4047 N   0  3  0  0  0  0  0  0  0  0  0  0
    0.6007    2.6001   -2.8487 H   0  0  0  0  0  0  0  0  0  0  0  0
    2.6436    2.5015   -2.4372 C   0  0  0  0  0  0  0  0  0  0  0  0
    3.0461    3.3782   -2.9485 H   0  0  0  0  0  0  0  0  0  0  0  0
    3.3706    1.5787   -1.6926 N   0  0  0  0  0  0  0  0  0  0  0  0
    4.3788    1.6104   -1.5116 H   0  0  0  0  0  0  0  0  0  0  0  0
    2.5003    0.6171   -1.2014 C   0  0  0  0  0  0  0  0  0  0  0  0
    2.7675   -0.2389   -0.5785 H   0  0  0  0  0  0  0  0  0  0  0  0
    0.3201   -0.1304    1.1020 C   0  0  0  0  0  0  0  0  0  0  0  0
    1.4924   -0.1644    1.4518 O   0  0  0  0  0  0  0  0  0  0  0  0
   -0.5680    0.6732    1.7944 N   0  0  0  0  0  0  0  0  0  0  0  0
   -1.5500    0.5362    1.5730 H   0  0  0  0  0  0  0  0  0  0  0  0
   -0.2377    1.2572    3.0917 C   0  0  0  0  0  0  0  0  0  0  0  0
    0.6529    1.8904    3.0159 H   0  0  0  0  0  0  0  0  0  0  0  0
   -1.0659    1.8742    3.4538 H   0  0  0  0  0  0  0  0  0  0  0  0
   -0.0447    0.4692    3.8281 H   0  0  0  0  0  0  0  0  0  0  0  0
  1  2  1  0  0  0  0
  2  3  1  0  0  0  0
  2  4  1  0  0  0  0
  2  5  1  0  0  0  0
  5  6  2  0  0  0  0
  5  7  1  0  0  0  0
  7  8  1  0  0  0  0
  7  9  1  0  0  0  0
  9 10  1  0  0  0  0
  9 11  1  0  0  0  0
  9 23  1  0  0  0  0
 11 12  1  0  0  0  0
 11 13  1  0  0  0  0
 11 14  1  0  0  0  0
 14 15  1  0  0  0  0
 14 21  2  0  0  0  0
 15 16  1  0  0  0  0
 15 17  2  0  0  0  0
 17 18  1  0  0  0  0
 17 19  1  0  0  0  0
 19 20  1  0  0  0  0
 19 21  1  0  0  0  0
 21 22  1  0  0  0  0
 23 24  2  0  0  0  0
 23 25  1  0  0  0  0
 25 26  1  0  0  0  0
 25 27  1  0  0  0  0
 27 28  1  0  0  0  0
 27 29  1  0  0  0  0
 27 30  1  0  0  0  0
M  CHG  1  15   1
M  END
$$$$

  -OEChem-04042216003D

 30 30  0     1  0  0  0  0  0999 V2000
   -3.2489   -3.8180    1.3971 H   0  0  0  0  0  0  0  0  0  0  0  0
   -3.1831   -3.0256    0.6455 C   0  0  0  0  0  0  0  0  0  0  0  0
   -3.9554   -2.2814    0.8533 H   0  0  0  0  0  0  0  0  0  0  0  0
   -3.3614   -3.4637   -0.3394 H   0  0  0  0  0  0  0  0  0  0  0  0
   -1.8110   -2.3810    0.6901 C   0  0  0  0  0  0  0  0  0  0  0  0
   -0.9832   -2.7630    1.4960 O   0  0  0  0  0  0  0  0  0  0  0  0
   -1.4856   -1.3654   -0.1926 N   0  0  0  0  0  0  0  0  0  0  0  0
   -2.1752   -1.1557   -0.9097 H   0  0  0  0  0  0  0  0  0  0  0  0
   -0.1365   -0.7657   -0.2832 C   0  0  1  0  0  0  0  0  0  0  0  0
    0.5767   -1.5687   -0.5031 H   0  0  0  0  0  0  0  0  0  0  0  0
   -0.1247    0.2514   -1.4462 C   0  0  0  0  0  0  0  0  0  0  0  0
   -0.4090   -0.2573   -2.3736 H   0  0  0  0  0  0  0  0  0  0  0  0
   -0.8852    1.0108   -1.2372 H   0  0  0  0  0  0  0  0  0  0  0  0
    1.2040    0.9524   -1.6665 C   0  0  0  0  0  0  0  0  0  0  0  0
    1.3636    2.2442   -2.1769 N   0  3  0  0  0  0  0  0  0  0  0  0
    0.5765    2.8368   -2.4519 H   0  0  0  0  0  0  0  0  0  0  0  0
    2.6317    2.5797   -2.1966 C   0  0  0  0  0  0  0  0  0  0  0  0
    3.0474    3.5351   -2.5222 H   0  0  0  0  0  0  0  0  0  0  0  0
    3.3523    1.4942   -1.7087 N   0  0  0  0  0  0  0  0  0  0  0  0
    4.3650    1.4640   -1.5557 H   0  0  0  0  0  0  0  0  0  0  0  0
    2.4642    0.4806   -1.3805 C   0  0  0  0  0  0  0  0  0  0  0  0
    2.7121   -0.4817   -0.9284 H   0  0  0  0  0  0  0  0  0  0  0  0
    0.3279   -0.1149    1.0438 C   0  0  0  0  0  0  0  0  0  0  0  0
    1.5170   -0.1295    1.3352 O   0  0  0  0  0  0  0  0  0  0  0  0
   -0.5363    0.6883    1.7662 N   0  0  0  0  0  0  0  0  0  0  0  0
   -1.5256    0.5377    1.5902 H   0  0  0  0  0  0  0  0  0  0  0  0
   -0.1558    1.2759    3.0480 C   0  0  0  0  0  0  0  0  0  0  0  0
    0.7088    1.9376    2.9287 H   0  0  0  0  0  0  0  0  0  0  0  0
   -0.9828    1.8637    3.4584 H   0  0  0  0  0  0  0  0  0  0  0  0
    0.1016    0.4907    3.7678 H   0  0  0  0  0  0  0  0  0  0  0  0
  1  2  1  0  0  0  0
  2  3  1  0  0  0  0
  2  4  1  0  0  0  0
  2  5  1  0  0  0  0
  5  6  2  0  0  0  0
  5  7  1  0  0  0  0
  7  8  1  0  0  0  0
  7  9  1  0  0  0  0
  9 10  1  0  0  0  0
  9 11  1  0  0  0  0
  9 23  1  0  0  0  0
 11 12  1  0  0  0  0
 11 13  1  0  0  0  0
 11 14  1  0  0  0  0
 14 15  1  0  0  0  0
 14 21  2  0  0  0  0
 15 16  1  0  0  0  0
 15 17  2  0  0  0  0
 17 18  1  0  0  0  0
 17 19  1  0  0  0  0
 19 20  1  0  0  0  0
 19 21  1  0  0  0  0
 21 22  1  0  0  0  0
 23 24  2  0  0  0  0
 23 25  1  0  0  0  0
 25 26  1  0  0  0  0
 25 27  1  0  0  0  0
 27 28  1  0  0  0  0
 27 29  1  0  0  0  0
 27 30  1  0  0  0  0
M  CHG  1  15   1
M  END
$$$$

  -OEChem-04042216003D

 30 30  0     1  0  0  0  0  0999 V2000
   -3.2062   -3.8450    1.4063 H   0  0  0  0  0  0  0  0  0  0  0  0
   -3.1603   -3.0556    0.6499 C   0  0  0  0  0  0  0  0  0  0  0  0
   -3.9431   -2.3232    0.8609 H   0  0  0  0  0  0  0  0  0  0  0  0
   -3.3399   -3.5014   -0.3314 H   0  0  0  0  0  0  0  0  0  0  0  0
   -1.7985   -2.3885    0.6781 C   0  0  0  0  0  0  0  0  0  0  0  0
   -0.9512   -2.7617    1.4678 O   0  0  0  0  0  0  0  0  0  0  0  0
   -1.5028   -1.3632   -0.2037 N   0  0  0  0  0  0  0  0  0  0  0  0
   -2.2081   -1.1565   -0.9064 H   0  0  0  0  0  0  0  0  0  0  0  0
   -0.1635   -0.7466   -0.3150 C   0  0  1  0  0  0  0  0  0  0  0  0
    0.5508   -1.5447   -0.5475 H   0  0  0  0  0  0  0  0  0  0  0  0
   -0.1696    0.2715   -1.4752 C   0  0  0  0  0  0  0  0  0  0  0  0
   -0.4503   -0.2348   -2.4050 H   0  0  0  0  0  0  0  0  0  0  0  0
   -0.9328    1.0282   -1.2661 H   0  0  0  0  0  0  0  0  0  0  0  0
    1.1645    0.9632   -1.6774 C   0  0  0  0  0  0  0  0  0  0  0  0
    1.3583    2.3309   -1.8886 N   0  3  0  0  0  0  0  0  0  0  0  0
    0.5894    3.0039   -1.9321 H   0  0  0  0  0  0  0  0  0  0  0  0
    2.6388    2.6107   -1.9385 C   0  0  0  0  0  0  0  0  0  0  0  0
    3.0841    3.5993   -2.0628 H   0  0  0  0  0  0  0  0  0  0  0  0
    3.3294    1.4129   -1.7805 N   0  0  0  0  0  0  0  0  0  0  0  0
    4.3469    1.3107   -1.7180 H   0  0  0  0  0  0  0  0  0  0  0  0
    2.4112    0.3862   -1.6125 C   0  0  0  0  0  0  0  0  0  0  0  0
    2.6336   -0.6612   -1.4045 H   0  0  0  0  0  0  0  0  0  0  0  0
    0.3315   -0.0945    0.9997 C   0  0  0  0  0  0  0  0  0  0  0  0
    1.5328   -0.0677    1.2361 O   0  0  0  0  0  0  0  0  0  0  0  0
   -0.5218    0.6985    1.7463 N   0  0  0  0  0  0  0  0  0  0  0  0
   -1.5130    0.5183    1.6126 H   0  0  0  0  0  0  0  0  0  0  0  0
   -0.1079    1.3032    3.0100 C   0  0  0  0  0  0  0  0  0  0  0  0
    0.7615    1.9530    2.8629 H   0  0  0  0  0  0  0  0  0  0  0  0
   -0.9194    1.9077    3.4272 H   0  0  0  0  0  0  0  0  0  0  0  0
    0.1551    0.5270    3.7371 H   0  0  0  0  0  0  0  0  0  0  0  0
  1  2  1  0  0  0  0
  2  3  1  0  0  0  0
  2  4  1  0  0  0  0
  2  5  1  0  0  0  0
  5  6  2  0  0  0  0
  5  7  1  0  0  0  0
  7  8  1  0  0  0  0
  7  9  1  0  0  0  0
  9 10  1  0  0  0  0
  9 11  1  0  0  0  0
  9 23  1  0  0  0  0
 11 12  1  0  0  0  0
 11 13  1  0  0  0  0
 11 14  1  0  0  0  0
 14 15  1  0  0  0  0
 14 21  2  0  0  0  0
 15 16  1  0  0  0  0
 15 17  2  0  0  0  0
 17 18  1  0  0  0  0
 17 19  1  0  0  0  0
 19 20  1  0  0  0  0
 19 21  1  0  0  0  0
 21 22  1  0  0  0  0
 23 24  2  0  0  0  0
 23 25  1  0  0  0  0
 25 26  1  0  0  0  0
 25 27  1  0  0  0  0
 27 28  1  0  0  0  0
 27 29  1  0  0  0  0
 27 30  1  0  0  0  0
M  CHG  1  15   1
M  END
$$$$

  -OEChem-04042216003D

 30 30  0     1  0  0  0  0  0999 V2000
   -3.1589   -3.8673    1.4107 H   0  0  0  0  0  0  0  0  0  0  0  0
   -3.1326   -3.0751    0.6564 C   0  0  0  0  0  0  0  0  0  0  0  0
   -3.9224   -2.3537    0.8787 H   0  0  0  0  0  0  0  0  0  0  0  0
   -3.3178   -3.5205   -0.3241 H   0  0  0  0  0  0  0  0  0  0  0  0
   -1.7798   -2.3898    0.6707 C   0  0  0  0  0  0  0  0  0  0  0  0
   -0.9211   -2.7472    1.4555 O   0  0  0  0  0  0  0  0  0  0  0  0
   -1.5081   -1.3590   -0.2123 N   0  0  0  0  0  0  0  0  0  0  0  0
   -2.2221   -1.1639   -0.9096 H   0  0  0  0  0  0  0  0  0  0  0  0
   -0.1779   -0.7265   -0.3394 C   0  0  1  0  0  0  0  0  0  0  0  0
    0.5436   -1.5146   -0.5833 H   0  0  0  0  0  0  0  0  0  0  0  0
   -0.2041    0.2996   -1.4912 C   0  0  0  0  0  0  0  0  0  0  0  0
   -0.4773   -0.2051   -2.4240 H   0  0  0  0  0  0  0  0  0  0  0  0
   -0.9714    1.0528   -1.2846 H   0  0  0  0  0  0  0  0  0  0  0  0
    1.1348    0.9813   -1.6723 C   0  0  0  0  0  0  0  0  0  0  0  0
    1.3902    2.3508   -1.5706 N   0  3  0  0  0  0  0  0  0  0  0  0
    0.6687    3.0377   -1.3389 H   0  0  0  0  0  0  0  0  0  0  0  0
    2.6759    2.5834   -1.6816 C   0  0  0  0  0  0  0  0  0  0  0  0
    3.1702    3.5526   -1.5949 H   0  0  0  0  0  0  0  0  0  0  0  0
    3.3008    1.3586   -1.8998 N   0  0  0  0  0  0  0  0  0  0  0  0
    4.3116    1.2074   -1.9694 H   0  0  0  0  0  0  0  0  0  0  0  0
    2.3397    0.3567   -1.8876 C   0  0  0  0  0  0  0  0  0  0  0  0
    2.5105   -0.7165   -1.9729 H   0  0  0  0  0  0  0  0  0  0  0  0
    0.3300   -0.0711    0.9685 C   0  0  0  0  0  0  0  0  0  0  0  0
    1.5360    0.0032    1.1687 O   0  0  0  0  0  0  0  0  0  0  0  0
   -0.5246    0.7098    1.7262 N   0  0  0  0  0  0  0  0  0  0  0  0
   -1.5129    0.4969    1.6204 H   0  0  0  0  0  0  0  0  0  0  0  0
   -0.0979    1.3260    2.9801 C   0  0  0  0  0  0  0  0  0  0  0  0
    0.7415    2.0086    2.8108 H   0  0  0  0  0  0  0  0  0  0  0  0
   -0.9197    1.8974    3.4229 H   0  0  0  0  0  0  0  0  0  0  0  0
    0.2150    0.5583    3.6965 H   0  0  0  0  0  0  0  0  0  0  0  0
  1  2  1  0  0  0  0
  2  3  1  0  0  0  0
  2  4  1  0  0  0  0
  2  5  1  0  0  0  0
  5  6  2  0  0  0  0
  5  7  1  0  0  0  0
  7  8  1  0  0  0  0
  7  9  1  0  0  0  0
  9 10  1  0  0  0  0
  9 11  1  0  0  0  0
  9 23  1  0  0  0  0
 11 12  1  0  0  0  0
 11 13  1  0  0  0  0
 11 14  1  0  0  0  0
 14 15  1  0  0  0  0
 14 21  2  0  0  0  0
 15 16  1  0  0  0  0
 15 17  2  0  0  0  0
 17 18  1  0  0  0  0
 17 19  1  0  0  0  0
 19 20  1  0  0  0  0
 19 21  1  0  0  0  0
 21 22  1  0  0  0  0
 23 24  2  0  0  0  0
 23 25  1  0  0  0  0
 25 26  1  0  0  0  0
 25 27  1  0  0  0  0
 27 28  1  0  0  0  0
 27 29  1  0  0  0  0
 27 30  1  0  0  0  0
M  CHG  1  15   1
M  END
$$$$

  -OEChem-04042216003D

 30 30  0     1  0  0  0  0  0999 V2000
   -3.1429   -3.8699    1.4102 H   0  0  0  0  0  0  0  0  0  0  0  0
   -3.1184   -3.0800    0.6537 C   0  0  0  0  0  0  0  0  0  0  0  0
   -3.9167   -2.3653    0.8679 H   0  0  0  0  0  0  0  0  0  0  0  0
   -3.2925   -3.5301   -0.3266 H   0  0  0  0  0  0  0  0  0  0  0  0
   -1.7721   -2.3824    0.6753 C   0  0  0  0  0  0  0  0  0  0  0  0
   -0.9166   -2.7278    1.4691 O   0  0  0  0  0  0  0  0  0  0  0  0
   -1.5040   -1.3526   -0.2096 N   0  0  0  0  0  0  0  0  0  0  0  0
   -2.2153   -1.1693   -0.9133 H   0  0  0  0  0  0  0  0  0  0  0  0
   -0.1756   -0.7166   -0.3399 C   0  0  1  0  0  0  0  0  0  0  0  0
    0.5527   -1.4976   -0.5883 H   0  0  0  0  0  0  0  0  0  0  0  0
   -0.2116    0.3152   -1.4852 C   0  0  0  0  0  0  0  0  0  0  0  0
   -0.4801   -0.1914   -2.4183 H   0  0  0  0  0  0  0  0  0  0  0  0
   -0.9802    1.0690   -1.2850 H   0  0  0  0  0  0  0  0  0  0  0  0
    1.1311    0.9880   -1.6543 C   0  0  0  0  0  0  0  0  0  0  0  0
    1.4632    2.2857   -1.2602 N   0  3  0  0  0  0  0  0  0  0  0  0
    0.8240    2.8883   -0.7362 H   0  0  0  0  0  0  0  0  0  0  0  0
    2.7357    2.5123   -1.4783 C   0  0  0  0  0  0  0  0  0  0  0  0
    3.2883    3.4137   -1.2082 H   0  0  0  0  0  0  0  0  0  0  0  0
    3.2622    1.3740   -2.0831 N   0  0  0  0  0  0  0  0  0  0  0  0
    4.2457    1.2320   -2.3320 H   0  0  0  0  0  0  0  0  0  0  0  0
    2.2604    0.4171   -2.1873 C   0  0  0  0  0  0  0  0  0  0  0  0
    2.3578   -0.5987   -2.5704 H   0  0  0  0  0  0  0  0  0  0  0  0
    0.3272   -0.0592    0.9700 C   0  0  0  0  0  0  0  0  0  0  0  0
    1.5321    0.0523    1.1596 O   0  0  0  0  0  0  0  0  0  0  0  0
   -0.5362    0.7174    1.7227 N   0  0  0  0  0  0  0  0  0  0  0  0
   -1.5198    0.4784    1.6260 H   0  0  0  0  0  0  0  0  0  0  0  0
   -0.1182    1.3376    2.9780 C   0  0  0  0  0  0  0  0  0  0  0  0
    0.7160    2.0274    2.8121 H   0  0  0  0  0  0  0  0  0  0  0  0
   -0.9464    1.9019    3.4183 H   0  0  0  0  0  0  0  0  0  0  0  0
    0.1992    0.5728    3.6957 H   0  0  0  0  0  0  0  0  0  0  0  0
  1  2  1  0  0  0  0
  2  3  1  0  0  0  0
  2  4  1  0  0  0  0
  2  5  1  0  0  0  0
  5  6  2  0  0  0  0
  5  7  1  0  0  0  0
  7  8  1  0  0  0  0
  7  9  1  0  0  0  0
  9 10  1  0  0  0  0
  9 11  1  0  0  0  0
  9 23  1  0  0  0  0
 11 12  1  0  0  0  0
 11 13  1  0  0  0  0
 11 14  1  0  0  0  0
 14 15  1  0  0  0  0
 14 21  2  0  0  0  0
 15 16  1  0  0  0  0
 15 17  2  0  0  0  0
 17 18  1  0  0  0  0
 17 19  1  0  0  0  0
 19 20  1  0  0  0  0
 19 21  1  0  0  0  0
 21 22  1  0  0  0  0
 23 24  2  0  0  0  0
 23 25  1  0  0  0  0
 25 26  1  0  0  0  0
 25 27  1  0  0  0  0
 27 28  1  0  0  0  0
 27 29  1  0  0  0  0
 27 30  1  0  0  0  0
M  CHG  1  15   1
M  END
$$$$

  -OEChem-04042216003D

 30 30  0     1  0  0  0  0  0999 V2000
   -3.1644   -3.8464    1.4230 H   0  0  0  0  0  0  0  0  0  0  0  0
   -3.1224   -3.0681    0.6553 C   0  0  0  0  0  0  0  0  0  0  0  0
   -3.9243   -2.3496    0.8411 H   0  0  0  0  0  0  0  0  0  0  0  0
   -3.2755   -3.5333   -0.3215 H   0  0  0  0  0  0  0  0  0  0  0  0
   -1.7760   -2.3712    0.6956 C   0  0  0  0  0  0  0  0  0  0  0  0
   -0.9371   -2.7082    1.5101 O   0  0  0  0  0  0  0  0  0  0  0  0
   -1.4900   -1.3508   -0.1952 N   0  0  0  0  0  0  0  0  0  0  0  0
   -2.1858   -1.1800   -0.9171 H   0  0  0  0  0  0  0  0  0  0  0  0
   -0.1557   -0.7248   -0.3182 C   0  0  1  0  0  0  0  0  0  0  0  0
    0.5756   -1.5057   -0.5593 H   0  0  0  0  0  0  0  0  0  0  0  0
   -0.1846    0.3093   -1.4622 C   0  0  0  0  0  0  0  0  0  0  0  0
   -0.4568   -0.2006   -2.3925 H   0  0  0  0  0  0  0  0  0  0  0  0
   -0.9499    1.0677   -1.2659 H   0  0  0  0  0  0  0  0  0  0  0  0
    1.1591    0.9802   -1.6375 C   0  0  0  0  0  0  0  0  0  0  0  0
    1.5926    2.1455   -1.0009 N   0  3  0  0  0  0  0  0  0  0  0  0
    1.0866    2.5629   -0.2149 H   0  0  0  0  0  0  0  0  0  0  0  0
    2.8250    2.4196   -1.3524 C   0  0  0  0  0  0  0  0  0  0  0  0
    3.4496    3.2176   -0.9470 H   0  0  0  0  0  0  0  0  0  0  0  0
    3.2051    1.4752   -2.3025 N   0  0  0  0  0  0  0  0  0  0  0  0
    4.1267    1.4131   -2.7454 H   0  0  0  0  0  0  0  0  0  0  0  0
    2.1646    0.5709   -2.4776 C   0  0  0  0  0  0  0  0  0  0  0  0
    2.1546   -0.3043   -3.1272 H   0  0  0  0  0  0  0  0  0  0  0  0
    0.3233   -0.0641    0.9993 C   0  0  0  0  0  0  0  0  0  0  0  0
    1.5228    0.0683    1.2069 O   0  0  0  0  0  0  0  0  0  0  0  0
   -0.5555    0.7176    1.7288 N   0  0  0  0  0  0  0  0  0  0  0  0
   -1.5364    0.4772    1.6081 H   0  0  0  0  0  0  0  0  0  0  0  0
   -0.1707    1.3250    3.0011 C   0  0  0  0  0  0  0  0  0  0  0  0
    0.6803    2.0015    2.8698 H   0  0  0  0  0  0  0  0  0  0  0  0
   -1.0042    1.9013    3.4152 H   0  0  0  0  0  0  0  0  0  0  0  0
    0.1079    0.5510    3.7251 H   0  0  0  0  0  0  0  0  0  0  0  0
  1  2  1  0  0  0  0
  2  3  1  0  0  0  0
  2  4  1  0  0  0  0
  2  5  1  0  0  0  0
  5  6  2  0  0  0  0
  5  7  1  0  0  0  0
  7  8  1  0  0  0  0
  7  9  1  0  0  0  0
  9 10  1  0  0  0  0
  9 11  1  0  0  0  0
  9 23  1  0  0  0  0
 11 12  1  0  0  0  0
 11 13  1  0  0  0  0
 11 14  1  0  0  0  0
 14 15  1  0  0  0  0
 14 21  2  0  0  0  0
 15 16  1  0  0  0  0
 15 17  2  0  0  0  0
 17 18  1  0  0  0  0
 17 19  1  0  0  0  0
 19 20  1  0  0  0  0
 19 21  1  0  0  0  0
 21 22  1  0  0  0  0
 23 24  2  0  0  0  0
 23 25  1  0  0  0  0
 25 26  1  0  0  0  0
 25 27  1  0  0  0  0
 27 28  1  0  0  0  0
 27 29  1  0  0  0  0
 27 30  1  0  0  0  0
M  CHG  1  15   1
M  END
$$$$

  -OEChem-04042216003D

 30 30  0     1  0  0  0  0  0999 V2000
   -3.1994   -3.8191    1.4306 H   0  0  0  0  0  0  0  0  0  0  0  0
   -3.1364   -3.0490    0.6560 C   0  0  0  0  0  0  0  0  0  0  0  0
   -3.9325   -2.3196    0.8223 H   0  0  0  0  0  0  0  0  0  0  0  0
   -3.2806   -3.5220   -0.3184 H   0  0  0  0  0  0  0  0  0  0  0  0
   -1.7826   -2.3674    0.7107 C   0  0  0  0  0  0  0  0  0  0  0  0
   -0.9586   -2.7111    1.5375 O   0  0  0  0  0  0  0  0  0  0  0  0
   -1.4725   -1.3548   -0.1814 N   0  0  0  0  0  0  0  0  0  0  0  0
   -2.1563   -1.1820   -0.9144 H   0  0  0  0  0  0  0  0  0  0  0  0
   -0.1294   -0.7434   -0.2907 C   0  0  1  0  0  0  0  0  0  0  0  0
    0.6022   -1.5274   -0.5214 H   0  0  0  0  0  0  0  0  0  0  0  0
   -0.1436    0.2933   -1.4353 C   0  0  0  0  0  0  0  0  0  0  0  0
   -0.4304   -0.2125   -2.3632 H   0  0  0  0  0  0  0  0  0  0  0  0
   -0.9019    1.0567   -1.2308 H   0  0  0  0  0  0  0  0  0  0  0  0
    1.1954    0.9743   -1.6333 C   0  0  0  0  0  0  0  0  0  0  0  0
    1.7623    1.9627   -0.8241 N   0  3  0  0  0  0  0  0  0  0  0  0
    1.4318    2.1307    0.1331 H   0  0  0  0  0  0  0  0  0  0  0  0
    2.9352    2.3130   -1.2906 C   0  0  0  0  0  0  0  0  0  0  0  0
    3.6461    2.9839   -0.8048 H   0  0  0  0  0  0  0  0  0  0  0  0
    3.1273    1.6267   -2.4861 N   0  0  0  0  0  0  0  0  0  0  0  0
    3.9611    1.6837   -3.0785 H   0  0  0  0  0  0  0  0  0  0  0  0
    2.0430    0.7829   -2.6968 C   0  0  0  0  0  0  0  0  0  0  0  0
    1.8963    0.0955   -3.5301 H   0  0  0  0  0  0  0  0  0  0  0  0
    0.3179   -0.0870    1.0409 C   0  0  0  0  0  0  0  0  0  0  0  0
    1.5106    0.0585    1.2778 O   0  0  0  0  0  0  0  0  0  0  0  0
   -0.5763    0.6988    1.7466 N   0  0  0  0  0  0  0  0  0  0  0  0
   -1.5553    0.4673    1.5950 H   0  0  0  0  0  0  0  0  0  0  0  0
   -0.2286    1.3066    3.0298 C   0  0  0  0  0  0  0  0  0  0  0  0
    0.6232    1.9867    2.9234 H   0  0  0  0  0  0  0  0  0  0  0  0
   -1.0756    1.8792    3.4211 H   0  0  0  0  0  0  0  0  0  0  0  0
    0.0318    0.5328    3.7609 H   0  0  0  0  0  0  0  0  0  0  0  0
  1  2  1  0  0  0  0
  2  3  1  0  0  0  0
  2  4  1  0  0  0  0
  2  5  1  0  0  0  0
  5  6  2  0  0  0  0
  5  7  1  0  0  0  0
  7  8  1  0  0  0  0
  7  9  1  0  0  0  0
  9 10  1  0  0  0  0
  9 11  1  0  0  0  0
  9 23  1  0  0  0  0
 11 12  1  0  0  0  0
 11 13  1  0  0  0  0
 11 14  1  0  0  0  0
 14 15  1  0  0  0  0
 14 21  2  0  0  0  0
 15 16  1  0  0  0  0
 15 17  2  0  0  0  0
 17 18  1  0  0  0  0
 17 19  1  0  0  0  0
 19 20  1  0  0  0  0
 19 21  1  0  0  0  0
 21 22  1  0  0  0  0
 23 24  2  0  0  0  0
 23 25  1  0  0  0  0
 25 26  1  0  0  0  0
 25 27  1  0  0  0  0
 27 28  1  0  0  0  0
 27 29  1  0  0  0  0
 27 30  1  0  0  0  0
M  CHG  1  15   1
M  END
$$$$

  -OEChem-04042216003D

 30 30  0     1  0  0  0  0  0999 V2000
   -3.2337   -3.8078    1.4095 H   0  0  0  0  0  0  0  0  0  0  0  0
   -3.1551   -3.0292    0.6450 C   0  0  0  0  0  0  0  0  0  0  0  0
   -3.9391   -2.2884    0.8184 H   0  0  0  0  0  0  0  0  0  0  0  0
   -3.3038   -3.4872   -0.3358 H   0  0  0  0  0  0  0  0  0  0  0  0
   -1.7898   -2.3724    0.7117 C   0  0  0  0  0  0  0  0  0  0  0  0
   -0.9756   -2.7373    1.5393 O   0  0  0  0  0  0  0  0  0  0  0  0
   -1.4574   -1.3601   -0.1726 N   0  0  0  0  0  0  0  0  0  0  0  0
   -2.1361   -1.1670   -0.9052 H   0  0  0  0  0  0  0  0  0  0  0  0
   -0.1072   -0.7606   -0.2640 C   0  0  1  0  0  0  0  0  0  0  0  0
    0.6228   -1.5480   -0.4873 H   0  0  0  0  0  0  0  0  0  0  0  0
   -0.1067    0.2778   -1.4102 C   0  0  0  0  0  0  0  0  0  0  0  0
   -0.4035   -0.2245   -2.3369 H   0  0  0  0  0  0  0  0  0  0  0  0
   -0.8622    1.0414   -1.1956 H   0  0  0  0  0  0  0  0  0  0  0  0
    1.2243    0.9753   -1.6304 C   0  0  0  0  0  0  0  0  0  0  0  0
    1.9447    1.7585   -0.7241 N   0  3  0  0  0  0  0  0  0  0  0  0
    1.7637    1.7081    0.2889 H   0  0  0  0  0  0  0  0  0  0  0  0
    3.0511    2.1951   -1.2719 C   0  0  0  0  0  0  0  0  0  0  0  0
    3.8474    2.7419   -0.7634 H   0  0  0  0  0  0  0  0  0  0  0  0
    3.0441    1.7810   -2.6001 N   0  0  0  0  0  0  0  0  0  0  0  0
    3.7828    1.9653   -3.2858 H   0  0  0  0  0  0  0  0  0  0  0  0
    1.9092    1.0094   -2.8213 C   0  0  0  0  0  0  0  0  0  0  0  0
    1.6181    0.5221   -3.7520 H   0  0  0  0  0  0  0  0  0  0  0  0
    0.3125   -0.1170    1.0837 C   0  0  0  0  0  0  0  0  0  0  0  0
    1.5001    0.0188    1.3535 O   0  0  0  0  0  0  0  0  0  0  0  0
   -0.5924    0.6682    1.7754 N   0  0  0  0  0  0  0  0  0  0  0  0
   -1.5704    0.4520    1.5978 H   0  0  0  0  0  0  0  0  0  0  0  0
   -0.2674    1.2906    3.0574 C   0  0  0  0  0  0  0  0  0  0  0  0
    0.5607    1.9988    2.9487 H   0  0  0  0  0  0  0  0  0  0  0  0
   -1.1336    1.8362    3.4454 H   0  0  0  0  0  0  0  0  0  0  0  0
    0.0179    0.5290    3.7920 H   0  0  0  0  0  0  0  0  0  0  0  0
  1  2  1  0  0  0  0
  2  3  1  0  0  0  0
  2  4  1  0  0  0  0
  2  5  1  0  0  0  0
  5  6  2  0  0  0  0
  5  7  1  0  0  0  0
  7  8  1  0  0  0  0
  7  9  1  0  0  0  0
  9 10  1  0  0  0  0
  9 11  1  0  0  0  0
  9 23  1  0  0  0  0
 11 12  1  0  0  0  0
 11 13  1  0  0  0  0
 11 14  1  0  0  0  0
 14 15  1  0  0  0  0
 14 21  2  0  0  0  0
 15 16  1  0  0  0  0
 15 17  2  0  0  0  0
 17 18  1  0  0  0  0
 17 19  1  0  0  0  0
 19 20  1  0  0  0  0
 19 21  1  0  0  0  0
 21 22  1  0  0  0  0
 23 24  2  0  0  0  0
 23 25  1  0  0  0  0
 25 26  1  0  0  0  0
 25 27  1  0  0  0  0
 27 28  1  0  0  0  0
 27 29  1  0  0  0  0
 27 30  1  0  0  0  0
M  CHG  1  15   1
M  END
$$$$

  -OEChem-04042216003D

 30 30  0     1  0  0  0  0  0999 V2000
   -3.2579   -3.7980    1.3877 H   0  0  0  0  0  0  0  0  0  0  0  0
   -3.1686   -3.0148    0.6289 C   0  0  0  0  0  0  0  0  0  0  0  0
   -3.9448   -2.2665    0.8053 H   0  0  0  0  0  0  0  0  0  0  0  0
   -3.3198   -3.4640   -0.3555 H   0  0  0  0  0  0  0  0  0  0  0  0
   -1.7965   -2.3736    0.7045 C   0  0  0  0  0  0  0  0  0  0  0  0
   -0.9877   -2.7563    1.5294 O   0  0  0  0  0  0  0  0  0  0  0  0
   -1.4504   -1.3574   -0.1703 N   0  0  0  0  0  0  0  0  0  0  0  0
   -2.1266   -1.1456   -0.8999 H   0  0  0  0  0  0  0  0  0  0  0  0
   -0.0966   -0.7638   -0.2440 C   0  0  1  0  0  0  0  0  0  0  0  0
    0.6316   -1.5547   -0.4608 H   0  0  0  0  0  0  0  0  0  0  0  0
   -0.0831    0.2702   -1.3962 C   0  0  0  0  0  0  0  0  0  0  0  0
   -0.3812   -0.2350   -2.3208 H   0  0  0  0  0  0  0  0  0  0  0  0
   -0.8401    1.0327   -1.1820 H   0  0  0  0  0  0  0  0  0  0  0  0
    1.2387    0.9849   -1.6315 C   0  0  0  0  0  0  0  0  0  0  0  0
    2.1104    1.5531   -0.6975 N   0  3  0  0  0  0  0  0  0  0  0  0
    2.0190    1.3692    0.3139 H   0  0  0  0  0  0  0  0  0  0  0  0
    3.1583    2.0687   -1.2885 C   0  0  0  0  0  0  0  0  0  0  0  0
    4.0257    2.5081   -0.7920 H   0  0  0  0  0  0  0  0  0  0  0  0
    2.9725    1.9103   -2.6579 N   0  0  0  0  0  0  0  0  0  0  0  0
    3.6265    2.2111   -3.3870 H   0  0  0  0  0  0  0  0  0  0  0  0
    1.7821    1.2241   -2.8715 C   0  0  0  0  0  0  0  0  0  0  0  0
    1.3606    0.9288   -3.8325 H   0  0  0  0  0  0  0  0  0  0  0  0
    0.3080   -0.1315    1.1128 C   0  0  0  0  0  0  0  0  0  0  0  0
    1.4928   -0.0405    1.4140 O   0  0  0  0  0  0  0  0  0  0  0  0
   -0.5976    0.6536    1.8031 N   0  0  0  0  0  0  0  0  0  0  0  0
   -1.5764    0.4672    1.5994 H   0  0  0  0  0  0  0  0  0  0  0  0
   -0.2831    1.2595    3.0953 C   0  0  0  0  0  0  0  0  0  0  0  0
    0.5537    1.9599    3.0038 H   0  0  0  0  0  0  0  0  0  0  0  0
   -1.1490    1.8098    3.4773 H   0  0  0  0  0  0  0  0  0  0  0  0
   -0.0151    0.4876    3.8256 H   0  0  0  0  0  0  0  0  0  0  0  0
  1  2  1  0  0  0  0
  2  3  1  0  0  0  0
  2  4  1  0  0  0  0
  2  5  1  0  0  0  0
  5  6  2  0  0  0  0
  5  7  1  0  0  0  0
  7  8  1  0  0  0  0
  7  9  1  0  0  0  0
  9 10  1  0  0  0  0
  9 11  1  0  0  0  0
  9 23  1  0  0  0  0
 11 12  1  0  0  0  0
 11 13  1  0  0  0  0
 11 14  1  0  0  0  0
 14 15  1  0  0  0  0
 14 21  2  0  0  0  0
 15 16  1  0  0  0  0
 15 17  2  0  0  0  0
 17 18  1  0  0  0  0
 17 19  1  0  0  0  0
 19 20  1  0  0  0  0
 19 21  1  0  0  0  0
 21 22  1  0  0  0  0
 23 24  2  0  0  0  0
 23 25  1  0  0  0  0
 25 26  1  0  0  0  0
 25 27  1  0  0  0  0
 27 28  1  0  0  0  0
 27 29  1  0  0  0  0
 27 30  1  0  0  0  0
M  CHG  1  15   1
M  END
$$$$

  -OEChem-04042216003D

 30 30  0     1  0  0  0  0  0999 V2000
   -3.2839   -3.7847    1.3714 H   0  0  0  0  0  0  0  0  0  0  0  0
   -3.1852   -2.9993    0.6163 C   0  0  0  0  0  0  0  0  0  0  0  0
   -3.9521   -2.2425    0.7971 H   0  0  0  0  0  0  0  0  0  0  0  0
   -3.3424   -3.4422   -0.3701 H   0  0  0  0  0  0  0  0  0  0  0  0
   -1.8051   -2.3749    0.6939 C   0  0  0  0  0  0  0  0  0  0  0  0
   -1.0000   -2.7718    1.5157 O   0  0  0  0  0  0  0  0  0  0  0  0
   -1.4480   -1.3557   -0.1730 N   0  0  0  0  0  0  0  0  0  0  0  0
   -2.1233   -1.1261   -0.8980 H   0  0  0  0  0  0  0  0  0  0  0  0
   -0.0918   -0.7658   -0.2317 C   0  0  1  0  0  0  0  0  0  0  0  0
    0.6338   -1.5608   -0.4435 H   0  0  0  0  0  0  0  0  0  0  0  0
   -0.0664    0.2621   -1.3897 C   0  0  0  0  0  0  0  0  0  0  0  0
   -0.3582   -0.2481   -2.3138 H   0  0  0  0  0  0  0  0  0  0  0  0
   -0.8271    1.0226   -1.1822 H   0  0  0  0  0  0  0  0  0  0  0  0
    1.2494    0.9876   -1.6310 C   0  0  0  0  0  0  0  0  0  0  0  0
    2.2579    1.3313   -0.7251 N   0  3  0  0  0  0  0  0  0  0  0  0
    2.2357    1.0351    0.2638 H   0  0  0  0  0  0  0  0  0  0  0  0
    3.2500    1.9346   -1.3286 C   0  0  0  0  0  0  0  0  0  0  0  0
    4.1756    2.2764   -0.8613 H   0  0  0  0  0  0  0  0  0  0  0  0
    2.9059    2.0338   -2.6727 N   0  0  0  0  0  0  0  0  0  0  0  0
    3.4843    2.4537   -3.4067 H   0  0  0  0  0  0  0  0  0  0  0  0
    1.6641    1.4371   -2.8625 C   0  0  0  0  0  0  0  0  0  0  0  0
    1.1222    1.3396   -3.8035 H   0  0  0  0  0  0  0  0  0  0  0  0
    0.3080   -0.1398    1.1287 C   0  0  0  0  0  0  0  0  0  0  0  0
    1.4900   -0.0978    1.4524 O   0  0  0  0  0  0  0  0  0  0  0  0
   -0.5926    0.6480    1.8213 N   0  0  0  0  0  0  0  0  0  0  0  0
   -1.5722    0.4904    1.5988 H   0  0  0  0  0  0  0  0  0  0  0  0
   -0.2812    1.2302    3.1248 C   0  0  0  0  0  0  0  0  0  0  0  0
    0.5652    1.9212    3.0497 H   0  0  0  0  0  0  0  0  0  0  0  0
   -1.1428    1.7861    3.5082 H   0  0  0  0  0  0  0  0  0  0  0  0
   -0.0290    0.4439    3.8455 H   0  0  0  0  0  0  0  0  0  0  0  0
  1  2  1  0  0  0  0
  2  3  1  0  0  0  0
  2  4  1  0  0  0  0
  2  5  1  0  0  0  0
  5  6  2  0  0  0  0
  5  7  1  0  0  0  0
  7  8  1  0  0  0  0
  7  9  1  0  0  0  0
  9 10  1  0  0  0  0
  9 11  1  0  0  0  0
  9 23  1  0  0  0  0
 11 12  1  0  0  0  0
 11 13  1  0  0  0  0
 11 14  1  0  0  0  0
 14 15  1  0  0  0  0
 14 21  2  0  0  0  0
 15 16  1  0  0  0  0
 15 17  2  0  0  0  0
 17 18  1  0  0  0  0
 17 19  1  0  0  0  0
 19 20  1  0  0  0  0
 19 21  1  0  0  0  0
 21 22  1  0  0  0  0
 23 24  2  0  0  0  0
 23 25  1  0  0  0  0
 25 26  1  0  0  0  0
 25 27  1  0  0  0  0
 27 28  1  0  0  0  0
 27 29  1  0  0  0  0
 27 30  1  0  0  0  0
M  CHG  1  15   1
M  END
$$$$

  -OEChem-04042216003D

 30 30  0     1  0  0  0  0  0999 V2000
   -3.2927   -3.7799    1.3691 H   0  0  0  0  0  0  0  0  0  0  0  0
   -3.1936   -2.9947    0.6136 C   0  0  0  0  0  0  0  0  0  0  0  0
   -3.9560   -2.2342    0.7974 H   0  0  0  0  0  0  0  0  0  0  0  0
   -3.3564   -3.4363   -0.3725 H   0  0  0  0  0  0  0  0  0  0  0  0
   -1.8105   -2.3769    0.6856 C   0  0  0  0  0  0  0  0  0  0  0  0
   -1.0000   -2.7851    1.4966 O   0  0  0  0  0  0  0  0  0  0  0  0
   -1.4550   -1.3540   -0.1775 N   0  0  0  0  0  0  0  0  0  0  0  0
   -2.1364   -1.1113   -0.8925 H   0  0  0  0  0  0  0  0  0  0  0  0
   -0.0989   -0.7654   -0.2346 C   0  0  1  0  0  0  0  0  0  0  0  0
    0.6219   -1.5643   -0.4483 H   0  0  0  0  0  0  0  0  0  0  0  0
   -0.0670    0.2600   -1.3938 C   0  0  0  0  0  0  0  0  0  0  0  0
   -0.3508   -0.2529   -2.3190 H   0  0  0  0  0  0  0  0  0  0  0  0
   -0.8290    1.0210   -1.1933 H   0  0  0  0  0  0  0  0  0  0  0  0
    1.2504    0.9832   -1.6314 C   0  0  0  0  0  0  0  0  0  0  0  0
    2.3735    1.0860   -0.8044 N   0  3  0  0  0  0  0  0  0  0  0  0
    2.4080    0.6650    0.1379 H   0  0  0  0  0  0  0  0  0  0  0  0
    3.3232    1.7780   -1.3800 C   0  0  0  0  0  0  0  0  0  0  0  0
    4.3010    2.0081   -0.9521 H   0  0  0  0  0  0  0  0  0  0  0  0
    2.8460    2.1570   -2.6307 N   0  0  0  0  0  0  0  0  0  0  0  0
    3.3613    2.7084   -3.3237 H   0  0  0  0  0  0  0  0  0  0  0  0
    1.5568    1.6595   -2.7884 C   0  0  0  0  0  0  0  0  0  0  0  0
    0.9121    1.7768   -3.6596 H   0  0  0  0  0  0  0  0  0  0  0  0
    0.3094   -0.1442    1.1250 C   0  0  0  0  0  0  0  0  0  0  0  0
    1.4913   -0.1390    1.4527 O   0  0  0  0  0  0  0  0  0  0  0  0
   -0.5824    0.6446    1.8276 N   0  0  0  0  0  0  0  0  0  0  0  0
   -1.5641    0.5056    1.6035 H   0  0  0  0  0  0  0  0  0  0  0  0
   -0.2596    1.2212    3.1302 C   0  0  0  0  0  0  0  0  0  0  0  0
    0.6036    1.8910    3.0549 H   0  0  0  0  0  0  0  0  0  0  0  0
   -1.1079    1.7988    3.5109 H   0  0  0  0  0  0  0  0  0  0  0  0
   -0.0279    0.4306    3.8527 H   0  0  0  0  0  0  0  0  0  0  0  0
  1  2  1  0  0  0  0
  2  3  1  0  0  0  0
  2  4  1  0  0  0  0
  2  5  1  0  0  0  0
  5  6  2  0  0  0  0
  5  7  1  0  0  0  0
  7  8  1  0  0  0  0
  7  9  1  0  0  0  0
  9 10  1  0  0  0  0
  9 11  1  0  0  0  0
  9 23  1  0  0  0  0
 11 12  1  0  0  0  0
 11 13  1  0  0  0  0
 11 14  1  0  0  0  0
 14 15  1  0  0  0  0
 14 21  2  0  0  0  0
 15 16  1  0  0  0  0
 15 17  2  0  0  0  0
 17 18  1  0  0  0  0
 17 19  1  0  0  0  0
 19 20  1  0  0  0  0
 19 21  1  0  0  0  0
 21 22  1  0  0  0  0
 23 24  2  0  0  0  0
 23 25  1  0  0  0  0
 25 26  1  0  0  0  0
 25 27  1  0  0  0  0
 27 28  1  0  0  0  0
 27 29  1  0  0  0  0
 27 30  1  0  0  0  0
M  CHG  1  15   1
M  END
$$$$

  -OEChem-04042216003D

 30 30  0     1  0  0  0  0  0999 V2000
   -3.2862   -3.7937    1.3647 H   0  0  0  0  0  0  0  0  0  0  0  0
   -3.1975   -3.0038    0.6129 C   0  0  0  0  0  0  0  0  0  0  0  0
   -3.9597   -2.2463    0.8100 H   0  0  0  0  0  0  0  0  0  0  0  0
   -3.3705   -3.4399   -0.3739 H   0  0  0  0  0  0  0  0  0  0  0  0
   -1.8153   -2.3828    0.6733 C   0  0  0  0  0  0  0  0  0  0  0  0
   -0.9938   -2.7937    1.4719 O   0  0  0  0  0  0  0  0  0  0  0  0
   -1.4712   -1.3541   -0.1869 N   0  0  0  0  0  0  0  0  0  0  0  0
   -2.1618   -1.1024   -0.8898 H   0  0  0  0  0  0  0  0  0  0  0  0
   -0.1190   -0.7592   -0.2467 C   0  0  1  0  0  0  0  0  0  0  0  0
    0.5970   -1.5614   -0.4622 H   0  0  0  0  0  0  0  0  0  0  0  0
   -0.0843    0.2558   -1.4134 C   0  0  0  0  0  0  0  0  0  0  0  0
   -0.3495   -0.2701   -2.3369 H   0  0  0  0  0  0  0  0  0  0  0  0
   -0.8542    1.0141   -1.2328 H   0  0  0  0  0  0  0  0  0  0  0  0
    1.2361    0.9749   -1.6380 C   0  0  0  0  0  0  0  0  0  0  0  0
    2.4373    0.8496   -0.9326 N   0  3  0  0  0  0  0  0  0  0  0  0
    2.5050    0.3153   -0.0512 H   0  0  0  0  0  0  0  0  0  0  0  0
    3.3613    1.6267   -1.4373 C   0  0  0  0  0  0  0  0  0  0  0  0
    4.3749    1.7543   -1.0523 H   0  0  0  0  0  0  0  0  0  0  0  0
    2.7964    2.2685   -2.5351 N   0  0  0  0  0  0  0  0  0  0  0  0
    3.2735    2.9419   -3.1422 H   0  0  0  0  0  0  0  0  0  0  0  0
    1.4707    1.8657   -2.6578 C   0  0  0  0  0  0  0  0  0  0  0  0
    0.7549    2.1871   -3.4145 H   0  0  0  0  0  0  0  0  0  0  0  0
    0.3136   -0.1366    1.1038 C   0  0  0  0  0  0  0  0  0  0  0  0
    1.5013   -0.1545    1.4109 O   0  0  0  0  0  0  0  0  0  0  0  0
   -0.5607    0.6538    1.8261 N   0  0  0  0  0  0  0  0  0  0  0  0
   -1.5475    0.5267    1.6176 H   0  0  0  0  0  0  0  0  0  0  0  0
   -0.2077    1.2271    3.1223 C   0  0  0  0  0  0  0  0  0  0  0  0
    0.6707    1.8754    3.0338 H   0  0  0  0  0  0  0  0  0  0  0  0
   -1.0366    1.8269    3.5114 H   0  0  0  0  0  0  0  0  0  0  0  0
    0.0139    0.4336    3.8448 H   0  0  0  0  0  0  0  0  0  0  0  0
  1  2  1  0  0  0  0
  2  3  1  0  0  0  0
  2  4  1  0  0  0  0
  2  5  1  0  0  0  0
  5  6  2  0  0  0  0
  5  7  1  0  0  0  0
  7  8  1  0  0  0  0
  7  9  1  0  0  0  0
  9 10  1  0  0  0  0
  9 11  1  0  0  0  0
  9 23  1  0  0  0  0
 11 12  1  0  0  0  0
 11 13  1  0  0  0  0
 11 14  1  0  0  0  0
 14 15  1  0  0  0  0
 14 21  2  0  0  0  0
 15 16  1  0  0  0  0
 15 17  2  0  0  0  0
 17 18  1  0  0  0  0
 17 19  1  0  0  0  0
 19 20  1  0  0  0  0
 19 21  1  0  0  0  0
 21 22  1  0  0  0  0
 23 24  2  0  0  0  0
 23 25  1  0  0  0  0
 25 26  1  0  0  0  0
 25 27  1  0  0  0  0
 27 28  1  0  0  0  0
 27 29  1  0  0  0  0
 27 30  1  0  0  0  0
M  CHG  1  15   1
M  END
$$$$

  -OEChem-04042216003D

 30 30  0     1  0  0  0  0  0999 V2000
   -3.2641   -3.8097    1.3763 H   0  0  0  0  0  0  0  0  0  0  0  0
   -3.1935   -3.0198    0.6225 C   0  0  0  0  0  0  0  0  0  0  0  0
   -3.9545   -2.2654    0.8349 H   0  0  0  0  0  0  0  0  0  0  0  0
   -3.3848   -3.4571   -0.3603 H   0  0  0  0  0  0  0  0  0  0  0  0
   -1.8127   -2.3935    0.6551 C   0  0  0  0  0  0  0  0  0  0  0  0
   -0.9707   -2.8070    1.4308 O   0  0  0  0  0  0  0  0  0  0  0  0
   -1.4916   -1.3545   -0.2015 N   0  0  0  0  0  0  0  0  0  0  0  0
   -2.2002   -1.0889   -0.8810 H   0  0  0  0  0  0  0  0  0  0  0  0
   -0.1477   -0.7441   -0.2696 C   0  0  1  0  0  0  0  0  0  0  0  0
    0.5650   -1.5488   -0.4877 H   0  0  0  0  0  0  0  0  0  0  0  0
   -0.1119    0.2565   -1.4463 C   0  0  0  0  0  0  0  0  0  0  0  0
   -0.3529   -0.2852   -2.3673 H   0  0  0  0  0  0  0  0  0  0  0  0
   -0.8912    1.0105   -1.2917 H   0  0  0  0  0  0  0  0  0  0  0  0
    1.2130    0.9703   -1.6478 C   0  0  0  0  0  0  0  0  0  0  0  0
    2.4600    0.6421   -1.1056 N   0  3  0  0  0  0  0  0  0  0  0  0
    2.5501    0.0006   -0.3021 H   0  0  0  0  0  0  0  0  0  0  0  0
    3.3745    1.4881   -1.5077 C   0  0  0  0  0  0  0  0  0  0  0  0
    4.4134    1.5172   -1.1734 H   0  0  0  0  0  0  0  0  0  0  0  0
    2.7600    2.3646   -2.3974 N   0  0  0  0  0  0  0  0  0  0  0  0
    3.2200    3.1414   -2.8819 H   0  0  0  0  0  0  0  0  0  0  0  0
    1.4077    2.0496   -2.4750 C   0  0  0  0  0  0  0  0  0  0  0  0
    0.6489    2.5536   -3.0740 H   0  0  0  0  0  0  0  0  0  0  0  0
    0.3176   -0.1190    1.0664 C   0  0  0  0  0  0  0  0  0  0  0  0
    1.5143   -0.1464    1.3369 O   0  0  0  0  0  0  0  0  0  0  0  0
   -0.5375    0.6672    1.8152 N   0  0  0  0  0  0  0  0  0  0  0  0
   -1.5295    0.5468    1.6292 H   0  0  0  0  0  0  0  0  0  0  0  0
   -0.1498    1.2339    3.1041 C   0  0  0  0  0  0  0  0  0  0  0  0
    0.7373    1.8675    2.9985 H   0  0  0  0  0  0  0  0  0  0  0  0
   -0.9606    1.8475    3.5094 H   0  0  0  0  0  0  0  0  0  0  0  0
    0.0729    0.4363    3.8215 H   0  0  0  0  0  0  0  0  0  0  0  0
  1  2  1  0  0  0  0
  2  3  1  0  0  0  0
  2  4  1  0  0  0  0
  2  5  1  0  0  0  0
  5  6  2  0  0  0  0
  5  7  1  0  0  0  0
  7  8  1  0  0  0  0
  7  9  1  0  0  0  0
  9 10  1  0  0  0  0
  9 11  1  0  0  0  0
  9 23  1  0  0  0  0
 11 12  1  0  0  0  0
 11 13  1  0  0  0  0
 11 14  1  0  0  0  0
 14 15  1  0  0  0  0
 14 21  2  0  0  0  0
 15 16  1  0  0  0  0
 15 17  2  0  0  0  0
 17 18  1  0  0  0  0
 17 19  1  0  0  0  0
 19 20  1  0  0  0  0
 19 21  1  0  0  0  0
 21 22  1  0  0  0  0
 23 24  2  0  0  0  0
 23 25  1  0  0  0  0
 25 26  1  0  0  0  0
 25 27  1  0  0  0  0
 27 28  1  0  0  0  0
 27 29  1  0  0  0  0
 27 30  1  0  0  0  0
M  CHG  1  15   1
M  END
$$$$

  -OEChem-04042216003D

 30 30  0     1  0  0  0  0  0999 V2000
   -3.2289   -3.8601    1.3540 H   0  0  0  0  0  0  0  0  0  0  0  0
   -3.1855   -3.0471    0.6231 C   0  0  0  0  0  0  0  0  0  0  0  0
   -3.9513   -2.3096    0.8746 H   0  0  0  0  0  0  0  0  0  0  0  0
   -3.3936   -3.4574   -0.3680 H   0  0  0  0  0  0  0  0  0  0  0  0
   -1.8124   -2.4036    0.6433 C   0  0  0  0  0  0  0  0  0  0  0  0
   -0.9547   -2.8107    1.4054 O   0  0  0  0  0  0  0  0  0  0  0  0
   -1.5143   -1.3582   -0.2133 N   0  0  0  0  0  0  0  0  0  0  0  0
   -2.2374   -1.0914   -0.8771 H   0  0  0  0  0  0  0  0  0  0  0  0
   -0.1786   -0.7332   -0.2940 C   0  0  1  0  0  0  0  0  0  0  0  0
    0.5308   -1.5394   -0.5151 H   0  0  0  0  0  0  0  0  0  0  0  0
   -0.1465    0.2566   -1.4774 C   0  0  0  0  0  0  0  0  0  0  0  0
   -0.3712   -0.2940   -2.3971 H   0  0  0  0  0  0  0  0  0  0  0  0
   -0.9314    1.0080   -1.3398 H   0  0  0  0  0  0  0  0  0  0  0  0
    1.1846    0.9614   -1.6543 C   0  0  0  0  0  0  0  0  0  0  0  0
    2.4529    0.4696   -1.3279 N   0  3  0  0  0  0  0  0  0  0  0  0
    2.5752   -0.3215   -0.6823 H   0  0  0  0  0  0  0  0  0  0  0  0
    3.3699    1.3653   -1.5961 C   0  0  0  0  0  0  0  0  0  0  0  0
    4.4306    1.2915   -1.3485 H   0  0  0  0  0  0  0  0  0  0  0  0
    2.7300    2.4465   -2.1953 N   0  0  0  0  0  0  0  0  0  0  0  0
    3.1859    3.3080   -2.5110 H   0  0  0  0  0  0  0  0  0  0  0  0
    1.3617    2.2020   -2.2160 C   0  0  0  0  0  0  0  0  0  0  0  0
    0.5813    2.8612   -2.5963 H   0  0  0  0  0  0  0  0  0  0  0  0
    0.3196   -0.1003    1.0250 C   0  0  0  0  0  0  0  0  0  0  0  0
    1.5247   -0.1202    1.2543 O   0  0  0  0  0  0  0  0  0  0  0  0
   -0.5170    0.6843    1.7961 N   0  0  0  0  0  0  0  0  0  0  0  0
   -1.5139    0.5518    1.6482 H   0  0  0  0  0  0  0  0  0  0  0  0
   -0.0857    1.2748    3.0601 C   0  0  0  0  0  0  0  0  0  0  0  0
    0.7824    1.9250    2.9073 H   0  0  0  0  0  0  0  0  0  0  0  0
   -0.8909    1.8765    3.4936 H   0  0  0  0  0  0  0  0  0  0  0  0
    0.1856    0.4912    3.7763 H   0  0  0  0  0  0  0  0  0  0  0  0
  1  2  1  0  0  0  0
  2  3  1  0  0  0  0
  2  4  1  0  0  0  0
  2  5  1  0  0  0  0
  5  6  2  0  0  0  0
  5  7  1  0  0  0  0
  7  8  1  0  0  0  0
  7  9  1  0  0  0  0
  9 10  1  0  0  0  0
  9 11  1  0  0  0  0
  9 23  1  0  0  0  0
 11 12  1  0  0  0  0
 11 13  1  0  0  0  0
 11 14  1  0  0  0  0
 14 15  1  0  0  0  0
 14 21  2  0  0  0  0
 15 16  1  0  0  0  0
 15 17  2  0  0  0  0
 17 18  1  0  0  0  0
 17 19  1  0  0  0  0
 19 20  1  0  0  0  0
 19 21  1  0  0  0  0
 21 22  1  0  0  0  0
 23 24  2  0  0  0  0
 23 25  1  0  0  0  0
 25 26  1  0  0  0  0
 25 27  1  0  0  0  0
 27 28  1  0  0  0  0
 27 29  1  0  0  0  0
 27 30  1  0  0  0  0
M  CHG  1  15   1
M  END
$$$$

  -OEChem-04042216003D

 30 30  0     1  0  0  0  0  0999 V2000
   -3.1917   -3.8650    1.3886 H   0  0  0  0  0  0  0  0  0  0  0  0
   -3.1656   -3.0550    0.6536 C   0  0  0  0  0  0  0  0  0  0  0  0
   -3.9233   -2.3150    0.9218 H   0  0  0  0  0  0  0  0  0  0  0  0
   -3.3998   -3.4684   -0.3302 H   0  0  0  0  0  0  0  0  0  0  0  0
   -1.7913   -2.4142    0.6357 C   0  0  0  0  0  0  0  0  0  0  0  0
   -0.9130   -2.8223    1.3734 O   0  0  0  0  0  0  0  0  0  0  0  0
   -1.5145   -1.3702   -0.2291 N   0  0  0  0  0  0  0  0  0  0  0  0
   -2.2563   -1.0965   -0.8690 H   0  0  0  0  0  0  0  0  0  0  0  0
   -0.1874   -0.7304   -0.3279 C   0  0  1  0  0  0  0  0  0  0  0  0
    0.5287   -1.5288   -0.5534 H   0  0  0  0  0  0  0  0  0  0  0  0
   -0.1765    0.2623   -1.5073 C   0  0  0  0  0  0  0  0  0  0  0  0
   -0.4056   -0.2789   -2.4315 H   0  0  0  0  0  0  0  0  0  0  0  0
   -0.9611    1.0115   -1.3577 H   0  0  0  0  0  0  0  0  0  0  0  0
    1.1586    0.9586   -1.6669 C   0  0  0  0  0  0  0  0  0  0  0  0
    2.4226    0.3630   -1.6152 N   0  3  0  0  0  0  0  0  0  0  0  0
    2.5656   -0.5975   -1.2893 H   0  0  0  0  0  0  0  0  0  0  0  0
    3.3575    1.2739   -1.7247 C   0  0  0  0  0  0  0  0  0  0  0  0
    4.4320    1.1080   -1.6278 H   0  0  0  0  0  0  0  0  0  0  0  0
    2.7235    2.4955   -1.9328 N   0  0  0  0  0  0  0  0  0  0  0  0
    3.1934    3.4002   -2.0337 H   0  0  0  0  0  0  0  0  0  0  0  0
    1.3481    2.3015   -1.8821 C   0  0  0  0  0  0  0  0  0  0  0  0
    0.5726    3.0622   -1.9706 H   0  0  0  0  0  0  0  0  0  0  0  0
    0.3224   -0.0832    0.9803 C   0  0  0  0  0  0  0  0  0  0  0  0
    1.5309   -0.0656    1.1852 O   0  0  0  0  0  0  0  0  0  0  0  0
   -0.5158    0.6967    1.7549 N   0  0  0  0  0  0  0  0  0  0  0  0
   -1.5120    0.5412    1.6277 H   0  0  0  0  0  0  0  0  0  0  0  0
   -0.0734    1.3118    3.0033 C   0  0  0  0  0  0  0  0  0  0  0  0
    0.7725    1.9841    2.8249 H   0  0  0  0  0  0  0  0  0  0  0  0
   -0.8855    1.8947    3.4491 H   0  0  0  0  0  0  0  0  0  0  0  0
    0.2359    0.5437    3.7207 H   0  0  0  0  0  0  0  0  0  0  0  0
  1  2  1  0  0  0  0
  2  3  1  0  0  0  0
  2  4  1  0  0  0  0
  2  5  1  0  0  0  0
  5  6  2  0  0  0  0
  5  7  1  0  0  0  0
  7  8  1  0  0  0  0
  7  9  1  0  0  0  0
  9 10  1  0  0  0  0
  9 11  1  0  0  0  0
  9 23  1  0  0  0  0
 11 12  1  0  0  0  0
 11 13  1  0  0  0  0
 11 14  1  0  0  0  0
 14 15  1  0  0  0  0
 14 21  2  0  0  0  0
 15 16  1  0  0  0  0
 15 17  2  0  0  0  0
 17 18  1  0  0  0  0
 17 19  1  0  0  0  0
 19 20  1  0  0  0  0
 19 21  1  0  0  0  0
 21 22  1  0  0  0  0
 23 24  2  0  0  0  0
 23 25  1  0  0  0  0
 25 26  1  0  0  0  0
 25 27  1  0  0  0  0
 27 28  1  0  0  0  0
 27 29  1  0  0  0  0
 27 30  1  0  0  0  0
M  CHG  1  15   1
M  END
$$$$

  -OEChem-04042216003D

 30 30  0     1  0  0  0  0  0999 V2000
   -3.1598   -3.8728    1.4018 H   0  0  0  0  0  0  0  0  0  0  0  0
   -3.1447   -3.0618    0.6676 C   0  0  0  0  0  0  0  0  0  0  0  0
   -3.9050   -2.3267    0.9423 H   0  0  0  0  0  0  0  0  0  0  0  0
   -3.3832   -3.4760   -0.3151 H   0  0  0  0  0  0  0  0  0  0  0  0
   -1.7752   -2.4111    0.6406 C   0  0  0  0  0  0  0  0  0  0  0  0
   -0.8921   -2.8071    1.3791 O   0  0  0  0  0  0  0  0  0  0  0  0
   -1.5104   -1.3700   -0.2318 N   0  0  0  0  0  0  0  0  0  0  0  0
   -2.2586   -1.1046   -0.8678 H   0  0  0  0  0  0  0  0  0  0  0  0
   -0.1874   -0.7231   -0.3463 C   0  0  1  0  0  0  0  0  0  0  0  0
    0.5363   -1.5128   -0.5779 H   0  0  0  0  0  0  0  0  0  0  0  0
   -0.1973    0.2784   -1.5179 C   0  0  0  0  0  0  0  0  0  0  0  0
   -0.4440   -0.2450   -2.4475 H   0  0  0  0  0  0  0  0  0  0  0  0
   -0.9748    1.0297   -1.3434 H   0  0  0  0  0  0  0  0  0  0  0  0
    1.1411    0.9657   -1.6713 C   0  0  0  0  0  0  0  0  0  0  0  0
    2.3692    0.3478   -1.9219 N   0  3  0  0  0  0  0  0  0  0  0  0
    2.4870   -0.6683   -1.9449 H   0  0  0  0  0  0  0  0  0  0  0  0
    3.3339    1.2348   -1.9063 C   0  0  0  0  0  0  0  0  0  0  0  0
    4.4017    1.0301   -2.0026 H   0  0  0  0  0  0  0  0  0  0  0  0
    2.7475    2.4810   -1.7034 N   0  0  0  0  0  0  0  0  0  0  0  0
    3.2516    3.3672   -1.6051 H   0  0  0  0  0  0  0  0  0  0  0  0
    1.3771    2.3126   -1.5473 C   0  0  0  0  0  0  0  0  0  0  0  0
    0.6399    3.0847   -1.3284 H   0  0  0  0  0  0  0  0  0  0  0  0
    0.3236   -0.0681    0.9587 C   0  0  0  0  0  0  0  0  0  0  0  0
    1.5326   -0.0130    1.1513 O   0  0  0  0  0  0  0  0  0  0  0  0
   -0.5235    0.7068    1.7301 N   0  0  0  0  0  0  0  0  0  0  0  0
   -1.5162    0.5200    1.6181 H   0  0  0  0  0  0  0  0  0  0  0  0
   -0.0845    1.3335    2.9744 C   0  0  0  0  0  0  0  0  0  0  0  0
    0.7563    2.0110    2.7911 H   0  0  0  0  0  0  0  0  0  0  0  0
   -0.9004    1.9135    3.4172 H   0  0  0  0  0  0  0  0  0  0  0  0
    0.2307    0.5719    3.6964 H   0  0  0  0  0  0  0  0  0  0  0  0
  1  2  1  0  0  0  0
  2  3  1  0  0  0  0
  2  4  1  0  0  0  0
  2  5  1  0  0  0  0
  5  6  2  0  0  0  0
  5  7  1  0  0  0  0
  7  8  1  0  0  0  0
  7  9  1  0  0  0  0
  9 10  1  0  0  0  0
  9 11  1  0  0  0  0
  9 23  1  0  0  0  0
 11 12  1  0  0  0  0
 11 13  1  0  0  0  0
 11 14  1  0  0  0  0
 14 15  1  0  0  0  0
 14 21  2  0  0  0  0
 15 16  1  0  0  0  0
 15 17  2  0  0  0  0
 17 18  1  0  0  0  0
 17 19  1  0  0  0  0
 19 20  1  0  0  0  0
 19 21  1  0  0  0  0
 21 22  1  0  0  0  0
 23 24  2  0  0  0  0
 23 25  1  0  0  0  0
 25 26  1  0  0  0  0
 25 27  1  0  0  0  0
 27 28  1  0  0  0  0
 27 29  1  0  0  0  0
 27 30  1  0  0  0  0
M  CHG  1  15   1
M  END
$$$$

  -OEChem-04042216003D

 30 30  0     1  0  0  0  0  0999 V2000
   -3.1567   -3.8671    1.4045 H   0  0  0  0  0  0  0  0  0  0  0  0
   -3.1397   -3.0580    0.6682 C   0  0  0  0  0  0  0  0  0  0  0  0
   -3.9032   -2.3243    0.9369 H   0  0  0  0  0  0  0  0  0  0  0  0
   -3.3723   -3.4753   -0.3144 H   0  0  0  0  0  0  0  0  0  0  0  0
   -1.7713   -2.4046    0.6474 C   0  0  0  0  0  0  0  0  0  0  0  0
   -0.8933   -2.7965    1.3936 O   0  0  0  0  0  0  0  0  0  0  0  0
   -1.5034   -1.3655   -0.2267 N   0  0  0  0  0  0  0  0  0  0  0  0
   -2.2466   -1.1095   -0.8720 H   0  0  0  0  0  0  0  0  0  0  0  0
   -0.1789   -0.7201   -0.3427 C   0  0  1  0  0  0  0  0  0  0  0  0
    0.5498   -1.5043   -0.5779 H   0  0  0  0  0  0  0  0  0  0  0  0
   -0.1982    0.2901   -1.5073 C   0  0  0  0  0  0  0  0  0  0  0  0
   -0.4622   -0.2180   -2.4404 H   0  0  0  0  0  0  0  0  0  0  0  0
   -0.9684    1.0441   -1.3121 H   0  0  0  0  0  0  0  0  0  0  0  0
    1.1404    0.9748   -1.6629 C   0  0  0  0  0  0  0  0  0  0  0  0
    2.3006    0.4174   -2.2051 N   0  3  0  0  0  0  0  0  0  0  0  0
    2.3637   -0.5582   -2.5066 H   0  0  0  0  0  0  0  0  0  0  0  0
    3.2947    1.2677   -2.1185 C   0  0  0  0  0  0  0  0  0  0  0  0
    4.3308    1.0846   -2.4095 H   0  0  0  0  0  0  0  0  0  0  0  0
    2.7912    2.4378   -1.5562 N   0  0  0  0  0  0  0  0  0  0  0  0
    3.3401    3.2695   -1.3190 H   0  0  0  0  0  0  0  0  0  0  0  0
    1.4445    2.2547   -1.2691 C   0  0  0  0  0  0  0  0  0  0  0  0
    0.7726    2.9613   -0.7824 H   0  0  0  0  0  0  0  0  0  0  0  0
    0.3244   -0.0660    0.9664 C   0  0  0  0  0  0  0  0  0  0  0  0
    1.5309    0.0054    1.1659 O   0  0  0  0  0  0  0  0  0  0  0  0
   -0.5321    0.7067    1.7300 N   0  0  0  0  0  0  0  0  0  0  0  0
   -1.5220    0.5071    1.6152 H   0  0  0  0  0  0  0  0  0  0  0  0
   -0.1061    1.3281    2.9813 C   0  0  0  0  0  0  0  0  0  0  0  0
    0.7372    2.0056    2.8103 H   0  0  0  0  0  0  0  0  0  0  0  0
   -0.9263    1.9067    3.4180 H   0  0  0  0  0  0  0  0  0  0  0  0
    0.2016    0.5629    3.7027 H   0  0  0  0  0  0  0  0  0  0  0  0
  1  2  1  0  0  0  0
  2  3  1  0  0  0  0
  2  4  1  0  0  0  0
  2  5  1  0  0  0  0
  5  6  2  0  0  0  0
  5  7  1  0  0  0  0
  7  8  1  0  0  0  0
  7  9  1  0  0  0  0
  9 10  1  0  0  0  0
  9 11  1  0  0  0  0
  9 23  1  0  0  0  0
 11 12  1  0  0  0  0
 11 13  1  0  0  0  0
 11 14  1  0  0  0  0
 14 15  1  0  0  0  0
 14 21  2  0  0  0  0
 15 16  1  0  0  0  0
 15 17  2  0  0  0  0
 17 18  1  0  0  0  0
 17 19  1  0  0  0  0
 19 20  1  0  0  0  0
 19 21  1  0  0  0  0
 21 22  1  0  0  0  0
 23 24  2  0  0  0  0
 23 25  1  0  0  0  0
 25 26  1  0  0  0  0
 25 27  1  0  0  0  0
 27 28  1  0  0  0  0
 27 29  1  0  0  0  0
 27 30  1  0  0  0  0
M  CHG  1  15   1
M  END
$$$$

  -OEChem-04042216003D

 30 30  0     1  0  0  0  0  0999 V2000
   -3.1799   -3.8497    1.4011 H   0  0  0  0  0  0  0  0  0  0  0  0
   -3.1480   -3.0433    0.6622 C   0  0  0  0  0  0  0  0  0  0  0  0
   -3.9116   -2.3046    0.9170 H   0  0  0  0  0  0  0  0  0  0  0  0
   -3.3683   -3.4626   -0.3224 H   0  0  0  0  0  0  0  0  0  0  0  0
   -1.7763   -2.3967    0.6578 C   0  0  0  0  0  0  0  0  0  0  0  0
   -0.9114   -2.7896    1.4184 O   0  0  0  0  0  0  0  0  0  0  0  0
   -1.4938   -1.3604   -0.2150 N   0  0  0  0  0  0  0  0  0  0  0  0
   -2.2283   -1.1053   -0.8706 H   0  0  0  0  0  0  0  0  0  0  0  0
   -0.1640   -0.7242   -0.3237 C   0  0  1  0  0  0  0  0  0  0  0  0
    0.5657   -1.5088   -0.5572 H   0  0  0  0  0  0  0  0  0  0  0  0
   -0.1807    0.2876   -1.4883 C   0  0  0  0  0  0  0  0  0  0  0  0
   -0.4551   -0.2181   -2.4196 H   0  0  0  0  0  0  0  0  0  0  0  0
   -0.9466    1.0444   -1.2869 H   0  0  0  0  0  0  0  0  0  0  0  0
    1.1551    0.9765   -1.6573 C   0  0  0  0  0  0  0  0  0  0  0  0
    2.2176    0.5466   -2.4552 N   0  3  0  0  0  0  0  0  0  0  0  0
    2.2057   -0.3349   -2.9743 H   0  0  0  0  0  0  0  0  0  0  0  0
    3.2375    1.3617   -2.3310 C   0  0  0  0  0  0  0  0  0  0  0  0
    4.2186    1.2491   -2.7961 H   0  0  0  0  0  0  0  0  0  0  0  0
    2.8461    2.3868   -1.4737 N   0  0  0  0  0  0  0  0  0  0  0  0
    3.4438    3.1497   -1.1418 H   0  0  0  0  0  0  0  0  0  0  0  0
    1.5427    2.1501   -1.0578 C   0  0  0  0  0  0  0  0  0  0  0  0
    0.9586    2.7403   -0.3515 H   0  0  0  0  0  0  0  0  0  0  0  0
    0.3252   -0.0759    0.9938 C   0  0  0  0  0  0  0  0  0  0  0  0
    1.5280   -0.0052    1.2121 O   0  0  0  0  0  0  0  0  0  0  0  0
   -0.5388    0.6989    1.7472 N   0  0  0  0  0  0  0  0  0  0  0  0
   -1.5270    0.4988    1.6183 H   0  0  0  0  0  0  0  0  0  0  0  0
   -0.1310    1.3033    3.0131 C   0  0  0  0  0  0  0  0  0  0  0  0
    0.7148    1.9829    2.8645 H   0  0  0  0  0  0  0  0  0  0  0  0
   -0.9576    1.8760    3.4454 H   0  0  0  0  0  0  0  0  0  0  0  0
    0.1654    0.5285    3.7289 H   0  0  0  0  0  0  0  0  0  0  0  0
  1  2  1  0  0  0  0
  2  3  1  0  0  0  0
  2  4  1  0  0  0  0
  2  5  1  0  0  0  0
  5  6  2  0  0  0  0
  5  7  1  0  0  0  0
  7  8  1  0  0  0  0
  7  9  1  0  0  0  0
  9 10  1  0  0  0  0
  9 11  1  0  0  0  0
  9 23  1  0  0  0  0
 11 12  1  0  0  0  0
 11 13  1  0  0  0  0
 11 14  1  0  0  0  0
 14 15  1  0  0  0  0
 14 21  2  0  0  0  0
 15 16  1  0  0  0  0
 15 17  2  0  0  0  0
 17 18  1  0  0  0  0
 17 19  1  0  0  0  0
 19 20  1  0  0  0  0
 19 21  1  0  0  0  0
 21 22  1  0  0  0  0
 23 24  2  0  0  0  0
 23 25  1  0  0  0  0
 25 26  1  0  0  0  0
 25 27  1  0  0  0  0
 27 28  1  0  0  0  0
 27 29  1  0  0  0  0
 27 30  1  0  0  0  0
M  CHG  1  15   1
M  END
$$$$

  -OEChem-04042216003D

 30 30  0     1  0  0  0  0  0999 V2000
   -3.2122   -3.8290    1.3914 H   0  0  0  0  0  0  0  0  0  0  0  0
   -3.1603   -3.0268    0.6493 C   0  0  0  0  0  0  0  0  0  0  0  0
   -3.9238   -2.2821    0.8854 H   0  0  0  0  0  0  0  0  0  0  0  0
   -3.3640   -3.4502   -0.3371 H   0  0  0  0  0  0  0  0  0  0  0  0
   -1.7844   -2.3895    0.6691 C   0  0  0  0  0  0  0  0  0  0  0  0
   -0.9364   -2.7881    1.4453 O   0  0  0  0  0  0  0  0  0  0  0  0
   -1.4802   -1.3555   -0.1994 N   0  0  0  0  0  0  0  0  0  0  0  0
   -2.2013   -1.0988   -0.8689 H   0  0  0  0  0  0  0  0  0  0  0  0
   -0.1424   -0.7325   -0.2928 C   0  0  1  0  0  0  0  0  0  0  0  0
    0.5869   -1.5198   -0.5188 H   0  0  0  0  0  0  0  0  0  0  0  0
   -0.1481    0.2774   -1.4615 C   0  0  0  0  0  0  0  0  0  0  0  0
   -0.4272   -0.2361   -2.3870 H   0  0  0  0  0  0  0  0  0  0  0  0
   -0.9141    1.0353   -1.2643 H   0  0  0  0  0  0  0  0  0  0  0  0
    1.1811    0.9785   -1.6533 C   0  0  0  0  0  0  0  0  0  0  0  0
    2.1110    0.7196   -2.6637 N   0  3  0  0  0  0  0  0  0  0  0  0
    1.9982   -0.0341   -3.3464 H   0  0  0  0  0  0  0  0  0  0  0  0
    3.1574    1.4999   -2.5337 C   0  0  0  0  0  0  0  0  0  0  0  0
    4.0566    1.4898   -3.1528 H   0  0  0  0  0  0  0  0  0  0  0  0
    2.9177    2.3339   -1.4453 N   0  0  0  0  0  0  0  0  0  0  0  0
    3.5718    3.0232   -1.0622 H   0  0  0  0  0  0  0  0  0  0  0  0
    1.6793    2.0177   -0.9047 C   0  0  0  0  0  0  0  0  0  0  0  0
    1.2131    2.4625   -0.0248 H   0  0  0  0  0  0  0  0  0  0  0  0
    0.3247   -0.0942    1.0374 C   0  0  0  0  0  0  0  0  0  0  0  0
    1.5215   -0.0403    1.2887 O   0  0  0  0  0  0  0  0  0  0  0  0
   -0.5484    0.6836    1.7773 N   0  0  0  0  0  0  0  0  0  0  0  0
   -1.5351    0.4938    1.6231 H   0  0  0  0  0  0  0  0  0  0  0  0
   -0.1672    1.2656    3.0622 C   0  0  0  0  0  0  0  0  0  0  0  0
    0.7121    1.9095    2.9531 H   0  0  0  0  0  0  0  0  0  0  0  0
   -0.9861    1.8713    3.4633 H   0  0  0  0  0  0  0  0  0  0  0  0
    0.0665    0.4760    3.7851 H   0  0  0  0  0  0  0  0  0  0  0  0
  1  2  1  0  0  0  0
  2  3  1  0  0  0  0
  2  4  1  0  0  0  0
  2  5  1  0  0  0  0
  5  6  2  0  0  0  0
  5  7  1  0  0  0  0
  7  8  1  0  0  0  0
  7  9  1  0  0  0  0
  9 10  1  0  0  0  0
  9 11  1  0  0  0  0
  9 23  1  0  0  0  0
 11 12  1  0  0  0  0
 11 13  1  0  0  0  0
 11 14  1  0  0  0  0
 14 15  1  0  0  0  0
 14 21  2  0  0  0  0
 15 16  1  0  0  0  0
 15 17  2  0  0  0  0
 17 18  1  0  0  0  0
 17 19  1  0  0  0  0
 19 20  1  0  0  0  0
 19 21  1  0  0  0  0
 21 22  1  0  0  0  0
 23 24  2  0  0  0  0
 23 25  1  0  0  0  0
 25 26  1  0  0  0  0
 25 27  1  0  0  0  0
 27 28  1  0  0  0  0
 27 29  1  0  0  0  0
 27 30  1  0  0  0  0
M  CHG  1  15   1
M  END
$$$$

  -OEChem-04042216003D

 30 30  0     1  0  0  0  0  0999 V2000
   -3.2558   -3.8049    1.3701 H   0  0  0  0  0  0  0  0  0  0  0  0
   -3.1778   -3.0033    0.6295 C   0  0  0  0  0  0  0  0  0  0  0  0
   -3.9355   -2.2480    0.8506 H   0  0  0  0  0  0  0  0  0  0  0  0
   -3.3670   -3.4234   -0.3612 H   0  0  0  0  0  0  0  0  0  0  0  0
   -1.7937   -2.3854    0.6768 C   0  0  0  0  0  0  0  0  0  0  0  0
   -0.9654   -2.8003    1.4656 O   0  0  0  0  0  0  0  0  0  0  0  0
   -1.4600   -1.3540   -0.1845 N   0  0  0  0  0  0  0  0  0  0  0  0
   -2.1676   -1.0847   -0.8631 H   0  0  0  0  0  0  0  0  0  0  0  0
   -0.1131   -0.7454   -0.2530 C   0  0  1  0  0  0  0  0  0  0  0  0
    0.6155   -1.5372   -0.4657 H   0  0  0  0  0  0  0  0  0  0  0  0
   -0.1004    0.2606   -1.4285 C   0  0  0  0  0  0  0  0  0  0  0  0
   -0.3738   -0.2707   -2.3456 H   0  0  0  0  0  0  0  0  0  0  0  0
   -0.8721    1.0168   -1.2479 H   0  0  0  0  0  0  0  0  0  0  0  0
    1.2178    0.9815   -1.6483 C   0  0  0  0  0  0  0  0  0  0  0  0
    1.9795    0.9227   -2.8195 N   0  3  0  0  0  0  0  0  0  0  0  0
    1.7341    0.3276   -3.6147 H   0  0  0  0  0  0  0  0  0  0  0  0
    3.0571    1.6624   -2.7088 C   0  0  0  0  0  0  0  0  0  0  0  0
    3.8480    1.7762   -3.4528 H   0  0  0  0  0  0  0  0  0  0  0  0
    3.0121    2.2688   -1.4577 N   0  0  0  0  0  0  0  0  0  0  0  0
    3.7315    2.8800   -1.0592 H   0  0  0  0  0  0  0  0  0  0  0  0
    1.8590    1.8585   -0.8046 C   0  0  0  0  0  0  0  0  0  0  0  0
    1.5422    2.1463    0.1993 H   0  0  0  0  0  0  0  0  0  0  0  0
    0.3224   -0.1178    1.0921 C   0  0  0  0  0  0  0  0  0  0  0  0
    1.5088   -0.0970    1.3918 O   0  0  0  0  0  0  0  0  0  0  0  0
   -0.5632    0.6641    1.8124 N   0  0  0  0  0  0  0  0  0  0  0  0
   -1.5470    0.5004    1.6163 H   0  0  0  0  0  0  0  0  0  0  0  0
   -0.2187    1.2232    3.1176 C   0  0  0  0  0  0  0  0  0  0  0  0
    0.6705    1.8587    3.0468 H   0  0  0  0  0  0  0  0  0  0  0  0
   -1.0438    1.8323    3.5005 H   0  0  0  0  0  0  0  0  0  0  0  0
   -0.0177    0.4206    3.8360 H   0  0  0  0  0  0  0  0  0  0  0  0
  1  2  1  0  0  0  0
  2  3  1  0  0  0  0
  2  4  1  0  0  0  0
  2  5  1  0  0  0  0
  5  6  2  0  0  0  0
  5  7  1  0  0  0  0
  7  8  1  0  0  0  0
  7  9  1  0  0  0  0
  9 10  1  0  0  0  0
  9 11  1  0  0  0  0
  9 23  1  0  0  0  0
 11 12  1  0  0  0  0
 11 13  1  0  0  0  0
 11 14  1  0  0  0  0
 14 15  1  0  0  0  0
 14 21  2  0  0  0  0
 15 16  1  0  0  0  0
 15 17  2  0  0  0  0
 17 18  1  0  0  0  0
 17 19  1  0  0  0  0
 19 20  1  0  0  0  0
 19 21  1  0  0  0  0
 21 22  1  0  0  0  0
 23 24  2  0  0  0  0
 23 25  1  0  0  0  0
 25 26  1  0  0  0  0
 25 27  1  0  0  0  0
 27 28  1  0  0  0  0
 27 29  1  0  0  0  0
 27 30  1  0  0  0  0
M  CHG  1  15   1
M  END
$$$$

  -OEChem-04042216003D

 30 30  0     1  0  0  0  0  0999 V2000
   -3.2959   -3.7760    1.3465 H   0  0  0  0  0  0  0  0  0  0  0  0
   -3.1940   -2.9758    0.6072 C   0  0  0  0  0  0  0  0  0  0  0  0
   -3.9427   -2.2086    0.8172 H   0  0  0  0  0  0  0  0  0  0  0  0
   -3.3755   -3.3932   -0.3860 H   0  0  0  0  0  0  0  0  0  0  0  0
   -1.8012   -2.3798    0.6766 C   0  0  0  0  0  0  0  0  0  0  0  0
   -0.9923   -2.8121    1.4757 O   0  0  0  0  0  0  0  0  0  0  0  0
   -1.4378   -1.3511   -0.1760 N   0  0  0  0  0  0  0  0  0  0  0  0
   -2.1303   -1.0683   -0.8644 H   0  0  0  0  0  0  0  0  0  0  0  0
   -0.0833   -0.7553   -0.2129 C   0  0  1  0  0  0  0  0  0  0  0  0
    0.6454   -1.5519   -0.4077 H   0  0  0  0  0  0  0  0  0  0  0  0
   -0.0463    0.2426   -1.3970 C   0  0  0  0  0  0  0  0  0  0  0  0
   -0.3022   -0.3128   -2.3049 H   0  0  0  0  0  0  0  0  0  0  0  0
   -0.8289    0.9931   -1.2430 H   0  0  0  0  0  0  0  0  0  0  0  0
    1.2596    0.9849   -1.6414 C   0  0  0  0  0  0  0  0  0  0  0  0
    1.8310    1.1447   -2.9090 N   0  3  0  0  0  0  0  0  0  0  0  0
    1.4342    0.7275   -3.7547 H   0  0  0  0  0  0  0  0  0  0  0  0
    2.9423    1.8371   -2.8388 C   0  0  0  0  0  0  0  0  0  0  0  0
    3.6068    2.0896   -3.6676 H   0  0  0  0  0  0  0  0  0  0  0  0
    3.1219    2.1861   -1.5054 N   0  0  0  0  0  0  0  0  0  0  0  0
    3.9117    2.7150   -1.1222 H   0  0  0  0  0  0  0  0  0  0  0  0
    2.0684    1.6721   -0.7636 C   0  0  0  0  0  0  0  0  0  0  0  0
    1.9260    1.7963    0.3102 H   0  0  0  0  0  0  0  0  0  0  0  0
    0.3149   -0.1366    1.1467 C   0  0  0  0  0  0  0  0  0  0  0  0
    1.4824   -0.1777    1.5105 O   0  0  0  0  0  0  0  0  0  0  0  0
   -0.5825    0.6502    1.8464 N   0  0  0  0  0  0  0  0  0  0  0  0
   -1.5607    0.5208    1.6033 H   0  0  0  0  0  0  0  0  0  0  0  0
   -0.2795    1.1803    3.1735 C   0  0  0  0  0  0  0  0  0  0  0  0
    0.6271    1.7941    3.1493 H   0  0  0  0  0  0  0  0  0  0  0  0
   -1.1044    1.8042    3.5321 H   0  0  0  0  0  0  0  0  0  0  0  0
   -0.1283    0.3621    3.8865 H   0  0  0  0  0  0  0  0  0  0  0  0
  1  2  1  0  0  0  0
  2  3  1  0  0  0  0
  2  4  1  0  0  0  0
  2  5  1  0  0  0  0
  5  6  2  0  0  0  0
  5  7  1  0  0  0  0
  7  8  1  0  0  0  0
  7  9  1  0  0  0  0
  9 10  1  0  0  0  0
  9 11  1  0  0  0  0
  9 23  1  0  0  0  0
 11 12  1  0  0  0  0
 11 13  1  0  0  0  0
 11 14  1  0  0  0  0
 14 15  1  0  0  0  0
 14 21  2  0  0  0  0
 15 16  1  0  0  0  0
 15 17  2  0  0  0  0
 17 18  1  0  0  0  0
 17 19  1  0  0  0  0
 19 20  1  0  0  0  0
 19 21  1  0  0  0  0
 21 22  1  0  0  0  0
 23 24  2  0  0  0  0
 23 25  1  0  0  0  0
 25 26  1  0  0  0  0
 25 27  1  0  0  0  0
 27 28  1  0  0  0  0
 27 29  1  0  0  0  0
 27 30  1  0  0  0  0
M  CHG  1  15   1
M  END
$$$$

  -OEChem-04042216003D

 30 30  0     1  0  0  0  0  0999 V2000
   -3.3218   -3.7466    1.3283 H   0  0  0  0  0  0  0  0  0  0  0  0
   -3.1986   -2.9442    0.5948 C   0  0  0  0  0  0  0  0  0  0  0  0
   -3.9394   -2.1675    0.7984 H   0  0  0  0  0  0  0  0  0  0  0  0
   -3.3718   -3.3546   -0.4028 H   0  0  0  0  0  0  0  0  0  0  0  0
   -1.7987   -2.3681    0.6861 C   0  0  0  0  0  0  0  0  0  0  0  0
   -1.0102   -2.8095    1.5003 O   0  0  0  0  0  0  0  0  0  0  0  0
   -1.4068   -1.3501   -0.1670 N   0  0  0  0  0  0  0  0  0  0  0  0
   -2.0848   -1.0629   -0.8675 H   0  0  0  0  0  0  0  0  0  0  0  0
   -0.0470   -0.7636   -0.1787 C   0  0  1  0  0  0  0  0  0  0  0  0
    0.6860   -1.5600   -0.3577 H   0  0  0  0  0  0  0  0  0  0  0  0
    0.0006    0.2356   -1.3617 C   0  0  0  0  0  0  0  0  0  0  0  0
   -0.2422   -0.3331   -2.2652 H   0  0  0  0  0  0  0  0  0  0  0  0
   -0.7926    0.9775   -1.2189 H   0  0  0  0  0  0  0  0  0  0  0  0
    1.2927    0.9987   -1.6298 C   0  0  0  0  0  0  0  0  0  0  0  0
    1.6580    1.4074   -2.9186 N   0  3  0  0  0  0  0  0  0  0  0  0
    1.0853    1.2173   -3.7448 H   0  0  0  0  0  0  0  0  0  0  0  0
    2.8146    2.0243   -2.9102 C   0  0  0  0  0  0  0  0  0  0  0  0
    3.3408    2.4368   -3.7733 H   0  0  0  0  0  0  0  0  0  0  0  0
    3.2507    2.0507   -1.5920 N   0  0  0  0  0  0  0  0  0  0  0  0
    4.1312    2.4546   -1.2571 H   0  0  0  0  0  0  0  0  0  0  0  0
    2.3076    1.4175   -0.7957 C   0  0  0  0  0  0  0  0  0  0  0  0
    2.3878    1.2948    0.2821 H   0  0  0  0  0  0  0  0  0  0  0  0
    0.3078   -0.1386    1.1908 C   0  0  0  0  0  0  0  0  0  0  0  0
    1.4419   -0.2514    1.6344 O   0  0  0  0  0  0  0  0  0  0  0  0
   -0.6064    0.6562    1.8590 N   0  0  0  0  0  0  0  0  0  0  0  0
   -1.5718    0.5701    1.5549 H   0  0  0  0  0  0  0  0  0  0  0  0
   -0.3624    1.1484    3.2125 C   0  0  0  0  0  0  0  0  0  0  0  0
    0.5459    1.7596    3.2453 H   0  0  0  0  0  0  0  0  0  0  0  0
   -1.2011    1.7648    3.5508 H   0  0  0  0  0  0  0  0  0  0  0  0
   -0.2452    0.3103    3.9087 H   0  0  0  0  0  0  0  0  0  0  0  0
  1  2  1  0  0  0  0
  2  3  1  0  0  0  0
  2  4  1  0  0  0  0
  2  5  1  0  0  0  0
  5  6  2  0  0  0  0
  5  7  1  0  0  0  0
  7  8  1  0  0  0  0
  7  9  1  0  0  0  0
  9 10  1  0  0  0  0
  9 11  1  0  0  0  0
  9 23  1  0  0  0  0
 11 12  1  0  0  0  0
 11 13  1  0  0  0  0
 11 14  1  0  0  0  0
 14 15  1  0  0  0  0
 14 21  2  0  0  0  0
 15 16  1  0  0  0  0
 15 17  2  0  0  0  0
 17 18  1  0  0  0  0
 17 19  1  0  0  0  0
 19 20  1  0  0  0  0
 19 21  1  0  0  0  0
 21 22  1  0  0  0  0
 23 24  2  0  0  0  0
 23 25  1  0  0  0  0
 25 26  1  0  0  0  0
 25 27  1  0  0  0  0
 27 28  1  0  0  0  0
 27 29  1  0  0  0  0
 27 30  1  0  0  0  0
M  CHG  1  15   1
M  END
$$$$

  -OEChem-04042216003D

 30 30  0     1  0  0  0  0  0999 V2000
   -3.3200   -3.7330    1.3563 H   0  0  0  0  0  0  0  0  0  0  0  0
   -3.1912   -2.9462    0.6070 C   0  0  0  0  0  0  0  0  0  0  0  0
   -3.9362   -2.1678    0.7862 H   0  0  0  0  0  0  0  0  0  0  0  0
   -3.3529   -3.3781   -0.3834 H   0  0  0  0  0  0  0  0  0  0  0  0
   -1.7940   -2.3641    0.7014 C   0  0  0  0  0  0  0  0  0  0  0  0
   -1.0102   -2.7949    1.5257 O   0  0  0  0  0  0  0  0  0  0  0  0
   -1.3971   -1.3582   -0.1639 N   0  0  0  0  0  0  0  0  0  0  0  0
   -2.0640   -1.0966   -0.8849 H   0  0  0  0  0  0  0  0  0  0  0  0
   -0.0353   -0.7758   -0.1803 C   0  0  1  0  0  0  0  0  0  0  0  0
    0.7012   -1.5674   -0.3637 H   0  0  0  0  0  0  0  0  0  0  0  0
    0.0021    0.2483   -1.3402 C   0  0  0  0  0  0  0  0  0  0  0  0
   -0.2569   -0.2927   -2.2565 H   0  0  0  0  0  0  0  0  0  0  0  0
   -0.7830    0.9910   -1.1620 H   0  0  0  0  0  0  0  0  0  0  0  0
    1.2956    1.0085   -1.6057 C   0  0  0  0  0  0  0  0  0  0  0  0
    1.5099    1.7108   -2.7980 N   0  3  0  0  0  0  0  0  0  0  0  0
    0.7939    1.8057   -3.5227 H   0  0  0  0  0  0  0  0  0  0  0  0
    2.7152    2.2251   -2.8349 C   0  0  0  0  0  0  0  0  0  0  0  0
    3.1435    2.8289   -3.6375 H   0  0  0  0  0  0  0  0  0  0  0  0
    3.3524    1.8505   -1.6591 N   0  0  0  0  0  0  0  0  0  0  0  0
    4.3153    2.0826   -1.3952 H   0  0  0  0  0  0  0  0  0  0  0  0
    2.4814    1.0776   -0.9053 C   0  0  0  0  0  0  0  0  0  0  0  0
    2.7325    0.6078    0.0431 H   0  0  0  0  0  0  0  0  0  0  0  0
    0.3025   -0.1376    1.1915 C   0  0  0  0  0  0  0  0  0  0  0  0
    1.4270   -0.2446    1.6587 O   0  0  0  0  0  0  0  0  0  0  0  0
   -0.6231    0.6616    1.8392 N   0  0  0  0  0  0  0  0  0  0  0  0
   -1.5843    0.5689    1.5247 H   0  0  0  0  0  0  0  0  0  0  0  0
   -0.3948    1.1803    3.1857 C   0  0  0  0  0  0  0  0  0  0  0  0
    0.5194    1.7826    3.2192 H   0  0  0  0  0  0  0  0  0  0  0  0
   -1.2319    1.8126    3.4979 H   0  0  0  0  0  0  0  0  0  0  0  0
   -0.2965    0.3561    3.9009 H   0  0  0  0  0  0  0  0  0  0  0  0
  1  2  1  0  0  0  0
  2  3  1  0  0  0  0
  2  4  1  0  0  0  0
  2  5  1  0  0  0  0
  5  6  2  0  0  0  0
  5  7  1  0  0  0  0
  7  8  1  0  0  0  0
  7  9  1  0  0  0  0
  9 10  1  0  0  0  0
  9 11  1  0  0  0  0
  9 23  1  0  0  0  0
 11 12  1  0  0  0  0
 11 13  1  0  0  0  0
 11 14  1  0  0  0  0
 14 15  1  0  0  0  0
 14 21  2  0  0  0  0
 15 16  1  0  0  0  0
 15 17  2  0  0  0  0
 17 18  1  0  0  0  0
 17 19  1  0  0  0  0
 19 20  1  0  0  0  0
 19 21  1  0  0  0  0
 21 22  1  0  0  0  0
 23 24  2  0  0  0  0
 23 25  1  0  0  0  0
 25 26  1  0  0  0  0
 25 27  1  0  0  0  0
 27 28  1  0  0  0  0
 27 29  1  0  0  0  0
 27 30  1  0  0  0  0
M  CHG  1  15   1
M  END
$$$$

  -OEChem-04042216003D

 30 30  0     1  0  0  0  0  0999 V2000
   -3.2717   -3.8138    1.3977 H   0  0  0  0  0  0  0  0  0  0  0  0
   -3.1990   -3.0125    0.6564 C   0  0  0  0  0  0  0  0  0  0  0  0
   -3.9440   -2.2492    0.8923 H   0  0  0  0  0  0  0  0  0  0  0  0
   -3.4117   -3.4303   -0.3305 H   0  0  0  0  0  0  0  0  0  0  0  0
   -1.8075   -2.4096    0.6790 C   0  0  0  0  0  0  0  0  0  0  0  0
   -0.9707   -2.8308    1.4557 O   0  0  0  0  0  0  0  0  0  0  0  0
   -1.4722   -1.3893   -0.1943 N   0  0  0  0  0  0  0  0  0  0  0  0
   -2.1849   -1.1104   -0.8635 H   0  0  0  0  0  0  0  0  0  0  0  0
   -0.1258   -0.7812   -0.2599 C   0  0  1  0  0  0  0  0  0  0  0  0
    0.5887   -1.5850   -0.4723 H   0  0  0  0  0  0  0  0  0  0  0  0
   -0.0910    0.2444   -1.4139 C   0  0  0  0  0  0  0  0  0  0  0  0
   -0.5814   -0.2008   -2.2858 H   0  0  0  0  0  0  0  0  0  0  0  0
   -0.6725    1.1245   -1.1183 H   0  0  0  0  0  0  0  0  0  0  0  0
    1.2954    0.6939   -1.8464 C   0  0  0  0  0  0  0  0  0  0  0  0
    1.5344    1.6160   -2.8706 N   0  3  0  0  0  0  0  0  0  0  0  0
    0.7837    2.0850   -3.3837 H   0  0  0  0  0  0  0  0  0  0  0  0
    2.8215    1.8080   -3.0340 C   0  0  0  0  0  0  0  0  0  0  0  0
    3.2937    2.4856   -3.7479 H   0  0  0  0  0  0  0  0  0  0  0  0
    3.4771    0.9880   -2.1220 N   0  0  0  0  0  0  0  0  0  0  0  0
    4.4915    0.9231   -1.9903 H   0  0  0  0  0  0  0  0  0  0  0  0
    2.5297    0.2863   -1.3909 C   0  0  0  0  0  0  0  0  0  0  0  0
    2.7349   -0.4370   -0.5994 H   0  0  0  0  0  0  0  0  0  0  0  0
    0.3101   -0.1319    1.0773 C   0  0  0  0  0  0  0  0  0  0  0  0
    1.4929   -0.1335    1.3898 O   0  0  0  0  0  0  0  0  0  0  0  0
   -0.5722    0.6635    1.7867 N   0  0  0  0  0  0  0  0  0  0  0  0
   -1.5582    0.5236    1.5863 H   0  0  0  0  0  0  0  0  0  0  0  0
   -0.2138    1.2822    3.0607 C   0  0  0  0  0  0  0  0  0  0  0  0
    0.6630    1.9282    2.9441 H   0  0  0  0  0  0  0  0  0  0  0  0
   -1.0410    1.8942    3.4334 H   0  0  0  0  0  0  0  0  0  0  0  0
    0.0146    0.5148    3.8086 H   0  0  0  0  0  0  0  0  0  0  0  0
  1  2  1  0  0  0  0
  2  3  1  0  0  0  0
  2  4  1  0  0  0  0
  2  5  1  0  0  0  0
  5  6  2  0  0  0  0
  5  7  1  0  0  0  0
  7  8  1  0  0  0  0
  7  9  1  0  0  0  0
  9 10  1  0  0  0  0
  9 11  1  0  0  0  0
  9 23  1  0  0  0  0
 11 12  1  0  0  0  0
 11 13  1  0  0  0  0
 11 14  1  0  0  0  0
 14 15  1  0  0  0  0
 14 21  2  0  0  0  0
 15 16  1  0  0  0  0
 15 17  2  0  0  0  0
 17 18  1  0  0  0  0
 17 19  1  0  0  0  0
 19 20  1  0  0  0  0
 19 21  1  0  0  0  0
 21 22  1  0  0  0  0
 23 24  2  0  0  0  0
 23 25  1  0  0  0  0
 25 26  1  0  0  0  0
 25 27  1  0  0  0  0
 27 28  1  0  0  0  0
 27 29  1  0  0  0  0
 27 30  1  0  0  0  0
M  CHG  1  15   1
M  END
$$$$

  -OEChem-04042216003D

 30 30  0     1  0  0  0  0  0999 V2000
   -3.2662   -3.8352    1.3980 H   0  0  0  0  0  0  0  0  0  0  0  0
   -3.2102   -3.0301    0.6593 C   0  0  0  0  0  0  0  0  0  0  0  0
   -3.9565   -2.2728    0.9104 H   0  0  0  0  0  0  0  0  0  0  0  0
   -3.4359   -3.4444   -0.3261 H   0  0  0  0  0  0  0  0  0  0  0  0
   -1.8226   -2.4184    0.6626 C   0  0  0  0  0  0  0  0  0  0  0  0
   -0.9702   -2.8372    1.4238 O   0  0  0  0  0  0  0  0  0  0  0  0
   -1.5084   -1.3891   -0.2078 N   0  0  0  0  0  0  0  0  0  0  0  0
   -2.2328   -1.1092   -0.8641 H   0  0  0  0  0  0  0  0  0  0  0  0
   -0.1656   -0.7772   -0.2918 C   0  0  1  0  0  0  0  0  0  0  0  0
    0.5352   -1.5900   -0.5136 H   0  0  0  0  0  0  0  0  0  0  0  0
   -0.1310    0.2386   -1.4534 C   0  0  0  0  0  0  0  0  0  0  0  0
   -0.6248   -0.2026   -2.3254 H   0  0  0  0  0  0  0  0  0  0  0  0
   -0.7056    1.1228   -1.1577 H   0  0  0  0  0  0  0  0  0  0  0  0
    1.2634    0.6709   -1.8757 C   0  0  0  0  0  0  0  0  0  0  0  0
    1.5414    1.7806   -2.6797 N   0  3  0  0  0  0  0  0  0  0  0  0
    0.8131    2.3925   -3.0560 H   0  0  0  0  0  0  0  0  0  0  0  0
    2.8356    1.9325   -2.8301 C   0  0  0  0  0  0  0  0  0  0  0  0
    3.3376    2.7234   -3.3908 H   0  0  0  0  0  0  0  0  0  0  0  0
    3.4545    0.9037   -2.1278 N   0  0  0  0  0  0  0  0  0  0  0  0
    4.4650    0.7702   -2.0211 H   0  0  0  0  0  0  0  0  0  0  0  0
    2.4775    0.1208   -1.5305 C   0  0  0  0  0  0  0  0  0  0  0  0
    2.6456   -0.7348   -0.8734 H   0  0  0  0  0  0  0  0  0  0  0  0
    0.3173   -0.1325    1.0293 C   0  0  0  0  0  0  0  0  0  0  0  0
    1.5152   -0.1204    1.2808 O   0  0  0  0  0  0  0  0  0  0  0  0
   -0.5371    0.6633    1.7707 N   0  0  0  0  0  0  0  0  0  0  0  0
   -1.5300    0.5104    1.6191 H   0  0  0  0  0  0  0  0  0  0  0  0
   -0.1252    1.2897    3.0242 C   0  0  0  0  0  0  0  0  0  0  0  0
    0.7222    1.9637    2.8586 H   0  0  0  0  0  0  0  0  0  0  0  0
   -0.9487    1.8733    3.4476 H   0  0  0  0  0  0  0  0  0  0  0  0
    0.1712    0.5284    3.7544 H   0  0  0  0  0  0  0  0  0  0  0  0
  1  2  1  0  0  0  0
  2  3  1  0  0  0  0
  2  4  1  0  0  0  0
  2  5  1  0  0  0  0
  5  6  2  0  0  0  0
  5  7  1  0  0  0  0
  7  8  1  0  0  0  0
  7  9  1  0  0  0  0
  9 10  1  0  0  0  0
  9 11  1  0  0  0  0
  9 23  1  0  0  0  0
 11 12  1  0  0  0  0
 11 13  1  0  0  0  0
 11 14  1  0  0  0  0
 14 15  1  0  0  0  0
 14 21  2  0  0  0  0
 15 16  1  0  0  0  0
 15 17  2  0  0  0  0
 17 18  1  0  0  0  0
 17 19  1  0  0  0  0
 19 20  1  0  0  0  0
 19 21  1  0  0  0  0
 21 22  1  0  0  0  0
 23 24  2  0  0  0  0
 23 25  1  0  0  0  0
 25 26  1  0  0  0  0
 25 27  1  0  0  0  0
 27 28  1  0  0  0  0
 27 29  1  0  0  0  0
 27 30  1  0  0  0  0
M  CHG  1  15   1
M  END
$$$$

  -OEChem-04042216003D

 30 30  0     1  0  0  0  0  0999 V2000
   -3.2415   -3.8590    1.3992 H   0  0  0  0  0  0  0  0  0  0  0  0
   -3.2054   -3.0504    0.6630 C   0  0  0  0  0  0  0  0  0  0  0  0
   -3.9553   -2.3017    0.9288 H   0  0  0  0  0  0  0  0  0  0  0  0
   -3.4419   -3.4628   -0.3207 H   0  0  0  0  0  0  0  0  0  0  0  0
   -1.8246   -2.4241    0.6474 C   0  0  0  0  0  0  0  0  0  0  0  0
   -0.9559   -2.8369    1.3933 O   0  0  0  0  0  0  0  0  0  0  0  0
   -1.5344   -1.3857   -0.2200 N   0  0  0  0  0  0  0  0  0  0  0  0
   -2.2708   -1.1084   -0.8642 H   0  0  0  0  0  0  0  0  0  0  0  0
   -0.1978   -0.7643   -0.3226 C   0  0  1  0  0  0  0  0  0  0  0  0
    0.4958   -1.5801   -0.5531 H   0  0  0  0  0  0  0  0  0  0  0  0
   -0.1709    0.2488   -1.4857 C   0  0  0  0  0  0  0  0  0  0  0  0
   -0.6673   -0.1865   -2.3594 H   0  0  0  0  0  0  0  0  0  0  0  0
   -0.7416    1.1344   -1.1862 H   0  0  0  0  0  0  0  0  0  0  0  0
    1.2293    0.6694   -1.8978 C   0  0  0  0  0  0  0  0  0  0  0  0
    1.5636    1.9140   -2.4393 N   0  3  0  0  0  0  0  0  0  0  0  0
    0.8717    2.6432   -2.6287 H   0  0  0  0  0  0  0  0  0  0  0  0
    2.8613    2.0161   -2.5995 C   0  0  0  0  0  0  0  0  0  0  0  0
    3.4036    2.8835   -2.9805 H   0  0  0  0  0  0  0  0  0  0  0  0
    3.4241    0.8180   -2.1715 N   0  0  0  0  0  0  0  0  0  0  0  0
    4.4259    0.6093   -2.1208 H   0  0  0  0  0  0  0  0  0  0  0  0
    2.4104   -0.0165   -1.7235 C   0  0  0  0  0  0  0  0  0  0  0  0
    2.5359   -0.9973   -1.2625 H   0  0  0  0  0  0  0  0  0  0  0  0
    0.3221   -0.1223    0.9840 C   0  0  0  0  0  0  0  0  0  0  0  0
    1.5301   -0.0864    1.1806 O   0  0  0  0  0  0  0  0  0  0  0  0
   -0.5131    0.6685    1.7522 N   0  0  0  0  0  0  0  0  0  0  0  0
   -1.5088    0.4987    1.6408 H   0  0  0  0  0  0  0  0  0  0  0  0
   -0.0629    1.2990    2.9902 C   0  0  0  0  0  0  0  0  0  0  0  0
    0.7618    1.9922    2.7930 H   0  0  0  0  0  0  0  0  0  0  0  0
   -0.8809    1.8622    3.4503 H   0  0  0  0  0  0  0  0  0  0  0  0
    0.2797    0.5414    3.7036 H   0  0  0  0  0  0  0  0  0  0  0  0
  1  2  1  0  0  0  0
  2  3  1  0  0  0  0
  2  4  1  0  0  0  0
  2  5  1  0  0  0  0
  5  6  2  0  0  0  0
  5  7  1  0  0  0  0
  7  8  1  0  0  0  0
  7  9  1  0  0  0  0
  9 10  1  0  0  0  0
  9 11  1  0  0  0  0
  9 23  1  0  0  0  0
 11 12  1  0  0  0  0
 11 13  1  0  0  0  0
 11 14  1  0  0  0  0
 14 15  1  0  0  0  0
 14 21  2  0  0  0  0
 15 16  1  0  0  0  0
 15 17  2  0  0  0  0
 17 18  1  0  0  0  0
 17 19  1  0  0  0  0
 19 20  1  0  0  0  0
 19 21  1  0  0  0  0
 21 22  1  0  0  0  0
 23 24  2  0  0  0  0
 23 25  1  0  0  0  0
 25 26  1  0  0  0  0
 25 27  1  0  0  0  0
 27 28  1  0  0  0  0
 27 29  1  0  0  0  0
 27 30  1  0  0  0  0
M  CHG  1  15   1
M  END
$$$$

  -OEChem-04042216003D

 30 30  0     1  0  0  0  0  0999 V2000
   -3.1986   -3.8860    1.3972 H   0  0  0  0  0  0  0  0  0  0  0  0
   -3.1817   -3.0742    0.6640 C   0  0  0  0  0  0  0  0  0  0  0  0
   -3.9374   -2.3360    0.9420 H   0  0  0  0  0  0  0  0  0  0  0  0
   -3.4255   -3.4858   -0.3183 H   0  0  0  0  0  0  0  0  0  0  0  0
   -1.8088   -2.4310    0.6339 C   0  0  0  0  0  0  0  0  0  0  0  0
   -0.9249   -2.8379    1.3652 O   0  0  0  0  0  0  0  0  0  0  0  0
   -1.5419   -1.3844   -0.2308 N   0  0  0  0  0  0  0  0  0  0  0  0
   -2.2898   -1.1112   -0.8634 H   0  0  0  0  0  0  0  0  0  0  0  0
   -0.2141   -0.7471   -0.3461 C   0  0  1  0  0  0  0  0  0  0  0  0
    0.4857   -1.5541   -0.5873 H   0  0  0  0  0  0  0  0  0  0  0  0
   -0.2066    0.2776   -1.4977 C   0  0  0  0  0  0  0  0  0  0  0  0
   -0.7023   -0.1503   -2.3753 H   0  0  0  0  0  0  0  0  0  0  0  0
   -0.7797    1.1586   -1.1900 H   0  0  0  0  0  0  0  0  0  0  0  0
    1.1974    0.6920   -1.8943 C   0  0  0  0  0  0  0  0  0  0  0  0
    1.6168    2.0030   -2.1351 N   0  3  0  0  0  0  0  0  0  0  0  0
    0.9915    2.8097   -2.0686 H   0  0  0  0  0  0  0  0  0  0  0  0
    2.9102    2.0405   -2.3480 C   0  0  0  0  0  0  0  0  0  0  0  0
    3.5138    2.9322   -2.5265 H   0  0  0  0  0  0  0  0  0  0  0  0
    3.3780    0.7321   -2.2770 N   0  0  0  0  0  0  0  0  0  0  0  0
    4.3584    0.4425   -2.3463 H   0  0  0  0  0  0  0  0  0  0  0  0
    2.3131   -0.1085   -1.9837 C   0  0  0  0  0  0  0  0  0  0  0  0
    2.3635   -1.1826   -1.8039 H   0  0  0  0  0  0  0  0  0  0  0  0
    0.3230   -0.1042    0.9528 C   0  0  0  0  0  0  0  0  0  0  0  0
    1.5350   -0.0264    1.1098 O   0  0  0  0  0  0  0  0  0  0  0  0
   -0.5080    0.6753    1.7370 N   0  0  0  0  0  0  0  0  0  0  0  0
   -1.5026    0.4846    1.6517 H   0  0  0  0  0  0  0  0  0  0  0  0
   -0.0401    1.3207    2.9609 C   0  0  0  0  0  0  0  0  0  0  0  0
    0.7641    2.0304    2.7392 H   0  0  0  0  0  0  0  0  0  0  0  0
   -0.8581    1.8680    3.4397 H   0  0  0  0  0  0  0  0  0  0  0  0
    0.3374    0.5744    3.6688 H   0  0  0  0  0  0  0  0  0  0  0  0
  1  2  1  0  0  0  0
  2  3  1  0  0  0  0
  2  4  1  0  0  0  0
  2  5  1  0  0  0  0
  5  6  2  0  0  0  0
  5  7  1  0  0  0  0
  7  8  1  0  0  0  0
  7  9  1  0  0  0  0
  9 10  1  0  0  0  0
  9 11  1  0  0  0  0
  9 23  1  0  0  0  0
 11 12  1  0  0  0  0
 11 13  1  0  0  0  0
 11 14  1  0  0  0  0
 14 15  1  0  0  0  0
 14 21  2  0  0  0  0
 15 16  1  0  0  0  0
 15 17  2  0  0  0  0
 17 18  1  0  0  0  0
 17 19  1  0  0  0  0
 19 20  1  0  0  0  0
 19 21  1  0  0  0  0
 21 22  1  0  0  0  0
 23 24  2  0  0  0  0
 23 25  1  0  0  0  0
 25 26  1  0  0  0  0
 25 27  1  0  0  0  0
 27 28  1  0  0  0  0
 27 29  1  0  0  0  0
 27 30  1  0  0  0  0
M  CHG  1  15   1
M  END
$$$$

  -OEChem-04042216003D

 30 30  0     1  0  0  0  0  0999 V2000
   -3.1551   -3.9041    1.3921 H   0  0  0  0  0  0  0  0  0  0  0  0
   -3.1485   -3.0918    0.6594 C   0  0  0  0  0  0  0  0  0  0  0  0
   -3.9169   -2.3659    0.9349 H   0  0  0  0  0  0  0  0  0  0  0  0
   -3.3823   -3.5068   -0.3239 H   0  0  0  0  0  0  0  0  0  0  0  0
   -1.7859   -2.4265    0.6343 C   0  0  0  0  0  0  0  0  0  0  0  0
   -0.8984   -2.8172    1.3700 O   0  0  0  0  0  0  0  0  0  0  0  0
   -1.5336   -1.3763   -0.2306 N   0  0  0  0  0  0  0  0  0  0  0  0
   -2.2846   -1.1170   -0.8656 H   0  0  0  0  0  0  0  0  0  0  0  0
   -0.2130   -0.7255   -0.3550 C   0  0  1  0  0  0  0  0  0  0  0  0
    0.5001   -1.5186   -0.6068 H   0  0  0  0  0  0  0  0  0  0  0  0
   -0.2264    0.3111   -1.4942 C   0  0  0  0  0  0  0  0  0  0  0  0
   -0.7159   -0.1174   -2.3750 H   0  0  0  0  0  0  0  0  0  0  0  0
   -0.8050    1.1888   -1.1873 H   0  0  0  0  0  0  0  0  0  0  0  0
    1.1807    0.7167   -1.8750 C   0  0  0  0  0  0  0  0  0  0  0  0
    1.7054    2.0093   -1.8138 N   0  3  0  0  0  0  0  0  0  0  0  0
    1.1774    2.8081   -1.4541 H   0  0  0  0  0  0  0  0  0  0  0  0
    2.9786    1.9991   -2.1263 C   0  0  0  0  0  0  0  0  0  0  0  0
    3.6565    2.8543   -2.1127 H   0  0  0  0  0  0  0  0  0  0  0  0
    3.3151    0.6871   -2.4479 N   0  0  0  0  0  0  0  0  0  0  0  0
    4.2532    0.3531   -2.6886 H   0  0  0  0  0  0  0  0  0  0  0  0
    2.1942   -0.1163   -2.2841 C   0  0  0  0  0  0  0  0  0  0  0  0
    2.1376   -1.1975   -2.4109 H   0  0  0  0  0  0  0  0  0  0  0  0
    0.3226   -0.0798    0.9435 C   0  0  0  0  0  0  0  0  0  0  0  0
    1.5333    0.0421    1.0821 O   0  0  0  0  0  0  0  0  0  0  0  0
   -0.5181    0.6873    1.7300 N   0  0  0  0  0  0  0  0  0  0  0  0
   -1.5072    0.4638    1.6590 H   0  0  0  0  0  0  0  0  0  0  0  0
   -0.0560    1.3337    2.9559 C   0  0  0  0  0  0  0  0  0  0  0  0
    0.7687    2.0227    2.7443 H   0  0  0  0  0  0  0  0  0  0  0  0
   -0.8689    1.9050    3.4149 H   0  0  0  0  0  0  0  0  0  0  0  0
    0.2911    0.5847    3.6764 H   0  0  0  0  0  0  0  0  0  0  0  0
  1  2  1  0  0  0  0
  2  3  1  0  0  0  0
  2  4  1  0  0  0  0
  2  5  1  0  0  0  0
  5  6  2  0  0  0  0
  5  7  1  0  0  0  0
  7  8  1  0  0  0  0
  7  9  1  0  0  0  0
  9 10  1  0  0  0  0
  9 11  1  0  0  0  0
  9 23  1  0  0  0  0
 11 12  1  0  0  0  0
 11 13  1  0  0  0  0
 11 14  1  0  0  0  0
 14 15  1  0  0  0  0
 14 21  2  0  0  0  0
 15 16  1  0  0  0  0
 15 17  2  0  0  0  0
 17 18  1  0  0  0  0
 17 19  1  0  0  0  0
 19 20  1  0  0  0  0
 19 21  1  0  0  0  0
 21 22  1  0  0  0  0
 23 24  2  0  0  0  0
 23 25  1  0  0  0  0
 25 26  1  0  0  0  0
 25 27  1  0  0  0  0
 27 28  1  0  0  0  0
 27 29  1  0  0  0  0
 27 30  1  0  0  0  0
M  CHG  1  15   1
M  END
$$$$

  -OEChem-04042216003D

 30 30  0     1  0  0  0  0  0999 V2000
   -3.1366   -3.8985    1.4062 H   0  0  0  0  0  0  0  0  0  0  0  0
   -3.1309   -3.0911    0.6678 C   0  0  0  0  0  0  0  0  0  0  0  0
   -3.9054   -2.3680    0.9343 H   0  0  0  0  0  0  0  0  0  0  0  0
   -3.3569   -3.5144   -0.3137 H   0  0  0  0  0  0  0  0  0  0  0  0
   -1.7719   -2.4182    0.6452 C   0  0  0  0  0  0  0  0  0  0  0  0
   -0.8873   -2.7973    1.3904 O   0  0  0  0  0  0  0  0  0  0  0  0
   -1.5213   -1.3720   -0.2254 N   0  0  0  0  0  0  0  0  0  0  0  0
   -2.2675   -1.1285   -0.8721 H   0  0  0  0  0  0  0  0  0  0  0  0
   -0.2018   -0.7192   -0.3546 C   0  0  1  0  0  0  0  0  0  0  0  0
    0.5206   -1.5027   -0.6126 H   0  0  0  0  0  0  0  0  0  0  0  0
   -0.2215    0.3281   -1.4825 C   0  0  0  0  0  0  0  0  0  0  0  0
   -0.7101   -0.0987   -2.3646 H   0  0  0  0  0  0  0  0  0  0  0  0
   -0.7974    1.2090   -1.1789 H   0  0  0  0  0  0  0  0  0  0  0  0
    1.1914    0.7175   -1.8509 C   0  0  0  0  0  0  0  0  0  0  0  0
    1.8276    1.9113   -1.5065 N   0  3  0  0  0  0  0  0  0  0  0  0
    1.4241    2.5815   -0.8467 H   0  0  0  0  0  0  0  0  0  0  0  0
    3.0647    1.9049   -1.9392 C   0  0  0  0  0  0  0  0  0  0  0  0
    3.8196    2.6702   -1.7498 H   0  0  0  0  0  0  0  0  0  0  0  0
    3.2493    0.7208   -2.6488 N   0  0  0  0  0  0  0  0  0  0  0  0
    4.1261    0.4166   -3.0827 H   0  0  0  0  0  0  0  0  0  0  0  0
    2.0787   -0.0256   -2.5898 C   0  0  0  0  0  0  0  0  0  0  0  0
    1.9050   -1.0142   -3.0148 H   0  0  0  0  0  0  0  0  0  0  0  0
    0.3193   -0.0703    0.9499 C   0  0  0  0  0  0  0  0  0  0  0  0
    1.5255    0.0905    1.0906 O   0  0  0  0  0  0  0  0  0  0  0  0
   -0.5377    0.6914    1.7242 N   0  0  0  0  0  0  0  0  0  0  0  0
   -1.5217    0.4464    1.6499 H   0  0  0  0  0  0  0  0  0  0  0  0
   -0.0977    1.3462    2.9539 C   0  0  0  0  0  0  0  0  0  0  0  0
    0.6972    2.0701    2.7458 H   0  0  0  0  0  0  0  0  0  0  0  0
   -0.9320    1.8796    3.4205 H   0  0  0  0  0  0  0  0  0  0  0  0
    0.2816    0.6057    3.6670 H   0  0  0  0  0  0  0  0  0  0  0  0
  1  2  1  0  0  0  0
  2  3  1  0  0  0  0
  2  4  1  0  0  0  0
  2  5  1  0  0  0  0
  5  6  2  0  0  0  0
  5  7  1  0  0  0  0
  7  8  1  0  0  0  0
  7  9  1  0  0  0  0
  9 10  1  0  0  0  0
  9 11  1  0  0  0  0
  9 23  1  0  0  0  0
 11 12  1  0  0  0  0
 11 13  1  0  0  0  0
 11 14  1  0  0  0  0
 14 15  1  0  0  0  0
 14 21  2  0  0  0  0
 15 16  1  0  0  0  0
 15 17  2  0  0  0  0
 17 18  1  0  0  0  0
 17 19  1  0  0  0  0
 19 20  1  0  0  0  0
 19 21  1  0  0  0  0
 21 22  1  0  0  0  0
 23 24  2  0  0  0  0
 23 25  1  0  0  0  0
 25 26  1  0  0  0  0
 25 27  1  0  0  0  0
 27 28  1  0  0  0  0
 27 29  1  0  0  0  0
 27 30  1  0  0  0  0
M  CHG  1  15   1
M  END
$$$$

  -OEChem-04042216003D

 30 30  0     1  0  0  0  0  0999 V2000
   -3.1530   -3.8762    1.4259 H   0  0  0  0  0  0  0  0  0  0  0  0
   -3.1336   -3.0771    0.6787 C   0  0  0  0  0  0  0  0  0  0  0  0
   -3.9087   -2.3480    0.9263 H   0  0  0  0  0  0  0  0  0  0  0  0
   -3.3475   -3.5099   -0.3014 H   0  0  0  0  0  0  0  0  0  0  0  0
   -1.7717   -2.4104    0.6672 C   0  0  0  0  0  0  0  0  0  0  0  0
   -0.8992   -2.7845    1.4291 O   0  0  0  0  0  0  0  0  0  0  0  0
   -1.5060   -1.3750   -0.2118 N   0  0  0  0  0  0  0  0  0  0  0  0
   -2.2412   -1.1419   -0.8748 H   0  0  0  0  0  0  0  0  0  0  0  0
   -0.1801   -0.7344   -0.3395 C   0  0  1  0  0  0  0  0  0  0  0  0
    0.5440   -1.5178   -0.5945 H   0  0  0  0  0  0  0  0  0  0  0  0
   -0.1938    0.3199   -1.4613 C   0  0  0  0  0  0  0  0  0  0  0  0
   -0.6931   -0.1002   -2.3406 H   0  0  0  0  0  0  0  0  0  0  0  0
   -0.7600    1.2055   -1.1530 H   0  0  0  0  0  0  0  0  0  0  0  0
    1.2199    0.7015   -1.8379 C   0  0  0  0  0  0  0  0  0  0  0  0
    1.9703    1.7292   -1.2632 N   0  3  0  0  0  0  0  0  0  0  0  0
    1.7125    2.1506   -0.3645 H   0  0  0  0  0  0  0  0  0  0  0  0
    3.1571    1.7830   -1.8158 C   0  0  0  0  0  0  0  0  0  0  0  0
    3.9868    2.4168   -1.4976 H   0  0  0  0  0  0  0  0  0  0  0  0
    3.1788    0.8449   -2.8449 N   0  0  0  0  0  0  0  0  0  0  0  0
    3.9799    0.6444   -3.4513 H   0  0  0  0  0  0  0  0  0  0  0  0
    1.9677    0.1632   -2.8558 C   0  0  0  0  0  0  0  0  0  0  0  0
    1.6719   -0.6455   -3.5242 H   0  0  0  0  0  0  0  0  0  0  0  0
    0.3176   -0.0833    0.9754 C   0  0  0  0  0  0  0  0  0  0  0  0
    1.5182    0.1061    1.1329 O   0  0  0  0  0  0  0  0  0  0  0  0
   -0.5568    0.6826    1.7257 N   0  0  0  0  0  0  0  0  0  0  0  0
   -1.5380    0.4317    1.6342 H   0  0  0  0  0  0  0  0  0  0  0  0
   -0.1471    1.3536    2.9574 C   0  0  0  0  0  0  0  0  0  0  0  0
    0.6213    2.1066    2.7528 H   0  0  0  0  0  0  0  0  0  0  0  0
   -1.0032    1.8556    3.4197 H   0  0  0  0  0  0  0  0  0  0  0  0
    0.2555    0.6283    3.6733 H   0  0  0  0  0  0  0  0  0  0  0  0
  1  2  1  0  0  0  0
  2  3  1  0  0  0  0
  2  4  1  0  0  0  0
  2  5  1  0  0  0  0
  5  6  2  0  0  0  0
  5  7  1  0  0  0  0
  7  8  1  0  0  0  0
  7  9  1  0  0  0  0
  9 10  1  0  0  0  0
  9 11  1  0  0  0  0
  9 23  1  0  0  0  0
 11 12  1  0  0  0  0
 11 13  1  0  0  0  0
 11 14  1  0  0  0  0
 14 15  1  0  0  0  0
 14 21  2  0  0  0  0
 15 16  1  0  0  0  0
 15 17  2  0  0  0  0
 17 18  1  0  0  0  0
 17 19  1  0  0  0  0
 19 20  1  0  0  0  0
 19 21  1  0  0  0  0
 21 22  1  0  0  0  0
 23 24  2  0  0  0  0
 23 25  1  0  0  0  0
 25 26  1  0  0  0  0
 25 27  1  0  0  0  0
 27 28  1  0  0  0  0
 27 29  1  0  0  0  0
 27 30  1  0  0  0  0
M  CHG  1  15   1
M  END
$$$$

  -OEChem-04042216003D

 30 30  0     1  0  0  0  0  0999 V2000
   -3.1835   -3.8569    1.4295 H   0  0  0  0  0  0  0  0  0  0  0  0
   -3.1468   -3.0605    0.6803 C   0  0  0  0  0  0  0  0  0  0  0  0
   -3.9171   -2.3223    0.9157 H   0  0  0  0  0  0  0  0  0  0  0  0
   -3.3533   -3.4949   -0.3008 H   0  0  0  0  0  0  0  0  0  0  0  0
   -1.7783   -2.4072    0.6840 C   0  0  0  0  0  0  0  0  0  0  0  0
   -0.9202   -2.7842    1.4604 O   0  0  0  0  0  0  0  0  0  0  0  0
   -1.4910   -1.3803   -0.1981 N   0  0  0  0  0  0  0  0  0  0  0  0
   -2.2159   -1.1459   -0.8718 H   0  0  0  0  0  0  0  0  0  0  0  0
   -0.1569   -0.7540   -0.3171 C   0  0  1  0  0  0  0  0  0  0  0  0
    0.5660   -1.5411   -0.5641 H   0  0  0  0  0  0  0  0  0  0  0  0
   -0.1624    0.2984   -1.4436 C   0  0  0  0  0  0  0  0  0  0  0  0
   -0.6741   -0.1177   -2.3175 H   0  0  0  0  0  0  0  0  0  0  0  0
   -0.7207    1.1868   -1.1286 H   0  0  0  0  0  0  0  0  0  0  0  0
    1.2447    0.6904   -1.8429 C   0  0  0  0  0  0  0  0  0  0  0  0
    2.1095    1.5113   -1.1161 N   0  3  0  0  0  0  0  0  0  0  0  0
    1.9716    1.6716   -0.1084 H   0  0  0  0  0  0  0  0  0  0  0  0
    3.2424    1.6570   -1.7570 C   0  0  0  0  0  0  0  0  0  0  0  0
    4.1357    2.1560   -1.3766 H   0  0  0  0  0  0  0  0  0  0  0  0
    3.1108    1.0087   -2.9821 N   0  0  0  0  0  0  0  0  0  0  0  0
    3.8355    0.9445   -3.7034 H   0  0  0  0  0  0  0  0  0  0  0  0
    1.8637    0.3964   -3.0330 C   0  0  0  0  0  0  0  0  0  0  0  0
    1.4554   -0.1999   -3.8490 H   0  0  0  0  0  0  0  0  0  0  0  0
    0.3181   -0.1048    1.0088 C   0  0  0  0  0  0  0  0  0  0  0  0
    1.5159    0.0804    1.1946 O   0  0  0  0  0  0  0  0  0  0  0  0
   -0.5667    0.6676    1.7399 N   0  0  0  0  0  0  0  0  0  0  0  0
   -1.5486    0.4297    1.6231 H   0  0  0  0  0  0  0  0  0  0  0  0
   -0.1815    1.3468    2.9752 C   0  0  0  0  0  0  0  0  0  0  0  0
    0.5950    2.0943    2.7821 H   0  0  0  0  0  0  0  0  0  0  0  0
   -1.0455    1.8571    3.4131 H   0  0  0  0  0  0  0  0  0  0  0  0
    0.2005    0.6257    3.7064 H   0  0  0  0  0  0  0  0  0  0  0  0
  1  2  1  0  0  0  0
  2  3  1  0  0  0  0
  2  4  1  0  0  0  0
  2  5  1  0  0  0  0
  5  6  2  0  0  0  0
  5  7  1  0  0  0  0
  7  8  1  0  0  0  0
  7  9  1  0  0  0  0
  9 10  1  0  0  0  0
  9 11  1  0  0  0  0
  9 23  1  0  0  0  0
 11 12  1  0  0  0  0
 11 13  1  0  0  0  0
 11 14  1  0  0  0  0
 14 15  1  0  0  0  0
 14 21  2  0  0  0  0
 15 16  1  0  0  0  0
 15 17  2  0  0  0  0
 17 18  1  0  0  0  0
 17 19  1  0  0  0  0
 19 20  1  0  0  0  0
 19 21  1  0  0  0  0
 21 22  1  0  0  0  0
 23 24  2  0  0  0  0
 23 25  1  0  0  0  0
 25 26  1  0  0  0  0
 25 27  1  0  0  0  0
 27 28  1  0  0  0  0
 27 29  1  0  0  0  0
 27 30  1  0  0  0  0
M  CHG  1  15   1
M  END
$$$$

  -OEChem-04042216003D

 30 30  0     1  0  0  0  0  0999 V2000
   -3.1989   -3.8428    1.4267 H   0  0  0  0  0  0  0  0  0  0  0  0
   -3.1533   -3.0499    0.6742 C   0  0  0  0  0  0  0  0  0  0  0  0
   -3.9229   -2.3083    0.9007 H   0  0  0  0  0  0  0  0  0  0  0  0
   -3.3541   -3.4878   -0.3066 H   0  0  0  0  0  0  0  0  0  0  0  0
   -1.7822   -2.4022    0.6856 C   0  0  0  0  0  0  0  0  0  0  0  0
   -0.9290   -2.7887    1.4628 O   0  0  0  0  0  0  0  0  0  0  0  0
   -1.4841   -1.3747   -0.1930 N   0  0  0  0  0  0  0  0  0  0  0  0
   -2.2028   -1.1367   -0.8722 H   0  0  0  0  0  0  0  0  0  0  0  0
   -0.1458   -0.7543   -0.3006 C   0  0  1  0  0  0  0  0  0  0  0  0
    0.5763   -1.5439   -0.5419 H   0  0  0  0  0  0  0  0  0  0  0  0
   -0.1443    0.2908   -1.4373 C   0  0  0  0  0  0  0  0  0  0  0  0
   -0.6611   -0.1281   -2.3070 H   0  0  0  0  0  0  0  0  0  0  0  0
   -0.7033    1.1781   -1.1203 H   0  0  0  0  0  0  0  0  0  0  0  0
    1.2547    0.7026   -1.8552 C   0  0  0  0  0  0  0  0  0  0  0  0
    2.2340    1.2938   -1.0533 N   0  3  0  0  0  0  0  0  0  0  0  0
    2.1618    1.2922   -0.0236 H   0  0  0  0  0  0  0  0  0  0  0  0
    3.3235    1.5167   -1.7440 C   0  0  0  0  0  0  0  0  0  0  0  0
    4.2697    1.8911   -1.3488 H   0  0  0  0  0  0  0  0  0  0  0  0
    3.0584    1.1434   -3.0586 N   0  0  0  0  0  0  0  0  0  0  0  0
    3.7202    1.1994   -3.8387 H   0  0  0  0  0  0  0  0  0  0  0  0
    1.7692    0.6263   -3.1269 C   0  0  0  0  0  0  0  0  0  0  0  0
    1.2639    0.2362   -4.0104 H   0  0  0  0  0  0  0  0  0  0  0  0
    0.3137   -0.1121    1.0343 C   0  0  0  0  0  0  0  0  0  0  0  0
    1.5116    0.0298    1.2558 O   0  0  0  0  0  0  0  0  0  0  0  0
   -0.5723    0.6615    1.7620 N   0  0  0  0  0  0  0  0  0  0  0  0
   -1.5565    0.4509    1.6175 H   0  0  0  0  0  0  0  0  0  0  0  0
   -0.1996    1.3186    3.0129 C   0  0  0  0  0  0  0  0  0  0  0  0
    0.6109    2.0366    2.8487 H   0  0  0  0  0  0  0  0  0  0  0  0
   -1.0558    1.8601    3.4278 H   0  0  0  0  0  0  0  0  0  0  0  0
    0.1311    0.5790    3.7506 H   0  0  0  0  0  0  0  0  0  0  0  0
  1  2  1  0  0  0  0
  2  3  1  0  0  0  0
  2  4  1  0  0  0  0
  2  5  1  0  0  0  0
  5  6  2  0  0  0  0
  5  7  1  0  0  0  0
  7  8  1  0  0  0  0
  7  9  1  0  0  0  0
  9 10  1  0  0  0  0
  9 11  1  0  0  0  0
  9 23  1  0  0  0  0
 11 12  1  0  0  0  0
 11 13  1  0  0  0  0
 11 14  1  0  0  0  0
 14 15  1  0  0  0  0
 14 21  2  0  0  0  0
 15 16  1  0  0  0  0
 15 17  2  0  0  0  0
 17 18  1  0  0  0  0
 17 19  1  0  0  0  0
 19 20  1  0  0  0  0
 19 21  1  0  0  0  0
 21 22  1  0  0  0  0
 23 24  2  0  0  0  0
 23 25  1  0  0  0  0
 25 26  1  0  0  0  0
 25 27  1  0  0  0  0
 27 28  1  0  0  0  0
 27 29  1  0  0  0  0
 27 30  1  0  0  0  0
M  CHG  1  15   1
M  END
$$$$

  -OEChem-04042216003D

 30 30  0     1  0  0  0  0  0999 V2000
   -3.2191   -3.8349    1.4045 H   0  0  0  0  0  0  0  0  0  0  0  0
   -3.1643   -3.0368    0.6581 C   0  0  0  0  0  0  0  0  0  0  0  0
   -3.9273   -2.2896    0.8881 H   0  0  0  0  0  0  0  0  0  0  0  0
   -3.3665   -3.4657   -0.3262 H   0  0  0  0  0  0  0  0  0  0  0  0
   -1.7873   -2.4016    0.6782 C   0  0  0  0  0  0  0  0  0  0  0  0
   -0.9398   -2.8004    1.4556 O   0  0  0  0  0  0  0  0  0  0  0  0
   -1.4778   -1.3707   -0.1924 N   0  0  0  0  0  0  0  0  0  0  0  0
   -2.1957   -1.1143   -0.8656 H   0  0  0  0  0  0  0  0  0  0  0  0
   -0.1370   -0.7533   -0.2841 C   0  0  1  0  0  0  0  0  0  0  0  0
    0.5845   -1.5456   -0.5188 H   0  0  0  0  0  0  0  0  0  0  0  0
   -0.1284    0.2829   -1.4303 C   0  0  0  0  0  0  0  0  0  0  0  0
   -0.6446   -0.1410   -2.2978 H   0  0  0  0  0  0  0  0  0  0  0  0
   -0.6915    1.1680   -1.1141 H   0  0  0  0  0  0  0  0  0  0  0  0
    1.2629    0.7153   -1.8594 C   0  0  0  0  0  0  0  0  0  0  0  0
    2.3437    1.0637   -1.0447 N   0  3  0  0  0  0  0  0  0  0  0  0
    2.3189    0.9443   -0.0191 H   0  0  0  0  0  0  0  0  0  0  0  0
    3.3933    1.3689   -1.7645 C   0  0  0  0  0  0  0  0  0  0  0  0
    4.3816    1.6314   -1.3819 H   0  0  0  0  0  0  0  0  0  0  0  0
    3.0134    1.2677   -3.0996 N   0  0  0  0  0  0  0  0  0  0  0  0
    3.6201    1.4426   -3.9065 H   0  0  0  0  0  0  0  0  0  0  0  0
    1.6871    0.8526   -3.1594 C   0  0  0  0  0  0  0  0  0  0  0  0
    1.0973    0.6687   -4.0576 H   0  0  0  0  0  0  0  0  0  0  0  0
    0.3118   -0.1188    1.0571 C   0  0  0  0  0  0  0  0  0  0  0  0
    1.5089   -0.0231    1.3070 O   0  0  0  0  0  0  0  0  0  0  0  0
   -0.5738    0.6551    1.7841 N   0  0  0  0  0  0  0  0  0  0  0  0
   -1.5594    0.4694    1.6173 H   0  0  0  0  0  0  0  0  0  0  0  0
   -0.2083    1.2902    3.0482 C   0  0  0  0  0  0  0  0  0  0  0  0
    0.6121    2.0009    2.9029 H   0  0  0  0  0  0  0  0  0  0  0  0
   -1.0632    1.8357    3.4604 H   0  0  0  0  0  0  0  0  0  0  0  0
    0.1058    0.5367    3.7792 H   0  0  0  0  0  0  0  0  0  0  0  0
  1  2  1  0  0  0  0
  2  3  1  0  0  0  0
  2  4  1  0  0  0  0
  2  5  1  0  0  0  0
  5  6  2  0  0  0  0
  5  7  1  0  0  0  0
  7  8  1  0  0  0  0
  7  9  1  0  0  0  0
  9 10  1  0  0  0  0
  9 11  1  0  0  0  0
  9 23  1  0  0  0  0
 11 12  1  0  0  0  0
 11 13  1  0  0  0  0
 11 14  1  0  0  0  0
 14 15  1  0  0  0  0
 14 21  2  0  0  0  0
 15 16  1  0  0  0  0
 15 17  2  0  0  0  0
 17 18  1  0  0  0  0
 17 19  1  0  0  0  0
 19 20  1  0  0  0  0
 19 21  1  0  0  0  0
 21 22  1  0  0  0  0
 23 24  2  0  0  0  0
 23 25  1  0  0  0  0
 25 26  1  0  0  0  0
 25 27  1  0  0  0  0
 27 28  1  0  0  0  0
 27 29  1  0  0  0  0
 27 30  1  0  0  0  0
M  CHG  1  15   1
M  END
$$$$

  -OEChem-04042216003D

 30 30  0     1  0  0  0  0  0999 V2000
   -3.2332   -3.8374    1.3822 H   0  0  0  0  0  0  0  0  0  0  0  0
   -3.1759   -3.0314    0.6447 C   0  0  0  0  0  0  0  0  0  0  0  0
   -3.9344   -2.2828    0.8852 H   0  0  0  0  0  0  0  0  0  0  0  0
   -3.3829   -3.4484   -0.3438 H   0  0  0  0  0  0  0  0  0  0  0  0
   -1.7954   -2.4039    0.6676 C   0  0  0  0  0  0  0  0  0  0  0  0
   -0.9490   -2.8127    1.4410 O   0  0  0  0  0  0  0  0  0  0  0  0
   -1.4809   -1.3691   -0.1964 N   0  0  0  0  0  0  0  0  0  0  0  0
   -2.1987   -1.1009   -0.8650 H   0  0  0  0  0  0  0  0  0  0  0  0
   -0.1399   -0.7520   -0.2761 C   0  0  1  0  0  0  0  0  0  0  0  0
    0.5790   -1.5479   -0.5061 H   0  0  0  0  0  0  0  0  0  0  0  0
   -0.1219    0.2760   -1.4300 C   0  0  0  0  0  0  0  0  0  0  0  0
   -0.6305   -0.1544   -2.2990 H   0  0  0  0  0  0  0  0  0  0  0  0
   -0.6908    1.1600   -1.1208 H   0  0  0  0  0  0  0  0  0  0  0  0
    1.2675    0.7181   -1.8578 C   0  0  0  0  0  0  0  0  0  0  0  0
    2.4253    0.8118   -1.0798 N   0  3  0  0  0  0  0  0  0  0  0  0
    2.4385    0.5695   -0.0757 H   0  0  0  0  0  0  0  0  0  0  0  0
    3.4443    1.2086   -1.7986 C   0  0  0  0  0  0  0  0  0  0  0  0
    4.4652    1.3573   -1.4413 H   0  0  0  0  0  0  0  0  0  0  0  0
    2.9761    1.3964   -3.0957 N   0  0  0  0  0  0  0  0  0  0  0  0
    3.5396    1.7066   -3.8933 H   0  0  0  0  0  0  0  0  0  0  0  0
    1.6206    1.0852   -3.1344 C   0  0  0  0  0  0  0  0  0  0  0  0
    0.9639    1.1221   -4.0039 H   0  0  0  0  0  0  0  0  0  0  0  0
    0.3087   -0.1213    1.0660 C   0  0  0  0  0  0  0  0  0  0  0  0
    1.5056   -0.0691    1.3298 O   0  0  0  0  0  0  0  0  0  0  0  0
   -0.5693    0.6547    1.7994 N   0  0  0  0  0  0  0  0  0  0  0  0
   -1.5575    0.4939    1.6226 H   0  0  0  0  0  0  0  0  0  0  0  0
   -0.1965    1.2750    3.0685 C   0  0  0  0  0  0  0  0  0  0  0  0
    0.6284    1.9814    2.9267 H   0  0  0  0  0  0  0  0  0  0  0  0
   -1.0462    1.8226    3.4885 H   0  0  0  0  0  0  0  0  0  0  0  0
    0.1149    0.5127    3.7916 H   0  0  0  0  0  0  0  0  0  0  0  0
  1  2  1  0  0  0  0
  2  3  1  0  0  0  0
  2  4  1  0  0  0  0
  2  5  1  0  0  0  0
  5  6  2  0  0  0  0
  5  7  1  0  0  0  0
  7  8  1  0  0  0  0
  7  9  1  0  0  0  0
  9 10  1  0  0  0  0
  9 11  1  0  0  0  0
  9 23  1  0  0  0  0
 11 12  1  0  0  0  0
 11 13  1  0  0  0  0
 11 14  1  0  0  0  0
 14 15  1  0  0  0  0
 14 21  2  0  0  0  0
 15 16  1  0  0  0  0
 15 17  2  0  0  0  0
 17 18  1  0  0  0  0
 17 19  1  0  0  0  0
 19 20  1  0  0  0  0
 19 21  1  0  0  0  0
 21 22  1  0  0  0  0
 23 24  2  0  0  0  0
 23 25  1  0  0  0  0
 25 26  1  0  0  0  0
 25 27  1  0  0  0  0
 27 28  1  0  0  0  0
 27 29  1  0  0  0  0
 27 30  1  0  0  0  0
M  CHG  1  15   1
M  END
$$$$

  -OEChem-04042216003D

 30 30  0     1  0  0  0  0  0999 V2000
   -3.2317   -3.8445    1.3746 H   0  0  0  0  0  0  0  0  0  0  0  0
   -3.1807   -3.0372    0.6378 C   0  0  0  0  0  0  0  0  0  0  0  0
   -3.9388   -2.2902    0.8845 H   0  0  0  0  0  0  0  0  0  0  0  0
   -3.3934   -3.4525   -0.3502 H   0  0  0  0  0  0  0  0  0  0  0  0
   -1.8012   -2.4075    0.6527 C   0  0  0  0  0  0  0  0  0  0  0  0
   -0.9461   -2.8213    1.4140 O   0  0  0  0  0  0  0  0  0  0  0  0
   -1.4949   -1.3649   -0.2047 N   0  0  0  0  0  0  0  0  0  0  0  0
   -2.2196   -1.0854   -0.8614 H   0  0  0  0  0  0  0  0  0  0  0  0
   -0.1570   -0.7417   -0.2804 C   0  0  1  0  0  0  0  0  0  0  0  0
    0.5571   -1.5420   -0.5103 H   0  0  0  0  0  0  0  0  0  0  0  0
   -0.1308    0.2766   -1.4414 C   0  0  0  0  0  0  0  0  0  0  0  0
   -0.6242   -0.1641   -2.3142 H   0  0  0  0  0  0  0  0  0  0  0  0
   -0.7081    1.1599   -1.1466 H   0  0  0  0  0  0  0  0  0  0  0  0
    1.2617    0.7199   -1.8561 C   0  0  0  0  0  0  0  0  0  0  0  0
    2.4650    0.5607   -1.1612 N   0  3  0  0  0  0  0  0  0  0  0  0
    2.4999    0.1984   -0.1943 H   0  0  0  0  0  0  0  0  0  0  0  0
    3.4693    1.0468   -1.8451 C   0  0  0  0  0  0  0  0  0  0  0  0
    4.5113    1.0823   -1.5210 H   0  0  0  0  0  0  0  0  0  0  0  0
    2.9504    1.5188   -3.0475 N   0  0  0  0  0  0  0  0  0  0  0  0
    3.4922    1.9565   -3.7990 H   0  0  0  0  0  0  0  0  0  0  0  0
    1.5741    1.3151   -3.0545 C   0  0  0  0  0  0  0  0  0  0  0  0
    0.8766    1.5717   -3.8520 H   0  0  0  0  0  0  0  0  0  0  0  0
    0.3073   -0.1140    1.0561 C   0  0  0  0  0  0  0  0  0  0  0  0
    1.5074   -0.0930    1.3103 O   0  0  0  0  0  0  0  0  0  0  0  0
   -0.5565    0.6612    1.8067 N   0  0  0  0  0  0  0  0  0  0  0  0
   -1.5482    0.5196    1.6335 H   0  0  0  0  0  0  0  0  0  0  0  0
   -0.1650    1.2609    3.0798 C   0  0  0  0  0  0  0  0  0  0  0  0
    0.6909    1.9309    2.9455 H   0  0  0  0  0  0  0  0  0  0  0  0
   -0.9924    1.8439    3.4967 H   0  0  0  0  0  0  0  0  0  0  0  0
    0.1086    0.4836    3.8019 H   0  0  0  0  0  0  0  0  0  0  0  0
  1  2  1  0  0  0  0
  2  3  1  0  0  0  0
  2  4  1  0  0  0  0
  2  5  1  0  0  0  0
  5  6  2  0  0  0  0
  5  7  1  0  0  0  0
  7  8  1  0  0  0  0
  7  9  1  0  0  0  0
  9 10  1  0  0  0  0
  9 11  1  0  0  0  0
  9 23  1  0  0  0  0
 11 12  1  0  0  0  0
 11 13  1  0  0  0  0
 11 14  1  0  0  0  0
 14 15  1  0  0  0  0
 14 21  2  0  0  0  0
 15 16  1  0  0  0  0
 15 17  2  0  0  0  0
 17 18  1  0  0  0  0
 17 19  1  0  0  0  0
 19 20  1  0  0  0  0
 19 21  1  0  0  0  0
 21 22  1  0  0  0  0
 23 24  2  0  0  0  0
 23 25  1  0  0  0  0
 25 26  1  0  0  0  0
 25 27  1  0  0  0  0
 27 28  1  0  0  0  0
 27 29  1  0  0  0  0
 27 30  1  0  0  0  0
M  CHG  1  15   1
M  END
$$$$

  -OEChem-04042216003D

 30 30  0     1  0  0  0  0  0999 V2000
   -3.2267   -3.8742    1.3487 H   0  0  0  0  0  0  0  0  0  0  0  0
   -3.1903   -3.0514    0.6285 C   0  0  0  0  0  0  0  0  0  0  0  0
   -3.9457   -2.3116    0.9037 H   0  0  0  0  0  0  0  0  0  0  0  0
   -3.4187   -3.4464   -0.3644 H   0  0  0  0  0  0  0  0  0  0  0  0
   -1.8121   -2.4188    0.6337 C   0  0  0  0  0  0  0  0  0  0  0  0
   -0.9463   -2.8383    1.3798 O   0  0  0  0  0  0  0  0  0  0  0  0
   -1.5183   -1.3662   -0.2155 N   0  0  0  0  0  0  0  0  0  0  0  0
   -2.2536   -1.0738   -0.8546 H   0  0  0  0  0  0  0  0  0  0  0  0
   -0.1858   -0.7336   -0.2905 C   0  0  1  0  0  0  0  0  0  0  0  0
    0.5206   -1.5402   -0.5204 H   0  0  0  0  0  0  0  0  0  0  0  0
   -0.1507    0.2698   -1.4627 C   0  0  0  0  0  0  0  0  0  0  0  0
   -0.6218   -0.1901   -2.3377 H   0  0  0  0  0  0  0  0  0  0  0  0
   -0.7409    1.1527   -1.1935 H   0  0  0  0  0  0  0  0  0  0  0  0
    1.2476    0.7102   -1.8569 C   0  0  0  0  0  0  0  0  0  0  0  0
    2.4631    0.3178   -1.2865 N   0  3  0  0  0  0  0  0  0  0  0  0
    2.5057   -0.1630   -0.3736 H   0  0  0  0  0  0  0  0  0  0  0  0
    3.4678    0.8942   -1.8964 C   0  0  0  0  0  0  0  0  0  0  0  0
    4.5192    0.8239   -1.6105 H   0  0  0  0  0  0  0  0  0  0  0  0
    2.9362    1.6404   -2.9443 N   0  0  0  0  0  0  0  0  0  0  0  0
    3.4758    2.2083   -3.6047 H   0  0  0  0  0  0  0  0  0  0  0  0
    1.5497    1.5324   -2.9150 C   0  0  0  0  0  0  0  0  0  0  0  0
    0.8391    2.0034   -3.5945 H   0  0  0  0  0  0  0  0  0  0  0  0
    0.3077   -0.1068    1.0331 C   0  0  0  0  0  0  0  0  0  0  0  0
    1.5143   -0.1067    1.2569 O   0  0  0  0  0  0  0  0  0  0  0  0
   -0.5340    0.6679    1.8083 N   0  0  0  0  0  0  0  0  0  0  0  0
   -1.5306    0.5346    1.6590 H   0  0  0  0  0  0  0  0  0  0  0  0
   -0.1051    1.2694    3.0682 C   0  0  0  0  0  0  0  0  0  0  0  0
    0.7397    1.9473    2.9061 H   0  0  0  0  0  0  0  0  0  0  0  0
   -0.9233    1.8443    3.5136 H   0  0  0  0  0  0  0  0  0  0  0  0
    0.1997    0.4935    3.7790 H   0  0  0  0  0  0  0  0  0  0  0  0
  1  2  1  0  0  0  0
  2  3  1  0  0  0  0
  2  4  1  0  0  0  0
  2  5  1  0  0  0  0
  5  6  2  0  0  0  0
  5  7  1  0  0  0  0
  7  8  1  0  0  0  0
  7  9  1  0  0  0  0
  9 10  1  0  0  0  0
  9 11  1  0  0  0  0
  9 23  1  0  0  0  0
 11 12  1  0  0  0  0
 11 13  1  0  0  0  0
 11 14  1  0  0  0  0
 14 15  1  0  0  0  0
 14 21  2  0  0  0  0
 15 16  1  0  0  0  0
 15 17  2  0  0  0  0
 17 18  1  0  0  0  0
 17 19  1  0  0  0  0
 19 20  1  0  0  0  0
 19 21  1  0  0  0  0
 21 22  1  0  0  0  0
 23 24  2  0  0  0  0
 23 25  1  0  0  0  0
 25 26  1  0  0  0  0
 25 27  1  0  0  0  0
 27 28  1  0  0  0  0
 27 29  1  0  0  0  0
 27 30  1  0  0  0  0
M  CHG  1  15   1
M  END
$$$$

  -OEChem-04042216003D

 30 30  0     1  0  0  0  0  0999 V2000
   -3.2154   -3.8965    1.3421 H   0  0  0  0  0  0  0  0  0  0  0  0
   -3.1941   -3.0661    0.6303 C   0  0  0  0  0  0  0  0  0  0  0  0
   -3.9413   -2.3280    0.9310 H   0  0  0  0  0  0  0  0  0  0  0  0
   -3.4465   -3.4494   -0.3612 H   0  0  0  0  0  0  0  0  0  0  0  0
   -1.8153   -2.4352    0.6096 C   0  0  0  0  0  0  0  0  0  0  0  0
   -0.9294   -2.8667    1.3251 O   0  0  0  0  0  0  0  0  0  0  0  0
   -1.5410   -1.3715   -0.2317 N   0  0  0  0  0  0  0  0  0  0  0  0
   -2.2971   -1.0528   -0.8329 H   0  0  0  0  0  0  0  0  0  0  0  0
   -0.2168   -0.7243   -0.3091 C   0  0  1  0  0  0  0  0  0  0  0  0
    0.4838   -1.5362   -0.5369 H   0  0  0  0  0  0  0  0  0  0  0  0
   -0.1750    0.2626   -1.4926 C   0  0  0  0  0  0  0  0  0  0  0  0
   -0.6212   -0.2191   -2.3693 H   0  0  0  0  0  0  0  0  0  0  0  0
   -0.7800    1.1437   -1.2528 H   0  0  0  0  0  0  0  0  0  0  0  0
    1.2304    0.6987   -1.8598 C   0  0  0  0  0  0  0  0  0  0  0  0
    2.4365    0.1116   -1.4617 N   0  3  0  0  0  0  0  0  0  0  0  0
    2.4866   -0.5194   -0.6493 H   0  0  0  0  0  0  0  0  0  0  0  0
    3.4508    0.7659   -1.9696 C   0  0  0  0  0  0  0  0  0  0  0  0
    4.5050    0.5884   -1.7475 H   0  0  0  0  0  0  0  0  0  0  0  0
    2.9305    1.7598   -2.7937 N   0  0  0  0  0  0  0  0  0  0  0  0
    3.4804    2.4408   -3.3261 H   0  0  0  0  0  0  0  0  0  0  0  0
    1.5429    1.7277   -2.7134 C   0  0  0  0  0  0  0  0  0  0  0  0
    0.8387    2.3857   -3.2227 H   0  0  0  0  0  0  0  0  0  0  0  0
    0.3071   -0.0959    0.9994 C   0  0  0  0  0  0  0  0  0  0  0  0
    1.5196   -0.1026    1.1871 O   0  0  0  0  0  0  0  0  0  0  0  0
   -0.5143    0.6751    1.7993 N   0  0  0  0  0  0  0  0  0  0  0  0
   -1.5148    0.5463    1.6747 H   0  0  0  0  0  0  0  0  0  0  0  0
   -0.0496    1.2804    3.0442 C   0  0  0  0  0  0  0  0  0  0  0  0
    0.7976    1.9490    2.8565 H   0  0  0  0  0  0  0  0  0  0  0  0
   -0.8511    1.8663    3.5054 H   0  0  0  0  0  0  0  0  0  0  0  0
    0.2654    0.5064    3.7528 H   0  0  0  0  0  0  0  0  0  0  0  0
  1  2  1  0  0  0  0
  2  3  1  0  0  0  0
  2  4  1  0  0  0  0
  2  5  1  0  0  0  0
  5  6  2  0  0  0  0
  5  7  1  0  0  0  0
  7  8  1  0  0  0  0
  7  9  1  0  0  0  0
  9 10  1  0  0  0  0
  9 11  1  0  0  0  0
  9 23  1  0  0  0  0
 11 12  1  0  0  0  0
 11 13  1  0  0  0  0
 11 14  1  0  0  0  0
 14 15  1  0  0  0  0
 14 21  2  0  0  0  0
 15 16  1  0  0  0  0
 15 17  2  0  0  0  0
 17 18  1  0  0  0  0
 17 19  1  0  0  0  0
 19 20  1  0  0  0  0
 19 21  1  0  0  0  0
 21 22  1  0  0  0  0
 23 24  2  0  0  0  0
 23 25  1  0  0  0  0
 25 26  1  0  0  0  0
 25 27  1  0  0  0  0
 27 28  1  0  0  0  0
 27 29  1  0  0  0  0
 27 30  1  0  0  0  0
M  CHG  1  15   1
M  END
$$$$

  -OEChem-04042216003D

 30 30  0     1  0  0  0  0  0999 V2000
   -3.1960   -3.8980    1.3748 H   0  0  0  0  0  0  0  0  0  0  0  0
   -3.1883   -3.0688    0.6609 C   0  0  0  0  0  0  0  0  0  0  0  0
   -3.9220   -2.3252    0.9807 H   0  0  0  0  0  0  0  0  0  0  0  0
   -3.4700   -3.4523   -0.3227 H   0  0  0  0  0  0  0  0  0  0  0  0
   -1.8062   -2.4475    0.6014 C   0  0  0  0  0  0  0  0  0  0  0  0
   -0.9027   -2.8876    1.2892 O   0  0  0  0  0  0  0  0  0  0  0  0
   -1.5480   -1.3843   -0.2456 N   0  0  0  0  0  0  0  0  0  0  0  0
   -2.3231   -1.0459   -0.8110 H   0  0  0  0  0  0  0  0  0  0  0  0
   -0.2292   -0.7280   -0.3372 C   0  0  1  0  0  0  0  0  0  0  0  0
    0.4726   -1.5378   -0.5647 H   0  0  0  0  0  0  0  0  0  0  0  0
   -0.1957    0.2587   -1.5188 C   0  0  0  0  0  0  0  0  0  0  0  0
   -0.6377   -0.2265   -2.3955 H   0  0  0  0  0  0  0  0  0  0  0  0
   -0.8044    1.1384   -1.2826 H   0  0  0  0  0  0  0  0  0  0  0  0
    1.2143    0.6862   -1.8764 C   0  0  0  0  0  0  0  0  0  0  0  0
    2.3928   -0.0529   -1.7240 N   0  3  0  0  0  0  0  0  0  0  0  0
    2.4344   -0.9104   -1.1637 H   0  0  0  0  0  0  0  0  0  0  0  0
    3.4278    0.6601   -2.0932 C   0  0  0  0  0  0  0  0  0  0  0  0
    4.4758    0.3692   -1.9999 H   0  0  0  0  0  0  0  0  0  0  0  0
    2.9442    1.8735   -2.5742 N   0  0  0  0  0  0  0  0  0  0  0  0
    3.5181    2.6482   -2.9211 H   0  0  0  0  0  0  0  0  0  0  0  0
    1.5626    1.8965   -2.4236 C   0  0  0  0  0  0  0  0  0  0  0  0
    0.8870    2.7144   -2.6743 H   0  0  0  0  0  0  0  0  0  0  0  0
    0.3083   -0.0902    0.9601 C   0  0  0  0  0  0  0  0  0  0  0  0
    1.5227   -0.0744    1.1253 O   0  0  0  0  0  0  0  0  0  0  0  0
   -0.5104    0.6794    1.7647 N   0  0  0  0  0  0  0  0  0  0  0  0
   -1.5107    0.5355    1.6583 H   0  0  0  0  0  0  0  0  0  0  0  0
   -0.0332    1.2992    2.9977 C   0  0  0  0  0  0  0  0  0  0  0  0
    0.8257    1.9487    2.7974 H   0  0  0  0  0  0  0  0  0  0  0  0
   -0.8233    1.9081    3.4484 H   0  0  0  0  0  0  0  0  0  0  0  0
    0.2686    0.5325    3.7197 H   0  0  0  0  0  0  0  0  0  0  0  0
  1  2  1  0  0  0  0
  2  3  1  0  0  0  0
  2  4  1  0  0  0  0
  2  5  1  0  0  0  0
  5  6  2  0  0  0  0
  5  7  1  0  0  0  0
  7  8  1  0  0  0  0
  7  9  1  0  0  0  0
  9 10  1  0  0  0  0
  9 11  1  0  0  0  0
  9 23  1  0  0  0  0
 11 12  1  0  0  0  0
 11 13  1  0  0  0  0
 11 14  1  0  0  0  0
 14 15  1  0  0  0  0
 14 21  2  0  0  0  0
 15 16  1  0  0  0  0
 15 17  2  0  0  0  0
 17 18  1  0  0  0  0
 17 19  1  0  0  0  0
 19 20  1  0  0  0  0
 19 21  1  0  0  0  0
 21 22  1  0  0  0  0
 23 24  2  0  0  0  0
 23 25  1  0  0  0  0
 25 26  1  0  0  0  0
 25 27  1  0  0  0  0
 27 28  1  0  0  0  0
 27 29  1  0  0  0  0
 27 30  1  0  0  0  0
M  CHG  1  15   1
M  END
$$$$

  -OEChem-04042216003D

 30 30  0     1  0  0  0  0  0999 V2000
   -3.1712   -3.8934    1.4034 H   0  0  0  0  0  0  0  0  0  0  0  0
   -3.1731   -3.0663    0.6874 C   0  0  0  0  0  0  0  0  0  0  0  0
   -3.8951   -2.3172    1.0207 H   0  0  0  0  0  0  0  0  0  0  0  0
   -3.4783   -3.4504   -0.2888 H   0  0  0  0  0  0  0  0  0  0  0  0
   -1.7881   -2.4550    0.5973 C   0  0  0  0  0  0  0  0  0  0  0  0
   -0.8742   -2.8983    1.2687 O   0  0  0  0  0  0  0  0  0  0  0  0
   -1.5403   -1.3961   -0.2580 N   0  0  0  0  0  0  0  0  0  0  0  0
   -2.3261   -1.0515   -0.8043 H   0  0  0  0  0  0  0  0  0  0  0  0
   -0.2252   -0.7338   -0.3637 C   0  0  1  0  0  0  0  0  0  0  0  0
    0.4858   -1.5337   -0.5969 H   0  0  0  0  0  0  0  0  0  0  0  0
   -0.2157    0.2680   -1.5325 C   0  0  0  0  0  0  0  0  0  0  0  0
   -0.6712   -0.1992   -2.4120 H   0  0  0  0  0  0  0  0  0  0  0  0
   -0.8173    1.1456   -1.2723 H   0  0  0  0  0  0  0  0  0  0  0  0
    1.1937    0.6882   -1.8906 C   0  0  0  0  0  0  0  0  0  0  0  0
    2.3130   -0.1382   -2.0319 N   0  3  0  0  0  0  0  0  0  0  0  0
    2.2962   -1.1395   -1.8210 H   0  0  0  0  0  0  0  0  0  0  0  0
    3.3850    0.5816   -2.2549 C   0  0  0  0  0  0  0  0  0  0  0  0
    4.4074    0.2085   -2.3387 H   0  0  0  0  0  0  0  0  0  0  0  0
    2.9824    1.9124   -2.3228 N   0  0  0  0  0  0  0  0  0  0  0  0
    3.6034    2.7165   -2.4537 H   0  0  0  0  0  0  0  0  0  0  0  0
    1.6154    1.9806   -2.0825 C   0  0  0  0  0  0  0  0  0  0  0  0
    1.0023    2.8797   -2.0220 H   0  0  0  0  0  0  0  0  0  0  0  0
    0.3122   -0.0869    0.9308 C   0  0  0  0  0  0  0  0  0  0  0  0
    1.5262   -0.0270    1.0833 O   0  0  0  0  0  0  0  0  0  0  0  0
   -0.5155    0.6796    1.7304 N   0  0  0  0  0  0  0  0  0  0  0  0
   -1.5128    0.5083    1.6391 H   0  0  0  0  0  0  0  0  0  0  0  0
   -0.0399    1.3292    2.9489 C   0  0  0  0  0  0  0  0  0  0  0  0
    0.7685    2.0325    2.7220 H   0  0  0  0  0  0  0  0  0  0  0  0
   -0.8529    1.8853    3.4262 H   0  0  0  0  0  0  0  0  0  0  0  0
    0.3343    0.5839    3.6595 H   0  0  0  0  0  0  0  0  0  0  0  0
  1  2  1  0  0  0  0
  2  3  1  0  0  0  0
  2  4  1  0  0  0  0
  2  5  1  0  0  0  0
  5  6  2  0  0  0  0
  5  7  1  0  0  0  0
  7  8  1  0  0  0  0
  7  9  1  0  0  0  0
  9 10  1  0  0  0  0
  9 11  1  0  0  0  0
  9 23  1  0  0  0  0
 11 12  1  0  0  0  0
 11 13  1  0  0  0  0
 11 14  1  0  0  0  0
 14 15  1  0  0  0  0
 14 21  2  0  0  0  0
 15 16  1  0  0  0  0
 15 17  2  0  0  0  0
 17 18  1  0  0  0  0
 17 19  1  0  0  0  0
 19 20  1  0  0  0  0
 19 21  1  0  0  0  0
 21 22  1  0  0  0  0
 23 24  2  0  0  0  0
 23 25  1  0  0  0  0
 25 26  1  0  0  0  0
 25 27  1  0  0  0  0
 27 28  1  0  0  0  0
 27 29  1  0  0  0  0
 27 30  1  0  0  0  0
M  CHG  1  15   1
M  END
$$$$

  -OEChem-04042216003D

 30 30  0     1  0  0  0  0  0999 V2000
   -3.1439   -3.8953    1.4074 H   0  0  0  0  0  0  0  0  0  0  0  0
   -3.1515   -3.0668    0.6929 C   0  0  0  0  0  0  0  0  0  0  0  0
   -3.8752   -2.3211    1.0302 H   0  0  0  0  0  0  0  0  0  0  0  0
   -3.4588   -3.4504   -0.2829 H   0  0  0  0  0  0  0  0  0  0  0  0
   -1.7696   -2.4492    0.5992 C   0  0  0  0  0  0  0  0  0  0  0  0
   -0.8524   -2.8887    1.2681 O   0  0  0  0  0  0  0  0  0  0  0  0
   -1.5291   -1.3908   -0.2587 N   0  0  0  0  0  0  0  0  0  0  0  0
   -2.3191   -1.0488   -0.8006 H   0  0  0  0  0  0  0  0  0  0  0  0
   -0.2167   -0.7239   -0.3733 C   0  0  1  0  0  0  0  0  0  0  0  0
    0.5041   -1.5126   -0.6158 H   0  0  0  0  0  0  0  0  0  0  0  0
   -0.2275    0.2910   -1.5301 C   0  0  0  0  0  0  0  0  0  0  0  0
   -0.7006   -0.1549   -2.4111 H   0  0  0  0  0  0  0  0  0  0  0  0
   -0.8182    1.1681   -1.2442 H   0  0  0  0  0  0  0  0  0  0  0  0
    1.1819    0.7051   -1.8884 C   0  0  0  0  0  0  0  0  0  0  0  0
    2.2156   -0.1277   -2.3255 N   0  3  0  0  0  0  0  0  0  0  0  0
    2.1170   -1.1423   -2.4135 H   0  0  0  0  0  0  0  0  0  0  0  0
    3.3262    0.5567   -2.4544 C   0  0  0  0  0  0  0  0  0  0  0  0
    4.3043    0.1582   -2.7306 H   0  0  0  0  0  0  0  0  0  0  0  0
    3.0339    1.8817   -2.1422 N   0  0  0  0  0  0  0  0  0  0  0  0
    3.7107    2.6500   -2.1101 H   0  0  0  0  0  0  0  0  0  0  0  0
    1.6956    1.9736   -1.7810 C   0  0  0  0  0  0  0  0  0  0  0  0
    1.1665    2.8615   -1.4354 H   0  0  0  0  0  0  0  0  0  0  0  0
    0.3141   -0.0769    0.9255 C   0  0  0  0  0  0  0  0  0  0  0  0
    1.5258    0.0140    1.0778 O   0  0  0  0  0  0  0  0  0  0  0  0
   -0.5257    0.6814    1.7211 N   0  0  0  0  0  0  0  0  0  0  0  0
   -1.5192    0.4871    1.6331 H   0  0  0  0  0  0  0  0  0  0  0  0
   -0.0626    1.3334    2.9435 C   0  0  0  0  0  0  0  0  0  0  0  0
    0.7497    2.0348    2.7241 H   0  0  0  0  0  0  0  0  0  0  0  0
   -0.8795    1.8927    3.4104 H   0  0  0  0  0  0  0  0  0  0  0  0
    0.3017    0.5890    3.6602 H   0  0  0  0  0  0  0  0  0  0  0  0
  1  2  1  0  0  0  0
  2  3  1  0  0  0  0
  2  4  1  0  0  0  0
  2  5  1  0  0  0  0
  5  6  2  0  0  0  0
  5  7  1  0  0  0  0
  7  8  1  0  0  0  0
  7  9  1  0  0  0  0
  9 10  1  0  0  0  0
  9 11  1  0  0  0  0
  9 23  1  0  0  0  0
 11 12  1  0  0  0  0
 11 13  1  0  0  0  0
 11 14  1  0  0  0  0
 14 15  1  0  0  0  0
 14 21  2  0  0  0  0
 15 16  1  0  0  0  0
 15 17  2  0  0  0  0
 17 18  1  0  0  0  0
 17 19  1  0  0  0  0
 19 20  1  0  0  0  0
 19 21  1  0  0  0  0
 21 22  1  0  0  0  0
 23 24  2  0  0  0  0
 23 25  1  0  0  0  0
 25 26  1  0  0  0  0
 25 27  1  0  0  0  0
 27 28  1  0  0  0  0
 27 29  1  0  0  0  0
 27 30  1  0  0  0  0
M  CHG  1  15   1
M  END
$$$$

  -OEChem-04042216003D

 30 30  0     1  0  0  0  0  0999 V2000
   -3.1400   -3.8796    1.4180 H   0  0  0  0  0  0  0  0  0  0  0  0
   -3.1432   -3.0567    0.6970 C   0  0  0  0  0  0  0  0  0  0  0  0
   -3.8686   -2.3082    1.0242 H   0  0  0  0  0  0  0  0  0  0  0  0
   -3.4451   -3.4476   -0.2776 H   0  0  0  0  0  0  0  0  0  0  0  0
   -1.7607   -2.4400    0.6066 C   0  0  0  0  0  0  0  0  0  0  0  0
   -0.8481   -2.8761    1.2838 O   0  0  0  0  0  0  0  0  0  0  0  0
   -1.5174   -1.3840   -0.2536 N   0  0  0  0  0  0  0  0  0  0  0  0
   -2.3053   -1.0467   -0.8014 H   0  0  0  0  0  0  0  0  0  0  0  0
   -0.2039   -0.7185   -0.3708 C   0  0  1  0  0  0  0  0  0  0  0  0
    0.5231   -1.5007   -0.6188 H   0  0  0  0  0  0  0  0  0  0  0  0
   -0.2251    0.3028   -1.5220 C   0  0  0  0  0  0  0  0  0  0  0  0
   -0.7115   -0.1299   -2.4022 H   0  0  0  0  0  0  0  0  0  0  0  0
   -0.8077    1.1800   -1.2200 H   0  0  0  0  0  0  0  0  0  0  0  0
    1.1825    0.7150   -1.8855 C   0  0  0  0  0  0  0  0  0  0  0  0
    2.1189   -0.0382   -2.5977 N   0  3  0  0  0  0  0  0  0  0  0  0
    1.9359   -0.9876   -2.9322 H   0  0  0  0  0  0  0  0  0  0  0  0
    3.2621    0.6011   -2.6597 C   0  0  0  0  0  0  0  0  0  0  0  0
    4.1854    0.2368   -3.1138 H   0  0  0  0  0  0  0  0  0  0  0  0
    3.0887    1.8228   -2.0141 N   0  0  0  0  0  0  0  0  0  0  0  0
    3.8195    2.5222   -1.8523 H   0  0  0  0  0  0  0  0  0  0  0  0
    1.7891    1.8938   -1.5294 C   0  0  0  0  0  0  0  0  0  0  0  0
    1.3502    2.6947   -0.9343 H   0  0  0  0  0  0  0  0  0  0  0  0
    0.3168   -0.0726    0.9336 C   0  0  0  0  0  0  0  0  0  0  0  0
    1.5258    0.0294    1.0979 O   0  0  0  0  0  0  0  0  0  0  0  0
   -0.5328    0.6826    1.7218 N   0  0  0  0  0  0  0  0  0  0  0  0
   -1.5242    0.4826    1.6233 H   0  0  0  0  0  0  0  0  0  0  0  0
   -0.0868    1.3205    2.9580 C   0  0  0  0  0  0  0  0  0  0  0  0
    0.7278    2.0249    2.7586 H   0  0  0  0  0  0  0  0  0  0  0  0
   -0.9110    1.8728    3.4204 H   0  0  0  0  0  0  0  0  0  0  0  0
    0.2684    0.5681    3.6710 H   0  0  0  0  0  0  0  0  0  0  0  0
  1  2  1  0  0  0  0
  2  3  1  0  0  0  0
  2  4  1  0  0  0  0
  2  5  1  0  0  0  0
  5  6  2  0  0  0  0
  5  7  1  0  0  0  0
  7  8  1  0  0  0  0
  7  9  1  0  0  0  0
  9 10  1  0  0  0  0
  9 11  1  0  0  0  0
  9 23  1  0  0  0  0
 11 12  1  0  0  0  0
 11 13  1  0  0  0  0
 11 14  1  0  0  0  0
 14 15  1  0  0  0  0
 14 21  2  0  0  0  0
 15 16  1  0  0  0  0
 15 17  2  0  0  0  0
 17 18  1  0  0  0  0
 17 19  1  0  0  0  0
 19 20  1  0  0  0  0
 19 21  1  0  0  0  0
 21 22  1  0  0  0  0
 23 24  2  0  0  0  0
 23 25  1  0  0  0  0
 25 26  1  0  0  0  0
 25 27  1  0  0  0  0
 27 28  1  0  0  0  0
 27 29  1  0  0  0  0
 27 30  1  0  0  0  0
M  CHG  1  15   1
M  END
$$$$

  -OEChem-04042216003D

 30 30  0     1  0  0  0  0  0999 V2000
   -3.1562   -3.8651    1.4141 H   0  0  0  0  0  0  0  0  0  0  0  0
   -3.1478   -3.0442    0.6909 C   0  0  0  0  0  0  0  0  0  0  0  0
   -3.8779   -2.2945    1.0045 H   0  0  0  0  0  0  0  0  0  0  0  0
   -3.4346   -3.4376   -0.2872 H   0  0  0  0  0  0  0  0  0  0  0  0
   -1.7633   -2.4295    0.6209 C   0  0  0  0  0  0  0  0  0  0  0  0
   -0.8636   -2.8641    1.3156 O   0  0  0  0  0  0  0  0  0  0  0  0
   -1.5054   -1.3773   -0.2399 N   0  0  0  0  0  0  0  0  0  0  0  0
   -2.2820   -1.0484   -0.8082 H   0  0  0  0  0  0  0  0  0  0  0  0
   -0.1854   -0.7224   -0.3508 C   0  0  1  0  0  0  0  0  0  0  0  0
    0.5426   -1.5043   -0.5980 H   0  0  0  0  0  0  0  0  0  0  0  0
   -0.2044    0.3029   -1.5003 C   0  0  0  0  0  0  0  0  0  0  0  0
   -0.7025   -0.1227   -2.3773 H   0  0  0  0  0  0  0  0  0  0  0  0
   -0.7791    1.1828   -1.1904 H   0  0  0  0  0  0  0  0  0  0  0  0
    1.1992    0.7185   -1.8780 C   0  0  0  0  0  0  0  0  0  0  0  0
    2.0215    0.1128   -2.8309 N   0  3  0  0  0  0  0  0  0  0  0  0
    1.7485   -0.7213   -3.3566 H   0  0  0  0  0  0  0  0  0  0  0  0
    3.1904    0.7071   -2.8661 C   0  0  0  0  0  0  0  0  0  0  0  0
    4.0443    0.4252   -3.4849 H   0  0  0  0  0  0  0  0  0  0  0  0
    3.1499    1.7540   -1.9488 N   0  0  0  0  0  0  0  0  0  0  0  0
    3.9315    2.3718   -1.7100 H   0  0  0  0  0  0  0  0  0  0  0  0
    1.9051    1.7634   -1.3347 C   0  0  0  0  0  0  0  0  0  0  0  0
    1.5687    2.4243   -0.5348 H   0  0  0  0  0  0  0  0  0  0  0  0
    0.3179   -0.0826    0.9646 C   0  0  0  0  0  0  0  0  0  0  0  0
    1.5232    0.0132    1.1555 O   0  0  0  0  0  0  0  0  0  0  0  0
   -0.5422    0.6745    1.7399 N   0  0  0  0  0  0  0  0  0  0  0  0
   -1.5317    0.4742    1.6249 H   0  0  0  0  0  0  0  0  0  0  0  0
   -0.1171    1.3023    2.9886 C   0  0  0  0  0  0  0  0  0  0  0  0
    0.7128    1.9951    2.8124 H   0  0  0  0  0  0  0  0  0  0  0  0
   -0.9439    1.8661    3.4322 H   0  0  0  0  0  0  0  0  0  0  0  0
    0.2089    0.5422    3.7073 H   0  0  0  0  0  0  0  0  0  0  0  0
  1  2  1  0  0  0  0
  2  3  1  0  0  0  0
  2  4  1  0  0  0  0
  2  5  1  0  0  0  0
  5  6  2  0  0  0  0
  5  7  1  0  0  0  0
  7  8  1  0  0  0  0
  7  9  1  0  0  0  0
  9 10  1  0  0  0  0
  9 11  1  0  0  0  0
  9 23  1  0  0  0  0
 11 12  1  0  0  0  0
 11 13  1  0  0  0  0
 11 14  1  0  0  0  0
 14 15  1  0  0  0  0
 14 21  2  0  0  0  0
 15 16  1  0  0  0  0
 15 17  2  0  0  0  0
 17 18  1  0  0  0  0
 17 19  1  0  0  0  0
 19 20  1  0  0  0  0
 19 21  1  0  0  0  0
 21 22  1  0  0  0  0
 23 24  2  0  0  0  0
 23 25  1  0  0  0  0
 25 26  1  0  0  0  0
 25 27  1  0  0  0  0
 27 28  1  0  0  0  0
 27 29  1  0  0  0  0
 27 30  1  0  0  0  0
M  CHG  1  15   1
M  END
$$$$

  -OEChem-04042216003D

 30 30  0     1  0  0  0  0  0999 V2000
   -3.1974   -3.8400    1.4107 H   0  0  0  0  0  0  0  0  0  0  0  0
   -3.1653   -3.0221    0.6847 C   0  0  0  0  0  0  0  0  0  0  0  0
   -3.8917   -2.2621    0.9820 H   0  0  0  0  0  0  0  0  0  0  0  0
   -3.4387   -3.4160   -0.2971 H   0  0  0  0  0  0  0  0  0  0  0  0
   -1.7724   -2.4240    0.6369 C   0  0  0  0  0  0  0  0  0  0  0  0
   -0.8917   -2.8630    1.3528 O   0  0  0  0  0  0  0  0  0  0  0  0
   -1.4887   -1.3782   -0.2239 N   0  0  0  0  0  0  0  0  0  0  0  0
   -2.2517   -1.0478   -0.8091 H   0  0  0  0  0  0  0  0  0  0  0  0
   -0.1597   -0.7380   -0.3206 C   0  0  1  0  0  0  0  0  0  0  0  0
    0.5677   -1.5237   -0.5590 H   0  0  0  0  0  0  0  0  0  0  0  0
   -0.1676    0.2848   -1.4759 C   0  0  0  0  0  0  0  0  0  0  0  0
   -0.6694   -0.1473   -2.3474 H   0  0  0  0  0  0  0  0  0  0  0  0
   -0.7425    1.1663   -1.1712 H   0  0  0  0  0  0  0  0  0  0  0  0
    1.2292    0.7128   -1.8745 C   0  0  0  0  0  0  0  0  0  0  0  0
    1.9265    0.3080   -3.0162 N   0  3  0  0  0  0  0  0  0  0  0  0
    1.5559   -0.3700   -3.6868 H   0  0  0  0  0  0  0  0  0  0  0  0
    3.1153    0.8620   -3.0471 C   0  0  0  0  0  0  0  0  0  0  0  0
    3.8867    0.7042   -3.8032 H   0  0  0  0  0  0  0  0  0  0  0  0
    3.2182    1.6808   -1.9260 N   0  0  0  0  0  0  0  0  0  0  0  0
    4.0457    2.2164   -1.6465 H   0  0  0  0  0  0  0  0  0  0  0  0
    2.0380    1.5957   -1.2013 C   0  0  0  0  0  0  0  0  0  0  0  0
    1.8109    2.0874   -0.2537 H   0  0  0  0  0  0  0  0  0  0  0  0
    0.3185   -0.1035    1.0069 C   0  0  0  0  0  0  0  0  0  0  0  0
    1.5181   -0.0304    1.2382 O   0  0  0  0  0  0  0  0  0  0  0  0
   -0.5526    0.6601    1.7633 N   0  0  0  0  0  0  0  0  0  0  0  0
   -1.5411    0.4732    1.6204 H   0  0  0  0  0  0  0  0  0  0  0  0
   -0.1537    1.2772    3.0260 C   0  0  0  0  0  0  0  0  0  0  0  0
    0.6740    1.9774    2.8712 H   0  0  0  0  0  0  0  0  0  0  0  0
   -0.9921    1.8304    3.4612 H   0  0  0  0  0  0  0  0  0  0  0  0
    0.1650    0.5119    3.7425 H   0  0  0  0  0  0  0  0  0  0  0  0
  1  2  1  0  0  0  0
  2  3  1  0  0  0  0
  2  4  1  0  0  0  0
  2  5  1  0  0  0  0
  5  6  2  0  0  0  0
  5  7  1  0  0  0  0
  7  8  1  0  0  0  0
  7  9  1  0  0  0  0
  9 10  1  0  0  0  0
  9 11  1  0  0  0  0
  9 23  1  0  0  0  0
 11 12  1  0  0  0  0
 11 13  1  0  0  0  0
 11 14  1  0  0  0  0
 14 15  1  0  0  0  0
 14 21  2  0  0  0  0
 15 16  1  0  0  0  0
 15 17  2  0  0  0  0
 17 18  1  0  0  0  0
 17 19  1  0  0  0  0
 19 20  1  0  0  0  0
 19 21  1  0  0  0  0
 21 22  1  0  0  0  0
 23 24  2  0  0  0  0
 23 25  1  0  0  0  0
 25 26  1  0  0  0  0
 25 27  1  0  0  0  0
 27 28  1  0  0  0  0
 27 29  1  0  0  0  0
 27 30  1  0  0  0  0
M  CHG  1  15   1
M  END
$$$$

  -OEChem-04042216003D

 30 30  0     1  0  0  0  0  0999 V2000
   -3.2324   -3.8099    1.4055 H   0  0  0  0  0  0  0  0  0  0  0  0
   -3.1801   -2.9963    0.6759 C   0  0  0  0  0  0  0  0  0  0  0  0
   -3.9023   -2.2267    0.9584 H   0  0  0  0  0  0  0  0  0  0  0  0
   -3.4424   -3.3924   -0.3080 H   0  0  0  0  0  0  0  0  0  0  0  0
   -1.7798   -2.4146    0.6476 C   0  0  0  0  0  0  0  0  0  0  0  0
   -0.9151   -2.8656    1.3753 O   0  0  0  0  0  0  0  0  0  0  0  0
   -1.4705   -1.3745   -0.2119 N   0  0  0  0  0  0  0  0  0  0  0  0
   -2.2201   -1.0385   -0.8109 H   0  0  0  0  0  0  0  0  0  0  0  0
   -0.1327   -0.7480   -0.2870 C   0  0  1  0  0  0  0  0  0  0  0  0
    0.5950   -1.5384   -0.5091 H   0  0  0  0  0  0  0  0  0  0  0  0
   -0.1228    0.2633   -1.4552 C   0  0  0  0  0  0  0  0  0  0  0  0
   -0.6180   -0.1898   -2.3196 H   0  0  0  0  0  0  0  0  0  0  0  0
   -0.7067    1.1454   -1.1703 H   0  0  0  0  0  0  0  0  0  0  0  0
    1.2672    0.7070   -1.8720 C   0  0  0  0  0  0  0  0  0  0  0  0
    1.8244    0.5284   -3.1422 N   0  3  0  0  0  0  0  0  0  0  0  0
    1.3477    0.0251   -3.8946 H   0  0  0  0  0  0  0  0  0  0  0  0
    3.0338    1.0338   -3.1924 C   0  0  0  0  0  0  0  0  0  0  0  0
    3.7130    1.0135   -4.0470 H   0  0  0  0  0  0  0  0  0  0  0  0
    3.2959    1.5956   -1.9471 N   0  0  0  0  0  0  0  0  0  0  0  0
    4.1705    2.0473   -1.6624 H   0  0  0  0  0  0  0  0  0  0  0  0
    2.1903    1.4064   -1.1306 C   0  0  0  0  0  0  0  0  0  0  0  0
    2.0864    1.7321   -0.0942 H   0  0  0  0  0  0  0  0  0  0  0  0
    0.3142   -0.1184    1.0535 C   0  0  0  0  0  0  0  0  0  0  0  0
    1.5024   -0.0998    1.3446 O   0  0  0  0  0  0  0  0  0  0  0  0
   -0.5679    0.6524    1.7896 N   0  0  0  0  0  0  0  0  0  0  0  0
   -1.5544    0.4983    1.6018 H   0  0  0  0  0  0  0  0  0  0  0  0
   -0.2034    1.2394    3.0766 C   0  0  0  0  0  0  0  0  0  0  0  0
    0.6344    1.9353    2.9613 H   0  0  0  0  0  0  0  0  0  0  0  0
   -1.0503    1.7904    3.4976 H   0  0  0  0  0  0  0  0  0  0  0  0
    0.0872    0.4568    3.7863 H   0  0  0  0  0  0  0  0  0  0  0  0
  1  2  1  0  0  0  0
  2  3  1  0  0  0  0
  2  4  1  0  0  0  0
  2  5  1  0  0  0  0
  5  6  2  0  0  0  0
  5  7  1  0  0  0  0
  7  8  1  0  0  0  0
  7  9  1  0  0  0  0
  9 10  1  0  0  0  0
  9 11  1  0  0  0  0
  9 23  1  0  0  0  0
 11 12  1  0  0  0  0
 11 13  1  0  0  0  0
 11 14  1  0  0  0  0
 14 15  1  0  0  0  0
 14 21  2  0  0  0  0
 15 16  1  0  0  0  0
 15 17  2  0  0  0  0
 17 18  1  0  0  0  0
 17 19  1  0  0  0  0
 19 20  1  0  0  0  0
 19 21  1  0  0  0  0
 21 22  1  0  0  0  0
 23 24  2  0  0  0  0
 23 25  1  0  0  0  0
 25 26  1  0  0  0  0
 25 27  1  0  0  0  0
 27 28  1  0  0  0  0
 27 29  1  0  0  0  0
 27 30  1  0  0  0  0
M  CHG  1  15   1
M  END
$$$$

  -OEChem-04042216003D

 30 30  0     1  0  0  0  0  0999 V2000
   -3.2683   -3.7759    1.3988 H   0  0  0  0  0  0  0  0  0  0  0  0
   -3.1897   -2.9685    0.6646 C   0  0  0  0  0  0  0  0  0  0  0  0
   -3.9079   -2.1877    0.9253 H   0  0  0  0  0  0  0  0  0  0  0  0
   -3.4355   -3.3679   -0.3222 H   0  0  0  0  0  0  0  0  0  0  0  0
   -1.7819   -2.4046    0.6633 C   0  0  0  0  0  0  0  0  0  0  0  0
   -0.9403   -2.8607    1.4142 O   0  0  0  0  0  0  0  0  0  0  0  0
   -1.4408   -1.3766   -0.1988 N   0  0  0  0  0  0  0  0  0  0  0  0
   -2.1714   -1.0435   -0.8222 H   0  0  0  0  0  0  0  0  0  0  0  0
   -0.0951   -0.7631   -0.2479 C   0  0  1  0  0  0  0  0  0  0  0  0
    0.6349   -1.5570   -0.4496 H   0  0  0  0  0  0  0  0  0  0  0  0
   -0.0706    0.2389   -1.4258 C   0  0  0  0  0  0  0  0  0  0  0  0
   -0.5532   -0.2407   -2.2833 H   0  0  0  0  0  0  0  0  0  0  0  0
   -0.6713    1.1163   -1.1621 H   0  0  0  0  0  0  0  0  0  0  0  0
    1.3063    0.7080   -1.8688 C   0  0  0  0  0  0  0  0  0  0  0  0
    1.7065    0.7891   -3.2075 N   0  3  0  0  0  0  0  0  0  0  0  0
    1.1074    0.5042   -3.9863 H   0  0  0  0  0  0  0  0  0  0  0  0
    2.9373    1.2316   -3.3023 C   0  0  0  0  0  0  0  0  0  0  0  0
    3.5097    1.3760   -4.2208 H   0  0  0  0  0  0  0  0  0  0  0  0
    3.3821    1.4806   -2.0092 N   0  0  0  0  0  0  0  0  0  0  0  0
    4.3111    1.8255   -1.7474 H   0  0  0  0  0  0  0  0  0  0  0  0
    2.3656    1.1678   -1.1186 C   0  0  0  0  0  0  0  0  0  0  0  0
    2.4156    1.2798   -0.0360 H   0  0  0  0  0  0  0  0  0  0  0  0
    0.3110   -0.1276    1.1025 C   0  0  0  0  0  0  0  0  0  0  0  0
    1.4773   -0.1741    1.4673 O   0  0  0  0  0  0  0  0  0  0  0  0
   -0.5862    0.6549    1.8070 N   0  0  0  0  0  0  0  0  0  0  0  0
   -1.5654    0.5394    1.5626 H   0  0  0  0  0  0  0  0  0  0  0  0
   -0.2726    1.2085    3.1221 C   0  0  0  0  0  0  0  0  0  0  0  0
    0.6153    1.8480    3.0726 H   0  0  0  0  0  0  0  0  0  0  0  0
   -1.1079    1.8125    3.4905 H   0  0  0  0  0  0  0  0  0  0  0  0
   -0.0833    0.4033    3.8406 H   0  0  0  0  0  0  0  0  0  0  0  0
  1  2  1  0  0  0  0
  2  3  1  0  0  0  0
  2  4  1  0  0  0  0
  2  5  1  0  0  0  0
  5  6  2  0  0  0  0
  5  7  1  0  0  0  0
  7  8  1  0  0  0  0
  7  9  1  0  0  0  0
  9 10  1  0  0  0  0
  9 11  1  0  0  0  0
  9 23  1  0  0  0  0
 11 12  1  0  0  0  0
 11 13  1  0  0  0  0
 11 14  1  0  0  0  0
 14 15  1  0  0  0  0
 14 21  2  0  0  0  0
 15 16  1  0  0  0  0
 15 17  2  0  0  0  0
 17 18  1  0  0  0  0
 17 19  1  0  0  0  0
 19 20  1  0  0  0  0
 19 21  1  0  0  0  0
 21 22  1  0  0  0  0
 23 24  2  0  0  0  0
 23 25  1  0  0  0  0
 25 26  1  0  0  0  0
 25 27  1  0  0  0  0
 27 28  1  0  0  0  0
 27 29  1  0  0  0  0
 27 30  1  0  0  0  0
M  CHG  1  15   1
M  END
$$$$

  -OEChem-04042216003D

 30 30  0     1  0  0  0  0  0999 V2000
   -3.2712   -3.7653    1.4008 H   0  0  0  0  0  0  0  0  0  0  0  0
   -3.1789   -2.9650    0.6603 C   0  0  0  0  0  0  0  0  0  0  0  0
   -3.9037   -2.1831    0.8984 H   0  0  0  0  0  0  0  0  0  0  0  0
   -3.4032   -3.3753   -0.3271 H   0  0  0  0  0  0  0  0  0  0  0  0
   -1.7724   -2.3985    0.6814 C   0  0  0  0  0  0  0  0  0  0  0  0
   -0.9443   -2.8493    1.4501 O   0  0  0  0  0  0  0  0  0  0  0  0
   -1.4152   -1.3817   -0.1879 N   0  0  0  0  0  0  0  0  0  0  0  0
   -2.1329   -1.0609   -0.8321 H   0  0  0  0  0  0  0  0  0  0  0  0
   -0.0670   -0.7720   -0.2252 C   0  0  1  0  0  0  0  0  0  0  0  0
    0.6691   -1.5617   -0.4188 H   0  0  0  0  0  0  0  0  0  0  0  0
   -0.0388    0.2462   -1.3887 C   0  0  0  0  0  0  0  0  0  0  0  0
   -0.5169   -0.2321   -2.2495 H   0  0  0  0  0  0  0  0  0  0  0  0
   -0.6466    1.1164   -1.1176 H   0  0  0  0  0  0  0  0  0  0  0  0
    1.3286    0.7342   -1.8466 C   0  0  0  0  0  0  0  0  0  0  0  0
    1.5898    1.1226   -3.1663 N   0  3  0  0  0  0  0  0  0  0  0  0
    0.8698    1.1420   -3.8930 H   0  0  0  0  0  0  0  0  0  0  0  0
    2.8497    1.4508   -3.3209 C   0  0  0  0  0  0  0  0  0  0  0  0
    3.3269    1.7930   -4.2414 H   0  0  0  0  0  0  0  0  0  0  0  0
    3.4693    1.2755   -2.0897 N   0  0  0  0  0  0  0  0  0  0  0  0
    4.4609    1.4365   -1.8861 H   0  0  0  0  0  0  0  0  0  0  0  0
    2.5297    0.8195   -1.1766 C   0  0  0  0  0  0  0  0  0  0  0  0
    2.7378    0.5743   -0.1372 H   0  0  0  0  0  0  0  0  0  0  0  0
    0.3014   -0.1262    1.1338 C   0  0  0  0  0  0  0  0  0  0  0  0
    1.4499   -0.1842    1.5479 O   0  0  0  0  0  0  0  0  0  0  0  0
   -0.6177    0.6592    1.8071 N   0  0  0  0  0  0  0  0  0  0  0  0
   -1.5882    0.5504    1.5285 H   0  0  0  0  0  0  0  0  0  0  0  0
   -0.3439    1.2253    3.1256 C   0  0  0  0  0  0  0  0  0  0  0  0
    0.5444    1.8654    3.0947 H   0  0  0  0  0  0  0  0  0  0  0  0
   -1.1902    1.8314    3.4635 H   0  0  0  0  0  0  0  0  0  0  0  0
   -0.1748    0.4276    3.8574 H   0  0  0  0  0  0  0  0  0  0  0  0
  1  2  1  0  0  0  0
  2  3  1  0  0  0  0
  2  4  1  0  0  0  0
  2  5  1  0  0  0  0
  5  6  2  0  0  0  0
  5  7  1  0  0  0  0
  7  8  1  0  0  0  0
  7  9  1  0  0  0  0
  9 10  1  0  0  0  0
  9 11  1  0  0  0  0
  9 23  1  0  0  0  0
 11 12  1  0  0  0  0
 11 13  1  0  0  0  0
 11 14  1  0  0  0  0
 14 15  1  0  0  0  0
 14 21  2  0  0  0  0
 15 16  1  0  0  0  0
 15 17  2  0  0  0  0
 17 18  1  0  0  0  0
 17 19  1  0  0  0  0
 19 20  1  0  0  0  0
 19 21  1  0  0  0  0
 21 22  1  0  0  0  0
 23 24  2  0  0  0  0
 23 25  1  0  0  0  0
 25 26  1  0  0  0  0
 25 27  1  0  0  0  0
 27 28  1  0  0  0  0
 27 29  1  0  0  0  0
 27 30  1  0  0  0  0
M  CHG  1  15   1
M  END
$$$$

  -OEChem-04042216003D

 30 30  0     1  0  0  0  0  0999 V2000
   -3.2698   -3.7890    1.4011 H   0  0  0  0  0  0  0  0  0  0  0  0
   -3.1838   -2.9904    0.6582 C   0  0  0  0  0  0  0  0  0  0  0  0
   -3.9213   -2.2178    0.8878 H   0  0  0  0  0  0  0  0  0  0  0  0
   -3.3957   -3.4084   -0.3288 H   0  0  0  0  0  0  0  0  0  0  0  0
   -1.7858   -2.4034    0.6871 C   0  0  0  0  0  0  0  0  0  0  0  0
   -0.9577   -2.8359    1.4666 O   0  0  0  0  0  0  0  0  0  0  0  0
   -1.4349   -1.3883   -0.1865 N   0  0  0  0  0  0  0  0  0  0  0  0
   -2.1451   -1.0958   -0.8523 H   0  0  0  0  0  0  0  0  0  0  0  0
   -0.0865   -0.7805   -0.2357 C   0  0  1  0  0  0  0  0  0  0  0  0
    0.6422   -1.5743   -0.4396 H   0  0  0  0  0  0  0  0  0  0  0  0
   -0.0553    0.2523   -1.3843 C   0  0  0  0  0  0  0  0  0  0  0  0
   -0.5423   -0.2011   -2.2538 H   0  0  0  0  0  0  0  0  0  0  0  0
   -0.6483    1.1257   -1.0914 H   0  0  0  0  0  0  0  0  0  0  0  0
    1.3206    0.7241   -1.8305 C   0  0  0  0  0  0  0  0  0  0  0  0
    1.5429    1.4091   -3.0303 N   0  3  0  0  0  0  0  0  0  0  0  0
    0.7854    1.6940   -3.6562 H   0  0  0  0  0  0  0  0  0  0  0  0
    2.8201    1.6509   -3.2035 C   0  0  0  0  0  0  0  0  0  0  0  0
    3.2753    2.1837   -4.0408 H   0  0  0  0  0  0  0  0  0  0  0  0
    3.4905    1.0986   -2.1184 N   0  0  0  0  0  0  0  0  0  0  0  0
    4.5033    1.1176   -1.9624 H   0  0  0  0  0  0  0  0  0  0  0  0
    2.5626    0.5044   -1.2754 C   0  0  0  0  0  0  0  0  0  0  0  0
    2.7972   -0.0401   -0.3609 H   0  0  0  0  0  0  0  0  0  0  0  0
    0.3033   -0.1306    1.1165 C   0  0  0  0  0  0  0  0  0  0  0  0
    1.4669   -0.1515    1.4913 O   0  0  0  0  0  0  0  0  0  0  0  0
   -0.6067    0.6592    1.7970 N   0  0  0  0  0  0  0  0  0  0  0  0
   -1.5832    0.5312    1.5485 H   0  0  0  0  0  0  0  0  0  0  0  0
   -0.3036    1.2655    3.0910 C   0  0  0  0  0  0  0  0  0  0  0  0
    0.5788    1.9104    3.0187 H   0  0  0  0  0  0  0  0  0  0  0  0
   -1.1456    1.8759    3.4320 H   0  0  0  0  0  0  0  0  0  0  0  0
   -0.1104    0.4911    3.8415 H   0  0  0  0  0  0  0  0  0  0  0  0
  1  2  1  0  0  0  0
  2  3  1  0  0  0  0
  2  4  1  0  0  0  0
  2  5  1  0  0  0  0
  5  6  2  0  0  0  0
  5  7  1  0  0  0  0
  7  8  1  0  0  0  0
  7  9  1  0  0  0  0
  9 10  1  0  0  0  0
  9 11  1  0  0  0  0
  9 23  1  0  0  0  0
 11 12  1  0  0  0  0
 11 13  1  0  0  0  0
 11 14  1  0  0  0  0
 14 15  1  0  0  0  0
 14 21  2  0  0  0  0
 15 16  1  0  0  0  0
 15 17  2  0  0  0  0
 17 18  1  0  0  0  0
 17 19  1  0  0  0  0
 19 20  1  0  0  0  0
 19 21  1  0  0  0  0
 21 22  1  0  0  0  0
 23 24  2  0  0  0  0
 23 25  1  0  0  0  0
 25 26  1  0  0  0  0
 25 27  1  0  0  0  0
 27 28  1  0  0  0  0
 27 29  1  0  0  0  0
 27 30  1  0  0  0  0
M  CHG  1  15   1
M  END
$$$$

  -OEChem-04042216003D

 30 30  0     1  0  0  0  0  0999 V2000
   -3.2660   -3.8664    1.3984 H   0  0  0  0  0  0  0  0  0  0  0  0
   -3.2302   -3.0450    0.6767 C   0  0  0  0  0  0  0  0  0  0  0  0
   -3.9546   -2.2843    0.9769 H   0  0  0  0  0  0  0  0  0  0  0  0
   -3.5031   -3.4327   -0.3077 H   0  0  0  0  0  0  0  0  0  0  0  0
   -1.8350   -2.4521    0.6348 C   0  0  0  0  0  0  0  0  0  0  0  0
   -0.9560   -2.8991    1.3487 O   0  0  0  0  0  0  0  0  0  0  0  0
   -1.5430   -1.4042   -0.2203 N   0  0  0  0  0  0  0  0  0  0  0  0
   -2.3009   -1.0660   -0.8075 H   0  0  0  0  0  0  0  0  0  0  0  0
   -0.2093   -0.7732   -0.3031 C   0  0  1  0  0  0  0  0  0  0  0  0
    0.4806   -1.5947   -0.5255 H   0  0  0  0  0  0  0  0  0  0  0  0
   -0.1540    0.2395   -1.4673 C   0  0  0  0  0  0  0  0  0  0  0  0
   -0.8344   -0.0982   -2.2555 H   0  0  0  0  0  0  0  0  0  0  0  0
   -0.5123    1.2136   -1.1162 H   0  0  0  0  0  0  0  0  0  0  0  0
    1.2223    0.4004   -2.0923 C   0  0  0  0  0  0  0  0  0  0  0  0
    1.5107    1.2585   -3.1580 N   0  3  0  0  0  0  0  0  0  0  0  0
    0.8017    1.8387   -3.6134 H   0  0  0  0  0  0  0  0  0  0  0  0
    2.7900    1.2278   -3.4465 C   0  0  0  0  0  0  0  0  0  0  0  0
    3.2961    1.8035   -4.2237 H   0  0  0  0  0  0  0  0  0  0  0  0
    3.3881    0.3317   -2.5667 N   0  0  0  0  0  0  0  0  0  0  0  0
    4.3883    0.1138   -2.5165 H   0  0  0  0  0  0  0  0  0  0  0  0
    2.4157   -0.1779   -1.7187 C   0  0  0  0  0  0  0  0  0  0  0  0
    2.5799   -0.8679   -0.8881 H   0  0  0  0  0  0  0  0  0  0  0  0
    0.3009   -0.1368    1.0087 C   0  0  0  0  0  0  0  0  0  0  0  0
    1.5083   -0.0926    1.2048 O   0  0  0  0  0  0  0  0  0  0  0  0
   -0.5393    0.6458    1.7794 N   0  0  0  0  0  0  0  0  0  0  0  0
   -1.5357    0.4904    1.6565 H   0  0  0  0  0  0  0  0  0  0  0  0
   -0.0918    1.2942    3.0093 C   0  0  0  0  0  0  0  0  0  0  0  0
    0.7147    2.0049    2.7992 H   0  0  0  0  0  0  0  0  0  0  0  0
   -0.9180    1.8415    3.4741 H   0  0  0  0  0  0  0  0  0  0  0  0
    0.2755    0.5495    3.7242 H   0  0  0  0  0  0  0  0  0  0  0  0
  1  2  1  0  0  0  0
  2  3  1  0  0  0  0
  2  4  1  0  0  0  0
  2  5  1  0  0  0  0
  5  6  2  0  0  0  0
  5  7  1  0  0  0  0
  7  8  1  0  0  0  0
  7  9  1  0  0  0  0
  9 10  1  0  0  0  0
  9 11  1  0  0  0  0
  9 23  1  0  0  0  0
 11 12  1  0  0  0  0
 11 13  1  0  0  0  0
 11 14  1  0  0  0  0
 14 15  1  0  0  0  0
 14 21  2  0  0  0  0
 15 16  1  0  0  0  0
 15 17  2  0  0  0  0
 17 18  1  0  0  0  0
 17 19  1  0  0  0  0
 19 20  1  0  0  0  0
 19 21  1  0  0  0  0
 21 22  1  0  0  0  0
 23 24  2  0  0  0  0
 23 25  1  0  0  0  0
 25 26  1  0  0  0  0
 25 27  1  0  0  0  0
 27 28  1  0  0  0  0
 27 29  1  0  0  0  0
 27 30  1  0  0  0  0
M  CHG  1  15   1
M  END
$$$$

  -OEChem-04042216003D

 30 30  0     1  0  0  0  0  0999 V2000
   -3.2738   -3.8884    1.3847 H   0  0  0  0  0  0  0  0  0  0  0  0
   -3.2473   -3.0613    0.6689 C   0  0  0  0  0  0  0  0  0  0  0  0
   -3.9735   -2.3064    0.9794 H   0  0  0  0  0  0  0  0  0  0  0  0
   -3.5251   -3.4433   -0.3164 H   0  0  0  0  0  0  0  0  0  0  0  0
   -1.8561   -2.4598    0.6221 C   0  0  0  0  0  0  0  0  0  0  0  0
   -0.9697   -2.9067    1.3270 O   0  0  0  0  0  0  0  0  0  0  0  0
   -1.5750   -1.4051   -0.2281 N   0  0  0  0  0  0  0  0  0  0  0  0
   -2.3385   -1.0647   -0.8070 H   0  0  0  0  0  0  0  0  0  0  0  0
   -0.2429   -0.7734   -0.3202 C   0  0  1  0  0  0  0  0  0  0  0  0
    0.4328   -1.6045   -0.5438 H   0  0  0  0  0  0  0  0  0  0  0  0
   -0.1839    0.2309   -1.4911 C   0  0  0  0  0  0  0  0  0  0  0  0
   -0.8654   -0.1016   -2.2808 H   0  0  0  0  0  0  0  0  0  0  0  0
   -0.5368    1.2065   -1.1390 H   0  0  0  0  0  0  0  0  0  0  0  0
    1.1953    0.3837   -2.1120 C   0  0  0  0  0  0  0  0  0  0  0  0
    1.5611    1.4284   -2.9662 N   0  3  0  0  0  0  0  0  0  0  0  0
    0.9063    2.1525   -3.2722 H   0  0  0  0  0  0  0  0  0  0  0  0
    2.8369    1.3618   -3.2631 C   0  0  0  0  0  0  0  0  0  0  0  0
    3.3949    2.0537   -3.8971 H   0  0  0  0  0  0  0  0  0  0  0  0
    3.3553    0.2540   -2.6010 N   0  0  0  0  0  0  0  0  0  0  0  0
    4.3384   -0.0351   -2.5927 H   0  0  0  0  0  0  0  0  0  0  0  0
    2.3395   -0.3451   -1.8703 C   0  0  0  0  0  0  0  0  0  0  0  0
    2.4489   -1.1897   -1.1881 H   0  0  0  0  0  0  0  0  0  0  0  0
    0.3046   -0.1406    0.9760 C   0  0  0  0  0  0  0  0  0  0  0  0
    1.5188   -0.0937    1.1247 O   0  0  0  0  0  0  0  0  0  0  0  0
   -0.5094    0.6457    1.7706 N   0  0  0  0  0  0  0  0  0  0  0  0
   -1.5093    0.4880    1.6831 H   0  0  0  0  0  0  0  0  0  0  0  0
   -0.0217    1.2998    2.9820 C   0  0  0  0  0  0  0  0  0  0  0  0
    0.8077    1.9764    2.7493 H   0  0  0  0  0  0  0  0  0  0  0  0
   -0.8208    1.8862    3.4465 H   0  0  0  0  0  0  0  0  0  0  0  0
    0.3272    0.5552    3.7060 H   0  0  0  0  0  0  0  0  0  0  0  0
  1  2  1  0  0  0  0
  2  3  1  0  0  0  0
  2  4  1  0  0  0  0
  2  5  1  0  0  0  0
  5  6  2  0  0  0  0
  5  7  1  0  0  0  0
  7  8  1  0  0  0  0
  7  9  1  0  0  0  0
  9 10  1  0  0  0  0
  9 11  1  0  0  0  0
  9 23  1  0  0  0  0
 11 12  1  0  0  0  0
 11 13  1  0  0  0  0
 11 14  1  0  0  0  0
 14 15  1  0  0  0  0
 14 21  2  0  0  0  0
 15 16  1  0  0  0  0
 15 17  2  0  0  0  0
 17 18  1  0  0  0  0
 17 19  1  0  0  0  0
 19 20  1  0  0  0  0
 19 21  1  0  0  0  0
 21 22  1  0  0  0  0
 23 24  2  0  0  0  0
 23 25  1  0  0  0  0
 25 26  1  0  0  0  0
 25 27  1  0  0  0  0
 27 28  1  0  0  0  0
 27 29  1  0  0  0  0
 27 30  1  0  0  0  0
M  CHG  1  15   1
M  END
$$$$

  -OEChem-04042216003D

 30 30  0     1  0  0  0  0  0999 V2000
   -3.2615   -3.8995    1.3832 H   0  0  0  0  0  0  0  0  0  0  0  0
   -3.2425   -3.0707    0.6690 C   0  0  0  0  0  0  0  0  0  0  0  0
   -3.9680   -2.3184    0.9872 H   0  0  0  0  0  0  0  0  0  0  0  0
   -3.5269   -3.4507   -0.3152 H   0  0  0  0  0  0  0  0  0  0  0  0
   -1.8530   -2.4660    0.6125 C   0  0  0  0  0  0  0  0  0  0  0  0
   -0.9587   -2.9152    1.3057 O   0  0  0  0  0  0  0  0  0  0  0  0
   -1.5810   -1.4072   -0.2355 N   0  0  0  0  0  0  0  0  0  0  0  0
   -2.3515   -1.0621   -0.8025 H   0  0  0  0  0  0  0  0  0  0  0  0
   -0.2529   -0.7686   -0.3333 C   0  0  1  0  0  0  0  0  0  0  0  0
    0.4261   -1.5958   -0.5570 H   0  0  0  0  0  0  0  0  0  0  0  0
   -0.2029    0.2423   -1.4979 C   0  0  0  0  0  0  0  0  0  0  0  0
   -0.8878   -0.0794   -2.2893 H   0  0  0  0  0  0  0  0  0  0  0  0
   -0.5536    1.2142   -1.1341 H   0  0  0  0  0  0  0  0  0  0  0  0
    1.1768    0.3938   -2.1150 C   0  0  0  0  0  0  0  0  0  0  0  0
    1.6455    1.5696   -2.7083 N   0  3  0  0  0  0  0  0  0  0  0  0
    1.0763    2.4153   -2.7932 H   0  0  0  0  0  0  0  0  0  0  0  0
    2.9040    1.4457   -3.0544 C   0  0  0  0  0  0  0  0  0  0  0  0
    3.5308    2.2122   -3.5141 H   0  0  0  0  0  0  0  0  0  0  0  0
    3.3018    0.1600   -2.7032 N   0  0  0  0  0  0  0  0  0  0  0  0
    4.2477   -0.2220   -2.7994 H   0  0  0  0  0  0  0  0  0  0  0  0
    2.2327   -0.4910   -2.1038 C   0  0  0  0  0  0  0  0  0  0  0  0
    2.2513   -1.4891   -1.6656 H   0  0  0  0  0  0  0  0  0  0  0  0
    0.3065   -0.1346    0.9565 C   0  0  0  0  0  0  0  0  0  0  0  0
    1.5223   -0.0585    1.0764 O   0  0  0  0  0  0  0  0  0  0  0  0
   -0.5035    0.6478    1.7592 N   0  0  0  0  0  0  0  0  0  0  0  0
   -1.5022    0.4726    1.6929 H   0  0  0  0  0  0  0  0  0  0  0  0
   -0.0027    1.3131    2.9590 C   0  0  0  0  0  0  0  0  0  0  0  0
    0.8016    2.0124    2.7059 H   0  0  0  0  0  0  0  0  0  0  0  0
   -0.8053    1.8760    3.4458 H   0  0  0  0  0  0  0  0  0  0  0  0
    0.3849    0.5771    3.6719 H   0  0  0  0  0  0  0  0  0  0  0  0
  1  2  1  0  0  0  0
  2  3  1  0  0  0  0
  2  4  1  0  0  0  0
  2  5  1  0  0  0  0
  5  6  2  0  0  0  0
  5  7  1  0  0  0  0
  7  8  1  0  0  0  0
  7  9  1  0  0  0  0
  9 10  1  0  0  0  0
  9 11  1  0  0  0  0
  9 23  1  0  0  0  0
 11 12  1  0  0  0  0
 11 13  1  0  0  0  0
 11 14  1  0  0  0  0
 14 15  1  0  0  0  0
 14 21  2  0  0  0  0
 15 16  1  0  0  0  0
 15 17  2  0  0  0  0
 17 18  1  0  0  0  0
 17 19  1  0  0  0  0
 19 20  1  0  0  0  0
 19 21  1  0  0  0  0
 21 22  1  0  0  0  0
 23 24  2  0  0  0  0
 23 25  1  0  0  0  0
 25 26  1  0  0  0  0
 25 27  1  0  0  0  0
 27 28  1  0  0  0  0
 27 29  1  0  0  0  0
 27 30  1  0  0  0  0
M  CHG  1  15   1
M  END
$$$$

  -OEChem-04042216003D

 30 30  0     1  0  0  0  0  0999 V2000
   -3.2106   -3.9109    1.3912 H   0  0  0  0  0  0  0  0  0  0  0  0
   -3.2069   -3.0831    0.6760 C   0  0  0  0  0  0  0  0  0  0  0  0
   -3.9339   -2.3356    1.0022 H   0  0  0  0  0  0  0  0  0  0  0  0
   -3.5011   -3.4669   -0.3037 H   0  0  0  0  0  0  0  0  0  0  0  0
   -1.8224   -2.4687    0.6010 C   0  0  0  0  0  0  0  0  0  0  0  0
   -0.9147   -2.9135    1.2794 O   0  0  0  0  0  0  0  0  0  0  0  0
   -1.5709   -1.4031   -0.2447 N   0  0  0  0  0  0  0  0  0  0  0  0
   -2.3527   -1.0587   -0.7963 H   0  0  0  0  0  0  0  0  0  0  0  0
   -0.2514   -0.7481   -0.3514 C   0  0  1  0  0  0  0  0  0  0  0  0
    0.4443   -1.5593   -0.5863 H   0  0  0  0  0  0  0  0  0  0  0  0
   -0.2217    0.2826   -1.4980 C   0  0  0  0  0  0  0  0  0  0  0  0
   -0.9066   -0.0290   -2.2933 H   0  0  0  0  0  0  0  0  0  0  0  0
   -0.5737    1.2496   -1.1227 H   0  0  0  0  0  0  0  0  0  0  0  0
    1.1621    0.4269   -2.1013 C   0  0  0  0  0  0  0  0  0  0  0  0
    1.7778    1.6435   -2.4054 N   0  3  0  0  0  0  0  0  0  0  0  0
    1.3412    2.5497   -2.2189 H   0  0  0  0  0  0  0  0  0  0  0  0
    3.0024    1.4460   -2.8303 C   0  0  0  0  0  0  0  0  0  0  0  0
    3.7286    2.2156   -3.0984 H   0  0  0  0  0  0  0  0  0  0  0  0
    3.2153    0.0710   -2.8500 N   0  0  0  0  0  0  0  0  0  0  0  0
    4.0940   -0.3948   -3.0967 H   0  0  0  0  0  0  0  0  0  0  0  0
    2.0707   -0.5659   -2.3890 C   0  0  0  0  0  0  0  0  0  0  0  0
    1.9347   -1.6383   -2.2483 H   0  0  0  0  0  0  0  0  0  0  0  0
    0.3044   -0.1156    0.9413 C   0  0  0  0  0  0  0  0  0  0  0  0
    1.5179    0.0083    1.0433 O   0  0  0  0  0  0  0  0  0  0  0  0
   -0.5173    0.6489    1.7495 N   0  0  0  0  0  0  0  0  0  0  0  0
   -1.5104    0.4402    1.6977 H   0  0  0  0  0  0  0  0  0  0  0  0
   -0.0226    1.3243    2.9464 C   0  0  0  0  0  0  0  0  0  0  0  0
    0.7399    2.0655    2.6844 H   0  0  0  0  0  0  0  0  0  0  0  0
   -0.8408    1.8414    3.4575 H   0  0  0  0  0  0  0  0  0  0  0  0
    0.4175    0.6006    3.6415 H   0  0  0  0  0  0  0  0  0  0  0  0
  1  2  1  0  0  0  0
  2  3  1  0  0  0  0
  2  4  1  0  0  0  0
  2  5  1  0  0  0  0
  5  6  2  0  0  0  0
  5  7  1  0  0  0  0
  7  8  1  0  0  0  0
  7  9  1  0  0  0  0
  9 10  1  0  0  0  0
  9 11  1  0  0  0  0
  9 23  1  0  0  0  0
 11 12  1  0  0  0  0
 11 13  1  0  0  0  0
 11 14  1  0  0  0  0
 14 15  1  0  0  0  0
 14 21  2  0  0  0  0
 15 16  1  0  0  0  0
 15 17  2  0  0  0  0
 17 18  1  0  0  0  0
 17 19  1  0  0  0  0
 19 20  1  0  0  0  0
 19 21  1  0  0  0  0
 21 22  1  0  0  0  0
 23 24  2  0  0  0  0
 23 25  1  0  0  0  0
 25 26  1  0  0  0  0
 25 27  1  0  0  0  0
 27 28  1  0  0  0  0
 27 29  1  0  0  0  0
 27 30  1  0  0  0  0
M  CHG  1  15   1
M  END
$$$$

  -OEChem-04042216003D

 30 30  0     1  0  0  0  0  0999 V2000
   -3.1612   -3.9349    1.3778 H   0  0  0  0  0  0  0  0  0  0  0  0
   -3.1711   -3.1010    0.6698 C   0  0  0  0  0  0  0  0  0  0  0  0
   -3.9088   -2.3677    1.0038 H   0  0  0  0  0  0  0  0  0  0  0  0
   -3.4612   -3.4806   -0.3127 H   0  0  0  0  0  0  0  0  0  0  0  0
   -1.7960   -2.4653    0.5981 C   0  0  0  0  0  0  0  0  0  0  0  0
   -0.8831   -2.8970    1.2780 O   0  0  0  0  0  0  0  0  0  0  0  0
   -1.5590   -1.3956   -0.2468 N   0  0  0  0  0  0  0  0  0  0  0  0
   -2.3446   -1.0637   -0.8009 H   0  0  0  0  0  0  0  0  0  0  0  0
   -0.2464   -0.7279   -0.3606 C   0  0  1  0  0  0  0  0  0  0  0  0
    0.4633   -1.5241   -0.6113 H   0  0  0  0  0  0  0  0  0  0  0  0
   -0.2349    0.3181   -1.4908 C   0  0  0  0  0  0  0  0  0  0  0  0
   -0.9155    0.0054   -2.2891 H   0  0  0  0  0  0  0  0  0  0  0  0
   -0.5904    1.2842   -1.1160 H   0  0  0  0  0  0  0  0  0  0  0  0
    1.1534    0.4481   -2.0769 C   0  0  0  0  0  0  0  0  0  0  0  0
    1.9176    1.6163   -2.0961 N   0  3  0  0  0  0  0  0  0  0  0  0
    1.6249    2.4785   -1.6288 H   0  0  0  0  0  0  0  0  0  0  0  0
    3.0949    1.3812   -2.6227 C   0  0  0  0  0  0  0  0  0  0  0  0
    3.9175    2.0929   -2.7131 H   0  0  0  0  0  0  0  0  0  0  0  0
    3.1130    0.0456   -3.0159 N   0  0  0  0  0  0  0  0  0  0  0  0
    3.9114   -0.4431   -3.4323 H   0  0  0  0  0  0  0  0  0  0  0  0
    1.9012   -0.5400   -2.6713 C   0  0  0  0  0  0  0  0  0  0  0  0
    1.6096   -1.5807   -2.8141 H   0  0  0  0  0  0  0  0  0  0  0  0
    0.3060   -0.0946    0.9344 C   0  0  0  0  0  0  0  0  0  0  0  0
    1.5160    0.0716    1.0226 O   0  0  0  0  0  0  0  0  0  0  0  0
   -0.5257    0.6569    1.7450 N   0  0  0  0  0  0  0  0  0  0  0  0
   -1.5140    0.4245    1.7004 H   0  0  0  0  0  0  0  0  0  0  0  0
   -0.0401    1.3384    2.9426 C   0  0  0  0  0  0  0  0  0  0  0  0
    0.7416    2.0618    2.6871 H   0  0  0  0  0  0  0  0  0  0  0  0
   -0.8576    1.8776    3.4316 H   0  0  0  0  0  0  0  0  0  0  0  0
    0.3721    0.6150    3.6546 H   0  0  0  0  0  0  0  0  0  0  0  0
  1  2  1  0  0  0  0
  2  3  1  0  0  0  0
  2  4  1  0  0  0  0
  2  5  1  0  0  0  0
  5  6  2  0  0  0  0
  5  7  1  0  0  0  0
  7  8  1  0  0  0  0
  7  9  1  0  0  0  0
  9 10  1  0  0  0  0
  9 11  1  0  0  0  0
  9 23  1  0  0  0  0
 11 12  1  0  0  0  0
 11 13  1  0  0  0  0
 11 14  1  0  0  0  0
 14 15  1  0  0  0  0
 14 21  2  0  0  0  0
 15 16  1  0  0  0  0
 15 17  2  0  0  0  0
 17 18  1  0  0  0  0
 17 19  1  0  0  0  0
 19 20  1  0  0  0  0
 19 21  1  0  0  0  0
 21 22  1  0  0  0  0
 23 24  2  0  0  0  0
 23 25  1  0  0  0  0
 25 26  1  0  0  0  0
 25 27  1  0  0  0  0
 27 28  1  0  0  0  0
 27 29  1  0  0  0  0
 27 30  1  0  0  0  0
M  CHG  1  15   1
M  END
$$$$

  -OEChem-04042216003D

 30 30  0     1  0  0  0  0  0999 V2000
   -3.1438   -3.9281    1.3938 H   0  0  0  0  0  0  0  0  0  0  0  0
   -3.1543   -3.1018    0.6769 C   0  0  0  0  0  0  0  0  0  0  0  0
   -3.8972   -2.3683    0.9990 H   0  0  0  0  0  0  0  0  0  0  0  0
   -3.4373   -3.4933   -0.3031 H   0  0  0  0  0  0  0  0  0  0  0  0
   -1.7824   -2.4600    0.6049 C   0  0  0  0  0  0  0  0  0  0  0  0
   -0.8703   -2.8788    1.2939 O   0  0  0  0  0  0  0  0  0  0  0  0
   -1.5504   -1.3918   -0.2427 N   0  0  0  0  0  0  0  0  0  0  0  0
   -2.3353   -1.0707   -0.8043 H   0  0  0  0  0  0  0  0  0  0  0  0
   -0.2395   -0.7227   -0.3654 C   0  0  1  0  0  0  0  0  0  0  0  0
    0.4752   -1.5122   -0.6284 H   0  0  0  0  0  0  0  0  0  0  0  0
   -0.2318    0.3360   -1.4813 C   0  0  0  0  0  0  0  0  0  0  0  0
   -0.9135    0.0278   -2.2806 H   0  0  0  0  0  0  0  0  0  0  0  0
   -0.5809    1.3049   -1.1074 H   0  0  0  0  0  0  0  0  0  0  0  0
    1.1616    0.4422   -2.0545 C   0  0  0  0  0  0  0  0  0  0  0  0
    2.0586    1.4811   -1.8046 N   0  3  0  0  0  0  0  0  0  0  0  0
    1.9064    2.1699   -1.0619 H   0  0  0  0  0  0  0  0  0  0  0  0
    3.1863    1.2653   -2.4364 C   0  0  0  0  0  0  0  0  0  0  0  0
    4.0939    1.8670   -2.3601 H   0  0  0  0  0  0  0  0  0  0  0  0
    3.0243    0.1036   -3.1881 N   0  0  0  0  0  0  0  0  0  0  0  0
    3.7426   -0.3312   -3.7754 H   0  0  0  0  0  0  0  0  0  0  0  0
    1.7572   -0.4146   -2.9471 C   0  0  0  0  0  0  0  0  0  0  0  0
    1.3256   -1.3250   -3.3635 H   0  0  0  0  0  0  0  0  0  0  0  0
    0.3075   -0.0907    0.9343 C   0  0  0  0  0  0  0  0  0  0  0  0
    1.5115    0.1264    1.0085 O   0  0  0  0  0  0  0  0  0  0  0  0
   -0.5368    0.6530    1.7390 N   0  0  0  0  0  0  0  0  0  0  0  0
   -1.5184    0.3904    1.7055 H   0  0  0  0  0  0  0  0  0  0  0  0
   -0.0636    1.3560    2.9291 C   0  0  0  0  0  0  0  0  0  0  0  0
    0.6531    2.1381    2.6569 H   0  0  0  0  0  0  0  0  0  0  0  0
   -0.9026    1.8268    3.4514 H   0  0  0  0  0  0  0  0  0  0  0  0
    0.4247    0.6585    3.6189 H   0  0  0  0  0  0  0  0  0  0  0  0
  1  2  1  0  0  0  0
  2  3  1  0  0  0  0
  2  4  1  0  0  0  0
  2  5  1  0  0  0  0
  5  6  2  0  0  0  0
  5  7  1  0  0  0  0
  7  8  1  0  0  0  0
  7  9  1  0  0  0  0
  9 10  1  0  0  0  0
  9 11  1  0  0  0  0
  9 23  1  0  0  0  0
 11 12  1  0  0  0  0
 11 13  1  0  0  0  0
 11 14  1  0  0  0  0
 14 15  1  0  0  0  0
 14 21  2  0  0  0  0
 15 16  1  0  0  0  0
 15 17  2  0  0  0  0
 17 18  1  0  0  0  0
 17 19  1  0  0  0  0
 19 20  1  0  0  0  0
 19 21  1  0  0  0  0
 21 22  1  0  0  0  0
 23 24  2  0  0  0  0
 23 25  1  0  0  0  0
 25 26  1  0  0  0  0
 25 27  1  0  0  0  0
 27 28  1  0  0  0  0
 27 29  1  0  0  0  0
 27 30  1  0  0  0  0
M  CHG  1  15   1
M  END
$$$$

  -OEChem-04042216003D

 30 30  0     1  0  0  0  0  0999 V2000
   -3.1495   -3.9239    1.4116 H   0  0  0  0  0  0  0  0  0  0  0  0
   -3.1549   -3.1029    0.6884 C   0  0  0  0  0  0  0  0  0  0  0  0
   -3.9062   -2.3713    0.9949 H   0  0  0  0  0  0  0  0  0  0  0  0
   -3.4225   -3.5032   -0.2924 H   0  0  0  0  0  0  0  0  0  0  0  0
   -1.7861   -2.4526    0.6307 C   0  0  0  0  0  0  0  0  0  0  0  0
   -0.8837   -2.8543    1.3423 O   0  0  0  0  0  0  0  0  0  0  0  0
   -1.5469   -1.3948   -0.2283 N   0  0  0  0  0  0  0  0  0  0  0  0
   -2.3183   -1.1029   -0.8233 H   0  0  0  0  0  0  0  0  0  0  0  0
   -0.2307   -0.7367   -0.3587 C   0  0  1  0  0  0  0  0  0  0  0  0
    0.4806   -1.5286   -0.6240 H   0  0  0  0  0  0  0  0  0  0  0  0
   -0.2193    0.3270   -1.4704 C   0  0  0  0  0  0  0  0  0  0  0  0
   -0.9118    0.0298   -2.2644 H   0  0  0  0  0  0  0  0  0  0  0  0
   -0.5518    1.3005   -1.0927 H   0  0  0  0  0  0  0  0  0  0  0  0
    1.1718    0.4191   -2.0515 C   0  0  0  0  0  0  0  0  0  0  0  0
    2.1729    1.2678   -1.5788 N   0  3  0  0  0  0  0  0  0  0  0  0
    2.1275    1.6791   -0.6382 H   0  0  0  0  0  0  0  0  0  0  0  0
    3.2571    1.1302   -2.3008 C   0  0  0  0  0  0  0  0  0  0  0  0
    4.2262    1.5905   -2.0993 H   0  0  0  0  0  0  0  0  0  0  0  0
    2.9557    0.2488   -3.3369 N   0  0  0  0  0  0  0  0  0  0  0  0
    3.6069   -0.0584   -4.0657 H   0  0  0  0  0  0  0  0  0  0  0  0
    1.6493   -0.2009   -3.1792 C   0  0  0  0  0  0  0  0  0  0  0  0
    1.1105   -0.9040   -3.8147 H   0  0  0  0  0  0  0  0  0  0  0  0
    0.3120   -0.0985    0.9425 C   0  0  0  0  0  0  0  0  0  0  0  0
    1.5142    0.1345    1.0185 O   0  0  0  0  0  0  0  0  0  0  0  0
   -0.5362    0.6543    1.7342 N   0  0  0  0  0  0  0  0  0  0  0  0
   -1.5191    0.3978    1.6905 H   0  0  0  0  0  0  0  0  0  0  0  0
   -0.0751    1.3713    2.9209 C   0  0  0  0  0  0  0  0  0  0  0  0
    0.6548    2.1411    2.6495 H   0  0  0  0  0  0  0  0  0  0  0  0
   -0.9175    1.8603    3.4204 H   0  0  0  0  0  0  0  0  0  0  0  0
    0.3930    0.6796    3.6303 H   0  0  0  0  0  0  0  0  0  0  0  0
  1  2  1  0  0  0  0
  2  3  1  0  0  0  0
  2  4  1  0  0  0  0
  2  5  1  0  0  0  0
  5  6  2  0  0  0  0
  5  7  1  0  0  0  0
  7  8  1  0  0  0  0
  7  9  1  0  0  0  0
  9 10  1  0  0  0  0
  9 11  1  0  0  0  0
  9 23  1  0  0  0  0
 11 12  1  0  0  0  0
 11 13  1  0  0  0  0
 11 14  1  0  0  0  0
 14 15  1  0  0  0  0
 14 21  2  0  0  0  0
 15 16  1  0  0  0  0
 15 17  2  0  0  0  0
 17 18  1  0  0  0  0
 17 19  1  0  0  0  0
 19 20  1  0  0  0  0
 19 21  1  0  0  0  0
 21 22  1  0  0  0  0
 23 24  2  0  0  0  0
 23 25  1  0  0  0  0
 25 26  1  0  0  0  0
 25 27  1  0  0  0  0
 27 28  1  0  0  0  0
 27 29  1  0  0  0  0
 27 30  1  0  0  0  0
M  CHG  1  15   1
M  END
$$$$

  -OEChem-04042216003D

 30 30  0     1  0  0  0  0  0999 V2000
   -3.1572   -3.9063    1.4235 H   0  0  0  0  0  0  0  0  0  0  0  0
   -3.1574   -3.0907    0.6941 C   0  0  0  0  0  0  0  0  0  0  0  0
   -3.9089   -2.3556    0.9917 H   0  0  0  0  0  0  0  0  0  0  0  0
   -3.4209   -3.4977   -0.2851 H   0  0  0  0  0  0  0  0  0  0  0  0
   -1.7864   -2.4447    0.6388 C   0  0  0  0  0  0  0  0  0  0  0  0
   -0.8867   -2.8510    1.3514 O   0  0  0  0  0  0  0  0  0  0  0  0
   -1.5402   -1.3892   -0.2216 N   0  0  0  0  0  0  0  0  0  0  0  0
   -2.3083   -1.0957   -0.8202 H   0  0  0  0  0  0  0  0  0  0  0  0
   -0.2197   -0.7388   -0.3514 C   0  0  1  0  0  0  0  0  0  0  0  0
    0.4903   -1.5324   -0.6161 H   0  0  0  0  0  0  0  0  0  0  0  0
   -0.2092    0.3201   -1.4703 C   0  0  0  0  0  0  0  0  0  0  0  0
   -0.9119    0.0261   -2.2563 H   0  0  0  0  0  0  0  0  0  0  0  0
   -0.5345    1.2940   -1.0877 H   0  0  0  0  0  0  0  0  0  0  0  0
    1.1756    0.4215   -2.0694 C   0  0  0  0  0  0  0  0  0  0  0  0
    2.2662    1.0402   -1.4569 N   0  3  0  0  0  0  0  0  0  0  0  0
    2.2718    1.2367   -0.4444 H   0  0  0  0  0  0  0  0  0  0  0  0
    3.3183    0.9802   -2.2345 C   0  0  0  0  0  0  0  0  0  0  0  0
    4.3289    1.3012   -1.9745 H   0  0  0  0  0  0  0  0  0  0  0  0
    2.9139    0.3884   -3.4291 N   0  0  0  0  0  0  0  0  0  0  0  0
    3.5167    0.2056   -4.2371 H   0  0  0  0  0  0  0  0  0  0  0  0
    1.5732    0.0327   -3.3245 C   0  0  0  0  0  0  0  0  0  0  0  0
    0.9583   -0.4545   -4.0813 H   0  0  0  0  0  0  0  0  0  0  0  0
    0.3121   -0.1062    0.9579 C   0  0  0  0  0  0  0  0  0  0  0  0
    1.5172    0.1044    1.0597 O   0  0  0  0  0  0  0  0  0  0  0  0
   -0.5396    0.6475    1.7445 N   0  0  0  0  0  0  0  0  0  0  0  0
   -1.5255    0.4068    1.6820 H   0  0  0  0  0  0  0  0  0  0  0  0
   -0.0885    1.3560    2.9400 C   0  0  0  0  0  0  0  0  0  0  0  0
    0.6296    2.1400    2.6776 H   0  0  0  0  0  0  0  0  0  0  0  0
   -0.9376    1.8257    3.4467 H   0  0  0  0  0  0  0  0  0  0  0  0
    0.3897    0.6621    3.6403 H   0  0  0  0  0  0  0  0  0  0  0  0
  1  2  1  0  0  0  0
  2  3  1  0  0  0  0
  2  4  1  0  0  0  0
  2  5  1  0  0  0  0
  5  6  2  0  0  0  0
  5  7  1  0  0  0  0
  7  8  1  0  0  0  0
  7  9  1  0  0  0  0
  9 10  1  0  0  0  0
  9 11  1  0  0  0  0
  9 23  1  0  0  0  0
 11 12  1  0  0  0  0
 11 13  1  0  0  0  0
 11 14  1  0  0  0  0
 14 15  1  0  0  0  0
 14 21  2  0  0  0  0
 15 16  1  0  0  0  0
 15 17  2  0  0  0  0
 17 18  1  0  0  0  0
 17 19  1  0  0  0  0
 19 20  1  0  0  0  0
 19 21  1  0  0  0  0
 21 22  1  0  0  0  0
 23 24  2  0  0  0  0
 23 25  1  0  0  0  0
 25 26  1  0  0  0  0
 25 27  1  0  0  0  0
 27 28  1  0  0  0  0
 27 29  1  0  0  0  0
 27 30  1  0  0  0  0
M  CHG  1  15   1
M  END
$$$$

  -OEChem-04042216003D

 30 30  0     1  0  0  0  0  0999 V2000
   -3.1679   -3.9034    1.4054 H   0  0  0  0  0  0  0  0  0  0  0  0
   -3.1600   -3.0835    0.6811 C   0  0  0  0  0  0  0  0  0  0  0  0
   -3.9127   -2.3488    0.9764 H   0  0  0  0  0  0  0  0  0  0  0  0
   -3.4157   -3.4842   -0.3027 H   0  0  0  0  0  0  0  0  0  0  0  0
   -1.7876   -2.4394    0.6409 C   0  0  0  0  0  0  0  0  0  0  0  0
   -0.8952   -2.8487    1.3607 O   0  0  0  0  0  0  0  0  0  0  0  0
   -1.5315   -1.3839   -0.2165 N   0  0  0  0  0  0  0  0  0  0  0  0
   -2.2932   -1.0910   -0.8235 H   0  0  0  0  0  0  0  0  0  0  0  0
   -0.2085   -0.7365   -0.3362 C   0  0  1  0  0  0  0  0  0  0  0  0
    0.5020   -1.5313   -0.5959 H   0  0  0  0  0  0  0  0  0  0  0  0
   -0.2006    0.3119   -1.4677 C   0  0  0  0  0  0  0  0  0  0  0  0
   -0.9078    0.0131   -2.2481 H   0  0  0  0  0  0  0  0  0  0  0  0
   -0.5289    1.2847   -1.0844 H   0  0  0  0  0  0  0  0  0  0  0  0
    1.1773    0.4368   -2.0834 C   0  0  0  0  0  0  0  0  0  0  0  0
    2.3404    0.8071   -1.4053 N   0  3  0  0  0  0  0  0  0  0  0  0
    2.3748    0.8659   -0.3743 H   0  0  0  0  0  0  0  0  0  0  0  0
    3.3636    0.8260   -2.2216 C   0  0  0  0  0  0  0  0  0  0  0  0
    4.4015    1.0237   -1.9468 H   0  0  0  0  0  0  0  0  0  0  0  0
    2.8791    0.5167   -3.4906 N   0  0  0  0  0  0  0  0  0  0  0  0
    3.4423    0.4555   -4.3442 H   0  0  0  0  0  0  0  0  0  0  0  0
    1.5129    0.2677   -3.4041 C   0  0  0  0  0  0  0  0  0  0  0  0
    0.8400   -0.0056   -4.2169 H   0  0  0  0  0  0  0  0  0  0  0  0
    0.3124   -0.1071    0.9790 C   0  0  0  0  0  0  0  0  0  0  0  0
    1.5216    0.0569    1.1124 O   0  0  0  0  0  0  0  0  0  0  0  0
   -0.5394    0.6485    1.7632 N   0  0  0  0  0  0  0  0  0  0  0  0
   -1.5286    0.4292    1.6787 H   0  0  0  0  0  0  0  0  0  0  0  0
   -0.0962    1.3312    2.9767 C   0  0  0  0  0  0  0  0  0  0  0  0
    0.6856    2.0633    2.7477 H   0  0  0  0  0  0  0  0  0  0  0  0
   -0.9335    1.8615    3.4416 H   0  0  0  0  0  0  0  0  0  0  0  0
    0.3003    0.6098    3.6999 H   0  0  0  0  0  0  0  0  0  0  0  0
  1  2  1  0  0  0  0
  2  3  1  0  0  0  0
  2  4  1  0  0  0  0
  2  5  1  0  0  0  0
  5  6  2  0  0  0  0
  5  7  1  0  0  0  0
  7  8  1  0  0  0  0
  7  9  1  0  0  0  0
  9 10  1  0  0  0  0
  9 11  1  0  0  0  0
  9 23  1  0  0  0  0
 11 12  1  0  0  0  0
 11 13  1  0  0  0  0
 11 14  1  0  0  0  0
 14 15  1  0  0  0  0
 14 21  2  0  0  0  0
 15 16  1  0  0  0  0
 15 17  2  0  0  0  0
 17 18  1  0  0  0  0
 17 19  1  0  0  0  0
 19 20  1  0  0  0  0
 19 21  1  0  0  0  0
 21 22  1  0  0  0  0
 23 24  2  0  0  0  0
 23 25  1  0  0  0  0
 25 26  1  0  0  0  0
 25 27  1  0  0  0  0
 27 28  1  0  0  0  0
 27 29  1  0  0  0  0
 27 30  1  0  0  0  0
M  CHG  1  15   1
M  END
$$$$

  -OEChem-04042216003D

 30 30  0     1  0  0  0  0  0999 V2000
   -3.1749   -3.8984    1.3902 H   0  0  0  0  0  0  0  0  0  0  0  0
   -3.1648   -3.0754    0.6695 C   0  0  0  0  0  0  0  0  0  0  0  0
   -3.9125   -2.3379    0.9704 H   0  0  0  0  0  0  0  0  0  0  0  0
   -3.4255   -3.4705   -0.3154 H   0  0  0  0  0  0  0  0  0  0  0  0
   -1.7890   -2.4386    0.6284 C   0  0  0  0  0  0  0  0  0  0  0  0
   -0.8957   -2.8593    1.3407 O   0  0  0  0  0  0  0  0  0  0  0  0
   -1.5305   -1.3773   -0.2212 N   0  0  0  0  0  0  0  0  0  0  0  0
   -2.2961   -1.0675   -0.8147 H   0  0  0  0  0  0  0  0  0  0  0  0
   -0.2079   -0.7274   -0.3285 C   0  0  1  0  0  0  0  0  0  0  0  0
    0.5026   -1.5236   -0.5837 H   0  0  0  0  0  0  0  0  0  0  0  0
   -0.1952    0.3108   -1.4711 C   0  0  0  0  0  0  0  0  0  0  0  0
   -0.8984    0.0050   -2.2525 H   0  0  0  0  0  0  0  0  0  0  0  0
   -0.5310    1.2822   -1.0908 H   0  0  0  0  0  0  0  0  0  0  0  0
    1.1817    0.4548   -2.0890 C   0  0  0  0  0  0  0  0  0  0  0  0
    2.3913    0.5608   -1.3976 N   0  3  0  0  0  0  0  0  0  0  0  0
    2.4439    0.5022   -0.3670 H   0  0  0  0  0  0  0  0  0  0  0  0
    3.3963    0.6575   -2.2305 C   0  0  0  0  0  0  0  0  0  0  0  0
    4.4514    0.7318   -1.9602 H   0  0  0  0  0  0  0  0  0  0  0  0
    2.8617    0.6351   -3.5165 N   0  0  0  0  0  0  0  0  0  0  0  0
    3.4004    0.6936   -4.3861 H   0  0  0  0  0  0  0  0  0  0  0  0
    1.4791    0.5039   -3.4291 C   0  0  0  0  0  0  0  0  0  0  0  0
    0.7698    0.4493   -4.2550 H   0  0  0  0  0  0  0  0  0  0  0  0
    0.3059   -0.1050    0.9915 C   0  0  0  0  0  0  0  0  0  0  0  0
    1.5174    0.0125    1.1491 O   0  0  0  0  0  0  0  0  0  0  0  0
   -0.5421    0.6475    1.7822 N   0  0  0  0  0  0  0  0  0  0  0  0
   -1.5351    0.4567    1.6783 H   0  0  0  0  0  0  0  0  0  0  0  0
   -0.0979    1.3051    3.0090 C   0  0  0  0  0  0  0  0  0  0  0  0
    0.6778    2.0473    2.7921 H   0  0  0  0  0  0  0  0  0  0  0  0
   -0.9362    1.8182    3.4905 H   0  0  0  0  0  0  0  0  0  0  0  0
    0.3076    0.5704    3.7135 H   0  0  0  0  0  0  0  0  0  0  0  0
  1  2  1  0  0  0  0
  2  3  1  0  0  0  0
  2  4  1  0  0  0  0
  2  5  1  0  0  0  0
  5  6  2  0  0  0  0
  5  7  1  0  0  0  0
  7  8  1  0  0  0  0
  7  9  1  0  0  0  0
  9 10  1  0  0  0  0
  9 11  1  0  0  0  0
  9 23  1  0  0  0  0
 11 12  1  0  0  0  0
 11 13  1  0  0  0  0
 11 14  1  0  0  0  0
 14 15  1  0  0  0  0
 14 21  2  0  0  0  0
 15 16  1  0  0  0  0
 15 17  2  0  0  0  0
 17 18  1  0  0  0  0
 17 19  1  0  0  0  0
 19 20  1  0  0  0  0
 19 21  1  0  0  0  0
 21 22  1  0  0  0  0
 23 24  2  0  0  0  0
 23 25  1  0  0  0  0
 25 26  1  0  0  0  0
 25 27  1  0  0  0  0
 27 28  1  0  0  0  0
 27 29  1  0  0  0  0
 27 30  1  0  0  0  0
M  CHG  1  15   1
M  END
$$$$

  -OEChem-04042216003D

 30 30  0     1  0  0  0  0  0999 V2000
   -3.1818   -3.9056    1.3663 H   0  0  0  0  0  0  0  0  0  0  0  0
   -3.1728   -3.0759    0.6532 C   0  0  0  0  0  0  0  0  0  0  0  0
   -3.9157   -2.3383    0.9656 H   0  0  0  0  0  0  0  0  0  0  0  0
   -3.4413   -3.4605   -0.3336 H   0  0  0  0  0  0  0  0  0  0  0  0
   -1.7950   -2.4441    0.6099 C   0  0  0  0  0  0  0  0  0  0  0  0
   -0.8983   -2.8747    1.3120 O   0  0  0  0  0  0  0  0  0  0  0  0
   -1.5376   -1.3743   -0.2291 N   0  0  0  0  0  0  0  0  0  0  0  0
   -2.3064   -1.0503   -0.8106 H   0  0  0  0  0  0  0  0  0  0  0  0
   -0.2177   -0.7182   -0.3226 C   0  0  1  0  0  0  0  0  0  0  0  0
    0.4894   -1.5185   -0.5735 H   0  0  0  0  0  0  0  0  0  0  0  0
   -0.1966    0.3089   -1.4755 C   0  0  0  0  0  0  0  0  0  0  0  0
   -0.8885   -0.0080   -2.2627 H   0  0  0  0  0  0  0  0  0  0  0  0
   -0.5445    1.2793   -1.1034 H   0  0  0  0  0  0  0  0  0  0  0  0
    1.1837    0.4676   -2.0842 C   0  0  0  0  0  0  0  0  0  0  0  0
    2.4088    0.3092   -1.4293 N   0  3  0  0  0  0  0  0  0  0  0  0
    2.4719    0.1319   -0.4129 H   0  0  0  0  0  0  0  0  0  0  0  0
    3.4063    0.4895   -2.2571 C   0  0  0  0  0  0  0  0  0  0  0  0
    4.4676    0.4423   -2.0055 H   0  0  0  0  0  0  0  0  0  0  0  0
    2.8532    0.7582   -3.5068 N   0  0  0  0  0  0  0  0  0  0  0  0
    3.3822    0.9411   -4.3649 H   0  0  0  0  0  0  0  0  0  0  0  0
    1.4658    0.7425   -3.4000 C   0  0  0  0  0  0  0  0  0  0  0  0
    0.7427    0.9106   -4.1982 H   0  0  0  0  0  0  0  0  0  0  0  0
    0.3011   -0.1002    0.9957 C   0  0  0  0  0  0  0  0  0  0  0  0
    1.5151   -0.0211    1.1575 O   0  0  0  0  0  0  0  0  0  0  0  0
   -0.5369    0.6501    1.7985 N   0  0  0  0  0  0  0  0  0  0  0  0
   -1.5335    0.4815    1.6898 H   0  0  0  0  0  0  0  0  0  0  0  0
   -0.0806    1.2889    3.0304 C   0  0  0  0  0  0  0  0  0  0  0  0
    0.6994    2.0276    2.8171 H   0  0  0  0  0  0  0  0  0  0  0  0
   -0.9124    1.8023    3.5232 H   0  0  0  0  0  0  0  0  0  0  0  0
    0.3234    0.5423    3.7231 H   0  0  0  0  0  0  0  0  0  0  0  0
  1  2  1  0  0  0  0
  2  3  1  0  0  0  0
  2  4  1  0  0  0  0
  2  5  1  0  0  0  0
  5  6  2  0  0  0  0
  5  7  1  0  0  0  0
  7  8  1  0  0  0  0
  7  9  1  0  0  0  0
  9 10  1  0  0  0  0
  9 11  1  0  0  0  0
  9 23  1  0  0  0  0
 11 12  1  0  0  0  0
 11 13  1  0  0  0  0
 11 14  1  0  0  0  0
 14 15  1  0  0  0  0
 14 21  2  0  0  0  0
 15 16  1  0  0  0  0
 15 17  2  0  0  0  0
 17 18  1  0  0  0  0
 17 19  1  0  0  0  0
 19 20  1  0  0  0  0
 19 21  1  0  0  0  0
 21 22  1  0  0  0  0
 23 24  2  0  0  0  0
 23 25  1  0  0  0  0
 25 26  1  0  0  0  0
 25 27  1  0  0  0  0
 27 28  1  0  0  0  0
 27 29  1  0  0  0  0
 27 30  1  0  0  0  0
M  CHG  1  15   1
M  END
$$$$

  -OEChem-04042216003D

 30 30  0     1  0  0  0  0  0999 V2000
   -3.1866   -3.9307    1.3311 H   0  0  0  0  0  0  0  0  0  0  0  0
   -3.1853   -3.0879    0.6336 C   0  0  0  0  0  0  0  0  0  0  0  0
   -3.9267   -2.3576    0.9664 H   0  0  0  0  0  0  0  0  0  0  0  0
   -3.4618   -3.4542   -0.3580 H   0  0  0  0  0  0  0  0  0  0  0  0
   -1.8087   -2.4533    0.5896 C   0  0  0  0  0  0  0  0  0  0  0  0
   -0.9053   -2.8926    1.2781 O   0  0  0  0  0  0  0  0  0  0  0  0
   -1.5588   -1.3722   -0.2369 N   0  0  0  0  0  0  0  0  0  0  0  0
   -2.3349   -1.0333   -0.8003 H   0  0  0  0  0  0  0  0  0  0  0  0
   -0.2435   -0.7076   -0.3205 C   0  0  1  0  0  0  0  0  0  0  0  0
    0.4548   -1.5164   -0.5669 H   0  0  0  0  0  0  0  0  0  0  0  0
   -0.2075    0.3022   -1.4872 C   0  0  0  0  0  0  0  0  0  0  0  0
   -0.8803   -0.0330   -2.2833 H   0  0  0  0  0  0  0  0  0  0  0  0
   -0.5712    1.2738   -1.1346 H   0  0  0  0  0  0  0  0  0  0  0  0
    1.1810    0.4671   -2.0758 C   0  0  0  0  0  0  0  0  0  0  0  0
    2.3896    0.0592   -1.5017 N   0  3  0  0  0  0  0  0  0  0  0  0
    2.4521   -0.2388   -0.5142 H   0  0  0  0  0  0  0  0  0  0  0  0
    3.3939    0.3328   -2.2952 C   0  0  0  0  0  0  0  0  0  0  0  0
    4.4509    0.1755   -2.0722 H   0  0  0  0  0  0  0  0  0  0  0  0
    2.8583    0.8867   -3.4553 N   0  0  0  0  0  0  0  0  0  0  0  0
    3.3964    1.2032   -4.2679 H   0  0  0  0  0  0  0  0  0  0  0  0
    1.4766    0.9731   -3.3176 C   0  0  0  0  0  0  0  0  0  0  0  0
    0.7653    1.3611   -4.0467 H   0  0  0  0  0  0  0  0  0  0  0  0
    0.2960   -0.0931    0.9882 C   0  0  0  0  0  0  0  0  0  0  0  0
    1.5140   -0.0466    1.1323 O   0  0  0  0  0  0  0  0  0  0  0  0
   -0.5220    0.6556    1.8120 N   0  0  0  0  0  0  0  0  0  0  0  0
   -1.5226    0.5059    1.7138 H   0  0  0  0  0  0  0  0  0  0  0  0
   -0.0377    1.2840    3.0381 C   0  0  0  0  0  0  0  0  0  0  0  0
    0.7604    2.0006    2.8160 H   0  0  0  0  0  0  0  0  0  0  0  0
   -0.8503    1.8215    3.5371 H   0  0  0  0  0  0  0  0  0  0  0  0
    0.3523    0.5282    3.7289 H   0  0  0  0  0  0  0  0  0  0  0  0
  1  2  1  0  0  0  0
  2  3  1  0  0  0  0
  2  4  1  0  0  0  0
  2  5  1  0  0  0  0
  5  6  2  0  0  0  0
  5  7  1  0  0  0  0
  7  8  1  0  0  0  0
  7  9  1  0  0  0  0
  9 10  1  0  0  0  0
  9 11  1  0  0  0  0
  9 23  1  0  0  0  0
 11 12  1  0  0  0  0
 11 13  1  0  0  0  0
 11 14  1  0  0  0  0
 14 15  1  0  0  0  0
 14 21  2  0  0  0  0
 15 16  1  0  0  0  0
 15 17  2  0  0  0  0
 17 18  1  0  0  0  0
 17 19  1  0  0  0  0
 19 20  1  0  0  0  0
 19 21  1  0  0  0  0
 21 22  1  0  0  0  0
 23 24  2  0  0  0  0
 23 25  1  0  0  0  0
 25 26  1  0  0  0  0
 25 27  1  0  0  0  0
 27 28  1  0  0  0  0
 27 29  1  0  0  0  0
 27 30  1  0  0  0  0
M  CHG  1  15   1
M  END
$$$$

  -OEChem-04042216003D

 30 30  0     1  0  0  0  0  0999 V2000
   -3.1928   -3.9531    1.3093 H   0  0  0  0  0  0  0  0  0  0  0  0
   -3.2005   -3.0996    0.6250 C   0  0  0  0  0  0  0  0  0  0  0  0
   -3.9350   -2.3730    0.9803 H   0  0  0  0  0  0  0  0  0  0  0  0
   -3.4934   -3.4501   -0.3676 H   0  0  0  0  0  0  0  0  0  0  0  0
   -1.8238   -2.4666    0.5688 C   0  0  0  0  0  0  0  0  0  0  0  0
   -0.9100   -2.9163    1.2367 O   0  0  0  0  0  0  0  0  0  0  0  0
   -1.5840   -1.3751   -0.2467 N   0  0  0  0  0  0  0  0  0  0  0  0
   -2.3720   -1.0161   -0.7807 H   0  0  0  0  0  0  0  0  0  0  0  0
   -0.2747   -0.6988   -0.3245 C   0  0  1  0  0  0  0  0  0  0  0  0
    0.4150   -1.5170   -0.5606 H   0  0  0  0  0  0  0  0  0  0  0  0
   -0.2216    0.2876   -1.5091 C   0  0  0  0  0  0  0  0  0  0  0  0
   -0.8688   -0.0788   -2.3130 H   0  0  0  0  0  0  0  0  0  0  0  0
   -0.6085    1.2618   -1.1898 H   0  0  0  0  0  0  0  0  0  0  0  0
    1.1779    0.4535   -2.0715 C   0  0  0  0  0  0  0  0  0  0  0  0
    2.3480   -0.1715   -1.6260 N   0  3  0  0  0  0  0  0  0  0  0  0
    2.4033   -0.6149   -0.6967 H   0  0  0  0  0  0  0  0  0  0  0  0
    3.3702    0.1976   -2.3564 C   0  0  0  0  0  0  0  0  0  0  0  0
    4.4147   -0.0663   -2.1793 H   0  0  0  0  0  0  0  0  0  0  0  0
    2.8791    1.0243   -3.3635 N   0  0  0  0  0  0  0  0  0  0  0  0
    3.4414    1.4731   -4.0930 H   0  0  0  0  0  0  0  0  0  0  0  0
    1.5108    1.1921   -3.1801 C   0  0  0  0  0  0  0  0  0  0  0  0
    0.8321    1.7879   -3.7907 H   0  0  0  0  0  0  0  0  0  0  0  0
    0.2892   -0.0835    0.9701 C   0  0  0  0  0  0  0  0  0  0  0  0
    1.5105   -0.0608    1.0885 O   0  0  0  0  0  0  0  0  0  0  0  0
   -0.5074    0.6639    1.8157 N   0  0  0  0  0  0  0  0  0  0  0  0
   -1.5112    0.5258    1.7351 H   0  0  0  0  0  0  0  0  0  0  0  0
    0.0071    1.2842    3.0334 C   0  0  0  0  0  0  0  0  0  0  0  0
    0.8155    1.9851    2.7987 H   0  0  0  0  0  0  0  0  0  0  0  0
   -0.7876    1.8381    3.5432 H   0  0  0  0  0  0  0  0  0  0  0  0
    0.3924    0.5220    3.7196 H   0  0  0  0  0  0  0  0  0  0  0  0
  1  2  1  0  0  0  0
  2  3  1  0  0  0  0
  2  4  1  0  0  0  0
  2  5  1  0  0  0  0
  5  6  2  0  0  0  0
  5  7  1  0  0  0  0
  7  8  1  0  0  0  0
  7  9  1  0  0  0  0
  9 10  1  0  0  0  0
  9 11  1  0  0  0  0
  9 23  1  0  0  0  0
 11 12  1  0  0  0  0
 11 13  1  0  0  0  0
 11 14  1  0  0  0  0
 14 15  1  0  0  0  0
 14 21  2  0  0  0  0
 15 16  1  0  0  0  0
 15 17  2  0  0  0  0
 17 18  1  0  0  0  0
 17 19  1  0  0  0  0
 19 20  1  0  0  0  0
 19 21  1  0  0  0  0
 21 22  1  0  0  0  0
 23 24  2  0  0  0  0
 23 25  1  0  0  0  0
 25 26  1  0  0  0  0
 25 27  1  0  0  0  0
 27 28  1  0  0  0  0
 27 29  1  0  0  0  0
 27 30  1  0  0  0  0
M  CHG  1  15   1
M  END
$$$$

  -OEChem-04042216003D

 30 30  0     1  0  0  0  0  0999 V2000
   -3.2097   -3.9407    1.3421 H   0  0  0  0  0  0  0  0  0  0  0  0
   -3.2182   -3.0903    0.6538 C   0  0  0  0  0  0  0  0  0  0  0  0
   -3.9318   -2.3495    1.0221 H   0  0  0  0  0  0  0  0  0  0  0  0
   -3.5394   -3.4402   -0.3302 H   0  0  0  0  0  0  0  0  0  0  0  0
   -1.8323   -2.4816    0.5635 C   0  0  0  0  0  0  0  0  0  0  0  0
   -0.9095   -2.9482    1.2073 O   0  0  0  0  0  0  0  0  0  0  0  0
   -1.5937   -1.3944   -0.2580 N   0  0  0  0  0  0  0  0  0  0  0  0
   -2.3916   -1.0127   -0.7606 H   0  0  0  0  0  0  0  0  0  0  0  0
   -0.2843   -0.7188   -0.3381 C   0  0  1  0  0  0  0  0  0  0  0  0
    0.4017   -1.5415   -0.5640 H   0  0  0  0  0  0  0  0  0  0  0  0
   -0.2243    0.2617   -1.5254 C   0  0  0  0  0  0  0  0  0  0  0  0
   -0.8613   -0.1182   -2.3311 H   0  0  0  0  0  0  0  0  0  0  0  0
   -0.6207    1.2369   -1.2214 H   0  0  0  0  0  0  0  0  0  0  0  0
    1.1779    0.4215   -2.0818 C   0  0  0  0  0  0  0  0  0  0  0  0
    2.2942   -0.3899   -1.8475 N   0  3  0  0  0  0  0  0  0  0  0  0
    2.3185   -1.0800   -1.0879 H   0  0  0  0  0  0  0  0  0  0  0  0
    3.3420    0.0837   -2.4750 C   0  0  0  0  0  0  0  0  0  0  0  0
    4.3627   -0.2972   -2.4019 H   0  0  0  0  0  0  0  0  0  0  0  0
    2.9198    1.1897   -3.2071 N   0  0  0  0  0  0  0  0  0  0  0  0
    3.5182    1.7809   -3.7919 H   0  0  0  0  0  0  0  0  0  0  0  0
    1.5716    1.4096   -2.9503 C   0  0  0  0  0  0  0  0  0  0  0  0
    0.9481    2.2107   -3.3480 H   0  0  0  0  0  0  0  0  0  0  0  0
    0.2859   -0.0944    0.9478 C   0  0  0  0  0  0  0  0  0  0  0  0
    1.5065   -0.0685    1.0581 O   0  0  0  0  0  0  0  0  0  0  0  0
   -0.5070    0.6610    1.7902 N   0  0  0  0  0  0  0  0  0  0  0  0
   -1.5113    0.5238    1.7166 H   0  0  0  0  0  0  0  0  0  0  0  0
    0.0167    1.2990    2.9946 C   0  0  0  0  0  0  0  0  0  0  0  0
    0.8117    2.0085    2.7406 H   0  0  0  0  0  0  0  0  0  0  0  0
   -0.7778    1.8462    3.5117 H   0  0  0  0  0  0  0  0  0  0  0  0
    0.4234    0.5481    3.6809 H   0  0  0  0  0  0  0  0  0  0  0  0
  1  2  1  0  0  0  0
  2  3  1  0  0  0  0
  2  4  1  0  0  0  0
  2  5  1  0  0  0  0
  5  6  2  0  0  0  0
  5  7  1  0  0  0  0
  7  8  1  0  0  0  0
  7  9  1  0  0  0  0
  9 10  1  0  0  0  0
  9 11  1  0  0  0  0
  9 23  1  0  0  0  0
 11 12  1  0  0  0  0
 11 13  1  0  0  0  0
 11 14  1  0  0  0  0
 14 15  1  0  0  0  0
 14 21  2  0  0  0  0
 15 16  1  0  0  0  0
 15 17  2  0  0  0  0
 17 18  1  0  0  0  0
 17 19  1  0  0  0  0
 19 20  1  0  0  0  0
 19 21  1  0  0  0  0
 21 22  1  0  0  0  0
 23 24  2  0  0  0  0
 23 25  1  0  0  0  0
 25 26  1  0  0  0  0
 25 27  1  0  0  0  0
 27 28  1  0  0  0  0
 27 29  1  0  0  0  0
 27 30  1  0  0  0  0
M  CHG  1  15   1
M  END
$$$$

  -OEChem-04042216003D

 30 30  0     1  0  0  0  0  0999 V2000
   -3.1995   -3.9202    1.3917 H   0  0  0  0  0  0  0  0  0  0  0  0
   -3.2119   -3.0747    0.6975 C   0  0  0  0  0  0  0  0  0  0  0  0
   -3.9053   -2.3208    1.0776 H   0  0  0  0  0  0  0  0  0  0  0  0
   -3.5621   -3.4266   -0.2759 H   0  0  0  0  0  0  0  0  0  0  0  0
   -1.8193   -2.4881    0.5694 C   0  0  0  0  0  0  0  0  0  0  0  0
   -0.8886   -2.9667    1.1921 O   0  0  0  0  0  0  0  0  0  0  0  0
   -1.5822   -1.4121   -0.2671 N   0  0  0  0  0  0  0  0  0  0  0  0
   -2.3891   -1.0120   -0.7399 H   0  0  0  0  0  0  0  0  0  0  0  0
   -0.2718   -0.7394   -0.3600 C   0  0  1  0  0  0  0  0  0  0  0  0
    0.4231   -1.5541   -0.5833 H   0  0  0  0  0  0  0  0  0  0  0  0
   -0.2290    0.2543   -1.5362 C   0  0  0  0  0  0  0  0  0  0  0  0
   -0.8770   -0.1172   -2.3368 H   0  0  0  0  0  0  0  0  0  0  0  0
   -0.6212    1.2269   -1.2185 H   0  0  0  0  0  0  0  0  0  0  0  0
    1.1665    0.4083   -2.1088 C   0  0  0  0  0  0  0  0  0  0  0  0
    2.1956   -0.5397   -2.1470 N   0  3  0  0  0  0  0  0  0  0  0  0
    2.1257   -1.4552   -1.6940 H   0  0  0  0  0  0  0  0  0  0  0  0
    3.2869   -0.0119   -2.6440 C   0  0  0  0  0  0  0  0  0  0  0  0
    4.2582   -0.5020   -2.7344 H   0  0  0  0  0  0  0  0  0  0  0  0
    2.9857    1.3000   -2.9981 N   0  0  0  0  0  0  0  0  0  0  0  0
    3.6457    1.9783   -3.3905 H   0  0  0  0  0  0  0  0  0  0  0  0
    1.6668    1.5669   -2.6503 C   0  0  0  0  0  0  0  0  0  0  0  0
    1.1374    2.5137   -2.7582 H   0  0  0  0  0  0  0  0  0  0  0  0
    0.2889   -0.1035    0.9259 C   0  0  0  0  0  0  0  0  0  0  0  0
    1.5065   -0.0421    1.0387 O   0  0  0  0  0  0  0  0  0  0  0  0
   -0.5181    0.6563    1.7518 N   0  0  0  0  0  0  0  0  0  0  0  0
   -1.5192    0.4976    1.6807 H   0  0  0  0  0  0  0  0  0  0  0  0
   -0.0093    1.3143    2.9520 C   0  0  0  0  0  0  0  0  0  0  0  0
    0.7944    2.0140    2.6979 H   0  0  0  0  0  0  0  0  0  0  0  0
   -0.8083    1.8765    3.4455 H   0  0  0  0  0  0  0  0  0  0  0  0
    0.3815    0.5743    3.6591 H   0  0  0  0  0  0  0  0  0  0  0  0
  1  2  1  0  0  0  0
  2  3  1  0  0  0  0
  2  4  1  0  0  0  0
  2  5  1  0  0  0  0
  5  6  2  0  0  0  0
  5  7  1  0  0  0  0
  7  8  1  0  0  0  0
  7  9  1  0  0  0  0
  9 10  1  0  0  0  0
  9 11  1  0  0  0  0
  9 23  1  0  0  0  0
 11 12  1  0  0  0  0
 11 13  1  0  0  0  0
 11 14  1  0  0  0  0
 14 15  1  0  0  0  0
 14 21  2  0  0  0  0
 15 16  1  0  0  0  0
 15 17  2  0  0  0  0
 17 18  1  0  0  0  0
 17 19  1  0  0  0  0
 19 20  1  0  0  0  0
 19 21  1  0  0  0  0
 21 22  1  0  0  0  0
 23 24  2  0  0  0  0
 23 25  1  0  0  0  0
 25 26  1  0  0  0  0
 25 27  1  0  0  0  0
 27 28  1  0  0  0  0
 27 29  1  0  0  0  0
 27 30  1  0  0  0  0
M  CHG  1  15   1
M  END
$$$$

  -OEChem-04042216003D

 30 30  0     1  0  0  0  0  0999 V2000
   -3.1722   -3.9168    1.4078 H   0  0  0  0  0  0  0  0  0  0  0  0
   -3.1922   -3.0718    0.7131 C   0  0  0  0  0  0  0  0  0  0  0  0
   -3.8771   -2.3151    1.1029 H   0  0  0  0  0  0  0  0  0  0  0  0
   -3.5583   -3.4235   -0.2544 H   0  0  0  0  0  0  0  0  0  0  0  0
   -1.7998   -2.4897    0.5637 C   0  0  0  0  0  0  0  0  0  0  0  0
   -0.8615   -2.9730    1.1708 O   0  0  0  0  0  0  0  0  0  0  0  0
   -1.5715   -1.4145   -0.2764 N   0  0  0  0  0  0  0  0  0  0  0  0
   -2.3853   -1.0091   -0.7330 H   0  0  0  0  0  0  0  0  0  0  0  0
   -0.2630   -0.7381   -0.3787 C   0  0  1  0  0  0  0  0  0  0  0  0
    0.4442   -1.5401   -0.6128 H   0  0  0  0  0  0  0  0  0  0  0  0
   -0.2423    0.2763   -1.5372 C   0  0  0  0  0  0  0  0  0  0  0  0
   -0.9039   -0.0727   -2.3366 H   0  0  0  0  0  0  0  0  0  0  0  0
   -0.6229    1.2448   -1.1941 H   0  0  0  0  0  0  0  0  0  0  0  0
    1.1490    0.4253   -2.1157 C   0  0  0  0  0  0  0  0  0  0  0  0
    2.0573   -0.5890   -2.4360 N   0  3  0  0  0  0  0  0  0  0  0  0
    1.8647   -1.5818   -2.2794 H   0  0  0  0  0  0  0  0  0  0  0  0
    3.1996   -0.0745   -2.8212 C   0  0  0  0  0  0  0  0  0  0  0  0
    4.1024   -0.6279   -3.0869 H   0  0  0  0  0  0  0  0  0  0  0  0
    3.0569    1.3101   -2.7983 N   0  0  0  0  0  0  0  0  0  0  0  0
    3.7934    1.9893   -3.0124 H   0  0  0  0  0  0  0  0  0  0  0  0
    1.7809    1.6221   -2.3461 C   0  0  0  0  0  0  0  0  0  0  0  0
    1.3708    2.6165   -2.1696 H   0  0  0  0  0  0  0  0  0  0  0  0
    0.2925   -0.1023    0.9114 C   0  0  0  0  0  0  0  0  0  0  0  0
    1.5077   -0.0063    1.0211 O   0  0  0  0  0  0  0  0  0  0  0  0
   -0.5252    0.6504    1.7342 N   0  0  0  0  0  0  0  0  0  0  0  0
   -1.5227    0.4690    1.6701 H   0  0  0  0  0  0  0  0  0  0  0  0
   -0.0247    1.3258    2.9287 C   0  0  0  0  0  0  0  0  0  0  0  0
    0.7618    2.0421    2.6672 H   0  0  0  0  0  0  0  0  0  0  0  0
   -0.8330    1.8725    3.4244 H   0  0  0  0  0  0  0  0  0  0  0  0
    0.3865    0.5982    3.6370 H   0  0  0  0  0  0  0  0  0  0  0  0
  1  2  1  0  0  0  0
  2  3  1  0  0  0  0
  2  4  1  0  0  0  0
  2  5  1  0  0  0  0
  5  6  2  0  0  0  0
  5  7  1  0  0  0  0
  7  8  1  0  0  0  0
  7  9  1  0  0  0  0
  9 10  1  0  0  0  0
  9 11  1  0  0  0  0
  9 23  1  0  0  0  0
 11 12  1  0  0  0  0
 11 13  1  0  0  0  0
 11 14  1  0  0  0  0
 14 15  1  0  0  0  0
 14 21  2  0  0  0  0
 15 16  1  0  0  0  0
 15 17  2  0  0  0  0
 17 18  1  0  0  0  0
 17 19  1  0  0  0  0
 19 20  1  0  0  0  0
 19 21  1  0  0  0  0
 21 22  1  0  0  0  0
 23 24  2  0  0  0  0
 23 25  1  0  0  0  0
 25 26  1  0  0  0  0
 25 27  1  0  0  0  0
 27 28  1  0  0  0  0
 27 29  1  0  0  0  0
 27 30  1  0  0  0  0
M  CHG  1  15   1
M  END
$$$$

  -OEChem-04042216003D

 30 30  0     1  0  0  0  0  0999 V2000
   -3.1420   -3.9131    1.4105 H   0  0  0  0  0  0  0  0  0  0  0  0
   -3.1668   -3.0687    0.7153 C   0  0  0  0  0  0  0  0  0  0  0  0
   -3.8518   -2.3134    1.1077 H   0  0  0  0  0  0  0  0  0  0  0  0
   -3.5364   -3.4214   -0.2505 H   0  0  0  0  0  0  0  0  0  0  0  0
   -1.7767   -2.4832    0.5591 C   0  0  0  0  0  0  0  0  0  0  0  0
   -0.8340   -2.9648    1.1604 O   0  0  0  0  0  0  0  0  0  0  0  0
   -1.5580   -1.4056   -0.2806 N   0  0  0  0  0  0  0  0  0  0  0  0
   -2.3766   -1.0017   -0.7298 H   0  0  0  0  0  0  0  0  0  0  0  0
   -0.2533   -0.7231   -0.3904 C   0  0  1  0  0  0  0  0  0  0  0  0
    0.4643   -1.5130   -0.6378 H   0  0  0  0  0  0  0  0  0  0  0  0
   -0.2533    0.3047   -1.5362 C   0  0  0  0  0  0  0  0  0  0  0  0
   -0.9270   -0.0244   -2.3339 H   0  0  0  0  0  0  0  0  0  0  0  0
   -0.6212    1.2705   -1.1723 H   0  0  0  0  0  0  0  0  0  0  0  0
    1.1363    0.4473   -2.1137 C   0  0  0  0  0  0  0  0  0  0  0  0
    1.9140   -0.5519   -2.7055 N   0  3  0  0  0  0  0  0  0  0  0  0
    1.6001   -1.5210   -2.8031 H   0  0  0  0  0  0  0  0  0  0  0  0
    3.1029   -0.0859   -3.0029 C   0  0  0  0  0  0  0  0  0  0  0  0
    3.9300   -0.6498   -3.4384 H   0  0  0  0  0  0  0  0  0  0  0  0
    3.1244    1.2569   -2.6346 N   0  0  0  0  0  0  0  0  0  0  0  0
    3.9339    1.8814   -2.7000 H   0  0  0  0  0  0  0  0  0  0  0  0
    1.8987    1.5876   -2.0711 C   0  0  0  0  0  0  0  0  0  0  0  0
    1.6109    2.5437   -1.6336 H   0  0  0  0  0  0  0  0  0  0  0  0
    0.2969   -0.0904    0.9048 C   0  0  0  0  0  0  0  0  0  0  0  0
    1.5096    0.0329    1.0146 O   0  0  0  0  0  0  0  0  0  0  0  0
   -0.5315    0.6513    1.7274 N   0  0  0  0  0  0  0  0  0  0  0  0
   -1.5260    0.4548    1.6611 H   0  0  0  0  0  0  0  0  0  0  0  0
   -0.0435    1.3221    2.9297 C   0  0  0  0  0  0  0  0  0  0  0  0
    0.7248    2.0604    2.6759 H   0  0  0  0  0  0  0  0  0  0  0  0
   -0.8634    1.8419    3.4353 H   0  0  0  0  0  0  0  0  0  0  0  0
    0.3869    0.5945    3.6268 H   0  0  0  0  0  0  0  0  0  0  0  0
  1  2  1  0  0  0  0
  2  3  1  0  0  0  0
  2  4  1  0  0  0  0
  2  5  1  0  0  0  0
  5  6  2  0  0  0  0
  5  7  1  0  0  0  0
  7  8  1  0  0  0  0
  7  9  1  0  0  0  0
  9 10  1  0  0  0  0
  9 11  1  0  0  0  0
  9 23  1  0  0  0  0
 11 12  1  0  0  0  0
 11 13  1  0  0  0  0
 11 14  1  0  0  0  0
 14 15  1  0  0  0  0
 14 21  2  0  0  0  0
 15 16  1  0  0  0  0
 15 17  2  0  0  0  0
 17 18  1  0  0  0  0
 17 19  1  0  0  0  0
 19 20  1  0  0  0  0
 19 21  1  0  0  0  0
 21 22  1  0  0  0  0
 23 24  2  0  0  0  0
 23 25  1  0  0  0  0
 25 26  1  0  0  0  0
 25 27  1  0  0  0  0
 27 28  1  0  0  0  0
 27 29  1  0  0  0  0
 27 30  1  0  0  0  0
M  CHG  1  15   1
M  END
$$$$

  -OEChem-04042216003D

 30 30  0     1  0  0  0  0  0999 V2000
   -3.1293   -3.9069    1.4126 H   0  0  0  0  0  0  0  0  0  0  0  0
   -3.1553   -3.0656    0.7136 C   0  0  0  0  0  0  0  0  0  0  0  0
   -3.8453   -2.3117    1.0997 H   0  0  0  0  0  0  0  0  0  0  0  0
   -3.5191   -3.4246   -0.2521 H   0  0  0  0  0  0  0  0  0  0  0  0
   -1.7668   -2.4752    0.5606 C   0  0  0  0  0  0  0  0  0  0  0  0
   -0.8258   -2.9502    1.1696 O   0  0  0  0  0  0  0  0  0  0  0  0
   -1.5497   -1.3968   -0.2784 N   0  0  0  0  0  0  0  0  0  0  0  0
   -2.3684   -0.9966   -0.7304 H   0  0  0  0  0  0  0  0  0  0  0  0
   -0.2444   -0.7144   -0.3923 C   0  0  1  0  0  0  0  0  0  0  0  0
    0.4778   -1.4979   -0.6517 H   0  0  0  0  0  0  0  0  0  0  0  0
   -0.2539    0.3243   -1.5280 C   0  0  0  0  0  0  0  0  0  0  0  0
   -0.9396    0.0140   -2.3227 H   0  0  0  0  0  0  0  0  0  0  0  0
   -0.6080    1.2892   -1.1474 H   0  0  0  0  0  0  0  0  0  0  0  0
    1.1342    0.4615   -2.1080 C   0  0  0  0  0  0  0  0  0  0  0  0
    1.7883   -0.4356   -2.9555 N   0  3  0  0  0  0  0  0  0  0  0  0
    1.3667   -1.3109   -3.2763 H   0  0  0  0  0  0  0  0  0  0  0  0
    3.0142   -0.0300   -3.1858 C   0  0  0  0  0  0  0  0  0  0  0  0
    3.7675   -0.5462   -3.7841 H   0  0  0  0  0  0  0  0  0  0  0  0
    3.1873    1.1723   -2.5042 N   0  0  0  0  0  0  0  0  0  0  0  0
    4.0585    1.7086   -2.4479 H   0  0  0  0  0  0  0  0  0  0  0  0
    2.0143    1.4758   -1.8259 C   0  0  0  0  0  0  0  0  0  0  0  0
    1.8395    2.3145   -1.1511 H   0  0  0  0  0  0  0  0  0  0  0  0
    0.3007   -0.0870    0.9093 C   0  0  0  0  0  0  0  0  0  0  0  0
    1.5114    0.0548    1.0229 O   0  0  0  0  0  0  0  0  0  0  0  0
   -0.5357    0.6484    1.7297 N   0  0  0  0  0  0  0  0  0  0  0  0
   -1.5279    0.4414    1.6616 H   0  0  0  0  0  0  0  0  0  0  0  0
   -0.0570    1.3188    2.9359 C   0  0  0  0  0  0  0  0  0  0  0  0
    0.6975    2.0722    2.6858 H   0  0  0  0  0  0  0  0  0  0  0  0
   -0.8847    1.8206    3.4470 H   0  0  0  0  0  0  0  0  0  0  0  0
    0.3878    0.5940    3.6266 H   0  0  0  0  0  0  0  0  0  0  0  0
  1  2  1  0  0  0  0
  2  3  1  0  0  0  0
  2  4  1  0  0  0  0
  2  5  1  0  0  0  0
  5  6  2  0  0  0  0
  5  7  1  0  0  0  0
  7  8  1  0  0  0  0
  7  9  1  0  0  0  0
  9 10  1  0  0  0  0
  9 11  1  0  0  0  0
  9 23  1  0  0  0  0
 11 12  1  0  0  0  0
 11 13  1  0  0  0  0
 11 14  1  0  0  0  0
 14 15  1  0  0  0  0
 14 21  2  0  0  0  0
 15 16  1  0  0  0  0
 15 17  2  0  0  0  0
 17 18  1  0  0  0  0
 17 19  1  0  0  0  0
 19 20  1  0  0  0  0
 19 21  1  0  0  0  0
 21 22  1  0  0  0  0
 23 24  2  0  0  0  0
 23 25  1  0  0  0  0
 25 26  1  0  0  0  0
 25 27  1  0  0  0  0
 27 28  1  0  0  0  0
 27 29  1  0  0  0  0
 27 30  1  0  0  0  0
M  CHG  1  15   1
M  END
$$$$

  -OEChem-04042216003D

 30 30  0     1  0  0  0  0  0999 V2000
   -3.1404   -3.8892    1.4172 H   0  0  0  0  0  0  0  0  0  0  0  0
   -3.1553   -3.0535    0.7112 C   0  0  0  0  0  0  0  0  0  0  0  0
   -3.8516   -2.2968    1.0800 H   0  0  0  0  0  0  0  0  0  0  0  0
   -3.5032   -3.4208   -0.2572 H   0  0  0  0  0  0  0  0  0  0  0  0
   -1.7647   -2.4640    0.5757 C   0  0  0  0  0  0  0  0  0  0  0  0
   -0.8334   -2.9374    1.2004 O   0  0  0  0  0  0  0  0  0  0  0  0
   -1.5357   -1.3895   -0.2653 N   0  0  0  0  0  0  0  0  0  0  0  0
   -2.3460   -0.9966   -0.7377 H   0  0  0  0  0  0  0  0  0  0  0  0
   -0.2251   -0.7166   -0.3763 C   0  0  1  0  0  0  0  0  0  0  0  0
    0.4978   -1.4989   -0.6381 H   0  0  0  0  0  0  0  0  0  0  0  0
   -0.2345    0.3259   -1.5101 C   0  0  0  0  0  0  0  0  0  0  0  0
   -0.9306    0.0249   -2.2991 H   0  0  0  0  0  0  0  0  0  0  0  0
   -0.5777    1.2917   -1.1219 H   0  0  0  0  0  0  0  0  0  0  0  0
    1.1492    0.4643   -2.1022 C   0  0  0  0  0  0  0  0  0  0  0  0
    1.6876   -0.2604   -3.1682 N   0  3  0  0  0  0  0  0  0  0  0  0
    1.1734   -0.9933   -3.6635 H   0  0  0  0  0  0  0  0  0  0  0  0
    2.9364    0.0878   -3.3692 C   0  0  0  0  0  0  0  0  0  0  0  0
    3.6160   -0.3302   -4.1144 H   0  0  0  0  0  0  0  0  0  0  0  0
    3.2440    1.0795   -2.4407 N   0  0  0  0  0  0  0  0  0  0  0  0
    4.1607    1.5194   -2.3136 H   0  0  0  0  0  0  0  0  0  0  0  0
    2.1282    1.3121   -1.6486 C   0  0  0  0  0  0  0  0  0  0  0  0
    2.0531    1.9843   -0.7920 H   0  0  0  0  0  0  0  0  0  0  0  0
    0.3041   -0.0949    0.9359 C   0  0  0  0  0  0  0  0  0  0  0  0
    1.5126    0.0426    1.0745 O   0  0  0  0  0  0  0  0  0  0  0  0
   -0.5436    0.6412    1.7442 N   0  0  0  0  0  0  0  0  0  0  0  0
   -1.5347    0.4344    1.6597 H   0  0  0  0  0  0  0  0  0  0  0  0
   -0.0850    1.3068    2.9611 C   0  0  0  0  0  0  0  0  0  0  0  0
    0.6709    2.0636    2.7256 H   0  0  0  0  0  0  0  0  0  0  0  0
   -0.9220    1.8034    3.4622 H   0  0  0  0  0  0  0  0  0  0  0  0
    0.3516    0.5802    3.6552 H   0  0  0  0  0  0  0  0  0  0  0  0
  1  2  1  0  0  0  0
  2  3  1  0  0  0  0
  2  4  1  0  0  0  0
  2  5  1  0  0  0  0
  5  6  2  0  0  0  0
  5  7  1  0  0  0  0
  7  8  1  0  0  0  0
  7  9  1  0  0  0  0
  9 10  1  0  0  0  0
  9 11  1  0  0  0  0
  9 23  1  0  0  0  0
 11 12  1  0  0  0  0
 11 13  1  0  0  0  0
 11 14  1  0  0  0  0
 14 15  1  0  0  0  0
 14 21  2  0  0  0  0
 15 16  1  0  0  0  0
 15 17  2  0  0  0  0
 17 18  1  0  0  0  0
 17 19  1  0  0  0  0
 19 20  1  0  0  0  0
 19 21  1  0  0  0  0
 21 22  1  0  0  0  0
 23 24  2  0  0  0  0
 23 25  1  0  0  0  0
 25 26  1  0  0  0  0
 25 27  1  0  0  0  0
 27 28  1  0  0  0  0
 27 29  1  0  0  0  0
 27 30  1  0  0  0  0
M  CHG  1  15   1
M  END
$$$$

  -OEChem-04042216003D

 30 30  0     1  0  0  0  0  0999 V2000
   -3.1712   -3.8711    1.4134 H   0  0  0  0  0  0  0  0  0  0  0  0
   -3.1673   -3.0341    0.7088 C   0  0  0  0  0  0  0  0  0  0  0  0
   -3.8654   -2.2734    1.0659 H   0  0  0  0  0  0  0  0  0  0  0  0
   -3.4992   -3.3976   -0.2665 H   0  0  0  0  0  0  0  0  0  0  0  0
   -1.7704   -2.4534    0.6008 C   0  0  0  0  0  0  0  0  0  0  0  0
   -0.8581   -2.9233    1.2550 O   0  0  0  0  0  0  0  0  0  0  0  0
   -1.5167   -1.3888   -0.2461 N   0  0  0  0  0  0  0  0  0  0  0  0
   -2.3128   -1.0038   -0.7480 H   0  0  0  0  0  0  0  0  0  0  0  0
   -0.1975   -0.7298   -0.3469 C   0  0  1  0  0  0  0  0  0  0  0  0
    0.5256   -1.5160   -0.5975 H   0  0  0  0  0  0  0  0  0  0  0  0
   -0.1986    0.3049   -1.4906 C   0  0  0  0  0  0  0  0  0  0  0  0
   -0.8987   -0.0040   -2.2730 H   0  0  0  0  0  0  0  0  0  0  0  0
   -0.5423    1.2736   -1.1105 H   0  0  0  0  0  0  0  0  0  0  0  0
    1.1792    0.4528   -2.0995 C   0  0  0  0  0  0  0  0  0  0  0  0
    1.6091   -0.0525   -3.3295 N   0  3  0  0  0  0  0  0  0  0  0  0
    1.0130   -0.6136   -3.9432 H   0  0  0  0  0  0  0  0  0  0  0  0
    2.8685    0.2534   -3.5342 C   0  0  0  0  0  0  0  0  0  0  0  0
    3.4740   -0.0269   -4.3985 H   0  0  0  0  0  0  0  0  0  0  0  0
    3.2967    0.9955   -2.4366 N   0  0  0  0  0  0  0  0  0  0  0  0
    4.2445    1.3548   -2.2859 H   0  0  0  0  0  0  0  0  0  0  0  0
    2.2413    1.1241   -1.5451 C   0  0  0  0  0  0  0  0  0  0  0  0
    2.2571    1.6230   -0.5738 H   0  0  0  0  0  0  0  0  0  0  0  0
    0.3066   -0.1068    0.9751 C   0  0  0  0  0  0  0  0  0  0  0  0
    1.5121   -0.0059    1.1608 O   0  0  0  0  0  0  0  0  0  0  0  0
   -0.5526    0.6392    1.7620 N   0  0  0  0  0  0  0  0  0  0  0  0
   -1.5441    0.4525    1.6429 H   0  0  0  0  0  0  0  0  0  0  0  0
   -0.1224    1.2782    3.0035 C   0  0  0  0  0  0  0  0  0  0  0  0
    0.6969    1.9801    2.8143 H   0  0  0  0  0  0  0  0  0  0  0  0
   -0.9513    1.8347    3.4524 H   0  0  0  0  0  0  0  0  0  0  0  0
    0.2200    0.5263    3.7231 H   0  0  0  0  0  0  0  0  0  0  0  0
  1  2  1  0  0  0  0
  2  3  1  0  0  0  0
  2  4  1  0  0  0  0
  2  5  1  0  0  0  0
  5  6  2  0  0  0  0
  5  7  1  0  0  0  0
  7  8  1  0  0  0  0
  7  9  1  0  0  0  0
  9 10  1  0  0  0  0
  9 11  1  0  0  0  0
  9 23  1  0  0  0  0
 11 12  1  0  0  0  0
 11 13  1  0  0  0  0
 11 14  1  0  0  0  0
 14 15  1  0  0  0  0
 14 21  2  0  0  0  0
 15 16  1  0  0  0  0
 15 17  2  0  0  0  0
 17 18  1  0  0  0  0
 17 19  1  0  0  0  0
 19 20  1  0  0  0  0
 19 21  1  0  0  0  0
 21 22  1  0  0  0  0
 23 24  2  0  0  0  0
 23 25  1  0  0  0  0
 25 26  1  0  0  0  0
 25 27  1  0  0  0  0
 27 28  1  0  0  0  0
 27 29  1  0  0  0  0
 27 30  1  0  0  0  0
M  CHG  1  15   1
M  END
$$$$

  -OEChem-04042216003D

 30 30  0     1  0  0  0  0  0999 V2000
   -3.2019   -3.8360    1.4262 H   0  0  0  0  0  0  0  0  0  0  0  0
   -3.1771   -3.0106    0.7085 C   0  0  0  0  0  0  0  0  0  0  0  0
   -3.8763   -2.2389    1.0392 H   0  0  0  0  0  0  0  0  0  0  0  0
   -3.4918   -3.3871   -0.2677 H   0  0  0  0  0  0  0  0  0  0  0  0
   -1.7738   -2.4427    0.6193 C   0  0  0  0  0  0  0  0  0  0  0  0
   -0.8772   -2.9174    1.2915 O   0  0  0  0  0  0  0  0  0  0  0  0
   -1.4970   -1.3882   -0.2335 N   0  0  0  0  0  0  0  0  0  0  0  0
   -2.2816   -1.0017   -0.7516 H   0  0  0  0  0  0  0  0  0  0  0  0
   -0.1697   -0.7420   -0.3193 C   0  0  1  0  0  0  0  0  0  0  0  0
    0.5545   -1.5320   -0.5545 H   0  0  0  0  0  0  0  0  0  0  0  0
   -0.1590    0.2826   -1.4752 C   0  0  0  0  0  0  0  0  0  0  0  0
   -0.8556   -0.0444   -2.2534 H   0  0  0  0  0  0  0  0  0  0  0  0
   -0.5125    1.2535   -1.1103 H   0  0  0  0  0  0  0  0  0  0  0  0
    1.2134    0.4442   -2.0996 C   0  0  0  0  0  0  0  0  0  0  0  0
    1.5371    0.1937   -3.4367 N   0  3  0  0  0  0  0  0  0  0  0  0
    0.8617   -0.1621   -4.1177 H   0  0  0  0  0  0  0  0  0  0  0  0
    2.8071    0.4378   -3.6576 C   0  0  0  0  0  0  0  0  0  0  0  0
    3.3397    0.3123   -4.6025 H   0  0  0  0  0  0  0  0  0  0  0  0
    3.3545    0.8833   -2.4585 N   0  0  0  0  0  0  0  0  0  0  0  0
    4.3343    1.1402   -2.3021 H   0  0  0  0  0  0  0  0  0  0  0  0
    2.3600    0.8980   -1.4913 C   0  0  0  0  0  0  0  0  0  0  0  0
    2.4743    1.2024   -0.4496 H   0  0  0  0  0  0  0  0  0  0  0  0
    0.3023   -0.1166    1.0136 C   0  0  0  0  0  0  0  0  0  0  0  0
    1.4987   -0.0748    1.2646 O   0  0  0  0  0  0  0  0  0  0  0  0
   -0.5690    0.6392    1.7773 N   0  0  0  0  0  0  0  0  0  0  0  0
   -1.5597    0.4890    1.6112 H   0  0  0  0  0  0  0  0  0  0  0  0
   -0.1712    1.2515    3.0426 C   0  0  0  0  0  0  0  0  0  0  0  0
    0.6410    1.9696    2.8862 H   0  0  0  0  0  0  0  0  0  0  0  0
   -1.0162    1.7834    3.4910 H   0  0  0  0  0  0  0  0  0  0  0  0
    0.1692    0.4860    3.7487 H   0  0  0  0  0  0  0  0  0  0  0  0
  1  2  1  0  0  0  0
  2  3  1  0  0  0  0
  2  4  1  0  0  0  0
  2  5  1  0  0  0  0
  5  6  2  0  0  0  0
  5  7  1  0  0  0  0
  7  8  1  0  0  0  0
  7  9  1  0  0  0  0
  9 10  1  0  0  0  0
  9 11  1  0  0  0  0
  9 23  1  0  0  0  0
 11 12  1  0  0  0  0
 11 13  1  0  0  0  0
 11 14  1  0  0  0  0
 14 15  1  0  0  0  0
 14 21  2  0  0  0  0
 15 16  1  0  0  0  0
 15 17  2  0  0  0  0
 17 18  1  0  0  0  0
 17 19  1  0  0  0  0
 19 20  1  0  0  0  0
 19 21  1  0  0  0  0
 21 22  1  0  0  0  0
 23 24  2  0  0  0  0
 23 25  1  0  0  0  0
 25 26  1  0  0  0  0
 25 27  1  0  0  0  0
 27 28  1  0  0  0  0
 27 29  1  0  0  0  0
 27 30  1  0  0  0  0
M  CHG  1  15   1
M  END
$$$$

  -OEChem-04042216003D

 30 30  0     1  0  0  0  0  0999 V2000
   -3.2233   -3.8124    1.4308 H   0  0  0  0  0  0  0  0  0  0  0  0
   -3.1768   -2.9934    0.7068 C   0  0  0  0  0  0  0  0  0  0  0  0
   -3.8772   -2.2138    1.0152 H   0  0  0  0  0  0  0  0  0  0  0  0
   -3.4730   -3.3762   -0.2727 H   0  0  0  0  0  0  0  0  0  0  0  0
   -1.7680   -2.4351    0.6445 C   0  0  0  0  0  0  0  0  0  0  0  0
   -0.8921   -2.9038    1.3472 O   0  0  0  0  0  0  0  0  0  0  0  0
   -1.4646   -1.3957   -0.2179 N   0  0  0  0  0  0  0  0  0  0  0  0
   -2.2315   -1.0261   -0.7733 H   0  0  0  0  0  0  0  0  0  0  0  0
   -0.1315   -0.7579   -0.2876 C   0  0  1  0  0  0  0  0  0  0  0  0
    0.5977   -1.5479   -0.5057 H   0  0  0  0  0  0  0  0  0  0  0  0
   -0.1133    0.2653   -1.4460 C   0  0  0  0  0  0  0  0  0  0  0  0
   -0.8042   -0.0810   -2.2208 H   0  0  0  0  0  0  0  0  0  0  0  0
   -0.4832    1.2339   -1.0908 H   0  0  0  0  0  0  0  0  0  0  0  0
    1.2478    0.4536   -2.0938 C   0  0  0  0  0  0  0  0  0  0  0  0
    1.4657    0.5015   -3.4751 N   0  3  0  0  0  0  0  0  0  0  0  0
    0.7124    0.4138   -4.1619 H   0  0  0  0  0  0  0  0  0  0  0  0
    2.7404    0.6580   -3.7408 C   0  0  0  0  0  0  0  0  0  0  0  0
    3.1970    0.7235   -4.7305 H   0  0  0  0  0  0  0  0  0  0  0  0
    3.4071    0.7229   -2.5222 N   0  0  0  0  0  0  0  0  0  0  0  0
    4.4177    0.8365   -2.3940 H   0  0  0  0  0  0  0  0  0  0  0  0
    2.4802    0.5964   -1.4974 C   0  0  0  0  0  0  0  0  0  0  0  0
    2.7043    0.6122   -0.4311 H   0  0  0  0  0  0  0  0  0  0  0  0
    0.3005   -0.1195    1.0540 C   0  0  0  0  0  0  0  0  0  0  0  0
    1.4829   -0.1106    1.3644 O   0  0  0  0  0  0  0  0  0  0  0  0
   -0.5920    0.6464    1.7827 N   0  0  0  0  0  0  0  0  0  0  0  0
   -1.5764    0.5110    1.5730 H   0  0  0  0  0  0  0  0  0  0  0  0
   -0.2417    1.2449    3.0683 C   0  0  0  0  0  0  0  0  0  0  0  0
    0.6140    1.9203    2.9607 H   0  0  0  0  0  0  0  0  0  0  0  0
   -1.0843    1.8214    3.4627 H   0  0  0  0  0  0  0  0  0  0  0  0
    0.0161    0.4668    3.7953 H   0  0  0  0  0  0  0  0  0  0  0  0
  1  2  1  0  0  0  0
  2  3  1  0  0  0  0
  2  4  1  0  0  0  0
  2  5  1  0  0  0  0
  5  6  2  0  0  0  0
  5  7  1  0  0  0  0
  7  8  1  0  0  0  0
  7  9  1  0  0  0  0
  9 10  1  0  0  0  0
  9 11  1  0  0  0  0
  9 23  1  0  0  0  0
 11 12  1  0  0  0  0
 11 13  1  0  0  0  0
 11 14  1  0  0  0  0
 14 15  1  0  0  0  0
 14 21  2  0  0  0  0
 15 16  1  0  0  0  0
 15 17  2  0  0  0  0
 17 18  1  0  0  0  0
 17 19  1  0  0  0  0
 19 20  1  0  0  0  0
 19 21  1  0  0  0  0
 21 22  1  0  0  0  0
 23 24  2  0  0  0  0
 23 25  1  0  0  0  0
 25 26  1  0  0  0  0
 25 27  1  0  0  0  0
 27 28  1  0  0  0  0
 27 29  1  0  0  0  0
 27 30  1  0  0  0  0
M  CHG  1  15   1
M  END
$$$$

  -OEChem-04042216003D

 30 30  0     1  0  0  0  0  0999 V2000
   -3.2298   -3.8283    1.4222 H   0  0  0  0  0  0  0  0  0  0  0  0
   -3.1803   -3.0126    0.6947 C   0  0  0  0  0  0  0  0  0  0  0  0
   -3.8951   -2.2398    0.9871 H   0  0  0  0  0  0  0  0  0  0  0  0
   -3.4551   -3.4040   -0.2876 H   0  0  0  0  0  0  0  0  0  0  0  0
   -1.7774   -2.4383    0.6535 C   0  0  0  0  0  0  0  0  0  0  0  0
   -0.9080   -2.8933    1.3733 O   0  0  0  0  0  0  0  0  0  0  0  0
   -1.4697   -1.4020   -0.2110 N   0  0  0  0  0  0  0  0  0  0  0  0
   -2.2260   -1.0535   -0.7939 H   0  0  0  0  0  0  0  0  0  0  0  0
   -0.1354   -0.7670   -0.2770 C   0  0  1  0  0  0  0  0  0  0  0  0
    0.5888   -1.5614   -0.4936 H   0  0  0  0  0  0  0  0  0  0  0  0
   -0.1036    0.2652   -1.4268 C   0  0  0  0  0  0  0  0  0  0  0  0
   -0.7890   -0.0791   -2.2076 H   0  0  0  0  0  0  0  0  0  0  0  0
   -0.4759    1.2316   -1.0685 H   0  0  0  0  0  0  0  0  0  0  0  0
    1.2583    0.4582   -2.0744 C   0  0  0  0  0  0  0  0  0  0  0  0
    1.4436    0.8191   -3.4134 N   0  3  0  0  0  0  0  0  0  0  0  0
    0.6674    1.0204   -4.0487 H   0  0  0  0  0  0  0  0  0  0  0  0
    2.7200    0.8794   -3.7086 C   0  0  0  0  0  0  0  0  0  0  0  0
    3.1540    1.1463   -4.6742 H   0  0  0  0  0  0  0  0  0  0  0  0
    3.4223    0.5388   -2.5581 N   0  0  0  0  0  0  0  0  0  0  0  0
    4.4421    0.4935   -2.4658 H   0  0  0  0  0  0  0  0  0  0  0  0
    2.5152    0.2660   -1.5445 C   0  0  0  0  0  0  0  0  0  0  0  0
    2.7692   -0.0423   -0.5303 H   0  0  0  0  0  0  0  0  0  0  0  0
    0.2958   -0.1241    1.0636 C   0  0  0  0  0  0  0  0  0  0  0  0
    1.4805   -0.0977    1.3649 O   0  0  0  0  0  0  0  0  0  0  0  0
   -0.5970    0.6465    1.7869 N   0  0  0  0  0  0  0  0  0  0  0  0
   -1.5820    0.5001    1.5880 H   0  0  0  0  0  0  0  0  0  0  0  0
   -0.2392    1.2779    3.0548 C   0  0  0  0  0  0  0  0  0  0  0  0
    0.6154    1.9505    2.9239 H   0  0  0  0  0  0  0  0  0  0  0  0
   -1.0795    1.8648    3.4388 H   0  0  0  0  0  0  0  0  0  0  0  0
    0.0238    0.5193    3.8003 H   0  0  0  0  0  0  0  0  0  0  0  0
  1  2  1  0  0  0  0
  2  3  1  0  0  0  0
  2  4  1  0  0  0  0
  2  5  1  0  0  0  0
  5  6  2  0  0  0  0
  5  7  1  0  0  0  0
  7  8  1  0  0  0  0
  7  9  1  0  0  0  0
  9 10  1  0  0  0  0
  9 11  1  0  0  0  0
  9 23  1  0  0  0  0
 11 12  1  0  0  0  0
 11 13  1  0  0  0  0
 11 14  1  0  0  0  0
 14 15  1  0  0  0  0
 14 21  2  0  0  0  0
 15 16  1  0  0  0  0
 15 17  2  0  0  0  0
 17 18  1  0  0  0  0
 17 19  1  0  0  0  0
 19 20  1  0  0  0  0
 19 21  1  0  0  0  0
 21 22  1  0  0  0  0
 23 24  2  0  0  0  0
 23 25  1  0  0  0  0
 25 26  1  0  0  0  0
 25 27  1  0  0  0  0
 27 28  1  0  0  0  0
 27 29  1  0  0  0  0
 27 30  1  0  0  0  0
M  CHG  1  15   1
M  END
$$$$

  -OEChem-04042216003D

 30 30  0     1  0  0  0  0  0999 V2000
   -3.2457   -3.8512    1.4077 H   0  0  0  0  0  0  0  0  0  0  0  0
   -3.2008   -3.0335    0.6821 C   0  0  0  0  0  0  0  0  0  0  0  0
   -3.9249   -2.2686    0.9721 H   0  0  0  0  0  0  0  0  0  0  0  0
   -3.4663   -3.4251   -0.3027 H   0  0  0  0  0  0  0  0  0  0  0  0
   -1.8036   -2.4449    0.6491 C   0  0  0  0  0  0  0  0  0  0  0  0
   -0.9319   -2.8932    1.3707 O   0  0  0  0  0  0  0  0  0  0  0  0
   -1.5017   -1.4040   -0.2114 N   0  0  0  0  0  0  0  0  0  0  0  0
   -2.2562   -1.0652   -0.8024 H   0  0  0  0  0  0  0  0  0  0  0  0
   -0.1675   -0.7711   -0.2840 C   0  0  1  0  0  0  0  0  0  0  0  0
    0.5414   -1.5780   -0.5032 H   0  0  0  0  0  0  0  0  0  0  0  0
   -0.1232    0.2553   -1.4377 C   0  0  0  0  0  0  0  0  0  0  0  0
   -0.8061   -0.0837   -2.2231 H   0  0  0  0  0  0  0  0  0  0  0  0
   -0.4878    1.2249   -1.0802 H   0  0  0  0  0  0  0  0  0  0  0  0
    1.2458    0.4335   -2.0739 C   0  0  0  0  0  0  0  0  0  0  0  0
    1.4672    1.0653   -3.3020 N   0  3  0  0  0  0  0  0  0  0  0  0
    0.7159    1.4820   -3.8575 H   0  0  0  0  0  0  0  0  0  0  0  0
    2.7445    1.0679   -3.6008 C   0  0  0  0  0  0  0  0  0  0  0  0
    3.2049    1.5029   -4.4903 H   0  0  0  0  0  0  0  0  0  0  0  0
    3.4085    0.4153   -2.5675 N   0  0  0  0  0  0  0  0  0  0  0  0
    4.4203    0.2662   -2.5005 H   0  0  0  0  0  0  0  0  0  0  0  0
    2.4774    0.0155   -1.6199 C   0  0  0  0  0  0  0  0  0  0  0  0
    2.6931   -0.5147   -0.6903 H   0  0  0  0  0  0  0  0  0  0  0  0
    0.2986   -0.1301    1.0444 C   0  0  0  0  0  0  0  0  0  0  0  0
    1.4953   -0.0878    1.2950 O   0  0  0  0  0  0  0  0  0  0  0  0
   -0.5723    0.6466    1.7873 N   0  0  0  0  0  0  0  0  0  0  0  0
   -1.5629    0.4932    1.6233 H   0  0  0  0  0  0  0  0  0  0  0  0
   -0.1757    1.2936    3.0353 C   0  0  0  0  0  0  0  0  0  0  0  0
    0.6733    1.9660    2.8701 H   0  0  0  0  0  0  0  0  0  0  0  0
   -1.0046    1.8839    3.4386 H   0  0  0  0  0  0  0  0  0  0  0  0
    0.1115    0.5441    3.7809 H   0  0  0  0  0  0  0  0  0  0  0  0
  1  2  1  0  0  0  0
  2  3  1  0  0  0  0
  2  4  1  0  0  0  0
  2  5  1  0  0  0  0
  5  6  2  0  0  0  0
  5  7  1  0  0  0  0
  7  8  1  0  0  0  0
  7  9  1  0  0  0  0
  9 10  1  0  0  0  0
  9 11  1  0  0  0  0
  9 23  1  0  0  0  0
 11 12  1  0  0  0  0
 11 13  1  0  0  0  0
 11 14  1  0  0  0  0
 14 15  1  0  0  0  0
 14 21  2  0  0  0  0
 15 16  1  0  0  0  0
 15 17  2  0  0  0  0
 17 18  1  0  0  0  0
 17 19  1  0  0  0  0
 19 20  1  0  0  0  0
 19 21  1  0  0  0  0
 21 22  1  0  0  0  0
 23 24  2  0  0  0  0
 23 25  1  0  0  0  0
 25 26  1  0  0  0  0
 25 27  1  0  0  0  0
 27 28  1  0  0  0  0
 27 29  1  0  0  0  0
 27 30  1  0  0  0  0
M  CHG  1  15   1
M  END
$$$$

  -OEChem-04042216003D

 30 30  0     1  0  0  0  0  0999 V2000
   -3.2885   -3.9196    1.3810 H   0  0  0  0  0  0  0  0  0  0  0  0
   -3.2760   -3.0770    0.6833 C   0  0  0  0  0  0  0  0  0  0  0  0
   -3.9844   -2.3228    1.0341 H   0  0  0  0  0  0  0  0  0  0  0  0
   -3.5887   -3.4342   -0.3008 H   0  0  0  0  0  0  0  0  0  0  0  0
   -1.8803   -2.4886    0.6050 C   0  0  0  0  0  0  0  0  0  0  0  0
   -0.9770   -2.9585    1.2725 O   0  0  0  0  0  0  0  0  0  0  0  0
   -1.6142   -1.4179   -0.2301 N   0  0  0  0  0  0  0  0  0  0  0  0
   -2.3991   -1.0362   -0.7516 H   0  0  0  0  0  0  0  0  0  0  0  0
   -0.2882   -0.7714   -0.3180 C   0  0  1  0  0  0  0  0  0  0  0  0
    0.3809   -1.6087   -0.5345 H   0  0  0  0  0  0  0  0  0  0  0  0
   -0.2101    0.2286   -1.4948 C   0  0  0  0  0  0  0  0  0  0  0  0
   -1.0516    0.0421   -2.1692 H   0  0  0  0  0  0  0  0  0  0  0  0
   -0.3188    1.2504   -1.1136 H   0  0  0  0  0  0  0  0  0  0  0  0
    1.0638    0.1295   -2.3184 C   0  0  0  0  0  0  0  0  0  0  0  0
    1.3497    0.9298   -3.4288 N   0  3  0  0  0  0  0  0  0  0  0  0
    0.6901    1.6151   -3.8059 H   0  0  0  0  0  0  0  0  0  0  0  0
    2.5637    0.6992   -3.8688 C   0  0  0  0  0  0  0  0  0  0  0  0
    3.0527    1.1859   -4.7149 H   0  0  0  0  0  0  0  0  0  0  0  0
    3.1232   -0.2696   -3.0421 N   0  0  0  0  0  0  0  0  0  0  0  0
    4.0802   -0.6316   -3.1023 H   0  0  0  0  0  0  0  0  0  0  0  0
    2.2003   -0.6072   -2.0624 C   0  0  0  0  0  0  0  0  0  0  0  0
    2.3721   -1.2783   -1.2181 H   0  0  0  0  0  0  0  0  0  0  0  0
    0.2814   -0.1464    0.9695 C   0  0  0  0  0  0  0  0  0  0  0  0
    1.4995   -0.0852    1.0751 O   0  0  0  0  0  0  0  0  0  0  0  0
   -0.5158    0.6299    1.7900 N   0  0  0  0  0  0  0  0  0  0  0  0
   -1.5178    0.4744    1.7266 H   0  0  0  0  0  0  0  0  0  0  0  0
    0.0038    1.2983    2.9799 C   0  0  0  0  0  0  0  0  0  0  0  0
    0.8130    1.9868    2.7134 H   0  0  0  0  0  0  0  0  0  0  0  0
   -0.7875    1.8744    3.4696 H   0  0  0  0  0  0  0  0  0  0  0  0
    0.3909    0.5637    3.6944 H   0  0  0  0  0  0  0  0  0  0  0  0
  1  2  1  0  0  0  0
  2  3  1  0  0  0  0
  2  4  1  0  0  0  0
  2  5  1  0  0  0  0
  5  6  2  0  0  0  0
  5  7  1  0  0  0  0
  7  8  1  0  0  0  0
  7  9  1  0  0  0  0
  9 10  1  0  0  0  0
  9 11  1  0  0  0  0
  9 23  1  0  0  0  0
 11 12  1  0  0  0  0
 11 13  1  0  0  0  0
 11 14  1  0  0  0  0
 14 15  1  0  0  0  0
 14 21  2  0  0  0  0
 15 16  1  0  0  0  0
 15 17  2  0  0  0  0
 17 18  1  0  0  0  0
 17 19  1  0  0  0  0
 19 20  1  0  0  0  0
 19 21  1  0  0  0  0
 21 22  1  0  0  0  0
 23 24  2  0  0  0  0
 23 25  1  0  0  0  0
 25 26  1  0  0  0  0
 25 27  1  0  0  0  0
 27 28  1  0  0  0  0
 27 29  1  0  0  0  0
 27 30  1  0  0  0  0
M  CHG  1  15   1
M  END
$$$$

  -OEChem-04042216003D

 30 30  0     1  0  0  0  0  0999 V2000
   -3.2985   -3.9076    1.3948 H   0  0  0  0  0  0  0  0  0  0  0  0
   -3.2822   -3.0694    0.6920 C   0  0  0  0  0  0  0  0  0  0  0  0
   -3.9874   -2.3098    1.0372 H   0  0  0  0  0  0  0  0  0  0  0  0
   -3.5957   -3.4312   -0.2901 H   0  0  0  0  0  0  0  0  0  0  0  0
   -1.8844   -2.4870    0.6111 C   0  0  0  0  0  0  0  0  0  0  0  0
   -0.9827   -2.9575    1.2806 O   0  0  0  0  0  0  0  0  0  0  0  0
   -1.6143   -1.4221   -0.2299 N   0  0  0  0  0  0  0  0  0  0  0  0
   -2.3966   -1.0430   -0.7572 H   0  0  0  0  0  0  0  0  0  0  0  0
   -0.2872   -0.7790   -0.3185 C   0  0  1  0  0  0  0  0  0  0  0  0
    0.3835   -1.6163   -0.5215 H   0  0  0  0  0  0  0  0  0  0  0  0
   -0.2046    0.2216   -1.4943 C   0  0  0  0  0  0  0  0  0  0  0  0
   -1.0497    0.0510   -2.1687 H   0  0  0  0  0  0  0  0  0  0  0  0
   -0.3042    1.2400   -1.1018 H   0  0  0  0  0  0  0  0  0  0  0  0
    1.0669    0.1245   -2.3229 C   0  0  0  0  0  0  0  0  0  0  0  0
    1.4760    1.1125   -3.2239 N   0  3  0  0  0  0  0  0  0  0  0  0
    0.9266    1.9550   -3.4117 H   0  0  0  0  0  0  0  0  0  0  0  0
    2.6552    0.8304   -3.7228 C   0  0  0  0  0  0  0  0  0  0  0  0
    3.2228    1.4339   -4.4339 H   0  0  0  0  0  0  0  0  0  0  0  0
    3.0611   -0.3742   -3.1592 N   0  0  0  0  0  0  0  0  0  0  0  0
    3.9611   -0.8376   -3.3187 H   0  0  0  0  0  0  0  0  0  0  0  0
    2.0834   -0.8058   -2.2735 C   0  0  0  0  0  0  0  0  0  0  0  0
    2.1456   -1.6855   -1.6322 H   0  0  0  0  0  0  0  0  0  0  0  0
    0.2785   -0.1481    0.9674 C   0  0  0  0  0  0  0  0  0  0  0  0
    1.4957   -0.0707    1.0674 O   0  0  0  0  0  0  0  0  0  0  0  0
   -0.5218    0.6336    1.7801 N   0  0  0  0  0  0  0  0  0  0  0  0
   -1.5227    0.4695    1.7206 H   0  0  0  0  0  0  0  0  0  0  0  0
   -0.0034    1.3068    2.9681 C   0  0  0  0  0  0  0  0  0  0  0  0
    0.7937    2.0073    2.6968 H   0  0  0  0  0  0  0  0  0  0  0  0
   -0.7993    1.8698    3.4658 H   0  0  0  0  0  0  0  0  0  0  0  0
    0.4000    0.5762    3.6780 H   0  0  0  0  0  0  0  0  0  0  0  0
  1  2  1  0  0  0  0
  2  3  1  0  0  0  0
  2  4  1  0  0  0  0
  2  5  1  0  0  0  0
  5  6  2  0  0  0  0
  5  7  1  0  0  0  0
  7  8  1  0  0  0  0
  7  9  1  0  0  0  0
  9 10  1  0  0  0  0
  9 11  1  0  0  0  0
  9 23  1  0  0  0  0
 11 12  1  0  0  0  0
 11 13  1  0  0  0  0
 11 14  1  0  0  0  0
 14 15  1  0  0  0  0
 14 21  2  0  0  0  0
 15 16  1  0  0  0  0
 15 17  2  0  0  0  0
 17 18  1  0  0  0  0
 17 19  1  0  0  0  0
 19 20  1  0  0  0  0
 19 21  1  0  0  0  0
 21 22  1  0  0  0  0
 23 24  2  0  0  0  0
 23 25  1  0  0  0  0
 25 26  1  0  0  0  0
 25 27  1  0  0  0  0
 27 28  1  0  0  0  0
 27 29  1  0  0  0  0
 27 30  1  0  0  0  0
M  CHG  1  15   1
M  END
$$$$

  -OEChem-04042216003D

 30 30  0     1  0  0  0  0  0999 V2000
   -3.2723   -3.9045    1.4021 H   0  0  0  0  0  0  0  0  0  0  0  0
   -3.2589   -3.0666    0.6989 C   0  0  0  0  0  0  0  0  0  0  0  0
   -3.9580   -2.3039    1.0502 H   0  0  0  0  0  0  0  0  0  0  0  0
   -3.5829   -3.4274   -0.2802 H   0  0  0  0  0  0  0  0  0  0  0  0
   -1.8593   -2.4902    0.6052 C   0  0  0  0  0  0  0  0  0  0  0  0
   -0.9520   -2.9674    1.2620 O   0  0  0  0  0  0  0  0  0  0  0  0
   -1.5930   -1.4251   -0.2366 N   0  0  0  0  0  0  0  0  0  0  0  0
   -2.3806   -1.0383   -0.7505 H   0  0  0  0  0  0  0  0  0  0  0  0
   -0.2691   -0.7754   -0.3246 C   0  0  1  0  0  0  0  0  0  0  0  0
    0.4215   -1.5971   -0.5275 H   0  0  0  0  0  0  0  0  0  0  0  0
   -0.2026    0.2434   -1.4855 C   0  0  0  0  0  0  0  0  0  0  0  0
   -1.0524    0.0892   -2.1581 H   0  0  0  0  0  0  0  0  0  0  0  0
   -0.2959    1.2552   -1.0753 H   0  0  0  0  0  0  0  0  0  0  0  0
    1.0658    0.1488   -2.3157 C   0  0  0  0  0  0  0  0  0  0  0  0
    1.6486    1.2371   -2.9716 N   0  3  0  0  0  0  0  0  0  0  0  0
    1.2632    2.1841   -2.9278 H   0  0  0  0  0  0  0  0  0  0  0  0
    2.7708    0.8839   -3.5500 C   0  0  0  0  0  0  0  0  0  0  0  0
    3.4486    1.5352   -4.1052 H   0  0  0  0  0  0  0  0  0  0  0  0
    2.9492   -0.4738   -3.3055 N   0  0  0  0  0  0  0  0  0  0  0  0
    3.7546   -1.0346   -3.6004 H   0  0  0  0  0  0  0  0  0  0  0  0
    1.8926   -0.9322   -2.5298 C   0  0  0  0  0  0  0  0  0  0  0  0
    1.7655   -1.9451   -2.1467 H   0  0  0  0  0  0  0  0  0  0  0  0
    0.2807   -0.1431    0.9690 C   0  0  0  0  0  0  0  0  0  0  0  0
    1.4949   -0.0332    1.0722 O   0  0  0  0  0  0  0  0  0  0  0  0
   -0.5359    0.6299    1.7743 N   0  0  0  0  0  0  0  0  0  0  0  0
   -1.5326    0.4415    1.7170 H   0  0  0  0  0  0  0  0  0  0  0  0
   -0.0340    1.3163    2.9621 C   0  0  0  0  0  0  0  0  0  0  0  0
    0.7513    2.0304    2.6922 H   0  0  0  0  0  0  0  0  0  0  0  0
   -0.8418    1.8665    3.4544 H   0  0  0  0  0  0  0  0  0  0  0  0
    0.3797    0.5955    3.6760 H   0  0  0  0  0  0  0  0  0  0  0  0
  1  2  1  0  0  0  0
  2  3  1  0  0  0  0
  2  4  1  0  0  0  0
  2  5  1  0  0  0  0
  5  6  2  0  0  0  0
  5  7  1  0  0  0  0
  7  8  1  0  0  0  0
  7  9  1  0  0  0  0
  9 10  1  0  0  0  0
  9 11  1  0  0  0  0
  9 23  1  0  0  0  0
 11 12  1  0  0  0  0
 11 13  1  0  0  0  0
 11 14  1  0  0  0  0
 14 15  1  0  0  0  0
 14 21  2  0  0  0  0
 15 16  1  0  0  0  0
 15 17  2  0  0  0  0
 17 18  1  0  0  0  0
 17 19  1  0  0  0  0
 19 20  1  0  0  0  0
 19 21  1  0  0  0  0
 21 22  1  0  0  0  0
 23 24  2  0  0  0  0
 23 25  1  0  0  0  0
 25 26  1  0  0  0  0
 25 27  1  0  0  0  0
 27 28  1  0  0  0  0
 27 29  1  0  0  0  0
 27 30  1  0  0  0  0
M  CHG  1  15   1
M  END
$$$$

  -OEChem-04042216003D

 30 30  0     1  0  0  0  0  0999 V2000
   -3.2229   -3.9230    1.3920 H   0  0  0  0  0  0  0  0  0  0  0  0
   -3.2244   -3.0804    0.6942 C   0  0  0  0  0  0  0  0  0  0  0  0
   -3.9224   -2.3243    1.0611 H   0  0  0  0  0  0  0  0  0  0  0  0
   -3.5609   -3.4363   -0.2825 H   0  0  0  0  0  0  0  0  0  0  0  0
   -1.8294   -2.4955    0.5837 C   0  0  0  0  0  0  0  0  0  0  0  0
   -0.9087   -2.9756    1.2193 O   0  0  0  0  0  0  0  0  0  0  0  0
   -1.5824   -1.4195   -0.2500 N   0  0  0  0  0  0  0  0  0  0  0  0
   -2.3834   -1.0211   -0.7337 H   0  0  0  0  0  0  0  0  0  0  0  0
   -0.2666   -0.7543   -0.3426 C   0  0  1  0  0  0  0  0  0  0  0  0
    0.4394   -1.5604   -0.5646 H   0  0  0  0  0  0  0  0  0  0  0  0
   -0.2199    0.2839   -1.4850 C   0  0  0  0  0  0  0  0  0  0  0  0
   -1.0680    0.1321   -2.1604 H   0  0  0  0  0  0  0  0  0  0  0  0
   -0.3176    1.2921   -1.0671 H   0  0  0  0  0  0  0  0  0  0  0  0
    1.0524    0.1809   -2.3019 C   0  0  0  0  0  0  0  0  0  0  0  0
    1.8323    1.2682   -2.7029 N   0  3  0  0  0  0  0  0  0  0  0  0
    1.6265    2.2319   -2.4268 H   0  0  0  0  0  0  0  0  0  0  0  0
    2.8953    0.8571   -3.3509 C   0  0  0  0  0  0  0  0  0  0  0  0
    3.6984    1.4842   -3.7429 H   0  0  0  0  0  0  0  0  0  0  0  0
    2.8219   -0.5309   -3.4250 N   0  0  0  0  0  0  0  0  0  0  0  0
    3.5245   -1.1450   -3.8486 H   0  0  0  0  0  0  0  0  0  0  0  0
    1.6740   -0.9547   -2.7674 C   0  0  0  0  0  0  0  0  0  0  0  0
    1.3422   -1.9839   -2.6268 H   0  0  0  0  0  0  0  0  0  0  0  0
    0.2830   -0.1296    0.9551 C   0  0  0  0  0  0  0  0  0  0  0  0
    1.4945    0.0189    1.0418 O   0  0  0  0  0  0  0  0  0  0  0  0
   -0.5416    0.6241    1.7708 N   0  0  0  0  0  0  0  0  0  0  0  0
   -1.5346    0.4148    1.7225 H   0  0  0  0  0  0  0  0  0  0  0  0
   -0.0435    1.3209    2.9540 C   0  0  0  0  0  0  0  0  0  0  0  0
    0.7208    2.0548    2.6764 H   0  0  0  0  0  0  0  0  0  0  0  0
   -0.8591    1.8501    3.4567 H   0  0  0  0  0  0  0  0  0  0  0  0
    0.3960    0.6094    3.6618 H   0  0  0  0  0  0  0  0  0  0  0  0
  1  2  1  0  0  0  0
  2  3  1  0  0  0  0
  2  4  1  0  0  0  0
  2  5  1  0  0  0  0
  5  6  2  0  0  0  0
  5  7  1  0  0  0  0
  7  8  1  0  0  0  0
  7  9  1  0  0  0  0
  9 10  1  0  0  0  0
  9 11  1  0  0  0  0
  9 23  1  0  0  0  0
 11 12  1  0  0  0  0
 11 13  1  0  0  0  0
 11 14  1  0  0  0  0
 14 15  1  0  0  0  0
 14 21  2  0  0  0  0
 15 16  1  0  0  0  0
 15 17  2  0  0  0  0
 17 18  1  0  0  0  0
 17 19  1  0  0  0  0
 19 20  1  0  0  0  0
 19 21  1  0  0  0  0
 21 22  1  0  0  0  0
 23 24  2  0  0  0  0
 23 25  1  0  0  0  0
 25 26  1  0  0  0  0
 25 27  1  0  0  0  0
 27 28  1  0  0  0  0
 27 29  1  0  0  0  0
 27 30  1  0  0  0  0
M  CHG  1  15   1
M  END
$$$$

  -OEChem-04042216003D

 30 30  0     1  0  0  0  0  0999 V2000
   -3.1790   -3.9356    1.3842 H   0  0  0  0  0  0  0  0  0  0  0  0
   -3.1936   -3.0913    0.6885 C   0  0  0  0  0  0  0  0  0  0  0  0
   -3.8931   -2.3407    1.0641 H   0  0  0  0  0  0  0  0  0  0  0  0
   -3.5375   -3.4471   -0.2856 H   0  0  0  0  0  0  0  0  0  0  0  0
   -1.8044   -2.4957    0.5651 C   0  0  0  0  0  0  0  0  0  0  0  0
   -0.8728   -2.9719    1.1875 O   0  0  0  0  0  0  0  0  0  0  0  0
   -1.5769   -1.4099   -0.2610 N   0  0  0  0  0  0  0  0  0  0  0  0
   -2.3877   -1.0117   -0.7283 H   0  0  0  0  0  0  0  0  0  0  0  0
   -0.2694   -0.7298   -0.3601 C   0  0  1  0  0  0  0  0  0  0  0  0
    0.4451   -1.5250   -0.6027 H   0  0  0  0  0  0  0  0  0  0  0  0
   -0.2356    0.3213   -1.4874 C   0  0  0  0  0  0  0  0  0  0  0  0
   -1.0780    0.1619   -2.1681 H   0  0  0  0  0  0  0  0  0  0  0  0
   -0.3403    1.3307   -1.0741 H   0  0  0  0  0  0  0  0  0  0  0  0
    1.0443    0.1990   -2.2822 C   0  0  0  0  0  0  0  0  0  0  0  0
    2.0034    1.2023   -2.4279 N   0  3  0  0  0  0  0  0  0  0  0  0
    1.9630    2.0862   -1.9127 H   0  0  0  0  0  0  0  0  0  0  0  0
    3.0076    0.7696   -3.1509 C   0  0  0  0  0  0  0  0  0  0  0  0
    3.9235    1.3180   -3.3803 H   0  0  0  0  0  0  0  0  0  0  0  0
    2.7016   -0.5303   -3.5469 N   0  0  0  0  0  0  0  0  0  0  0  0
    3.3043   -1.1414   -4.1066 H   0  0  0  0  0  0  0  0  0  0  0  0
    1.4742   -0.8887   -3.0029 C   0  0  0  0  0  0  0  0  0  0  0  0
    0.9603   -1.8450   -3.1052 H   0  0  0  0  0  0  0  0  0  0  0  0
    0.2855   -0.1109    0.9386 C   0  0  0  0  0  0  0  0  0  0  0  0
    1.4933    0.0810    1.0002 O   0  0  0  0  0  0  0  0  0  0  0  0
   -0.5437    0.6251    1.7658 N   0  0  0  0  0  0  0  0  0  0  0  0
   -1.5318    0.3903    1.7326 H   0  0  0  0  0  0  0  0  0  0  0  0
   -0.0469    1.3238    2.9487 C   0  0  0  0  0  0  0  0  0  0  0  0
    0.6812    2.0919    2.6668 H   0  0  0  0  0  0  0  0  0  0  0  0
   -0.8716    1.8122    3.4774 H   0  0  0  0  0  0  0  0  0  0  0  0
    0.4356    0.6198    3.6359 H   0  0  0  0  0  0  0  0  0  0  0  0
  1  2  1  0  0  0  0
  2  3  1  0  0  0  0
  2  4  1  0  0  0  0
  2  5  1  0  0  0  0
  5  6  2  0  0  0  0
  5  7  1  0  0  0  0
  7  8  1  0  0  0  0
  7  9  1  0  0  0  0
  9 10  1  0  0  0  0
  9 11  1  0  0  0  0
  9 23  1  0  0  0  0
 11 12  1  0  0  0  0
 11 13  1  0  0  0  0
 11 14  1  0  0  0  0
 14 15  1  0  0  0  0
 14 21  2  0  0  0  0
 15 16  1  0  0  0  0
 15 17  2  0  0  0  0
 17 18  1  0  0  0  0
 17 19  1  0  0  0  0
 19 20  1  0  0  0  0
 19 21  1  0  0  0  0
 21 22  1  0  0  0  0
 23 24  2  0  0  0  0
 23 25  1  0  0  0  0
 25 26  1  0  0  0  0
 25 27  1  0  0  0  0
 27 28  1  0  0  0  0
 27 29  1  0  0  0  0
 27 30  1  0  0  0  0
M  CHG  1  15   1
M  END
$$$$

  -OEChem-04042216003D

 30 30  0     1  0  0  0  0  0999 V2000
   -3.1583   -3.9689    1.3657 H   0  0  0  0  0  0  0  0  0  0  0  0
   -3.1848   -3.1183    0.6781 C   0  0  0  0  0  0  0  0  0  0  0  0
   -3.9026   -2.3862    1.0554 H   0  0  0  0  0  0  0  0  0  0  0  0
   -3.5137   -3.4716   -0.3020 H   0  0  0  0  0  0  0  0  0  0  0  0
   -1.8070   -2.4937    0.5709 C   0  0  0  0  0  0  0  0  0  0  0  0
   -0.8742   -2.9478    1.2081 O   0  0  0  0  0  0  0  0  0  0  0  0
   -1.5907   -1.4048   -0.2546 N   0  0  0  0  0  0  0  0  0  0  0  0
   -2.4002   -1.0291   -0.7424 H   0  0  0  0  0  0  0  0  0  0  0  0
   -0.2858   -0.7218   -0.3665 C   0  0  1  0  0  0  0  0  0  0  0  0
    0.4235   -1.5179   -0.6255 H   0  0  0  0  0  0  0  0  0  0  0  0
   -0.2507    0.3367   -1.4839 C   0  0  0  0  0  0  0  0  0  0  0  0
   -1.0912    0.1781   -2.1670 H   0  0  0  0  0  0  0  0  0  0  0  0
   -0.3504    1.3499   -1.0780 H   0  0  0  0  0  0  0  0  0  0  0  0
    1.0334    0.1865   -2.2615 C   0  0  0  0  0  0  0  0  0  0  0  0
    2.1291    1.0421   -2.1507 N   0  3  0  0  0  0  0  0  0  0  0  0
    2.2107    1.7341   -1.3985 H   0  0  0  0  0  0  0  0  0  0  0  0
    3.0898    0.6501   -2.9513 C   0  0  0  0  0  0  0  0  0  0  0  0
    4.0886    1.0851   -3.0213 H   0  0  0  0  0  0  0  0  0  0  0  0
    2.6107   -0.4453   -3.6672 N   0  0  0  0  0  0  0  0  0  0  0  0
    3.1378   -0.9770   -4.3666 H   0  0  0  0  0  0  0  0  0  0  0  0
    1.3220   -0.7376   -3.2347 C   0  0  0  0  0  0  0  0  0  0  0  0
    0.6727   -1.5411   -3.5831 H   0  0  0  0  0  0  0  0  0  0  0  0
    0.2912   -0.1027    0.9230 C   0  0  0  0  0  0  0  0  0  0  0  0
    1.4958    0.1248    0.9441 O   0  0  0  0  0  0  0  0  0  0  0  0
   -0.5275    0.6314    1.7619 N   0  0  0  0  0  0  0  0  0  0  0  0
   -1.5112    0.3761    1.7586 H   0  0  0  0  0  0  0  0  0  0  0  0
   -0.0141    1.3519    2.9246 C   0  0  0  0  0  0  0  0  0  0  0  0
    0.7078    2.1165    2.6185 H   0  0  0  0  0  0  0  0  0  0  0  0
   -0.8320    1.8481    3.4568 H   0  0  0  0  0  0  0  0  0  0  0  0
    0.4802    0.6608    3.6164 H   0  0  0  0  0  0  0  0  0  0  0  0
  1  2  1  0  0  0  0
  2  3  1  0  0  0  0
  2  4  1  0  0  0  0
  2  5  1  0  0  0  0
  5  6  2  0  0  0  0
  5  7  1  0  0  0  0
  7  8  1  0  0  0  0
  7  9  1  0  0  0  0
  9 10  1  0  0  0  0
  9 11  1  0  0  0  0
  9 23  1  0  0  0  0
 11 12  1  0  0  0  0
 11 13  1  0  0  0  0
 11 14  1  0  0  0  0
 14 15  1  0  0  0  0
 14 21  2  0  0  0  0
 15 16  1  0  0  0  0
 15 17  2  0  0  0  0
 17 18  1  0  0  0  0
 17 19  1  0  0  0  0
 19 20  1  0  0  0  0
 19 21  1  0  0  0  0
 21 22  1  0  0  0  0
 23 24  2  0  0  0  0
 23 25  1  0  0  0  0
 25 26  1  0  0  0  0
 25 27  1  0  0  0  0
 27 28  1  0  0  0  0
 27 29  1  0  0  0  0
 27 30  1  0  0  0  0
M  CHG  1  15   1
M  END
$$$$

  -OEChem-04042216003D

 30 30  0     1  0  0  0  0  0999 V2000
   -3.1551   -3.9756    1.3763 H   0  0  0  0  0  0  0  0  0  0  0  0
   -3.1864   -3.1300    0.6826 C   0  0  0  0  0  0  0  0  0  0  0  0
   -3.9154   -2.4033    1.0493 H   0  0  0  0  0  0  0  0  0  0  0  0
   -3.5038   -3.4941   -0.2975 H   0  0  0  0  0  0  0  0  0  0  0  0
   -1.8150   -2.4903    0.5819 C   0  0  0  0  0  0  0  0  0  0  0  0
   -0.8820   -2.9293    1.2294 O   0  0  0  0  0  0  0  0  0  0  0  0
   -1.6049   -1.4019   -0.2456 N   0  0  0  0  0  0  0  0  0  0  0  0
   -2.4116   -1.0444   -0.7513 H   0  0  0  0  0  0  0  0  0  0  0  0
   -0.2992   -0.7238   -0.3722 C   0  0  1  0  0  0  0  0  0  0  0  0
    0.4009   -1.5252   -0.6414 H   0  0  0  0  0  0  0  0  0  0  0  0
   -0.2622    0.3374   -1.4864 C   0  0  0  0  0  0  0  0  0  0  0  0
   -1.1086    0.1886   -2.1641 H   0  0  0  0  0  0  0  0  0  0  0  0
   -0.3453    1.3526   -1.0811 H   0  0  0  0  0  0  0  0  0  0  0  0
    1.0190    0.1671   -2.2631 C   0  0  0  0  0  0  0  0  0  0  0  0
    2.2071    0.8157   -1.9297 N   0  3  0  0  0  0  0  0  0  0  0  0
    2.3461    1.2463   -1.0059 H   0  0  0  0  0  0  0  0  0  0  0  0
    3.1456    0.5026   -2.7884 C   0  0  0  0  0  0  0  0  0  0  0  0
    4.1963    0.7927   -2.7274 H   0  0  0  0  0  0  0  0  0  0  0  0
    2.5608   -0.3026   -3.7647 N   0  0  0  0  0  0  0  0  0  0  0  0
    3.0451   -0.7051   -4.5730 H   0  0  0  0  0  0  0  0  0  0  0  0
    1.2260   -0.5154   -3.4351 C   0  0  0  0  0  0  0  0  0  0  0  0
    0.4919   -1.1016   -3.9880 H   0  0  0  0  0  0  0  0  0  0  0  0
    0.2984   -0.1061    0.9100 C   0  0  0  0  0  0  0  0  0  0  0  0
    1.5018    0.1395    0.9026 O   0  0  0  0  0  0  0  0  0  0  0  0
   -0.5087    0.6306    1.7574 N   0  0  0  0  0  0  0  0  0  0  0  0
   -1.4921    0.3731    1.7697 H   0  0  0  0  0  0  0  0  0  0  0  0
    0.0178    1.3659    2.9048 C   0  0  0  0  0  0  0  0  0  0  0  0
    0.7076    2.1512    2.5777 H   0  0  0  0  0  0  0  0  0  0  0  0
   -0.7984    1.8382    3.4607 H   0  0  0  0  0  0  0  0  0  0  0  0
    0.5513    0.6902    3.5827 H   0  0  0  0  0  0  0  0  0  0  0  0
  1  2  1  0  0  0  0
  2  3  1  0  0  0  0
  2  4  1  0  0  0  0
  2  5  1  0  0  0  0
  5  6  2  0  0  0  0
  5  7  1  0  0  0  0
  7  8  1  0  0  0  0
  7  9  1  0  0  0  0
  9 10  1  0  0  0  0
  9 11  1  0  0  0  0
  9 23  1  0  0  0  0
 11 12  1  0  0  0  0
 11 13  1  0  0  0  0
 11 14  1  0  0  0  0
 14 15  1  0  0  0  0
 14 21  2  0  0  0  0
 15 16  1  0  0  0  0
 15 17  2  0  0  0  0
 17 18  1  0  0  0  0
 17 19  1  0  0  0  0
 19 20  1  0  0  0  0
 19 21  1  0  0  0  0
 21 22  1  0  0  0  0
 23 24  2  0  0  0  0
 23 25  1  0  0  0  0
 25 26  1  0  0  0  0
 25 27  1  0  0  0  0
 27 28  1  0  0  0  0
 27 29  1  0  0  0  0
 27 30  1  0  0  0  0
M  CHG  1  15   1
M  END
$$$$

  -OEChem-04042216003D

 30 30  0     1  0  0  0  0  0999 V2000
   -3.1549   -3.9720    1.3765 H   0  0  0  0  0  0  0  0  0  0  0  0
   -3.1855   -3.1284    0.6804 C   0  0  0  0  0  0  0  0  0  0  0  0
   -3.9170   -2.4025    1.0431 H   0  0  0  0  0  0  0  0  0  0  0  0
   -3.4996   -3.4952   -0.2998 H   0  0  0  0  0  0  0  0  0  0  0  0
   -1.8150   -2.4862    0.5822 C   0  0  0  0  0  0  0  0  0  0  0  0
   -0.8823   -2.9225    1.2324 O   0  0  0  0  0  0  0  0  0  0  0  0
   -1.6066   -1.3958   -0.2431 N   0  0  0  0  0  0  0  0  0  0  0  0
   -2.4112   -1.0459   -0.7576 H   0  0  0  0  0  0  0  0  0  0  0  0
   -0.3005   -0.7196   -0.3731 C   0  0  1  0  0  0  0  0  0  0  0  0
    0.3962   -1.5222   -0.6477 H   0  0  0  0  0  0  0  0  0  0  0  0
   -0.2726    0.3373   -1.4937 C   0  0  0  0  0  0  0  0  0  0  0  0
   -1.1258    0.1899   -2.1632 H   0  0  0  0  0  0  0  0  0  0  0  0
   -0.3502    1.3519   -1.0860 H   0  0  0  0  0  0  0  0  0  0  0  0
    1.0034    0.1745   -2.2822 C   0  0  0  0  0  0  0  0  0  0  0  0
    2.2490    0.5802   -1.8030 N   0  3  0  0  0  0  0  0  0  0  0  0
    2.3956    0.8157   -0.8088 H   0  0  0  0  0  0  0  0  0  0  0  0
    3.1765    0.3411   -2.6960 C   0  0  0  0  0  0  0  0  0  0  0  0
    4.2500    0.4900   -2.5639 H   0  0  0  0  0  0  0  0  0  0  0  0
    2.5376   -0.1689   -3.8257 N   0  0  0  0  0  0  0  0  0  0  0  0
    3.0009   -0.4466   -4.6963 H   0  0  0  0  0  0  0  0  0  0  0  0
    1.1743   -0.2760   -3.5666 C   0  0  0  0  0  0  0  0  0  0  0  0
    0.3980   -0.6391   -4.2402 H   0  0  0  0  0  0  0  0  0  0  0  0
    0.3016   -0.1071    0.9101 C   0  0  0  0  0  0  0  0  0  0  0  0
    1.5107    0.1128    0.9112 O   0  0  0  0  0  0  0  0  0  0  0  0
   -0.4979    0.6286    1.7647 N   0  0  0  0  0  0  0  0  0  0  0  0
   -1.4843    0.3827    1.7737 H   0  0  0  0  0  0  0  0  0  0  0  0
    0.0351    1.3539    2.9154 C   0  0  0  0  0  0  0  0  0  0  0  0
    0.7254    2.1405    2.5921 H   0  0  0  0  0  0  0  0  0  0  0  0
   -0.7779    1.8234    3.4785 H   0  0  0  0  0  0  0  0  0  0  0  0
    0.5697    0.6719    3.5858 H   0  0  0  0  0  0  0  0  0  0  0  0
  1  2  1  0  0  0  0
  2  3  1  0  0  0  0
  2  4  1  0  0  0  0
  2  5  1  0  0  0  0
  5  6  2  0  0  0  0
  5  7  1  0  0  0  0
  7  8  1  0  0  0  0
  7  9  1  0  0  0  0
  9 10  1  0  0  0  0
  9 11  1  0  0  0  0
  9 23  1  0  0  0  0
 11 12  1  0  0  0  0
 11 13  1  0  0  0  0
 11 14  1  0  0  0  0
 14 15  1  0  0  0  0
 14 21  2  0  0  0  0
 15 16  1  0  0  0  0
 15 17  2  0  0  0  0
 17 18  1  0  0  0  0
 17 19  1  0  0  0  0
 19 20  1  0  0  0  0
 19 21  1  0  0  0  0
 21 22  1  0  0  0  0
 23 24  2  0  0  0  0
 23 25  1  0  0  0  0
 25 26  1  0  0  0  0
 25 27  1  0  0  0  0
 27 28  1  0  0  0  0
 27 29  1  0  0  0  0
 27 30  1  0  0  0  0
M  CHG  1  15   1
M  END
$$$$

  -OEChem-04042216003D

 30 30  0     1  0  0  0  0  0999 V2000
   -3.1496   -3.9714    1.3575 H   0  0  0  0  0  0  0  0  0  0  0  0
   -3.1802   -3.1234    0.6669 C   0  0  0  0  0  0  0  0  0  0  0  0
   -3.9120   -2.3997    1.0338 H   0  0  0  0  0  0  0  0  0  0  0  0
   -3.4934   -3.4847   -0.3155 H   0  0  0  0  0  0  0  0  0  0  0  0
   -1.8102   -2.4797    0.5734 C   0  0  0  0  0  0  0  0  0  0  0  0
   -0.8768   -2.9204    1.2194 O   0  0  0  0  0  0  0  0  0  0  0  0
   -1.6021   -1.3840   -0.2450 N   0  0  0  0  0  0  0  0  0  0  0  0
   -2.4081   -1.0274   -0.7524 H   0  0  0  0  0  0  0  0  0  0  0  0
   -0.2971   -0.7047   -0.3681 C   0  0  1  0  0  0  0  0  0  0  0  0
    0.3994   -1.5072   -0.6429 H   0  0  0  0  0  0  0  0  0  0  0  0
   -0.2764    0.3420   -1.5009 C   0  0  0  0  0  0  0  0  0  0  0  0
   -1.1313    0.1885   -2.1669 H   0  0  0  0  0  0  0  0  0  0  0  0
   -0.3583    1.3561   -1.0925 H   0  0  0  0  0  0  0  0  0  0  0  0
    0.9987    0.2002   -2.2986 C   0  0  0  0  0  0  0  0  0  0  0  0
    2.2734    0.3432   -1.7477 N   0  3  0  0  0  0  0  0  0  0  0  0
    2.4214    0.4520   -0.7306 H   0  0  0  0  0  0  0  0  0  0  0  0
    3.1901    0.1703   -2.6662 C   0  0  0  0  0  0  0  0  0  0  0  0
    4.2703    0.1874   -2.5079 H   0  0  0  0  0  0  0  0  0  0  0  0
    2.5243   -0.0574   -3.8701 N   0  0  0  0  0  0  0  0  0  0  0  0
    2.9735   -0.2262   -4.7754 H   0  0  0  0  0  0  0  0  0  0  0  0
    1.1513   -0.0411   -3.6406 C   0  0  0  0  0  0  0  0  0  0  0  0
    0.3563   -0.1890   -4.3717 H   0  0  0  0  0  0  0  0  0  0  0  0
    0.2993   -0.0994    0.9207 C   0  0  0  0  0  0  0  0  0  0  0  0
    1.5148    0.0780    0.9459 O   0  0  0  0  0  0  0  0  0  0  0  0
   -0.4975    0.6307    1.7821 N   0  0  0  0  0  0  0  0  0  0  0  0
   -1.4898    0.4097    1.7708 H   0  0  0  0  0  0  0  0  0  0  0  0
    0.0359    1.3233    2.9523 C   0  0  0  0  0  0  0  0  0  0  0  0
    0.7615    2.0871    2.6528 H   0  0  0  0  0  0  0  0  0  0  0  0
   -0.7713    1.8168    3.5028 H   0  0  0  0  0  0  0  0  0  0  0  0
    0.5302    0.6147    3.6259 H   0  0  0  0  0  0  0  0  0  0  0  0
  1  2  1  0  0  0  0
  2  3  1  0  0  0  0
  2  4  1  0  0  0  0
  2  5  1  0  0  0  0
  5  6  2  0  0  0  0
  5  7  1  0  0  0  0
  7  8  1  0  0  0  0
  7  9  1  0  0  0  0
  9 10  1  0  0  0  0
  9 11  1  0  0  0  0
  9 23  1  0  0  0  0
 11 12  1  0  0  0  0
 11 13  1  0  0  0  0
 11 14  1  0  0  0  0
 14 15  1  0  0  0  0
 14 21  2  0  0  0  0
 15 16  1  0  0  0  0
 15 17  2  0  0  0  0
 17 18  1  0  0  0  0
 17 19  1  0  0  0  0
 19 20  1  0  0  0  0
 19 21  1  0  0  0  0
 21 22  1  0  0  0  0
 23 24  2  0  0  0  0
 23 25  1  0  0  0  0
 25 26  1  0  0  0  0
 25 27  1  0  0  0  0
 27 28  1  0  0  0  0
 27 29  1  0  0  0  0
 27 30  1  0  0  0  0
M  CHG  1  15   1
M  END
$$$$

  -OEChem-04042216003D

 30 30  0     1  0  0  0  0  0999 V2000
   -3.1528   -3.9813    1.3272 H   0  0  0  0  0  0  0  0  0  0  0  0
   -3.1841   -3.1245    0.6475 C   0  0  0  0  0  0  0  0  0  0  0  0
   -3.9152   -2.4055    1.0246 H   0  0  0  0  0  0  0  0  0  0  0  0
   -3.4985   -3.4728   -0.3393 H   0  0  0  0  0  0  0  0  0  0  0  0
   -1.8142   -2.4799    0.5604 C   0  0  0  0  0  0  0  0  0  0  0  0
   -0.8814   -2.9245    1.2049 O   0  0  0  0  0  0  0  0  0  0  0  0
   -1.6052   -1.3773   -0.2485 N   0  0  0  0  0  0  0  0  0  0  0  0
   -2.4088   -1.0219   -0.7606 H   0  0  0  0  0  0  0  0  0  0  0  0
   -0.3020   -0.6927   -0.3588 C   0  0  1  0  0  0  0  0  0  0  0  0
    0.3921   -1.4981   -0.6290 H   0  0  0  0  0  0  0  0  0  0  0  0
   -0.2771    0.3430   -1.5037 C   0  0  0  0  0  0  0  0  0  0  0  0
   -1.1279    0.1828   -2.1732 H   0  0  0  0  0  0  0  0  0  0  0  0
   -0.3688    1.3567   -1.0965 H   0  0  0  0  0  0  0  0  0  0  0  0
    1.0034    0.2228   -2.3006 C   0  0  0  0  0  0  0  0  0  0  0  0
    2.2737    0.0928   -1.7330 N   0  3  0  0  0  0  0  0  0  0  0  0
    2.4211    0.0832   -0.7096 H   0  0  0  0  0  0  0  0  0  0  0  0
    3.1867   -0.0042   -2.6660 C   0  0  0  0  0  0  0  0  0  0  0  0
    4.2608   -0.1162   -2.5056 H   0  0  0  0  0  0  0  0  0  0  0  0
    2.5251    0.0619   -3.8913 N   0  0  0  0  0  0  0  0  0  0  0  0
    2.9724    0.0134   -4.8118 H   0  0  0  0  0  0  0  0  0  0  0  0
    1.1587    0.2028   -3.6640 C   0  0  0  0  0  0  0  0  0  0  0  0
    0.3689    0.2807   -4.4112 H   0  0  0  0  0  0  0  0  0  0  0  0
    0.2928   -0.0924    0.9312 C   0  0  0  0  0  0  0  0  0  0  0  0
    1.5134    0.0390    0.9721 O   0  0  0  0  0  0  0  0  0  0  0  0
   -0.4966    0.6341    1.8017 N   0  0  0  0  0  0  0  0  0  0  0  0
   -1.4938    0.4379    1.7778 H   0  0  0  0  0  0  0  0  0  0  0  0
    0.0438    1.3030    2.9822 C   0  0  0  0  0  0  0  0  0  0  0  0
    0.7852    2.0562    2.6945 H   0  0  0  0  0  0  0  0  0  0  0  0
   -0.7567    1.8053    3.5346 H   0  0  0  0  0  0  0  0  0  0  0  0
    0.5216    0.5777    3.6500 H   0  0  0  0  0  0  0  0  0  0  0  0
  1  2  1  0  0  0  0
  2  3  1  0  0  0  0
  2  4  1  0  0  0  0
  2  5  1  0  0  0  0
  5  6  2  0  0  0  0
  5  7  1  0  0  0  0
  7  8  1  0  0  0  0
  7  9  1  0  0  0  0
  9 10  1  0  0  0  0
  9 11  1  0  0  0  0
  9 23  1  0  0  0  0
 11 12  1  0  0  0  0
 11 13  1  0  0  0  0
 11 14  1  0  0  0  0
 14 15  1  0  0  0  0
 14 21  2  0  0  0  0
 15 16  1  0  0  0  0
 15 17  2  0  0  0  0
 17 18  1  0  0  0  0
 17 19  1  0  0  0  0
 19 20  1  0  0  0  0
 19 21  1  0  0  0  0
 21 22  1  0  0  0  0
 23 24  2  0  0  0  0
 23 25  1  0  0  0  0
 25 26  1  0  0  0  0
 25 27  1  0  0  0  0
 27 28  1  0  0  0  0
 27 29  1  0  0  0  0
 27 30  1  0  0  0  0
M  CHG  1  15   1
M  END
$$$$

  -OEChem-04042216003D

 30 30  0     1  0  0  0  0  0999 V2000
   -3.1565   -3.9963    1.2915 H   0  0  0  0  0  0  0  0  0  0  0  0
   -3.1923   -3.1302    0.6242 C   0  0  0  0  0  0  0  0  0  0  0  0
   -3.9218   -2.4170    1.0150 H   0  0  0  0  0  0  0  0  0  0  0  0
   -3.5119   -3.4650   -0.3655 H   0  0  0  0  0  0  0  0  0  0  0  0
   -1.8231   -2.4840    0.5381 C   0  0  0  0  0  0  0  0  0  0  0  0
   -0.8846   -2.9404    1.1663 O   0  0  0  0  0  0  0  0  0  0  0  0
   -1.6196   -1.3699   -0.2562 N   0  0  0  0  0  0  0  0  0  0  0  0
   -2.4310   -0.9949   -0.7418 H   0  0  0  0  0  0  0  0  0  0  0  0
   -0.3210   -0.6751   -0.3500 C   0  0  1  0  0  0  0  0  0  0  0  0
    0.3662   -1.4890   -0.6104 H   0  0  0  0  0  0  0  0  0  0  0  0
   -0.2812    0.3401   -1.5133 C   0  0  0  0  0  0  0  0  0  0  0  0
   -1.1180    0.1618   -2.1960 H   0  0  0  0  0  0  0  0  0  0  0  0
   -0.3925    1.3565   -1.1183 H   0  0  0  0  0  0  0  0  0  0  0  0
    1.0133    0.2370   -2.2929 C   0  0  0  0  0  0  0  0  0  0  0  0
    2.2457   -0.1516   -1.7575 N   0  3  0  0  0  0  0  0  0  0  0  0
    2.3866   -0.2768   -0.7413 H   0  0  0  0  0  0  0  0  0  0  0  0
    3.1669   -0.1668   -2.6874 C   0  0  0  0  0  0  0  0  0  0  0  0
    4.2249   -0.3935   -2.5414 H   0  0  0  0  0  0  0  0  0  0  0  0
    2.5429    0.1790   -3.8847 N   0  0  0  0  0  0  0  0  0  0  0  0
    3.0048    0.2527   -4.7963 H   0  0  0  0  0  0  0  0  0  0  0  0
    1.1962    0.4313   -3.6391 C   0  0  0  0  0  0  0  0  0  0  0  0
    0.4356    0.7221   -4.3637 H   0  0  0  0  0  0  0  0  0  0  0  0
    0.2819   -0.0792    0.9356 C   0  0  0  0  0  0  0  0  0  0  0  0
    1.5061    0.0087    0.9782 O   0  0  0  0  0  0  0  0  0  0  0  0
   -0.4935    0.6423    1.8222 N   0  0  0  0  0  0  0  0  0  0  0  0
   -1.4957    0.4742    1.7925 H   0  0  0  0  0  0  0  0  0  0  0  0
    0.0632    1.2848    3.0097 C   0  0  0  0  0  0  0  0  0  0  0  0
    0.8256    2.0198    2.7299 H   0  0  0  0  0  0  0  0  0  0  0  0
   -0.7236    1.8039    3.5662 H   0  0  0  0  0  0  0  0  0  0  0  0
    0.5203    0.5402    3.6706 H   0  0  0  0  0  0  0  0  0  0  0  0
  1  2  1  0  0  0  0
  2  3  1  0  0  0  0
  2  4  1  0  0  0  0
  2  5  1  0  0  0  0
  5  6  2  0  0  0  0
  5  7  1  0  0  0  0
  7  8  1  0  0  0  0
  7  9  1  0  0  0  0
  9 10  1  0  0  0  0
  9 11  1  0  0  0  0
  9 23  1  0  0  0  0
 11 12  1  0  0  0  0
 11 13  1  0  0  0  0
 11 14  1  0  0  0  0
 14 15  1  0  0  0  0
 14 21  2  0  0  0  0
 15 16  1  0  0  0  0
 15 17  2  0  0  0  0
 17 18  1  0  0  0  0
 17 19  1  0  0  0  0
 19 20  1  0  0  0  0
 19 21  1  0  0  0  0
 21 22  1  0  0  0  0
 23 24  2  0  0  0  0
 23 25  1  0  0  0  0
 25 26  1  0  0  0  0
 25 27  1  0  0  0  0
 27 28  1  0  0  0  0
 27 29  1  0  0  0  0
 27 30  1  0  0  0  0
M  CHG  1  15   1
M  END
$$$$

  -OEChem-04042216003D

 30 30  0     1  0  0  0  0  0999 V2000
   -3.1684   -4.0089    1.2745 H   0  0  0  0  0  0  0  0  0  0  0  0
   -3.2079   -3.1369    0.6149 C   0  0  0  0  0  0  0  0  0  0  0  0
   -3.9308   -2.4249    1.0198 H   0  0  0  0  0  0  0  0  0  0  0  0
   -3.5392   -3.4620   -0.3742 H   0  0  0  0  0  0  0  0  0  0  0  0
   -1.8376   -2.4939    0.5205 C   0  0  0  0  0  0  0  0  0  0  0  0
   -0.8935   -2.9616    1.1321 O   0  0  0  0  0  0  0  0  0  0  0  0
   -1.6385   -1.3709   -0.2628 N   0  0  0  0  0  0  0  0  0  0  0  0
   -2.4572   -0.9782   -0.7215 H   0  0  0  0  0  0  0  0  0  0  0  0
   -0.3449   -0.6651   -0.3423 C   0  0  1  0  0  0  0  0  0  0  0  0
    0.3348   -1.4888   -0.5849 H   0  0  0  0  0  0  0  0  0  0  0  0
   -0.2827    0.3242   -1.5268 C   0  0  0  0  0  0  0  0  0  0  0  0
   -1.1000    0.1179   -2.2254 H   0  0  0  0  0  0  0  0  0  0  0  0
   -0.4198    1.3462   -1.1553 H   0  0  0  0  0  0  0  0  0  0  0  0
    1.0289    0.2320   -2.2826 C   0  0  0  0  0  0  0  0  0  0  0  0
    2.1989   -0.3910   -1.8334 N   0  3  0  0  0  0  0  0  0  0  0  0
    2.3255   -0.6608   -0.8456 H   0  0  0  0  0  0  0  0  0  0  0  0
    3.1384   -0.3122   -2.7419 C   0  0  0  0  0  0  0  0  0  0  0  0
    4.1701   -0.6521   -2.6312 H   0  0  0  0  0  0  0  0  0  0  0  0
    2.5813    0.3167   -3.8531 N   0  0  0  0  0  0  0  0  0  0  0  0
    3.0724    0.5237   -4.7282 H   0  0  0  0  0  0  0  0  0  0  0  0
    1.2640    0.6603   -3.5655 C   0  0  0  0  0  0  0  0  0  0  0  0
    0.5556    1.1660   -4.2220 H   0  0  0  0  0  0  0  0  0  0  0  0
    0.2675   -0.0672    0.9347 C   0  0  0  0  0  0  0  0  0  0  0  0
    1.4932   -0.0136    0.9726 O   0  0  0  0  0  0  0  0  0  0  0  0
   -0.4938    0.6527    1.8345 N   0  0  0  0  0  0  0  0  0  0  0  0
   -1.4993    0.5067    1.8043 H   0  0  0  0  0  0  0  0  0  0  0  0
    0.0794    1.2763    3.0241 C   0  0  0  0  0  0  0  0  0  0  0  0
    0.8558    1.9974    2.7463 H   0  0  0  0  0  0  0  0  0  0  0  0
   -0.6950    1.8080    3.5863 H   0  0  0  0  0  0  0  0  0  0  0  0
    0.5235    0.5187    3.6790 H   0  0  0  0  0  0  0  0  0  0  0  0
  1  2  1  0  0  0  0
  2  3  1  0  0  0  0
  2  4  1  0  0  0  0
  2  5  1  0  0  0  0
  5  6  2  0  0  0  0
  5  7  1  0  0  0  0
  7  8  1  0  0  0  0
  7  9  1  0  0  0  0
  9 10  1  0  0  0  0
  9 11  1  0  0  0  0
  9 23  1  0  0  0  0
 11 12  1  0  0  0  0
 11 13  1  0  0  0  0
 11 14  1  0  0  0  0
 14 15  1  0  0  0  0
 14 21  2  0  0  0  0
 15 16  1  0  0  0  0
 15 17  2  0  0  0  0
 17 18  1  0  0  0  0
 17 19  1  0  0  0  0
 19 20  1  0  0  0  0
 19 21  1  0  0  0  0
 21 22  1  0  0  0  0
 23 24  2  0  0  0  0
 23 25  1  0  0  0  0
 25 26  1  0  0  0  0
 25 27  1  0  0  0  0
 27 28  1  0  0  0  0
 27 29  1  0  0  0  0
 27 30  1  0  0  0  0
M  CHG  1  15   1
M  END
$$$$

  -OEChem-04042216003D

 30 30  0     1  0  0  0  0  0999 V2000
   -3.2032   -3.9828    1.3103 H   0  0  0  0  0  0  0  0  0  0  0  0
   -3.2311   -3.1135    0.6465 C   0  0  0  0  0  0  0  0  0  0  0  0
   -3.9340   -2.3840    1.0555 H   0  0  0  0  0  0  0  0  0  0  0  0
   -3.5803   -3.4361   -0.3372 H   0  0  0  0  0  0  0  0  0  0  0  0
   -1.8481   -2.5017    0.5340 C   0  0  0  0  0  0  0  0  0  0  0  0
   -0.9080   -2.9857    1.1391 O   0  0  0  0  0  0  0  0  0  0  0  0
   -1.6319   -1.3918   -0.2632 N   0  0  0  0  0  0  0  0  0  0  0  0
   -2.4494   -0.9804   -0.7074 H   0  0  0  0  0  0  0  0  0  0  0  0
   -0.3326   -0.6955   -0.3350 C   0  0  1  0  0  0  0  0  0  0  0  0
    0.3464   -1.5239   -0.5550 H   0  0  0  0  0  0  0  0  0  0  0  0
   -0.2550    0.2854   -1.5246 C   0  0  0  0  0  0  0  0  0  0  0  0
   -1.0662    0.0679   -2.2269 H   0  0  0  0  0  0  0  0  0  0  0  0
   -0.4001    1.3104   -1.1648 H   0  0  0  0  0  0  0  0  0  0  0  0
    1.0559    0.1943   -2.2829 C   0  0  0  0  0  0  0  0  0  0  0  0
    2.1443   -0.6450   -2.0163 N   0  3  0  0  0  0  0  0  0  0  0  0
    2.2335   -1.1613   -1.1326 H   0  0  0  0  0  0  0  0  0  0  0  0
    3.1029   -0.4419   -2.8855 C   0  0  0  0  0  0  0  0  0  0  0  0
    4.0916   -0.9051   -2.8738 H   0  0  0  0  0  0  0  0  0  0  0  0
    2.6380    0.5021   -3.7973 N   0  0  0  0  0  0  0  0  0  0  0  0
    3.1656    0.8711   -4.5943 H   0  0  0  0  0  0  0  0  0  0  0  0
    1.3635    0.9062   -3.4158 C   0  0  0  0  0  0  0  0  0  0  0  0
    0.7308    1.6438   -3.9100 H   0  0  0  0  0  0  0  0  0  0  0  0
    0.2609   -0.0845    0.9437 C   0  0  0  0  0  0  0  0  0  0  0  0
    1.4840   -0.0416    1.0078 O   0  0  0  0  0  0  0  0  0  0  0  0
   -0.5139    0.6512    1.8192 N   0  0  0  0  0  0  0  0  0  0  0  0
   -1.5190    0.5086    1.7730 H   0  0  0  0  0  0  0  0  0  0  0  0
    0.0406    1.2848    3.0121 C   0  0  0  0  0  0  0  0  0  0  0  0
    0.8374    1.9865    2.7424 H   0  0  0  0  0  0  0  0  0  0  0  0
   -0.7376    1.8403    3.5451 H   0  0  0  0  0  0  0  0  0  0  0  0
    0.4537    0.5300    3.6905 H   0  0  0  0  0  0  0  0  0  0  0  0
  1  2  1  0  0  0  0
  2  3  1  0  0  0  0
  2  4  1  0  0  0  0
  2  5  1  0  0  0  0
  5  6  2  0  0  0  0
  5  7  1  0  0  0  0
  7  8  1  0  0  0  0
  7  9  1  0  0  0  0
  9 10  1  0  0  0  0
  9 11  1  0  0  0  0
  9 23  1  0  0  0  0
 11 12  1  0  0  0  0
 11 13  1  0  0  0  0
 11 14  1  0  0  0  0
 14 15  1  0  0  0  0
 14 21  2  0  0  0  0
 15 16  1  0  0  0  0
 15 17  2  0  0  0  0
 17 18  1  0  0  0  0
 17 19  1  0  0  0  0
 19 20  1  0  0  0  0
 19 21  1  0  0  0  0
 21 22  1  0  0  0  0
 23 24  2  0  0  0  0
 23 25  1  0  0  0  0
 25 26  1  0  0  0  0
 25 27  1  0  0  0  0
 27 28  1  0  0  0  0
 27 29  1  0  0  0  0
 27 30  1  0  0  0  0
M  CHG  1  15   1
M  END
$$$$

  -OEChem-04042216003D

 30 30  0     1  0  0  0  0  0999 V2000
   -3.2337   -3.9271    1.3933 H   0  0  0  0  0  0  0  0  0  0  0  0
   -3.2462   -3.0736    0.7090 C   0  0  0  0  0  0  0  0  0  0  0  0
   -3.9203   -2.3136    1.1111 H   0  0  0  0  0  0  0  0  0  0  0  0
   -3.6203   -3.4086   -0.2614 H   0  0  0  0  0  0  0  0  0  0  0  0
   -1.8474   -2.5069    0.5610 C   0  0  0  0  0  0  0  0  0  0  0  0
   -0.9110   -3.0109    1.1549 O   0  0  0  0  0  0  0  0  0  0  0  0
   -1.6109   -1.4211   -0.2630 N   0  0  0  0  0  0  0  0  0  0  0  0
   -2.4250   -0.9897   -0.6947 H   0  0  0  0  0  0  0  0  0  0  0  0
   -0.3008   -0.7452   -0.3412 C   0  0  1  0  0  0  0  0  0  0  0  0
    0.3877   -1.5679   -0.5476 H   0  0  0  0  0  0  0  0  0  0  0  0
   -0.2297    0.2472   -1.5215 C   0  0  0  0  0  0  0  0  0  0  0  0
   -1.0512    0.0339   -2.2132 H   0  0  0  0  0  0  0  0  0  0  0  0
   -0.3703    1.2713   -1.1566 H   0  0  0  0  0  0  0  0  0  0  0  0
    1.0628    0.1525   -2.3112 C   0  0  0  0  0  0  0  0  0  0  0  0
    2.0295   -0.8604   -2.2958 N   0  3  0  0  0  0  0  0  0  0  0  0
    1.9964   -1.6513   -1.6453 H   0  0  0  0  0  0  0  0  0  0  0  0
    3.0357   -0.5480   -3.0748 C   0  0  0  0  0  0  0  0  0  0  0  0
    3.9502   -1.1284   -3.2130 H   0  0  0  0  0  0  0  0  0  0  0  0
    2.7345    0.6760   -3.6650 N   0  0  0  0  0  0  0  0  0  0  0  0
    3.3388    1.1912   -4.3126 H   0  0  0  0  0  0  0  0  0  0  0  0
    1.5103    1.1190   -3.1783 C   0  0  0  0  0  0  0  0  0  0  0  0
    1.0075    2.0560   -3.4192 H   0  0  0  0  0  0  0  0  0  0  0  0
    0.2627   -0.1193    0.9464 C   0  0  0  0  0  0  0  0  0  0  0  0
    1.4809   -0.0570    1.0453 O   0  0  0  0  0  0  0  0  0  0  0  0
   -0.5378    0.6356    1.7829 N   0  0  0  0  0  0  0  0  0  0  0  0
   -1.5404    0.4861    1.7159 H   0  0  0  0  0  0  0  0  0  0  0  0
   -0.0166    1.3019    2.9732 C   0  0  0  0  0  0  0  0  0  0  0  0
    0.7650    2.0200    2.7024 H   0  0  0  0  0  0  0  0  0  0  0  0
   -0.8164    1.8444    3.4871 H   0  0  0  0  0  0  0  0  0  0  0  0
    0.4069    0.5691    3.6689 H   0  0  0  0  0  0  0  0  0  0  0  0
  1  2  1  0  0  0  0
  2  3  1  0  0  0  0
  2  4  1  0  0  0  0
  2  5  1  0  0  0  0
  5  6  2  0  0  0  0
  5  7  1  0  0  0  0
  7  8  1  0  0  0  0
  7  9  1  0  0  0  0
  9 10  1  0  0  0  0
  9 11  1  0  0  0  0
  9 23  1  0  0  0  0
 11 12  1  0  0  0  0
 11 13  1  0  0  0  0
 11 14  1  0  0  0  0
 14 15  1  0  0  0  0
 14 21  2  0  0  0  0
 15 16  1  0  0  0  0
 15 17  2  0  0  0  0
 17 18  1  0  0  0  0
 17 19  1  0  0  0  0
 19 20  1  0  0  0  0
 19 21  1  0  0  0  0
 21 22  1  0  0  0  0
 23 24  2  0  0  0  0
 23 25  1  0  0  0  0
 25 26  1  0  0  0  0
 25 27  1  0  0  0  0
 27 28  1  0  0  0  0
 27 29  1  0  0  0  0
 27 30  1  0  0  0  0
M  CHG  1  15   1
M  END
$$$$

  -OEChem-04042216003D

 30 30  0     1  0  0  0  0  0999 V2000
   -3.2127   -3.9132    1.4272 H   0  0  0  0  0  0  0  0  0  0  0  0
   -3.2306   -3.0605    0.7419 C   0  0  0  0  0  0  0  0  0  0  0  0
   -3.8860   -2.2918    1.1579 H   0  0  0  0  0  0  0  0  0  0  0  0
   -3.6311   -3.3924   -0.2189 H   0  0  0  0  0  0  0  0  0  0  0  0
   -1.8289   -2.5107    0.5601 C   0  0  0  0  0  0  0  0  0  0  0  0
   -0.8844   -3.0285    1.1281 O   0  0  0  0  0  0  0  0  0  0  0  0
   -1.5982   -1.4308   -0.2731 N   0  0  0  0  0  0  0  0  0  0  0  0
   -2.4193   -0.9845   -0.6751 H   0  0  0  0  0  0  0  0  0  0  0  0
   -0.2882   -0.7548   -0.3621 C   0  0  1  0  0  0  0  0  0  0  0  0
    0.4146   -1.5648   -0.5733 H   0  0  0  0  0  0  0  0  0  0  0  0
   -0.2401    0.2546   -1.5284 C   0  0  0  0  0  0  0  0  0  0  0  0
   -1.0718    0.0507   -2.2105 H   0  0  0  0  0  0  0  0  0  0  0  0
   -0.3752    1.2741   -1.1491 H   0  0  0  0  0  0  0  0  0  0  0  0
    1.0406    0.1583   -2.3341 C   0  0  0  0  0  0  0  0  0  0  0  0
    1.8460   -0.9638   -2.5617 N   0  3  0  0  0  0  0  0  0  0  0  0
    1.6416   -1.8871   -2.1694 H   0  0  0  0  0  0  0  0  0  0  0  0
    2.9233   -0.6293   -3.2287 C   0  0  0  0  0  0  0  0  0  0  0  0
    3.7425   -1.2937   -3.5112 H   0  0  0  0  0  0  0  0  0  0  0  0
    2.8401    0.7360   -3.4861 N   0  0  0  0  0  0  0  0  0  0  0  0
    3.5508    1.2974   -3.9652 H   0  0  0  0  0  0  0  0  0  0  0  0
    1.6728    1.2295   -2.9161 C   0  0  0  0  0  0  0  0  0  0  0  0
    1.3356    2.2661   -2.9023 H   0  0  0  0  0  0  0  0  0  0  0  0
    0.2671   -0.1242    0.9285 C   0  0  0  0  0  0  0  0  0  0  0  0
    1.4825   -0.0366    1.0343 O   0  0  0  0  0  0  0  0  0  0  0  0
   -0.5458    0.6292    1.7553 N   0  0  0  0  0  0  0  0  0  0  0  0
   -1.5463    0.4702    1.6825 H   0  0  0  0  0  0  0  0  0  0  0  0
   -0.0386    1.3070    2.9457 C   0  0  0  0  0  0  0  0  0  0  0  0
    0.7333    2.0358    2.6755 H   0  0  0  0  0  0  0  0  0  0  0  0
   -0.8477    1.8390    3.4561 H   0  0  0  0  0  0  0  0  0  0  0  0
    0.3940    0.5825    3.6446 H   0  0  0  0  0  0  0  0  0  0  0  0
  1  2  1  0  0  0  0
  2  3  1  0  0  0  0
  2  4  1  0  0  0  0
  2  5  1  0  0  0  0
  5  6  2  0  0  0  0
  5  7  1  0  0  0  0
  7  8  1  0  0  0  0
  7  9  1  0  0  0  0
  9 10  1  0  0  0  0
  9 11  1  0  0  0  0
  9 23  1  0  0  0  0
 11 12  1  0  0  0  0
 11 13  1  0  0  0  0
 11 14  1  0  0  0  0
 14 15  1  0  0  0  0
 14 21  2  0  0  0  0
 15 16  1  0  0  0  0
 15 17  2  0  0  0  0
 17 18  1  0  0  0  0
 17 19  1  0  0  0  0
 19 20  1  0  0  0  0
 19 21  1  0  0  0  0
 21 22  1  0  0  0  0
 23 24  2  0  0  0  0
 23 25  1  0  0  0  0
 25 26  1  0  0  0  0
 25 27  1  0  0  0  0
 27 28  1  0  0  0  0
 27 29  1  0  0  0  0
 27 30  1  0  0  0  0
M  CHG  1  15   1
M  END
$$$$

  -OEChem-04042216003D

 30 30  0     1  0  0  0  0  0999 V2000
   -3.1780   -3.9222    1.4160 H   0  0  0  0  0  0  0  0  0  0  0  0
   -3.2066   -3.0615    0.7412 C   0  0  0  0  0  0  0  0  0  0  0  0
   -3.8537   -2.2972    1.1779 H   0  0  0  0  0  0  0  0  0  0  0  0
   -3.6248   -3.3817   -0.2160 H   0  0  0  0  0  0  0  0  0  0  0  0
   -1.8074   -2.5115    0.5418 C   0  0  0  0  0  0  0  0  0  0  0  0
   -0.8548   -3.0351    1.0904 O   0  0  0  0  0  0  0  0  0  0  0  0
   -1.5895   -1.4247   -0.2860 N   0  0  0  0  0  0  0  0  0  0  0  0
   -2.4181   -0.9709   -0.6636 H   0  0  0  0  0  0  0  0  0  0  0  0
   -0.2838   -0.7405   -0.3793 C   0  0  1  0  0  0  0  0  0  0  0  0
    0.4304   -1.5378   -0.6074 H   0  0  0  0  0  0  0  0  0  0  0  0
   -0.2556    0.2853   -1.5309 C   0  0  0  0  0  0  0  0  0  0  0  0
   -1.0935    0.0969   -2.2100 H   0  0  0  0  0  0  0  0  0  0  0  0
   -0.3815    1.2998   -1.1355 H   0  0  0  0  0  0  0  0  0  0  0  0
    1.0228    0.1852   -2.3346 C   0  0  0  0  0  0  0  0  0  0  0  0
    1.6550   -0.9719   -2.8016 N   0  3  0  0  0  0  0  0  0  0  0  0
    1.2878   -1.9137   -2.6390 H   0  0  0  0  0  0  0  0  0  0  0  0
    2.7946   -0.6702   -3.3754 C   0  0  0  0  0  0  0  0  0  0  0  0
    3.5126   -1.3740   -3.8013 H   0  0  0  0  0  0  0  0  0  0  0  0
    2.9302    0.7146   -3.3196 N   0  0  0  0  0  0  0  0  0  0  0  0
    3.7375    1.2497   -3.6541 H   0  0  0  0  0  0  0  0  0  0  0  0
    1.8293    1.2473   -2.6603 C   0  0  0  0  0  0  0  0  0  0  0  0
    1.6539    2.2943   -2.4116 H   0  0  0  0  0  0  0  0  0  0  0  0
    0.2713   -0.1173    0.9165 C   0  0  0  0  0  0  0  0  0  0  0  0
    1.4851   -0.0036    1.0145 O   0  0  0  0  0  0  0  0  0  0  0  0
   -0.5470    0.6228    1.7507 N   0  0  0  0  0  0  0  0  0  0  0  0
   -1.5451    0.4469    1.6857 H   0  0  0  0  0  0  0  0  0  0  0  0
   -0.0432    1.3058    2.9399 C   0  0  0  0  0  0  0  0  0  0  0  0
    0.7331    2.0301    2.6703 H   0  0  0  0  0  0  0  0  0  0  0  0
   -0.8528    1.8448    3.4420 H   0  0  0  0  0  0  0  0  0  0  0  0
    0.3823    0.5838    3.6457 H   0  0  0  0  0  0  0  0  0  0  0  0
  1  2  1  0  0  0  0
  2  3  1  0  0  0  0
  2  4  1  0  0  0  0
  2  5  1  0  0  0  0
  5  6  2  0  0  0  0
  5  7  1  0  0  0  0
  7  8  1  0  0  0  0
  7  9  1  0  0  0  0
  9 10  1  0  0  0  0
  9 11  1  0  0  0  0
  9 23  1  0  0  0  0
 11 12  1  0  0  0  0
 11 13  1  0  0  0  0
 11 14  1  0  0  0  0
 14 15  1  0  0  0  0
 14 21  2  0  0  0  0
 15 16  1  0  0  0  0
 15 17  2  0  0  0  0
 17 18  1  0  0  0  0
 17 19  1  0  0  0  0
 19 20  1  0  0  0  0
 19 21  1  0  0  0  0
 21 22  1  0  0  0  0
 23 24  2  0  0  0  0
 23 25  1  0  0  0  0
 25 26  1  0  0  0  0
 25 27  1  0  0  0  0
 27 28  1  0  0  0  0
 27 29  1  0  0  0  0
 27 30  1  0  0  0  0
M  CHG  1  15   1
M  END
$$$$

  -OEChem-04042216003D

 30 30  0     1  0  0  0  0  0999 V2000
   -3.1454   -3.9332    1.3994 H   0  0  0  0  0  0  0  0  0  0  0  0
   -3.1838   -3.0690    0.7295 C   0  0  0  0  0  0  0  0  0  0  0  0
   -3.8362   -2.3127    1.1725 H   0  0  0  0  0  0  0  0  0  0  0  0
   -3.6021   -3.3879   -0.2281 H   0  0  0  0  0  0  0  0  0  0  0  0
   -1.7900   -2.5062    0.5282 C   0  0  0  0  0  0  0  0  0  0  0  0
   -0.8323   -3.0254    1.0715 O   0  0  0  0  0  0  0  0  0  0  0  0
   -1.5842   -1.4117   -0.2927 N   0  0  0  0  0  0  0  0  0  0  0  0
   -2.4180   -0.9591   -0.6600 H   0  0  0  0  0  0  0  0  0  0  0  0
   -0.2822   -0.7209   -0.3920 C   0  0  1  0  0  0  0  0  0  0  0  0
    0.4381   -1.5090   -0.6395 H   0  0  0  0  0  0  0  0  0  0  0  0
   -0.2683    0.3203   -1.5281 C   0  0  0  0  0  0  0  0  0  0  0  0
   -1.1125    0.1524   -2.2042 H   0  0  0  0  0  0  0  0  0  0  0  0
   -0.3783    1.3303   -1.1162 H   0  0  0  0  0  0  0  0  0  0  0  0
    1.0102    0.2100   -2.3259 C   0  0  0  0  0  0  0  0  0  0  0  0
    1.4758   -0.9013   -3.0343 N   0  3  0  0  0  0  0  0  0  0  0  0
    0.9616   -1.7846   -3.0899 H   0  0  0  0  0  0  0  0  0  0  0  0
    2.6678   -0.6602   -3.5250 C   0  0  0  0  0  0  0  0  0  0  0  0
    3.2865   -1.3540   -4.0976 H   0  0  0  0  0  0  0  0  0  0  0  0
    3.0091    0.6403   -3.1609 N   0  0  0  0  0  0  0  0  0  0  0  0
    3.9012    1.1029   -3.3611 H   0  0  0  0  0  0  0  0  0  0  0  0
    1.9772    1.1801   -2.4037 C   0  0  0  0  0  0  0  0  0  0  0  0
    1.9528    2.1583   -1.9220 H   0  0  0  0  0  0  0  0  0  0  0  0
    0.2769   -0.1074    0.9073 C   0  0  0  0  0  0  0  0  0  0  0  0
    1.4887    0.0399    0.9898 O   0  0  0  0  0  0  0  0  0  0  0  0
   -0.5457    0.6187    1.7496 N   0  0  0  0  0  0  0  0  0  0  0  0
   -1.5402    0.4189    1.6980 H   0  0  0  0  0  0  0  0  0  0  0  0
   -0.0431    1.3073    2.9359 C   0  0  0  0  0  0  0  0  0  0  0  0
    0.7140    2.0494    2.6603 H   0  0  0  0  0  0  0  0  0  0  0  0
   -0.8588    1.8261    3.4492 H   0  0  0  0  0  0  0  0  0  0  0  0
    0.4059    0.5920    3.6338 H   0  0  0  0  0  0  0  0  0  0  0  0
  1  2  1  0  0  0  0
  2  3  1  0  0  0  0
  2  4  1  0  0  0  0
  2  5  1  0  0  0  0
  5  6  2  0  0  0  0
  5  7  1  0  0  0  0
  7  8  1  0  0  0  0
  7  9  1  0  0  0  0
  9 10  1  0  0  0  0
  9 11  1  0  0  0  0
  9 23  1  0  0  0  0
 11 12  1  0  0  0  0
 11 13  1  0  0  0  0
 11 14  1  0  0  0  0
 14 15  1  0  0  0  0
 14 21  2  0  0  0  0
 15 16  1  0  0  0  0
 15 17  2  0  0  0  0
 17 18  1  0  0  0  0
 17 19  1  0  0  0  0
 19 20  1  0  0  0  0
 19 21  1  0  0  0  0
 21 22  1  0  0  0  0
 23 24  2  0  0  0  0
 23 25  1  0  0  0  0
 25 26  1  0  0  0  0
 25 27  1  0  0  0  0
 27 28  1  0  0  0  0
 27 29  1  0  0  0  0
 27 30  1  0  0  0  0
M  CHG  1  15   1
M  END
$$$$

  -OEChem-04042216003D

 30 30  0     1  0  0  0  0  0999 V2000
   -3.1339   -3.9328    1.3923 H   0  0  0  0  0  0  0  0  0  0  0  0
   -3.1742   -3.0718    0.7185 C   0  0  0  0  0  0  0  0  0  0  0  0
   -3.8349   -2.3185    1.1540 H   0  0  0  0  0  0  0  0  0  0  0  0
   -3.5840   -3.3978   -0.2404 H   0  0  0  0  0  0  0  0  0  0  0  0
   -1.7833   -2.4997    0.5235 C   0  0  0  0  0  0  0  0  0  0  0  0
   -0.8252   -3.0111    1.0733 O   0  0  0  0  0  0  0  0  0  0  0  0
   -1.5828   -1.4012   -0.2933 N   0  0  0  0  0  0  0  0  0  0  0  0
   -2.4180   -0.9534   -0.6629 H   0  0  0  0  0  0  0  0  0  0  0  0
   -0.2824   -0.7076   -0.3967 C   0  0  1  0  0  0  0  0  0  0  0  0
    0.4382   -1.4925   -0.6579 H   0  0  0  0  0  0  0  0  0  0  0  0
   -0.2750    0.3410   -1.5250 C   0  0  0  0  0  0  0  0  0  0  0  0
   -1.1246    0.1895   -2.1981 H   0  0  0  0  0  0  0  0  0  0  0  0
   -0.3711    1.3484   -1.1034 H   0  0  0  0  0  0  0  0  0  0  0  0
    1.0040    0.2225   -2.3184 C   0  0  0  0  0  0  0  0  0  0  0  0
    1.3378   -0.7611   -3.2523 N   0  3  0  0  0  0  0  0  0  0  0  0
    0.7089   -1.5270   -3.5073 H   0  0  0  0  0  0  0  0  0  0  0  0
    2.5680   -0.5865   -3.6729 C   0  0  0  0  0  0  0  0  0  0  0  0
    3.1062   -1.2154   -4.3848 H   0  0  0  0  0  0  0  0  0  0  0  0
    3.0707    0.5407   -3.0264 N   0  0  0  0  0  0  0  0  0  0  0  0
    4.0239    0.9067   -3.1133 H   0  0  0  0  0  0  0  0  0  0  0  0
    2.0957    1.0404   -2.1731 C   0  0  0  0  0  0  0  0  0  0  0  0
    2.1875    1.8775   -1.4791 H   0  0  0  0  0  0  0  0  0  0  0  0
    0.2820   -0.0993    0.9037 C   0  0  0  0  0  0  0  0  0  0  0  0
    1.4926    0.0679    0.9744 O   0  0  0  0  0  0  0  0  0  0  0  0
   -0.5400    0.6204    1.7522 N   0  0  0  0  0  0  0  0  0  0  0  0
   -1.5326    0.4091    1.7088 H   0  0  0  0  0  0  0  0  0  0  0  0
   -0.0348    1.3058    2.9393 C   0  0  0  0  0  0  0  0  0  0  0  0
    0.7011    2.0681    2.6617 H   0  0  0  0  0  0  0  0  0  0  0  0
   -0.8538    1.7996    3.4717 H   0  0  0  0  0  0  0  0  0  0  0  0
    0.4407    0.5922    3.6212 H   0  0  0  0  0  0  0  0  0  0  0  0
  1  2  1  0  0  0  0
  2  3  1  0  0  0  0
  2  4  1  0  0  0  0
  2  5  1  0  0  0  0
  5  6  2  0  0  0  0
  5  7  1  0  0  0  0
  7  8  1  0  0  0  0
  7  9  1  0  0  0  0
  9 10  1  0  0  0  0
  9 11  1  0  0  0  0
  9 23  1  0  0  0  0
 11 12  1  0  0  0  0
 11 13  1  0  0  0  0
 11 14  1  0  0  0  0
 14 15  1  0  0  0  0
 14 21  2  0  0  0  0
 15 16  1  0  0  0  0
 15 17  2  0  0  0  0
 17 18  1  0  0  0  0
 17 19  1  0  0  0  0
 19 20  1  0  0  0  0
 19 21  1  0  0  0  0
 21 22  1  0  0  0  0
 23 24  2  0  0  0  0
 23 25  1  0  0  0  0
 25 26  1  0  0  0  0
 25 27  1  0  0  0  0
 27 28  1  0  0  0  0
 27 29  1  0  0  0  0
 27 30  1  0  0  0  0
M  CHG  1  15   1
M  END
$$$$

  -OEChem-04042216003D

 30 30  0     1  0  0  0  0  0999 V2000
   -3.1331   -3.9305    1.3921 H   0  0  0  0  0  0  0  0  0  0  0  0
   -3.1701   -3.0734    0.7131 C   0  0  0  0  0  0  0  0  0  0  0  0
   -3.8428   -2.3229    1.1347 H   0  0  0  0  0  0  0  0  0  0  0  0
   -3.5630   -3.4073   -0.2501 H   0  0  0  0  0  0  0  0  0  0  0  0
   -1.7806   -2.4918    0.5362 C   0  0  0  0  0  0  0  0  0  0  0  0
   -0.8289   -2.9909    1.1078 O   0  0  0  0  0  0  0  0  0  0  0  0
   -1.5753   -1.3949   -0.2818 N   0  0  0  0  0  0  0  0  0  0  0  0
   -2.4058   -0.9598   -0.6758 H   0  0  0  0  0  0  0  0  0  0  0  0
   -0.2720   -0.7066   -0.3885 C   0  0  1  0  0  0  0  0  0  0  0  0
    0.4469   -1.4912   -0.6569 H   0  0  0  0  0  0  0  0  0  0  0  0
   -0.2660    0.3482   -1.5121 C   0  0  0  0  0  0  0  0  0  0  0  0
   -1.1230    0.2083   -2.1779 H   0  0  0  0  0  0  0  0  0  0  0  0
   -0.3500    1.3541   -1.0842 H   0  0  0  0  0  0  0  0  0  0  0  0
    1.0078    0.2290   -2.3145 C   0  0  0  0  0  0  0  0  0  0  0  0
    1.2363   -0.5562   -3.4465 N   0  3  0  0  0  0  0  0  0  0  0  0
    0.5184   -1.1487   -3.8713 H   0  0  0  0  0  0  0  0  0  0  0  0
    2.4886   -0.4522   -3.8242 C   0  0  0  0  0  0  0  0  0  0  0  0
    2.9581   -0.9651   -4.6656 H   0  0  0  0  0  0  0  0  0  0  0  0
    3.1167    0.4230   -2.9407 N   0  0  0  0  0  0  0  0  0  0  0  0
    4.1099    0.6748   -2.9491 H   0  0  0  0  0  0  0  0  0  0  0  0
    2.1925    0.8420   -1.9934 C   0  0  0  0  0  0  0  0  0  0  0  0
    2.3719    1.4829   -1.1272 H   0  0  0  0  0  0  0  0  0  0  0  0
    0.2883   -0.1028    0.9168 C   0  0  0  0  0  0  0  0  0  0  0  0
    1.4986    0.0647    0.9967 O   0  0  0  0  0  0  0  0  0  0  0  0
   -0.5384    0.6164    1.7610 N   0  0  0  0  0  0  0  0  0  0  0  0
   -1.5299    0.4007    1.7144 H   0  0  0  0  0  0  0  0  0  0  0  0
   -0.0406    1.3059    2.9488 C   0  0  0  0  0  0  0  0  0  0  0  0
    0.6974    2.0670    2.6735 H   0  0  0  0  0  0  0  0  0  0  0  0
   -0.8630    1.8020    3.4739 H   0  0  0  0  0  0  0  0  0  0  0  0
    0.4300    0.5947    3.6366 H   0  0  0  0  0  0  0  0  0  0  0  0
  1  2  1  0  0  0  0
  2  3  1  0  0  0  0
  2  4  1  0  0  0  0
  2  5  1  0  0  0  0
  5  6  2  0  0  0  0
  5  7  1  0  0  0  0
  7  8  1  0  0  0  0
  7  9  1  0  0  0  0
  9 10  1  0  0  0  0
  9 11  1  0  0  0  0
  9 23  1  0  0  0  0
 11 12  1  0  0  0  0
 11 13  1  0  0  0  0
 11 14  1  0  0  0  0
 14 15  1  0  0  0  0
 14 21  2  0  0  0  0
 15 16  1  0  0  0  0
 15 17  2  0  0  0  0
 17 18  1  0  0  0  0
 17 19  1  0  0  0  0
 19 20  1  0  0  0  0
 19 21  1  0  0  0  0
 21 22  1  0  0  0  0
 23 24  2  0  0  0  0
 23 25  1  0  0  0  0
 25 26  1  0  0  0  0
 25 27  1  0  0  0  0
 27 28  1  0  0  0  0
 27 29  1  0  0  0  0
 27 30  1  0  0  0  0
M  CHG  1  15   1
M  END
$$$$

  -OEChem-04042216003D

 30 30  0     1  0  0  0  0  0999 V2000
   -3.1502   -3.9123    1.3996 H   0  0  0  0  0  0  0  0  0  0  0  0
   -3.1742   -3.0593    0.7149 C   0  0  0  0  0  0  0  0  0  0  0  0
   -3.8526   -2.3051    1.1200 H   0  0  0  0  0  0  0  0  0  0  0  0
   -3.5506   -3.3990   -0.2529 H   0  0  0  0  0  0  0  0  0  0  0  0
   -1.7811   -2.4807    0.5584 C   0  0  0  0  0  0  0  0  0  0  0  0
   -0.8411   -2.9759    1.1523 O   0  0  0  0  0  0  0  0  0  0  0  0
   -1.5604   -1.3923   -0.2673 N   0  0  0  0  0  0  0  0  0  0  0  0
   -2.3825   -0.9638   -0.6848 H   0  0  0  0  0  0  0  0  0  0  0  0
   -0.2511   -0.7141   -0.3686 C   0  0  1  0  0  0  0  0  0  0  0  0
    0.4675   -1.5019   -0.6280 H   0  0  0  0  0  0  0  0  0  0  0  0
   -0.2398    0.3337   -1.5013 C   0  0  0  0  0  0  0  0  0  0  0  0
   -1.0997    0.1888   -2.1623 H   0  0  0  0  0  0  0  0  0  0  0  0
   -0.3223    1.3429   -1.0807 H   0  0  0  0  0  0  0  0  0  0  0  0
    1.0307    0.2184   -2.3125 C   0  0  0  0  0  0  0  0  0  0  0  0
    1.1782   -0.3309   -3.5883 N   0  3  0  0  0  0  0  0  0  0  0  0
    0.4008   -0.7324   -4.1185 H   0  0  0  0  0  0  0  0  0  0  0  0
    2.4356   -0.2842   -3.9606 C   0  0  0  0  0  0  0  0  0  0  0  0
    2.8493   -0.6532   -4.9012 H   0  0  0  0  0  0  0  0  0  0  0  0
    3.1513    0.3160   -2.9272 N   0  0  0  0  0  0  0  0  0  0  0  0
    4.1641    0.4719   -2.9076 H   0  0  0  0  0  0  0  0  0  0  0  0
    2.2737    0.6291   -1.8987 C   0  0  0  0  0  0  0  0  0  0  0  0
    2.5188    1.0801   -0.9340 H   0  0  0  0  0  0  0  0  0  0  0  0
    0.2892   -0.1074    0.9446 C   0  0  0  0  0  0  0  0  0  0  0  0
    1.5002    0.0247    1.0653 O   0  0  0  0  0  0  0  0  0  0  0  0
   -0.5464    0.6200    1.7727 N   0  0  0  0  0  0  0  0  0  0  0  0
   -1.5410    0.4297    1.6928 H   0  0  0  0  0  0  0  0  0  0  0  0
   -0.0686    1.2822    2.9839 C   0  0  0  0  0  0  0  0  0  0  0  0
    0.7032    2.0211    2.7423 H   0  0  0  0  0  0  0  0  0  0  0  0
   -0.8922    1.8005    3.4851 H   0  0  0  0  0  0  0  0  0  0  0  0
    0.3541    0.5492    3.6800 H   0  0  0  0  0  0  0  0  0  0  0  0
  1  2  1  0  0  0  0
  2  3  1  0  0  0  0
  2  4  1  0  0  0  0
  2  5  1  0  0  0  0
  5  6  2  0  0  0  0
  5  7  1  0  0  0  0
  7  8  1  0  0  0  0
  7  9  1  0  0  0  0
  9 10  1  0  0  0  0
  9 11  1  0  0  0  0
  9 23  1  0  0  0  0
 11 12  1  0  0  0  0
 11 13  1  0  0  0  0
 11 14  1  0  0  0  0
 14 15  1  0  0  0  0
 14 21  2  0  0  0  0
 15 16  1  0  0  0  0
 15 17  2  0  0  0  0
 17 18  1  0  0  0  0
 17 19  1  0  0  0  0
 19 20  1  0  0  0  0
 19 21  1  0  0  0  0
 21 22  1  0  0  0  0
 23 24  2  0  0  0  0
 23 25  1  0  0  0  0
 25 26  1  0  0  0  0
 25 27  1  0  0  0  0
 27 28  1  0  0  0  0
 27 29  1  0  0  0  0
 27 30  1  0  0  0  0
M  CHG  1  15   1
M  END
$$$$

  -OEChem-04042216003D

 30 30  0     1  0  0  0  0  0999 V2000
   -3.1786   -3.8869    1.4140 H   0  0  0  0  0  0  0  0  0  0  0  0
   -3.1827   -3.0432    0.7174 C   0  0  0  0  0  0  0  0  0  0  0  0
   -3.8669   -2.2806    1.0967 H   0  0  0  0  0  0  0  0  0  0  0  0
   -3.5388   -3.3944   -0.2539 H   0  0  0  0  0  0  0  0  0  0  0  0
   -1.7837   -2.4728    0.5848 C   0  0  0  0  0  0  0  0  0  0  0  0
   -0.8598   -2.9629    1.2075 O   0  0  0  0  0  0  0  0  0  0  0  0
   -1.5403   -1.3967   -0.2506 N   0  0  0  0  0  0  0  0  0  0  0  0
   -2.3491   -0.9800   -0.7040 H   0  0  0  0  0  0  0  0  0  0  0  0
   -0.2237   -0.7307   -0.3439 C   0  0  1  0  0  0  0  0  0  0  0  0
    0.4950   -1.5219   -0.5917 H   0  0  0  0  0  0  0  0  0  0  0  0
   -0.2036    0.3113   -1.4842 C   0  0  0  0  0  0  0  0  0  0  0  0
   -1.0655    0.1571   -2.1402 H   0  0  0  0  0  0  0  0  0  0  0  0
   -0.2910    1.3230   -1.0710 H   0  0  0  0  0  0  0  0  0  0  0  0
    1.0614    0.2076   -2.3111 C   0  0  0  0  0  0  0  0  0  0  0  0
    1.1443   -0.0647   -3.6795 N   0  3  0  0  0  0  0  0  0  0  0  0
    0.3241   -0.2345   -4.2668 H   0  0  0  0  0  0  0  0  0  0  0  0
    2.3974   -0.0836   -4.0682 C   0  0  0  0  0  0  0  0  0  0  0  0
    2.7621   -0.2775   -5.0789 H   0  0  0  0  0  0  0  0  0  0  0  0
    3.1804    0.1885   -2.9494 N   0  0  0  0  0  0  0  0  0  0  0  0
    4.2041    0.2340   -2.9273 H   0  0  0  0  0  0  0  0  0  0  0  0
    2.3475    0.3743   -1.8551 C   0  0  0  0  0  0  0  0  0  0  0  0
    2.6537    0.6007   -0.8316 H   0  0  0  0  0  0  0  0  0  0  0  0
    0.2886   -0.1184    0.9782 C   0  0  0  0  0  0  0  0  0  0  0  0
    1.4965   -0.0207    1.1469 O   0  0  0  0  0  0  0  0  0  0  0  0
   -0.5612    0.6197    1.7822 N   0  0  0  0  0  0  0  0  0  0  0  0
   -1.5555    0.4454    1.6702 H   0  0  0  0  0  0  0  0  0  0  0  0
   -0.1112    1.2681    3.0114 C   0  0  0  0  0  0  0  0  0  0  0  0
    0.6815    1.9933    2.7981 H   0  0  0  0  0  0  0  0  0  0  0  0
   -0.9410    1.7995    3.4879 H   0  0  0  0  0  0  0  0  0  0  0  0
    0.2754    0.5249    3.7176 H   0  0  0  0  0  0  0  0  0  0  0  0
  1  2  1  0  0  0  0
  2  3  1  0  0  0  0
  2  4  1  0  0  0  0
  2  5  1  0  0  0  0
  5  6  2  0  0  0  0
  5  7  1  0  0  0  0
  7  8  1  0  0  0  0
  7  9  1  0  0  0  0
  9 10  1  0  0  0  0
  9 11  1  0  0  0  0
  9 23  1  0  0  0  0
 11 12  1  0  0  0  0
 11 13  1  0  0  0  0
 11 14  1  0  0  0  0
 14 15  1  0  0  0  0
 14 21  2  0  0  0  0
 15 16  1  0  0  0  0
 15 17  2  0  0  0  0
 17 18  1  0  0  0  0
 17 19  1  0  0  0  0
 19 20  1  0  0  0  0
 19 21  1  0  0  0  0
 21 22  1  0  0  0  0
 23 24  2  0  0  0  0
 23 25  1  0  0  0  0
 25 26  1  0  0  0  0
 25 27  1  0  0  0  0
 27 28  1  0  0  0  0
 27 29  1  0  0  0  0
 27 30  1  0  0  0  0
M  CHG  1  15   1
M  END
$$$$

  -OEChem-04042216003D

 30 30  0     1  0  0  0  0  0999 V2000
   -3.1994   -3.8798    1.4164 H   0  0  0  0  0  0  0  0  0  0  0  0
   -3.1892   -3.0437    0.7108 C   0  0  0  0  0  0  0  0  0  0  0  0
   -3.8822   -2.2780    1.0668 H   0  0  0  0  0  0  0  0  0  0  0  0
   -3.5236   -3.4055   -0.2643 H   0  0  0  0  0  0  0  0  0  0  0  0
   -1.7884   -2.4725    0.6029 C   0  0  0  0  0  0  0  0  0  0  0  0
   -0.8775   -2.9553    1.2499 O   0  0  0  0  0  0  0  0  0  0  0  0
   -1.5292   -1.4047   -0.2382 N   0  0  0  0  0  0  0  0  0  0  0  0
   -2.3262   -1.0034   -0.7251 H   0  0  0  0  0  0  0  0  0  0  0  0
   -0.2085   -0.7451   -0.3228 C   0  0  1  0  0  0  0  0  0  0  0  0
    0.5080   -1.5409   -0.5606 H   0  0  0  0  0  0  0  0  0  0  0  0
   -0.1775    0.2949   -1.4659 C   0  0  0  0  0  0  0  0  0  0  0  0
   -1.0356    0.1252   -2.1229 H   0  0  0  0  0  0  0  0  0  0  0  0
   -0.2778    1.3079   -1.0592 H   0  0  0  0  0  0  0  0  0  0  0  0
    1.0841    0.2074   -2.3036 C   0  0  0  0  0  0  0  0  0  0  0  0
    1.1433    0.2394   -3.7002 N   0  3  0  0  0  0  0  0  0  0  0  0
    0.3150    0.3377   -4.2926 H   0  0  0  0  0  0  0  0  0  0  0  0
    2.3847    0.1361   -4.1117 C   0  0  0  0  0  0  0  0  0  0  0  0
    2.7291    0.1350   -5.1479 H   0  0  0  0  0  0  0  0  0  0  0  0
    3.1866    0.0304   -2.9792 N   0  0  0  0  0  0  0  0  0  0  0  0
    4.2073   -0.0636   -2.9706 H   0  0  0  0  0  0  0  0  0  0  0  0
    2.3776    0.0759   -1.8527 C   0  0  0  0  0  0  0  0  0  0  0  0
    2.7088    0.0218   -0.8139 H   0  0  0  0  0  0  0  0  0  0  0  0
    0.2875   -0.1254    1.0027 C   0  0  0  0  0  0  0  0  0  0  0  0
    1.4928   -0.0394    1.1931 O   0  0  0  0  0  0  0  0  0  0  0  0
   -0.5709    0.6212    1.7894 N   0  0  0  0  0  0  0  0  0  0  0  0
   -1.5639    0.4485    1.6651 H   0  0  0  0  0  0  0  0  0  0  0  0
   -0.1359    1.2788    3.0190 C   0  0  0  0  0  0  0  0  0  0  0  0
    0.6620    1.9996    2.8097 H   0  0  0  0  0  0  0  0  0  0  0  0
   -0.9704    1.8171    3.4793 H   0  0  0  0  0  0  0  0  0  0  0  0
    0.2388    0.5409    3.7368 H   0  0  0  0  0  0  0  0  0  0  0  0
  1  2  1  0  0  0  0
  2  3  1  0  0  0  0
  2  4  1  0  0  0  0
  2  5  1  0  0  0  0
  5  6  2  0  0  0  0
  5  7  1  0  0  0  0
  7  8  1  0  0  0  0
  7  9  1  0  0  0  0
  9 10  1  0  0  0  0
  9 11  1  0  0  0  0
  9 23  1  0  0  0  0
 11 12  1  0  0  0  0
 11 13  1  0  0  0  0
 11 14  1  0  0  0  0
 14 15  1  0  0  0  0
 14 21  2  0  0  0  0
 15 16  1  0  0  0  0
 15 17  2  0  0  0  0
 17 18  1  0  0  0  0
 17 19  1  0  0  0  0
 19 20  1  0  0  0  0
 19 21  1  0  0  0  0
 21 22  1  0  0  0  0
 23 24  2  0  0  0  0
 23 25  1  0  0  0  0
 25 26  1  0  0  0  0
 25 27  1  0  0  0  0
 27 28  1  0  0  0  0
 27 29  1  0  0  0  0
 27 30  1  0  0  0  0
M  CHG  1  15   1
M  END
$$$$

  -OEChem-04042216003D

 30 30  0     1  0  0  0  0  0999 V2000
   -3.2201   -3.8973    1.4001 H   0  0  0  0  0  0  0  0  0  0  0  0
   -3.2086   -3.0587    0.6977 C   0  0  0  0  0  0  0  0  0  0  0  0
   -3.9132   -2.3002    1.0468 H   0  0  0  0  0  0  0  0  0  0  0  0
   -3.5260   -3.4206   -0.2832 H   0  0  0  0  0  0  0  0  0  0  0  0
   -1.8119   -2.4746    0.6104 C   0  0  0  0  0  0  0  0  0  0  0  0
   -0.9069   -2.9449    1.2751 O   0  0  0  0  0  0  0  0  0  0  0  0
   -1.5483   -1.4080   -0.2309 N   0  0  0  0  0  0  0  0  0  0  0  0
   -2.3373   -1.0229   -0.7433 H   0  0  0  0  0  0  0  0  0  0  0  0
   -0.2258   -0.7524   -0.3140 C   0  0  1  0  0  0  0  0  0  0  0  0
    0.4776   -1.5609   -0.5453 H   0  0  0  0  0  0  0  0  0  0  0  0
   -0.1778    0.2791   -1.4647 C   0  0  0  0  0  0  0  0  0  0  0  0
   -1.0287    0.1000   -2.1286 H   0  0  0  0  0  0  0  0  0  0  0  0
   -0.2854    1.2949   -1.0668 H   0  0  0  0  0  0  0  0  0  0  0  0
    1.0880    0.1910   -2.2982 C   0  0  0  0  0  0  0  0  0  0  0  0
    1.1891    0.5108   -3.6554 N   0  3  0  0  0  0  0  0  0  0  0  0
    0.3971    0.8437   -4.2108 H   0  0  0  0  0  0  0  0  0  0  0  0
    2.4192    0.3431   -4.0793 C   0  0  0  0  0  0  0  0  0  0  0  0
    2.7894    0.5221   -5.0906 H   0  0  0  0  0  0  0  0  0  0  0  0
    3.1712   -0.1012   -2.9959 N   0  0  0  0  0  0  0  0  0  0  0  0
    4.1747   -0.3096   -3.0041 H   0  0  0  0  0  0  0  0  0  0  0  0
    2.3444   -0.1926   -1.8854 C   0  0  0  0  0  0  0  0  0  0  0  0
    2.6408   -0.4921   -0.8775 H   0  0  0  0  0  0  0  0  0  0  0  0
    0.2858   -0.1283    1.0023 C   0  0  0  0  0  0  0  0  0  0  0  0
    1.4947   -0.0494    1.1739 O   0  0  0  0  0  0  0  0  0  0  0  0
   -0.5593    0.6280    1.7938 N   0  0  0  0  0  0  0  0  0  0  0  0
   -1.5547    0.4597    1.6817 H   0  0  0  0  0  0  0  0  0  0  0  0
   -0.1069    1.2887    3.0153 C   0  0  0  0  0  0  0  0  0  0  0  0
    0.7033    1.9929    2.7965 H   0  0  0  0  0  0  0  0  0  0  0  0
   -0.9294    1.8466    3.4740 H   0  0  0  0  0  0  0  0  0  0  0  0
    0.2567    0.5504    3.7385 H   0  0  0  0  0  0  0  0  0  0  0  0
  1  2  1  0  0  0  0
  2  3  1  0  0  0  0
  2  4  1  0  0  0  0
  2  5  1  0  0  0  0
  5  6  2  0  0  0  0
  5  7  1  0  0  0  0
  7  8  1  0  0  0  0
  7  9  1  0  0  0  0
  9 10  1  0  0  0  0
  9 11  1  0  0  0  0
  9 23  1  0  0  0  0
 11 12  1  0  0  0  0
 11 13  1  0  0  0  0
 11 14  1  0  0  0  0
 14 15  1  0  0  0  0
 14 21  2  0  0  0  0
 15 16  1  0  0  0  0
 15 17  2  0  0  0  0
 17 18  1  0  0  0  0
 17 19  1  0  0  0  0
 19 20  1  0  0  0  0
 19 21  1  0  0  0  0
 21 22  1  0  0  0  0
 23 24  2  0  0  0  0
 23 25  1  0  0  0  0
 25 26  1  0  0  0  0
 25 27  1  0  0  0  0
 27 28  1  0  0  0  0
 27 29  1  0  0  0  0
 27 30  1  0  0  0  0
M  CHG  1  15   1
M  END
$$$$

  -OEChem-04042216003D

 30 30  0     1  0  0  0  0  0999 V2000
   -3.2560   -3.9092    1.3902 H   0  0  0  0  0  0  0  0  0  0  0  0
   -3.2437   -3.0707    0.6874 C   0  0  0  0  0  0  0  0  0  0  0  0
   -3.9509   -2.3137    1.0341 H   0  0  0  0  0  0  0  0  0  0  0  0
   -3.5578   -3.4329   -0.2944 H   0  0  0  0  0  0  0  0  0  0  0  0
   -1.8478   -2.4835    0.6049 C   0  0  0  0  0  0  0  0  0  0  0  0
   -0.9425   -2.9554    1.2682 O   0  0  0  0  0  0  0  0  0  0  0  0
   -1.5842   -1.4127   -0.2310 N   0  0  0  0  0  0  0  0  0  0  0  0
   -2.3729   -1.0239   -0.7413 H   0  0  0  0  0  0  0  0  0  0  0  0
   -0.2605   -0.7609   -0.3147 C   0  0  1  0  0  0  0  0  0  0  0  0
    0.4246   -1.5855   -0.5389 H   0  0  0  0  0  0  0  0  0  0  0  0
   -0.1948    0.2534   -1.4799 C   0  0  0  0  0  0  0  0  0  0  0  0
   -1.0379    0.0663   -2.1518 H   0  0  0  0  0  0  0  0  0  0  0  0
   -0.3064    1.2731   -1.0935 H   0  0  0  0  0  0  0  0  0  0  0  0
    1.0777    0.1584   -2.3043 C   0  0  0  0  0  0  0  0  0  0  0  0
    1.2630    0.7329   -3.5653 N   0  3  0  0  0  0  0  0  0  0  0  0
    0.5296    1.2520   -4.0547 H   0  0  0  0  0  0  0  0  0  0  0  0
    2.4872    0.5303   -3.9912 C   0  0  0  0  0  0  0  0  0  0  0  0
    2.9115    0.8709   -4.9378 H   0  0  0  0  0  0  0  0  0  0  0  0
    3.1525   -0.1905   -3.0044 N   0  0  0  0  0  0  0  0  0  0  0  0
    4.1359   -0.4782   -3.0290 H   0  0  0  0  0  0  0  0  0  0  0  0
    2.2807   -0.4102   -1.9476 C   0  0  0  0  0  0  0  0  0  0  0  0
    2.5178   -0.9002   -1.0000 H   0  0  0  0  0  0  0  0  0  0  0  0
    0.2825   -0.1379    0.9872 C   0  0  0  0  0  0  0  0  0  0  0  0
    1.4971   -0.0685    1.1229 O   0  0  0  0  0  0  0  0  0  0  0  0
   -0.5369    0.6275    1.7962 N   0  0  0  0  0  0  0  0  0  0  0  0
   -1.5364    0.4670    1.7106 H   0  0  0  0  0  0  0  0  0  0  0  0
   -0.0469    1.2943    2.9997 C   0  0  0  0  0  0  0  0  0  0  0  0
    0.7480    2.0057    2.7503 H   0  0  0  0  0  0  0  0  0  0  0  0
   -0.8575    1.8448    3.4875 H   0  0  0  0  0  0  0  0  0  0  0  0
    0.3500    0.5609    3.7104 H   0  0  0  0  0  0  0  0  0  0  0  0
  1  2  1  0  0  0  0
  2  3  1  0  0  0  0
  2  4  1  0  0  0  0
  2  5  1  0  0  0  0
  5  6  2  0  0  0  0
  5  7  1  0  0  0  0
  7  8  1  0  0  0  0
  7  9  1  0  0  0  0
  9 10  1  0  0  0  0
  9 11  1  0  0  0  0
  9 23  1  0  0  0  0
 11 12  1  0  0  0  0
 11 13  1  0  0  0  0
 11 14  1  0  0  0  0
 14 15  1  0  0  0  0
 14 21  2  0  0  0  0
 15 16  1  0  0  0  0
 15 17  2  0  0  0  0
 17 18  1  0  0  0  0
 17 19  1  0  0  0  0
 19 20  1  0  0  0  0
 19 21  1  0  0  0  0
 21 22  1  0  0  0  0
 23 24  2  0  0  0  0
 23 25  1  0  0  0  0
 25 26  1  0  0  0  0
 25 27  1  0  0  0  0
 27 28  1  0  0  0  0
 27 29  1  0  0  0  0
 27 30  1  0  0  0  0
M  CHG  1  15   1
M  END
$$$$

  -OEChem-04042216003D

 30 30  0     1  0  0  0  0  0999 V2000
   -3.3108   -3.8929    1.4311 H   0  0  0  0  0  0  0  0  0  0  0  0
   -3.2894   -3.0574    0.7251 C   0  0  0  0  0  0  0  0  0  0  0  0
   -3.9797   -2.2865    1.0755 H   0  0  0  0  0  0  0  0  0  0  0  0
   -3.6191   -3.4176   -0.2524 H   0  0  0  0  0  0  0  0  0  0  0  0
   -1.8836   -2.4966    0.6275 C   0  0  0  0  0  0  0  0  0  0  0  0
   -0.9809   -2.9844    1.2828 O   0  0  0  0  0  0  0  0  0  0  0  0
   -1.6062   -1.4365   -0.2174 N   0  0  0  0  0  0  0  0  0  0  0  0
   -2.3927   -1.0342   -0.7204 H   0  0  0  0  0  0  0  0  0  0  0  0
   -0.2781   -0.7924   -0.2952 C   0  0  1  0  0  0  0  0  0  0  0  0
    0.4082   -1.6214   -0.4752 H   0  0  0  0  0  0  0  0  0  0  0  0
   -0.1892    0.2117   -1.4718 C   0  0  0  0  0  0  0  0  0  0  0  0
   -1.1545    0.2404   -1.9863 H   0  0  0  0  0  0  0  0  0  0  0  0
   -0.0108    1.2178   -1.0745 H   0  0  0  0  0  0  0  0  0  0  0  0
    0.8830   -0.0932   -2.5059 C   0  0  0  0  0  0  0  0  0  0  0  0
    1.1108    0.6984   -3.6360 N   0  3  0  0  0  0  0  0  0  0  0  0
    0.5527    1.5275   -3.8557 H   0  0  0  0  0  0  0  0  0  0  0  0
    2.1431    0.2582   -4.3140 C   0  0  0  0  0  0  0  0  0  0  0  0
    2.5538    0.6910   -5.2285 H   0  0  0  0  0  0  0  0  0  0  0  0
    2.6317   -0.8555   -3.6395 N   0  0  0  0  0  0  0  0  0  0  0  0
    3.4585   -1.4010   -3.9027 H   0  0  0  0  0  0  0  0  0  0  0  0
    1.8593   -1.0669   -2.5054 C   0  0  0  0  0  0  0  0  0  0  0  0
    2.0319   -1.8314   -1.7468 H   0  0  0  0  0  0  0  0  0  0  0  0
    0.2599   -0.1567    1.0009 C   0  0  0  0  0  0  0  0  0  0  0  0
    1.4741   -0.0778    1.1251 O   0  0  0  0  0  0  0  0  0  0  0  0
   -0.5573    0.6244    1.7974 N   0  0  0  0  0  0  0  0  0  0  0  0
   -1.5568    0.4617    1.7190 H   0  0  0  0  0  0  0  0  0  0  0  0
   -0.0624    1.3095    2.9886 C   0  0  0  0  0  0  0  0  0  0  0  0
    0.7421    2.0058    2.7278 H   0  0  0  0  0  0  0  0  0  0  0  0
   -0.8672    1.8798    3.4630 H   0  0  0  0  0  0  0  0  0  0  0  0
    0.3239    0.5854    3.7145 H   0  0  0  0  0  0  0  0  0  0  0  0
  1  2  1  0  0  0  0
  2  3  1  0  0  0  0
  2  4  1  0  0  0  0
  2  5  1  0  0  0  0
  5  6  2  0  0  0  0
  5  7  1  0  0  0  0
  7  8  1  0  0  0  0
  7  9  1  0  0  0  0
  9 10  1  0  0  0  0
  9 11  1  0  0  0  0
  9 23  1  0  0  0  0
 11 12  1  0  0  0  0
 11 13  1  0  0  0  0
 11 14  1  0  0  0  0
 14 15  1  0  0  0  0
 14 21  2  0  0  0  0
 15 16  1  0  0  0  0
 15 17  2  0  0  0  0
 17 18  1  0  0  0  0
 17 19  1  0  0  0  0
 19 20  1  0  0  0  0
 19 21  1  0  0  0  0
 21 22  1  0  0  0  0
 23 24  2  0  0  0  0
 23 25  1  0  0  0  0
 25 26  1  0  0  0  0
 25 27  1  0  0  0  0
 27 28  1  0  0  0  0
 27 29  1  0  0  0  0
 27 30  1  0  0  0  0
M  CHG  1  15   1
M  END
$$$$

  -OEChem-04042216003D

 30 30  0     1  0  0  0  0  0999 V2000
   -3.2974   -3.8735    1.4525 H   0  0  0  0  0  0  0  0  0  0  0  0
   -3.2728   -3.0413    0.7427 C   0  0  0  0  0  0  0  0  0  0  0  0
   -3.9527   -2.2617    1.0943 H   0  0  0  0  0  0  0  0  0  0  0  0
   -3.6125   -3.4023   -0.2309 H   0  0  0  0  0  0  0  0  0  0  0  0
   -1.8625   -2.4951    0.6331 C   0  0  0  0  0  0  0  0  0  0  0  0
   -0.9595   -2.9899    1.2824 O   0  0  0  0  0  0  0  0  0  0  0  0
   -1.5806   -1.4429   -0.2198 N   0  0  0  0  0  0  0  0  0  0  0  0
   -2.3674   -1.0340   -0.7172 H   0  0  0  0  0  0  0  0  0  0  0  0
   -0.2515   -0.8009   -0.2970 C   0  0  1  0  0  0  0  0  0  0  0  0
    0.4537   -1.6162   -0.4698 H   0  0  0  0  0  0  0  0  0  0  0  0
   -0.1701    0.2169   -1.4621 C   0  0  0  0  0  0  0  0  0  0  0  0
   -1.1386    0.2701   -1.9686 H   0  0  0  0  0  0  0  0  0  0  0  0
    0.0268    1.2130   -1.0481 H   0  0  0  0  0  0  0  0  0  0  0  0
    0.8938   -0.0846   -2.5044 C   0  0  0  0  0  0  0  0  0  0  0  0
    1.3283    0.8499   -3.4491 N   0  3  0  0  0  0  0  0  0  0  0  0
    0.9672    1.8065   -3.4909 H   0  0  0  0  0  0  0  0  0  0  0  0
    2.2837    0.3495   -4.1943 C   0  0  0  0  0  0  0  0  0  0  0  0
    2.8217    0.8636   -4.9934 H   0  0  0  0  0  0  0  0  0  0  0  0
    2.4960   -0.9566   -3.7658 N   0  0  0  0  0  0  0  0  0  0  0  0
    3.1983   -1.6028   -4.1392 H   0  0  0  0  0  0  0  0  0  0  0  0
    1.6357   -1.2278   -2.7099 C   0  0  0  0  0  0  0  0  0  0  0  0
    1.5816   -2.1611   -2.1486 H   0  0  0  0  0  0  0  0  0  0  0  0
    0.2620   -0.1602    1.0078 C   0  0  0  0  0  0  0  0  0  0  0  0
    1.4723   -0.0609    1.1500 O   0  0  0  0  0  0  0  0  0  0  0  0
   -0.5747    0.6200    1.7853 N   0  0  0  0  0  0  0  0  0  0  0  0
   -1.5711    0.4463    1.6932 H   0  0  0  0  0  0  0  0  0  0  0  0
   -0.1048    1.3143    2.9814 C   0  0  0  0  0  0  0  0  0  0  0  0
    0.6873    2.0273    2.7278 H   0  0  0  0  0  0  0  0  0  0  0  0
   -0.9257    1.8669    3.4492 H   0  0  0  0  0  0  0  0  0  0  0  0
    0.2901    0.5979    3.7101 H   0  0  0  0  0  0  0  0  0  0  0  0
  1  2  1  0  0  0  0
  2  3  1  0  0  0  0
  2  4  1  0  0  0  0
  2  5  1  0  0  0  0
  5  6  2  0  0  0  0
  5  7  1  0  0  0  0
  7  8  1  0  0  0  0
  7  9  1  0  0  0  0
  9 10  1  0  0  0  0
  9 11  1  0  0  0  0
  9 23  1  0  0  0  0
 11 12  1  0  0  0  0
 11 13  1  0  0  0  0
 11 14  1  0  0  0  0
 14 15  1  0  0  0  0
 14 21  2  0  0  0  0
 15 16  1  0  0  0  0
 15 17  2  0  0  0  0
 17 18  1  0  0  0  0
 17 19  1  0  0  0  0
 19 20  1  0  0  0  0
 19 21  1  0  0  0  0
 21 22  1  0  0  0  0
 23 24  2  0  0  0  0
 23 25  1  0  0  0  0
 25 26  1  0  0  0  0
 25 27  1  0  0  0  0
 27 28  1  0  0  0  0
 27 29  1  0  0  0  0
 27 30  1  0  0  0  0
M  CHG  1  15   1
M  END
$$$$

  -OEChem-04042216003D

 30 30  0     1  0  0  0  0  0999 V2000
   -3.2621   -3.8821    1.4450 H   0  0  0  0  0  0  0  0  0  0  0  0
   -3.2503   -3.0431    0.7428 C   0  0  0  0  0  0  0  0  0  0  0  0
   -3.9187   -2.2644    1.1173 H   0  0  0  0  0  0  0  0  0  0  0  0
   -3.6138   -3.3933   -0.2262 H   0  0  0  0  0  0  0  0  0  0  0  0
   -1.8405   -2.5015    0.6069 C   0  0  0  0  0  0  0  0  0  0  0  0
   -0.9246   -3.0105    1.2262 O   0  0  0  0  0  0  0  0  0  0  0  0
   -1.5739   -1.4386   -0.2374 N   0  0  0  0  0  0  0  0  0  0  0  0
   -2.3731   -1.0116   -0.6988 H   0  0  0  0  0  0  0  0  0  0  0  0
   -0.2504   -0.7855   -0.3164 C   0  0  1  0  0  0  0  0  0  0  0  0
    0.4682   -1.5877   -0.5061 H   0  0  0  0  0  0  0  0  0  0  0  0
   -0.1868    0.2483   -1.4669 C   0  0  0  0  0  0  0  0  0  0  0  0
   -1.1563    0.3076   -1.9715 H   0  0  0  0  0  0  0  0  0  0  0  0
    0.0113    1.2399   -1.0435 H   0  0  0  0  0  0  0  0  0  0  0  0
    0.8774   -0.0582   -2.5040 C   0  0  0  0  0  0  0  0  0  0  0  0
    1.5490    0.9132   -3.2513 N   0  3  0  0  0  0  0  0  0  0  0  0
    1.3935    1.9170   -3.1258 H   0  0  0  0  0  0  0  0  0  0  0  0
    2.4396    0.3582   -4.0374 C   0  0  0  0  0  0  0  0  0  0  0  0
    3.1274    0.8775   -4.7078 H   0  0  0  0  0  0  0  0  0  0  0  0
    2.3572   -1.0177   -3.8450 N   0  0  0  0  0  0  0  0  0  0  0  0
    2.9428   -1.7223   -4.3045 H   0  0  0  0  0  0  0  0  0  0  0  0
    1.3851   -1.2792   -2.8877 C   0  0  0  0  0  0  0  0  0  0  0  0
    1.0933   -2.2585   -2.5061 H   0  0  0  0  0  0  0  0  0  0  0  0
    0.2634   -0.1547    0.9939 C   0  0  0  0  0  0  0  0  0  0  0  0
    1.4728   -0.0330    1.1263 O   0  0  0  0  0  0  0  0  0  0  0  0
   -0.5774    0.6096    1.7830 N   0  0  0  0  0  0  0  0  0  0  0  0
   -1.5723    0.4246    1.6970 H   0  0  0  0  0  0  0  0  0  0  0  0
   -0.1072    1.3065    2.9779 C   0  0  0  0  0  0  0  0  0  0  0  0
    0.6670    2.0372    2.7193 H   0  0  0  0  0  0  0  0  0  0  0  0
   -0.9333    1.8392    3.4594 H   0  0  0  0  0  0  0  0  0  0  0  0
    0.3113    0.5941    3.6975 H   0  0  0  0  0  0  0  0  0  0  0  0
  1  2  1  0  0  0  0
  2  3  1  0  0  0  0
  2  4  1  0  0  0  0
  2  5  1  0  0  0  0
  5  6  2  0  0  0  0
  5  7  1  0  0  0  0
  7  8  1  0  0  0  0
  7  9  1  0  0  0  0
  9 10  1  0  0  0  0
  9 11  1  0  0  0  0
  9 23  1  0  0  0  0
 11 12  1  0  0  0  0
 11 13  1  0  0  0  0
 11 14  1  0  0  0  0
 14 15  1  0  0  0  0
 14 21  2  0  0  0  0
 15 16  1  0  0  0  0
 15 17  2  0  0  0  0
 17 18  1  0  0  0  0
 17 19  1  0  0  0  0
 19 20  1  0  0  0  0
 19 21  1  0  0  0  0
 21 22  1  0  0  0  0
 23 24  2  0  0  0  0
 23 25  1  0  0  0  0
 25 26  1  0  0  0  0
 25 27  1  0  0  0  0
 27 28  1  0  0  0  0
 27 29  1  0  0  0  0
 27 30  1  0  0  0  0
M  CHG  1  15   1
M  END
$$$$

  -OEChem-04042216003D

 30 30  0     1  0  0  0  0  0999 V2000
   -3.2210   -3.9112    1.4079 H   0  0  0  0  0  0  0  0  0  0  0  0
   -3.2256   -3.0560    0.7254 C   0  0  0  0  0  0  0  0  0  0  0  0
   -3.8900   -2.2892    1.1305 H   0  0  0  0  0  0  0  0  0  0  0  0
   -3.6066   -3.3853   -0.2443 H   0  0  0  0  0  0  0  0  0  0  0  0
   -1.8208   -2.5047    0.5747 C   0  0  0  0  0  0  0  0  0  0  0  0
   -0.8914   -3.0186    1.1693 O   0  0  0  0  0  0  0  0  0  0  0  0
   -1.5746   -1.4261   -0.2557 N   0  0  0  0  0  0  0  0  0  0  0  0
   -2.3864   -0.9865   -0.6820 H   0  0  0  0  0  0  0  0  0  0  0  0
   -0.2587   -0.7581   -0.3379 C   0  0  1  0  0  0  0  0  0  0  0  0
    0.4668   -1.5504   -0.5526 H   0  0  0  0  0  0  0  0  0  0  0  0
   -0.2127    0.2895   -1.4740 C   0  0  0  0  0  0  0  0  0  0  0  0
   -1.1811    0.3420   -1.9816 H   0  0  0  0  0  0  0  0  0  0  0  0
   -0.0228    1.2823   -1.0496 H   0  0  0  0  0  0  0  0  0  0  0  0
    0.8560   -0.0287   -2.4976 C   0  0  0  0  0  0  0  0  0  0  0  0
    1.7526    0.8971   -3.0354 N   0  3  0  0  0  0  0  0  0  0  0  0
    1.7889    1.8753   -2.7352 H   0  0  0  0  0  0  0  0  0  0  0  0
    2.5801    0.3058   -3.8629 C   0  0  0  0  0  0  0  0  0  0  0  0
    3.4072    0.7757   -4.3990 H   0  0  0  0  0  0  0  0  0  0  0  0
    2.2214   -1.0388   -3.9142 N   0  0  0  0  0  0  0  0  0  0  0  0
    2.6974   -1.7640   -4.4599 H   0  0  0  0  0  0  0  0  0  0  0  0
    1.1469   -1.2497   -3.0590 C   0  0  0  0  0  0  0  0  0  0  0  0
    0.6435   -2.1956   -2.8546 H   0  0  0  0  0  0  0  0  0  0  0  0
    0.2677   -0.1407    0.9733 C   0  0  0  0  0  0  0  0  0  0  0  0
    1.4771    0.0057    1.0821 O   0  0  0  0  0  0  0  0  0  0  0  0
   -0.5714    0.6040    1.7827 N   0  0  0  0  0  0  0  0  0  0  0  0
   -1.5642    0.4020    1.7126 H   0  0  0  0  0  0  0  0  0  0  0  0
   -0.0937    1.2965    2.9770 C   0  0  0  0  0  0  0  0  0  0  0  0
    0.6877    2.0195    2.7184 H   0  0  0  0  0  0  0  0  0  0  0  0
   -0.9144    1.8383    3.4576 H   0  0  0  0  0  0  0  0  0  0  0  0
    0.3175    0.5803    3.6971 H   0  0  0  0  0  0  0  0  0  0  0  0
  1  2  1  0  0  0  0
  2  3  1  0  0  0  0
  2  4  1  0  0  0  0
  2  5  1  0  0  0  0
  5  6  2  0  0  0  0
  5  7  1  0  0  0  0
  7  8  1  0  0  0  0
  7  9  1  0  0  0  0
  9 10  1  0  0  0  0
  9 11  1  0  0  0  0
  9 23  1  0  0  0  0
 11 12  1  0  0  0  0
 11 13  1  0  0  0  0
 11 14  1  0  0  0  0
 14 15  1  0  0  0  0
 14 21  2  0  0  0  0
 15 16  1  0  0  0  0
 15 17  2  0  0  0  0
 17 18  1  0  0  0  0
 17 19  1  0  0  0  0
 19 20  1  0  0  0  0
 19 21  1  0  0  0  0
 21 22  1  0  0  0  0
 23 24  2  0  0  0  0
 23 25  1  0  0  0  0
 25 26  1  0  0  0  0
 25 27  1  0  0  0  0
 27 28  1  0  0  0  0
 27 29  1  0  0  0  0
 27 30  1  0  0  0  0
M  CHG  1  15   1
M  END
$$$$

  -OEChem-04042216003D

 30 30  0     1  0  0  0  0  0999 V2000
   -3.1902   -3.9252    1.3904 H   0  0  0  0  0  0  0  0  0  0  0  0
   -3.2078   -3.0710    0.7069 C   0  0  0  0  0  0  0  0  0  0  0  0
   -3.8798   -2.3119    1.1139 H   0  0  0  0  0  0  0  0  0  0  0  0
   -3.5879   -3.4055   -0.2613 H   0  0  0  0  0  0  0  0  0  0  0  0
   -1.8105   -2.5034    0.5500 C   0  0  0  0  0  0  0  0  0  0  0  0
   -0.8711   -3.0138    1.1318 O   0  0  0  0  0  0  0  0  0  0  0  0
   -1.5831   -1.4113   -0.2682 N   0  0  0  0  0  0  0  0  0  0  0  0
   -2.4037   -0.9694   -0.6751 H   0  0  0  0  0  0  0  0  0  0  0  0
   -0.2733   -0.7323   -0.3543 C   0  0  1  0  0  0  0  0  0  0  0  0
    0.4511   -1.5210   -0.5911 H   0  0  0  0  0  0  0  0  0  0  0  0
   -0.2307    0.3244   -1.4783 C   0  0  0  0  0  0  0  0  0  0  0  0
   -1.1950    0.3662   -1.9944 H   0  0  0  0  0  0  0  0  0  0  0  0
   -0.0510    1.3209   -1.0583 H   0  0  0  0  0  0  0  0  0  0  0  0
    0.8464   -0.0130   -2.4818 C   0  0  0  0  0  0  0  0  0  0  0  0
    1.9384    0.7967   -2.7964 N   0  3  0  0  0  0  0  0  0  0  0  0
    2.1433    1.6693   -2.3009 H   0  0  0  0  0  0  0  0  0  0  0  0
    2.7040    0.2034   -3.6798 C   0  0  0  0  0  0  0  0  0  0  0  0
    3.6488    0.5818   -4.0751 H   0  0  0  0  0  0  0  0  0  0  0  0
    2.1004   -1.0107   -4.0009 N   0  0  0  0  0  0  0  0  0  0  0  0
    2.4718   -1.7078   -4.6539 H   0  0  0  0  0  0  0  0  0  0  0  0
    0.9402   -1.1493   -3.2479 C   0  0  0  0  0  0  0  0  0  0  0  0
    0.2498   -1.9935   -3.2448 H   0  0  0  0  0  0  0  0  0  0  0  0
    0.2691   -0.1269    0.9555 C   0  0  0  0  0  0  0  0  0  0  0  0
    1.4778    0.0472    1.0343 O   0  0  0  0  0  0  0  0  0  0  0  0
   -0.5637    0.6024    1.7849 N   0  0  0  0  0  0  0  0  0  0  0  0
   -1.5551    0.3880    1.7320 H   0  0  0  0  0  0  0  0  0  0  0  0
   -0.0737    1.2967    2.9731 C   0  0  0  0  0  0  0  0  0  0  0  0
    0.6481    2.0730    2.6968 H   0  0  0  0  0  0  0  0  0  0  0  0
   -0.9029    1.7739    3.5047 H   0  0  0  0  0  0  0  0  0  0  0  0
    0.4139    0.5920    3.6557 H   0  0  0  0  0  0  0  0  0  0  0  0
  1  2  1  0  0  0  0
  2  3  1  0  0  0  0
  2  4  1  0  0  0  0
  2  5  1  0  0  0  0
  5  6  2  0  0  0  0
  5  7  1  0  0  0  0
  7  8  1  0  0  0  0
  7  9  1  0  0  0  0
  9 10  1  0  0  0  0
  9 11  1  0  0  0  0
  9 23  1  0  0  0  0
 11 12  1  0  0  0  0
 11 13  1  0  0  0  0
 11 14  1  0  0  0  0
 14 15  1  0  0  0  0
 14 21  2  0  0  0  0
 15 16  1  0  0  0  0
 15 17  2  0  0  0  0
 17 18  1  0  0  0  0
 17 19  1  0  0  0  0
 19 20  1  0  0  0  0
 19 21  1  0  0  0  0
 21 22  1  0  0  0  0
 23 24  2  0  0  0  0
 23 25  1  0  0  0  0
 25 26  1  0  0  0  0
 25 27  1  0  0  0  0
 27 28  1  0  0  0  0
 27 29  1  0  0  0  0
 27 30  1  0  0  0  0
M  CHG  1  15   1
M  END
$$$$

  -OEChem-04042216003D

 30 30  0     1  0  0  0  0  0999 V2000
   -3.1811   -3.9622    1.3631 H   0  0  0  0  0  0  0  0  0  0  0  0
   -3.2093   -3.1004    0.6897 C   0  0  0  0  0  0  0  0  0  0  0  0
   -3.8961   -2.3573    1.1017 H   0  0  0  0  0  0  0  0  0  0  0  0
   -3.5788   -3.4302   -0.2841 H   0  0  0  0  0  0  0  0  0  0  0  0
   -1.8209   -2.5076    0.5465 C   0  0  0  0  0  0  0  0  0  0  0  0
   -0.8782   -3.0013    1.1375 O   0  0  0  0  0  0  0  0  0  0  0  0
   -1.6060   -1.4074   -0.2642 N   0  0  0  0  0  0  0  0  0  0  0  0
   -2.4296   -0.9780   -0.6781 H   0  0  0  0  0  0  0  0  0  0  0  0
   -0.3004   -0.7221   -0.3591 C   0  0  1  0  0  0  0  0  0  0  0  0
    0.4156   -1.5154   -0.6092 H   0  0  0  0  0  0  0  0  0  0  0  0
   -0.2528    0.3355   -1.4797 C   0  0  0  0  0  0  0  0  0  0  0  0
   -1.2132    0.3650   -2.0039 H   0  0  0  0  0  0  0  0  0  0  0  0
   -0.0815    1.3386   -1.0715 H   0  0  0  0  0  0  0  0  0  0  0  0
    0.8316   -0.0235   -2.4636 C   0  0  0  0  0  0  0  0  0  0  0  0
    2.0662    0.6204   -2.5457 N   0  3  0  0  0  0  0  0  0  0  0  0
    2.3776    1.3083   -1.8518 H   0  0  0  0  0  0  0  0  0  0  0  0
    2.7946    0.0808   -3.4923 C   0  0  0  0  0  0  0  0  0  0  0  0
    3.8234    0.3449   -3.7454 H   0  0  0  0  0  0  0  0  0  0  0  0
    2.0210   -0.9102   -4.0945 N   0  0  0  0  0  0  0  0  0  0  0  0
    2.3225   -1.5165   -4.8636 H   0  0  0  0  0  0  0  0  0  0  0  0
    0.7910   -0.9777   -3.4490 C   0  0  0  0  0  0  0  0  0  0  0  0
   -0.0356   -1.6550   -3.6651 H   0  0  0  0  0  0  0  0  0  0  0  0
    0.2727   -0.1190    0.9376 C   0  0  0  0  0  0  0  0  0  0  0  0
    1.4809    0.0825    0.9666 O   0  0  0  0  0  0  0  0  0  0  0  0
   -0.5409    0.6069    1.7882 N   0  0  0  0  0  0  0  0  0  0  0  0
   -1.5306    0.3777    1.7709 H   0  0  0  0  0  0  0  0  0  0  0  0
   -0.0214    1.3181    2.9537 C   0  0  0  0  0  0  0  0  0  0  0  0
    0.6967    2.0871    2.6491 H   0  0  0  0  0  0  0  0  0  0  0  0
   -0.8368    1.8078    3.4955 H   0  0  0  0  0  0  0  0  0  0  0  0
    0.4791    0.6229    3.6366 H   0  0  0  0  0  0  0  0  0  0  0  0
  1  2  1  0  0  0  0
  2  3  1  0  0  0  0
  2  4  1  0  0  0  0
  2  5  1  0  0  0  0
  5  6  2  0  0  0  0
  5  7  1  0  0  0  0
  7  8  1  0  0  0  0
  7  9  1  0  0  0  0
  9 10  1  0  0  0  0
  9 11  1  0  0  0  0
  9 23  1  0  0  0  0
 11 12  1  0  0  0  0
 11 13  1  0  0  0  0
 11 14  1  0  0  0  0
 14 15  1  0  0  0  0
 14 21  2  0  0  0  0
 15 16  1  0  0  0  0
 15 17  2  0  0  0  0
 17 18  1  0  0  0  0
 17 19  1  0  0  0  0
 19 20  1  0  0  0  0
 19 21  1  0  0  0  0
 21 22  1  0  0  0  0
 23 24  2  0  0  0  0
 23 25  1  0  0  0  0
 25 26  1  0  0  0  0
 25 27  1  0  0  0  0
 27 28  1  0  0  0  0
 27 29  1  0  0  0  0
 27 30  1  0  0  0  0
M  CHG  1  15   1
M  END
$$$$

  -OEChem-04042216003D

 30 30  0     1  0  0  0  0  0999 V2000
   -3.1792   -3.9895    1.3526 H   0  0  0  0  0  0  0  0  0  0  0  0
   -3.2181   -3.1268    0.6809 C   0  0  0  0  0  0  0  0  0  0  0  0
   -3.9158   -2.3938    1.0930 H   0  0  0  0  0  0  0  0  0  0  0  0
   -3.5810   -3.4594   -0.2946 H   0  0  0  0  0  0  0  0  0  0  0  0
   -1.8378   -2.5144    0.5414 C   0  0  0  0  0  0  0  0  0  0  0  0
   -0.8884   -2.9942    1.1340 O   0  0  0  0  0  0  0  0  0  0  0  0
   -1.6394   -1.4043   -0.2594 N   0  0  0  0  0  0  0  0  0  0  0  0
   -2.4667   -0.9884   -0.6797 H   0  0  0  0  0  0  0  0  0  0  0  0
   -0.3390   -0.7134   -0.3687 C   0  0  1  0  0  0  0  0  0  0  0  0
    0.3642   -1.5143   -0.6312 H   0  0  0  0  0  0  0  0  0  0  0  0
   -0.2899    0.3407   -1.4910 C   0  0  0  0  0  0  0  0  0  0  0  0
   -1.2490    0.3653   -2.0176 H   0  0  0  0  0  0  0  0  0  0  0  0
   -0.1175    1.3476   -1.0924 H   0  0  0  0  0  0  0  0  0  0  0  0
    0.7980   -0.0373   -2.4607 C   0  0  0  0  0  0  0  0  0  0  0  0
    2.1159    0.3953   -2.3211 N   0  3  0  0  0  0  0  0  0  0  0  0
    2.4542    0.8562   -1.4671 H   0  0  0  0  0  0  0  0  0  0  0  0
    2.8466   -0.0647   -3.3065 C   0  0  0  0  0  0  0  0  0  0  0  0
    3.9245    0.0638   -3.4237 H   0  0  0  0  0  0  0  0  0  0  0  0
    1.9953   -0.7701   -4.1568 N   0  0  0  0  0  0  0  0  0  0  0  0
    2.2769   -1.2496   -5.0175 H   0  0  0  0  0  0  0  0  0  0  0  0
    0.7086   -0.7531   -3.6271 C   0  0  0  0  0  0  0  0  0  0  0  0
   -0.1874   -1.2137   -4.0437 H   0  0  0  0  0  0  0  0  0  0  0  0
    0.2769   -0.1143    0.9093 C   0  0  0  0  0  0  0  0  0  0  0  0
    1.4844    0.1040    0.8794 O   0  0  0  0  0  0  0  0  0  0  0  0
   -0.5066    0.6085    1.7894 N   0  0  0  0  0  0  0  0  0  0  0  0
   -1.4939    0.3685    1.8149 H   0  0  0  0  0  0  0  0  0  0  0  0
    0.0529    1.3305    2.9296 C   0  0  0  0  0  0  0  0  0  0  0  0
    0.7515    2.1039    2.5927 H   0  0  0  0  0  0  0  0  0  0  0  0
   -0.7446    1.8164    3.5008 H   0  0  0  0  0  0  0  0  0  0  0  0
    0.5858    0.6430    3.5957 H   0  0  0  0  0  0  0  0  0  0  0  0
  1  2  1  0  0  0  0
  2  3  1  0  0  0  0
  2  4  1  0  0  0  0
  2  5  1  0  0  0  0
  5  6  2  0  0  0  0
  5  7  1  0  0  0  0
  7  8  1  0  0  0  0
  7  9  1  0  0  0  0
  9 10  1  0  0  0  0
  9 11  1  0  0  0  0
  9 23  1  0  0  0  0
 11 12  1  0  0  0  0
 11 13  1  0  0  0  0
 11 14  1  0  0  0  0
 14 15  1  0  0  0  0
 14 21  2  0  0  0  0
 15 16  1  0  0  0  0
 15 17  2  0  0  0  0
 17 18  1  0  0  0  0
 17 19  1  0  0  0  0
 19 20  1  0  0  0  0
 19 21  1  0  0  0  0
 21 22  1  0  0  0  0
 23 24  2  0  0  0  0
 23 25  1  0  0  0  0
 25 26  1  0  0  0  0
 25 27  1  0  0  0  0
 27 28  1  0  0  0  0
 27 29  1  0  0  0  0
 27 30  1  0  0  0  0
M  CHG  1  15   1
M  END
$$$$

  -OEChem-04042216003D

 30 30  0     1  0  0  0  0  0999 V2000
   -3.1649   -4.0135    1.3338 H   0  0  0  0  0  0  0  0  0  0  0  0
   -3.2186   -3.1472    0.6678 C   0  0  0  0  0  0  0  0  0  0  0  0
   -3.9239   -2.4263    1.0882 H   0  0  0  0  0  0  0  0  0  0  0  0
   -3.5824   -3.4785   -0.3077 H   0  0  0  0  0  0  0  0  0  0  0  0
   -1.8472   -2.5153    0.5258 C   0  0  0  0  0  0  0  0  0  0  0  0
   -0.8883   -2.9869    1.1101 O   0  0  0  0  0  0  0  0  0  0  0  0
   -1.6677   -1.3924   -0.2618 N   0  0  0  0  0  0  0  0  0  0  0  0
   -2.4995   -0.9908   -0.6872 H   0  0  0  0  0  0  0  0  0  0  0  0
   -0.3735   -0.6926   -0.3815 C   0  0  1  0  0  0  0  0  0  0  0  0
    0.3196   -1.4985   -0.6560 H   0  0  0  0  0  0  0  0  0  0  0  0
   -0.3311    0.3573   -1.5095 C   0  0  0  0  0  0  0  0  0  0  0  0
   -1.2902    0.3797   -2.0359 H   0  0  0  0  0  0  0  0  0  0  0  0
   -0.1566    1.3653   -1.1141 H   0  0  0  0  0  0  0  0  0  0  0  0
    0.7600   -0.0252   -2.4731 C   0  0  0  0  0  0  0  0  0  0  0  0
    2.1065    0.1594   -2.1600 N   0  3  0  0  0  0  0  0  0  0  0  0
    2.4169    0.4245   -1.2133 H   0  0  0  0  0  0  0  0  0  0  0  0
    2.8572   -0.2342   -3.1585 C   0  0  0  0  0  0  0  0  0  0  0  0
    3.9486   -0.2552   -3.1735 H   0  0  0  0  0  0  0  0  0  0  0  0
    2.0008   -0.6416   -4.1821 N   0  0  0  0  0  0  0  0  0  0  0  0
    2.2949   -0.9989   -5.0963 H   0  0  0  0  0  0  0  0  0  0  0  0
    0.6828   -0.5106   -3.7529 C   0  0  0  0  0  0  0  0  0  0  0  0
   -0.2242   -0.7420   -4.3113 H   0  0  0  0  0  0  0  0  0  0  0  0
    0.2773   -0.1015    0.8817 C   0  0  0  0  0  0  0  0  0  0  0  0
    1.4878    0.1009    0.8171 O   0  0  0  0  0  0  0  0  0  0  0  0
   -0.4757    0.6132    1.7935 N   0  0  0  0  0  0  0  0  0  0  0  0
   -1.4654    0.3859    1.8390 H   0  0  0  0  0  0  0  0  0  0  0  0
    0.1201    1.3177    2.9259 C   0  0  0  0  0  0  0  0  0  0  0  0
    0.7987    2.1042    2.5784 H   0  0  0  0  0  0  0  0  0  0  0  0
   -0.6595    1.7843    3.5365 H   0  0  0  0  0  0  0  0  0  0  0  0
    0.6837    0.6224    3.5580 H   0  0  0  0  0  0  0  0  0  0  0  0
  1  2  1  0  0  0  0
  2  3  1  0  0  0  0
  2  4  1  0  0  0  0
  2  5  1  0  0  0  0
  5  6  2  0  0  0  0
  5  7  1  0  0  0  0
  7  8  1  0  0  0  0
  7  9  1  0  0  0  0
  9 10  1  0  0  0  0
  9 11  1  0  0  0  0
  9 23  1  0  0  0  0
 11 12  1  0  0  0  0
 11 13  1  0  0  0  0
 11 14  1  0  0  0  0
 14 15  1  0  0  0  0
 14 21  2  0  0  0  0
 15 16  1  0  0  0  0
 15 17  2  0  0  0  0
 17 18  1  0  0  0  0
 17 19  1  0  0  0  0
 19 20  1  0  0  0  0
 19 21  1  0  0  0  0
 21 22  1  0  0  0  0
 23 24  2  0  0  0  0
 23 25  1  0  0  0  0
 25 26  1  0  0  0  0
 25 27  1  0  0  0  0
 27 28  1  0  0  0  0
 27 29  1  0  0  0  0
 27 30  1  0  0  0  0
M  CHG  1  15   1
M  END
$$$$

  -OEChem-04042216003D

 30 30  0     1  0  0  0  0  0999 V2000
   -3.1573   -4.0326    1.2909 H   0  0  0  0  0  0  0  0  0  0  0  0
   -3.2148   -3.1588    0.6349 C   0  0  0  0  0  0  0  0  0  0  0  0
   -3.9328   -2.4514    1.0567 H   0  0  0  0  0  0  0  0  0  0  0  0
   -3.5650   -3.4825   -0.3482 H   0  0  0  0  0  0  0  0  0  0  0  0
   -1.8496   -2.5098    0.5128 C   0  0  0  0  0  0  0  0  0  0  0  0
   -0.8884   -2.9809    1.0942 O   0  0  0  0  0  0  0  0  0  0  0  0
   -1.6765   -1.3767   -0.2616 N   0  0  0  0  0  0  0  0  0  0  0  0
   -2.5105   -0.9760   -0.6837 H   0  0  0  0  0  0  0  0  0  0  0  0
   -0.3861   -0.6698   -0.3770 C   0  0  1  0  0  0  0  0  0  0  0  0
    0.3012   -1.4795   -0.6529 H   0  0  0  0  0  0  0  0  0  0  0  0
   -0.3489    0.3689   -1.5182 C   0  0  0  0  0  0  0  0  0  0  0  0
   -1.3077    0.3855   -2.0452 H   0  0  0  0  0  0  0  0  0  0  0  0
   -0.1785    1.3777   -1.1232 H   0  0  0  0  0  0  0  0  0  0  0  0
    0.7488    0.0012   -2.4828 C   0  0  0  0  0  0  0  0  0  0  0  0
    2.0835   -0.0822   -2.0809 N   0  3  0  0  0  0  0  0  0  0  0  0
    2.3716    0.0512   -1.0982 H   0  0  0  0  0  0  0  0  0  0  0  0
    2.8413   -0.4127   -3.0965 C   0  0  0  0  0  0  0  0  0  0  0  0
    3.9217   -0.5679   -3.0698 H   0  0  0  0  0  0  0  0  0  0  0  0
    2.0064   -0.5350   -4.2081 N   0  0  0  0  0  0  0  0  0  0  0  0
    2.3102   -0.7826   -5.1548 H   0  0  0  0  0  0  0  0  0  0  0  0
    0.6928   -0.2753   -3.8245 C   0  0  0  0  0  0  0  0  0  0  0  0
   -0.1975   -0.2868   -4.4534 H   0  0  0  0  0  0  0  0  0  0  0  0
    0.2741   -0.0876    0.8843 C   0  0  0  0  0  0  0  0  0  0  0  0
    1.4903    0.0791    0.8211 O   0  0  0  0  0  0  0  0  0  0  0  0
   -0.4644    0.6185    1.8141 N   0  0  0  0  0  0  0  0  0  0  0  0
   -1.4580    0.4083    1.8597 H   0  0  0  0  0  0  0  0  0  0  0  0
    0.1483    1.3001    2.9513 C   0  0  0  0  0  0  0  0  0  0  0  0
    0.8280    2.0880    2.6089 H   0  0  0  0  0  0  0  0  0  0  0  0
   -0.6213    1.7610    3.5788 H   0  0  0  0  0  0  0  0  0  0  0  0
    0.7146    0.5909    3.5652 H   0  0  0  0  0  0  0  0  0  0  0  0
  1  2  1  0  0  0  0
  2  3  1  0  0  0  0
  2  4  1  0  0  0  0
  2  5  1  0  0  0  0
  5  6  2  0  0  0  0
  5  7  1  0  0  0  0
  7  8  1  0  0  0  0
  7  9  1  0  0  0  0
  9 10  1  0  0  0  0
  9 11  1  0  0  0  0
  9 23  1  0  0  0  0
 11 12  1  0  0  0  0
 11 13  1  0  0  0  0
 11 14  1  0  0  0  0
 14 15  1  0  0  0  0
 14 21  2  0  0  0  0
 15 16  1  0  0  0  0
 15 17  2  0  0  0  0
 17 18  1  0  0  0  0
 17 19  1  0  0  0  0
 19 20  1  0  0  0  0
 19 21  1  0  0  0  0
 21 22  1  0  0  0  0
 23 24  2  0  0  0  0
 23 25  1  0  0  0  0
 25 26  1  0  0  0  0
 25 27  1  0  0  0  0
 27 28  1  0  0  0  0
 27 29  1  0  0  0  0
 27 30  1  0  0  0  0
M  CHG  1  15   1
M  END
$$$$

  -OEChem-04042216003D

 30 30  0     1  0  0  0  0  0999 V2000
   -3.1519   -4.0469    1.2532 H   0  0  0  0  0  0  0  0  0  0  0  0
   -3.2140   -3.1596    0.6163 C   0  0  0  0  0  0  0  0  0  0  0  0
   -3.9270   -2.4604    1.0596 H   0  0  0  0  0  0  0  0  0  0  0  0
   -3.5733   -3.4620   -0.3703 H   0  0  0  0  0  0  0  0  0  0  0  0
   -1.8491   -2.5095    0.4966 C   0  0  0  0  0  0  0  0  0  0  0  0
   -0.8868   -2.9854    1.0724 O   0  0  0  0  0  0  0  0  0  0  0  0
   -1.6781   -1.3685   -0.2668 N   0  0  0  0  0  0  0  0  0  0  0  0
   -2.5130   -0.9653   -0.6850 H   0  0  0  0  0  0  0  0  0  0  0  0
   -0.3911   -0.6535   -0.3668 C   0  0  1  0  0  0  0  0  0  0  0  0
    0.2914   -1.4687   -0.6336 H   0  0  0  0  0  0  0  0  0  0  0  0
   -0.3475    0.3713   -1.5226 C   0  0  0  0  0  0  0  0  0  0  0  0
   -1.3023    0.3800   -2.0574 H   0  0  0  0  0  0  0  0  0  0  0  0
   -0.1892    1.3815   -1.1267 H   0  0  0  0  0  0  0  0  0  0  0  0
    0.7646    0.0278   -2.4843 C   0  0  0  0  0  0  0  0  0  0  0  0
    2.0499   -0.3260   -2.0634 N   0  3  0  0  0  0  0  0  0  0  0  0
    2.3244   -0.3206   -1.0678 H   0  0  0  0  0  0  0  0  0  0  0  0
    2.8107   -0.5863   -3.0968 C   0  0  0  0  0  0  0  0  0  0  0  0
    3.8635   -0.8740   -3.0649 H   0  0  0  0  0  0  0  0  0  0  0  0
    2.0241   -0.4182   -4.2367 N   0  0  0  0  0  0  0  0  0  0  0  0
    2.3406   -0.5514   -5.2021 H   0  0  0  0  0  0  0  0  0  0  0  0
    0.7417   -0.0329   -3.8543 C   0  0  0  0  0  0  0  0  0  0  0  0
   -0.1090    0.1772   -4.5029 H   0  0  0  0  0  0  0  0  0  0  0  0
    0.2654   -0.0752    0.8961 C   0  0  0  0  0  0  0  0  0  0  0  0
    1.4870    0.0461    0.8506 O   0  0  0  0  0  0  0  0  0  0  0  0
   -0.4694    0.6243    1.8330 N   0  0  0  0  0  0  0  0  0  0  0  0
   -1.4688    0.4409    1.8597 H   0  0  0  0  0  0  0  0  0  0  0  0
    0.1447    1.2757    2.9865 C   0  0  0  0  0  0  0  0  0  0  0  0
    0.8751    2.0256    2.6637 H   0  0  0  0  0  0  0  0  0  0  0  0
   -0.6178    1.7791    3.5893 H   0  0  0  0  0  0  0  0  0  0  0  0
    0.6540    0.5391    3.6177 H   0  0  0  0  0  0  0  0  0  0  0  0
  1  2  1  0  0  0  0
  2  3  1  0  0  0  0
  2  4  1  0  0  0  0
  2  5  1  0  0  0  0
  5  6  2  0  0  0  0
  5  7  1  0  0  0  0
  7  8  1  0  0  0  0
  7  9  1  0  0  0  0
  9 10  1  0  0  0  0
  9 11  1  0  0  0  0
  9 23  1  0  0  0  0
 11 12  1  0  0  0  0
 11 13  1  0  0  0  0
 11 14  1  0  0  0  0
 14 15  1  0  0  0  0
 14 21  2  0  0  0  0
 15 16  1  0  0  0  0
 15 17  2  0  0  0  0
 17 18  1  0  0  0  0
 17 19  1  0  0  0  0
 19 20  1  0  0  0  0
 19 21  1  0  0  0  0
 21 22  1  0  0  0  0
 23 24  2  0  0  0  0
 23 25  1  0  0  0  0
 25 26  1  0  0  0  0
 25 27  1  0  0  0  0
 27 28  1  0  0  0  0
 27 29  1  0  0  0  0
 27 30  1  0  0  0  0
M  CHG  1  15   1
M  END
$$$$

  -OEChem-04042216003D

 30 30  0     1  0  0  0  0  0999 V2000
   -3.1735   -4.0334    1.2543 H   0  0  0  0  0  0  0  0  0  0  0  0
   -3.2249   -3.1469    0.6152 C   0  0  0  0  0  0  0  0  0  0  0  0
   -3.9321   -2.4397    1.0548 H   0  0  0  0  0  0  0  0  0  0  0  0
   -3.5845   -3.4477   -0.3718 H   0  0  0  0  0  0  0  0  0  0  0  0
   -1.8532   -2.5107    0.4986 C   0  0  0  0  0  0  0  0  0  0  0  0
   -0.8973   -2.9961    1.0772 O   0  0  0  0  0  0  0  0  0  0  0  0
   -1.6678   -1.3737   -0.2675 N   0  0  0  0  0  0  0  0  0  0  0  0
   -2.4994   -0.9594   -0.6814 H   0  0  0  0  0  0  0  0  0  0  0  0
   -0.3793   -0.6583   -0.3456 C   0  0  1  0  0  0  0  0  0  0  0  0
    0.3031   -1.4791   -0.5873 H   0  0  0  0  0  0  0  0  0  0  0  0
   -0.3179    0.3480   -1.5183 C   0  0  0  0  0  0  0  0  0  0  0  0
   -1.2663    0.3474   -2.0645 H   0  0  0  0  0  0  0  0  0  0  0  0
   -0.1735    1.3614   -1.1255 H   0  0  0  0  0  0  0  0  0  0  0  0
    0.8078    0.0275   -2.4775 C   0  0  0  0  0  0  0  0  0  0  0  0
    2.0145   -0.5842   -2.1202 N   0  3  0  0  0  0  0  0  0  0  0  0
    2.2809   -0.7401   -1.1370 H   0  0  0  0  0  0  0  0  0  0  0  0
    2.7731   -0.7477   -3.1752 C   0  0  0  0  0  0  0  0  0  0  0  0
    3.7847   -1.1587   -3.1842 H   0  0  0  0  0  0  0  0  0  0  0  0
    2.0542   -0.2785   -4.2735 N   0  0  0  0  0  0  0  0  0  0  0  0
    2.3855   -0.2729   -5.2432 H   0  0  0  0  0  0  0  0  0  0  0  0
    0.8248    0.2069   -3.8379 C   0  0  0  0  0  0  0  0  0  0  0  0
    0.0319    0.6416   -4.4469 H   0  0  0  0  0  0  0  0  0  0  0  0
    0.2525   -0.0726    0.9251 C   0  0  0  0  0  0  0  0  0  0  0  0
    1.4766    0.0107    0.9182 O   0  0  0  0  0  0  0  0  0  0  0  0
   -0.4944    0.6336    1.8475 N   0  0  0  0  0  0  0  0  0  0  0  0
   -1.4980    0.4732    1.8459 H   0  0  0  0  0  0  0  0  0  0  0  0
    0.1037    1.2696    3.0181 C   0  0  0  0  0  0  0  0  0  0  0  0
    0.8524    2.0097    2.7154 H   0  0  0  0  0  0  0  0  0  0  0  0
   -0.6637    1.7813    3.6075 H   0  0  0  0  0  0  0  0  0  0  0  0
    0.5883    0.5221    3.6557 H   0  0  0  0  0  0  0  0  0  0  0  0
  1  2  1  0  0  0  0
  2  3  1  0  0  0  0
  2  4  1  0  0  0  0
  2  5  1  0  0  0  0
  5  6  2  0  0  0  0
  5  7  1  0  0  0  0
  7  8  1  0  0  0  0
  7  9  1  0  0  0  0
  9 10  1  0  0  0  0
  9 11  1  0  0  0  0
  9 23  1  0  0  0  0
 11 12  1  0  0  0  0
 11 13  1  0  0  0  0
 11 14  1  0  0  0  0
 14 15  1  0  0  0  0
 14 21  2  0  0  0  0
 15 16  1  0  0  0  0
 15 17  2  0  0  0  0
 17 18  1  0  0  0  0
 17 19  1  0  0  0  0
 19 20  1  0  0  0  0
 19 21  1  0  0  0  0
 21 22  1  0  0  0  0
 23 24  2  0  0  0  0
 23 25  1  0  0  0  0
 25 26  1  0  0  0  0
 25 27  1  0  0  0  0
 27 28  1  0  0  0  0
 27 29  1  0  0  0  0
 27 30  1  0  0  0  0
M  CHG  1  15   1
M  END
$$$$

  -OEChem-04042216003D

 30 30  0     1  0  0  0  0  0999 V2000
   -3.2270   -3.9819    1.3066 H   0  0  0  0  0  0  0  0  0  0  0  0
   -3.2463   -3.1098    0.6460 C   0  0  0  0  0  0  0  0  0  0  0  0
   -3.9424   -2.3751    1.0573 H   0  0  0  0  0  0  0  0  0  0  0  0
   -3.5980   -3.4258   -0.3391 H   0  0  0  0  0  0  0  0  0  0  0  0
   -1.8577   -2.5100    0.5362 C   0  0  0  0  0  0  0  0  0  0  0  0
   -0.9205   -3.0105    1.1320 O   0  0  0  0  0  0  0  0  0  0  0  0
   -1.6321   -1.3987   -0.2563 N   0  0  0  0  0  0  0  0  0  0  0  0
   -2.4481   -0.9736   -0.6898 H   0  0  0  0  0  0  0  0  0  0  0  0
   -0.3296   -0.7063   -0.3176 C   0  0  1  0  0  0  0  0  0  0  0  0
    0.3593   -1.5278   -0.5285 H   0  0  0  0  0  0  0  0  0  0  0  0
   -0.2525    0.2979   -1.4919 C   0  0  0  0  0  0  0  0  0  0  0  0
   -1.2033    0.3091   -2.0336 H   0  0  0  0  0  0  0  0  0  0  0  0
   -0.1001    1.3085   -1.0943 H   0  0  0  0  0  0  0  0  0  0  0  0
    0.8632   -0.0097   -2.4715 C   0  0  0  0  0  0  0  0  0  0  0  0
    1.9529   -0.8663   -2.2757 N   0  3  0  0  0  0  0  0  0  0  0  0
    2.1777   -1.2720   -1.3593 H   0  0  0  0  0  0  0  0  0  0  0  0
    2.7096   -0.8995   -3.3445 C   0  0  0  0  0  0  0  0  0  0  0  0
    3.6503   -1.4433   -3.4530 H   0  0  0  0  0  0  0  0  0  0  0  0
    2.1025   -0.0907   -4.3018 N   0  0  0  0  0  0  0  0  0  0  0  0
    2.4612    0.0887   -5.2448 H   0  0  0  0  0  0  0  0  0  0  0  0
    0.9515    0.4674   -3.7560 C   0  0  0  0  0  0  0  0  0  0  0  0
    0.2560    1.1508   -4.2438 H   0  0  0  0  0  0  0  0  0  0  0  0
    0.2500   -0.1035    0.9718 C   0  0  0  0  0  0  0  0  0  0  0  0
    1.4712   -0.0369    1.0349 O   0  0  0  0  0  0  0  0  0  0  0  0
   -0.5340    0.6291    1.8422 N   0  0  0  0  0  0  0  0  0  0  0  0
   -1.5382    0.4832    1.7920 H   0  0  0  0  0  0  0  0  0  0  0  0
    0.0136    1.2896    3.0240 C   0  0  0  0  0  0  0  0  0  0  0  0
    0.7707    2.0276    2.7372 H   0  0  0  0  0  0  0  0  0  0  0  0
   -0.7790    1.8083    3.5728 H   0  0  0  0  0  0  0  0  0  0  0  0
    0.4757    0.5566    3.6942 H   0  0  0  0  0  0  0  0  0  0  0  0
  1  2  1  0  0  0  0
  2  3  1  0  0  0  0
  2  4  1  0  0  0  0
  2  5  1  0  0  0  0
  5  6  2  0  0  0  0
  5  7  1  0  0  0  0
  7  8  1  0  0  0  0
  7  9  1  0  0  0  0
  9 10  1  0  0  0  0
  9 11  1  0  0  0  0
  9 23  1  0  0  0  0
 11 12  1  0  0  0  0
 11 13  1  0  0  0  0
 11 14  1  0  0  0  0
 14 15  1  0  0  0  0
 14 21  2  0  0  0  0
 15 16  1  0  0  0  0
 15 17  2  0  0  0  0
 17 18  1  0  0  0  0
 17 19  1  0  0  0  0
 19 20  1  0  0  0  0
 19 21  1  0  0  0  0
 21 22  1  0  0  0  0
 23 24  2  0  0  0  0
 23 25  1  0  0  0  0
 25 26  1  0  0  0  0
 25 27  1  0  0  0  0
 27 28  1  0  0  0  0
 27 29  1  0  0  0  0
 27 30  1  0  0  0  0
M  CHG  1  15   1
M  END
$$$$

  -OEChem-04042216003D

 30 30  0     1  0  0  0  0  0999 V2000
   -3.2474   -3.9218    1.4033 H   0  0  0  0  0  0  0  0  0  0  0  0
   -3.2538   -3.0613    0.7276 C   0  0  0  0  0  0  0  0  0  0  0  0
   -3.9146   -2.2966    1.1423 H   0  0  0  0  0  0  0  0  0  0  0  0
   -3.6400   -3.3820   -0.2429 H   0  0  0  0  0  0  0  0  0  0  0  0
   -1.8489   -2.5114    0.5741 C   0  0  0  0  0  0  0  0  0  0  0  0
   -0.9150   -3.0320    1.1574 O   0  0  0  0  0  0  0  0  0  0  0  0
   -1.6029   -1.4286   -0.2513 N   0  0  0  0  0  0  0  0  0  0  0  0
   -2.4156   -0.9830   -0.6704 H   0  0  0  0  0  0  0  0  0  0  0  0
   -0.2895   -0.7563   -0.3167 C   0  0  1  0  0  0  0  0  0  0  0  0
    0.4111   -1.5721   -0.5053 H   0  0  0  0  0  0  0  0  0  0  0  0
   -0.2112    0.2494   -1.4895 C   0  0  0  0  0  0  0  0  0  0  0  0
   -1.1678    0.2633   -2.0214 H   0  0  0  0  0  0  0  0  0  0  0  0
   -0.0524    1.2599   -1.0939 H   0  0  0  0  0  0  0  0  0  0  0  0
    0.8843   -0.0579   -2.4935 C   0  0  0  0  0  0  0  0  0  0  0  0
    1.8109   -1.1081   -2.4915 N   0  3  0  0  0  0  0  0  0  0  0  0
    1.8928   -1.7775   -1.7197 H   0  0  0  0  0  0  0  0  0  0  0  0
    2.6161   -1.0155   -3.5210 C   0  0  0  0  0  0  0  0  0  0  0  0
    3.4547   -1.6773   -3.7478 H   0  0  0  0  0  0  0  0  0  0  0  0
    2.2160    0.0969   -4.2558 N   0  0  0  0  0  0  0  0  0  0  0  0
    2.6622    0.4380   -5.1130 H   0  0  0  0  0  0  0  0  0  0  0  0
    1.1409    0.6979   -3.6112 C   0  0  0  0  0  0  0  0  0  0  0  0
    0.6096    1.5988   -3.9192 H   0  0  0  0  0  0  0  0  0  0  0  0
    0.2472   -0.1332    0.9843 C   0  0  0  0  0  0  0  0  0  0  0  0
    1.4623   -0.0671    1.1066 O   0  0  0  0  0  0  0  0  0  0  0  0
   -0.5703    0.6205    1.8058 N   0  0  0  0  0  0  0  0  0  0  0  0
   -1.5720    0.4816    1.7118 H   0  0  0  0  0  0  0  0  0  0  0  0
   -0.0738    1.2941    3.0029 C   0  0  0  0  0  0  0  0  0  0  0  0
    0.7268    1.9967    2.7471 H   0  0  0  0  0  0  0  0  0  0  0  0
   -0.8796    1.8558    3.4858 H   0  0  0  0  0  0  0  0  0  0  0  0
    0.3173    0.5634    3.7193 H   0  0  0  0  0  0  0  0  0  0  0  0
  1  2  1  0  0  0  0
  2  3  1  0  0  0  0
  2  4  1  0  0  0  0
  2  5  1  0  0  0  0
  5  6  2  0  0  0  0
  5  7  1  0  0  0  0
  7  8  1  0  0  0  0
  7  9  1  0  0  0  0
  9 10  1  0  0  0  0
  9 11  1  0  0  0  0
  9 23  1  0  0  0  0
 11 12  1  0  0  0  0
 11 13  1  0  0  0  0
 11 14  1  0  0  0  0
 14 15  1  0  0  0  0
 14 21  2  0  0  0  0
 15 16  1  0  0  0  0
 15 17  2  0  0  0  0
 17 18  1  0  0  0  0
 17 19  1  0  0  0  0
 19 20  1  0  0  0  0
 19 21  1  0  0  0  0
 21 22  1  0  0  0  0
 23 24  2  0  0  0  0
 23 25  1  0  0  0  0
 25 26  1  0  0  0  0
 25 27  1  0  0  0  0
 27 28  1  0  0  0  0
 27 29  1  0  0  0  0
 27 30  1  0  0  0  0
M  CHG  1  15   1
M  END
$$$$

  -OEChem-04042216003D

 30 30  0     1  0  0  0  0  0999 V2000
   -3.2485   -3.8893    1.4638 H   0  0  0  0  0  0  0  0  0  0  0  0
   -3.2530   -3.0362    0.7787 C   0  0  0  0  0  0  0  0  0  0  0  0
   -3.8844   -2.2515    1.2025 H   0  0  0  0  0  0  0  0  0  0  0  0
   -3.6731   -3.3582   -0.1771 H   0  0  0  0  0  0  0  0  0  0  0  0
   -1.8404   -2.5211    0.5811 C   0  0  0  0  0  0  0  0  0  0  0  0
   -0.9022   -3.0630    1.1369 O   0  0  0  0  0  0  0  0  0  0  0  0
   -1.5919   -1.4490   -0.2574 N   0  0  0  0  0  0  0  0  0  0  0  0
   -2.4079   -0.9839   -0.6480 H   0  0  0  0  0  0  0  0  0  0  0  0
   -0.2750   -0.7836   -0.3320 C   0  0  1  0  0  0  0  0  0  0  0  0
    0.4392   -1.5885   -0.5204 H   0  0  0  0  0  0  0  0  0  0  0  0
   -0.2129    0.2346   -1.4947 C   0  0  0  0  0  0  0  0  0  0  0  0
   -1.1763    0.2472   -2.0143 H   0  0  0  0  0  0  0  0  0  0  0  0
   -0.0539    1.2442   -1.0969 H   0  0  0  0  0  0  0  0  0  0  0  0
    0.8638   -0.0708   -2.5180 C   0  0  0  0  0  0  0  0  0  0  0  0
    1.5889   -1.2533   -2.7090 N   0  3  0  0  0  0  0  0  0  0  0  0
    1.4602   -2.0875   -2.1291 H   0  0  0  0  0  0  0  0  0  0  0  0
    2.4857   -1.0972   -3.6518 C   0  0  0  0  0  0  0  0  0  0  0  0
    3.2074   -1.8441   -3.9890 H   0  0  0  0  0  0  0  0  0  0  0  0
    2.3592    0.2046   -4.1275 N   0  0  0  0  0  0  0  0  0  0  0  0
    2.9388    0.6335   -4.8556 H   0  0  0  0  0  0  0  0  0  0  0  0
    1.3558    0.8476   -3.4127 C   0  0  0  0  0  0  0  0  0  0  0  0
    1.0330    1.8835   -3.5197 H   0  0  0  0  0  0  0  0  0  0  0  0
    0.2487   -0.1538    0.9728 C   0  0  0  0  0  0  0  0  0  0  0  0
    1.4606   -0.0749    1.1116 O   0  0  0  0  0  0  0  0  0  0  0  0
   -0.5814    0.6048    1.7775 N   0  0  0  0  0  0  0  0  0  0  0  0
   -1.5814    0.4630    1.6734 H   0  0  0  0  0  0  0  0  0  0  0  0
   -0.0998    1.3010    2.9677 C   0  0  0  0  0  0  0  0  0  0  0  0
    0.6836    2.0196    2.7033 H   0  0  0  0  0  0  0  0  0  0  0  0
   -0.9177    1.8482    3.4470 H   0  0  0  0  0  0  0  0  0  0  0  0
    0.3100    0.5873    3.6909 H   0  0  0  0  0  0  0  0  0  0  0  0
  1  2  1  0  0  0  0
  2  3  1  0  0  0  0
  2  4  1  0  0  0  0
  2  5  1  0  0  0  0
  5  6  2  0  0  0  0
  5  7  1  0  0  0  0
  7  8  1  0  0  0  0
  7  9  1  0  0  0  0
  9 10  1  0  0  0  0
  9 11  1  0  0  0  0
  9 23  1  0  0  0  0
 11 12  1  0  0  0  0
 11 13  1  0  0  0  0
 11 14  1  0  0  0  0
 14 15  1  0  0  0  0
 14 21  2  0  0  0  0
 15 16  1  0  0  0  0
 15 17  2  0  0  0  0
 17 18  1  0  0  0  0
 17 19  1  0  0  0  0
 19 20  1  0  0  0  0
 19 21  1  0  0  0  0
 21 22  1  0  0  0  0
 23 24  2  0  0  0  0
 23 25  1  0  0  0  0
 25 26  1  0  0  0  0
 25 27  1  0  0  0  0
 27 28  1  0  0  0  0
 27 29  1  0  0  0  0
 27 30  1  0  0  0  0
M  CHG  1  15   1
M  END
$$$$

  -OEChem-04042216003D

 30 30  0     1  0  0  0  0  0999 V2000
   -3.2109   -3.8879    1.4675 H   0  0  0  0  0  0  0  0  0  0  0  0
   -3.2293   -3.0289    0.7901 C   0  0  0  0  0  0  0  0  0  0  0  0
   -3.8436   -2.2444    1.2378 H   0  0  0  0  0  0  0  0  0  0  0  0
   -3.6779   -3.3394   -0.1566 H   0  0  0  0  0  0  0  0  0  0  0  0
   -1.8194   -2.5207    0.5578 C   0  0  0  0  0  0  0  0  0  0  0  0
   -0.8689   -3.0793    1.0741 O   0  0  0  0  0  0  0  0  0  0  0  0
   -1.5885   -1.4410   -0.2759 N   0  0  0  0  0  0  0  0  0  0  0  0
   -2.4153   -0.9565   -0.6178 H   0  0  0  0  0  0  0  0  0  0  0  0
   -0.2763   -0.7660   -0.3568 C   0  0  1  0  0  0  0  0  0  0  0  0
    0.4505   -1.5578   -0.5591 H   0  0  0  0  0  0  0  0  0  0  0  0
   -0.2347    0.2633   -1.5092 C   0  0  0  0  0  0  0  0  0  0  0  0
   -1.2005    0.2725   -2.0242 H   0  0  0  0  0  0  0  0  0  0  0  0
   -0.0778    1.2716   -1.1077 H   0  0  0  0  0  0  0  0  0  0  0  0
    0.8386   -0.0472   -2.5320 C   0  0  0  0  0  0  0  0  0  0  0  0
    1.3475   -1.2971   -2.9030 N   0  3  0  0  0  0  0  0  0  0  0  0
    1.0138   -2.1776   -2.5000 H   0  0  0  0  0  0  0  0  0  0  0  0
    2.3328   -1.1571   -3.7562 C   0  0  0  0  0  0  0  0  0  0  0  0
    2.9307   -1.9593   -4.1935 H   0  0  0  0  0  0  0  0  0  0  0  0
    2.4883    0.2075   -3.9844 N   0  0  0  0  0  0  0  0  0  0  0  0
    3.1988    0.6356   -4.5861 H   0  0  0  0  0  0  0  0  0  0  0  0
    1.5641    0.9001   -3.2114 C   0  0  0  0  0  0  0  0  0  0  0  0
    1.4514    1.9818   -3.1318 H   0  0  0  0  0  0  0  0  0  0  0  0
    0.2491   -0.1438    0.9519 C   0  0  0  0  0  0  0  0  0  0  0  0
    1.4601   -0.0483    1.0864 O   0  0  0  0  0  0  0  0  0  0  0  0
   -0.5843    0.6009    1.7670 N   0  0  0  0  0  0  0  0  0  0  0  0
   -1.5834    0.4506    1.6667 H   0  0  0  0  0  0  0  0  0  0  0  0
   -0.1040    1.2849    2.9651 C   0  0  0  0  0  0  0  0  0  0  0  0
    0.6678    2.0184    2.7076 H   0  0  0  0  0  0  0  0  0  0  0  0
   -0.9263    1.8125    3.4587 H   0  0  0  0  0  0  0  0  0  0  0  0
    0.3203    0.5652    3.6737 H   0  0  0  0  0  0  0  0  0  0  0  0
  1  2  1  0  0  0  0
  2  3  1  0  0  0  0
  2  4  1  0  0  0  0
  2  5  1  0  0  0  0
  5  6  2  0  0  0  0
  5  7  1  0  0  0  0
  7  8  1  0  0  0  0
  7  9  1  0  0  0  0
  9 10  1  0  0  0  0
  9 11  1  0  0  0  0
  9 23  1  0  0  0  0
 11 12  1  0  0  0  0
 11 13  1  0  0  0  0
 11 14  1  0  0  0  0
 14 15  1  0  0  0  0
 14 21  2  0  0  0  0
 15 16  1  0  0  0  0
 15 17  2  0  0  0  0
 17 18  1  0  0  0  0
 17 19  1  0  0  0  0
 19 20  1  0  0  0  0
 19 21  1  0  0  0  0
 21 22  1  0  0  0  0
 23 24  2  0  0  0  0
 23 25  1  0  0  0  0
 25 26  1  0  0  0  0
 25 27  1  0  0  0  0
 27 28  1  0  0  0  0
 27 29  1  0  0  0  0
 27 30  1  0  0  0  0
M  CHG  1  15   1
M  END
$$$$

  -OEChem-04042216003D

 30 30  0     1  0  0  0  0  0999 V2000
   -3.1772   -3.8962    1.4454 H   0  0  0  0  0  0  0  0  0  0  0  0
   -3.2074   -3.0317    0.7753 C   0  0  0  0  0  0  0  0  0  0  0  0
   -3.8183   -2.2532    1.2382 H   0  0  0  0  0  0  0  0  0  0  0  0
   -3.6679   -3.3361   -0.1675 H   0  0  0  0  0  0  0  0  0  0  0  0
   -1.8020   -2.5177    0.5282 C   0  0  0  0  0  0  0  0  0  0  0  0
   -0.8441   -3.0801    1.0258 O   0  0  0  0  0  0  0  0  0  0  0  0
   -1.5848   -1.4262   -0.2940 N   0  0  0  0  0  0  0  0  0  0  0  0
   -2.4177   -0.9359   -0.6120 H   0  0  0  0  0  0  0  0  0  0  0  0
   -0.2772   -0.7418   -0.3734 C   0  0  1  0  0  0  0  0  0  0  0  0
    0.4561   -1.5247   -0.5958 H   0  0  0  0  0  0  0  0  0  0  0  0
   -0.2478    0.3012   -1.5118 C   0  0  0  0  0  0  0  0  0  0  0  0
   -1.2136    0.3196   -2.0263 H   0  0  0  0  0  0  0  0  0  0  0  0
   -0.0861    1.3047   -1.1001 H   0  0  0  0  0  0  0  0  0  0  0  0
    0.8293   -0.0165   -2.5250 C   0  0  0  0  0  0  0  0  0  0  0  0
    1.1243   -1.2617   -3.0889 N   0  3  0  0  0  0  0  0  0  0  0  0
    0.6060   -2.1146   -2.8600 H   0  0  0  0  0  0  0  0  0  0  0  0
    2.1759   -1.1729   -3.8670 C   0  0  0  0  0  0  0  0  0  0  0  0
    2.6464   -1.9900   -4.4178 H   0  0  0  0  0  0  0  0  0  0  0  0
    2.5935    0.1557   -3.8451 N   0  0  0  0  0  0  0  0  0  0  0  0
    3.4123    0.5331   -4.3325 H   0  0  0  0  0  0  0  0  0  0  0  0
    1.7585    0.8756   -2.9990 C   0  0  0  0  0  0  0  0  0  0  0  0
    1.8393    1.9303   -2.7332 H   0  0  0  0  0  0  0  0  0  0  0  0
    0.2509   -0.1329    0.9410 C   0  0  0  0  0  0  0  0  0  0  0  0
    1.4614   -0.0173    1.0651 O   0  0  0  0  0  0  0  0  0  0  0  0
   -0.5841    0.5955    1.7693 N   0  0  0  0  0  0  0  0  0  0  0  0
   -1.5822    0.4337    1.6771 H   0  0  0  0  0  0  0  0  0  0  0  0
   -0.1011    1.2740    2.9697 C   0  0  0  0  0  0  0  0  0  0  0  0
    0.6475    2.0305    2.7102 H   0  0  0  0  0  0  0  0  0  0  0  0
   -0.9278    1.7734    3.4851 H   0  0  0  0  0  0  0  0  0  0  0  0
    0.3536    0.5554    3.6607 H   0  0  0  0  0  0  0  0  0  0  0  0
  1  2  1  0  0  0  0
  2  3  1  0  0  0  0
  2  4  1  0  0  0  0
  2  5  1  0  0  0  0
  5  6  2  0  0  0  0
  5  7  1  0  0  0  0
  7  8  1  0  0  0  0
  7  9  1  0  0  0  0
  9 10  1  0  0  0  0
  9 11  1  0  0  0  0
  9 23  1  0  0  0  0
 11 12  1  0  0  0  0
 11 13  1  0  0  0  0
 11 14  1  0  0  0  0
 14 15  1  0  0  0  0
 14 21  2  0  0  0  0
 15 16  1  0  0  0  0
 15 17  2  0  0  0  0
 17 18  1  0  0  0  0
 17 19  1  0  0  0  0
 19 20  1  0  0  0  0
 19 21  1  0  0  0  0
 21 22  1  0  0  0  0
 23 24  2  0  0  0  0
 23 25  1  0  0  0  0
 25 26  1  0  0  0  0
 25 27  1  0  0  0  0
 27 28  1  0  0  0  0
 27 29  1  0  0  0  0
 27 30  1  0  0  0  0
M  CHG  1  15   1
M  END
$$$$

  -OEChem-04042216003D

 30 30  0     1  0  0  0  0  0999 V2000
   -3.1559   -3.9159    1.4112 H   0  0  0  0  0  0  0  0  0  0  0  0
   -3.1947   -3.0437    0.7517 C   0  0  0  0  0  0  0  0  0  0  0  0
   -3.8104   -2.2754    1.2251 H   0  0  0  0  0  0  0  0  0  0  0  0
   -3.6545   -3.3406   -0.1939 H   0  0  0  0  0  0  0  0  0  0  0  0
   -1.7941   -2.5156    0.5073 C   0  0  0  0  0  0  0  0  0  0  0  0
   -0.8316   -3.0745    1.0000 O   0  0  0  0  0  0  0  0  0  0  0  0
   -1.5883   -1.4135   -0.3038 N   0  0  0  0  0  0  0  0  0  0  0  0
   -2.4261   -0.9202   -0.6034 H   0  0  0  0  0  0  0  0  0  0  0  0
   -0.2840   -0.7225   -0.3835 C   0  0  1  0  0  0  0  0  0  0  0  0
    0.4495   -1.5015   -0.6248 H   0  0  0  0  0  0  0  0  0  0  0  0
   -0.2608    0.3304   -1.5106 C   0  0  0  0  0  0  0  0  0  0  0  0
   -1.2259    0.3626   -2.0259 H   0  0  0  0  0  0  0  0  0  0  0  0
   -0.0886    1.3286   -1.0904 H   0  0  0  0  0  0  0  0  0  0  0  0
    0.8205    0.0021   -2.5116 C   0  0  0  0  0  0  0  0  0  0  0  0
    0.9334   -1.1590   -3.2800 N   0  3  0  0  0  0  0  0  0  0  0  0
    0.2626   -1.9305   -3.2273 H   0  0  0  0  0  0  0  0  0  0  0  0
    2.0399   -1.1310   -3.9835 C   0  0  0  0  0  0  0  0  0  0  0  0
    2.4031   -1.9129   -4.6532 H   0  0  0  0  0  0  0  0  0  0  0  0
    2.6785    0.0748   -3.7017 N   0  0  0  0  0  0  0  0  0  0  0  0
    3.5848    0.3737   -4.0752 H   0  0  0  0  0  0  0  0  0  0  0  0
    1.9204    0.7786   -2.7742 C   0  0  0  0  0  0  0  0  0  0  0  0
    2.1616    1.7367   -2.3117 H   0  0  0  0  0  0  0  0  0  0  0  0
    0.2561   -0.1244    0.9309 C   0  0  0  0  0  0  0  0  0  0  0  0
    1.4667    0.0132    1.0338 O   0  0  0  0  0  0  0  0  0  0  0  0
   -0.5746    0.5929    1.7732 N   0  0  0  0  0  0  0  0  0  0  0  0
   -1.5718    0.4184    1.6961 H   0  0  0  0  0  0  0  0  0  0  0  0
   -0.0828    1.2756    2.9676 C   0  0  0  0  0  0  0  0  0  0  0  0
    0.6631    2.0322    2.7006 H   0  0  0  0  0  0  0  0  0  0  0  0
   -0.9057    1.7761    3.4875 H   0  0  0  0  0  0  0  0  0  0  0  0
    0.3772    0.5592    3.6571 H   0  0  0  0  0  0  0  0  0  0  0  0
  1  2  1  0  0  0  0
  2  3  1  0  0  0  0
  2  4  1  0  0  0  0
  2  5  1  0  0  0  0
  5  6  2  0  0  0  0
  5  7  1  0  0  0  0
  7  8  1  0  0  0  0
  7  9  1  0  0  0  0
  9 10  1  0  0  0  0
  9 11  1  0  0  0  0
  9 23  1  0  0  0  0
 11 12  1  0  0  0  0
 11 13  1  0  0  0  0
 11 14  1  0  0  0  0
 14 15  1  0  0  0  0
 14 21  2  0  0  0  0
 15 16  1  0  0  0  0
 15 17  2  0  0  0  0
 17 18  1  0  0  0  0
 17 19  1  0  0  0  0
 19 20  1  0  0  0  0
 19 21  1  0  0  0  0
 21 22  1  0  0  0  0
 23 24  2  0  0  0  0
 23 25  1  0  0  0  0
 25 26  1  0  0  0  0
 25 27  1  0  0  0  0
 27 28  1  0  0  0  0
 27 29  1  0  0  0  0
 27 30  1  0  0  0  0
M  CHG  1  15   1
M  END
$$$$

  -OEChem-04042216003D

 30 30  0     1  0  0  0  0  0999 V2000
   -3.1472   -3.9324    1.3890 H   0  0  0  0  0  0  0  0  0  0  0  0
   -3.1909   -3.0608    0.7291 C   0  0  0  0  0  0  0  0  0  0  0  0
   -3.8233   -2.3015    1.1949 H   0  0  0  0  0  0  0  0  0  0  0  0
   -3.6350   -3.3643   -0.2219 H   0  0  0  0  0  0  0  0  0  0  0  0
   -1.7953   -2.5124    0.5016 C   0  0  0  0  0  0  0  0  0  0  0  0
   -0.8315   -3.0573    1.0071 O   0  0  0  0  0  0  0  0  0  0  0  0
   -1.5976   -1.4030   -0.3017 N   0  0  0  0  0  0  0  0  0  0  0  0
   -2.4378   -0.9182   -0.6075 H   0  0  0  0  0  0  0  0  0  0  0  0
   -0.2958   -0.7081   -0.3879 C   0  0  1  0  0  0  0  0  0  0  0  0
    0.4328   -1.4879   -0.6436 H   0  0  0  0  0  0  0  0  0  0  0  0
   -0.2748    0.3510   -1.5085 C   0  0  0  0  0  0  0  0  0  0  0  0
   -1.2408    0.3971   -2.0207 H   0  0  0  0  0  0  0  0  0  0  0  0
   -0.0902    1.3452   -1.0837 H   0  0  0  0  0  0  0  0  0  0  0  0
    0.8073    0.0130   -2.5034 C   0  0  0  0  0  0  0  0  0  0  0  0
    0.7873   -0.9905   -3.4737 N   0  3  0  0  0  0  0  0  0  0  0  0
   -0.0060   -1.6229   -3.6079 H   0  0  0  0  0  0  0  0  0  0  0  0
    1.9379   -1.0329   -4.1025 C   0  0  0  0  0  0  0  0  0  0  0  0
    2.2201   -1.7308   -4.8934 H   0  0  0  0  0  0  0  0  0  0  0  0
    2.7439   -0.0338   -3.5597 N   0  0  0  0  0  0  0  0  0  0  0  0
    3.7160    0.1598   -3.8202 H   0  0  0  0  0  0  0  0  0  0  0  0
    2.0395    0.6134   -2.5526 C   0  0  0  0  0  0  0  0  0  0  0  0
    2.3979    1.4065   -1.8936 H   0  0  0  0  0  0  0  0  0  0  0  0
    0.2624   -0.1169    0.9219 C   0  0  0  0  0  0  0  0  0  0  0  0
    1.4731    0.0439    0.9949 O   0  0  0  0  0  0  0  0  0  0  0  0
   -0.5591    0.5935    1.7785 N   0  0  0  0  0  0  0  0  0  0  0  0
   -1.5540    0.3976    1.7277 H   0  0  0  0  0  0  0  0  0  0  0  0
   -0.0509    1.2842    2.9611 C   0  0  0  0  0  0  0  0  0  0  0  0
    0.6815    2.0476    2.6771 H   0  0  0  0  0  0  0  0  0  0  0  0
   -0.8688    1.7773    3.4959 H   0  0  0  0  0  0  0  0  0  0  0  0
    0.4306    0.5745    3.6428 H   0  0  0  0  0  0  0  0  0  0  0  0
  1  2  1  0  0  0  0
  2  3  1  0  0  0  0
  2  4  1  0  0  0  0
  2  5  1  0  0  0  0
  5  6  2  0  0  0  0
  5  7  1  0  0  0  0
  7  8  1  0  0  0  0
  7  9  1  0  0  0  0
  9 10  1  0  0  0  0
  9 11  1  0  0  0  0
  9 23  1  0  0  0  0
 11 12  1  0  0  0  0
 11 13  1  0  0  0  0
 11 14  1  0  0  0  0
 14 15  1  0  0  0  0
 14 21  2  0  0  0  0
 15 16  1  0  0  0  0
 15 17  2  0  0  0  0
 17 18  1  0  0  0  0
 17 19  1  0  0  0  0
 19 20  1  0  0  0  0
 19 21  1  0  0  0  0
 21 22  1  0  0  0  0
 23 24  2  0  0  0  0
 23 25  1  0  0  0  0
 25 26  1  0  0  0  0
 25 27  1  0  0  0  0
 27 28  1  0  0  0  0
 27 29  1  0  0  0  0
 27 30  1  0  0  0  0
M  CHG  1  15   1
M  END
$$$$

  -OEChem-04042216003D

 30 30  0     1  0  0  0  0  0999 V2000
   -3.1519   -3.9323    1.3880 H   0  0  0  0  0  0  0  0  0  0  0  0
   -3.1938   -3.0691    0.7170 C   0  0  0  0  0  0  0  0  0  0  0  0
   -3.8418   -2.3110    1.1633 H   0  0  0  0  0  0  0  0  0  0  0  0
   -3.6190   -3.3888   -0.2374 H   0  0  0  0  0  0  0  0  0  0  0  0
   -1.8008   -2.5083    0.5052 C   0  0  0  0  0  0  0  0  0  0  0  0
   -0.8384   -3.0388    1.0288 O   0  0  0  0  0  0  0  0  0  0  0  0
   -1.6067   -1.3953   -0.2935 N   0  0  0  0  0  0  0  0  0  0  0  0
   -2.4473   -0.9223   -0.6154 H   0  0  0  0  0  0  0  0  0  0  0  0
   -0.3065   -0.6993   -0.3873 C   0  0  1  0  0  0  0  0  0  0  0  0
    0.4155   -1.4831   -0.6502 H   0  0  0  0  0  0  0  0  0  0  0  0
   -0.2848    0.3591   -1.5090 C   0  0  0  0  0  0  0  0  0  0  0  0
   -1.2514    0.4093   -2.0187 H   0  0  0  0  0  0  0  0  0  0  0  0
   -0.0947    1.3532   -1.0867 H   0  0  0  0  0  0  0  0  0  0  0  0
    0.7970    0.0159   -2.5024 C   0  0  0  0  0  0  0  0  0  0  0  0
    0.7026   -0.7754   -3.6485 N   0  3  0  0  0  0  0  0  0  0  0  0
   -0.1671   -1.2206   -3.9522 H   0  0  0  0  0  0  0  0  0  0  0  0
    1.8807   -0.8894   -4.2152 C   0  0  0  0  0  0  0  0  0  0  0  0
    2.1153   -1.4600   -5.1159 H   0  0  0  0  0  0  0  0  0  0  0  0
    2.7843   -0.1588   -3.4454 N   0  0  0  0  0  0  0  0  0  0  0  0
    3.7919   -0.0803   -3.6152 H   0  0  0  0  0  0  0  0  0  0  0  0
    2.1072    0.3995   -2.3692 C   0  0  0  0  0  0  0  0  0  0  0  0
    2.5253    0.9874   -1.5482 H   0  0  0  0  0  0  0  0  0  0  0  0
    0.2676   -0.1115    0.9169 C   0  0  0  0  0  0  0  0  0  0  0  0
    1.4789    0.0598    0.9675 O   0  0  0  0  0  0  0  0  0  0  0  0
   -0.5432    0.5964    1.7854 N   0  0  0  0  0  0  0  0  0  0  0  0
   -1.5372    0.3911    1.7522 H   0  0  0  0  0  0  0  0  0  0  0  0
   -0.0197    1.2827    2.9641 C   0  0  0  0  0  0  0  0  0  0  0  0
    0.6802    2.0725    2.6709 H   0  0  0  0  0  0  0  0  0  0  0  0
   -0.8354    1.7414    3.5319 H   0  0  0  0  0  0  0  0  0  0  0  0
    0.5035    0.5772    3.6191 H   0  0  0  0  0  0  0  0  0  0  0  0
  1  2  1  0  0  0  0
  2  3  1  0  0  0  0
  2  4  1  0  0  0  0
  2  5  1  0  0  0  0
  5  6  2  0  0  0  0
  5  7  1  0  0  0  0
  7  8  1  0  0  0  0
  7  9  1  0  0  0  0
  9 10  1  0  0  0  0
  9 11  1  0  0  0  0
  9 23  1  0  0  0  0
 11 12  1  0  0  0  0
 11 13  1  0  0  0  0
 11 14  1  0  0  0  0
 14 15  1  0  0  0  0
 14 21  2  0  0  0  0
 15 16  1  0  0  0  0
 15 17  2  0  0  0  0
 17 18  1  0  0  0  0
 17 19  1  0  0  0  0
 19 20  1  0  0  0  0
 19 21  1  0  0  0  0
 21 22  1  0  0  0  0
 23 24  2  0  0  0  0
 23 25  1  0  0  0  0
 25 26  1  0  0  0  0
 25 27  1  0  0  0  0
 27 28  1  0  0  0  0
 27 29  1  0  0  0  0
 27 30  1  0  0  0  0
M  CHG  1  15   1
M  END
$$$$

  -OEChem-04042216003D

 30 30  0     1  0  0  0  0  0999 V2000
   -3.1630   -3.9438    1.3745 H   0  0  0  0  0  0  0  0  0  0  0  0
   -3.1989   -3.0783    0.7063 C   0  0  0  0  0  0  0  0  0  0  0  0
   -3.8647   -2.3291    1.1411 H   0  0  0  0  0  0  0  0  0  0  0  0
   -3.5995   -3.3982   -0.2585 H   0  0  0  0  0  0  0  0  0  0  0  0
   -1.8071   -2.5027    0.5278 C   0  0  0  0  0  0  0  0  0  0  0  0
   -0.8552   -3.0147    1.0877 O   0  0  0  0  0  0  0  0  0  0  0  0
   -1.6027   -1.3951   -0.2763 N   0  0  0  0  0  0  0  0  0  0  0  0
   -2.4356   -0.9415   -0.6424 H   0  0  0  0  0  0  0  0  0  0  0  0
   -0.2984   -0.7071   -0.3723 C   0  0  1  0  0  0  0  0  0  0  0  0
    0.4178   -1.4961   -0.6354 H   0  0  0  0  0  0  0  0  0  0  0  0
   -0.2726    0.3518   -1.4954 C   0  0  0  0  0  0  0  0  0  0  0  0
   -1.2425    0.4042   -1.9987 H   0  0  0  0  0  0  0  0  0  0  0  0
   -0.0771    1.3457   -1.0747 H   0  0  0  0  0  0  0  0  0  0  0  0
    0.8033    0.0122   -2.4982 C   0  0  0  0  0  0  0  0  0  0  0  0
    0.6634   -0.5235   -3.7799 N   0  3  0  0  0  0  0  0  0  0  0  0
   -0.2429   -0.7461   -4.1991 H   0  0  0  0  0  0  0  0  0  0  0  0
    1.8440   -0.7070   -4.3233 C   0  0  0  0  0  0  0  0  0  0  0  0
    2.0463   -1.1189   -5.3140 H   0  0  0  0  0  0  0  0  0  0  0  0
    2.7973   -0.2863   -3.3976 N   0  0  0  0  0  0  0  0  0  0  0  0
    3.8140   -0.3233   -3.5218 H   0  0  0  0  0  0  0  0  0  0  0  0
    2.1461    0.1606   -2.2559 C   0  0  0  0  0  0  0  0  0  0  0  0
    2.5969    0.5297   -1.3302 H   0  0  0  0  0  0  0  0  0  0  0  0
    0.2736   -0.1170    0.9319 C   0  0  0  0  0  0  0  0  0  0  0  0
    1.4871    0.0369    0.9919 O   0  0  0  0  0  0  0  0  0  0  0  0
   -0.5365    0.5989    1.7944 N   0  0  0  0  0  0  0  0  0  0  0  0
   -1.5325    0.4036    1.7539 H   0  0  0  0  0  0  0  0  0  0  0  0
   -0.0153    1.2812    2.9762 C   0  0  0  0  0  0  0  0  0  0  0  0
    0.7119    2.0483    2.6894 H   0  0  0  0  0  0  0  0  0  0  0  0
   -0.8274    1.7684    3.5250 H   0  0  0  0  0  0  0  0  0  0  0  0
    0.4751    0.5671    3.6468 H   0  0  0  0  0  0  0  0  0  0  0  0
  1  2  1  0  0  0  0
  2  3  1  0  0  0  0
  2  4  1  0  0  0  0
  2  5  1  0  0  0  0
  5  6  2  0  0  0  0
  5  7  1  0  0  0  0
  7  8  1  0  0  0  0
  7  9  1  0  0  0  0
  9 10  1  0  0  0  0
  9 11  1  0  0  0  0
  9 23  1  0  0  0  0
 11 12  1  0  0  0  0
 11 13  1  0  0  0  0
 11 14  1  0  0  0  0
 14 15  1  0  0  0  0
 14 21  2  0  0  0  0
 15 16  1  0  0  0  0
 15 17  2  0  0  0  0
 17 18  1  0  0  0  0
 17 19  1  0  0  0  0
 19 20  1  0  0  0  0
 19 21  1  0  0  0  0
 21 22  1  0  0  0  0
 23 24  2  0  0  0  0
 23 25  1  0  0  0  0
 25 26  1  0  0  0  0
 25 27  1  0  0  0  0
 27 28  1  0  0  0  0
 27 29  1  0  0  0  0
 27 30  1  0  0  0  0
M  CHG  1  15   1
M  END
$$$$

  -OEChem-04042216003D

 30 30  0     1  0  0  0  0  0999 V2000
   -3.1861   -3.9322    1.3807 H   0  0  0  0  0  0  0  0  0  0  0  0
   -3.2086   -3.0728    0.7039 C   0  0  0  0  0  0  0  0  0  0  0  0
   -3.8814   -2.3190    1.1192 H   0  0  0  0  0  0  0  0  0  0  0  0
   -3.5912   -3.4010   -0.2654 H   0  0  0  0  0  0  0  0  0  0  0  0
   -1.8136   -2.4993    0.5460 C   0  0  0  0  0  0  0  0  0  0  0  0
   -0.8718   -3.0060    1.1276 O   0  0  0  0  0  0  0  0  0  0  0  0
   -1.5957   -1.3982   -0.2631 N   0  0  0  0  0  0  0  0  0  0  0  0
   -2.4202   -0.9578   -0.6621 H   0  0  0  0  0  0  0  0  0  0  0  0
   -0.2876   -0.7172   -0.3558 C   0  0  1  0  0  0  0  0  0  0  0  0
    0.4243   -1.5125   -0.6099 H   0  0  0  0  0  0  0  0  0  0  0  0
   -0.2548    0.3339   -1.4880 C   0  0  0  0  0  0  0  0  0  0  0  0
   -1.2257    0.3767   -1.9900 H   0  0  0  0  0  0  0  0  0  0  0  0
   -0.0640    1.3319   -1.0750 H   0  0  0  0  0  0  0  0  0  0  0  0
    0.8203   -0.0008   -2.4962 C   0  0  0  0  0  0  0  0  0  0  0  0
    0.6731   -0.2628   -3.8600 N   0  3  0  0  0  0  0  0  0  0  0  0
   -0.2319   -0.2601   -4.3371 H   0  0  0  0  0  0  0  0  0  0  0  0
    1.8422   -0.5107   -4.4025 C   0  0  0  0  0  0  0  0  0  0  0  0
    2.0343   -0.7516   -5.4499 H   0  0  0  0  0  0  0  0  0  0  0  0
    2.7979   -0.4104   -3.3934 N   0  0  0  0  0  0  0  0  0  0  0  0
    3.8068   -0.5545   -3.5031 H   0  0  0  0  0  0  0  0  0  0  0  0
    2.1598   -0.0882   -2.2035 C   0  0  0  0  0  0  0  0  0  0  0  0
    2.6180    0.0617   -1.2216 H   0  0  0  0  0  0  0  0  0  0  0  0
    0.2743   -0.1231    0.9512 C   0  0  0  0  0  0  0  0  0  0  0  0
    1.4890    0.0079    1.0324 O   0  0  0  0  0  0  0  0  0  0  0  0
   -0.5401    0.6003    1.8030 N   0  0  0  0  0  0  0  0  0  0  0  0
   -1.5365    0.4109    1.7502 H   0  0  0  0  0  0  0  0  0  0  0  0
   -0.0284    1.2712    2.9955 C   0  0  0  0  0  0  0  0  0  0  0  0
    0.7181    2.0257    2.7239 H   0  0  0  0  0  0  0  0  0  0  0  0
   -0.8419    1.7719    3.5299 H   0  0  0  0  0  0  0  0  0  0  0  0
    0.4367    0.5471    3.6736 H   0  0  0  0  0  0  0  0  0  0  0  0
  1  2  1  0  0  0  0
  2  3  1  0  0  0  0
  2  4  1  0  0  0  0
  2  5  1  0  0  0  0
  5  6  2  0  0  0  0
  5  7  1  0  0  0  0
  7  8  1  0  0  0  0
  7  9  1  0  0  0  0
  9 10  1  0  0  0  0
  9 11  1  0  0  0  0
  9 23  1  0  0  0  0
 11 12  1  0  0  0  0
 11 13  1  0  0  0  0
 11 14  1  0  0  0  0
 14 15  1  0  0  0  0
 14 21  2  0  0  0  0
 15 16  1  0  0  0  0
 15 17  2  0  0  0  0
 17 18  1  0  0  0  0
 17 19  1  0  0  0  0
 19 20  1  0  0  0  0
 19 21  1  0  0  0  0
 21 22  1  0  0  0  0
 23 24  2  0  0  0  0
 23 25  1  0  0  0  0
 25 26  1  0  0  0  0
 25 27  1  0  0  0  0
 27 28  1  0  0  0  0
 27 29  1  0  0  0  0
 27 30  1  0  0  0  0
M  CHG  1  15   1
M  END
$$$$

  -OEChem-04042216003D

 30 30  0     1  0  0  0  0  0999 V2000
   -3.2139   -3.9378    1.3791 H   0  0  0  0  0  0  0  0  0  0  0  0
   -3.2287   -3.0802    0.6998 C   0  0  0  0  0  0  0  0  0  0  0  0
   -3.9121   -2.3282    1.1013 H   0  0  0  0  0  0  0  0  0  0  0  0
   -3.5928   -3.4131   -0.2751 H   0  0  0  0  0  0  0  0  0  0  0  0
   -1.8336   -2.5005    0.5652 C   0  0  0  0  0  0  0  0  0  0  0  0
   -0.9017   -2.9965    1.1714 O   0  0  0  0  0  0  0  0  0  0  0  0
   -1.6029   -1.4057   -0.2490 N   0  0  0  0  0  0  0  0  0  0  0  0
   -2.4177   -0.9809   -0.6833 H   0  0  0  0  0  0  0  0  0  0  0  0
   -0.2902   -0.7325   -0.3382 C   0  0  1  0  0  0  0  0  0  0  0  0
    0.4116   -1.5390   -0.5811 H   0  0  0  0  0  0  0  0  0  0  0  0
   -0.2425    0.3081   -1.4820 C   0  0  0  0  0  0  0  0  0  0  0  0
   -1.2114    0.3372   -1.9889 H   0  0  0  0  0  0  0  0  0  0  0  0
   -0.0627    1.3118   -1.0779 H   0  0  0  0  0  0  0  0  0  0  0  0
    0.8344   -0.0196   -2.4944 C   0  0  0  0  0  0  0  0  0  0  0  0
    0.7273    0.0045   -3.8870 N   0  3  0  0  0  0  0  0  0  0  0  0
   -0.1390    0.2388   -4.3779 H   0  0  0  0  0  0  0  0  0  0  0  0
    1.8788   -0.3001   -4.4381 C   0  0  0  0  0  0  0  0  0  0  0  0
    2.0923   -0.3591   -5.5073 H   0  0  0  0  0  0  0  0  0  0  0  0
    2.7849   -0.5291   -3.4051 N   0  0  0  0  0  0  0  0  0  0  0  0
    3.7733   -0.7774   -3.5151 H   0  0  0  0  0  0  0  0  0  0  0  0
    2.1362   -0.3439   -2.1922 C   0  0  0  0  0  0  0  0  0  0  0  0
    2.5684   -0.4221   -1.1905 H   0  0  0  0  0  0  0  0  0  0  0  0
    0.2714   -0.1319    0.9652 C   0  0  0  0  0  0  0  0  0  0  0  0
    1.4877   -0.0244    1.0542 O   0  0  0  0  0  0  0  0  0  0  0  0
   -0.5386    0.6038    1.8103 N   0  0  0  0  0  0  0  0  0  0  0  0
   -1.5367    0.4241    1.7542 H   0  0  0  0  0  0  0  0  0  0  0  0
   -0.0248    1.2753    3.0014 C   0  0  0  0  0  0  0  0  0  0  0  0
    0.7509    2.0005    2.7317 H   0  0  0  0  0  0  0  0  0  0  0  0
   -0.8298    1.8114    3.5138 H   0  0  0  0  0  0  0  0  0  0  0  0
    0.4044    0.5465    3.6978 H   0  0  0  0  0  0  0  0  0  0  0  0
  1  2  1  0  0  0  0
  2  3  1  0  0  0  0
  2  4  1  0  0  0  0
  2  5  1  0  0  0  0
  5  6  2  0  0  0  0
  5  7  1  0  0  0  0
  7  8  1  0  0  0  0
  7  9  1  0  0  0  0
  9 10  1  0  0  0  0
  9 11  1  0  0  0  0
  9 23  1  0  0  0  0
 11 12  1  0  0  0  0
 11 13  1  0  0  0  0
 11 14  1  0  0  0  0
 14 15  1  0  0  0  0
 14 21  2  0  0  0  0
 15 16  1  0  0  0  0
 15 17  2  0  0  0  0
 17 18  1  0  0  0  0
 17 19  1  0  0  0  0
 19 20  1  0  0  0  0
 19 21  1  0  0  0  0
 21 22  1  0  0  0  0
 23 24  2  0  0  0  0
 23 25  1  0  0  0  0
 25 26  1  0  0  0  0
 25 27  1  0  0  0  0
 27 28  1  0  0  0  0
 27 29  1  0  0  0  0
 27 30  1  0  0  0  0
M  CHG  1  15   1
M  END
$$$$

  -OEChem-04042216003D

 30 30  0     1  0  0  0  0  0999 V2000
   -3.2525   -3.9333    1.3856 H   0  0  0  0  0  0  0  0  0  0  0  0
   -3.2571   -3.0831    0.6971 C   0  0  0  0  0  0  0  0  0  0  0  0
   -3.9496   -2.3287    1.0780 H   0  0  0  0  0  0  0  0  0  0  0  0
   -3.6024   -3.4279   -0.2805 H   0  0  0  0  0  0  0  0  0  0  0  0
   -1.8614   -2.5013    0.5811 C   0  0  0  0  0  0  0  0  0  0  0  0
   -0.9379   -2.9918    1.2046 O   0  0  0  0  0  0  0  0  0  0  0  0
   -1.6197   -1.4127   -0.2381 N   0  0  0  0  0  0  0  0  0  0  0  0
   -2.4263   -0.9978   -0.6968 H   0  0  0  0  0  0  0  0  0  0  0  0
   -0.3031   -0.7474   -0.3248 C   0  0  1  0  0  0  0  0  0  0  0  0
    0.3854   -1.5681   -0.5514 H   0  0  0  0  0  0  0  0  0  0  0  0
   -0.2379    0.2771   -1.4835 C   0  0  0  0  0  0  0  0  0  0  0  0
   -1.2039    0.2946   -1.9968 H   0  0  0  0  0  0  0  0  0  0  0  0
   -0.0668    1.2855   -1.0883 H   0  0  0  0  0  0  0  0  0  0  0  0
    0.8424   -0.0471   -2.4966 C   0  0  0  0  0  0  0  0  0  0  0  0
    0.8201    0.2514   -3.8617 N   0  3  0  0  0  0  0  0  0  0  0  0
    0.0233    0.6968   -4.3237 H   0  0  0  0  0  0  0  0  0  0  0  0
    1.9508   -0.1002   -4.4272 C   0  0  0  0  0  0  0  0  0  0  0  0
    2.2142    0.0148   -5.4806 H   0  0  0  0  0  0  0  0  0  0  0  0
    2.7621   -0.6370   -3.4310 N   0  0  0  0  0  0  0  0  0  0  0  0
    3.7202   -0.9798   -3.5547 H   0  0  0  0  0  0  0  0  0  0  0  0
    2.0790   -0.5867   -2.2239 C   0  0  0  0  0  0  0  0  0  0  0  0
    2.4564   -0.8793   -1.2398 H   0  0  0  0  0  0  0  0  0  0  0  0
    0.2656   -0.1389    0.9703 C   0  0  0  0  0  0  0  0  0  0  0  0
    1.4834   -0.0492    1.0560 O   0  0  0  0  0  0  0  0  0  0  0  0
   -0.5347    0.6112    1.8117 N   0  0  0  0  0  0  0  0  0  0  0  0
   -1.5350    0.4435    1.7577 H   0  0  0  0  0  0  0  0  0  0  0  0
   -0.0100    1.2792    2.9998 C   0  0  0  0  0  0  0  0  0  0  0  0
    0.7525    2.0154    2.7231 H   0  0  0  0  0  0  0  0  0  0  0  0
   -0.8131    1.8010    3.5298 H   0  0  0  0  0  0  0  0  0  0  0  0
    0.4393    0.5502    3.6833 H   0  0  0  0  0  0  0  0  0  0  0  0
  1  2  1  0  0  0  0
  2  3  1  0  0  0  0
  2  4  1  0  0  0  0
  2  5  1  0  0  0  0
  5  6  2  0  0  0  0
  5  7  1  0  0  0  0
  7  8  1  0  0  0  0
  7  9  1  0  0  0  0
  9 10  1  0  0  0  0
  9 11  1  0  0  0  0
  9 23  1  0  0  0  0
 11 12  1  0  0  0  0
 11 13  1  0  0  0  0
 11 14  1  0  0  0  0
 14 15  1  0  0  0  0
 14 21  2  0  0  0  0
 15 16  1  0  0  0  0
 15 17  2  0  0  0  0
 17 18  1  0  0  0  0
 17 19  1  0  0  0  0
 19 20  1  0  0  0  0
 19 21  1  0  0  0  0
 21 22  1  0  0  0  0
 23 24  2  0  0  0  0
 23 25  1  0  0  0  0
 25 26  1  0  0  0  0
 25 27  1  0  0  0  0
 27 28  1  0  0  0  0
 27 29  1  0  0  0  0
 27 30  1  0  0  0  0
M  CHG  1  15   1
M  END
$$$$

  -OEChem-04042216003D

 30 30  0     1  0  0  0  0  0999 V2000
   -3.2854   -3.9232    1.3980 H   0  0  0  0  0  0  0  0  0  0  0  0
   -3.2810   -3.0777    0.7038 C   0  0  0  0  0  0  0  0  0  0  0  0
   -3.9744   -2.3185    1.0729 H   0  0  0  0  0  0  0  0  0  0  0  0
   -3.6187   -3.4279   -0.2745 H   0  0  0  0  0  0  0  0  0  0  0  0
   -1.8823   -2.5011    0.5978 C   0  0  0  0  0  0  0  0  0  0  0  0
   -0.9668   -2.9895    1.2348 O   0  0  0  0  0  0  0  0  0  0  0  0
   -1.6280   -1.4209   -0.2285 N   0  0  0  0  0  0  0  0  0  0  0  0
   -2.4273   -1.0096   -0.7031 H   0  0  0  0  0  0  0  0  0  0  0  0
   -0.3073   -0.7635   -0.3120 C   0  0  1  0  0  0  0  0  0  0  0  0
    0.3719   -1.5945   -0.5175 H   0  0  0  0  0  0  0  0  0  0  0  0
   -0.2275    0.2426   -1.4869 C   0  0  0  0  0  0  0  0  0  0  0  0
   -1.1902    0.2526   -2.0064 H   0  0  0  0  0  0  0  0  0  0  0  0
   -0.0633    1.2551   -1.0989 H   0  0  0  0  0  0  0  0  0  0  0  0
    0.8543   -0.0755   -2.5043 C   0  0  0  0  0  0  0  0  0  0  0  0
    0.9423    0.4804   -3.7841 N   0  3  0  0  0  0  0  0  0  0  0  0
    0.2389    1.1192   -4.1639 H   0  0  0  0  0  0  0  0  0  0  0  0
    2.0398    0.0875   -4.3858 C   0  0  0  0  0  0  0  0  0  0  0  0
    2.3677    0.3666   -5.3892 H   0  0  0  0  0  0  0  0  0  0  0  0
    2.7215   -0.7405   -3.4992 N   0  0  0  0  0  0  0  0  0  0  0  0
    3.6344   -1.1761   -3.6648 H   0  0  0  0  0  0  0  0  0  0  0  0
    1.9962   -0.8239   -2.3189 C   0  0  0  0  0  0  0  0  0  0  0  0
    2.3009   -1.3369   -1.4037 H   0  0  0  0  0  0  0  0  0  0  0  0
    0.2598   -0.1455    0.9790 C   0  0  0  0  0  0  0  0  0  0  0  0
    1.4778   -0.0677    1.0693 O   0  0  0  0  0  0  0  0  0  0  0  0
   -0.5381    0.6183    1.8108 N   0  0  0  0  0  0  0  0  0  0  0  0
   -1.5390    0.4536    1.7568 H   0  0  0  0  0  0  0  0  0  0  0  0
   -0.0127    1.2884    2.9977 C   0  0  0  0  0  0  0  0  0  0  0  0
    0.7749    1.9989    2.7239 H   0  0  0  0  0  0  0  0  0  0  0  0
   -0.8083    1.8408    3.5077 H   0  0  0  0  0  0  0  0  0  0  0  0
    0.4049    0.5569    3.6983 H   0  0  0  0  0  0  0  0  0  0  0  0
  1  2  1  0  0  0  0
  2  3  1  0  0  0  0
  2  4  1  0  0  0  0
  2  5  1  0  0  0  0
  5  6  2  0  0  0  0
  5  7  1  0  0  0  0
  7  8  1  0  0  0  0
  7  9  1  0  0  0  0
  9 10  1  0  0  0  0
  9 11  1  0  0  0  0
  9 23  1  0  0  0  0
 11 12  1  0  0  0  0
 11 13  1  0  0  0  0
 11 14  1  0  0  0  0
 14 15  1  0  0  0  0
 14 21  2  0  0  0  0
 15 16  1  0  0  0  0
 15 17  2  0  0  0  0
 17 18  1  0  0  0  0
 17 19  1  0  0  0  0
 19 20  1  0  0  0  0
 19 21  1  0  0  0  0
 21 22  1  0  0  0  0
 23 24  2  0  0  0  0
 23 25  1  0  0  0  0
 25 26  1  0  0  0  0
 25 27  1  0  0  0  0
 27 28  1  0  0  0  0
 27 29  1  0  0  0  0
 27 30  1  0  0  0  0
M  CHG  1  15   1
M  END
$$$$

  -OEChem-04042216003D

 30 30  0     1  0  0  0  0  0999 V2000
   -3.2876   -3.8489    1.4964 H   0  0  0  0  0  0  0  0  0  0  0  0
   -3.2542   -3.0224    0.7801 C   0  0  0  0  0  0  0  0  0  0  0  0
   -3.9246   -2.2326    1.1266 H   0  0  0  0  0  0  0  0  0  0  0  0
   -3.5996   -3.3870   -0.1902 H   0  0  0  0  0  0  0  0  0  0  0  0
   -1.8375   -2.4934    0.6647 C   0  0  0  0  0  0  0  0  0  0  0  0
   -0.9408   -2.9921    1.3193 O   0  0  0  0  0  0  0  0  0  0  0  0
   -1.5420   -1.4582   -0.2045 N   0  0  0  0  0  0  0  0  0  0  0  0
   -2.3234   -1.0510   -0.7112 H   0  0  0  0  0  0  0  0  0  0  0  0
   -0.2106   -0.8192   -0.2756 C   0  0  1  0  0  0  0  0  0  0  0  0
    0.5204   -1.6157   -0.4304 H   0  0  0  0  0  0  0  0  0  0  0  0
   -0.1378    0.2053   -1.4347 C   0  0  0  0  0  0  0  0  0  0  0  0
   -1.1516    0.4811   -1.7402 H   0  0  0  0  0  0  0  0  0  0  0  0
    0.3424    1.1210   -1.0685 H   0  0  0  0  0  0  0  0  0  0  0  0
    0.6447   -0.2547   -2.6527 C   0  0  0  0  0  0  0  0  0  0  0  0
    0.8198    0.5322   -3.7950 N   0  3  0  0  0  0  0  0  0  0  0  0
    0.4517    1.4838   -3.8762 H   0  0  0  0  0  0  0  0  0  0  0  0
    1.5532   -0.0936   -4.6834 C   0  0  0  0  0  0  0  0  0  0  0  0
    1.8652    0.2916   -5.6564 H   0  0  0  0  0  0  0  0  0  0  0  0
    1.8713   -1.3381   -4.1492 N   0  0  0  0  0  0  0  0  0  0  0  0
    2.4507   -2.0533   -4.6002 H   0  0  0  0  0  0  0  0  0  0  0  0
    1.3076   -1.4408   -2.8840 C   0  0  0  0  0  0  0  0  0  0  0  0
    1.3928   -2.2937   -2.2098 H   0  0  0  0  0  0  0  0  0  0  0  0
    0.2567   -0.1626    1.0401 C   0  0  0  0  0  0  0  0  0  0  0  0
    1.4600   -0.0704    1.2336 O   0  0  0  0  0  0  0  0  0  0  0  0
   -0.6087    0.6216    1.7817 N   0  0  0  0  0  0  0  0  0  0  0  0
   -1.6009    0.4517    1.6491 H   0  0  0  0  0  0  0  0  0  0  0  0
   -0.1853    1.3161    2.9950 C   0  0  0  0  0  0  0  0  0  0  0  0
    0.6335    2.0108    2.7774 H   0  0  0  0  0  0  0  0  0  0  0  0
   -1.0170    1.8893    3.4165 H   0  0  0  0  0  0  0  0  0  0  0  0
    0.1573    0.5974    3.7476 H   0  0  0  0  0  0  0  0  0  0  0  0
  1  2  1  0  0  0  0
  2  3  1  0  0  0  0
  2  4  1  0  0  0  0
  2  5  1  0  0  0  0
  5  6  2  0  0  0  0
  5  7  1  0  0  0  0
  7  8  1  0  0  0  0
  7  9  1  0  0  0  0
  9 10  1  0  0  0  0
  9 11  1  0  0  0  0
  9 23  1  0  0  0  0
 11 12  1  0  0  0  0
 11 13  1  0  0  0  0
 11 14  1  0  0  0  0
 14 15  1  0  0  0  0
 14 21  2  0  0  0  0
 15 16  1  0  0  0  0
 15 17  2  0  0  0  0
 17 18  1  0  0  0  0
 17 19  1  0  0  0  0
 19 20  1  0  0  0  0
 19 21  1  0  0  0  0
 21 22  1  0  0  0  0
 23 24  2  0  0  0  0
 23 25  1  0  0  0  0
 25 26  1  0  0  0  0
 25 27  1  0  0  0  0
 27 28  1  0  0  0  0
 27 29  1  0  0  0  0
 27 30  1  0  0  0  0
M  CHG  1  15   1
M  END
$$$$

  -OEChem-04042216003D

 30 30  0     1  0  0  0  0  0999 V2000
   -3.2684   -3.8468    1.5020 H   0  0  0  0  0  0  0  0  0  0  0  0
   -3.2455   -3.0154    0.7911 C   0  0  0  0  0  0  0  0  0  0  0  0
   -3.8937   -2.2192    1.1643 H   0  0  0  0  0  0  0  0  0  0  0  0
   -3.6257   -3.3674   -0.1708 H   0  0  0  0  0  0  0  0  0  0  0  0
   -1.8260   -2.5052    0.6361 C   0  0  0  0  0  0  0  0  0  0  0  0
   -0.9145   -3.0304    1.2479 O   0  0  0  0  0  0  0  0  0  0  0  0
   -1.5441   -1.4587   -0.2240 N   0  0  0  0  0  0  0  0  0  0  0  0
   -2.3395   -1.0173   -0.6777 H   0  0  0  0  0  0  0  0  0  0  0  0
   -0.2158   -0.8131   -0.2943 C   0  0  1  0  0  0  0  0  0  0  0  0
    0.5247   -1.6003   -0.4640 H   0  0  0  0  0  0  0  0  0  0  0  0
   -0.1537    0.2245   -1.4412 C   0  0  0  0  0  0  0  0  0  0  0  0
   -1.1657    0.5105   -1.7441 H   0  0  0  0  0  0  0  0  0  0  0  0
    0.3338    1.1325   -1.0662 H   0  0  0  0  0  0  0  0  0  0  0  0
    0.6277   -0.2391   -2.6561 C   0  0  0  0  0  0  0  0  0  0  0  0
    1.0725    0.6133   -3.6704 N   0  3  0  0  0  0  0  0  0  0  0  0
    0.9288    1.6266   -3.6486 H   0  0  0  0  0  0  0  0  0  0  0  0
    1.7401   -0.0568   -4.5786 C   0  0  0  0  0  0  0  0  0  0  0  0
    2.2226    0.3560   -5.4669 H   0  0  0  0  0  0  0  0  0  0  0  0
    1.7315   -1.3936   -4.1918 N   0  0  0  0  0  0  0  0  0  0  0  0
    2.1871   -2.1645   -4.6906 H   0  0  0  0  0  0  0  0  0  0  0  0
    1.0378   -1.5095   -2.9940 C   0  0  0  0  0  0  0  0  0  0  0  0
    0.8625   -2.4272   -2.4308 H   0  0  0  0  0  0  0  0  0  0  0  0
    0.2547   -0.1697    1.0272 C   0  0  0  0  0  0  0  0  0  0  0  0
    1.4581   -0.0661    1.2126 O   0  0  0  0  0  0  0  0  0  0  0  0
   -0.6112    0.6020    1.7817 N   0  0  0  0  0  0  0  0  0  0  0  0
   -1.6039    0.4335    1.6520 H   0  0  0  0  0  0  0  0  0  0  0  0
   -0.1824    1.3065    2.9875 C   0  0  0  0  0  0  0  0  0  0  0  0
    0.6156    2.0199    2.7544 H   0  0  0  0  0  0  0  0  0  0  0  0
   -1.0195    1.8606    3.4237 H   0  0  0  0  0  0  0  0  0  0  0  0
    0.1907    0.5968    3.7341 H   0  0  0  0  0  0  0  0  0  0  0  0
  1  2  1  0  0  0  0
  2  3  1  0  0  0  0
  2  4  1  0  0  0  0
  2  5  1  0  0  0  0
  5  6  2  0  0  0  0
  5  7  1  0  0  0  0
  7  8  1  0  0  0  0
  7  9  1  0  0  0  0
  9 10  1  0  0  0  0
  9 11  1  0  0  0  0
  9 23  1  0  0  0  0
 11 12  1  0  0  0  0
 11 13  1  0  0  0  0
 11 14  1  0  0  0  0
 14 15  1  0  0  0  0
 14 21  2  0  0  0  0
 15 16  1  0  0  0  0
 15 17  2  0  0  0  0
 17 18  1  0  0  0  0
 17 19  1  0  0  0  0
 19 20  1  0  0  0  0
 19 21  1  0  0  0  0
 21 22  1  0  0  0  0
 23 24  2  0  0  0  0
 23 25  1  0  0  0  0
 25 26  1  0  0  0  0
 25 27  1  0  0  0  0
 27 28  1  0  0  0  0
 27 29  1  0  0  0  0
 27 30  1  0  0  0  0
M  CHG  1  15   1
M  END
$$$$

  -OEChem-04042216003D

 30 30  0     1  0  0  0  0  0999 V2000
   -3.2435   -3.8583    1.4776 H   0  0  0  0  0  0  0  0  0  0  0  0
   -3.2344   -3.0133    0.7826 C   0  0  0  0  0  0  0  0  0  0  0  0
   -3.8677   -2.2211    1.1885 H   0  0  0  0  0  0  0  0  0  0  0  0
   -3.6423   -3.3442   -0.1754 H   0  0  0  0  0  0  0  0  0  0  0  0
   -1.8164   -2.5078    0.5996 C   0  0  0  0  0  0  0  0  0  0  0  0
   -0.8918   -3.0501    1.1757 O   0  0  0  0  0  0  0  0  0  0  0  0
   -1.5515   -1.4456   -0.2464 N   0  0  0  0  0  0  0  0  0  0  0  0
   -2.3589   -0.9812   -0.6540 H   0  0  0  0  0  0  0  0  0  0  0  0
   -0.2282   -0.7899   -0.3175 C   0  0  1  0  0  0  0  0  0  0  0  0
    0.5160   -1.5704   -0.5107 H   0  0  0  0  0  0  0  0  0  0  0  0
   -0.1793    0.2591   -1.4527 C   0  0  0  0  0  0  0  0  0  0  0  0
   -1.1913    0.5436   -1.7569 H   0  0  0  0  0  0  0  0  0  0  0  0
    0.3050    1.1672   -1.0739 H   0  0  0  0  0  0  0  0  0  0  0  0
    0.6039   -0.2140   -2.6598 C   0  0  0  0  0  0  0  0  0  0  0  0
    1.3134    0.6201   -3.5272 N   0  3  0  0  0  0  0  0  0  0  0  0
    1.3827    1.6328   -3.3934 H   0  0  0  0  0  0  0  0  0  0  0  0
    1.9169   -0.0859   -4.4527 C   0  0  0  0  0  0  0  0  0  0  0  0
    2.5608    0.2996   -5.2457 H   0  0  0  0  0  0  0  0  0  0  0  0
    1.5965   -1.4219   -4.2265 N   0  0  0  0  0  0  0  0  0  0  0  0
    1.9336   -2.2194   -4.7750 H   0  0  0  0  0  0  0  0  0  0  0  0
    0.7799   -1.5035   -3.1056 C   0  0  0  0  0  0  0  0  0  0  0  0
    0.3690   -2.4089   -2.6561 H   0  0  0  0  0  0  0  0  0  0  0  0
    0.2540   -0.1635    1.0076 C   0  0  0  0  0  0  0  0  0  0  0  0
    1.4589   -0.0457    1.1748 O   0  0  0  0  0  0  0  0  0  0  0  0
   -0.6076    0.5916    1.7835 N   0  0  0  0  0  0  0  0  0  0  0  0
   -1.6008    0.4181    1.6647 H   0  0  0  0  0  0  0  0  0  0  0  0
   -0.1679    1.2836    2.9927 C   0  0  0  0  0  0  0  0  0  0  0  0
    0.6173    2.0103    2.7577 H   0  0  0  0  0  0  0  0  0  0  0  0
   -1.0043    1.8202    3.4512 H   0  0  0  0  0  0  0  0  0  0  0  0
    0.2259    0.5675    3.7224 H   0  0  0  0  0  0  0  0  0  0  0  0
  1  2  1  0  0  0  0
  2  3  1  0  0  0  0
  2  4  1  0  0  0  0
  2  5  1  0  0  0  0
  5  6  2  0  0  0  0
  5  7  1  0  0  0  0
  7  8  1  0  0  0  0
  7  9  1  0  0  0  0
  9 10  1  0  0  0  0
  9 11  1  0  0  0  0
  9 23  1  0  0  0  0
 11 12  1  0  0  0  0
 11 13  1  0  0  0  0
 11 14  1  0  0  0  0
 14 15  1  0  0  0  0
 14 21  2  0  0  0  0
 15 16  1  0  0  0  0
 15 17  2  0  0  0  0
 17 18  1  0  0  0  0
 17 19  1  0  0  0  0
 19 20  1  0  0  0  0
 19 21  1  0  0  0  0
 21 22  1  0  0  0  0
 23 24  2  0  0  0  0
 23 25  1  0  0  0  0
 25 26  1  0  0  0  0
 25 27  1  0  0  0  0
 27 28  1  0  0  0  0
 27 29  1  0  0  0  0
 27 30  1  0  0  0  0
M  CHG  1  15   1
M  END
$$$$

  -OEChem-04042216003D

 30 30  0     1  0  0  0  0  0999 V2000
   -3.2216   -3.8753    1.4455 H   0  0  0  0  0  0  0  0  0  0  0  0
   -3.2269   -3.0202    0.7627 C   0  0  0  0  0  0  0  0  0  0  0  0
   -3.8528   -2.2348    1.1926 H   0  0  0  0  0  0  0  0  0  0  0  0
   -3.6539   -3.3376   -0.1915 H   0  0  0  0  0  0  0  0  0  0  0  0
   -1.8128   -2.5105    0.5596 C   0  0  0  0  0  0  0  0  0  0  0  0
   -0.8774   -3.0602    1.1104 O   0  0  0  0  0  0  0  0  0  0  0  0
   -1.5650   -1.4302   -0.2689 N   0  0  0  0  0  0  0  0  0  0  0  0
   -2.3821   -0.9520   -0.6402 H   0  0  0  0  0  0  0  0  0  0  0  0
   -0.2463   -0.7641   -0.3386 C   0  0  1  0  0  0  0  0  0  0  0  0
    0.4969   -1.5404   -0.5571 H   0  0  0  0  0  0  0  0  0  0  0  0
   -0.2063    0.2963   -1.4616 C   0  0  0  0  0  0  0  0  0  0  0  0
   -1.2198    0.5709   -1.7706 H   0  0  0  0  0  0  0  0  0  0  0  0
    0.2668    1.2084   -1.0793 H   0  0  0  0  0  0  0  0  0  0  0  0
    0.5825   -0.1849   -2.6591 C   0  0  0  0  0  0  0  0  0  0  0  0
    1.5317    0.5639   -3.3586 N   0  3  0  0  0  0  0  0  0  0  0  0
    1.7914    1.5190   -3.0962 H   0  0  0  0  0  0  0  0  0  0  0  0
    2.0761   -0.1595   -4.3073 C   0  0  0  0  0  0  0  0  0  0  0  0
    2.8655    0.1576   -4.9920 H   0  0  0  0  0  0  0  0  0  0  0  0
    1.4731   -1.4145   -4.2665 N   0  0  0  0  0  0  0  0  0  0  0  0
    1.7052   -2.2088   -4.8710 H   0  0  0  0  0  0  0  0  0  0  0  0
    0.5447   -1.4333   -3.2325 C   0  0  0  0  0  0  0  0  0  0  0  0
   -0.0764   -2.2725   -2.9164 H   0  0  0  0  0  0  0  0  0  0  0  0
    0.2537   -0.1566    0.9884 C   0  0  0  0  0  0  0  0  0  0  0  0
    1.4608   -0.0268    1.1320 O   0  0  0  0  0  0  0  0  0  0  0  0
   -0.5986    0.5819    1.7900 N   0  0  0  0  0  0  0  0  0  0  0  0
   -1.5925    0.4013    1.6893 H   0  0  0  0  0  0  0  0  0  0  0  0
   -0.1411    1.2689    2.9956 C   0  0  0  0  0  0  0  0  0  0  0  0
    0.6322    2.0052    2.7508 H   0  0  0  0  0  0  0  0  0  0  0  0
   -0.9733    1.7940    3.4748 H   0  0  0  0  0  0  0  0  0  0  0  0
    0.2745    0.5516    3.7117 H   0  0  0  0  0  0  0  0  0  0  0  0
  1  2  1  0  0  0  0
  2  3  1  0  0  0  0
  2  4  1  0  0  0  0
  2  5  1  0  0  0  0
  5  6  2  0  0  0  0
  5  7  1  0  0  0  0
  7  8  1  0  0  0  0
  7  9  1  0  0  0  0
  9 10  1  0  0  0  0
  9 11  1  0  0  0  0
  9 23  1  0  0  0  0
 11 12  1  0  0  0  0
 11 13  1  0  0  0  0
 11 14  1  0  0  0  0
 14 15  1  0  0  0  0
 14 21  2  0  0  0  0
 15 16  1  0  0  0  0
 15 17  2  0  0  0  0
 17 18  1  0  0  0  0
 17 19  1  0  0  0  0
 19 20  1  0  0  0  0
 19 21  1  0  0  0  0
 21 22  1  0  0  0  0
 23 24  2  0  0  0  0
 23 25  1  0  0  0  0
 25 26  1  0  0  0  0
 25 27  1  0  0  0  0
 27 28  1  0  0  0  0
 27 29  1  0  0  0  0
 27 30  1  0  0  0  0
M  CHG  1  15   1
M  END
$$$$

  -OEChem-04042216003D

 30 30  0     1  0  0  0  0  0999 V2000
   -3.2011   -3.8984    1.4072 H   0  0  0  0  0  0  0  0  0  0  0  0
   -3.2161   -3.0346    0.7357 C   0  0  0  0  0  0  0  0  0  0  0  0
   -3.8489   -2.2609    1.1767 H   0  0  0  0  0  0  0  0  0  0  0  0
   -3.6412   -3.3441   -0.2220 H   0  0  0  0  0  0  0  0  0  0  0  0
   -1.8077   -2.5083    0.5362 C   0  0  0  0  0  0  0  0  0  0  0  0
   -0.8658   -3.0538    1.0804 O   0  0  0  0  0  0  0  0  0  0  0  0
   -1.5748   -1.4153   -0.2796 N   0  0  0  0  0  0  0  0  0  0  0  0
   -2.3989   -0.9355   -0.6326 H   0  0  0  0  0  0  0  0  0  0  0  0
   -0.2615   -0.7393   -0.3508 C   0  0  1  0  0  0  0  0  0  0  0  0
    0.4786   -1.5145   -0.5871 H   0  0  0  0  0  0  0  0  0  0  0  0
   -0.2238    0.3265   -1.4660 C   0  0  0  0  0  0  0  0  0  0  0  0
   -1.2382    0.5862   -1.7845 H   0  0  0  0  0  0  0  0  0  0  0  0
    0.2355    1.2476   -1.0881 H   0  0  0  0  0  0  0  0  0  0  0  0
    0.5732   -0.1702   -2.6476 C   0  0  0  0  0  0  0  0  0  0  0  0
    1.7225    0.4338   -3.1603 N   0  3  0  0  0  0  0  0  0  0  0  0
    2.1495    1.2651   -2.7408 H   0  0  0  0  0  0  0  0  0  0  0  0
    2.2038   -0.2747   -4.1527 C   0  0  0  0  0  0  0  0  0  0  0  0
    3.1114   -0.0600   -4.7208 H   0  0  0  0  0  0  0  0  0  0  0  0
    1.3538   -1.3640   -4.3328 N   0  0  0  0  0  0  0  0  0  0  0  0
    1.4797   -2.1114   -5.0227 H   0  0  0  0  0  0  0  0  0  0  0  0
    0.3378   -1.3036   -3.3858 C   0  0  0  0  0  0  0  0  0  0  0  0
   -0.4710   -2.0190   -3.2339 H   0  0  0  0  0  0  0  0  0  0  0  0
    0.2554   -0.1427    0.9739 C   0  0  0  0  0  0  0  0  0  0  0  0
    1.4639    0.0050    1.0898 O   0  0  0  0  0  0  0  0  0  0  0  0
   -0.5883    0.5830    1.7958 N   0  0  0  0  0  0  0  0  0  0  0  0
   -1.5818    0.3904    1.7146 H   0  0  0  0  0  0  0  0  0  0  0  0
   -0.1147    1.2649    2.9980 C   0  0  0  0  0  0  0  0  0  0  0  0
    0.6522    2.0052    2.7454 H   0  0  0  0  0  0  0  0  0  0  0  0
   -0.9413    1.7846    3.4925 H   0  0  0  0  0  0  0  0  0  0  0  0
    0.3135    0.5449    3.7040 H   0  0  0  0  0  0  0  0  0  0  0  0
  1  2  1  0  0  0  0
  2  3  1  0  0  0  0
  2  4  1  0  0  0  0
  2  5  1  0  0  0  0
  5  6  2  0  0  0  0
  5  7  1  0  0  0  0
  7  8  1  0  0  0  0
  7  9  1  0  0  0  0
  9 10  1  0  0  0  0
  9 11  1  0  0  0  0
  9 23  1  0  0  0  0
 11 12  1  0  0  0  0
 11 13  1  0  0  0  0
 11 14  1  0  0  0  0
 14 15  1  0  0  0  0
 14 21  2  0  0  0  0
 15 16  1  0  0  0  0
 15 17  2  0  0  0  0
 17 18  1  0  0  0  0
 17 19  1  0  0  0  0
 19 20  1  0  0  0  0
 19 21  1  0  0  0  0
 21 22  1  0  0  0  0
 23 24  2  0  0  0  0
 23 25  1  0  0  0  0
 25 26  1  0  0  0  0
 25 27  1  0  0  0  0
 27 28  1  0  0  0  0
 27 29  1  0  0  0  0
 27 30  1  0  0  0  0
M  CHG  1  15   1
M  END
$$$$

  -OEChem-04042216003D

 30 30  0     1  0  0  0  0  0999 V2000
   -3.1930   -3.9191    1.3927 H   0  0  0  0  0  0  0  0  0  0  0  0
   -3.2133   -3.0581    0.7177 C   0  0  0  0  0  0  0  0  0  0  0  0
   -3.8687   -2.2952    1.1443 H   0  0  0  0  0  0  0  0  0  0  0  0
   -3.6155   -3.3793   -0.2460 H   0  0  0  0  0  0  0  0  0  0  0  0
   -1.8123   -2.5053    0.5401 C   0  0  0  0  0  0  0  0  0  0  0  0
   -0.8697   -3.0307    1.1028 O   0  0  0  0  0  0  0  0  0  0  0  0
   -1.5876   -1.4080   -0.2721 N   0  0  0  0  0  0  0  0  0  0  0  0
   -2.4131   -0.9421   -0.6397 H   0  0  0  0  0  0  0  0  0  0  0  0
   -0.2775   -0.7276   -0.3490 C   0  0  1  0  0  0  0  0  0  0  0  0
    0.4560   -1.5077   -0.5902 H   0  0  0  0  0  0  0  0  0  0  0  0
   -0.2321    0.3348   -1.4654 C   0  0  0  0  0  0  0  0  0  0  0  0
   -1.2468    0.5800   -1.7940 H   0  0  0  0  0  0  0  0  0  0  0  0
    0.2156    1.2660   -1.0981 H   0  0  0  0  0  0  0  0  0  0  0  0
    0.5730   -0.1833   -2.6302 C   0  0  0  0  0  0  0  0  0  0  0  0
    1.8704    0.2215   -2.9465 N   0  3  0  0  0  0  0  0  0  0  0  0
    2.4128    0.8601   -2.3557 H   0  0  0  0  0  0  0  0  0  0  0  0
    2.3004   -0.4224   -4.0043 C   0  0  0  0  0  0  0  0  0  0  0  0
    3.2904   -0.3353   -4.4567 H   0  0  0  0  0  0  0  0  0  0  0  0
    1.2646   -1.2513   -4.4320 N   0  0  0  0  0  0  0  0  0  0  0  0
    1.3034   -1.8891   -5.2334 H   0  0  0  0  0  0  0  0  0  0  0  0
    0.1829   -1.1032   -3.5706 C   0  0  0  0  0  0  0  0  0  0  0  0
   -0.7761   -1.6190   -3.6162 H   0  0  0  0  0  0  0  0  0  0  0  0
    0.2571   -0.1314    0.9679 C   0  0  0  0  0  0  0  0  0  0  0  0
    1.4670    0.0305    1.0550 O   0  0  0  0  0  0  0  0  0  0  0  0
   -0.5756    0.5923    1.8023 N   0  0  0  0  0  0  0  0  0  0  0  0
   -1.5687    0.3891    1.7423 H   0  0  0  0  0  0  0  0  0  0  0  0
   -0.0847    1.2786    2.9948 C   0  0  0  0  0  0  0  0  0  0  0  0
    0.6428    2.0510    2.7232 H   0  0  0  0  0  0  0  0  0  0  0  0
   -0.9120    1.7590    3.5266 H   0  0  0  0  0  0  0  0  0  0  0  0
    0.3977    0.5682    3.6752 H   0  0  0  0  0  0  0  0  0  0  0  0
  1  2  1  0  0  0  0
  2  3  1  0  0  0  0
  2  4  1  0  0  0  0
  2  5  1  0  0  0  0
  5  6  2  0  0  0  0
  5  7  1  0  0  0  0
  7  8  1  0  0  0  0
  7  9  1  0  0  0  0
  9 10  1  0  0  0  0
  9 11  1  0  0  0  0
  9 23  1  0  0  0  0
 11 12  1  0  0  0  0
 11 13  1  0  0  0  0
 11 14  1  0  0  0  0
 14 15  1  0  0  0  0
 14 21  2  0  0  0  0
 15 16  1  0  0  0  0
 15 17  2  0  0  0  0
 17 18  1  0  0  0  0
 17 19  1  0  0  0  0
 19 20  1  0  0  0  0
 19 21  1  0  0  0  0
 21 22  1  0  0  0  0
 23 24  2  0  0  0  0
 23 25  1  0  0  0  0
 25 26  1  0  0  0  0
 25 27  1  0  0  0  0
 27 28  1  0  0  0  0
 27 29  1  0  0  0  0
 27 30  1  0  0  0  0
M  CHG  1  15   1
M  END
$$$$

  -OEChem-04042216003D

 30 30  0     1  0  0  0  0  0999 V2000
   -3.1890   -3.9564    1.3716 H   0  0  0  0  0  0  0  0  0  0  0  0
   -3.2209   -3.0870    0.7082 C   0  0  0  0  0  0  0  0  0  0  0  0
   -3.8910   -2.3409    1.1417 H   0  0  0  0  0  0  0  0  0  0  0  0
   -3.6131   -3.4023   -0.2616 H   0  0  0  0  0  0  0  0  0  0  0  0
   -1.8284   -2.5089    0.5448 C   0  0  0  0  0  0  0  0  0  0  0  0
   -0.8817   -3.0177    1.1164 O   0  0  0  0  0  0  0  0  0  0  0  0
   -1.6154   -1.4052   -0.2619 N   0  0  0  0  0  0  0  0  0  0  0  0
   -2.4430   -0.9562   -0.6454 H   0  0  0  0  0  0  0  0  0  0  0  0
   -0.3089   -0.7208   -0.3505 C   0  0  1  0  0  0  0  0  0  0  0  0
    0.4137   -1.5088   -0.5987 H   0  0  0  0  0  0  0  0  0  0  0  0
   -0.2618    0.3362   -1.4714 C   0  0  0  0  0  0  0  0  0  0  0  0
   -1.2773    0.5737   -1.8031 H   0  0  0  0  0  0  0  0  0  0  0  0
    0.1825    1.2733   -1.1146 H   0  0  0  0  0  0  0  0  0  0  0  0
    0.5456   -0.1966   -2.6255 C   0  0  0  0  0  0  0  0  0  0  0  0
    1.9242   -0.0206   -2.7478 N   0  3  0  0  0  0  0  0  0  0  0  0
    2.4963    0.4040   -2.0089 H   0  0  0  0  0  0  0  0  0  0  0  0
    2.3542   -0.5764   -3.8541 C   0  0  0  0  0  0  0  0  0  0  0  0
    3.3916   -0.6262   -4.1915 H   0  0  0  0  0  0  0  0  0  0  0  0
    1.2419   -1.1035   -4.5091 N   0  0  0  0  0  0  0  0  0  0  0  0
    1.2591   -1.6031   -5.4037 H   0  0  0  0  0  0  0  0  0  0  0  0
    0.1069   -0.8633   -3.7410 C   0  0  0  0  0  0  0  0  0  0  0  0
   -0.9204   -1.1474   -3.9691 H   0  0  0  0  0  0  0  0  0  0  0  0
    0.2592   -0.1254    0.9511 C   0  0  0  0  0  0  0  0  0  0  0  0
    1.4723    0.0380    0.9960 O   0  0  0  0  0  0  0  0  0  0  0  0
   -0.5498    0.5984    1.8076 N   0  0  0  0  0  0  0  0  0  0  0  0
   -1.5442    0.3942    1.7750 H   0  0  0  0  0  0  0  0  0  0  0  0
   -0.0270    1.2880    2.9844 C   0  0  0  0  0  0  0  0  0  0  0  0
    0.7216    2.0339    2.6953 H   0  0  0  0  0  0  0  0  0  0  0  0
   -0.8348    1.8027    3.5143 H   0  0  0  0  0  0  0  0  0  0  0  0
    0.4385    0.5735    3.6723 H   0  0  0  0  0  0  0  0  0  0  0  0
  1  2  1  0  0  0  0
  2  3  1  0  0  0  0
  2  4  1  0  0  0  0
  2  5  1  0  0  0  0
  5  6  2  0  0  0  0
  5  7  1  0  0  0  0
  7  8  1  0  0  0  0
  7  9  1  0  0  0  0
  9 10  1  0  0  0  0
  9 11  1  0  0  0  0
  9 23  1  0  0  0  0
 11 12  1  0  0  0  0
 11 13  1  0  0  0  0
 11 14  1  0  0  0  0
 14 15  1  0  0  0  0
 14 21  2  0  0  0  0
 15 16  1  0  0  0  0
 15 17  2  0  0  0  0
 17 18  1  0  0  0  0
 17 19  1  0  0  0  0
 19 20  1  0  0  0  0
 19 21  1  0  0  0  0
 21 22  1  0  0  0  0
 23 24  2  0  0  0  0
 23 25  1  0  0  0  0
 25 26  1  0  0  0  0
 25 27  1  0  0  0  0
 27 28  1  0  0  0  0
 27 29  1  0  0  0  0
 27 30  1  0  0  0  0
M  CHG  1  15   1
M  END
$$$$

  -OEChem-04042216003D

 30 30  0     1  0  0  0  0  0999 V2000
   -3.1900   -3.9781    1.3401 H   0  0  0  0  0  0  0  0  0  0  0  0
   -3.2268   -3.1075    0.6785 C   0  0  0  0  0  0  0  0  0  0  0  0
   -3.9140   -2.3730    1.1047 H   0  0  0  0  0  0  0  0  0  0  0  0
   -3.6010   -3.4261   -0.2972 H   0  0  0  0  0  0  0  0  0  0  0  0
   -1.8421   -2.5064    0.5347 C   0  0  0  0  0  0  0  0  0  0  0  0
   -0.8921   -3.0062    1.1093 O   0  0  0  0  0  0  0  0  0  0  0  0
   -1.6392   -1.3920   -0.2592 N   0  0  0  0  0  0  0  0  0  0  0  0
   -2.4677   -0.9581   -0.6575 H   0  0  0  0  0  0  0  0  0  0  0  0
   -0.3372   -0.7018   -0.3536 C   0  0  1  0  0  0  0  0  0  0  0  0
    0.3765   -1.4952   -0.6087 H   0  0  0  0  0  0  0  0  0  0  0  0
   -0.2944    0.3510   -1.4799 C   0  0  0  0  0  0  0  0  0  0  0  0
   -1.3100    0.5884   -1.8115 H   0  0  0  0  0  0  0  0  0  0  0  0
    0.1534    1.2880   -1.1271 H   0  0  0  0  0  0  0  0  0  0  0  0
    0.5160   -0.1848   -2.6296 C   0  0  0  0  0  0  0  0  0  0  0  0
    1.9087   -0.2658   -2.5975 N   0  3  0  0  0  0  0  0  0  0  0  0
    2.4584   -0.0296   -1.7618 H   0  0  0  0  0  0  0  0  0  0  0  0
    2.3582   -0.7523   -3.7280 C   0  0  0  0  0  0  0  0  0  0  0  0
    3.4032   -0.9500   -3.9756 H   0  0  0  0  0  0  0  0  0  0  0  0
    1.2521   -0.9772   -4.5477 N   0  0  0  0  0  0  0  0  0  0  0  0
    1.2845   -1.3539   -5.5001 H   0  0  0  0  0  0  0  0  0  0  0  0
    0.0960   -0.6178   -3.8612 C   0  0  0  0  0  0  0  0  0  0  0  0
   -0.9318   -0.6680   -4.2207 H   0  0  0  0  0  0  0  0  0  0  0  0
    0.2590   -0.1146    0.9372 C   0  0  0  0  0  0  0  0  0  0  0  0
    1.4752    0.0361    0.9511 O   0  0  0  0  0  0  0  0  0  0  0  0
   -0.5257    0.6031    1.8202 N   0  0  0  0  0  0  0  0  0  0  0  0
   -1.5228    0.4085    1.8066 H   0  0  0  0  0  0  0  0  0  0  0  0
    0.0291    1.2796    2.9897 C   0  0  0  0  0  0  0  0  0  0  0  0
    0.7529    2.0439    2.6868 H   0  0  0  0  0  0  0  0  0  0  0  0
   -0.7665    1.7694    3.5600 H   0  0  0  0  0  0  0  0  0  0  0  0
    0.5328    0.5609    3.6456 H   0  0  0  0  0  0  0  0  0  0  0  0
  1  2  1  0  0  0  0
  2  3  1  0  0  0  0
  2  4  1  0  0  0  0
  2  5  1  0  0  0  0
  5  6  2  0  0  0  0
  5  7  1  0  0  0  0
  7  8  1  0  0  0  0
  7  9  1  0  0  0  0
  9 10  1  0  0  0  0
  9 11  1  0  0  0  0
  9 23  1  0  0  0  0
 11 12  1  0  0  0  0
 11 13  1  0  0  0  0
 11 14  1  0  0  0  0
 14 15  1  0  0  0  0
 14 21  2  0  0  0  0
 15 16  1  0  0  0  0
 15 17  2  0  0  0  0
 17 18  1  0  0  0  0
 17 19  1  0  0  0  0
 19 20  1  0  0  0  0
 19 21  1  0  0  0  0
 21 22  1  0  0  0  0
 23 24  2  0  0  0  0
 23 25  1  0  0  0  0
 25 26  1  0  0  0  0
 25 27  1  0  0  0  0
 27 28  1  0  0  0  0
 27 29  1  0  0  0  0
 27 30  1  0  0  0  0
M  CHG  1  15   1
M  END
$$$$

  -OEChem-04042216003D

 30 30  0     1  0  0  0  0  0999 V2000
   -3.1914   -3.9836    1.3262 H   0  0  0  0  0  0  0  0  0  0  0  0
   -3.2312   -3.1120    0.6662 C   0  0  0  0  0  0  0  0  0  0  0  0
   -3.9196   -2.3801    1.0952 H   0  0  0  0  0  0  0  0  0  0  0  0
   -3.6067   -3.4293   -0.3095 H   0  0  0  0  0  0  0  0  0  0  0  0
   -1.8479   -2.5076    0.5212 C   0  0  0  0  0  0  0  0  0  0  0  0
   -0.8947   -3.0090    1.0895 O   0  0  0  0  0  0  0  0  0  0  0  0
   -1.6497   -1.3855   -0.2631 N   0  0  0  0  0  0  0  0  0  0  0  0
   -2.4794   -0.9544   -0.6625 H   0  0  0  0  0  0  0  0  0  0  0  0
   -0.3505   -0.6894   -0.3520 C   0  0  1  0  0  0  0  0  0  0  0  0
    0.3568   -1.4882   -0.6046 H   0  0  0  0  0  0  0  0  0  0  0  0
   -0.3066    0.3573   -1.4868 C   0  0  0  0  0  0  0  0  0  0  0  0
   -1.3208    0.5958   -1.8215 H   0  0  0  0  0  0  0  0  0  0  0  0
    0.1400    1.2934   -1.1299 H   0  0  0  0  0  0  0  0  0  0  0  0
    0.5139   -0.1644   -2.6382 C   0  0  0  0  0  0  0  0  0  0  0  0
    1.8605   -0.5144   -2.5142 N   0  3  0  0  0  0  0  0  0  0  0  0
    2.3724   -0.4430   -1.6251 H   0  0  0  0  0  0  0  0  0  0  0  0
    2.3283   -0.9286   -3.6656 C   0  0  0  0  0  0  0  0  0  0  0  0
    3.3470   -1.2687   -3.8638 H   0  0  0  0  0  0  0  0  0  0  0  0
    1.2828   -0.8514   -4.5855 N   0  0  0  0  0  0  0  0  0  0  0  0
    1.3424   -1.1062   -5.5763 H   0  0  0  0  0  0  0  0  0  0  0  0
    0.1458   -0.3689   -3.9435 C   0  0  0  0  0  0  0  0  0  0  0  0
   -0.8358   -0.1877   -4.3814 H   0  0  0  0  0  0  0  0  0  0  0  0
    0.2530   -0.1077    0.9368 C   0  0  0  0  0  0  0  0  0  0  0  0
    1.4719    0.0204    0.9475 O   0  0  0  0  0  0  0  0  0  0  0  0
   -0.5209    0.6046    1.8332 N   0  0  0  0  0  0  0  0  0  0  0  0
   -1.5198    0.4191    1.8233 H   0  0  0  0  0  0  0  0  0  0  0  0
    0.0470    1.2649    3.0056 C   0  0  0  0  0  0  0  0  0  0  0  0
    0.7662    2.0342    2.7047 H   0  0  0  0  0  0  0  0  0  0  0  0
   -0.7422    1.7452    3.5927 H   0  0  0  0  0  0  0  0  0  0  0  0
    0.5595    0.5377    3.6451 H   0  0  0  0  0  0  0  0  0  0  0  0
  1  2  1  0  0  0  0
  2  3  1  0  0  0  0
  2  4  1  0  0  0  0
  2  5  1  0  0  0  0
  5  6  2  0  0  0  0
  5  7  1  0  0  0  0
  7  8  1  0  0  0  0
  7  9  1  0  0  0  0
  9 10  1  0  0  0  0
  9 11  1  0  0  0  0
  9 23  1  0  0  0  0
 11 12  1  0  0  0  0
 11 13  1  0  0  0  0
 11 14  1  0  0  0  0
 14 15  1  0  0  0  0
 14 21  2  0  0  0  0
 15 16  1  0  0  0  0
 15 17  2  0  0  0  0
 17 18  1  0  0  0  0
 17 19  1  0  0  0  0
 19 20  1  0  0  0  0
 19 21  1  0  0  0  0
 21 22  1  0  0  0  0
 23 24  2  0  0  0  0
 23 25  1  0  0  0  0
 25 26  1  0  0  0  0
 25 27  1  0  0  0  0
 27 28  1  0  0  0  0
 27 29  1  0  0  0  0
 27 30  1  0  0  0  0
M  CHG  1  15   1
M  END
$$$$

  -OEChem-04042216003D

 30 30  0     1  0  0  0  0  0999 V2000
   -3.2057   -3.9717    1.3223 H   0  0  0  0  0  0  0  0  0  0  0  0
   -3.2324   -3.1004    0.6611 C   0  0  0  0  0  0  0  0  0  0  0  0
   -3.9203   -2.3633    1.0819 H   0  0  0  0  0  0  0  0  0  0  0  0
   -3.5990   -3.4159   -0.3186 H   0  0  0  0  0  0  0  0  0  0  0  0
   -1.8436   -2.5052    0.5312 C   0  0  0  0  0  0  0  0  0  0  0  0
   -0.9002   -3.0104    1.1124 O   0  0  0  0  0  0  0  0  0  0  0  0
   -1.6269   -1.3913   -0.2599 N   0  0  0  0  0  0  0  0  0  0  0  0
   -2.4480   -0.9616   -0.6780 H   0  0  0  0  0  0  0  0  0  0  0  0
   -0.3245   -0.6995   -0.3317 C   0  0  1  0  0  0  0  0  0  0  0  0
    0.3843   -1.5011   -0.5632 H   0  0  0  0  0  0  0  0  0  0  0  0
   -0.2753    0.3390   -1.4762 C   0  0  0  0  0  0  0  0  0  0  0  0
   -1.2883    0.5842   -1.8099 H   0  0  0  0  0  0  0  0  0  0  0  0
    0.1730    1.2716   -1.1124 H   0  0  0  0  0  0  0  0  0  0  0  0
    0.5515   -0.1583   -2.6387 C   0  0  0  0  0  0  0  0  0  0  0  0
    1.8002   -0.7765   -2.5208 N   0  3  0  0  0  0  0  0  0  0  0  0
    2.2806   -0.8887   -1.6193 H   0  0  0  0  0  0  0  0  0  0  0  0
    2.2622   -1.1003   -3.7031 C   0  0  0  0  0  0  0  0  0  0  0  0
    3.2212   -1.5784   -3.9134 H   0  0  0  0  0  0  0  0  0  0  0  0
    1.3048   -0.7105   -4.6382 N   0  0  0  0  0  0  0  0  0  0  0  0
    1.3813   -0.8290   -5.6532 H   0  0  0  0  0  0  0  0  0  0  0  0
    0.2348   -0.1195   -3.9733 C   0  0  0  0  0  0  0  0  0  0  0  0
   -0.6716    0.2938   -4.4160 H   0  0  0  0  0  0  0  0  0  0  0  0
    0.2502   -0.1089    0.9665 C   0  0  0  0  0  0  0  0  0  0  0  0
    1.4699   -0.0128    1.0212 O   0  0  0  0  0  0  0  0  0  0  0  0
   -0.5400    0.6123    1.8413 N   0  0  0  0  0  0  0  0  0  0  0  0
   -1.5417    0.4495    1.7963 H   0  0  0  0  0  0  0  0  0  0  0  0
    0.0024    1.2643    3.0302 C   0  0  0  0  0  0  0  0  0  0  0  0
    0.7578    2.0075    2.7524 H   0  0  0  0  0  0  0  0  0  0  0  0
   -0.7933    1.7754    3.5815 H   0  0  0  0  0  0  0  0  0  0  0  0
    0.4649    0.5265    3.6952 H   0  0  0  0  0  0  0  0  0  0  0  0
  1  2  1  0  0  0  0
  2  3  1  0  0  0  0
  2  4  1  0  0  0  0
  2  5  1  0  0  0  0
  5  6  2  0  0  0  0
  5  7  1  0  0  0  0
  7  8  1  0  0  0  0
  7  9  1  0  0  0  0
  9 10  1  0  0  0  0
  9 11  1  0  0  0  0
  9 23  1  0  0  0  0
 11 12  1  0  0  0  0
 11 13  1  0  0  0  0
 11 14  1  0  0  0  0
 14 15  1  0  0  0  0
 14 21  2  0  0  0  0
 15 16  1  0  0  0  0
 15 17  2  0  0  0  0
 17 18  1  0  0  0  0
 17 19  1  0  0  0  0
 19 20  1  0  0  0  0
 19 21  1  0  0  0  0
 21 22  1  0  0  0  0
 23 24  2  0  0  0  0
 23 25  1  0  0  0  0
 25 26  1  0  0  0  0
 25 27  1  0  0  0  0
 27 28  1  0  0  0  0
 27 29  1  0  0  0  0
 27 30  1  0  0  0  0
M  CHG  1  15   1
M  END
$$$$

  -OEChem-04042216003D

 30 30  0     1  0  0  0  0  0999 V2000
   -3.2348   -3.9228    1.3723 H   0  0  0  0  0  0  0  0  0  0  0  0
   -3.2385   -3.0660    0.6921 C   0  0  0  0  0  0  0  0  0  0  0  0
   -3.9121   -2.3048    1.0927 H   0  0  0  0  0  0  0  0  0  0  0  0
   -3.6069   -3.3948   -0.2826 H   0  0  0  0  0  0  0  0  0  0  0  0
   -1.8360   -2.5048    0.5578 C   0  0  0  0  0  0  0  0  0  0  0  0
   -0.9060   -3.0236    1.1484 O   0  0  0  0  0  0  0  0  0  0  0  0
   -1.5895   -1.4116   -0.2535 N   0  0  0  0  0  0  0  0  0  0  0  0
   -2.3988   -0.9724   -0.6846 H   0  0  0  0  0  0  0  0  0  0  0  0
   -0.2775   -0.7359   -0.3092 C   0  0  1  0  0  0  0  0  0  0  0  0
    0.4379   -1.5372   -0.5118 H   0  0  0  0  0  0  0  0  0  0  0  0
   -0.2157    0.2986   -1.4579 C   0  0  0  0  0  0  0  0  0  0  0  0
   -1.2259    0.5622   -1.7861 H   0  0  0  0  0  0  0  0  0  0  0  0
    0.2462    1.2214   -1.0860 H   0  0  0  0  0  0  0  0  0  0  0  0
    0.6068   -0.1779   -2.6365 C   0  0  0  0  0  0  0  0  0  0  0  0
    1.7041   -1.0454   -2.5989 N   0  3  0  0  0  0  0  0  0  0  0  0
    2.1164   -1.3817   -1.7213 H   0  0  0  0  0  0  0  0  0  0  0  0
    2.1643   -1.2566   -3.8072 C   0  0  0  0  0  0  0  0  0  0  0  0
    3.0289   -1.8689   -4.0718 H   0  0  0  0  0  0  0  0  0  0  0  0
    1.3532   -0.5421   -4.6856 N   0  0  0  0  0  0  0  0  0  0  0  0
    1.4642   -0.5053   -5.7037 H   0  0  0  0  0  0  0  0  0  0  0  0
    0.3808    0.1320   -3.9547 C   0  0  0  0  0  0  0  0  0  0  0  0
   -0.4045    0.7803   -4.3438 H   0  0  0  0  0  0  0  0  0  0  0  0
    0.2488   -0.1304    1.0043 C   0  0  0  0  0  0  0  0  0  0  0  0
    1.4637   -0.0525    1.1244 O   0  0  0  0  0  0  0  0  0  0  0  0
   -0.5746    0.6084    1.8331 N   0  0  0  0  0  0  0  0  0  0  0  0
   -1.5749    0.4597    1.7399 H   0  0  0  0  0  0  0  0  0  0  0  0
   -0.0824    1.2758    3.0354 C   0  0  0  0  0  0  0  0  0  0  0  0
    0.6798    2.0198    2.7788 H   0  0  0  0  0  0  0  0  0  0  0  0
   -0.9018    1.7885    3.5492 H   0  0  0  0  0  0  0  0  0  0  0  0
    0.3574    0.5483    3.7263 H   0  0  0  0  0  0  0  0  0  0  0  0
  1  2  1  0  0  0  0
  2  3  1  0  0  0  0
  2  4  1  0  0  0  0
  2  5  1  0  0  0  0
  5  6  2  0  0  0  0
  5  7  1  0  0  0  0
  7  8  1  0  0  0  0
  7  9  1  0  0  0  0
  9 10  1  0  0  0  0
  9 11  1  0  0  0  0
  9 23  1  0  0  0  0
 11 12  1  0  0  0  0
 11 13  1  0  0  0  0
 11 14  1  0  0  0  0
 14 15  1  0  0  0  0
 14 21  2  0  0  0  0
 15 16  1  0  0  0  0
 15 17  2  0  0  0  0
 17 18  1  0  0  0  0
 17 19  1  0  0  0  0
 19 20  1  0  0  0  0
 19 21  1  0  0  0  0
 21 22  1  0  0  0  0
 23 24  2  0  0  0  0
 23 25  1  0  0  0  0
 25 26  1  0  0  0  0
 25 27  1  0  0  0  0
 27 28  1  0  0  0  0
 27 29  1  0  0  0  0
 27 30  1  0  0  0  0
M  CHG  1  15   1
M  END
$$$$

  -OEChem-04042216003D

 30 30  0     1  0  0  0  0  0999 V2000
   -3.2513   -3.8913    1.4328 H   0  0  0  0  0  0  0  0  0  0  0  0
   -3.2453   -3.0367    0.7497 C   0  0  0  0  0  0  0  0  0  0  0  0
   -3.8941   -2.2588    1.1590 H   0  0  0  0  0  0  0  0  0  0  0  0
   -3.6377   -3.3599   -0.2174 H   0  0  0  0  0  0  0  0  0  0  0  0
   -1.8319   -2.5103    0.5902 C   0  0  0  0  0  0  0  0  0  0  0  0
   -0.9062   -3.0435    1.1745 O   0  0  0  0  0  0  0  0  0  0  0  0
   -1.5679   -1.4387   -0.2443 N   0  0  0  0  0  0  0  0  0  0  0  0
   -2.3725   -0.9896   -0.6740 H   0  0  0  0  0  0  0  0  0  0  0  0
   -0.2493   -0.7747   -0.2988 C   0  0  1  0  0  0  0  0  0  0  0  0
    0.4759   -1.5718   -0.4775 H   0  0  0  0  0  0  0  0  0  0  0  0
   -0.1826    0.2534   -1.4532 C   0  0  0  0  0  0  0  0  0  0  0  0
   -1.1930    0.5218   -1.7769 H   0  0  0  0  0  0  0  0  0  0  0  0
    0.2838    1.1746   -1.0827 H   0  0  0  0  0  0  0  0  0  0  0  0
    0.6305   -0.2154   -2.6438 C   0  0  0  0  0  0  0  0  0  0  0  0
    1.5333   -1.2832   -2.7151 N   0  3  0  0  0  0  0  0  0  0  0  0
    1.7959   -1.8466   -1.9001 H   0  0  0  0  0  0  0  0  0  0  0  0
    2.0458   -1.3746   -3.9176 C   0  0  0  0  0  0  0  0  0  0  0  0
    2.7967   -2.0956   -4.2478 H   0  0  0  0  0  0  0  0  0  0  0  0
    1.4654   -0.3708   -4.6880 N   0  0  0  0  0  0  0  0  0  0  0  0
    1.6714   -0.1803   -5.6737 H   0  0  0  0  0  0  0  0  0  0  0  0
    0.5838    0.3530   -3.8931 C   0  0  0  0  0  0  0  0  0  0  0  0
   -0.0205    1.2094   -4.1930 H   0  0  0  0  0  0  0  0  0  0  0  0
    0.2439   -0.1488    1.0199 C   0  0  0  0  0  0  0  0  0  0  0  0
    1.4530   -0.0800    1.1860 O   0  0  0  0  0  0  0  0  0  0  0  0
   -0.6014    0.6069    1.8112 N   0  0  0  0  0  0  0  0  0  0  0  0
   -1.5993    0.4675    1.6852 H   0  0  0  0  0  0  0  0  0  0  0  0
   -0.1441    1.2892    3.0190 C   0  0  0  0  0  0  0  0  0  0  0  0
    0.6666    1.9876    2.7840 H   0  0  0  0  0  0  0  0  0  0  0  0
   -0.9638    1.8571    3.4700 H   0  0  0  0  0  0  0  0  0  0  0  0
    0.2212    0.5642    3.7546 H   0  0  0  0  0  0  0  0  0  0  0  0
  1  2  1  0  0  0  0
  2  3  1  0  0  0  0
  2  4  1  0  0  0  0
  2  5  1  0  0  0  0
  5  6  2  0  0  0  0
  5  7  1  0  0  0  0
  7  8  1  0  0  0  0
  7  9  1  0  0  0  0
  9 10  1  0  0  0  0
  9 11  1  0  0  0  0
  9 23  1  0  0  0  0
 11 12  1  0  0  0  0
 11 13  1  0  0  0  0
 11 14  1  0  0  0  0
 14 15  1  0  0  0  0
 14 21  2  0  0  0  0
 15 16  1  0  0  0  0
 15 17  2  0  0  0  0
 17 18  1  0  0  0  0
 17 19  1  0  0  0  0
 19 20  1  0  0  0  0
 19 21  1  0  0  0  0
 21 22  1  0  0  0  0
 23 24  2  0  0  0  0
 23 25  1  0  0  0  0
 25 26  1  0  0  0  0
 25 27  1  0  0  0  0
 27 28  1  0  0  0  0
 27 29  1  0  0  0  0
 27 30  1  0  0  0  0
M  CHG  1  15   1
M  END
$$$$

  -OEChem-04042216003D

 30 30  0     1  0  0  0  0  0999 V2000
   -3.2487   -3.8580    1.5030 H   0  0  0  0  0  0  0  0  0  0  0  0
   -3.2444   -3.0109    0.8104 C   0  0  0  0  0  0  0  0  0  0  0  0
   -3.8602   -2.2128    1.2319 H   0  0  0  0  0  0  0  0  0  0  0  0
   -3.6761   -3.3338   -0.1400 H   0  0  0  0  0  0  0  0  0  0  0  0
   -1.8251   -2.5202    0.5991 C   0  0  0  0  0  0  0  0  0  0  0  0
   -0.8910   -3.0796    1.1438 O   0  0  0  0  0  0  0  0  0  0  0  0
   -1.5645   -1.4583   -0.2483 N   0  0  0  0  0  0  0  0  0  0  0  0
   -2.3764   -0.9820   -0.6333 H   0  0  0  0  0  0  0  0  0  0  0  0
   -0.2440   -0.7978   -0.3099 C   0  0  1  0  0  0  0  0  0  0  0  0
    0.4925   -1.5860   -0.4831 H   0  0  0  0  0  0  0  0  0  0  0  0
   -0.1843    0.2309   -1.4631 C   0  0  0  0  0  0  0  0  0  0  0  0
   -1.1984    0.4895   -1.7835 H   0  0  0  0  0  0  0  0  0  0  0  0
    0.2768    1.1566   -1.0970 H   0  0  0  0  0  0  0  0  0  0  0  0
    0.6170   -0.2383   -2.6618 C   0  0  0  0  0  0  0  0  0  0  0  0
    1.2902   -1.4514   -2.8496 N   0  3  0  0  0  0  0  0  0  0  0  0
    1.3204   -2.1893   -2.1397 H   0  0  0  0  0  0  0  0  0  0  0  0
    1.9042   -1.4641   -4.0073 C   0  0  0  0  0  0  0  0  0  0  0  0
    2.5209   -2.2733   -4.4042 H   0  0  0  0  0  0  0  0  0  0  0  0
    1.6337   -0.2483   -4.6287 N   0  0  0  0  0  0  0  0  0  0  0  0
    1.9892    0.0471   -5.5434 H   0  0  0  0  0  0  0  0  0  0  0  0
    0.8354    0.5179   -3.7874 C   0  0  0  0  0  0  0  0  0  0  0  0
    0.4657    1.5273   -3.9705 H   0  0  0  0  0  0  0  0  0  0  0  0
    0.2371   -0.1635    1.0108 C   0  0  0  0  0  0  0  0  0  0  0  0
    1.4428   -0.0913    1.1955 O   0  0  0  0  0  0  0  0  0  0  0  0
   -0.6176    0.5966    1.7886 N   0  0  0  0  0  0  0  0  0  0  0  0
   -1.6141    0.4647    1.6473 H   0  0  0  0  0  0  0  0  0  0  0  0
   -0.1734    1.2911    2.9946 C   0  0  0  0  0  0  0  0  0  0  0  0
    0.6267    2.0012    2.7585 H   0  0  0  0  0  0  0  0  0  0  0  0
   -1.0026    1.8476    3.4425 H   0  0  0  0  0  0  0  0  0  0  0  0
    0.2022    0.5748    3.7335 H   0  0  0  0  0  0  0  0  0  0  0  0
  1  2  1  0  0  0  0
  2  3  1  0  0  0  0
  2  4  1  0  0  0  0
  2  5  1  0  0  0  0
  5  6  2  0  0  0  0
  5  7  1  0  0  0  0
  7  8  1  0  0  0  0
  7  9  1  0  0  0  0
  9 10  1  0  0  0  0
  9 11  1  0  0  0  0
  9 23  1  0  0  0  0
 11 12  1  0  0  0  0
 11 13  1  0  0  0  0
 11 14  1  0  0  0  0
 14 15  1  0  0  0  0
 14 21  2  0  0  0  0
 15 16  1  0  0  0  0
 15 17  2  0  0  0  0
 17 18  1  0  0  0  0
 17 19  1  0  0  0  0
 19 20  1  0  0  0  0
 19 21  1  0  0  0  0
 21 22  1  0  0  0  0
 23 24  2  0  0  0  0
 23 25  1  0  0  0  0
 25 26  1  0  0  0  0
 25 27  1  0  0  0  0
 27 28  1  0  0  0  0
 27 29  1  0  0  0  0
 27 30  1  0  0  0  0
M  CHG  1  15   1
M  END
$$$$

  -OEChem-04042216003D

 30 30  0     1  0  0  0  0  0999 V2000
   -3.2154   -3.8549    1.5188 H   0  0  0  0  0  0  0  0  0  0  0  0
   -3.2268   -2.9968    0.8398 C   0  0  0  0  0  0  0  0  0  0  0  0
   -3.8138   -2.1974    1.2981 H   0  0  0  0  0  0  0  0  0  0  0  0
   -3.7013   -3.2989   -0.0970 H   0  0  0  0  0  0  0  0  0  0  0  0
   -1.8101   -2.5223    0.5793 C   0  0  0  0  0  0  0  0  0  0  0  0
   -0.8631   -3.1044    1.0754 O   0  0  0  0  0  0  0  0  0  0  0  0
   -1.5662   -1.4545   -0.2660 N   0  0  0  0  0  0  0  0  0  0  0  0
   -2.3879   -0.9578   -0.6020 H   0  0  0  0  0  0  0  0  0  0  0  0
   -0.2489   -0.7876   -0.3350 C   0  0  1  0  0  0  0  0  0  0  0  0
    0.4990   -1.5642   -0.5197 H   0  0  0  0  0  0  0  0  0  0  0  0
   -0.2074    0.2495   -1.4799 C   0  0  0  0  0  0  0  0  0  0  0  0
   -1.2267    0.4926   -1.7961 H   0  0  0  0  0  0  0  0  0  0  0  0
    0.2435    1.1814   -1.1167 H   0  0  0  0  0  0  0  0  0  0  0  0
    0.5857   -0.2255   -2.6804 C   0  0  0  0  0  0  0  0  0  0  0  0
    1.0081   -1.5251   -2.9838 N   0  3  0  0  0  0  0  0  0  0  0  0
    0.7917   -2.3338   -2.3931 H   0  0  0  0  0  0  0  0  0  0  0  0
    1.7356   -1.5302   -4.0741 C   0  0  0  0  0  0  0  0  0  0  0  0
    2.2094   -2.4004   -4.5333 H   0  0  0  0  0  0  0  0  0  0  0  0
    1.8030   -0.2158   -4.5283 N   0  0  0  0  0  0  0  0  0  0  0  0
    2.3216    0.1053   -5.3519 H   0  0  0  0  0  0  0  0  0  0  0  0
    1.0936    0.5992   -3.6537 C   0  0  0  0  0  0  0  0  0  0  0  0
    0.9781    1.6823   -3.7097 H   0  0  0  0  0  0  0  0  0  0  0  0
    0.2344   -0.1602    0.9889 C   0  0  0  0  0  0  0  0  0  0  0  0
    1.4394   -0.0806    1.1730 O   0  0  0  0  0  0  0  0  0  0  0  0
   -0.6224    0.5890    1.7755 N   0  0  0  0  0  0  0  0  0  0  0  0
   -1.6187    0.4575    1.6326 H   0  0  0  0  0  0  0  0  0  0  0  0
   -0.1796    1.2726    2.9883 C   0  0  0  0  0  0  0  0  0  0  0  0
    0.6126    1.9934    2.7580 H   0  0  0  0  0  0  0  0  0  0  0  0
   -1.0124    1.8154    3.4464 H   0  0  0  0  0  0  0  0  0  0  0  0
    0.2059    0.5506    3.7166 H   0  0  0  0  0  0  0  0  0  0  0  0
  1  2  1  0  0  0  0
  2  3  1  0  0  0  0
  2  4  1  0  0  0  0
  2  5  1  0  0  0  0
  5  6  2  0  0  0  0
  5  7  1  0  0  0  0
  7  8  1  0  0  0  0
  7  9  1  0  0  0  0
  9 10  1  0  0  0  0
  9 11  1  0  0  0  0
  9 23  1  0  0  0  0
 11 12  1  0  0  0  0
 11 13  1  0  0  0  0
 11 14  1  0  0  0  0
 14 15  1  0  0  0  0
 14 21  2  0  0  0  0
 15 16  1  0  0  0  0
 15 17  2  0  0  0  0
 17 18  1  0  0  0  0
 17 19  1  0  0  0  0
 19 20  1  0  0  0  0
 19 21  1  0  0  0  0
 21 22  1  0  0  0  0
 23 24  2  0  0  0  0
 23 25  1  0  0  0  0
 25 26  1  0  0  0  0
 25 27  1  0  0  0  0
 27 28  1  0  0  0  0
 27 29  1  0  0  0  0
 27 30  1  0  0  0  0
M  CHG  1  15   1
M  END
$$$$

  -OEChem-04042216003D

 30 30  0     1  0  0  0  0  0999 V2000
   -3.1882   -3.8510    1.5068 H   0  0  0  0  0  0  0  0  0  0  0  0
   -3.2103   -2.9920    0.8295 C   0  0  0  0  0  0  0  0  0  0  0  0
   -3.7839   -2.1907    1.3012 H   0  0  0  0  0  0  0  0  0  0  0  0
   -3.7059   -3.2906   -0.0973 H   0  0  0  0  0  0  0  0  0  0  0  0
   -1.7971   -2.5240    0.5396 C   0  0  0  0  0  0  0  0  0  0  0  0
   -0.8420   -3.1260    0.9941 O   0  0  0  0  0  0  0  0  0  0  0  0
   -1.5683   -1.4413   -0.2910 N   0  0  0  0  0  0  0  0  0  0  0  0
   -2.3971   -0.9230   -0.5732 H   0  0  0  0  0  0  0  0  0  0  0  0
   -0.2540   -0.7664   -0.3559 C   0  0  1  0  0  0  0  0  0  0  0  0
    0.4992   -1.5348   -0.5622 H   0  0  0  0  0  0  0  0  0  0  0  0
   -0.2245    0.2855   -1.4857 C   0  0  0  0  0  0  0  0  0  0  0  0
   -1.2450    0.5242   -1.8014 H   0  0  0  0  0  0  0  0  0  0  0  0
    0.2219    1.2171   -1.1167 H   0  0  0  0  0  0  0  0  0  0  0  0
    0.5706   -0.1944   -2.6804 C   0  0  0  0  0  0  0  0  0  0  0  0
    0.7372   -1.5133   -3.1155 N   0  3  0  0  0  0  0  0  0  0  0  0
    0.3054   -2.3137   -2.6431 H   0  0  0  0  0  0  0  0  0  0  0  0
    1.5558   -1.5579   -4.1385 C   0  0  0  0  0  0  0  0  0  0  0  0
    1.8846   -2.4548   -4.6675 H   0  0  0  0  0  0  0  0  0  0  0  0
    1.9426   -0.2482   -4.4129 N   0  0  0  0  0  0  0  0  0  0  0  0
    2.5997    0.0395   -5.1450 H   0  0  0  0  0  0  0  0  0  0  0  0
    1.3364    0.6020   -3.4951 C   0  0  0  0  0  0  0  0  0  0  0  0
    1.4597    1.6829   -3.4150 H   0  0  0  0  0  0  0  0  0  0  0  0
    0.2351   -0.1578    0.9747 C   0  0  0  0  0  0  0  0  0  0  0  0
    1.4405   -0.0671    1.1508 O   0  0  0  0  0  0  0  0  0  0  0  0
   -0.6214    0.5747    1.7775 N   0  0  0  0  0  0  0  0  0  0  0  0
   -1.6181    0.4459    1.6368 H   0  0  0  0  0  0  0  0  0  0  0  0
   -0.1727    1.2567    2.9891 C   0  0  0  0  0  0  0  0  0  0  0  0
    0.5732    2.0213    2.7465 H   0  0  0  0  0  0  0  0  0  0  0  0
   -1.0161    1.7461    3.4862 H   0  0  0  0  0  0  0  0  0  0  0  0
    0.2744    0.5425    3.6894 H   0  0  0  0  0  0  0  0  0  0  0  0
  1  2  1  0  0  0  0
  2  3  1  0  0  0  0
  2  4  1  0  0  0  0
  2  5  1  0  0  0  0
  5  6  2  0  0  0  0
  5  7  1  0  0  0  0
  7  8  1  0  0  0  0
  7  9  1  0  0  0  0
  9 10  1  0  0  0  0
  9 11  1  0  0  0  0
  9 23  1  0  0  0  0
 11 12  1  0  0  0  0
 11 13  1  0  0  0  0
 11 14  1  0  0  0  0
 14 15  1  0  0  0  0
 14 21  2  0  0  0  0
 15 16  1  0  0  0  0
 15 17  2  0  0  0  0
 17 18  1  0  0  0  0
 17 19  1  0  0  0  0
 19 20  1  0  0  0  0
 19 21  1  0  0  0  0
 21 22  1  0  0  0  0
 23 24  2  0  0  0  0
 23 25  1  0  0  0  0
 25 26  1  0  0  0  0
 25 27  1  0  0  0  0
 27 28  1  0  0  0  0
 27 29  1  0  0  0  0
 27 30  1  0  0  0  0
M  CHG  1  15   1
M  END
$$$$

  -OEChem-04042216003D

 30 30  0     1  0  0  0  0  0999 V2000
   -3.1678   -3.8615    1.4680 H   0  0  0  0  0  0  0  0  0  0  0  0
   -3.1955   -2.9932    0.8028 C   0  0  0  0  0  0  0  0  0  0  0  0
   -3.7659   -2.1991    1.2900 H   0  0  0  0  0  0  0  0  0  0  0  0
   -3.6972   -3.2787   -0.1247 H   0  0  0  0  0  0  0  0  0  0  0  0
   -1.7850   -2.5201    0.5093 C   0  0  0  0  0  0  0  0  0  0  0  0
   -0.8271   -3.1255    0.9523 O   0  0  0  0  0  0  0  0  0  0  0  0
   -1.5646   -1.4255   -0.3082 N   0  0  0  0  0  0  0  0  0  0  0  0
   -2.3966   -0.8986   -0.5638 H   0  0  0  0  0  0  0  0  0  0  0  0
   -0.2531   -0.7441   -0.3673 C   0  0  1  0  0  0  0  0  0  0  0  0
    0.5013   -1.5080   -0.5928 H   0  0  0  0  0  0  0  0  0  0  0  0
   -0.2306    0.3181   -1.4854 C   0  0  0  0  0  0  0  0  0  0  0  0
   -1.2498    0.5599   -1.8031 H   0  0  0  0  0  0  0  0  0  0  0  0
    0.2165    1.2471   -1.1109 H   0  0  0  0  0  0  0  0  0  0  0  0
    0.5700   -0.1707   -2.6694 C   0  0  0  0  0  0  0  0  0  0  0  0
    0.5020   -1.4364   -3.2576 N   0  3  0  0  0  0  0  0  0  0  0  0
   -0.1147   -2.1776   -2.9117 H   0  0  0  0  0  0  0  0  0  0  0  0
    1.3853   -1.5384   -4.2212 C   0  0  0  0  0  0  0  0  0  0  0  0
    1.5764   -2.4207   -4.8356 H   0  0  0  0  0  0  0  0  0  0  0  0
    2.0506   -0.3168   -4.3013 N   0  0  0  0  0  0  0  0  0  0  0  0
    2.8161   -0.0941   -4.9454 H   0  0  0  0  0  0  0  0  0  0  0  0
    1.5481    0.5345   -3.3244 C   0  0  0  0  0  0  0  0  0  0  0  0
    1.8776    1.5496   -3.0990 H   0  0  0  0  0  0  0  0  0  0  0  0
    0.2399   -0.1498    0.9683 C   0  0  0  0  0  0  0  0  0  0  0  0
    1.4456   -0.0444    1.1345 O   0  0  0  0  0  0  0  0  0  0  0  0
   -0.6175    0.5693    1.7825 N   0  0  0  0  0  0  0  0  0  0  0  0
   -1.6138    0.4297    1.6499 H   0  0  0  0  0  0  0  0  0  0  0  0
   -0.1674    1.2458    2.9965 C   0  0  0  0  0  0  0  0  0  0  0  0
    0.5783    2.0117    2.7567 H   0  0  0  0  0  0  0  0  0  0  0  0
   -1.0101    1.7331    3.4969 H   0  0  0  0  0  0  0  0  0  0  0  0
    0.2803    0.5282    3.6930 H   0  0  0  0  0  0  0  0  0  0  0  0
  1  2  1  0  0  0  0
  2  3  1  0  0  0  0
  2  4  1  0  0  0  0
  2  5  1  0  0  0  0
  5  6  2  0  0  0  0
  5  7  1  0  0  0  0
  7  8  1  0  0  0  0
  7  9  1  0  0  0  0
  9 10  1  0  0  0  0
  9 11  1  0  0  0  0
  9 23  1  0  0  0  0
 11 12  1  0  0  0  0
 11 13  1  0  0  0  0
 11 14  1  0  0  0  0
 14 15  1  0  0  0  0
 14 21  2  0  0  0  0
 15 16  1  0  0  0  0
 15 17  2  0  0  0  0
 17 18  1  0  0  0  0
 17 19  1  0  0  0  0
 19 20  1  0  0  0  0
 19 21  1  0  0  0  0
 21 22  1  0  0  0  0
 23 24  2  0  0  0  0
 23 25  1  0  0  0  0
 25 26  1  0  0  0  0
 25 27  1  0  0  0  0
 27 28  1  0  0  0  0
 27 29  1  0  0  0  0
 27 30  1  0  0  0  0
M  CHG  1  15   1
M  END
$$$$

  -OEChem-04042216003D

 30 30  0     1  0  0  0  0  0999 V2000
   -3.1624   -3.8690    1.4490 H   0  0  0  0  0  0  0  0  0  0  0  0
   -3.1953   -3.0029    0.7813 C   0  0  0  0  0  0  0  0  0  0  0  0
   -3.7773   -2.2139    1.2634 H   0  0  0  0  0  0  0  0  0  0  0  0
   -3.6890   -3.2969   -0.1479 H   0  0  0  0  0  0  0  0  0  0  0  0
   -1.7879   -2.5161    0.4942 C   0  0  0  0  0  0  0  0  0  0  0  0
   -0.8283   -3.1121    0.9462 O   0  0  0  0  0  0  0  0  0  0  0  0
   -1.5746   -1.4133   -0.3146 N   0  0  0  0  0  0  0  0  0  0  0  0
   -2.4091   -0.8868   -0.5620 H   0  0  0  0  0  0  0  0  0  0  0  0
   -0.2648   -0.7280   -0.3726 C   0  0  1  0  0  0  0  0  0  0  0  0
    0.4846   -1.4944   -0.6097 H   0  0  0  0  0  0  0  0  0  0  0  0
   -0.2370    0.3376   -1.4865 C   0  0  0  0  0  0  0  0  0  0  0  0
   -1.2516    0.5887   -1.8109 H   0  0  0  0  0  0  0  0  0  0  0  0
    0.2159    1.2622   -1.1077 H   0  0  0  0  0  0  0  0  0  0  0  0
    0.5715   -0.1625   -2.6581 C   0  0  0  0  0  0  0  0  0  0  0  0
    0.3155   -1.3031   -3.4212 N   0  3  0  0  0  0  0  0  0  0  0  0
   -0.4608   -1.9407   -3.2251 H   0  0  0  0  0  0  0  0  0  0  0  0
    1.2537   -1.4645   -4.3232 C   0  0  0  0  0  0  0  0  0  0  0  0
    1.3309   -2.2850   -5.0395 H   0  0  0  0  0  0  0  0  0  0  0  0
    2.1472   -0.4040   -4.1844 N   0  0  0  0  0  0  0  0  0  0  0  0
    3.0011   -0.2650   -4.7340 H   0  0  0  0  0  0  0  0  0  0  0  0
    1.7248    0.4058   -3.1372 C   0  0  0  0  0  0  0  0  0  0  0  0
    2.2187    1.2975   -2.7481 H   0  0  0  0  0  0  0  0  0  0  0  0
    0.2408   -0.1420    0.9615 C   0  0  0  0  0  0  0  0  0  0  0  0
    1.4481   -0.0199    1.1060 O   0  0  0  0  0  0  0  0  0  0  0  0
   -0.6090    0.5705    1.7890 N   0  0  0  0  0  0  0  0  0  0  0  0
   -1.6058    0.4174    1.6758 H   0  0  0  0  0  0  0  0  0  0  0  0
   -0.1445    1.2451    2.9987 C   0  0  0  0  0  0  0  0  0  0  0  0
    0.5842    2.0240    2.7493 H   0  0  0  0  0  0  0  0  0  0  0  0
   -0.9839    1.7156    3.5203 H   0  0  0  0  0  0  0  0  0  0  0  0
    0.3283    0.5296    3.6805 H   0  0  0  0  0  0  0  0  0  0  0  0
  1  2  1  0  0  0  0
  2  3  1  0  0  0  0
  2  4  1  0  0  0  0
  2  5  1  0  0  0  0
  5  6  2  0  0  0  0
  5  7  1  0  0  0  0
  7  8  1  0  0  0  0
  7  9  1  0  0  0  0
  9 10  1  0  0  0  0
  9 11  1  0  0  0  0
  9 23  1  0  0  0  0
 11 12  1  0  0  0  0
 11 13  1  0  0  0  0
 11 14  1  0  0  0  0
 14 15  1  0  0  0  0
 14 21  2  0  0  0  0
 15 16  1  0  0  0  0
 15 17  2  0  0  0  0
 17 18  1  0  0  0  0
 17 19  1  0  0  0  0
 19 20  1  0  0  0  0
 19 21  1  0  0  0  0
 21 22  1  0  0  0  0
 23 24  2  0  0  0  0
 23 25  1  0  0  0  0
 25 26  1  0  0  0  0
 25 27  1  0  0  0  0
 27 28  1  0  0  0  0
 27 29  1  0  0  0  0
 27 30  1  0  0  0  0
M  CHG  1  15   1
M  END
$$$$

  -OEChem-04042216003D

 30 30  0     1  0  0  0  0  0999 V2000
   -3.1680   -3.8864    1.4267 H   0  0  0  0  0  0  0  0  0  0  0  0
   -3.2013   -3.0177    0.7621 C   0  0  0  0  0  0  0  0  0  0  0  0
   -3.8012   -2.2380    1.2373 H   0  0  0  0  0  0  0  0  0  0  0  0
   -3.6748   -3.3142   -0.1768 H   0  0  0  0  0  0  0  0  0  0  0  0
   -1.7958   -2.5112    0.5013 C   0  0  0  0  0  0  0  0  0  0  0  0
   -0.8377   -3.0880    0.9807 O   0  0  0  0  0  0  0  0  0  0  0  0
   -1.5847   -1.4060   -0.3050 N   0  0  0  0  0  0  0  0  0  0  0  0
   -2.4202   -0.8882   -0.5657 H   0  0  0  0  0  0  0  0  0  0  0  0
   -0.2750   -0.7213   -0.3701 C   0  0  1  0  0  0  0  0  0  0  0  0
    0.4672   -1.4926   -0.6144 H   0  0  0  0  0  0  0  0  0  0  0  0
   -0.2434    0.3438   -1.4842 C   0  0  0  0  0  0  0  0  0  0  0  0
   -1.2554    0.6079   -1.8059 H   0  0  0  0  0  0  0  0  0  0  0  0
    0.2197    1.2634   -1.1058 H   0  0  0  0  0  0  0  0  0  0  0  0
    0.5644   -0.1647   -2.6525 C   0  0  0  0  0  0  0  0  0  0  0  0
    0.1808   -1.1184   -3.5968 N   0  3  0  0  0  0  0  0  0  0  0  0
   -0.7212   -1.6004   -3.5684 H   0  0  0  0  0  0  0  0  0  0  0  0
    1.1608   -1.3393   -4.4405 C   0  0  0  0  0  0  0  0  0  0  0  0
    1.1564   -2.0500   -5.2695 H   0  0  0  0  0  0  0  0  0  0  0  0
    2.2182   -0.5094   -4.0728 N   0  0  0  0  0  0  0  0  0  0  0  0
    3.1354   -0.4697   -4.5285 H   0  0  0  0  0  0  0  0  0  0  0  0
    1.8468    0.2211   -2.9511 C   0  0  0  0  0  0  0  0  0  0  0  0
    2.4538    0.9366   -2.3933 H   0  0  0  0  0  0  0  0  0  0  0  0
    0.2460   -0.1373    0.9588 C   0  0  0  0  0  0  0  0  0  0  0  0
    1.4553   -0.0058    1.0820 O   0  0  0  0  0  0  0  0  0  0  0  0
   -0.5944    0.5755    1.7955 N   0  0  0  0  0  0  0  0  0  0  0  0
   -1.5910    0.4079    1.7030 H   0  0  0  0  0  0  0  0  0  0  0  0
   -0.1155    1.2513    2.9988 C   0  0  0  0  0  0  0  0  0  0  0  0
    0.6250    2.0166    2.7418 H   0  0  0  0  0  0  0  0  0  0  0  0
   -0.9457    1.7392    3.5190 H   0  0  0  0  0  0  0  0  0  0  0  0
    0.3478    0.5331    3.6843 H   0  0  0  0  0  0  0  0  0  0  0  0
  1  2  1  0  0  0  0
  2  3  1  0  0  0  0
  2  4  1  0  0  0  0
  2  5  1  0  0  0  0
  5  6  2  0  0  0  0
  5  7  1  0  0  0  0
  7  8  1  0  0  0  0
  7  9  1  0  0  0  0
  9 10  1  0  0  0  0
  9 11  1  0  0  0  0
  9 23  1  0  0  0  0
 11 12  1  0  0  0  0
 11 13  1  0  0  0  0
 11 14  1  0  0  0  0
 14 15  1  0  0  0  0
 14 21  2  0  0  0  0
 15 16  1  0  0  0  0
 15 17  2  0  0  0  0
 17 18  1  0  0  0  0
 17 19  1  0  0  0  0
 19 20  1  0  0  0  0
 19 21  1  0  0  0  0
 21 22  1  0  0  0  0
 23 24  2  0  0  0  0
 23 25  1  0  0  0  0
 25 26  1  0  0  0  0
 25 27  1  0  0  0  0
 27 28  1  0  0  0  0
 27 29  1  0  0  0  0
 27 30  1  0  0  0  0
M  CHG  1  15   1
M  END
$$$$

  -OEChem-04042216003D

 30 30  0     1  0  0  0  0  0999 V2000
   -3.1706   -3.9141    1.3936 H   0  0  0  0  0  0  0  0  0  0  0  0
   -3.2057   -3.0359    0.7419 C   0  0  0  0  0  0  0  0  0  0  0  0
   -3.8221   -2.2711    1.2204 H   0  0  0  0  0  0  0  0  0  0  0  0
   -3.6625   -3.3237   -0.2079 H   0  0  0  0  0  0  0  0  0  0  0  0
   -1.8033   -2.5079    0.5080 C   0  0  0  0  0  0  0  0  0  0  0  0
   -0.8465   -3.0651    1.0129 O   0  0  0  0  0  0  0  0  0  0  0  0
   -1.5949   -1.3997   -0.2942 N   0  0  0  0  0  0  0  0  0  0  0  0
   -2.4309   -0.8978   -0.5813 H   0  0  0  0  0  0  0  0  0  0  0  0
   -0.2874   -0.7131   -0.3674 C   0  0  1  0  0  0  0  0  0  0  0  0
    0.4485   -1.4884   -0.6172 H   0  0  0  0  0  0  0  0  0  0  0  0
   -0.2579    0.3498   -1.4841 C   0  0  0  0  0  0  0  0  0  0  0  0
   -1.2699    0.6179   -1.8023 H   0  0  0  0  0  0  0  0  0  0  0  0
    0.2104    1.2684   -1.1099 H   0  0  0  0  0  0  0  0  0  0  0  0
    0.5483   -0.1636   -2.6504 C   0  0  0  0  0  0  0  0  0  0  0  0
    0.1017   -0.8914   -3.7542 N   0  3  0  0  0  0  0  0  0  0  0  0
   -0.8726   -1.1764   -3.8797 H   0  0  0  0  0  0  0  0  0  0  0  0
    1.1110   -1.1846   -4.5397 C   0  0  0  0  0  0  0  0  0  0  0  0
    1.0669   -1.7602   -5.4665 H   0  0  0  0  0  0  0  0  0  0  0  0
    2.2563   -0.6351   -3.9662 N   0  0  0  0  0  0  0  0  0  0  0  0
    3.2087   -0.7105   -4.3374 H   0  0  0  0  0  0  0  0  0  0  0  0
    1.9040    0.0004   -2.7825 C   0  0  0  0  0  0  0  0  0  0  0  0
    2.5645    0.5067   -2.0747 H   0  0  0  0  0  0  0  0  0  0  0  0
    0.2523   -0.1296    0.9536 C   0  0  0  0  0  0  0  0  0  0  0  0
    1.4638    0.0076    1.0519 O   0  0  0  0  0  0  0  0  0  0  0  0
   -0.5755    0.5827    1.8027 N   0  0  0  0  0  0  0  0  0  0  0  0
   -1.5721    0.4030    1.7317 H   0  0  0  0  0  0  0  0  0  0  0  0
   -0.0784    1.2530    3.0019 C   0  0  0  0  0  0  0  0  0  0  0  0
    0.6873    1.9922    2.7421 H   0  0  0  0  0  0  0  0  0  0  0  0
   -0.8938    1.7725    3.5148 H   0  0  0  0  0  0  0  0  0  0  0  0
    0.3593    0.5256    3.6943 H   0  0  0  0  0  0  0  0  0  0  0  0
  1  2  1  0  0  0  0
  2  3  1  0  0  0  0
  2  4  1  0  0  0  0
  2  5  1  0  0  0  0
  5  6  2  0  0  0  0
  5  7  1  0  0  0  0
  7  8  1  0  0  0  0
  7  9  1  0  0  0  0
  9 10  1  0  0  0  0
  9 11  1  0  0  0  0
  9 23  1  0  0  0  0
 11 12  1  0  0  0  0
 11 13  1  0  0  0  0
 11 14  1  0  0  0  0
 14 15  1  0  0  0  0
 14 21  2  0  0  0  0
 15 16  1  0  0  0  0
 15 17  2  0  0  0  0
 17 18  1  0  0  0  0
 17 19  1  0  0  0  0
 19 20  1  0  0  0  0
 19 21  1  0  0  0  0
 21 22  1  0  0  0  0
 23 24  2  0  0  0  0
 23 25  1  0  0  0  0
 25 26  1  0  0  0  0
 25 27  1  0  0  0  0
 27 28  1  0  0  0  0
 27 29  1  0  0  0  0
 27 30  1  0  0  0  0
M  CHG  1  15   1
M  END
$$$$

  -OEChem-04042216003D

 30 30  0     1  0  0  0  0  0999 V2000
   -3.1811   -3.9312    1.3828 H   0  0  0  0  0  0  0  0  0  0  0  0
   -3.2152   -3.0567    0.7260 C   0  0  0  0  0  0  0  0  0  0  0  0
   -3.8565   -2.3006    1.1850 H   0  0  0  0  0  0  0  0  0  0  0  0
   -3.6427   -3.3575   -0.2334 H   0  0  0  0  0  0  0  0  0  0  0  0
   -1.8170   -2.5050    0.5241 C   0  0  0  0  0  0  0  0  0  0  0  0
   -0.8639   -3.0411    1.0584 O   0  0  0  0  0  0  0  0  0  0  0  0
   -1.6083   -1.3966   -0.2782 N   0  0  0  0  0  0  0  0  0  0  0  0
   -2.4426   -0.9166   -0.6046 H   0  0  0  0  0  0  0  0  0  0  0  0
   -0.3012   -0.7110   -0.3600 C   0  0  1  0  0  0  0  0  0  0  0  0
    0.4258   -1.4942   -0.6102 H   0  0  0  0  0  0  0  0  0  0  0  0
   -0.2650    0.3486   -1.4817 C   0  0  0  0  0  0  0  0  0  0  0  0
   -1.2774    0.6159   -1.7989 H   0  0  0  0  0  0  0  0  0  0  0  0
    0.2049    1.2687   -1.1126 H   0  0  0  0  0  0  0  0  0  0  0  0
    0.5398   -0.1643   -2.6499 C   0  0  0  0  0  0  0  0  0  0  0  0
    0.0878   -0.6348   -3.8838 N   0  3  0  0  0  0  0  0  0  0  0  0
   -0.9022   -0.6863   -4.1361 H   0  0  0  0  0  0  0  0  0  0  0  0
    1.1058   -1.0011   -4.6269 C   0  0  0  0  0  0  0  0  0  0  0  0
    1.0575   -1.4134   -5.6368 H   0  0  0  0  0  0  0  0  0  0  0  0
    2.2646   -0.7702   -3.8872 N   0  0  0  0  0  0  0  0  0  0  0  0
    3.2227   -0.9669   -4.1942 H   0  0  0  0  0  0  0  0  0  0  0  0
    1.9099   -0.2457   -2.6513 C   0  0  0  0  0  0  0  0  0  0  0  0
    2.5719    0.0328   -1.8270 H   0  0  0  0  0  0  0  0  0  0  0  0
    0.2544   -0.1257    0.9527 C   0  0  0  0  0  0  0  0  0  0  0  0
    1.4685    0.0045    1.0338 O   0  0  0  0  0  0  0  0  0  0  0  0
   -0.5598    0.5903    1.8113 N   0  0  0  0  0  0  0  0  0  0  0  0
   -1.5576    0.4115    1.7537 H   0  0  0  0  0  0  0  0  0  0  0  0
   -0.0450    1.2529    3.0072 C   0  0  0  0  0  0  0  0  0  0  0  0
    0.7149    1.9956    2.7404 H   0  0  0  0  0  0  0  0  0  0  0  0
   -0.8535    1.7667    3.5368 H   0  0  0  0  0  0  0  0  0  0  0  0
    0.4050    0.5214    3.6874 H   0  0  0  0  0  0  0  0  0  0  0  0
  1  2  1  0  0  0  0
  2  3  1  0  0  0  0
  2  4  1  0  0  0  0
  2  5  1  0  0  0  0
  5  6  2  0  0  0  0
  5  7  1  0  0  0  0
  7  8  1  0  0  0  0
  7  9  1  0  0  0  0
  9 10  1  0  0  0  0
  9 11  1  0  0  0  0
  9 23  1  0  0  0  0
 11 12  1  0  0  0  0
 11 13  1  0  0  0  0
 11 14  1  0  0  0  0
 14 15  1  0  0  0  0
 14 21  2  0  0  0  0
 15 16  1  0  0  0  0
 15 17  2  0  0  0  0
 17 18  1  0  0  0  0
 17 19  1  0  0  0  0
 19 20  1  0  0  0  0
 19 21  1  0  0  0  0
 21 22  1  0  0  0  0
 23 24  2  0  0  0  0
 23 25  1  0  0  0  0
 25 26  1  0  0  0  0
 25 27  1  0  0  0  0
 27 28  1  0  0  0  0
 27 29  1  0  0  0  0
 27 30  1  0  0  0  0
M  CHG  1  15   1
M  END
$$$$

  -OEChem-04042216003D

 30 30  0     1  0  0  0  0  0999 V2000
   -3.2083   -3.9219    1.3929 H   0  0  0  0  0  0  0  0  0  0  0  0
   -3.2304   -3.0609    0.7181 C   0  0  0  0  0  0  0  0  0  0  0  0
   -3.8901   -2.3011    1.1436 H   0  0  0  0  0  0  0  0  0  0  0  0
   -3.6287   -3.3836   -0.2467 H   0  0  0  0  0  0  0  0  0  0  0  0
   -1.8309   -2.5029    0.5440 C   0  0  0  0  0  0  0  0  0  0  0  0
   -0.8877   -3.0261    1.1083 O   0  0  0  0  0  0  0  0  0  0  0  0
   -1.6095   -1.4002   -0.2622 N   0  0  0  0  0  0  0  0  0  0  0  0
   -2.4354   -0.9391   -0.6336 H   0  0  0  0  0  0  0  0  0  0  0  0
   -0.2988   -0.7221   -0.3449 C   0  0  1  0  0  0  0  0  0  0  0  0
    0.4194   -1.5149   -0.5865 H   0  0  0  0  0  0  0  0  0  0  0  0
   -0.2547    0.3318   -1.4740 C   0  0  0  0  0  0  0  0  0  0  0  0
   -1.2687    0.5930   -1.7902 H   0  0  0  0  0  0  0  0  0  0  0  0
    0.2117    1.2555   -1.1093 H   0  0  0  0  0  0  0  0  0  0  0  0
    0.5480   -0.1756   -2.6481 C   0  0  0  0  0  0  0  0  0  0  0  0
    0.1322   -0.3714   -3.9664 N   0  3  0  0  0  0  0  0  0  0  0  0
   -0.8231   -0.1933   -4.2857 H   0  0  0  0  0  0  0  0  0  0  0  0
    1.1335   -0.8030   -4.6969 C   0  0  0  0  0  0  0  0  0  0  0  0
    1.1043   -1.0439   -5.7615 H   0  0  0  0  0  0  0  0  0  0  0  0
    2.2465   -0.8960   -3.8632 N   0  0  0  0  0  0  0  0  0  0  0  0
    3.1829   -1.2056   -4.1425 H   0  0  0  0  0  0  0  0  0  0  0  0
    1.8821   -0.4961   -2.5845 C   0  0  0  0  0  0  0  0  0  0  0  0
    2.5151   -0.4419   -1.6941 H   0  0  0  0  0  0  0  0  0  0  0  0
    0.2574   -0.1328    0.9651 C   0  0  0  0  0  0  0  0  0  0  0  0
    1.4727   -0.0141    1.0483 O   0  0  0  0  0  0  0  0  0  0  0  0
   -0.5551    0.5920    1.8175 N   0  0  0  0  0  0  0  0  0  0  0  0
   -1.5524    0.4095    1.7620 H   0  0  0  0  0  0  0  0  0  0  0  0
   -0.0407    1.2525    3.0144 C   0  0  0  0  0  0  0  0  0  0  0  0
    0.7071    2.0073    2.7476 H   0  0  0  0  0  0  0  0  0  0  0  0
   -0.8527    1.7507    3.5532 H   0  0  0  0  0  0  0  0  0  0  0  0
    0.4238    0.5224    3.6864 H   0  0  0  0  0  0  0  0  0  0  0  0
  1  2  1  0  0  0  0
  2  3  1  0  0  0  0
  2  4  1  0  0  0  0
  2  5  1  0  0  0  0
  5  6  2  0  0  0  0
  5  7  1  0  0  0  0
  7  8  1  0  0  0  0
  7  9  1  0  0  0  0
  9 10  1  0  0  0  0
  9 11  1  0  0  0  0
  9 23  1  0  0  0  0
 11 12  1  0  0  0  0
 11 13  1  0  0  0  0
 11 14  1  0  0  0  0
 14 15  1  0  0  0  0
 14 21  2  0  0  0  0
 15 16  1  0  0  0  0
 15 17  2  0  0  0  0
 17 18  1  0  0  0  0
 17 19  1  0  0  0  0
 19 20  1  0  0  0  0
 19 21  1  0  0  0  0
 21 22  1  0  0  0  0
 23 24  2  0  0  0  0
 23 25  1  0  0  0  0
 25 26  1  0  0  0  0
 25 27  1  0  0  0  0
 27 28  1  0  0  0  0
 27 29  1  0  0  0  0
 27 30  1  0  0  0  0
M  CHG  1  15   1
M  END
$$$$

  -OEChem-04042216003D

 30 30  0     1  0  0  0  0  0999 V2000
   -3.2442   -3.9184    1.4019 H   0  0  0  0  0  0  0  0  0  0  0  0
   -3.2522   -3.0648    0.7174 C   0  0  0  0  0  0  0  0  0  0  0  0
   -3.9232   -2.3016    1.1185 H   0  0  0  0  0  0  0  0  0  0  0  0
   -3.6264   -3.3989   -0.2532 H   0  0  0  0  0  0  0  0  0  0  0  0
   -1.8503   -2.5049    0.5714 C   0  0  0  0  0  0  0  0  0  0  0  0
   -0.9201   -3.0173    1.1665 O   0  0  0  0  0  0  0  0  0  0  0  0
   -1.6113   -1.4130   -0.2440 N   0  0  0  0  0  0  0  0  0  0  0  0
   -2.4251   -0.9726   -0.6639 H   0  0  0  0  0  0  0  0  0  0  0  0
   -0.2957   -0.7444   -0.3239 C   0  0  1  0  0  0  0  0  0  0  0  0
    0.4144   -1.5478   -0.5480 H   0  0  0  0  0  0  0  0  0  0  0  0
   -0.2421    0.2977   -1.4664 C   0  0  0  0  0  0  0  0  0  0  0  0
   -1.2581    0.5494   -1.7841 H   0  0  0  0  0  0  0  0  0  0  0  0
    0.2172    1.2268   -1.1067 H   0  0  0  0  0  0  0  0  0  0  0  0
    0.5603   -0.1998   -2.6485 C   0  0  0  0  0  0  0  0  0  0  0  0
    0.2255   -0.1177   -4.0023 N   0  3  0  0  0  0  0  0  0  0  0  0
   -0.6566    0.2767   -4.3382 H   0  0  0  0  0  0  0  0  0  0  0  0
    1.1972   -0.5990   -4.7416 C   0  0  0  0  0  0  0  0  0  0  0  0
    1.2135   -0.6648   -5.8313 H   0  0  0  0  0  0  0  0  0  0  0  0
    2.2131   -1.0041   -3.8787 N   0  0  0  0  0  0  0  0  0  0  0  0
    3.1125   -1.4098   -4.1567 H   0  0  0  0  0  0  0  0  0  0  0  0
    1.8222   -0.7404   -2.5732 C   0  0  0  0  0  0  0  0  0  0  0  0
    2.4004   -0.9045   -1.6596 H   0  0  0  0  0  0  0  0  0  0  0  0
    0.2553   -0.1434    0.9825 C   0  0  0  0  0  0  0  0  0  0  0  0
    1.4711   -0.0437    1.0775 O   0  0  0  0  0  0  0  0  0  0  0  0
   -0.5563    0.5974    1.8219 N   0  0  0  0  0  0  0  0  0  0  0  0
   -1.5552    0.4257    1.7597 H   0  0  0  0  0  0  0  0  0  0  0  0
   -0.0436    1.2626    3.0170 C   0  0  0  0  0  0  0  0  0  0  0  0
    0.7314    1.9897    2.7515 H   0  0  0  0  0  0  0  0  0  0  0  0
   -0.8491    1.7945    3.5329 H   0  0  0  0  0  0  0  0  0  0  0  0
    0.3866    0.5302    3.7089 H   0  0  0  0  0  0  0  0  0  0  0  0
  1  2  1  0  0  0  0
  2  3  1  0  0  0  0
  2  4  1  0  0  0  0
  2  5  1  0  0  0  0
  5  6  2  0  0  0  0
  5  7  1  0  0  0  0
  7  8  1  0  0  0  0
  7  9  1  0  0  0  0
  9 10  1  0  0  0  0
  9 11  1  0  0  0  0
  9 23  1  0  0  0  0
 11 12  1  0  0  0  0
 11 13  1  0  0  0  0
 11 14  1  0  0  0  0
 14 15  1  0  0  0  0
 14 21  2  0  0  0  0
 15 16  1  0  0  0  0
 15 17  2  0  0  0  0
 17 18  1  0  0  0  0
 17 19  1  0  0  0  0
 19 20  1  0  0  0  0
 19 21  1  0  0  0  0
 21 22  1  0  0  0  0
 23 24  2  0  0  0  0
 23 25  1  0  0  0  0
 25 26  1  0  0  0  0
 25 27  1  0  0  0  0
 27 28  1  0  0  0  0
 27 29  1  0  0  0  0
 27 30  1  0  0  0  0
M  CHG  1  15   1
M  END
$$$$

  -OEChem-04042216003D

 30 30  0     1  0  0  0  0  0999 V2000
   -3.2776   -3.8938    1.4328 H   0  0  0  0  0  0  0  0  0  0  0  0
   -3.2642   -3.0560    0.7291 C   0  0  0  0  0  0  0  0  0  0  0  0
   -3.9451   -2.2832    1.0934 H   0  0  0  0  0  0  0  0  0  0  0  0
   -3.6113   -3.4115   -0.2440 H   0  0  0  0  0  0  0  0  0  0  0  0
   -1.8579   -2.5010    0.6102 C   0  0  0  0  0  0  0  0  0  0  0  0
   -0.9445   -3.0036    1.2385 O   0  0  0  0  0  0  0  0  0  0  0  0
   -1.5943   -1.4292   -0.2242 N   0  0  0  0  0  0  0  0  0  0  0  0
   -2.3932   -1.0048   -0.6871 H   0  0  0  0  0  0  0  0  0  0  0  0
   -0.2714   -0.7741   -0.2989 C   0  0  1  0  0  0  0  0  0  0  0  0
    0.4364   -1.5841   -0.4957 H   0  0  0  0  0  0  0  0  0  0  0  0
   -0.2051    0.2559   -1.4539 C   0  0  0  0  0  0  0  0  0  0  0  0
   -1.2220    0.5052   -1.7704 H   0  0  0  0  0  0  0  0  0  0  0  0
    0.2519    1.1870   -1.0967 H   0  0  0  0  0  0  0  0  0  0  0  0
    0.5931   -0.2252   -2.6501 C   0  0  0  0  0  0  0  0  0  0  0  0
    0.3718    0.1408   -3.9808 N   0  3  0  0  0  0  0  0  0  0  0  0
   -0.3889    0.7609   -4.2701 H   0  0  0  0  0  0  0  0  0  0  0  0
    1.2792   -0.3940   -4.7629 C   0  0  0  0  0  0  0  0  0  0  0  0
    1.3554   -0.2764   -5.8458 H   0  0  0  0  0  0  0  0  0  0  0  0
    2.1391   -1.1309   -3.9533 N   0  0  0  0  0  0  0  0  0  0  0  0
    2.9661   -1.6477   -4.2690 H   0  0  0  0  0  0  0  0  0  0  0  0
    1.7229   -1.0117   -2.6343 C   0  0  0  0  0  0  0  0  0  0  0  0
    2.2153   -1.4281   -1.7524 H   0  0  0  0  0  0  0  0  0  0  0  0
    0.2544   -0.1532    1.0096 C   0  0  0  0  0  0  0  0  0  0  0  0
    1.4674   -0.0691    1.1406 O   0  0  0  0  0  0  0  0  0  0  0  0
   -0.5721    0.6080    1.8157 N   0  0  0  0  0  0  0  0  0  0  0  0
   -1.5705    0.4454    1.7277 H   0  0  0  0  0  0  0  0  0  0  0  0
   -0.0864    1.2849    3.0154 C   0  0  0  0  0  0  0  0  0  0  0  0
    0.6893    2.0146    2.7591 H   0  0  0  0  0  0  0  0  0  0  0  0
   -0.9049    1.8158    3.5117 H   0  0  0  0  0  0  0  0  0  0  0  0
    0.3344    0.5603    3.7212 H   0  0  0  0  0  0  0  0  0  0  0  0
  1  2  1  0  0  0  0
  2  3  1  0  0  0  0
  2  4  1  0  0  0  0
  2  5  1  0  0  0  0
  5  6  2  0  0  0  0
  5  7  1  0  0  0  0
  7  8  1  0  0  0  0
  7  9  1  0  0  0  0
  9 10  1  0  0  0  0
  9 11  1  0  0  0  0
  9 23  1  0  0  0  0
 11 12  1  0  0  0  0
 11 13  1  0  0  0  0
 11 14  1  0  0  0  0
 14 15  1  0  0  0  0
 14 21  2  0  0  0  0
 15 16  1  0  0  0  0
 15 17  2  0  0  0  0
 17 18  1  0  0  0  0
 17 19  1  0  0  0  0
 19 20  1  0  0  0  0
 19 21  1  0  0  0  0
 21 22  1  0  0  0  0
 23 24  2  0  0  0  0
 23 25  1  0  0  0  0
 25 26  1  0  0  0  0
 25 27  1  0  0  0  0
 27 28  1  0  0  0  0
 27 29  1  0  0  0  0
 27 30  1  0  0  0  0
M  CHG  1  15   1
M  END
$$$$

  -OEChem-04042216003D

 30 30  0     1  0  0  0  0  0999 V2000
   -3.2948   -3.8704    1.4703 H   0  0  0  0  0  0  0  0  0  0  0  0
   -3.2663   -3.0418    0.7562 C   0  0  0  0  0  0  0  0  0  0  0  0
   -3.9475   -2.2601    1.1008 H   0  0  0  0  0  0  0  0  0  0  0  0
   -3.6016   -3.4078   -0.2172 H   0  0  0  0  0  0  0  0  0  0  0  0
   -1.8550   -2.4966    0.6505 C   0  0  0  0  0  0  0  0  0  0  0  0
   -0.9562   -2.9890    1.3071 O   0  0  0  0  0  0  0  0  0  0  0  0
   -1.5684   -1.4491   -0.2068 N   0  0  0  0  0  0  0  0  0  0  0  0
   -2.3524   -1.0444   -0.7112 H   0  0  0  0  0  0  0  0  0  0  0  0
   -0.2392   -0.8056   -0.2781 C   0  0  1  0  0  0  0  0  0  0  0  0
    0.4765   -1.6131   -0.4444 H   0  0  0  0  0  0  0  0  0  0  0  0
   -0.1618    0.2162   -1.4404 C   0  0  0  0  0  0  0  0  0  0  0  0
   -1.1779    0.4740   -1.7539 H   0  0  0  0  0  0  0  0  0  0  0  0
    0.3023    1.1423   -1.0797 H   0  0  0  0  0  0  0  0  0  0  0  0
    0.6299   -0.2476   -2.6512 C   0  0  0  0  0  0  0  0  0  0  0  0
    0.5759    0.3724   -3.9035 N   0  3  0  0  0  0  0  0  0  0  0  0
   -0.0071    1.1915   -4.0945 H   0  0  0  0  0  0  0  0  0  0  0  0
    1.3978   -0.2069   -4.7452 C   0  0  0  0  0  0  0  0  0  0  0  0
    1.5717    0.0782   -5.7850 H   0  0  0  0  0  0  0  0  0  0  0  0
    2.0208   -1.2459   -4.0611 N   0  0  0  0  0  0  0  0  0  0  0  0
    2.7365   -1.8721   -4.4438 H   0  0  0  0  0  0  0  0  0  0  0  0
    1.5522   -1.2666   -2.7541 C   0  0  0  0  0  0  0  0  0  0  0  0
    1.8820   -1.9411   -1.9625 H   0  0  0  0  0  0  0  0  0  0  0  0
    0.2530   -0.1599    1.0327 C   0  0  0  0  0  0  0  0  0  0  0  0
    1.4609   -0.0738    1.2000 O   0  0  0  0  0  0  0  0  0  0  0  0
   -0.5944    0.6201    1.7987 N   0  0  0  0  0  0  0  0  0  0  0  0
   -1.5898    0.4536    1.6874 H   0  0  0  0  0  0  0  0  0  0  0  0
   -0.1417    1.3108    3.0037 C   0  0  0  0  0  0  0  0  0  0  0  0
    0.6694    2.0084    2.7673 H   0  0  0  0  0  0  0  0  0  0  0  0
   -0.9637    1.8803    3.4487 H   0  0  0  0  0  0  0  0  0  0  0  0
    0.2223    0.5905    3.7448 H   0  0  0  0  0  0  0  0  0  0  0  0
  1  2  1  0  0  0  0
  2  3  1  0  0  0  0
  2  4  1  0  0  0  0
  2  5  1  0  0  0  0
  5  6  2  0  0  0  0
  5  7  1  0  0  0  0
  7  8  1  0  0  0  0
  7  9  1  0  0  0  0
  9 10  1  0  0  0  0
  9 11  1  0  0  0  0
  9 23  1  0  0  0  0
 11 12  1  0  0  0  0
 11 13  1  0  0  0  0
 11 14  1  0  0  0  0
 14 15  1  0  0  0  0
 14 21  2  0  0  0  0
 15 16  1  0  0  0  0
 15 17  2  0  0  0  0
 17 18  1  0  0  0  0
 17 19  1  0  0  0  0
 19 20  1  0  0  0  0
 19 21  1  0  0  0  0
 21 22  1  0  0  0  0
 23 24  2  0  0  0  0
 23 25  1  0  0  0  0
 25 26  1  0  0  0  0
 25 27  1  0  0  0  0
 27 28  1  0  0  0  0
 27 29  1  0  0  0  0
 27 30  1  0  0  0  0
M  CHG  1  15   1
M  END
$$$$

  -OEChem-04042216003D

 30 30  0     1  0  0  0  0  0999 V2000
   -3.2594   -3.8292    1.5336 H   0  0  0  0  0  0  0  0  0  0  0  0
   -3.2313   -3.0034    0.8164 C   0  0  0  0  0  0  0  0  0  0  0  0
   -3.8662   -2.1961    1.1889 H   0  0  0  0  0  0  0  0  0  0  0  0
   -3.6232   -3.3573   -0.1400 H   0  0  0  0  0  0  0  0  0  0  0  0
   -1.8068   -2.5120    0.6471 C   0  0  0  0  0  0  0  0  0  0  0  0
   -0.8964   -3.0459    1.2524 O   0  0  0  0  0  0  0  0  0  0  0  0
   -1.5199   -1.4719   -0.2189 N   0  0  0  0  0  0  0  0  0  0  0  0
   -2.3145   -1.0234   -0.6669 H   0  0  0  0  0  0  0  0  0  0  0  0
   -0.1928   -0.8228   -0.2802 C   0  0  1  0  0  0  0  0  0  0  0  0
    0.5640   -1.5959   -0.4475 H   0  0  0  0  0  0  0  0  0  0  0  0
   -0.1360    0.2171   -1.4203 C   0  0  0  0  0  0  0  0  0  0  0  0
   -1.1140    0.6953   -1.5318 H   0  0  0  0  0  0  0  0  0  0  0  0
    0.5761    1.0038   -1.1420 H   0  0  0  0  0  0  0  0  0  0  0  0
    0.3224   -0.3489   -2.7511 C   0  0  0  0  0  0  0  0  0  0  0  0
    0.4506    0.4069   -3.9199 N   0  3  0  0  0  0  0  0  0  0  0  0
    0.2799    1.4159   -3.9518 H   0  0  0  0  0  0  0  0  0  0  0  0
    0.8702   -0.3417   -4.9115 C   0  0  0  0  0  0  0  0  0  0  0  0
    1.0802   -0.0115   -5.9311 H   0  0  0  0  0  0  0  0  0  0  0  0
    1.0095   -1.6359   -4.4189 N   0  0  0  0  0  0  0  0  0  0  0  0
    1.3343   -2.4484   -4.9529 H   0  0  0  0  0  0  0  0  0  0  0  0
    0.6652   -1.6433   -3.0732 C   0  0  0  0  0  0  0  0  0  0  0  0
    0.6724   -2.5060   -2.4056 H   0  0  0  0  0  0  0  0  0  0  0  0
    0.2499   -0.1708    1.0470 C   0  0  0  0  0  0  0  0  0  0  0  0
    1.4482   -0.0676    1.2606 O   0  0  0  0  0  0  0  0  0  0  0  0
   -0.6328    0.5999    1.7832 N   0  0  0  0  0  0  0  0  0  0  0  0
   -1.6222    0.4263    1.6379 H   0  0  0  0  0  0  0  0  0  0  0  0
   -0.2272    1.3117    2.9930 C   0  0  0  0  0  0  0  0  0  0  0  0
    0.5540    2.0450    2.7648 H   0  0  0  0  0  0  0  0  0  0  0  0
   -1.0795    1.8437    3.4272 H   0  0  0  0  0  0  0  0  0  0  0  0
    0.1602    0.6101    3.7400 H   0  0  0  0  0  0  0  0  0  0  0  0
  1  2  1  0  0  0  0
  2  3  1  0  0  0  0
  2  4  1  0  0  0  0
  2  5  1  0  0  0  0
  5  6  2  0  0  0  0
  5  7  1  0  0  0  0
  7  8  1  0  0  0  0
  7  9  1  0  0  0  0
  9 10  1  0  0  0  0
  9 11  1  0  0  0  0
  9 23  1  0  0  0  0
 11 12  1  0  0  0  0
 11 13  1  0  0  0  0
 11 14  1  0  0  0  0
 14 15  1  0  0  0  0
 14 21  2  0  0  0  0
 15 16  1  0  0  0  0
 15 17  2  0  0  0  0
 17 18  1  0  0  0  0
 17 19  1  0  0  0  0
 19 20  1  0  0  0  0
 19 21  1  0  0  0  0
 21 22  1  0  0  0  0
 23 24  2  0  0  0  0
 23 25  1  0  0  0  0
 25 26  1  0  0  0  0
 25 27  1  0  0  0  0
 27 28  1  0  0  0  0
 27 29  1  0  0  0  0
 27 30  1  0  0  0  0
M  CHG  1  15   1
M  END
$$$$

  -OEChem-04042216003D

 30 30  0     1  0  0  0  0  0999 V2000
   -3.2470   -3.8286    1.5277 H   0  0  0  0  0  0  0  0  0  0  0  0
   -3.2318   -2.9913    0.8234 C   0  0  0  0  0  0  0  0  0  0  0  0
   -3.8455   -2.1834    1.2288 H   0  0  0  0  0  0  0  0  0  0  0  0
   -3.6579   -3.3251   -0.1257 H   0  0  0  0  0  0  0  0  0  0  0  0
   -1.8074   -2.5133    0.6174 C   0  0  0  0  0  0  0  0  0  0  0  0
   -0.8842   -3.0734    1.1778 O   0  0  0  0  0  0  0  0  0  0  0  0
   -1.5346   -1.4603   -0.2374 N   0  0  0  0  0  0  0  0  0  0  0  0
   -2.3406   -0.9823   -0.6320 H   0  0  0  0  0  0  0  0  0  0  0  0
   -0.2092   -0.8069   -0.3000 C   0  0  1  0  0  0  0  0  0  0  0  0
    0.5481   -1.5769   -0.4875 H   0  0  0  0  0  0  0  0  0  0  0  0
   -0.1609    0.2396   -1.4329 C   0  0  0  0  0  0  0  0  0  0  0  0
   -1.1368    0.7222   -1.5444 H   0  0  0  0  0  0  0  0  0  0  0  0
    0.5552    1.0215   -1.1517 H   0  0  0  0  0  0  0  0  0  0  0  0
    0.2954   -0.3351   -2.7590 C   0  0  0  0  0  0  0  0  0  0  0  0
    0.7117    0.4277   -3.8531 N   0  3  0  0  0  0  0  0  0  0  0  0
    0.7650    1.4499   -3.8314 H   0  0  0  0  0  0  0  0  0  0  0  0
    1.0732   -0.3494   -4.8456 C   0  0  0  0  0  0  0  0  0  0  0  0
    1.4622   -0.0276   -5.8139 H   0  0  0  0  0  0  0  0  0  0  0  0
    0.8818   -1.6643   -4.4297 N   0  0  0  0  0  0  0  0  0  0  0  0
    1.0927   -2.5030   -4.9799 H   0  0  0  0  0  0  0  0  0  0  0  0
    0.3971   -1.6569   -3.1278 C   0  0  0  0  0  0  0  0  0  0  0  0
    0.1554   -2.5254   -2.5129 H   0  0  0  0  0  0  0  0  0  0  0  0
    0.2469   -0.1712    1.0306 C   0  0  0  0  0  0  0  0  0  0  0  0
    1.4472   -0.0659    1.2320 O   0  0  0  0  0  0  0  0  0  0  0  0
   -0.6296    0.5884    1.7855 N   0  0  0  0  0  0  0  0  0  0  0  0
   -1.6205    0.4201    1.6451 H   0  0  0  0  0  0  0  0  0  0  0  0
   -0.2140    1.2883    2.9986 C   0  0  0  0  0  0  0  0  0  0  0  0
    0.5634    2.0260    2.7712 H   0  0  0  0  0  0  0  0  0  0  0  0
   -1.0635    1.8136    3.4465 H   0  0  0  0  0  0  0  0  0  0  0  0
    0.1815    0.5794    3.7346 H   0  0  0  0  0  0  0  0  0  0  0  0
  1  2  1  0  0  0  0
  2  3  1  0  0  0  0
  2  4  1  0  0  0  0
  2  5  1  0  0  0  0
  5  6  2  0  0  0  0
  5  7  1  0  0  0  0
  7  8  1  0  0  0  0
  7  9  1  0  0  0  0
  9 10  1  0  0  0  0
  9 11  1  0  0  0  0
  9 23  1  0  0  0  0
 11 12  1  0  0  0  0
 11 13  1  0  0  0  0
 11 14  1  0  0  0  0
 14 15  1  0  0  0  0
 14 21  2  0  0  0  0
 15 16  1  0  0  0  0
 15 17  2  0  0  0  0
 17 18  1  0  0  0  0
 17 19  1  0  0  0  0
 19 20  1  0  0  0  0
 19 21  1  0  0  0  0
 21 22  1  0  0  0  0
 23 24  2  0  0  0  0
 23 25  1  0  0  0  0
 25 26  1  0  0  0  0
 25 27  1  0  0  0  0
 27 28  1  0  0  0  0
 27 29  1  0  0  0  0
 27 30  1  0  0  0  0
M  CHG  1  15   1
M  END
$$$$

  -OEChem-04042216003D

 30 30  0     1  0  0  0  0  0999 V2000
   -3.2318   -3.8386    1.5058 H   0  0  0  0  0  0  0  0  0  0  0  0
   -3.2306   -2.9836    0.8229 C   0  0  0  0  0  0  0  0  0  0  0  0
   -3.8234   -2.1812    1.2682 H   0  0  0  0  0  0  0  0  0  0  0  0
   -3.6896   -3.2888   -0.1205 H   0  0  0  0  0  0  0  0  0  0  0  0
   -1.8087   -2.5133    0.5845 C   0  0  0  0  0  0  0  0  0  0  0  0
   -0.8748   -3.0915    1.1075 O   0  0  0  0  0  0  0  0  0  0  0  0
   -1.5514   -1.4467   -0.2586 N   0  0  0  0  0  0  0  0  0  0  0  0
   -2.3661   -0.9447   -0.6025 H   0  0  0  0  0  0  0  0  0  0  0  0
   -0.2278   -0.7885   -0.3217 C   0  0  1  0  0  0  0  0  0  0  0  0
    0.5272   -1.5562   -0.5322 H   0  0  0  0  0  0  0  0  0  0  0  0
   -0.1866    0.2679   -1.4444 C   0  0  0  0  0  0  0  0  0  0  0  0
   -1.1619    0.7522   -1.5549 H   0  0  0  0  0  0  0  0  0  0  0  0
    0.5294    1.0484   -1.1598 H   0  0  0  0  0  0  0  0  0  0  0  0
    0.2684   -0.3124   -2.7662 C   0  0  0  0  0  0  0  0  0  0  0  0
    0.9579    0.3916   -3.7562 N   0  3  0  0  0  0  0  0  0  0  0  0
    1.2180    1.3773   -3.6603 H   0  0  0  0  0  0  0  0  0  0  0  0
    1.2624   -0.4011   -4.7555 C   0  0  0  0  0  0  0  0  0  0  0  0
    1.8167   -0.1267   -5.6555 H   0  0  0  0  0  0  0  0  0  0  0  0
    0.7607   -1.6634   -4.4480 N   0  0  0  0  0  0  0  0  0  0  0  0
    0.8592   -2.5036   -5.0267 H   0  0  0  0  0  0  0  0  0  0  0  0
    0.1477   -1.6110   -3.2021 C   0  0  0  0  0  0  0  0  0  0  0  0
   -0.3187   -2.4358   -2.6609 H   0  0  0  0  0  0  0  0  0  0  0  0
    0.2421   -0.1701    1.0117 C   0  0  0  0  0  0  0  0  0  0  0  0
    1.4446   -0.0658    1.2006 O   0  0  0  0  0  0  0  0  0  0  0  0
   -0.6261    0.5781    1.7872 N   0  0  0  0  0  0  0  0  0  0  0  0
   -1.6192    0.4217    1.6492 H   0  0  0  0  0  0  0  0  0  0  0  0
   -0.1968    1.2632    3.0040 C   0  0  0  0  0  0  0  0  0  0  0  0
    0.6017    1.9799    2.7824 H   0  0  0  0  0  0  0  0  0  0  0  0
   -1.0333    1.8105    3.4498 H   0  0  0  0  0  0  0  0  0  0  0  0
    0.1761    0.5414    3.7390 H   0  0  0  0  0  0  0  0  0  0  0  0
  1  2  1  0  0  0  0
  2  3  1  0  0  0  0
  2  4  1  0  0  0  0
  2  5  1  0  0  0  0
  5  6  2  0  0  0  0
  5  7  1  0  0  0  0
  7  8  1  0  0  0  0
  7  9  1  0  0  0  0
  9 10  1  0  0  0  0
  9 11  1  0  0  0  0
  9 23  1  0  0  0  0
 11 12  1  0  0  0  0
 11 13  1  0  0  0  0
 11 14  1  0  0  0  0
 14 15  1  0  0  0  0
 14 21  2  0  0  0  0
 15 16  1  0  0  0  0
 15 17  2  0  0  0  0
 17 18  1  0  0  0  0
 17 19  1  0  0  0  0
 19 20  1  0  0  0  0
 19 21  1  0  0  0  0
 21 22  1  0  0  0  0
 23 24  2  0  0  0  0
 23 25  1  0  0  0  0
 25 26  1  0  0  0  0
 25 27  1  0  0  0  0
 27 28  1  0  0  0  0
 27 29  1  0  0  0  0
 27 30  1  0  0  0  0
M  CHG  1  15   1
M  END
$$$$

  -OEChem-04042216003D

 30 30  0     1  0  0  0  0  0999 V2000
   -3.2247   -3.8412    1.4796 H   0  0  0  0  0  0  0  0  0  0  0  0
   -3.2301   -2.9816    0.8025 C   0  0  0  0  0  0  0  0  0  0  0  0
   -3.8180   -2.1820    1.2593 H   0  0  0  0  0  0  0  0  0  0  0  0
   -3.6990   -3.2803   -0.1380 H   0  0  0  0  0  0  0  0  0  0  0  0
   -1.8106   -2.5096    0.5527 C   0  0  0  0  0  0  0  0  0  0  0  0
   -0.8715   -3.0922    1.0610 O   0  0  0  0  0  0  0  0  0  0  0  0
   -1.5643   -1.4291   -0.2758 N   0  0  0  0  0  0  0  0  0  0  0  0
   -2.3844   -0.9155   -0.5886 H   0  0  0  0  0  0  0  0  0  0  0  0
   -0.2427   -0.7659   -0.3374 C   0  0  1  0  0  0  0  0  0  0  0  0
    0.5077   -1.5333   -0.5667 H   0  0  0  0  0  0  0  0  0  0  0  0
   -0.2044    0.2987   -1.4516 C   0  0  0  0  0  0  0  0  0  0  0  0
   -1.1821    0.7776   -1.5651 H   0  0  0  0  0  0  0  0  0  0  0  0
    0.5050    1.0833   -1.1630 H   0  0  0  0  0  0  0  0  0  0  0  0
    0.2535   -0.2866   -2.7688 C   0  0  0  0  0  0  0  0  0  0  0  0
    1.1863    0.2942   -3.6312 N   0  3  0  0  0  0  0  0  0  0  0  0
    1.6399    1.1921   -3.4392 H   0  0  0  0  0  0  0  0  0  0  0  0
    1.4251   -0.4983   -4.6483 C   0  0  0  0  0  0  0  0  0  0  0  0
    2.1229   -0.3102   -5.4669 H   0  0  0  0  0  0  0  0  0  0  0  0
    0.6364   -1.6339   -4.4800 N   0  0  0  0  0  0  0  0  0  0  0  0
    0.6236   -2.4497   -5.1003 H   0  0  0  0  0  0  0  0  0  0  0  0
   -0.0854   -1.5081   -3.2990 C   0  0  0  0  0  0  0  0  0  0  0  0
   -0.7634   -2.2390   -2.8571 H   0  0  0  0  0  0  0  0  0  0  0  0
    0.2422   -0.1648    0.9985 C   0  0  0  0  0  0  0  0  0  0  0  0
    1.4471   -0.0538    1.1689 O   0  0  0  0  0  0  0  0  0  0  0  0
   -0.6178    0.5712    1.7946 N   0  0  0  0  0  0  0  0  0  0  0  0
   -1.6118    0.4084    1.6714 H   0  0  0  0  0  0  0  0  0  0  0  0
   -0.1747    1.2450    3.0129 C   0  0  0  0  0  0  0  0  0  0  0  0
    0.6061    1.9793    2.7863 H   0  0  0  0  0  0  0  0  0  0  0  0
   -1.0115    1.7704    3.4840 H   0  0  0  0  0  0  0  0  0  0  0  0
    0.2257    0.5189    3.7290 H   0  0  0  0  0  0  0  0  0  0  0  0
  1  2  1  0  0  0  0
  2  3  1  0  0  0  0
  2  4  1  0  0  0  0
  2  5  1  0  0  0  0
  5  6  2  0  0  0  0
  5  7  1  0  0  0  0
  7  8  1  0  0  0  0
  7  9  1  0  0  0  0
  9 10  1  0  0  0  0
  9 11  1  0  0  0  0
  9 23  1  0  0  0  0
 11 12  1  0  0  0  0
 11 13  1  0  0  0  0
 11 14  1  0  0  0  0
 14 15  1  0  0  0  0
 14 21  2  0  0  0  0
 15 16  1  0  0  0  0
 15 17  2  0  0  0  0
 17 18  1  0  0  0  0
 17 19  1  0  0  0  0
 19 20  1  0  0  0  0
 19 21  1  0  0  0  0
 21 22  1  0  0  0  0
 23 24  2  0  0  0  0
 23 25  1  0  0  0  0
 25 26  1  0  0  0  0
 25 27  1  0  0  0  0
 27 28  1  0  0  0  0
 27 29  1  0  0  0  0
 27 30  1  0  0  0  0
M  CHG  1  15   1
M  END
$$$$

  -OEChem-04042216003D

 30 30  0     1  0  0  0  0  0999 V2000
   -3.1997   -3.8681    1.4424 H   0  0  0  0  0  0  0  0  0  0  0  0
   -3.2185   -2.9972    0.7802 C   0  0  0  0  0  0  0  0  0  0  0  0
   -3.8106   -2.2115    1.2550 H   0  0  0  0  0  0  0  0  0  0  0  0
   -3.6915   -3.2843   -0.1619 H   0  0  0  0  0  0  0  0  0  0  0  0
   -1.8053   -2.5078    0.5280 C   0  0  0  0  0  0  0  0  0  0  0  0
   -0.8586   -3.0861    1.0275 O   0  0  0  0  0  0  0  0  0  0  0  0
   -1.5744   -1.4141   -0.2882 N   0  0  0  0  0  0  0  0  0  0  0  0
   -2.4010   -0.8961   -0.5752 H   0  0  0  0  0  0  0  0  0  0  0  0
   -0.2576   -0.7413   -0.3481 C   0  0  1  0  0  0  0  0  0  0  0  0
    0.4900   -1.5082   -0.5891 H   0  0  0  0  0  0  0  0  0  0  0  0
   -0.2161    0.3276   -1.4563 C   0  0  0  0  0  0  0  0  0  0  0  0
   -1.1992    0.7927   -1.5804 H   0  0  0  0  0  0  0  0  0  0  0  0
    0.4798    1.1246   -1.1683 H   0  0  0  0  0  0  0  0  0  0  0  0
    0.2530   -0.2723   -2.7603 C   0  0  0  0  0  0  0  0  0  0  0  0
    1.3872    0.1266   -3.4704 N   0  3  0  0  0  0  0  0  0  0  0  0
    2.0099    0.8751   -3.1516 H   0  0  0  0  0  0  0  0  0  0  0  0
    1.5579   -0.6366   -4.5227 C   0  0  0  0  0  0  0  0  0  0  0  0
    2.3731   -0.5693   -5.2462 H   0  0  0  0  0  0  0  0  0  0  0  0
    0.5155   -1.5609   -4.5351 N   0  0  0  0  0  0  0  0  0  0  0  0
    0.3893   -2.3090   -5.2242 H   0  0  0  0  0  0  0  0  0  0  0  0
   -0.2941   -1.3406   -3.4268 C   0  0  0  0  0  0  0  0  0  0  0  0
   -1.1699   -1.9134   -3.1223 H   0  0  0  0  0  0  0  0  0  0  0  0
    0.2406   -0.1520    0.9872 C   0  0  0  0  0  0  0  0  0  0  0  0
    1.4475   -0.0312    1.1373 O   0  0  0  0  0  0  0  0  0  0  0  0
   -0.6120    0.5717    1.8022 N   0  0  0  0  0  0  0  0  0  0  0  0
   -1.6067    0.4022    1.6941 H   0  0  0  0  0  0  0  0  0  0  0  0
   -0.1542    1.2389    3.0190 C   0  0  0  0  0  0  0  0  0  0  0  0
    0.6472    1.9506    2.7918 H   0  0  0  0  0  0  0  0  0  0  0  0
   -0.9770    1.7898    3.4852 H   0  0  0  0  0  0  0  0  0  0  0  0
    0.2244    0.5055    3.7395 H   0  0  0  0  0  0  0  0  0  0  0  0
  1  2  1  0  0  0  0
  2  3  1  0  0  0  0
  2  4  1  0  0  0  0
  2  5  1  0  0  0  0
  5  6  2  0  0  0  0
  5  7  1  0  0  0  0
  7  8  1  0  0  0  0
  7  9  1  0  0  0  0
  9 10  1  0  0  0  0
  9 11  1  0  0  0  0
  9 23  1  0  0  0  0
 11 12  1  0  0  0  0
 11 13  1  0  0  0  0
 11 14  1  0  0  0  0
 14 15  1  0  0  0  0
 14 21  2  0  0  0  0
 15 16  1  0  0  0  0
 15 17  2  0  0  0  0
 17 18  1  0  0  0  0
 17 19  1  0  0  0  0
 19 20  1  0  0  0  0
 19 21  1  0  0  0  0
 21 22  1  0  0  0  0
 23 24  2  0  0  0  0
 23 25  1  0  0  0  0
 25 26  1  0  0  0  0
 25 27  1  0  0  0  0
 27 28  1  0  0  0  0
 27 29  1  0  0  0  0
 27 30  1  0  0  0  0
M  CHG  1  15   1
M  END
$$$$

  -OEChem-04042216003D

 30 30  0     1  0  0  0  0  0999 V2000
   -3.1983   -3.8839    1.4350 H   0  0  0  0  0  0  0  0  0  0  0  0
   -3.2170   -3.0220    0.7612 C   0  0  0  0  0  0  0  0  0  0  0  0
   -3.8336   -2.2408    1.2117 H   0  0  0  0  0  0  0  0  0  0  0  0
   -3.6633   -3.3299   -0.1872 H   0  0  0  0  0  0  0  0  0  0  0  0
   -1.8070   -2.5114    0.5341 C   0  0  0  0  0  0  0  0  0  0  0  0
   -0.8616   -3.0707    1.0575 O   0  0  0  0  0  0  0  0  0  0  0  0
   -1.5785   -1.4153   -0.2795 N   0  0  0  0  0  0  0  0  0  0  0  0
   -2.4059   -0.9104   -0.5856 H   0  0  0  0  0  0  0  0  0  0  0  0
   -0.2643   -0.7388   -0.3405 C   0  0  1  0  0  0  0  0  0  0  0  0
    0.4795   -1.5092   -0.5819 H   0  0  0  0  0  0  0  0  0  0  0  0
   -0.2167    0.3278   -1.4500 C   0  0  0  0  0  0  0  0  0  0  0  0
   -1.2054    0.7781   -1.5833 H   0  0  0  0  0  0  0  0  0  0  0  0
    0.4667    1.1379   -1.1687 H   0  0  0  0  0  0  0  0  0  0  0  0
    0.2601   -0.2886   -2.7413 C   0  0  0  0  0  0  0  0  0  0  0  0
    1.5340   -0.1163   -3.2859 N   0  3  0  0  0  0  0  0  0  0  0  0
    2.2716    0.4208   -2.8187 H   0  0  0  0  0  0  0  0  0  0  0  0
    1.6471   -0.7955   -4.4014 C   0  0  0  0  0  0  0  0  0  0  0  0
    2.5380   -0.8663   -5.0291 H   0  0  0  0  0  0  0  0  0  0  0  0
    0.4223   -1.4203   -4.6289 N   0  0  0  0  0  0  0  0  0  0  0  0
    0.2043   -2.0348   -5.4197 H   0  0  0  0  0  0  0  0  0  0  0  0
   -0.4457   -1.1042   -3.5893 C   0  0  0  0  0  0  0  0  0  0  0  0
   -1.4721   -1.4450   -3.4575 H   0  0  0  0  0  0  0  0  0  0  0  0
    0.2442   -0.1474    0.9893 C   0  0  0  0  0  0  0  0  0  0  0  0
    1.4529   -0.0160    1.1190 O   0  0  0  0  0  0  0  0  0  0  0  0
   -0.6017    0.5759    1.8110 N   0  0  0  0  0  0  0  0  0  0  0  0
   -1.5964    0.3953    1.7200 H   0  0  0  0  0  0  0  0  0  0  0  0
   -0.1315    1.2568    3.0151 C   0  0  0  0  0  0  0  0  0  0  0  0
    0.6421    1.9916    2.7663 H   0  0  0  0  0  0  0  0  0  0  0  0
   -0.9577    1.7832    3.5034 H   0  0  0  0  0  0  0  0  0  0  0  0
    0.2877    0.5353    3.7249 H   0  0  0  0  0  0  0  0  0  0  0  0
  1  2  1  0  0  0  0
  2  3  1  0  0  0  0
  2  4  1  0  0  0  0
  2  5  1  0  0  0  0
  5  6  2  0  0  0  0
  5  7  1  0  0  0  0
  7  8  1  0  0  0  0
  7  9  1  0  0  0  0
  9 10  1  0  0  0  0
  9 11  1  0  0  0  0
  9 23  1  0  0  0  0
 11 12  1  0  0  0  0
 11 13  1  0  0  0  0
 11 14  1  0  0  0  0
 14 15  1  0  0  0  0
 14 21  2  0  0  0  0
 15 16  1  0  0  0  0
 15 17  2  0  0  0  0
 17 18  1  0  0  0  0
 17 19  1  0  0  0  0
 19 20  1  0  0  0  0
 19 21  1  0  0  0  0
 21 22  1  0  0  0  0
 23 24  2  0  0  0  0
 23 25  1  0  0  0  0
 25 26  1  0  0  0  0
 25 27  1  0  0  0  0
 27 28  1  0  0  0  0
 27 29  1  0  0  0  0
 27 30  1  0  0  0  0
M  CHG  1  15   1
M  END
$$$$

  -OEChem-04042216003D

 30 30  0     1  0  0  0  0  0999 V2000
   -3.2009   -3.9053    1.4267 H   0  0  0  0  0  0  0  0  0  0  0  0
   -3.2206   -3.0465    0.7491 C   0  0  0  0  0  0  0  0  0  0  0  0
   -3.8614   -2.2749    1.1822 H   0  0  0  0  0  0  0  0  0  0  0  0
   -3.6397   -3.3663   -0.2077 H   0  0  0  0  0  0  0  0  0  0  0  0
   -1.8156   -2.5111    0.5505 C   0  0  0  0  0  0  0  0  0  0  0  0
   -0.8718   -3.0500    1.0981 O   0  0  0  0  0  0  0  0  0  0  0  0
   -1.5894   -1.4154   -0.2639 N   0  0  0  0  0  0  0  0  0  0  0  0
   -2.4157   -0.9338   -0.6074 H   0  0  0  0  0  0  0  0  0  0  0  0
   -0.2779   -0.7372   -0.3348 C   0  0  1  0  0  0  0  0  0  0  0  0
    0.4602   -1.5127   -0.5769 H   0  0  0  0  0  0  0  0  0  0  0  0
   -0.2306    0.3240   -1.4491 C   0  0  0  0  0  0  0  0  0  0  0  0
   -1.2209    0.7705   -1.5816 H   0  0  0  0  0  0  0  0  0  0  0  0
    0.4522    1.1383   -1.1780 H   0  0  0  0  0  0  0  0  0  0  0  0
    0.2446   -0.3046   -2.7337 C   0  0  0  0  0  0  0  0  0  0  0  0
    1.5843   -0.3851   -3.1174 N   0  3  0  0  0  0  0  0  0  0  0  0
    2.3548   -0.0712   -2.5176 H   0  0  0  0  0  0  0  0  0  0  0  0
    1.6870   -0.9668   -4.2874 C   0  0  0  0  0  0  0  0  0  0  0  0
    2.6138   -1.1846   -4.8227 H   0  0  0  0  0  0  0  0  0  0  0  0
    0.3934   -1.2621   -4.7148 N   0  0  0  0  0  0  0  0  0  0  0  0
    0.1480   -1.7223   -5.5969 H   0  0  0  0  0  0  0  0  0  0  0  0
   -0.5110   -0.8421   -3.7448 C   0  0  0  0  0  0  0  0  0  0  0  0
   -1.5973   -0.9231   -3.7739 H   0  0  0  0  0  0  0  0  0  0  0  0
    0.2462   -0.1414    0.9860 C   0  0  0  0  0  0  0  0  0  0  0  0
    1.4575   -0.0100    1.0944 O   0  0  0  0  0  0  0  0  0  0  0  0
   -0.5878    0.5846    1.8172 N   0  0  0  0  0  0  0  0  0  0  0  0
   -1.5837    0.4029    1.7407 H   0  0  0  0  0  0  0  0  0  0  0  0
   -0.1002    1.2664    3.0138 C   0  0  0  0  0  0  0  0  0  0  0  0
    0.6681    2.0024    2.7524 H   0  0  0  0  0  0  0  0  0  0  0  0
   -0.9195    1.7915    3.5150 H   0  0  0  0  0  0  0  0  0  0  0  0
    0.3318    0.5460    3.7171 H   0  0  0  0  0  0  0  0  0  0  0  0
  1  2  1  0  0  0  0
  2  3  1  0  0  0  0
  2  4  1  0  0  0  0
  2  5  1  0  0  0  0
  5  6  2  0  0  0  0
  5  7  1  0  0  0  0
  7  8  1  0  0  0  0
  7  9  1  0  0  0  0
  9 10  1  0  0  0  0
  9 11  1  0  0  0  0
  9 23  1  0  0  0  0
 11 12  1  0  0  0  0
 11 13  1  0  0  0  0
 11 14  1  0  0  0  0
 14 15  1  0  0  0  0
 14 21  2  0  0  0  0
 15 16  1  0  0  0  0
 15 17  2  0  0  0  0
 17 18  1  0  0  0  0
 17 19  1  0  0  0  0
 19 20  1  0  0  0  0
 19 21  1  0  0  0  0
 21 22  1  0  0  0  0
 23 24  2  0  0  0  0
 23 25  1  0  0  0  0
 25 26  1  0  0  0  0
 25 27  1  0  0  0  0
 27 28  1  0  0  0  0
 27 29  1  0  0  0  0
 27 30  1  0  0  0  0
M  CHG  1  15   1
M  END
$$$$

  -OEChem-04042216003D

 30 30  0     1  0  0  0  0  0999 V2000
   -3.2088   -3.9139    1.4099 H   0  0  0  0  0  0  0  0  0  0  0  0
   -3.2258   -3.0582    0.7282 C   0  0  0  0  0  0  0  0  0  0  0  0
   -3.8819   -2.2915    1.1467 H   0  0  0  0  0  0  0  0  0  0  0  0
   -3.6248   -3.3866   -0.2344 H   0  0  0  0  0  0  0  0  0  0  0  0
   -1.8236   -2.5080    0.5517 C   0  0  0  0  0  0  0  0  0  0  0  0
   -0.8815   -3.0368    1.1124 O   0  0  0  0  0  0  0  0  0  0  0  0
   -1.5970   -1.4092   -0.2580 N   0  0  0  0  0  0  0  0  0  0  0  0
   -2.4205   -0.9462   -0.6322 H   0  0  0  0  0  0  0  0  0  0  0  0
   -0.2866   -0.7303   -0.3317 C   0  0  1  0  0  0  0  0  0  0  0  0
    0.4468   -1.5093   -0.5737 H   0  0  0  0  0  0  0  0  0  0  0  0
   -0.2434    0.3298   -1.4486 C   0  0  0  0  0  0  0  0  0  0  0  0
   -1.2321    0.7814   -1.5771 H   0  0  0  0  0  0  0  0  0  0  0  0
    0.4453    1.1405   -1.1812 H   0  0  0  0  0  0  0  0  0  0  0  0
    0.2303   -0.2985   -2.7340 C   0  0  0  0  0  0  0  0  0  0  0  0
    1.5583   -0.6467   -2.9886 N   0  3  0  0  0  0  0  0  0  0  0  0
    2.3058   -0.5353   -2.2946 H   0  0  0  0  0  0  0  0  0  0  0  0
    1.6732   -1.1475   -4.1942 C   0  0  0  0  0  0  0  0  0  0  0  0
    2.5913   -1.5166   -4.6568 H   0  0  0  0  0  0  0  0  0  0  0  0
    0.4049   -1.1213   -4.7723 N   0  0  0  0  0  0  0  0  0  0  0  0
    0.1748   -1.4439   -5.7174 H   0  0  0  0  0  0  0  0  0  0  0  0
   -0.4984   -0.5831   -3.8610 C   0  0  0  0  0  0  0  0  0  0  0  0
   -1.5654   -0.4161   -4.0079 H   0  0  0  0  0  0  0  0  0  0  0  0
    0.2478   -0.1371    0.9853 C   0  0  0  0  0  0  0  0  0  0  0  0
    1.4613   -0.0184    1.0855 O   0  0  0  0  0  0  0  0  0  0  0  0
   -0.5767    0.5881    1.8258 N   0  0  0  0  0  0  0  0  0  0  0  0
   -1.5741    0.4122    1.7546 H   0  0  0  0  0  0  0  0  0  0  0  0
   -0.0769    1.2629    3.0211 C   0  0  0  0  0  0  0  0  0  0  0  0
    0.6770    2.0116    2.7543 H   0  0  0  0  0  0  0  0  0  0  0  0
   -0.8940    1.7716    3.5425 H   0  0  0  0  0  0  0  0  0  0  0  0
    0.3759    0.5404    3.7091 H   0  0  0  0  0  0  0  0  0  0  0  0
  1  2  1  0  0  0  0
  2  3  1  0  0  0  0
  2  4  1  0  0  0  0
  2  5  1  0  0  0  0
  5  6  2  0  0  0  0
  5  7  1  0  0  0  0
  7  8  1  0  0  0  0
  7  9  1  0  0  0  0
  9 10  1  0  0  0  0
  9 11  1  0  0  0  0
  9 23  1  0  0  0  0
 11 12  1  0  0  0  0
 11 13  1  0  0  0  0
 11 14  1  0  0  0  0
 14 15  1  0  0  0  0
 14 21  2  0  0  0  0
 15 16  1  0  0  0  0
 15 17  2  0  0  0  0
 17 18  1  0  0  0  0
 17 19  1  0  0  0  0
 19 20  1  0  0  0  0
 19 21  1  0  0  0  0
 21 22  1  0  0  0  0
 23 24  2  0  0  0  0
 23 25  1  0  0  0  0
 25 26  1  0  0  0  0
 25 27  1  0  0  0  0
 27 28  1  0  0  0  0
 27 29  1  0  0  0  0
 27 30  1  0  0  0  0
M  CHG  1  15   1
M  END
$$$$

  -OEChem-04042216003D

 30 30  0     1  0  0  0  0  0999 V2000
   -3.2151   -3.9111    1.3934 H   0  0  0  0  0  0  0  0  0  0  0  0
   -3.2231   -3.0527    0.7150 C   0  0  0  0  0  0  0  0  0  0  0  0
   -3.8870   -2.2889    1.1262 H   0  0  0  0  0  0  0  0  0  0  0  0
   -3.6057   -3.3772   -0.2555 H   0  0  0  0  0  0  0  0  0  0  0  0
   -1.8196   -2.4987    0.5634 C   0  0  0  0  0  0  0  0  0  0  0  0
   -0.8864   -3.0215    1.1444 O   0  0  0  0  0  0  0  0  0  0  0  0
   -1.5789   -1.4079   -0.2526 N   0  0  0  0  0  0  0  0  0  0  0  0
   -2.3923   -0.9617   -0.6674 H   0  0  0  0  0  0  0  0  0  0  0  0
   -0.2656   -0.7350   -0.3211 C   0  0  1  0  0  0  0  0  0  0  0  0
    0.4673   -1.5165   -0.5513 H   0  0  0  0  0  0  0  0  0  0  0  0
   -0.2244    0.3236   -1.4412 C   0  0  0  0  0  0  0  0  0  0  0  0
   -1.2085    0.7876   -1.5609 H   0  0  0  0  0  0  0  0  0  0  0  0
    0.4751    1.1245   -1.1717 H   0  0  0  0  0  0  0  0  0  0  0  0
    0.2454   -0.2893   -2.7376 C   0  0  0  0  0  0  0  0  0  0  0  0
    1.4852   -0.9060   -2.9258 N   0  3  0  0  0  0  0  0  0  0  0  0
    2.1845   -0.9908   -2.1796 H   0  0  0  0  0  0  0  0  0  0  0  0
    1.6018   -1.3250   -4.1620 C   0  0  0  0  0  0  0  0  0  0  0  0
    2.4629   -1.8416   -4.5915 H   0  0  0  0  0  0  0  0  0  0  0  0
    0.4240   -0.9838   -4.8245 N   0  0  0  0  0  0  0  0  0  0  0  0
    0.2182   -1.1740   -5.8103 H   0  0  0  0  0  0  0  0  0  0  0  0
   -0.4231   -0.3306   -3.9352 C   0  0  0  0  0  0  0  0  0  0  0  0
   -1.4144    0.0725   -4.1423 H   0  0  0  0  0  0  0  0  0  0  0  0
    0.2525   -0.1356    0.9996 C   0  0  0  0  0  0  0  0  0  0  0  0
    1.4650   -0.0372    1.1257 O   0  0  0  0  0  0  0  0  0  0  0  0
   -0.5816    0.5968    1.8243 N   0  0  0  0  0  0  0  0  0  0  0  0
   -1.5795    0.4351    1.7286 H   0  0  0  0  0  0  0  0  0  0  0  0
   -0.1016    1.2584    3.0349 C   0  0  0  0  0  0  0  0  0  0  0  0
    0.6673    1.9993    2.7907 H   0  0  0  0  0  0  0  0  0  0  0  0
   -0.9242    1.7736    3.5406 H   0  0  0  0  0  0  0  0  0  0  0  0
    0.3263    0.5260    3.7283 H   0  0  0  0  0  0  0  0  0  0  0  0
  1  2  1  0  0  0  0
  2  3  1  0  0  0  0
  2  4  1  0  0  0  0
  2  5  1  0  0  0  0
  5  6  2  0  0  0  0
  5  7  1  0  0  0  0
  7  8  1  0  0  0  0
  7  9  1  0  0  0  0
  9 10  1  0  0  0  0
  9 11  1  0  0  0  0
  9 23  1  0  0  0  0
 11 12  1  0  0  0  0
 11 13  1  0  0  0  0
 11 14  1  0  0  0  0
 14 15  1  0  0  0  0
 14 21  2  0  0  0  0
 15 16  1  0  0  0  0
 15 17  2  0  0  0  0
 17 18  1  0  0  0  0
 17 19  1  0  0  0  0
 19 20  1  0  0  0  0
 19 21  1  0  0  0  0
 21 22  1  0  0  0  0
 23 24  2  0  0  0  0
 23 25  1  0  0  0  0
 25 26  1  0  0  0  0
 25 27  1  0  0  0  0
 27 28  1  0  0  0  0
 27 29  1  0  0  0  0
 27 30  1  0  0  0  0
M  CHG  1  15   1
M  END
$$$$

  -OEChem-04042216003D

 30 30  0     1  0  0  0  0  0999 V2000
   -3.2267   -3.9018    1.4104 H   0  0  0  0  0  0  0  0  0  0  0  0
   -3.2279   -3.0458    0.7289 C   0  0  0  0  0  0  0  0  0  0  0  0
   -3.8863   -2.2754    1.1371 H   0  0  0  0  0  0  0  0  0  0  0  0
   -3.6130   -3.3710   -0.2404 H   0  0  0  0  0  0  0  0  0  0  0  0
   -1.8199   -2.5036    0.5760 C   0  0  0  0  0  0  0  0  0  0  0  0
   -0.8911   -3.0312    1.1600 O   0  0  0  0  0  0  0  0  0  0  0  0
   -1.5677   -1.4215   -0.2485 N   0  0  0  0  0  0  0  0  0  0  0  0
   -2.3762   -0.9735   -0.6714 H   0  0  0  0  0  0  0  0  0  0  0  0
   -0.2518   -0.7530   -0.3072 C   0  0  1  0  0  0  0  0  0  0  0  0
    0.4834   -1.5362   -0.5173 H   0  0  0  0  0  0  0  0  0  0  0  0
   -0.2040    0.2990   -1.4351 C   0  0  0  0  0  0  0  0  0  0  0  0
   -1.1830    0.7740   -1.5542 H   0  0  0  0  0  0  0  0  0  0  0  0
    0.5022    1.0917   -1.1585 H   0  0  0  0  0  0  0  0  0  0  0  0
    0.2717   -0.2948   -2.7417 C   0  0  0  0  0  0  0  0  0  0  0  0
    1.3617   -1.1555   -2.9066 N   0  3  0  0  0  0  0  0  0  0  0  0
    1.9676   -1.4429   -2.1304 H   0  0  0  0  0  0  0  0  0  0  0  0
    1.5050   -1.4754   -4.1693 C   0  0  0  0  0  0  0  0  0  0  0  0
    2.2795   -2.1207   -4.5894 H   0  0  0  0  0  0  0  0  0  0  0  0
    0.4909   -0.8306   -4.8741 N   0  0  0  0  0  0  0  0  0  0  0  0
    0.3449   -0.8794   -5.8874 H   0  0  0  0  0  0  0  0  0  0  0  0
   -0.2788   -0.0906   -3.9827 C   0  0  0  0  0  0  0  0  0  0  0  0
   -1.1406    0.5347   -4.2171 H   0  0  0  0  0  0  0  0  0  0  0  0
    0.2468   -0.1433    1.0172 C   0  0  0  0  0  0  0  0  0  0  0  0
    1.4570   -0.0599    1.1696 O   0  0  0  0  0  0  0  0  0  0  0  0
   -0.5968    0.5983    1.8241 N   0  0  0  0  0  0  0  0  0  0  0  0
   -1.5940    0.4433    1.7128 H   0  0  0  0  0  0  0  0  0  0  0  0
   -0.1313    1.2705    3.0346 C   0  0  0  0  0  0  0  0  0  0  0  0
    0.6611    1.9884    2.7961 H   0  0  0  0  0  0  0  0  0  0  0  0
   -0.9535    1.8150    3.5096 H   0  0  0  0  0  0  0  0  0  0  0  0
    0.2619    0.5413    3.7517 H   0  0  0  0  0  0  0  0  0  0  0  0
  1  2  1  0  0  0  0
  2  3  1  0  0  0  0
  2  4  1  0  0  0  0
  2  5  1  0  0  0  0
  5  6  2  0  0  0  0
  5  7  1  0  0  0  0
  7  8  1  0  0  0  0
  7  9  1  0  0  0  0
  9 10  1  0  0  0  0
  9 11  1  0  0  0  0
  9 23  1  0  0  0  0
 11 12  1  0  0  0  0
 11 13  1  0  0  0  0
 11 14  1  0  0  0  0
 14 15  1  0  0  0  0
 14 21  2  0  0  0  0
 15 16  1  0  0  0  0
 15 17  2  0  0  0  0
 17 18  1  0  0  0  0
 17 19  1  0  0  0  0
 19 20  1  0  0  0  0
 19 21  1  0  0  0  0
 21 22  1  0  0  0  0
 23 24  2  0  0  0  0
 23 25  1  0  0  0  0
 25 26  1  0  0  0  0
 25 27  1  0  0  0  0
 27 28  1  0  0  0  0
 27 29  1  0  0  0  0
 27 30  1  0  0  0  0
M  CHG  1  15   1
M  END
$$$$

  -OEChem-04042216003D

 30 30  0     1  0  0  0  0  0999 V2000
   -3.2406   -3.8694    1.4524 H   0  0  0  0  0  0  0  0  0  0  0  0
   -3.2300   -3.0205    0.7623 C   0  0  0  0  0  0  0  0  0  0  0  0
   -3.8681   -2.2325    1.1691 H   0  0  0  0  0  0  0  0  0  0  0  0
   -3.6312   -3.3471   -0.1999 H   0  0  0  0  0  0  0  0  0  0  0  0
   -1.8128   -2.5091    0.5907 C   0  0  0  0  0  0  0  0  0  0  0  0
   -0.8880   -3.0529    1.1658 O   0  0  0  0  0  0  0  0  0  0  0  0
   -1.5456   -1.4404   -0.2461 N   0  0  0  0  0  0  0  0  0  0  0  0
   -2.3504   -0.9801   -0.6633 H   0  0  0  0  0  0  0  0  0  0  0  0
   -0.2259   -0.7784   -0.2962 C   0  0  1  0  0  0  0  0  0  0  0  0
    0.5170   -1.5586   -0.4848 H   0  0  0  0  0  0  0  0  0  0  0  0
   -0.1725    0.2681   -1.4293 C   0  0  0  0  0  0  0  0  0  0  0  0
   -1.1472    0.7516   -1.5483 H   0  0  0  0  0  0  0  0  0  0  0  0
    0.5396    1.0543   -1.1485 H   0  0  0  0  0  0  0  0  0  0  0  0
    0.3042   -0.3121   -2.7439 C   0  0  0  0  0  0  0  0  0  0  0  0
    1.1896   -1.3790   -2.9333 N   0  3  0  0  0  0  0  0  0  0  0  0
    1.6522   -1.8648   -2.1582 H   0  0  0  0  0  0  0  0  0  0  0  0
    1.3721   -1.6035   -4.2115 C   0  0  0  0  0  0  0  0  0  0  0  0
    2.0247   -2.3623   -4.6488 H   0  0  0  0  0  0  0  0  0  0  0  0
    0.5859   -0.6873   -4.9056 N   0  0  0  0  0  0  0  0  0  0  0  0
    0.5223   -0.6073   -5.9254 H   0  0  0  0  0  0  0  0  0  0  0  0
   -0.0803    0.1193   -3.9896 C   0  0  0  0  0  0  0  0  0  0  0  0
   -0.7652    0.9386   -4.2099 H   0  0  0  0  0  0  0  0  0  0  0  0
    0.2439   -0.1557    1.0336 C   0  0  0  0  0  0  0  0  0  0  0  0
    1.4488   -0.0799    1.2230 O   0  0  0  0  0  0  0  0  0  0  0  0
   -0.6179    0.5954    1.8120 N   0  0  0  0  0  0  0  0  0  0  0  0
   -1.6126    0.4497    1.6718 H   0  0  0  0  0  0  0  0  0  0  0  0
   -0.1820    1.2806    3.0260 C   0  0  0  0  0  0  0  0  0  0  0  0
    0.6135    1.9987    2.7989 H   0  0  0  0  0  0  0  0  0  0  0  0
   -1.0166    1.8265    3.4768 H   0  0  0  0  0  0  0  0  0  0  0  0
    0.1967    0.5597    3.7589 H   0  0  0  0  0  0  0  0  0  0  0  0
  1  2  1  0  0  0  0
  2  3  1  0  0  0  0
  2  4  1  0  0  0  0
  2  5  1  0  0  0  0
  5  6  2  0  0  0  0
  5  7  1  0  0  0  0
  7  8  1  0  0  0  0
  7  9  1  0  0  0  0
  9 10  1  0  0  0  0
  9 11  1  0  0  0  0
  9 23  1  0  0  0  0
 11 12  1  0  0  0  0
 11 13  1  0  0  0  0
 11 14  1  0  0  0  0
 14 15  1  0  0  0  0
 14 21  2  0  0  0  0
 15 16  1  0  0  0  0
 15 17  2  0  0  0  0
 17 18  1  0  0  0  0
 17 19  1  0  0  0  0
 19 20  1  0  0  0  0
 19 21  1  0  0  0  0
 21 22  1  0  0  0  0
 23 24  2  0  0  0  0
 23 25  1  0  0  0  0
 25 26  1  0  0  0  0
 25 27  1  0  0  0  0
 27 28  1  0  0  0  0
 27 29  1  0  0  0  0
 27 30  1  0  0  0  0
M  CHG  1  15   1
M  END
$$$$

  -OEChem-04042216003D

 30 30  0     1  0  0  0  0  0999 V2000
   -3.2309   -3.8484    1.5017 H   0  0  0  0  0  0  0  0  0  0  0  0
   -3.2247   -2.9972    0.8142 C   0  0  0  0  0  0  0  0  0  0  0  0
   -3.8333   -2.1979    1.2436 H   0  0  0  0  0  0  0  0  0  0  0  0
   -3.6632   -3.3122   -0.1356 H   0  0  0  0  0  0  0  0  0  0  0  0
   -1.8031   -2.5141    0.5996 C   0  0  0  0  0  0  0  0  0  0  0  0
   -0.8710   -3.0810    1.1395 O   0  0  0  0  0  0  0  0  0  0  0  0
   -1.5374   -1.4534   -0.2480 N   0  0  0  0  0  0  0  0  0  0  0  0
   -2.3467   -0.9734   -0.6339 H   0  0  0  0  0  0  0  0  0  0  0  0
   -0.2172   -0.7916   -0.2994 C   0  0  1  0  0  0  0  0  0  0  0  0
    0.5366   -1.5639   -0.4764 H   0  0  0  0  0  0  0  0  0  0  0  0
   -0.1680    0.2481   -1.4381 C   0  0  0  0  0  0  0  0  0  0  0  0
   -1.1450    0.7268   -1.5589 H   0  0  0  0  0  0  0  0  0  0  0  0
    0.5414    1.0375   -1.1605 H   0  0  0  0  0  0  0  0  0  0  0  0
    0.3060   -0.3326   -2.7550 C   0  0  0  0  0  0  0  0  0  0  0  0
    0.9518   -1.5537   -2.9818 N   0  3  0  0  0  0  0  0  0  0  0  0
    1.1940   -2.2061   -2.2297 H   0  0  0  0  0  0  0  0  0  0  0  0
    1.2207   -1.7028   -4.2557 C   0  0  0  0  0  0  0  0  0  0  0  0
    1.7321   -2.5518   -4.7144 H   0  0  0  0  0  0  0  0  0  0  0  0
    0.7397   -0.5728   -4.9117 N   0  0  0  0  0  0  0  0  0  0  0  0
    0.8129   -0.3899   -5.9175 H   0  0  0  0  0  0  0  0  0  0  0  0
    0.1689    0.2820   -3.9754 C   0  0  0  0  0  0  0  0  0  0  0  0
   -0.2860    1.2552   -4.1634 H   0  0  0  0  0  0  0  0  0  0  0  0
    0.2376   -0.1590    1.0322 C   0  0  0  0  0  0  0  0  0  0  0  0
    1.4385   -0.0901    1.2454 O   0  0  0  0  0  0  0  0  0  0  0  0
   -0.6345    0.5956    1.7965 N   0  0  0  0  0  0  0  0  0  0  0  0
   -1.6274    0.4604    1.6353 H   0  0  0  0  0  0  0  0  0  0  0  0
   -0.2175    1.2787    3.0187 C   0  0  0  0  0  0  0  0  0  0  0  0
    0.5894    1.9890    2.8077 H   0  0  0  0  0  0  0  0  0  0  0  0
   -1.0560    1.8334    3.4513 H   0  0  0  0  0  0  0  0  0  0  0  0
    0.1390    0.5555    3.7605 H   0  0  0  0  0  0  0  0  0  0  0  0
  1  2  1  0  0  0  0
  2  3  1  0  0  0  0
  2  4  1  0  0  0  0
  2  5  1  0  0  0  0
  5  6  2  0  0  0  0
  5  7  1  0  0  0  0
  7  8  1  0  0  0  0
  7  9  1  0  0  0  0
  9 10  1  0  0  0  0
  9 11  1  0  0  0  0
  9 23  1  0  0  0  0
 11 12  1  0  0  0  0
 11 13  1  0  0  0  0
 11 14  1  0  0  0  0
 14 15  1  0  0  0  0
 14 21  2  0  0  0  0
 15 16  1  0  0  0  0
 15 17  2  0  0  0  0
 17 18  1  0  0  0  0
 17 19  1  0  0  0  0
 19 20  1  0  0  0  0
 19 21  1  0  0  0  0
 21 22  1  0  0  0  0
 23 24  2  0  0  0  0
 23 25  1  0  0  0  0
 25 26  1  0  0  0  0
 25 27  1  0  0  0  0
 27 28  1  0  0  0  0
 27 29  1  0  0  0  0
 27 30  1  0  0  0  0
M  CHG  1  15   1
M  END
$$$$

  -OEChem-04042216003D

 30 30  0     1  0  0  0  0  0999 V2000
   -3.2077   -3.8370    1.5356 H   0  0  0  0  0  0  0  0  0  0  0  0
   -3.2153   -2.9787    0.8571 C   0  0  0  0  0  0  0  0  0  0  0  0
   -3.7889   -2.1730    1.3213 H   0  0  0  0  0  0  0  0  0  0  0  0
   -3.7012   -3.2746   -0.0756 H   0  0  0  0  0  0  0  0  0  0  0  0
   -1.7954   -2.5206    0.5852 C   0  0  0  0  0  0  0  0  0  0  0  0
   -0.8510   -3.1167    1.0690 O   0  0  0  0  0  0  0  0  0  0  0  0
   -1.5444   -1.4563   -0.2623 N   0  0  0  0  0  0  0  0  0  0  0  0
   -2.3629   -0.9496   -0.5912 H   0  0  0  0  0  0  0  0  0  0  0  0
   -0.2259   -0.7904   -0.3175 C   0  0  1  0  0  0  0  0  0  0  0  0
    0.5365   -1.5540   -0.5005 H   0  0  0  0  0  0  0  0  0  0  0  0
   -0.1859    0.2524   -1.4524 C   0  0  0  0  0  0  0  0  0  0  0  0
   -1.1698    0.7163   -1.5740 H   0  0  0  0  0  0  0  0  0  0  0  0
    0.5140    1.0514   -1.1783 H   0  0  0  0  0  0  0  0  0  0  0  0
    0.2832   -0.3334   -2.7680 C   0  0  0  0  0  0  0  0  0  0  0  0
    0.6619   -1.6528   -3.0408 N   0  3  0  0  0  0  0  0  0  0  0  0
    0.6425   -2.3957   -2.3348 H   0  0  0  0  0  0  0  0  0  0  0  0
    1.0515   -1.7714   -4.2866 C   0  0  0  0  0  0  0  0  0  0  0  0
    1.4110   -2.6830   -4.7688 H   0  0  0  0  0  0  0  0  0  0  0  0
    0.9294   -0.5155   -4.8760 N   0  0  0  0  0  0  0  0  0  0  0  0
    1.1750   -0.2833   -5.8437 H   0  0  0  0  0  0  0  0  0  0  0  0
    0.4540    0.3826   -3.9270 C   0  0  0  0  0  0  0  0  0  0  0  0
    0.2690    1.4488   -4.0627 H   0  0  0  0  0  0  0  0  0  0  0  0
    0.2284   -0.1628    1.0171 C   0  0  0  0  0  0  0  0  0  0  0  0
    1.4280   -0.0924    1.2345 O   0  0  0  0  0  0  0  0  0  0  0  0
   -0.6449    0.5848    1.7873 N   0  0  0  0  0  0  0  0  0  0  0  0
   -1.6380    0.4637    1.6174 H   0  0  0  0  0  0  0  0  0  0  0  0
   -0.2279    1.2649    3.0112 C   0  0  0  0  0  0  0  0  0  0  0  0
    0.5644    1.9910    2.7978 H   0  0  0  0  0  0  0  0  0  0  0  0
   -1.0720    1.8008    3.4569 H   0  0  0  0  0  0  0  0  0  0  0  0
    0.1488    0.5420    3.7432 H   0  0  0  0  0  0  0  0  0  0  0  0
  1  2  1  0  0  0  0
  2  3  1  0  0  0  0
  2  4  1  0  0  0  0
  2  5  1  0  0  0  0
  5  6  2  0  0  0  0
  5  7  1  0  0  0  0
  7  8  1  0  0  0  0
  7  9  1  0  0  0  0
  9 10  1  0  0  0  0
  9 11  1  0  0  0  0
  9 23  1  0  0  0  0
 11 12  1  0  0  0  0
 11 13  1  0  0  0  0
 11 14  1  0  0  0  0
 14 15  1  0  0  0  0
 14 21  2  0  0  0  0
 15 16  1  0  0  0  0
 15 17  2  0  0  0  0
 17 18  1  0  0  0  0
 17 19  1  0  0  0  0
 19 20  1  0  0  0  0
 19 21  1  0  0  0  0
 21 22  1  0  0  0  0
 23 24  2  0  0  0  0
 23 25  1  0  0  0  0
 25 26  1  0  0  0  0
 25 27  1  0  0  0  0
 27 28  1  0  0  0  0
 27 29  1  0  0  0  0
 27 30  1  0  0  0  0
M  CHG  1  15   1
M  END
$$$$

  -OEChem-04042216003D

 30 30  0     1  0  0  0  0  0999 V2000
   -3.1811   -3.8255    1.5512 H   0  0  0  0  0  0  0  0  0  0  0  0
   -3.2030   -2.9636    0.8773 C   0  0  0  0  0  0  0  0  0  0  0  0
   -3.7424   -2.1514    1.3699 H   0  0  0  0  0  0  0  0  0  0  0  0
   -3.7340   -3.2458   -0.0349 H   0  0  0  0  0  0  0  0  0  0  0  0
   -1.7881   -2.5288    0.5464 C   0  0  0  0  0  0  0  0  0  0  0  0
   -0.8347   -3.1592    0.9636 O   0  0  0  0  0  0  0  0  0  0  0  0
   -1.5539   -1.4514   -0.2896 N   0  0  0  0  0  0  0  0  0  0  0  0
   -2.3792   -0.9167   -0.5512 H   0  0  0  0  0  0  0  0  0  0  0  0
   -0.2374   -0.7788   -0.3409 C   0  0  1  0  0  0  0  0  0  0  0  0
    0.5301   -1.5344   -0.5435 H   0  0  0  0  0  0  0  0  0  0  0  0
   -0.2078    0.2772   -1.4623 C   0  0  0  0  0  0  0  0  0  0  0  0
   -1.1990    0.7256   -1.5825 H   0  0  0  0  0  0  0  0  0  0  0  0
    0.4803    1.0854   -1.1851 H   0  0  0  0  0  0  0  0  0  0  0  0
    0.2608   -0.3107   -2.7753 C   0  0  0  0  0  0  0  0  0  0  0  0
    0.3616   -1.6645   -3.1122 N   0  3  0  0  0  0  0  0  0  0  0  0
    0.0973   -2.4178   -2.4688 H   0  0  0  0  0  0  0  0  0  0  0  0
    0.8697   -1.8013   -4.3127 C   0  0  0  0  0  0  0  0  0  0  0  0
    1.0764   -2.7431   -4.8253 H   0  0  0  0  0  0  0  0  0  0  0  0
    1.1093   -0.5205   -4.8057 N   0  0  0  0  0  0  0  0  0  0  0  0
    1.5231   -0.2989   -5.7169 H   0  0  0  0  0  0  0  0  0  0  0  0
    0.7384    0.4099   -3.8415 C   0  0  0  0  0  0  0  0  0  0  0  0
    0.8257    1.4953   -3.9036 H   0  0  0  0  0  0  0  0  0  0  0  0
    0.2228   -0.1680    0.9993 C   0  0  0  0  0  0  0  0  0  0  0  0
    1.4228   -0.0926    1.2115 O   0  0  0  0  0  0  0  0  0  0  0  0
   -0.6498    0.5656    1.7838 N   0  0  0  0  0  0  0  0  0  0  0  0
   -1.6435    0.4543    1.6122 H   0  0  0  0  0  0  0  0  0  0  0  0
   -0.2266    1.2464    3.0053 C   0  0  0  0  0  0  0  0  0  0  0  0
    0.5458    1.9911    2.7838 H   0  0  0  0  0  0  0  0  0  0  0  0
   -1.0741    1.7604    3.4695 H   0  0  0  0  0  0  0  0  0  0  0  0
    0.1783    0.5269    3.7254 H   0  0  0  0  0  0  0  0  0  0  0  0
  1  2  1  0  0  0  0
  2  3  1  0  0  0  0
  2  4  1  0  0  0  0
  2  5  1  0  0  0  0
  5  6  2  0  0  0  0
  5  7  1  0  0  0  0
  7  8  1  0  0  0  0
  7  9  1  0  0  0  0
  9 10  1  0  0  0  0
  9 11  1  0  0  0  0
  9 23  1  0  0  0  0
 11 12  1  0  0  0  0
 11 13  1  0  0  0  0
 11 14  1  0  0  0  0
 14 15  1  0  0  0  0
 14 21  2  0  0  0  0
 15 16  1  0  0  0  0
 15 17  2  0  0  0  0
 17 18  1  0  0  0  0
 17 19  1  0  0  0  0
 19 20  1  0  0  0  0
 19 21  1  0  0  0  0
 21 22  1  0  0  0  0
 23 24  2  0  0  0  0
 23 25  1  0  0  0  0
 25 26  1  0  0  0  0
 25 27  1  0  0  0  0
 27 28  1  0  0  0  0
 27 29  1  0  0  0  0
 27 30  1  0  0  0  0
M  CHG  1  15   1
M  END
$$$$

  -OEChem-04042216003D

 30 30  0     1  0  0  0  0  0999 V2000
   -3.1551   -3.8370    1.5084 H   0  0  0  0  0  0  0  0  0  0  0  0
   -3.1870   -2.9563    0.8598 C   0  0  0  0  0  0  0  0  0  0  0  0
   -3.7071   -2.1538    1.3884 H   0  0  0  0  0  0  0  0  0  0  0  0
   -3.7428   -3.2092   -0.0461 H   0  0  0  0  0  0  0  0  0  0  0  0
   -1.7774   -2.5224    0.5068 C   0  0  0  0  0  0  0  0  0  0  0  0
   -0.8195   -3.1654    0.8920 O   0  0  0  0  0  0  0  0  0  0  0  0
   -1.5562   -1.4315   -0.3154 N   0  0  0  0  0  0  0  0  0  0  0  0
   -2.3856   -0.8837   -0.5336 H   0  0  0  0  0  0  0  0  0  0  0  0
   -0.2423   -0.7509   -0.3590 C   0  0  1  0  0  0  0  0  0  0  0  0
    0.5270   -1.5016   -0.5795 H   0  0  0  0  0  0  0  0  0  0  0  0
   -0.2205    0.3135   -1.4711 C   0  0  0  0  0  0  0  0  0  0  0  0
   -1.2161    0.7507   -1.5960 H   0  0  0  0  0  0  0  0  0  0  0  0
    0.4583    1.1284   -1.1909 H   0  0  0  0  0  0  0  0  0  0  0  0
    0.2551   -0.2841   -2.7750 C   0  0  0  0  0  0  0  0  0  0  0  0
    0.0878   -1.6067   -3.1940 N   0  3  0  0  0  0  0  0  0  0  0  0
   -0.3796   -2.3140   -2.6177 H   0  0  0  0  0  0  0  0  0  0  0  0
    0.6832   -1.7992   -4.3459 C   0  0  0  0  0  0  0  0  0  0  0  0
    0.7403   -2.7399   -4.8976 H   0  0  0  0  0  0  0  0  0  0  0  0
    1.2479   -0.5829   -4.7249 N   0  0  0  0  0  0  0  0  0  0  0  0
    1.7986   -0.4187   -5.5735 H   0  0  0  0  0  0  0  0  0  0  0  0
    0.9902    0.3612   -3.7375 C   0  0  0  0  0  0  0  0  0  0  0  0
    1.3207    1.4004   -3.7144 H   0  0  0  0  0  0  0  0  0  0  0  0
    0.2223   -0.1559    0.9868 C   0  0  0  0  0  0  0  0  0  0  0  0
    1.4227   -0.0788    1.1956 O   0  0  0  0  0  0  0  0  0  0  0  0
   -0.6488    0.5637    1.7862 N   0  0  0  0  0  0  0  0  0  0  0  0
   -1.6429    0.4550    1.6162 H   0  0  0  0  0  0  0  0  0  0  0  0
   -0.2225    1.2225    3.0188 C   0  0  0  0  0  0  0  0  0  0  0  0
    0.5570    1.9635    2.8102 H   0  0  0  0  0  0  0  0  0  0  0  0
   -1.0663    1.7368    3.4895 H   0  0  0  0  0  0  0  0  0  0  0  0
    0.1748    0.4885    3.7287 H   0  0  0  0  0  0  0  0  0  0  0  0
  1  2  1  0  0  0  0
  2  3  1  0  0  0  0
  2  4  1  0  0  0  0
  2  5  1  0  0  0  0
  5  6  2  0  0  0  0
  5  7  1  0  0  0  0
  7  8  1  0  0  0  0
  7  9  1  0  0  0  0
  9 10  1  0  0  0  0
  9 11  1  0  0  0  0
  9 23  1  0  0  0  0
 11 12  1  0  0  0  0
 11 13  1  0  0  0  0
 11 14  1  0  0  0  0
 14 15  1  0  0  0  0
 14 21  2  0  0  0  0
 15 16  1  0  0  0  0
 15 17  2  0  0  0  0
 17 18  1  0  0  0  0
 17 19  1  0  0  0  0
 19 20  1  0  0  0  0
 19 21  1  0  0  0  0
 21 22  1  0  0  0  0
 23 24  2  0  0  0  0
 23 25  1  0  0  0  0
 25 26  1  0  0  0  0
 25 27  1  0  0  0  0
 27 28  1  0  0  0  0
 27 29  1  0  0  0  0
 27 30  1  0  0  0  0
M  CHG  1  15   1
M  END
$$$$

  -OEChem-04042216003D

 30 30  0     1  0  0  0  0  0999 V2000
   -3.1492   -3.8330    1.4919 H   0  0  0  0  0  0  0  0  0  0  0  0
   -3.1837   -2.9533    0.8421 C   0  0  0  0  0  0  0  0  0  0  0  0
   -3.7014   -2.1500    1.3716 H   0  0  0  0  0  0  0  0  0  0  0  0
   -3.7433   -3.2076   -0.0612 H   0  0  0  0  0  0  0  0  0  0  0  0
   -1.7758   -2.5200    0.4821 C   0  0  0  0  0  0  0  0  0  0  0  0
   -0.8171   -3.1636    0.8637 O   0  0  0  0  0  0  0  0  0  0  0  0
   -1.5611   -1.4193   -0.3293 N   0  0  0  0  0  0  0  0  0  0  0  0
   -2.3916   -0.8618   -0.5166 H   0  0  0  0  0  0  0  0  0  0  0  0
   -0.2478   -0.7358   -0.3664 C   0  0  1  0  0  0  0  0  0  0  0  0
    0.5177   -1.4875   -0.5994 H   0  0  0  0  0  0  0  0  0  0  0  0
   -0.2220    0.3332   -1.4727 C   0  0  0  0  0  0  0  0  0  0  0  0
   -1.2152    0.7741   -1.6043 H   0  0  0  0  0  0  0  0  0  0  0  0
    0.4573    1.1456   -1.1865 H   0  0  0  0  0  0  0  0  0  0  0  0
    0.2625   -0.2735   -2.7675 C   0  0  0  0  0  0  0  0  0  0  0  0
   -0.1421   -1.4942   -3.3111 N   0  3  0  0  0  0  0  0  0  0  0  0
   -0.7922   -2.1237   -2.8311 H   0  0  0  0  0  0  0  0  0  0  0  0
    0.5197   -1.7416   -4.4158 C   0  0  0  0  0  0  0  0  0  0  0  0
    0.4378   -2.6374   -5.0347 H   0  0  0  0  0  0  0  0  0  0  0  0
    1.3665   -0.6578   -4.6402 N   0  0  0  0  0  0  0  0  0  0  0  0
    2.0268   -0.5660   -5.4186 H   0  0  0  0  0  0  0  0  0  0  0  0
    1.2133    0.2554   -3.6036 C   0  0  0  0  0  0  0  0  0  0  0  0
    1.7513    1.1940   -3.4634 H   0  0  0  0  0  0  0  0  0  0  0  0
    0.2232   -0.1536    0.9826 C   0  0  0  0  0  0  0  0  0  0  0  0
    1.4251   -0.0637    1.1787 O   0  0  0  0  0  0  0  0  0  0  0  0
   -0.6457    0.5572    1.7921 N   0  0  0  0  0  0  0  0  0  0  0  0
   -1.6404    0.4367    1.6342 H   0  0  0  0  0  0  0  0  0  0  0  0
   -0.2134    1.2154    3.0228 C   0  0  0  0  0  0  0  0  0  0  0  0
    0.5643    1.9574    2.8108 H   0  0  0  0  0  0  0  0  0  0  0  0
   -1.0552    1.7292    3.4976 H   0  0  0  0  0  0  0  0  0  0  0  0
    0.1879    0.4815    3.7304 H   0  0  0  0  0  0  0  0  0  0  0  0
  1  2  1  0  0  0  0
  2  3  1  0  0  0  0
  2  4  1  0  0  0  0
  2  5  1  0  0  0  0
  5  6  2  0  0  0  0
  5  7  1  0  0  0  0
  7  8  1  0  0  0  0
  7  9  1  0  0  0  0
  9 10  1  0  0  0  0
  9 11  1  0  0  0  0
  9 23  1  0  0  0  0
 11 12  1  0  0  0  0
 11 13  1  0  0  0  0
 11 14  1  0  0  0  0
 14 15  1  0  0  0  0
 14 21  2  0  0  0  0
 15 16  1  0  0  0  0
 15 17  2  0  0  0  0
 17 18  1  0  0  0  0
 17 19  1  0  0  0  0
 19 20  1  0  0  0  0
 19 21  1  0  0  0  0
 21 22  1  0  0  0  0
 23 24  2  0  0  0  0
 23 25  1  0  0  0  0
 25 26  1  0  0  0  0
 25 27  1  0  0  0  0
 27 28  1  0  0  0  0
 27 29  1  0  0  0  0
 27 30  1  0  0  0  0
M  CHG  1  15   1
M  END
$$$$

  -OEChem-04042216003D

 30 30  0     1  0  0  0  0  0999 V2000
   -3.1601   -3.8403    1.4766 H   0  0  0  0  0  0  0  0  0  0  0  0
   -3.1915   -2.9626    0.8239 C   0  0  0  0  0  0  0  0  0  0  0  0
   -3.7287   -2.1638    1.3410 H   0  0  0  0  0  0  0  0  0  0  0  0
   -3.7303   -3.2256   -0.0892 H   0  0  0  0  0  0  0  0  0  0  0  0
   -1.7814   -2.5148    0.4900 C   0  0  0  0  0  0  0  0  0  0  0  0
   -0.8249   -3.1393    0.9073 O   0  0  0  0  0  0  0  0  0  0  0  0
   -1.5654   -1.4144   -0.3224 N   0  0  0  0  0  0  0  0  0  0  0  0
   -2.3956   -0.8592   -0.5150 H   0  0  0  0  0  0  0  0  0  0  0  0
   -0.2507   -0.7336   -0.3626 C   0  0  1  0  0  0  0  0  0  0  0  0
    0.5084   -1.4910   -0.5995 H   0  0  0  0  0  0  0  0  0  0  0  0
   -0.2164    0.3346   -1.4693 C   0  0  0  0  0  0  0  0  0  0  0  0
   -1.2030    0.7886   -1.6034 H   0  0  0  0  0  0  0  0  0  0  0  0
    0.4720    1.1384   -1.1807 H   0  0  0  0  0  0  0  0  0  0  0  0
    0.2690   -0.2781   -2.7598 C   0  0  0  0  0  0  0  0  0  0  0  0
   -0.3239   -1.3318   -3.4568 N   0  3  0  0  0  0  0  0  0  0  0  0
   -1.1423   -1.8366   -3.1065 H   0  0  0  0  0  0  0  0  0  0  0  0
    0.3868   -1.6307   -4.5178 C   0  0  0  0  0  0  0  0  0  0  0  0
    0.1847   -2.4336   -5.2296 H   0  0  0  0  0  0  0  0  0  0  0  0
    1.4626   -0.7459   -4.5568 N   0  0  0  0  0  0  0  0  0  0  0  0
    2.2067   -0.7391   -5.2617 H   0  0  0  0  0  0  0  0  0  0  0  0
    1.3927    0.0957   -3.4531 C   0  0  0  0  0  0  0  0  0  0  0  0
    2.0952    0.8827   -3.1743 H   0  0  0  0  0  0  0  0  0  0  0  0
    0.2278   -0.1507    0.9833 C   0  0  0  0  0  0  0  0  0  0  0  0
    1.4311   -0.0527    1.1674 O   0  0  0  0  0  0  0  0  0  0  0  0
   -0.6364    0.5634    1.7951 N   0  0  0  0  0  0  0  0  0  0  0  0
   -1.6315    0.4304    1.6508 H   0  0  0  0  0  0  0  0  0  0  0  0
   -0.1965    1.2211    3.0236 C   0  0  0  0  0  0  0  0  0  0  0  0
    0.5872    1.9560    2.8084 H   0  0  0  0  0  0  0  0  0  0  0  0
   -1.0332    1.7431    3.4985 H   0  0  0  0  0  0  0  0  0  0  0  0
    0.2000    0.4854    3.7321 H   0  0  0  0  0  0  0  0  0  0  0  0
  1  2  1  0  0  0  0
  2  3  1  0  0  0  0
  2  4  1  0  0  0  0
  2  5  1  0  0  0  0
  5  6  2  0  0  0  0
  5  7  1  0  0  0  0
  7  8  1  0  0  0  0
  7  9  1  0  0  0  0
  9 10  1  0  0  0  0
  9 11  1  0  0  0  0
  9 23  1  0  0  0  0
 11 12  1  0  0  0  0
 11 13  1  0  0  0  0
 11 14  1  0  0  0  0
 14 15  1  0  0  0  0
 14 21  2  0  0  0  0
 15 16  1  0  0  0  0
 15 17  2  0  0  0  0
 17 18  1  0  0  0  0
 17 19  1  0  0  0  0
 19 20  1  0  0  0  0
 19 21  1  0  0  0  0
 21 22  1  0  0  0  0
 23 24  2  0  0  0  0
 23 25  1  0  0  0  0
 25 26  1  0  0  0  0
 25 27  1  0  0  0  0
 27 28  1  0  0  0  0
 27 29  1  0  0  0  0
 27 30  1  0  0  0  0
M  CHG  1  15   1
M  END
$$$$

  -OEChem-04042216003D

 30 30  0     1  0  0  0  0  0999 V2000
   -3.1685   -3.8534    1.4649 H   0  0  0  0  0  0  0  0  0  0  0  0
   -3.2012   -2.9770    0.8103 C   0  0  0  0  0  0  0  0  0  0  0  0
   -3.7581   -2.1851    1.3167 H   0  0  0  0  0  0  0  0  0  0  0  0
   -3.7202   -3.2495   -0.1116 H   0  0  0  0  0  0  0  0  0  0  0  0
   -1.7920   -2.5107    0.4996 C   0  0  0  0  0  0  0  0  0  0  0  0
   -0.8354   -3.1159    0.9446 O   0  0  0  0  0  0  0  0  0  0  0  0
   -1.5782   -1.4086   -0.3108 N   0  0  0  0  0  0  0  0  0  0  0  0
   -2.4097   -0.8617   -0.5179 H   0  0  0  0  0  0  0  0  0  0  0  0
   -0.2637   -0.7294   -0.3592 C   0  0  1  0  0  0  0  0  0  0  0  0
    0.4874   -1.4933   -0.6003 H   0  0  0  0  0  0  0  0  0  0  0  0
   -0.2239    0.3358   -1.4687 C   0  0  0  0  0  0  0  0  0  0  0  0
   -1.2049    0.8016   -1.6032 H   0  0  0  0  0  0  0  0  0  0  0  0
    0.4718    1.1340   -1.1817 H   0  0  0  0  0  0  0  0  0  0  0  0
    0.2603   -0.2843   -2.7562 C   0  0  0  0  0  0  0  0  0  0  0  0
   -0.4501   -1.1256   -3.6135 N   0  3  0  0  0  0  0  0  0  0  0  0
   -1.3981   -1.4524   -3.4131 H   0  0  0  0  0  0  0  0  0  0  0  0
    0.3049   -1.4851   -4.6244 C   0  0  0  0  0  0  0  0  0  0  0  0
    0.0259   -2.1597   -5.4364 H   0  0  0  0  0  0  0  0  0  0  0  0
    1.5386   -0.8580   -4.4626 N   0  0  0  0  0  0  0  0  0  0  0  0
    2.3469   -0.9548   -5.0855 H   0  0  0  0  0  0  0  0  0  0  0  0
    1.5111   -0.1095   -3.2928 C   0  0  0  0  0  0  0  0  0  0  0  0
    2.3214    0.4846   -2.8662 H   0  0  0  0  0  0  0  0  0  0  0  0
    0.2313   -0.1480    0.9812 C   0  0  0  0  0  0  0  0  0  0  0  0
    1.4377   -0.0442    1.1449 O   0  0  0  0  0  0  0  0  0  0  0  0
   -0.6220    0.5673    1.8030 N   0  0  0  0  0  0  0  0  0  0  0  0
   -1.6184    0.4233    1.6783 H   0  0  0  0  0  0  0  0  0  0  0  0
   -0.1654    1.2257    3.0248 C   0  0  0  0  0  0  0  0  0  0  0  0
    0.6238    1.9517    2.8004 H   0  0  0  0  0  0  0  0  0  0  0  0
   -0.9927    1.7587    3.5040 H   0  0  0  0  0  0  0  0  0  0  0  0
    0.2292    0.4890    3.7334 H   0  0  0  0  0  0  0  0  0  0  0  0
  1  2  1  0  0  0  0
  2  3  1  0  0  0  0
  2  4  1  0  0  0  0
  2  5  1  0  0  0  0
  5  6  2  0  0  0  0
  5  7  1  0  0  0  0
  7  8  1  0  0  0  0
  7  9  1  0  0  0  0
  9 10  1  0  0  0  0
  9 11  1  0  0  0  0
  9 23  1  0  0  0  0
 11 12  1  0  0  0  0
 11 13  1  0  0  0  0
 11 14  1  0  0  0  0
 14 15  1  0  0  0  0
 14 21  2  0  0  0  0
 15 16  1  0  0  0  0
 15 17  2  0  0  0  0
 17 18  1  0  0  0  0
 17 19  1  0  0  0  0
 19 20  1  0  0  0  0
 19 21  1  0  0  0  0
 21 22  1  0  0  0  0
 23 24  2  0  0  0  0
 23 25  1  0  0  0  0
 25 26  1  0  0  0  0
 25 27  1  0  0  0  0
 27 28  1  0  0  0  0
 27 29  1  0  0  0  0
 27 30  1  0  0  0  0
M  CHG  1  15   1
M  END
$$$$

  -OEChem-04042216003D

 30 30  0     1  0  0  0  0  0999 V2000
   -3.1873   -3.8615    1.4549 H   0  0  0  0  0  0  0  0  0  0  0  0
   -3.2124   -2.9950    0.7870 C   0  0  0  0  0  0  0  0  0  0  0  0
   -3.8004   -2.2060    1.2617 H   0  0  0  0  0  0  0  0  0  0  0  0
   -3.6935   -3.2895   -0.1485 H   0  0  0  0  0  0  0  0  0  0  0  0
   -1.8019   -2.5069    0.5178 C   0  0  0  0  0  0  0  0  0  0  0  0
   -0.8500   -3.0883    1.0037 O   0  0  0  0  0  0  0  0  0  0  0  0
   -1.5831   -1.4061   -0.2926 N   0  0  0  0  0  0  0  0  0  0  0  0
   -2.4145   -0.8782   -0.5420 H   0  0  0  0  0  0  0  0  0  0  0  0
   -0.2690   -0.7292   -0.3521 C   0  0  1  0  0  0  0  0  0  0  0  0
    0.4757   -1.4981   -0.5957 H   0  0  0  0  0  0  0  0  0  0  0  0
   -0.2272    0.3357   -1.4631 C   0  0  0  0  0  0  0  0  0  0  0  0
   -1.2033    0.8132   -1.5908 H   0  0  0  0  0  0  0  0  0  0  0  0
    0.4789    1.1266   -1.1804 H   0  0  0  0  0  0  0  0  0  0  0  0
    0.2495   -0.2854   -2.7528 C   0  0  0  0  0  0  0  0  0  0  0  0
   -0.5159   -0.8800   -3.7572 N   0  3  0  0  0  0  0  0  0  0  0  0
   -1.5320   -0.9796   -3.7016 H   0  0  0  0  0  0  0  0  0  0  0  0
    0.2608   -1.3119   -4.7226 C   0  0  0  0  0  0  0  0  0  0  0  0
   -0.0564   -1.8308   -5.6295 H   0  0  0  0  0  0  0  0  0  0  0  0
    1.5716   -0.9923   -4.3740 N   0  0  0  0  0  0  0  0  0  0  0  0
    2.4091   -1.2104   -4.9234 H   0  0  0  0  0  0  0  0  0  0  0  0
    1.5636   -0.3493   -3.1430 C   0  0  0  0  0  0  0  0  0  0  0  0
    2.4233    0.0203   -2.5804 H   0  0  0  0  0  0  0  0  0  0  0  0
    0.2388   -0.1464    0.9825 C   0  0  0  0  0  0  0  0  0  0  0  0
    1.4473   -0.0355    1.1277 O   0  0  0  0  0  0  0  0  0  0  0  0
   -0.6064    0.5714    1.8103 N   0  0  0  0  0  0  0  0  0  0  0  0
   -1.6028    0.4113    1.7054 H   0  0  0  0  0  0  0  0  0  0  0  0
   -0.1365    1.2303    3.0268 C   0  0  0  0  0  0  0  0  0  0  0  0
    0.6296    1.9767    2.7894 H   0  0  0  0  0  0  0  0  0  0  0  0
   -0.9646    1.7387    3.5308 H   0  0  0  0  0  0  0  0  0  0  0  0
    0.2927    0.4974    3.7190 H   0  0  0  0  0  0  0  0  0  0  0  0
  1  2  1  0  0  0  0
  2  3  1  0  0  0  0
  2  4  1  0  0  0  0
  2  5  1  0  0  0  0
  5  6  2  0  0  0  0
  5  7  1  0  0  0  0
  7  8  1  0  0  0  0
  7  9  1  0  0  0  0
  9 10  1  0  0  0  0
  9 11  1  0  0  0  0
  9 23  1  0  0  0  0
 11 12  1  0  0  0  0
 11 13  1  0  0  0  0
 11 14  1  0  0  0  0
 14 15  1  0  0  0  0
 14 21  2  0  0  0  0
 15 16  1  0  0  0  0
 15 17  2  0  0  0  0
 17 18  1  0  0  0  0
 17 19  1  0  0  0  0
 19 20  1  0  0  0  0
 19 21  1  0  0  0  0
 21 22  1  0  0  0  0
 23 24  2  0  0  0  0
 23 25  1  0  0  0  0
 25 26  1  0  0  0  0
 25 27  1  0  0  0  0
 27 28  1  0  0  0  0
 27 29  1  0  0  0  0
 27 30  1  0  0  0  0
M  CHG  1  15   1
M  END
$$$$

  -OEChem-04042216003D

 30 30  0     1  0  0  0  0  0999 V2000
   -3.2042   -3.8750    1.4446 H   0  0  0  0  0  0  0  0  0  0  0  0
   -3.2233   -3.0150    0.7682 C   0  0  0  0  0  0  0  0  0  0  0  0
   -3.8413   -2.2332    1.2159 H   0  0  0  0  0  0  0  0  0  0  0  0
   -3.6679   -3.3266   -0.1799 H   0  0  0  0  0  0  0  0  0  0  0  0
   -1.8136   -2.5036    0.5404 C   0  0  0  0  0  0  0  0  0  0  0  0
   -0.8684   -3.0617    1.0656 O   0  0  0  0  0  0  0  0  0  0  0  0
   -1.5870   -1.4072   -0.2735 N   0  0  0  0  0  0  0  0  0  0  0  0
   -2.4148   -0.9054   -0.5812 H   0  0  0  0  0  0  0  0  0  0  0  0
   -0.2720   -0.7341   -0.3414 C   0  0  1  0  0  0  0  0  0  0  0  0
    0.4660   -1.5099   -0.5821 H   0  0  0  0  0  0  0  0  0  0  0  0
   -0.2277    0.3292   -1.4563 C   0  0  0  0  0  0  0  0  0  0  0  0
   -1.2030    0.8098   -1.5774 H   0  0  0  0  0  0  0  0  0  0  0  0
    0.4830    1.1179   -1.1788 H   0  0  0  0  0  0  0  0  0  0  0  0
    0.2426   -0.2871   -2.7512 C   0  0  0  0  0  0  0  0  0  0  0  0
   -0.5106   -0.6173   -3.8794 N   0  3  0  0  0  0  0  0  0  0  0  0
   -1.5216   -0.4755   -3.9399 H   0  0  0  0  0  0  0  0  0  0  0  0
    0.2657   -1.1214   -4.8099 C   0  0  0  0  0  0  0  0  0  0  0  0
   -0.0449   -1.4712   -5.7966 H   0  0  0  0  0  0  0  0  0  0  0  0
    1.5654   -1.1281   -4.3074 N   0  0  0  0  0  0  0  0  0  0  0  0
    2.3979   -1.4688   -4.7991 H   0  0  0  0  0  0  0  0  0  0  0  0
    1.5512   -0.6012   -3.0226 C   0  0  0  0  0  0  0  0  0  0  0  0
    2.4004   -0.4652   -2.3490 H   0  0  0  0  0  0  0  0  0  0  0  0
    0.2439   -0.1458    0.9872 C   0  0  0  0  0  0  0  0  0  0  0  0
    1.4542   -0.0396    1.1235 O   0  0  0  0  0  0  0  0  0  0  0  0
   -0.5938    0.5788    1.8164 N   0  0  0  0  0  0  0  0  0  0  0  0
   -1.5907    0.4145    1.7213 H   0  0  0  0  0  0  0  0  0  0  0  0
   -0.1148    1.2350    3.0309 C   0  0  0  0  0  0  0  0  0  0  0  0
    0.6540    1.9774    2.7906 H   0  0  0  0  0  0  0  0  0  0  0  0
   -0.9379    1.7475    3.5388 H   0  0  0  0  0  0  0  0  0  0  0  0
    0.3136    0.4998    3.7210 H   0  0  0  0  0  0  0  0  0  0  0  0
  1  2  1  0  0  0  0
  2  3  1  0  0  0  0
  2  4  1  0  0  0  0
  2  5  1  0  0  0  0
  5  6  2  0  0  0  0
  5  7  1  0  0  0  0
  7  8  1  0  0  0  0
  7  9  1  0  0  0  0
  9 10  1  0  0  0  0
  9 11  1  0  0  0  0
  9 23  1  0  0  0  0
 11 12  1  0  0  0  0
 11 13  1  0  0  0  0
 11 14  1  0  0  0  0
 14 15  1  0  0  0  0
 14 21  2  0  0  0  0
 15 16  1  0  0  0  0
 15 17  2  0  0  0  0
 17 18  1  0  0  0  0
 17 19  1  0  0  0  0
 19 20  1  0  0  0  0
 19 21  1  0  0  0  0
 21 22  1  0  0  0  0
 23 24  2  0  0  0  0
 23 25  1  0  0  0  0
 25 26  1  0  0  0  0
 25 27  1  0  0  0  0
 27 28  1  0  0  0  0
 27 29  1  0  0  0  0
 27 30  1  0  0  0  0
M  CHG  1  15   1
M  END
$$$$

  -OEChem-04042216003D

 30 30  0     1  0  0  0  0  0999 V2000
   -3.2217   -3.8860    1.4368 H   0  0  0  0  0  0  0  0  0  0  0  0
   -3.2306   -3.0294    0.7560 C   0  0  0  0  0  0  0  0  0  0  0  0
   -3.8725   -2.2536    1.1800 H   0  0  0  0  0  0  0  0  0  0  0  0
   -3.6403   -3.3505   -0.2045 H   0  0  0  0  0  0  0  0  0  0  0  0
   -1.8212   -2.5007    0.5705 C   0  0  0  0  0  0  0  0  0  0  0  0
   -0.8868   -3.0381    1.1354 O   0  0  0  0  0  0  0  0  0  0  0  0
   -1.5805   -1.4148   -0.2532 N   0  0  0  0  0  0  0  0  0  0  0  0
   -2.3994   -0.9411   -0.6228 H   0  0  0  0  0  0  0  0  0  0  0  0
   -0.2627   -0.7480   -0.3239 C   0  0  1  0  0  0  0  0  0  0  0  0
    0.4712   -1.5300   -0.5514 H   0  0  0  0  0  0  0  0  0  0  0  0
   -0.2159    0.3103   -1.4459 C   0  0  0  0  0  0  0  0  0  0  0  0
   -1.1939    0.7868   -1.5610 H   0  0  0  0  0  0  0  0  0  0  0  0
    0.4934    1.1019   -1.1735 H   0  0  0  0  0  0  0  0  0  0  0  0
    0.2494   -0.2960   -2.7490 C   0  0  0  0  0  0  0  0  0  0  0  0
   -0.4381   -0.3529   -3.9633 N   0  3  0  0  0  0  0  0  0  0  0  0
   -1.3805    0.0232   -4.0920 H   0  0  0  0  0  0  0  0  0  0  0  0
    0.3067   -0.9239   -4.8805 C   0  0  0  0  0  0  0  0  0  0  0  0
    0.0330   -1.1010   -5.9227 H   0  0  0  0  0  0  0  0  0  0  0  0
    1.5192   -1.2580   -4.2810 N   0  0  0  0  0  0  0  0  0  0  0  0
    2.3126   -1.7135   -4.7435 H   0  0  0  0  0  0  0  0  0  0  0  0
    1.4871   -0.8563   -2.9521 C   0  0  0  0  0  0  0  0  0  0  0  0
    2.2812   -0.9543   -2.2079 H   0  0  0  0  0  0  0  0  0  0  0  0
    0.2488   -0.1472    1.0003 C   0  0  0  0  0  0  0  0  0  0  0  0
    1.4590   -0.0526    1.1455 O   0  0  0  0  0  0  0  0  0  0  0  0
   -0.5910    0.5895    1.8160 N   0  0  0  0  0  0  0  0  0  0  0  0
   -1.5876    0.4245    1.7167 H   0  0  0  0  0  0  0  0  0  0  0  0
   -0.1180    1.2454    3.0325 C   0  0  0  0  0  0  0  0  0  0  0  0
    0.6827    1.9566    2.8014 H   0  0  0  0  0  0  0  0  0  0  0  0
   -0.9343    1.7942    3.5127 H   0  0  0  0  0  0  0  0  0  0  0  0
    0.2673    0.5047    3.7420 H   0  0  0  0  0  0  0  0  0  0  0  0
  1  2  1  0  0  0  0
  2  3  1  0  0  0  0
  2  4  1  0  0  0  0
  2  5  1  0  0  0  0
  5  6  2  0  0  0  0
  5  7  1  0  0  0  0
  7  8  1  0  0  0  0
  7  9  1  0  0  0  0
  9 10  1  0  0  0  0
  9 11  1  0  0  0  0
  9 23  1  0  0  0  0
 11 12  1  0  0  0  0
 11 13  1  0  0  0  0
 11 14  1  0  0  0  0
 14 15  1  0  0  0  0
 14 21  2  0  0  0  0
 15 16  1  0  0  0  0
 15 17  2  0  0  0  0
 17 18  1  0  0  0  0
 17 19  1  0  0  0  0
 19 20  1  0  0  0  0
 19 21  1  0  0  0  0
 21 22  1  0  0  0  0
 23 24  2  0  0  0  0
 23 25  1  0  0  0  0
 25 26  1  0  0  0  0
 25 27  1  0  0  0  0
 27 28  1  0  0  0  0
 27 29  1  0  0  0  0
 27 30  1  0  0  0  0
M  CHG  1  15   1
M  END
$$$$

  -OEChem-04042216003D

 30 30  0     1  0  0  0  0  0999 V2000
   -3.2497   -3.8735    1.4551 H   0  0  0  0  0  0  0  0  0  0  0  0
   -3.2391   -3.0345    0.7527 C   0  0  0  0  0  0  0  0  0  0  0  0
   -3.9004   -2.2526    1.1330 H   0  0  0  0  0  0  0  0  0  0  0  0
   -3.6114   -3.3824   -0.2137 H   0  0  0  0  0  0  0  0  0  0  0  0
   -1.8278   -2.4999    0.6059 C   0  0  0  0  0  0  0  0  0  0  0  0
   -0.9103   -3.0158    1.2166 O   0  0  0  0  0  0  0  0  0  0  0  0
   -1.5655   -1.4305   -0.2318 N   0  0  0  0  0  0  0  0  0  0  0  0
   -2.3680   -0.9916   -0.6738 H   0  0  0  0  0  0  0  0  0  0  0  0
   -0.2434   -0.7730   -0.3005 C   0  0  1  0  0  0  0  0  0  0  0  0
    0.4887   -1.5608   -0.5055 H   0  0  0  0  0  0  0  0  0  0  0  0
   -0.1901    0.2779   -1.4315 C   0  0  0  0  0  0  0  0  0  0  0  0
   -1.1713    0.7486   -1.5424 H   0  0  0  0  0  0  0  0  0  0  0  0
    0.5149    1.0737   -1.1601 H   0  0  0  0  0  0  0  0  0  0  0  0
    0.2720   -0.3107   -2.7474 C   0  0  0  0  0  0  0  0  0  0  0  0
   -0.2953   -0.0909   -4.0053 N   0  3  0  0  0  0  0  0  0  0  0  0
   -1.1106    0.5092   -4.1541 H   0  0  0  0  0  0  0  0  0  0  0  0
    0.3869   -0.7218   -4.9317 C   0  0  0  0  0  0  0  0  0  0  0  0
    0.1809   -0.7223   -6.0041 H   0  0  0  0  0  0  0  0  0  0  0  0
    1.4336   -1.3841   -4.2955 N   0  0  0  0  0  0  0  0  0  0  0  0
    2.1512   -1.9541   -4.7549 H   0  0  0  0  0  0  0  0  0  0  0  0
    1.3689   -1.1189   -2.9341 C   0  0  0  0  0  0  0  0  0  0  0  0
    2.0601   -1.4642   -2.1621 H   0  0  0  0  0  0  0  0  0  0  0  0
    0.2512   -0.1542    1.0222 C   0  0  0  0  0  0  0  0  0  0  0  0
    1.4594   -0.0605    1.1827 O   0  0  0  0  0  0  0  0  0  0  0  0
   -0.5981    0.5985    1.8134 N   0  0  0  0  0  0  0  0  0  0  0  0
   -1.5926    0.4236    1.7089 H   0  0  0  0  0  0  0  0  0  0  0  0
   -0.1402    1.2709    3.0267 C   0  0  0  0  0  0  0  0  0  0  0  0
    0.6502    1.9927    2.7931 H   0  0  0  0  0  0  0  0  0  0  0  0
   -0.9668    1.8102    3.4996 H   0  0  0  0  0  0  0  0  0  0  0  0
    0.2531    0.5423    3.7442 H   0  0  0  0  0  0  0  0  0  0  0  0
  1  2  1  0  0  0  0
  2  3  1  0  0  0  0
  2  4  1  0  0  0  0
  2  5  1  0  0  0  0
  5  6  2  0  0  0  0
  5  7  1  0  0  0  0
  7  8  1  0  0  0  0
  7  9  1  0  0  0  0
  9 10  1  0  0  0  0
  9 11  1  0  0  0  0
  9 23  1  0  0  0  0
 11 12  1  0  0  0  0
 11 13  1  0  0  0  0
 11 14  1  0  0  0  0
 14 15  1  0  0  0  0
 14 21  2  0  0  0  0
 15 16  1  0  0  0  0
 15 17  2  0  0  0  0
 17 18  1  0  0  0  0
 17 19  1  0  0  0  0
 19 20  1  0  0  0  0
 19 21  1  0  0  0  0
 21 22  1  0  0  0  0
 23 24  2  0  0  0  0
 23 25  1  0  0  0  0
 25 26  1  0  0  0  0
 25 27  1  0  0  0  0
 27 28  1  0  0  0  0
 27 29  1  0  0  0  0
 27 30  1  0  0  0  0
M  CHG  1  15   1
M  END
$$$$

  -OEChem-04042216003D

 30 30  0     1  0  0  0  0  0999 V2000
   -3.2683   -3.8582    1.4854 H   0  0  0  0  0  0  0  0  0  0  0  0
   -3.2407   -3.0327    0.7680 C   0  0  0  0  0  0  0  0  0  0  0  0
   -3.9103   -2.2437    1.1183 H   0  0  0  0  0  0  0  0  0  0  0  0
   -3.5913   -3.3988   -0.1997 H   0  0  0  0  0  0  0  0  0  0  0  0
   -1.8256   -2.5015    0.6433 C   0  0  0  0  0  0  0  0  0  0  0  0
   -0.9220   -3.0071    1.2825 O   0  0  0  0  0  0  0  0  0  0  0  0
   -1.5420   -1.4519   -0.2126 N   0  0  0  0  0  0  0  0  0  0  0  0
   -2.3307   -1.0341   -0.6982 H   0  0  0  0  0  0  0  0  0  0  0  0
   -0.2154   -0.8023   -0.2779 C   0  0  1  0  0  0  0  0  0  0  0  0
    0.5225   -1.5896   -0.4545 H   0  0  0  0  0  0  0  0  0  0  0  0
   -0.1539    0.2389   -1.4186 C   0  0  0  0  0  0  0  0  0  0  0  0
   -1.1375    0.7050   -1.5303 H   0  0  0  0  0  0  0  0  0  0  0  0
    0.5471    1.0372   -1.1452 H   0  0  0  0  0  0  0  0  0  0  0  0
    0.3075   -0.3310   -2.7463 C   0  0  0  0  0  0  0  0  0  0  0  0
   -0.0823    0.1455   -4.0014 N   0  3  0  0  0  0  0  0  0  0  0  0
   -0.7094    0.9448   -4.1248 H   0  0  0  0  0  0  0  0  0  0  0  0
    0.5072   -0.5331   -4.9566 C   0  0  0  0  0  0  0  0  0  0  0  0
    0.4028   -0.3685   -6.0312 H   0  0  0  0  0  0  0  0  0  0  0  0
    1.3037   -1.4971   -4.3454 N   0  0  0  0  0  0  0  0  0  0  0  0
    1.9034   -2.1742   -4.8280 H   0  0  0  0  0  0  0  0  0  0  0  0
    1.1856   -1.3681   -2.9678 C   0  0  0  0  0  0  0  0  0  0  0  0
    1.7074   -1.9587   -2.2127 H   0  0  0  0  0  0  0  0  0  0  0  0
    0.2532   -0.1603    1.0440 C   0  0  0  0  0  0  0  0  0  0  0  0
    1.4568   -0.0664    1.2334 O   0  0  0  0  0  0  0  0  0  0  0  0
   -0.6123    0.6085    1.8013 N   0  0  0  0  0  0  0  0  0  0  0  0
   -1.6043    0.4332    1.6764 H   0  0  0  0  0  0  0  0  0  0  0  0
   -0.1821    1.3035    3.0119 C   0  0  0  0  0  0  0  0  0  0  0  0
    0.6006    2.0337    2.7794 H   0  0  0  0  0  0  0  0  0  0  0  0
   -1.0236    1.8363    3.4658 H   0  0  0  0  0  0  0  0  0  0  0  0
    0.2118    0.5904    3.7447 H   0  0  0  0  0  0  0  0  0  0  0  0
  1  2  1  0  0  0  0
  2  3  1  0  0  0  0
  2  4  1  0  0  0  0
  2  5  1  0  0  0  0
  5  6  2  0  0  0  0
  5  7  1  0  0  0  0
  7  8  1  0  0  0  0
  7  9  1  0  0  0  0
  9 10  1  0  0  0  0
  9 11  1  0  0  0  0
  9 23  1  0  0  0  0
 11 12  1  0  0  0  0
 11 13  1  0  0  0  0
 11 14  1  0  0  0  0
 14 15  1  0  0  0  0
 14 21  2  0  0  0  0
 15 16  1  0  0  0  0
 15 17  2  0  0  0  0
 17 18  1  0  0  0  0
 17 19  1  0  0  0  0
 19 20  1  0  0  0  0
 19 21  1  0  0  0  0
 21 22  1  0  0  0  0
 23 24  2  0  0  0  0
 23 25  1  0  0  0  0
 25 26  1  0  0  0  0
 25 27  1  0  0  0  0
 27 28  1  0  0  0  0
 27 29  1  0  0  0  0
 27 30  1  0  0  0  0
M  CHG  1  15   1
M  END
$$$$

  -OEChem-04042216003D

 30 30  0     1  0  0  0  0  0999 V2000
   -3.2628   -3.8460    1.5145 H   0  0  0  0  0  0  0  0  0  0  0  0
   -3.2315   -3.0222    0.7951 C   0  0  0  0  0  0  0  0  0  0  0  0
   -3.8904   -2.2254    1.1481 H   0  0  0  0  0  0  0  0  0  0  0  0
   -3.5925   -3.3873   -0.1693 H   0  0  0  0  0  0  0  0  0  0  0  0
   -1.8119   -2.5059    0.6602 C   0  0  0  0  0  0  0  0  0  0  0  0
   -0.9099   -3.0161    1.2981 O   0  0  0  0  0  0  0  0  0  0  0  0
   -1.5206   -1.4690   -0.2084 N   0  0  0  0  0  0  0  0  0  0  0  0
   -2.3076   -1.0463   -0.6928 H   0  0  0  0  0  0  0  0  0  0  0  0
   -0.1933   -0.8207   -0.2703 C   0  0  1  0  0  0  0  0  0  0  0  0
    0.5570   -1.5997   -0.4307 H   0  0  0  0  0  0  0  0  0  0  0  0
   -0.1312    0.2151   -1.4152 C   0  0  0  0  0  0  0  0  0  0  0  0
   -1.1136    0.6837   -1.5279 H   0  0  0  0  0  0  0  0  0  0  0  0
    0.5727    1.0103   -1.1398 H   0  0  0  0  0  0  0  0  0  0  0  0
    0.3304   -0.3469   -2.7474 C   0  0  0  0  0  0  0  0  0  0  0  0
    0.1785    0.3168   -3.9683 N   0  3  0  0  0  0  0  0  0  0  0  0
   -0.2214    1.2560   -4.0450 H   0  0  0  0  0  0  0  0  0  0  0  0
    0.6720   -0.3990   -4.9499 C   0  0  0  0  0  0  0  0  0  0  0  0
    0.7100   -0.1177   -6.0045 H   0  0  0  0  0  0  0  0  0  0  0  0
    1.1502   -1.5822   -4.3951 N   0  0  0  0  0  0  0  0  0  0  0  0
    1.6064   -2.3435   -4.9081 H   0  0  0  0  0  0  0  0  0  0  0  0
    0.9370   -1.5527   -3.0228 C   0  0  0  0  0  0  0  0  0  0  0  0
    1.2112   -2.3313   -2.3098 H   0  0  0  0  0  0  0  0  0  0  0  0
    0.2523   -0.1623    1.0526 C   0  0  0  0  0  0  0  0  0  0  0  0
    1.4515   -0.0657    1.2653 O   0  0  0  0  0  0  0  0  0  0  0  0
   -0.6275    0.6136    1.7866 N   0  0  0  0  0  0  0  0  0  0  0  0
   -1.6172    0.4401    1.6431 H   0  0  0  0  0  0  0  0  0  0  0  0
   -0.2203    1.3191    2.9992 C   0  0  0  0  0  0  0  0  0  0  0  0
    0.5903    2.0234    2.7821 H   0  0  0  0  0  0  0  0  0  0  0  0
   -1.0614    1.8835    3.4137 H   0  0  0  0  0  0  0  0  0  0  0  0
    0.1281    0.6093    3.7576 H   0  0  0  0  0  0  0  0  0  0  0  0
  1  2  1  0  0  0  0
  2  3  1  0  0  0  0
  2  4  1  0  0  0  0
  2  5  1  0  0  0  0
  5  6  2  0  0  0  0
  5  7  1  0  0  0  0
  7  8  1  0  0  0  0
  7  9  1  0  0  0  0
  9 10  1  0  0  0  0
  9 11  1  0  0  0  0
  9 23  1  0  0  0  0
 11 12  1  0  0  0  0
 11 13  1  0  0  0  0
 11 14  1  0  0  0  0
 14 15  1  0  0  0  0
 14 21  2  0  0  0  0
 15 16  1  0  0  0  0
 15 17  2  0  0  0  0
 17 18  1  0  0  0  0
 17 19  1  0  0  0  0
 19 20  1  0  0  0  0
 19 21  1  0  0  0  0
 21 22  1  0  0  0  0
 23 24  2  0  0  0  0
 23 25  1  0  0  0  0
 25 26  1  0  0  0  0
 25 27  1  0  0  0  0
 27 28  1  0  0  0  0
 27 29  1  0  0  0  0
 27 30  1  0  0  0  0
M  CHG  1  15   1
M  END
$$$$

  -OEChem-04042216003D

 30 30  0     1  0  0  0  0  0999 V2000
   -3.2300   -3.8351    1.5567 H   0  0  0  0  0  0  0  0  0  0  0  0
   -3.2227   -2.9963    0.8538 C   0  0  0  0  0  0  0  0  0  0  0  0
   -3.8274   -2.1875    1.2705 H   0  0  0  0  0  0  0  0  0  0  0  0
   -3.6643   -3.3262   -0.0895 H   0  0  0  0  0  0  0  0  0  0  0  0
   -1.7998   -2.5226    0.6280 C   0  0  0  0  0  0  0  0  0  0  0  0
   -0.8709   -3.0898    1.1711 O   0  0  0  0  0  0  0  0  0  0  0  0
   -1.5344   -1.4695   -0.2291 N   0  0  0  0  0  0  0  0  0  0  0  0
   -2.3443   -0.9823   -0.6034 H   0  0  0  0  0  0  0  0  0  0  0  0
   -0.2120   -0.8085   -0.2874 C   0  0  1  0  0  0  0  0  0  0  0  0
    0.5488   -1.5738   -0.4815 H   0  0  0  0  0  0  0  0  0  0  0  0
   -0.1581    0.2346   -1.4189 C   0  0  0  0  0  0  0  0  0  0  0  0
   -1.0414    0.8789   -1.3646 H   0  0  0  0  0  0  0  0  0  0  0  0
    0.7209    0.8723   -1.2630 H   0  0  0  0  0  0  0  0  0  0  0  0
   -0.0446   -0.3786   -2.8001 C   0  0  0  0  0  0  0  0  0  0  0  0
    0.0223    0.3532   -3.9885 N   0  3  0  0  0  0  0  0  0  0  0  0
    0.0324    1.3768   -4.0123 H   0  0  0  0  0  0  0  0  0  0  0  0
    0.1379   -0.4506   -5.0184 C   0  0  0  0  0  0  0  0  0  0  0  0
    0.2358   -0.1546   -6.0651 H   0  0  0  0  0  0  0  0  0  0  0  0
    0.1272   -1.7535   -4.5274 N   0  0  0  0  0  0  0  0  0  0  0  0
    0.2180   -2.6060   -5.0893 H   0  0  0  0  0  0  0  0  0  0  0  0
    0.0140   -1.7101   -3.1434 C   0  0  0  0  0  0  0  0  0  0  0  0
   -0.0124   -2.5608   -2.4602 H   0  0  0  0  0  0  0  0  0  0  0  0
    0.2386   -0.1672    1.0418 C   0  0  0  0  0  0  0  0  0  0  0  0
    1.4373   -0.0638    1.2517 O   0  0  0  0  0  0  0  0  0  0  0  0
   -0.6426    0.5906    1.7933 N   0  0  0  0  0  0  0  0  0  0  0  0
   -1.6330    0.4268    1.6455 H   0  0  0  0  0  0  0  0  0  0  0  0
   -0.2316    1.2967    3.0047 C   0  0  0  0  0  0  0  0  0  0  0  0
    0.5523    2.0277    2.7778 H   0  0  0  0  0  0  0  0  0  0  0  0
   -1.0809    1.8305    3.4426 H   0  0  0  0  0  0  0  0  0  0  0  0
    0.1541    0.5905    3.7482 H   0  0  0  0  0  0  0  0  0  0  0  0
  1  2  1  0  0  0  0
  2  3  1  0  0  0  0
  2  4  1  0  0  0  0
  2  5  1  0  0  0  0
  5  6  2  0  0  0  0
  5  7  1  0  0  0  0
  7  8  1  0  0  0  0
  7  9  1  0  0  0  0
  9 10  1  0  0  0  0
  9 11  1  0  0  0  0
  9 23  1  0  0  0  0
 11 12  1  0  0  0  0
 11 13  1  0  0  0  0
 11 14  1  0  0  0  0
 14 15  1  0  0  0  0
 14 21  2  0  0  0  0
 15 16  1  0  0  0  0
 15 17  2  0  0  0  0
 17 18  1  0  0  0  0
 17 19  1  0  0  0  0
 19 20  1  0  0  0  0
 19 21  1  0  0  0  0
 21 22  1  0  0  0  0
 23 24  2  0  0  0  0
 23 25  1  0  0  0  0
 25 26  1  0  0  0  0
 25 27  1  0  0  0  0
 27 28  1  0  0  0  0
 27 29  1  0  0  0  0
 27 30  1  0  0  0  0
M  CHG  1  15   1
M  END
$$$$

  -OEChem-04042216003D

 30 30  0     1  0  0  0  0  0999 V2000
   -3.2377   -3.8228    1.5744 H   0  0  0  0  0  0  0  0  0  0  0  0
   -3.2375   -2.9765    0.8807 C   0  0  0  0  0  0  0  0  0  0  0  0
   -3.8159   -2.1626    1.3241 H   0  0  0  0  0  0  0  0  0  0  0  0
   -3.7127   -3.2891   -0.0520 H   0  0  0  0  0  0  0  0  0  0  0  0
   -1.8145   -2.5236    0.6166 C   0  0  0  0  0  0  0  0  0  0  0  0
   -0.8790   -3.1095    1.1274 O   0  0  0  0  0  0  0  0  0  0  0  0
   -1.5580   -1.4646   -0.2363 N   0  0  0  0  0  0  0  0  0  0  0  0
   -2.3731   -0.9552   -0.5683 H   0  0  0  0  0  0  0  0  0  0  0  0
   -0.2341   -0.8053   -0.3006 C   0  0  1  0  0  0  0  0  0  0  0  0
    0.5206   -1.5732   -0.5117 H   0  0  0  0  0  0  0  0  0  0  0  0
   -0.1826    0.2407   -1.4292 C   0  0  0  0  0  0  0  0  0  0  0  0
   -1.0600    0.8928   -1.3725 H   0  0  0  0  0  0  0  0  0  0  0  0
    0.7015    0.8706   -1.2715 H   0  0  0  0  0  0  0  0  0  0  0  0
   -0.0754   -0.3716   -2.8109 C   0  0  0  0  0  0  0  0  0  0  0  0
    0.2840    0.3329   -3.9626 N   0  3  0  0  0  0  0  0  0  0  0  0
    0.5007    1.3337   -3.9583 H   0  0  0  0  0  0  0  0  0  0  0  0
    0.3499   -0.4738   -4.9944 C   0  0  0  0  0  0  0  0  0  0  0  0
    0.6231   -0.2001   -6.0158 H   0  0  0  0  0  0  0  0  0  0  0  0
    0.0211   -1.7489   -4.5416 N   0  0  0  0  0  0  0  0  0  0  0  0
    0.0077   -2.6012   -5.1108 H   0  0  0  0  0  0  0  0  0  0  0  0
   -0.2347   -1.6881   -3.1772 C   0  0  0  0  0  0  0  0  0  0  0  0
   -0.4884   -2.5198   -2.5179 H   0  0  0  0  0  0  0  0  0  0  0  0
    0.2319   -0.1740    1.0276 C   0  0  0  0  0  0  0  0  0  0  0  0
    1.4330   -0.0716    1.2230 O   0  0  0  0  0  0  0  0  0  0  0  0
   -0.6398    0.5809    1.7930 N   0  0  0  0  0  0  0  0  0  0  0  0
   -1.6323    0.4245    1.6521 H   0  0  0  0  0  0  0  0  0  0  0  0
   -0.2153    1.2800    3.0037 C   0  0  0  0  0  0  0  0  0  0  0  0
    0.5760    2.0021    2.7746 H   0  0  0  0  0  0  0  0  0  0  0  0
   -1.0562    1.8235    3.4459 H   0  0  0  0  0  0  0  0  0  0  0  0
    0.1655    0.5684    3.7447 H   0  0  0  0  0  0  0  0  0  0  0  0
  1  2  1  0  0  0  0
  2  3  1  0  0  0  0
  2  4  1  0  0  0  0
  2  5  1  0  0  0  0
  5  6  2  0  0  0  0
  5  7  1  0  0  0  0
  7  8  1  0  0  0  0
  7  9  1  0  0  0  0
  9 10  1  0  0  0  0
  9 11  1  0  0  0  0
  9 23  1  0  0  0  0
 11 12  1  0  0  0  0
 11 13  1  0  0  0  0
 11 14  1  0  0  0  0
 14 15  1  0  0  0  0
 14 21  2  0  0  0  0
 15 16  1  0  0  0  0
 15 17  2  0  0  0  0
 17 18  1  0  0  0  0
 17 19  1  0  0  0  0
 19 20  1  0  0  0  0
 19 21  1  0  0  0  0
 21 22  1  0  0  0  0
 23 24  2  0  0  0  0
 23 25  1  0  0  0  0
 25 26  1  0  0  0  0
 25 27  1  0  0  0  0
 27 28  1  0  0  0  0
 27 29  1  0  0  0  0
 27 30  1  0  0  0  0
M  CHG  1  15   1
M  END
$$$$

  -OEChem-04042216003D

 30 30  0     1  0  0  0  0  0999 V2000
   -3.2372   -3.8182    1.5754 H   0  0  0  0  0  0  0  0  0  0  0  0
   -3.2470   -2.9654    0.8896 C   0  0  0  0  0  0  0  0  0  0  0  0
   -3.8096   -2.1520    1.3537 H   0  0  0  0  0  0  0  0  0  0  0  0
   -3.7455   -3.2661   -0.0349 H   0  0  0  0  0  0  0  0  0  0  0  0
   -1.8271   -2.5192    0.5981 C   0  0  0  0  0  0  0  0  0  0  0  0
   -0.8849   -3.1185    1.0798 O   0  0  0  0  0  0  0  0  0  0  0  0
   -1.5837   -1.4499   -0.2461 N   0  0  0  0  0  0  0  0  0  0  0  0
   -2.4038   -0.9217   -0.5339 H   0  0  0  0  0  0  0  0  0  0  0  0
   -0.2597   -0.7902   -0.3160 C   0  0  1  0  0  0  0  0  0  0  0  0
    0.4877   -1.5612   -0.5434 H   0  0  0  0  0  0  0  0  0  0  0  0
   -0.2066    0.2597   -1.4407 C   0  0  0  0  0  0  0  0  0  0  0  0
   -1.0792    0.9184   -1.3847 H   0  0  0  0  0  0  0  0  0  0  0  0
    0.6808    0.8836   -1.2798 H   0  0  0  0  0  0  0  0  0  0  0  0
   -0.1016   -0.3517   -2.8225 C   0  0  0  0  0  0  0  0  0  0  0  0
    0.5348    0.2558   -3.9079 N   0  3  0  0  0  0  0  0  0  0  0  0
    0.9586    1.1865   -3.8551 H   0  0  0  0  0  0  0  0  0  0  0  0
    0.5473   -0.5476   -4.9440 C   0  0  0  0  0  0  0  0  0  0  0  0
    0.9889   -0.3397   -5.9208 H   0  0  0  0  0  0  0  0  0  0  0  0
   -0.0921   -1.7234   -4.5600 N   0  0  0  0  0  0  0  0  0  0  0  0
   -0.2133   -2.5563   -5.1448 H   0  0  0  0  0  0  0  0  0  0  0  0
   -0.4810   -1.6090   -3.2310 C   0  0  0  0  0  0  0  0  0  0  0  0
   -0.9601   -2.3735   -2.6184 H   0  0  0  0  0  0  0  0  0  0  0  0
    0.2251   -0.1736    1.0124 C   0  0  0  0  0  0  0  0  0  0  0  0
    1.4290   -0.0759    1.1933 O   0  0  0  0  0  0  0  0  0  0  0  0
   -0.6341    0.5745    1.7982 N   0  0  0  0  0  0  0  0  0  0  0  0
   -1.6293    0.4310    1.6638 H   0  0  0  0  0  0  0  0  0  0  0  0
   -0.1913    1.2596    3.0102 C   0  0  0  0  0  0  0  0  0  0  0  0
    0.5917    1.9893    2.7765 H   0  0  0  0  0  0  0  0  0  0  0  0
   -1.0268    1.7919    3.4755 H   0  0  0  0  0  0  0  0  0  0  0  0
    0.2070    0.5401    3.7339 H   0  0  0  0  0  0  0  0  0  0  0  0
  1  2  1  0  0  0  0
  2  3  1  0  0  0  0
  2  4  1  0  0  0  0
  2  5  1  0  0  0  0
  5  6  2  0  0  0  0
  5  7  1  0  0  0  0
  7  8  1  0  0  0  0
  7  9  1  0  0  0  0
  9 10  1  0  0  0  0
  9 11  1  0  0  0  0
  9 23  1  0  0  0  0
 11 12  1  0  0  0  0
 11 13  1  0  0  0  0
 11 14  1  0  0  0  0
 14 15  1  0  0  0  0
 14 21  2  0  0  0  0
 15 16  1  0  0  0  0
 15 17  2  0  0  0  0
 17 18  1  0  0  0  0
 17 19  1  0  0  0  0
 19 20  1  0  0  0  0
 19 21  1  0  0  0  0
 21 22  1  0  0  0  0
 23 24  2  0  0  0  0
 23 25  1  0  0  0  0
 25 26  1  0  0  0  0
 25 27  1  0  0  0  0
 27 28  1  0  0  0  0
 27 29  1  0  0  0  0
 27 30  1  0  0  0  0
M  CHG  1  15   1
M  END
$$$$

  -OEChem-04042216003D

 30 30  0     1  0  0  0  0  0999 V2000
   -3.2225   -3.8226    1.5672 H   0  0  0  0  0  0  0  0  0  0  0  0
   -3.2432   -2.9665    0.8861 C   0  0  0  0  0  0  0  0  0  0  0  0
   -3.7999   -2.1562    1.3626 H   0  0  0  0  0  0  0  0  0  0  0  0
   -3.7548   -3.2634   -0.0324 H   0  0  0  0  0  0  0  0  0  0  0  0
   -1.8282   -2.5174    0.5763 C   0  0  0  0  0  0  0  0  0  0  0  0
   -0.8796   -3.1185    1.0432 O   0  0  0  0  0  0  0  0  0  0  0  0
   -1.5987   -1.4371   -0.2583 N   0  0  0  0  0  0  0  0  0  0  0  0
   -2.4232   -0.8975   -0.5096 H   0  0  0  0  0  0  0  0  0  0  0  0
   -0.2769   -0.7726   -0.3288 C   0  0  1  0  0  0  0  0  0  0  0  0
    0.4661   -1.5447   -0.5679 H   0  0  0  0  0  0  0  0  0  0  0  0
   -0.2171    0.2831   -1.4478 C   0  0  0  0  0  0  0  0  0  0  0  0
   -1.0909    0.9407   -1.3960 H   0  0  0  0  0  0  0  0  0  0  0  0
    0.6677    0.9090   -1.2798 H   0  0  0  0  0  0  0  0  0  0  0  0
   -0.1064   -0.3301   -2.8276 C   0  0  0  0  0  0  0  0  0  0  0  0
    0.7736    0.1137   -3.8181 N   0  3  0  0  0  0  0  0  0  0  0  0
    1.3961    0.9168   -3.6904 H   0  0  0  0  0  0  0  0  0  0  0  0
    0.7157   -0.6664   -4.8700 C   0  0  0  0  0  0  0  0  0  0  0  0
    1.3021   -0.5652   -5.7857 H   0  0  0  0  0  0  0  0  0  0  0  0
   -0.2200   -1.6594   -4.5935 N   0  0  0  0  0  0  0  0  0  0  0  0
   -0.4650   -2.4382   -5.2132 H   0  0  0  0  0  0  0  0  0  0  0  0
   -0.7199   -1.4606   -3.3121 C   0  0  0  0  0  0  0  0  0  0  0  0
   -1.4292   -2.0932   -2.7794 H   0  0  0  0  0  0  0  0  0  0  0  0
    0.2196   -0.1694    1.0012 C   0  0  0  0  0  0  0  0  0  0  0  0
    1.4254   -0.0684    1.1677 O   0  0  0  0  0  0  0  0  0  0  0  0
   -0.6316    0.5688    1.8048 N   0  0  0  0  0  0  0  0  0  0  0  0
   -1.6282    0.4233    1.6825 H   0  0  0  0  0  0  0  0  0  0  0  0
   -0.1741    1.2446    3.0168 C   0  0  0  0  0  0  0  0  0  0  0  0
    0.6124    1.9698    2.7808 H   0  0  0  0  0  0  0  0  0  0  0  0
   -1.0018    1.7809    3.4915 H   0  0  0  0  0  0  0  0  0  0  0  0
    0.2246    0.5179    3.7333 H   0  0  0  0  0  0  0  0  0  0  0  0
  1  2  1  0  0  0  0
  2  3  1  0  0  0  0
  2  4  1  0  0  0  0
  2  5  1  0  0  0  0
  5  6  2  0  0  0  0
  5  7  1  0  0  0  0
  7  8  1  0  0  0  0
  7  9  1  0  0  0  0
  9 10  1  0  0  0  0
  9 11  1  0  0  0  0
  9 23  1  0  0  0  0
 11 12  1  0  0  0  0
 11 13  1  0  0  0  0
 11 14  1  0  0  0  0
 14 15  1  0  0  0  0
 14 21  2  0  0  0  0
 15 16  1  0  0  0  0
 15 17  2  0  0  0  0
 17 18  1  0  0  0  0
 17 19  1  0  0  0  0
 19 20  1  0  0  0  0
 19 21  1  0  0  0  0
 21 22  1  0  0  0  0
 23 24  2  0  0  0  0
 23 25  1  0  0  0  0
 25 26  1  0  0  0  0
 25 27  1  0  0  0  0
 27 28  1  0  0  0  0
 27 29  1  0  0  0  0
 27 30  1  0  0  0  0
M  CHG  1  15   1
M  END
$$$$

  -OEChem-04042216003D

 30 30  0     1  0  0  0  0  0999 V2000
   -3.2068   -3.8320    1.5342 H   0  0  0  0  0  0  0  0  0  0  0  0
   -3.2291   -2.9778    0.8507 C   0  0  0  0  0  0  0  0  0  0  0  0
   -3.8018   -2.1731    1.3178 H   0  0  0  0  0  0  0  0  0  0  0  0
   -3.7253   -3.2830   -0.0734 H   0  0  0  0  0  0  0  0  0  0  0  0
   -1.8156   -2.5132    0.5563 C   0  0  0  0  0  0  0  0  0  0  0  0
   -0.8654   -3.1064    1.0306 O   0  0  0  0  0  0  0  0  0  0  0  0
   -1.5923   -1.4234   -0.2678 N   0  0  0  0  0  0  0  0  0  0  0  0
   -2.4195   -0.8816   -0.5030 H   0  0  0  0  0  0  0  0  0  0  0  0
   -0.2741   -0.7527   -0.3316 C   0  0  1  0  0  0  0  0  0  0  0  0
    0.4687   -1.5238   -0.5737 H   0  0  0  0  0  0  0  0  0  0  0  0
   -0.2092    0.3052   -1.4474 C   0  0  0  0  0  0  0  0  0  0  0  0
   -1.0929    0.9503   -1.4056 H   0  0  0  0  0  0  0  0  0  0  0  0
    0.6639    0.9464   -1.2777 H   0  0  0  0  0  0  0  0  0  0  0  0
   -0.0876   -0.3263   -2.8160 C   0  0  0  0  0  0  0  0  0  0  0  0
    0.9767   -0.1135   -3.6958 N   0  3  0  0  0  0  0  0  0  0  0  0
    1.7682    0.4984   -3.4753 H   0  0  0  0  0  0  0  0  0  0  0  0
    0.8299   -0.8391   -4.7777 C   0  0  0  0  0  0  0  0  0  0  0  0
    1.5164   -0.8852   -5.6260 H   0  0  0  0  0  0  0  0  0  0  0  0
   -0.3584   -1.5515   -4.6363 N   0  0  0  0  0  0  0  0  0  0  0  0
   -0.7343   -2.2248   -5.3114 H   0  0  0  0  0  0  0  0  0  0  0  0
   -0.9270   -1.2386   -3.4069 C   0  0  0  0  0  0  0  0  0  0  0  0
   -1.8404   -1.6507   -2.9807 H   0  0  0  0  0  0  0  0  0  0  0  0
    0.2243   -0.1590    1.0017 C   0  0  0  0  0  0  0  0  0  0  0  0
    1.4307   -0.0494    1.1602 O   0  0  0  0  0  0  0  0  0  0  0  0
   -0.6276    0.5688    1.8139 N   0  0  0  0  0  0  0  0  0  0  0  0
   -1.6231    0.4091    1.7011 H   0  0  0  0  0  0  0  0  0  0  0  0
   -0.1693    1.2377    3.0292 C   0  0  0  0  0  0  0  0  0  0  0  0
    0.5923    1.9885    2.7920 H   0  0  0  0  0  0  0  0  0  0  0  0
   -1.0041    1.7424    3.5258 H   0  0  0  0  0  0  0  0  0  0  0  0
    0.2615    0.5120    3.7278 H   0  0  0  0  0  0  0  0  0  0  0  0
  1  2  1  0  0  0  0
  2  3  1  0  0  0  0
  2  4  1  0  0  0  0
  2  5  1  0  0  0  0
  5  6  2  0  0  0  0
  5  7  1  0  0  0  0
  7  8  1  0  0  0  0
  7  9  1  0  0  0  0
  9 10  1  0  0  0  0
  9 11  1  0  0  0  0
  9 23  1  0  0  0  0
 11 12  1  0  0  0  0
 11 13  1  0  0  0  0
 11 14  1  0  0  0  0
 14 15  1  0  0  0  0
 14 21  2  0  0  0  0
 15 16  1  0  0  0  0
 15 17  2  0  0  0  0
 17 18  1  0  0  0  0
 17 19  1  0  0  0  0
 19 20  1  0  0  0  0
 19 21  1  0  0  0  0
 21 22  1  0  0  0  0
 23 24  2  0  0  0  0
 23 25  1  0  0  0  0
 25 26  1  0  0  0  0
 25 27  1  0  0  0  0
 27 28  1  0  0  0  0
 27 29  1  0  0  0  0
 27 30  1  0  0  0  0
M  CHG  1  15   1
M  END
$$$$

  -OEChem-04042216003D

 30 30  0     1  0  0  0  0  0999 V2000
   -3.1953   -3.8599    1.5022 H   0  0  0  0  0  0  0  0  0  0  0  0
   -3.2172   -3.0060    0.8184 C   0  0  0  0  0  0  0  0  0  0  0  0
   -3.8179   -2.2132    1.2702 H   0  0  0  0  0  0  0  0  0  0  0  0
   -3.6823   -3.3208   -0.1186 H   0  0  0  0  0  0  0  0  0  0  0  0
   -1.8063   -2.5127    0.5610 C   0  0  0  0  0  0  0  0  0  0  0  0
   -0.8578   -3.0823    1.0669 O   0  0  0  0  0  0  0  0  0  0  0  0
   -1.5831   -1.4222   -0.2618 N   0  0  0  0  0  0  0  0  0  0  0  0
   -2.4120   -0.9008   -0.5314 H   0  0  0  0  0  0  0  0  0  0  0  0
   -0.2684   -0.7463   -0.3250 C   0  0  1  0  0  0  0  0  0  0  0  0
    0.4756   -1.5170   -0.5648 H   0  0  0  0  0  0  0  0  0  0  0  0
   -0.2054    0.3094   -1.4410 C   0  0  0  0  0  0  0  0  0  0  0  0
   -1.1001    0.9389   -1.4048 H   0  0  0  0  0  0  0  0  0  0  0  0
    0.6564    0.9683   -1.2810 H   0  0  0  0  0  0  0  0  0  0  0  0
   -0.0804   -0.3475   -2.7943 C   0  0  0  0  0  0  0  0  0  0  0  0
    1.0968   -0.3975   -3.5434 N   0  3  0  0  0  0  0  0  0  0  0  0
    1.9895   -0.0268   -3.2030 H   0  0  0  0  0  0  0  0  0  0  0  0
    0.8919   -1.0278   -4.6742 C   0  0  0  0  0  0  0  0  0  0  0  0
    1.6373   -1.2340   -5.4452 H   0  0  0  0  0  0  0  0  0  0  0  0
   -0.4526   -1.3918   -4.7040 N   0  0  0  0  0  0  0  0  0  0  0  0
   -0.9146   -1.9035   -5.4624 H   0  0  0  0  0  0  0  0  0  0  0  0
   -1.0624   -0.9637   -3.5297 C   0  0  0  0  0  0  0  0  0  0  0  0
   -2.1046   -1.0953   -3.2424 H   0  0  0  0  0  0  0  0  0  0  0  0
    0.2319   -0.1483    1.0049 C   0  0  0  0  0  0  0  0  0  0  0  0
    1.4392   -0.0347    1.1564 O   0  0  0  0  0  0  0  0  0  0  0  0
   -0.6192    0.5786    1.8184 N   0  0  0  0  0  0  0  0  0  0  0  0
   -1.6145    0.4148    1.7087 H   0  0  0  0  0  0  0  0  0  0  0  0
   -0.1593    1.2481    3.0328 C   0  0  0  0  0  0  0  0  0  0  0  0
    0.5921    2.0083    2.7929 H   0  0  0  0  0  0  0  0  0  0  0  0
   -0.9960    1.7411    3.5376 H   0  0  0  0  0  0  0  0  0  0  0  0
    0.2842    0.5245    3.7259 H   0  0  0  0  0  0  0  0  0  0  0  0
  1  2  1  0  0  0  0
  2  3  1  0  0  0  0
  2  4  1  0  0  0  0
  2  5  1  0  0  0  0
  5  6  2  0  0  0  0
  5  7  1  0  0  0  0
  7  8  1  0  0  0  0
  7  9  1  0  0  0  0
  9 10  1  0  0  0  0
  9 11  1  0  0  0  0
  9 23  1  0  0  0  0
 11 12  1  0  0  0  0
 11 13  1  0  0  0  0
 11 14  1  0  0  0  0
 14 15  1  0  0  0  0
 14 21  2  0  0  0  0
 15 16  1  0  0  0  0
 15 17  2  0  0  0  0
 17 18  1  0  0  0  0
 17 19  1  0  0  0  0
 19 20  1  0  0  0  0
 19 21  1  0  0  0  0
 21 22  1  0  0  0  0
 23 24  2  0  0  0  0
 23 25  1  0  0  0  0
 25 26  1  0  0  0  0
 25 27  1  0  0  0  0
 27 28  1  0  0  0  0
 27 29  1  0  0  0  0
 27 30  1  0  0  0  0
M  CHG  1  15   1
M  END
$$$$

  -OEChem-04042216003D

 30 30  0     1  0  0  0  0  0999 V2000
   -3.2030   -3.8773    1.4831 H   0  0  0  0  0  0  0  0  0  0  0  0
   -3.2189   -3.0257    0.7962 C   0  0  0  0  0  0  0  0  0  0  0  0
   -3.8391   -2.2385    1.2310 H   0  0  0  0  0  0  0  0  0  0  0  0
   -3.6577   -3.3488   -0.1506 H   0  0  0  0  0  0  0  0  0  0  0  0
   -1.8086   -2.5163    0.5702 C   0  0  0  0  0  0  0  0  0  0  0  0
   -0.8648   -3.0695    1.1028 O   0  0  0  0  0  0  0  0  0  0  0  0
   -1.5793   -1.4269   -0.2516 N   0  0  0  0  0  0  0  0  0  0  0  0
   -2.4052   -0.9295   -0.5707 H   0  0  0  0  0  0  0  0  0  0  0  0
   -0.2657   -0.7510   -0.3172 C   0  0  1  0  0  0  0  0  0  0  0  0
    0.4764   -1.5227   -0.5575 H   0  0  0  0  0  0  0  0  0  0  0  0
   -0.2104    0.3063   -1.4320 C   0  0  0  0  0  0  0  0  0  0  0  0
   -1.1072    0.9326   -1.3898 H   0  0  0  0  0  0  0  0  0  0  0  0
    0.6505    0.9688   -1.2811 H   0  0  0  0  0  0  0  0  0  0  0  0
   -0.0913   -0.3561   -2.7817 C   0  0  0  0  0  0  0  0  0  0  0  0
    1.1191   -0.6738   -3.4007 N   0  3  0  0  0  0  0  0  0  0  0  0
    2.0294   -0.5271   -2.9526 H   0  0  0  0  0  0  0  0  0  0  0  0
    0.9027   -1.2052   -4.5791 C   0  0  0  0  0  0  0  0  0  0  0  0
    1.6625   -1.5634   -5.2772 H   0  0  0  0  0  0  0  0  0  0  0  0
   -0.4772   -1.2281   -4.7722 N   0  0  0  0  0  0  0  0  0  0  0  0
   -0.9561   -1.5835   -5.6057 H   0  0  0  0  0  0  0  0  0  0  0  0
   -1.0997   -0.6872   -3.6518 C   0  0  0  0  0  0  0  0  0  0  0  0
   -2.1685   -0.5483   -3.4938 H   0  0  0  0  0  0  0  0  0  0  0  0
    0.2382   -0.1503    1.0100 C   0  0  0  0  0  0  0  0  0  0  0  0
    1.4466   -0.0343    1.1527 O   0  0  0  0  0  0  0  0  0  0  0  0
   -0.6102    0.5782    1.8246 N   0  0  0  0  0  0  0  0  0  0  0  0
   -1.6050    0.4029    1.7265 H   0  0  0  0  0  0  0  0  0  0  0  0
   -0.1449    1.2597    3.0304 C   0  0  0  0  0  0  0  0  0  0  0  0
    0.6286    1.9956    2.7840 H   0  0  0  0  0  0  0  0  0  0  0  0
   -0.9733    1.7852    3.5158 H   0  0  0  0  0  0  0  0  0  0  0  0
    0.2727    0.5388    3.7420 H   0  0  0  0  0  0  0  0  0  0  0  0
  1  2  1  0  0  0  0
  2  3  1  0  0  0  0
  2  4  1  0  0  0  0
  2  5  1  0  0  0  0
  5  6  2  0  0  0  0
  5  7  1  0  0  0  0
  7  8  1  0  0  0  0
  7  9  1  0  0  0  0
  9 10  1  0  0  0  0
  9 11  1  0  0  0  0
  9 23  1  0  0  0  0
 11 12  1  0  0  0  0
 11 13  1  0  0  0  0
 11 14  1  0  0  0  0
 14 15  1  0  0  0  0
 14 21  2  0  0  0  0
 15 16  1  0  0  0  0
 15 17  2  0  0  0  0
 17 18  1  0  0  0  0
 17 19  1  0  0  0  0
 19 20  1  0  0  0  0
 19 21  1  0  0  0  0
 21 22  1  0  0  0  0
 23 24  2  0  0  0  0
 23 25  1  0  0  0  0
 25 26  1  0  0  0  0
 25 27  1  0  0  0  0
 27 28  1  0  0  0  0
 27 29  1  0  0  0  0
 27 30  1  0  0  0  0
M  CHG  1  15   1
M  END
$$$$

  -OEChem-04042216003D

 30 30  0     1  0  0  0  0  0999 V2000
   -3.2131   -3.8824    1.4589 H   0  0  0  0  0  0  0  0  0  0  0  0
   -3.2223   -3.0324    0.7698 C   0  0  0  0  0  0  0  0  0  0  0  0
   -3.8610   -2.2512    1.1887 H   0  0  0  0  0  0  0  0  0  0  0  0
   -3.6363   -3.3620   -0.1860 H   0  0  0  0  0  0  0  0  0  0  0  0
   -1.8123   -2.5084    0.5750 C   0  0  0  0  0  0  0  0  0  0  0  0
   -0.8748   -3.0507    1.1299 O   0  0  0  0  0  0  0  0  0  0  0  0
   -1.5736   -1.4210   -0.2467 N   0  0  0  0  0  0  0  0  0  0  0  0
   -2.3929   -0.9458   -0.6137 H   0  0  0  0  0  0  0  0  0  0  0  0
   -0.2592   -0.7479   -0.3126 C   0  0  1  0  0  0  0  0  0  0  0  0
    0.4816   -1.5208   -0.5505 H   0  0  0  0  0  0  0  0  0  0  0  0
   -0.2104    0.3113   -1.4265 C   0  0  0  0  0  0  0  0  0  0  0  0
   -1.1020    0.9446   -1.3751 H   0  0  0  0  0  0  0  0  0  0  0  0
    0.6578    0.9659   -1.2811 H   0  0  0  0  0  0  0  0  0  0  0  0
   -0.0983   -0.3491   -2.7781 C   0  0  0  0  0  0  0  0  0  0  0  0
    1.0651   -0.9350   -3.2815 N   0  3  0  0  0  0  0  0  0  0  0  0
    1.9369   -0.9943   -2.7450 H   0  0  0  0  0  0  0  0  0  0  0  0
    0.8586   -1.3876   -4.4941 C   0  0  0  0  0  0  0  0  0  0  0  0
    1.5871   -1.8992   -5.1268 H   0  0  0  0  0  0  0  0  0  0  0  0
   -0.4621   -1.0905   -4.8248 N   0  0  0  0  0  0  0  0  0  0  0  0
   -0.9166   -1.3102   -5.7168 H   0  0  0  0  0  0  0  0  0  0  0  0
   -1.0585   -0.4303   -3.7556 C   0  0  0  0  0  0  0  0  0  0  0  0
   -2.0763   -0.0445   -3.7034 H   0  0  0  0  0  0  0  0  0  0  0  0
    0.2439   -0.1457    1.0140 C   0  0  0  0  0  0  0  0  0  0  0  0
    1.4527   -0.0404    1.1607 O   0  0  0  0  0  0  0  0  0  0  0  0
   -0.6039    0.5857    1.8264 N   0  0  0  0  0  0  0  0  0  0  0  0
   -1.5987    0.4111    1.7264 H   0  0  0  0  0  0  0  0  0  0  0  0
   -0.1397    1.2577    3.0376 C   0  0  0  0  0  0  0  0  0  0  0  0
    0.6295    1.9996    2.7965 H   0  0  0  0  0  0  0  0  0  0  0  0
   -0.9700    1.7739    3.5297 H   0  0  0  0  0  0  0  0  0  0  0  0
    0.2829    0.5321    3.7413 H   0  0  0  0  0  0  0  0  0  0  0  0
  1  2  1  0  0  0  0
  2  3  1  0  0  0  0
  2  4  1  0  0  0  0
  2  5  1  0  0  0  0
  5  6  2  0  0  0  0
  5  7  1  0  0  0  0
  7  8  1  0  0  0  0
  7  9  1  0  0  0  0
  9 10  1  0  0  0  0
  9 11  1  0  0  0  0
  9 23  1  0  0  0  0
 11 12  1  0  0  0  0
 11 13  1  0  0  0  0
 11 14  1  0  0  0  0
 14 15  1  0  0  0  0
 14 21  2  0  0  0  0
 15 16  1  0  0  0  0
 15 17  2  0  0  0  0
 17 18  1  0  0  0  0
 17 19  1  0  0  0  0
 19 20  1  0  0  0  0
 19 21  1  0  0  0  0
 21 22  1  0  0  0  0
 23 24  2  0  0  0  0
 23 25  1  0  0  0  0
 25 26  1  0  0  0  0
 25 27  1  0  0  0  0
 27 28  1  0  0  0  0
 27 29  1  0  0  0  0
 27 30  1  0  0  0  0
M  CHG  1  15   1
M  END
$$$$

  -OEChem-04042216003D

 30 30  0     1  0  0  0  0  0999 V2000
   -3.2197   -3.8799    1.4488 H   0  0  0  0  0  0  0  0  0  0  0  0
   -3.2227   -3.0293    0.7608 C   0  0  0  0  0  0  0  0  0  0  0  0
   -3.8659   -2.2490    1.1741 H   0  0  0  0  0  0  0  0  0  0  0  0
   -3.6271   -3.3580   -0.1993 H   0  0  0  0  0  0  0  0  0  0  0  0
   -1.8116   -2.5041    0.5803 C   0  0  0  0  0  0  0  0  0  0  0  0
   -0.8786   -3.0455    1.1437 O   0  0  0  0  0  0  0  0  0  0  0  0
   -1.5634   -1.4220   -0.2454 N   0  0  0  0  0  0  0  0  0  0  0  0
   -2.3767   -0.9562   -0.6378 H   0  0  0  0  0  0  0  0  0  0  0  0
   -0.2474   -0.7525   -0.3065 C   0  0  1  0  0  0  0  0  0  0  0  0
    0.4950   -1.5258   -0.5337 H   0  0  0  0  0  0  0  0  0  0  0  0
   -0.2002    0.3062   -1.4218 C   0  0  0  0  0  0  0  0  0  0  0  0
   -1.0847    0.9490   -1.3661 H   0  0  0  0  0  0  0  0  0  0  0  0
    0.6753    0.9508   -1.2755 H   0  0  0  0  0  0  0  0  0  0  0  0
   -0.0890   -0.3426   -2.7805 C   0  0  0  0  0  0  0  0  0  0  0  0
    0.9524   -1.1770   -3.1951 N   0  3  0  0  0  0  0  0  0  0  0  0
    1.7384   -1.4320   -2.5883 H   0  0  0  0  0  0  0  0  0  0  0  0
    0.7699   -1.5510   -4.4379 C   0  0  0  0  0  0  0  0  0  0  0  0
    1.4250   -2.2020   -5.0210 H   0  0  0  0  0  0  0  0  0  0  0  0
   -0.4120   -0.9572   -4.8763 N   0  0  0  0  0  0  0  0  0  0  0  0
   -0.8143   -1.0522   -5.8142 H   0  0  0  0  0  0  0  0  0  0  0  0
   -0.9463   -0.1954   -3.8423 C   0  0  0  0  0  0  0  0  0  0  0  0
   -1.8535    0.4084   -3.8685 H   0  0  0  0  0  0  0  0  0  0  0  0
    0.2448   -0.1454    1.0219 C   0  0  0  0  0  0  0  0  0  0  0  0
    1.4523   -0.0533    1.1851 O   0  0  0  0  0  0  0  0  0  0  0  0
   -0.6077    0.5914    1.8244 N   0  0  0  0  0  0  0  0  0  0  0  0
   -1.6029    0.4283    1.7089 H   0  0  0  0  0  0  0  0  0  0  0  0
   -0.1537    1.2591    3.0418 C   0  0  0  0  0  0  0  0  0  0  0  0
    0.6194    2.0000    2.8102 H   0  0  0  0  0  0  0  0  0  0  0  0
   -0.9875    1.7756    3.5277 H   0  0  0  0  0  0  0  0  0  0  0  0
    0.2606    0.5306    3.7473 H   0  0  0  0  0  0  0  0  0  0  0  0
  1  2  1  0  0  0  0
  2  3  1  0  0  0  0
  2  4  1  0  0  0  0
  2  5  1  0  0  0  0
  5  6  2  0  0  0  0
  5  7  1  0  0  0  0
  7  8  1  0  0  0  0
  7  9  1  0  0  0  0
  9 10  1  0  0  0  0
  9 11  1  0  0  0  0
  9 23  1  0  0  0  0
 11 12  1  0  0  0  0
 11 13  1  0  0  0  0
 11 14  1  0  0  0  0
 14 15  1  0  0  0  0
 14 21  2  0  0  0  0
 15 16  1  0  0  0  0
 15 17  2  0  0  0  0
 17 18  1  0  0  0  0
 17 19  1  0  0  0  0
 19 20  1  0  0  0  0
 19 21  1  0  0  0  0
 21 22  1  0  0  0  0
 23 24  2  0  0  0  0
 23 25  1  0  0  0  0
 25 26  1  0  0  0  0
 25 27  1  0  0  0  0
 27 28  1  0  0  0  0
 27 29  1  0  0  0  0
 27 30  1  0  0  0  0
M  CHG  1  15   1
M  END
$$$$

  -OEChem-04042216003D

 30 30  0     1  0  0  0  0  0999 V2000
   -3.2238   -3.8695    1.4628 H   0  0  0  0  0  0  0  0  0  0  0  0
   -3.2229   -3.0188    0.7746 C   0  0  0  0  0  0  0  0  0  0  0  0
   -3.8530   -2.2309    1.1939 H   0  0  0  0  0  0  0  0  0  0  0  0
   -3.6403   -3.3423   -0.1818 H   0  0  0  0  0  0  0  0  0  0  0  0
   -1.8073   -2.5098    0.5810 C   0  0  0  0  0  0  0  0  0  0  0  0
   -0.8738   -3.0645    1.1306 O   0  0  0  0  0  0  0  0  0  0  0  0
   -1.5527   -1.4323   -0.2487 N   0  0  0  0  0  0  0  0  0  0  0  0
   -2.3650   -0.9582   -0.6339 H   0  0  0  0  0  0  0  0  0  0  0  0
   -0.2357   -0.7638   -0.3002 C   0  0  1  0  0  0  0  0  0  0  0  0
    0.5120   -1.5351   -0.5131 H   0  0  0  0  0  0  0  0  0  0  0  0
   -0.1872    0.2917   -1.4190 C   0  0  0  0  0  0  0  0  0  0  0  0
   -1.0671    0.9407   -1.3641 H   0  0  0  0  0  0  0  0  0  0  0  0
    0.6929    0.9292   -1.2676 H   0  0  0  0  0  0  0  0  0  0  0  0
   -0.0692   -0.3448   -2.7850 C   0  0  0  0  0  0  0  0  0  0  0  0
    0.7879   -1.3908   -3.1403 N   0  3  0  0  0  0  0  0  0  0  0  0
    1.4405   -1.8264   -2.4807 H   0  0  0  0  0  0  0  0  0  0  0  0
    0.6483   -1.6856   -4.4096 C   0  0  0  0  0  0  0  0  0  0  0  0
    1.1970   -2.4531   -4.9598 H   0  0  0  0  0  0  0  0  0  0  0  0
   -0.3235   -0.8310   -4.9253 N   0  0  0  0  0  0  0  0  0  0  0  0
   -0.6426   -0.8094   -5.8991 H   0  0  0  0  0  0  0  0  0  0  0  0
   -0.7702    0.0092   -3.9110 C   0  0  0  0  0  0  0  0  0  0  0  0
   -1.5155    0.8009   -3.9908 H   0  0  0  0  0  0  0  0  0  0  0  0
    0.2405   -0.1505    1.0315 C   0  0  0  0  0  0  0  0  0  0  0  0
    1.4453   -0.0700    1.2170 O   0  0  0  0  0  0  0  0  0  0  0  0
   -0.6200    0.5905    1.8216 N   0  0  0  0  0  0  0  0  0  0  0  0
   -1.6150    0.4452    1.6842 H   0  0  0  0  0  0  0  0  0  0  0  0
   -0.1793    1.2659    3.0397 C   0  0  0  0  0  0  0  0  0  0  0  0
    0.6028    1.9988    2.8128 H   0  0  0  0  0  0  0  0  0  0  0  0
   -1.0162    1.7930    3.5085 H   0  0  0  0  0  0  0  0  0  0  0  0
    0.2189    0.5410    3.7582 H   0  0  0  0  0  0  0  0  0  0  0  0
  1  2  1  0  0  0  0
  2  3  1  0  0  0  0
  2  4  1  0  0  0  0
  2  5  1  0  0  0  0
  5  6  2  0  0  0  0
  5  7  1  0  0  0  0
  7  8  1  0  0  0  0
  7  9  1  0  0  0  0
  9 10  1  0  0  0  0
  9 11  1  0  0  0  0
  9 23  1  0  0  0  0
 11 12  1  0  0  0  0
 11 13  1  0  0  0  0
 11 14  1  0  0  0  0
 14 15  1  0  0  0  0
 14 21  2  0  0  0  0
 15 16  1  0  0  0  0
 15 17  2  0  0  0  0
 17 18  1  0  0  0  0
 17 19  1  0  0  0  0
 19 20  1  0  0  0  0
 19 21  1  0  0  0  0
 21 22  1  0  0  0  0
 23 24  2  0  0  0  0
 23 25  1  0  0  0  0
 25 26  1  0  0  0  0
 25 27  1  0  0  0  0
 27 28  1  0  0  0  0
 27 29  1  0  0  0  0
 27 30  1  0  0  0  0
M  CHG  1  15   1
M  END
$$$$

  -OEChem-04042216003D

 30 30  0     1  0  0  0  0  0999 V2000
   -3.2192   -3.8493    1.4934 H   0  0  0  0  0  0  0  0  0  0  0  0
   -3.2174   -2.9971    0.8070 C   0  0  0  0  0  0  0  0  0  0  0  0
   -3.8207   -2.1973    1.2428 H   0  0  0  0  0  0  0  0  0  0  0  0
   -3.6640   -3.3094   -0.1400 H   0  0  0  0  0  0  0  0  0  0  0  0
   -1.7970   -2.5162    0.5816 C   0  0  0  0  0  0  0  0  0  0  0  0
   -0.8607   -3.0937    1.1020 O   0  0  0  0  0  0  0  0  0  0  0  0
   -1.5393   -1.4445   -0.2542 N   0  0  0  0  0  0  0  0  0  0  0  0
   -2.3531   -0.9516   -0.6124 H   0  0  0  0  0  0  0  0  0  0  0  0
   -0.2222   -0.7761   -0.2978 C   0  0  1  0  0  0  0  0  0  0  0  0
    0.5345   -1.5416   -0.4977 H   0  0  0  0  0  0  0  0  0  0  0  0
   -0.1755    0.2743   -1.4209 C   0  0  0  0  0  0  0  0  0  0  0  0
   -1.0544    0.9249   -1.3686 H   0  0  0  0  0  0  0  0  0  0  0  0
    0.7056    0.9095   -1.2665 H   0  0  0  0  0  0  0  0  0  0  0  0
   -0.0525   -0.3558   -2.7913 C   0  0  0  0  0  0  0  0  0  0  0  0
    0.5724   -1.5649   -3.1139 N   0  3  0  0  0  0  0  0  0  0  0  0
    1.0334   -2.1585   -2.4173 H   0  0  0  0  0  0  0  0  0  0  0  0
    0.4972   -1.7911   -4.4025 C   0  0  0  0  0  0  0  0  0  0  0  0
    0.9079   -2.6525   -4.9336 H   0  0  0  0  0  0  0  0  0  0  0  0
   -0.1977   -0.7241   -4.9668 N   0  0  0  0  0  0  0  0  0  0  0  0
   -0.4053   -0.6074   -5.9637 H   0  0  0  0  0  0  0  0  0  0  0  0
   -0.5411    0.1724   -3.9607 C   0  0  0  0  0  0  0  0  0  0  0  0
   -1.0773    1.1153   -4.0731 H   0  0  0  0  0  0  0  0  0  0  0  0
    0.2357   -0.1553    1.0375 C   0  0  0  0  0  0  0  0  0  0  0  0
    1.4366   -0.0833    1.2477 O   0  0  0  0  0  0  0  0  0  0  0  0
   -0.6359    0.5888    1.8127 N   0  0  0  0  0  0  0  0  0  0  0  0
   -1.6292    0.4572    1.6523 H   0  0  0  0  0  0  0  0  0  0  0  0
   -0.2144    1.2685    3.0352 C   0  0  0  0  0  0  0  0  0  0  0  0
    0.5691    2.0025    2.8177 H   0  0  0  0  0  0  0  0  0  0  0  0
   -1.0593    1.7947    3.4905 H   0  0  0  0  0  0  0  0  0  0  0  0
    0.1752    0.5463    3.7614 H   0  0  0  0  0  0  0  0  0  0  0  0
  1  2  1  0  0  0  0
  2  3  1  0  0  0  0
  2  4  1  0  0  0  0
  2  5  1  0  0  0  0
  5  6  2  0  0  0  0
  5  7  1  0  0  0  0
  7  8  1  0  0  0  0
  7  9  1  0  0  0  0
  9 10  1  0  0  0  0
  9 11  1  0  0  0  0
  9 23  1  0  0  0  0
 11 12  1  0  0  0  0
 11 13  1  0  0  0  0
 11 14  1  0  0  0  0
 14 15  1  0  0  0  0
 14 21  2  0  0  0  0
 15 16  1  0  0  0  0
 15 17  2  0  0  0  0
 17 18  1  0  0  0  0
 17 19  1  0  0  0  0
 19 20  1  0  0  0  0
 19 21  1  0  0  0  0
 21 22  1  0  0  0  0
 23 24  2  0  0  0  0
 23 25  1  0  0  0  0
 25 26  1  0  0  0  0
 25 27  1  0  0  0  0
 27 28  1  0  0  0  0
 27 29  1  0  0  0  0
 27 30  1  0  0  0  0
M  CHG  1  15   1
M  END
$$$$

  -OEChem-04042216003D

 30 30  0     1  0  0  0  0  0999 V2000
   -3.1997   -3.8379    1.5213 H   0  0  0  0  0  0  0  0  0  0  0  0
   -3.2077   -2.9752    0.8483 C   0  0  0  0  0  0  0  0  0  0  0  0
   -3.7769   -2.1706    1.3199 H   0  0  0  0  0  0  0  0  0  0  0  0
   -3.6983   -3.2639   -0.0842 H   0  0  0  0  0  0  0  0  0  0  0  0
   -1.7877   -2.5197    0.5730 C   0  0  0  0  0  0  0  0  0  0  0  0
   -0.8425   -3.1261    1.0414 O   0  0  0  0  0  0  0  0  0  0  0  0
   -1.5386   -1.4470   -0.2638 N   0  0  0  0  0  0  0  0  0  0  0  0
   -2.3581   -0.9328   -0.5777 H   0  0  0  0  0  0  0  0  0  0  0  0
   -0.2228   -0.7746   -0.3067 C   0  0  1  0  0  0  0  0  0  0  0  0
    0.5431   -1.5322   -0.5047 H   0  0  0  0  0  0  0  0  0  0  0  0
   -0.1819    0.2729   -1.4320 C   0  0  0  0  0  0  0  0  0  0  0  0
   -1.0657    0.9171   -1.3839 H   0  0  0  0  0  0  0  0  0  0  0  0
    0.6955    0.9137   -1.2797 H   0  0  0  0  0  0  0  0  0  0  0  0
   -0.0578   -0.3624   -2.8003 C   0  0  0  0  0  0  0  0  0  0  0  0
    0.3032   -1.6809   -3.0987 N   0  3  0  0  0  0  0  0  0  0  0  0
    0.5157   -2.3774   -2.3772 H   0  0  0  0  0  0  0  0  0  0  0  0
    0.3299   -1.8672   -4.3957 C   0  0  0  0  0  0  0  0  0  0  0  0
    0.5868   -2.7950   -4.9114 H   0  0  0  0  0  0  0  0  0  0  0  0
   -0.0260   -0.6592   -4.9911 N   0  0  0  0  0  0  0  0  0  0  0  0
   -0.0807   -0.4839   -5.9995 H   0  0  0  0  0  0  0  0  0  0  0  0
   -0.2684    0.2803   -3.9950 C   0  0  0  0  0  0  0  0  0  0  0  0
   -0.5524    1.3247   -4.1287 H   0  0  0  0  0  0  0  0  0  0  0  0
    0.2280   -0.1551    1.0322 C   0  0  0  0  0  0  0  0  0  0  0  0
    1.4265   -0.0833    1.2535 O   0  0  0  0  0  0  0  0  0  0  0  0
   -0.6497    0.5838    1.8057 N   0  0  0  0  0  0  0  0  0  0  0  0
   -1.6420    0.4576    1.6356 H   0  0  0  0  0  0  0  0  0  0  0  0
   -0.2362    1.2574    3.0344 C   0  0  0  0  0  0  0  0  0  0  0  0
    0.5496    1.9915    2.8253 H   0  0  0  0  0  0  0  0  0  0  0  0
   -1.0835    1.7826    3.4864 H   0  0  0  0  0  0  0  0  0  0  0  0
    0.1482    0.5316    3.7597 H   0  0  0  0  0  0  0  0  0  0  0  0
  1  2  1  0  0  0  0
  2  3  1  0  0  0  0
  2  4  1  0  0  0  0
  2  5  1  0  0  0  0
  5  6  2  0  0  0  0
  5  7  1  0  0  0  0
  7  8  1  0  0  0  0
  7  9  1  0  0  0  0
  9 10  1  0  0  0  0
  9 11  1  0  0  0  0
  9 23  1  0  0  0  0
 11 12  1  0  0  0  0
 11 13  1  0  0  0  0
 11 14  1  0  0  0  0
 14 15  1  0  0  0  0
 14 21  2  0  0  0  0
 15 16  1  0  0  0  0
 15 17  2  0  0  0  0
 17 18  1  0  0  0  0
 17 19  1  0  0  0  0
 19 20  1  0  0  0  0
 19 21  1  0  0  0  0
 21 22  1  0  0  0  0
 23 24  2  0  0  0  0
 23 25  1  0  0  0  0
 25 26  1  0  0  0  0
 25 27  1  0  0  0  0
 27 28  1  0  0  0  0
 27 29  1  0  0  0  0
 27 30  1  0  0  0  0
M  CHG  1  15   1
M  END
$$$$

  -OEChem-04042216003D

 30 30  0     1  0  0  0  0  0999 V2000
   -3.1702   -3.8245    1.5605 H   0  0  0  0  0  0  0  0  0  0  0  0
   -3.1949   -2.9518    0.9006 C   0  0  0  0  0  0  0  0  0  0  0  0
   -3.7132   -2.1403    1.4170 H   0  0  0  0  0  0  0  0  0  0  0  0
   -3.7482   -3.2136   -0.0043 H   0  0  0  0  0  0  0  0  0  0  0  0
   -1.7819   -2.5291    0.5474 C   0  0  0  0  0  0  0  0  0  0  0  0
   -0.8273   -3.1757    0.9355 O   0  0  0  0  0  0  0  0  0  0  0  0
   -1.5511   -1.4482   -0.2847 N   0  0  0  0  0  0  0  0  0  0  0  0
   -2.3769   -0.9048   -0.5254 H   0  0  0  0  0  0  0  0  0  0  0  0
   -0.2363   -0.7705   -0.3255 C   0  0  1  0  0  0  0  0  0  0  0  0
    0.5349   -1.5210   -0.5354 H   0  0  0  0  0  0  0  0  0  0  0  0
   -0.2005    0.2823   -1.4454 C   0  0  0  0  0  0  0  0  0  0  0  0
   -1.0947    0.9120   -1.3988 H   0  0  0  0  0  0  0  0  0  0  0  0
    0.6669    0.9363   -1.2914 H   0  0  0  0  0  0  0  0  0  0  0  0
   -0.0754   -0.3549   -2.8122 C   0  0  0  0  0  0  0  0  0  0  0  0
    0.0030   -1.7196   -3.1086 N   0  3  0  0  0  0  0  0  0  0  0  0
   -0.0405   -2.4472   -2.3871 H   0  0  0  0  0  0  0  0  0  0  0  0
    0.1549   -1.9009   -4.3979 C   0  0  0  0  0  0  0  0  0  0  0  0
    0.2566   -2.8600   -4.9102 H   0  0  0  0  0  0  0  0  0  0  0  0
    0.1723   -0.6399   -4.9900 N   0  0  0  0  0  0  0  0  0  0  0  0
    0.2950   -0.4513   -5.9900 H   0  0  0  0  0  0  0  0  0  0  0  0
    0.0332    0.3257   -3.9990 C   0  0  0  0  0  0  0  0  0  0  0  0
    0.0303    1.4088   -4.1274 H   0  0  0  0  0  0  0  0  0  0  0  0
    0.2155   -0.1618    1.0184 C   0  0  0  0  0  0  0  0  0  0  0  0
    1.4129   -0.0958    1.2452 O   0  0  0  0  0  0  0  0  0  0  0  0
   -0.6629    0.5672    1.8010 N   0  0  0  0  0  0  0  0  0  0  0  0
   -1.6550    0.4657    1.6155 H   0  0  0  0  0  0  0  0  0  0  0  0
   -0.2502    1.2385    3.0313 C   0  0  0  0  0  0  0  0  0  0  0  0
    0.5392    1.9698    2.8255 H   0  0  0  0  0  0  0  0  0  0  0  0
   -1.0970    1.7671    3.4806 H   0  0  0  0  0  0  0  0  0  0  0  0
    0.1286    0.5108    3.7576 H   0  0  0  0  0  0  0  0  0  0  0  0
  1  2  1  0  0  0  0
  2  3  1  0  0  0  0
  2  4  1  0  0  0  0
  2  5  1  0  0  0  0
  5  6  2  0  0  0  0
  5  7  1  0  0  0  0
  7  8  1  0  0  0  0
  7  9  1  0  0  0  0
  9 10  1  0  0  0  0
  9 11  1  0  0  0  0
  9 23  1  0  0  0  0
 11 12  1  0  0  0  0
 11 13  1  0  0  0  0
 11 14  1  0  0  0  0
 14 15  1  0  0  0  0
 14 21  2  0  0  0  0
 15 16  1  0  0  0  0
 15 17  2  0  0  0  0
 17 18  1  0  0  0  0
 17 19  1  0  0  0  0
 19 20  1  0  0  0  0
 19 21  1  0  0  0  0
 21 22  1  0  0  0  0
 23 24  2  0  0  0  0
 23 25  1  0  0  0  0
 25 26  1  0  0  0  0
 25 27  1  0  0  0  0
 27 28  1  0  0  0  0
 27 29  1  0  0  0  0
 27 30  1  0  0  0  0
M  CHG  1  15   1
M  END
$$$$

  -OEChem-04042216003D

 30 30  0     1  0  0  0  0  0999 V2000
   -3.1510   -3.8363    1.5294 H   0  0  0  0  0  0  0  0  0  0  0  0
   -3.1857   -2.9396    0.9031 C   0  0  0  0  0  0  0  0  0  0  0  0
   -3.6737   -2.1408    1.4668 H   0  0  0  0  0  0  0  0  0  0  0  0
   -3.7741   -3.1600    0.0093 H   0  0  0  0  0  0  0  0  0  0  0  0
   -1.7798   -2.5233    0.5163 C   0  0  0  0  0  0  0  0  0  0  0  0
   -0.8217   -3.1911    0.8550 O   0  0  0  0  0  0  0  0  0  0  0  0
   -1.5629   -1.4310   -0.3049 N   0  0  0  0  0  0  0  0  0  0  0  0
   -2.3915   -0.8710   -0.4943 H   0  0  0  0  0  0  0  0  0  0  0  0
   -0.2493   -0.7468   -0.3422 C   0  0  1  0  0  0  0  0  0  0  0  0
    0.5224   -1.4940   -0.5670 H   0  0  0  0  0  0  0  0  0  0  0  0
   -0.2172    0.3110   -1.4573 C   0  0  0  0  0  0  0  0  0  0  0  0
   -1.1209    0.9275   -1.4142 H   0  0  0  0  0  0  0  0  0  0  0  0
    0.6406    0.9767   -1.3013 H   0  0  0  0  0  0  0  0  0  0  0  0
   -0.0871   -0.3348   -2.8189 C   0  0  0  0  0  0  0  0  0  0  0  0
   -0.2922   -1.6820   -3.1292 N   0  3  0  0  0  0  0  0  0  0  0  0
   -0.5560   -2.3756   -2.4209 H   0  0  0  0  0  0  0  0  0  0  0  0
   -0.0308   -1.9064   -4.3937 C   0  0  0  0  0  0  0  0  0  0  0  0
   -0.0816   -2.8697   -4.9054 H   0  0  0  0  0  0  0  0  0  0  0  0
    0.3415   -0.6875   -4.9573 N   0  0  0  0  0  0  0  0  0  0  0  0
    0.6225   -0.5413   -5.9321 H   0  0  0  0  0  0  0  0  0  0  0  0
    0.3163    0.2926   -3.9708 C   0  0  0  0  0  0  0  0  0  0  0  0
    0.5812    1.3454   -4.0775 H   0  0  0  0  0  0  0  0  0  0  0  0
    0.2098   -0.1521    1.0051 C   0  0  0  0  0  0  0  0  0  0  0  0
    1.4082   -0.0867    1.2265 O   0  0  0  0  0  0  0  0  0  0  0  0
   -0.6648    0.5651    1.8025 N   0  0  0  0  0  0  0  0  0  0  0  0
   -1.6578    0.4691    1.6199 H   0  0  0  0  0  0  0  0  0  0  0  0
   -0.2458    1.2159    3.0417 C   0  0  0  0  0  0  0  0  0  0  0  0
    0.5414    1.9518    2.8439 H   0  0  0  0  0  0  0  0  0  0  0  0
   -1.0904    1.7350    3.5055 H   0  0  0  0  0  0  0  0  0  0  0  0
    0.1386    0.4762    3.7525 H   0  0  0  0  0  0  0  0  0  0  0  0
  1  2  1  0  0  0  0
  2  3  1  0  0  0  0
  2  4  1  0  0  0  0
  2  5  1  0  0  0  0
  5  6  2  0  0  0  0
  5  7  1  0  0  0  0
  7  8  1  0  0  0  0
  7  9  1  0  0  0  0
  9 10  1  0  0  0  0
  9 11  1  0  0  0  0
  9 23  1  0  0  0  0
 11 12  1  0  0  0  0
 11 13  1  0  0  0  0
 11 14  1  0  0  0  0
 14 15  1  0  0  0  0
 14 21  2  0  0  0  0
 15 16  1  0  0  0  0
 15 17  2  0  0  0  0
 17 18  1  0  0  0  0
 17 19  1  0  0  0  0
 19 20  1  0  0  0  0
 19 21  1  0  0  0  0
 21 22  1  0  0  0  0
 23 24  2  0  0  0  0
 23 25  1  0  0  0  0
 25 26  1  0  0  0  0
 25 27  1  0  0  0  0
 27 28  1  0  0  0  0
 27 29  1  0  0  0  0
 27 30  1  0  0  0  0
M  CHG  1  15   1
M  END
$$$$

  -OEChem-04042216003D

 30 30  0     1  0  0  0  0  0999 V2000
   -3.1497   -3.8029    1.5658 H   0  0  0  0  0  0  0  0  0  0  0  0
   -3.1897   -2.9307    0.9060 C   0  0  0  0  0  0  0  0  0  0  0  0
   -3.6785   -2.1133    1.4414 H   0  0  0  0  0  0  0  0  0  0  0  0
   -3.7804   -3.1866    0.0234 H   0  0  0  0  0  0  0  0  0  0  0  0
   -1.7861   -2.5256    0.4986 C   0  0  0  0  0  0  0  0  0  0  0  0
   -0.8298   -3.1994    0.8291 O   0  0  0  0  0  0  0  0  0  0  0  0
   -1.5730   -1.4281   -0.3178 N   0  0  0  0  0  0  0  0  0  0  0  0
   -2.3993   -0.8541   -0.4721 H   0  0  0  0  0  0  0  0  0  0  0  0
   -0.2563   -0.7463   -0.3491 C   0  0  1  0  0  0  0  0  0  0  0  0
    0.5099   -1.4971   -0.5839 H   0  0  0  0  0  0  0  0  0  0  0  0
   -0.2146    0.3178   -1.4578 C   0  0  0  0  0  0  0  0  0  0  0  0
   -1.1194    0.9327   -1.4187 H   0  0  0  0  0  0  0  0  0  0  0  0
    0.6407    0.9848   -1.2929 H   0  0  0  0  0  0  0  0  0  0  0  0
   -0.0793   -0.3253   -2.8188 C   0  0  0  0  0  0  0  0  0  0  0  0
   -0.5566   -1.5812   -3.1989 N   0  3  0  0  0  0  0  0  0  0  0  0
   -1.0156   -2.2153   -2.5369 H   0  0  0  0  0  0  0  0  0  0  0  0
   -0.2119   -1.8468   -4.4355 C   0  0  0  0  0  0  0  0  0  0  0  0
   -0.4162   -2.7696   -4.9824 H   0  0  0  0  0  0  0  0  0  0  0  0
    0.4869   -0.7399   -4.9130 N   0  0  0  0  0  0  0  0  0  0  0  0
    0.9017   -0.6518   -5.8461 H   0  0  0  0  0  0  0  0  0  0  0  0
    0.5806    0.2060   -3.8983 C   0  0  0  0  0  0  0  0  0  0  0  0
    1.0889    1.1702   -3.9379 H   0  0  0  0  0  0  0  0  0  0  0  0
    0.2067   -0.1611    1.0013 C   0  0  0  0  0  0  0  0  0  0  0  0
    1.4059   -0.0916    1.2173 O   0  0  0  0  0  0  0  0  0  0  0  0
   -0.6651    0.5540    1.8043 N   0  0  0  0  0  0  0  0  0  0  0  0
   -1.6589    0.4641    1.6235 H   0  0  0  0  0  0  0  0  0  0  0  0
   -0.2387    1.2133    3.0368 C   0  0  0  0  0  0  0  0  0  0  0  0
    0.5181    1.9761    2.8235 H   0  0  0  0  0  0  0  0  0  0  0  0
   -1.0890    1.7010    3.5236 H   0  0  0  0  0  0  0  0  0  0  0  0
    0.1875    0.4844    3.7351 H   0  0  0  0  0  0  0  0  0  0  0  0
  1  2  1  0  0  0  0
  2  3  1  0  0  0  0
  2  4  1  0  0  0  0
  2  5  1  0  0  0  0
  5  6  2  0  0  0  0
  5  7  1  0  0  0  0
  7  8  1  0  0  0  0
  7  9  1  0  0  0  0
  9 10  1  0  0  0  0
  9 11  1  0  0  0  0
  9 23  1  0  0  0  0
 11 12  1  0  0  0  0
 11 13  1  0  0  0  0
 11 14  1  0  0  0  0
 14 15  1  0  0  0  0
 14 21  2  0  0  0  0
 15 16  1  0  0  0  0
 15 17  2  0  0  0  0
 17 18  1  0  0  0  0
 17 19  1  0  0  0  0
 19 20  1  0  0  0  0
 19 21  1  0  0  0  0
 21 22  1  0  0  0  0
 23 24  2  0  0  0  0
 23 25  1  0  0  0  0
 25 26  1  0  0  0  0
 25 27  1  0  0  0  0
 27 28  1  0  0  0  0
 27 29  1  0  0  0  0
 27 30  1  0  0  0  0
M  CHG  1  15   1
M  END
$$$$

  -OEChem-04042216003D

 30 30  0     1  0  0  0  0  0999 V2000
   -3.1487   -3.8086    1.5484 H   0  0  0  0  0  0  0  0  0  0  0  0
   -3.1907   -2.9298    0.8977 C   0  0  0  0  0  0  0  0  0  0  0  0
   -3.6789   -2.1177    1.4418 H   0  0  0  0  0  0  0  0  0  0  0  0
   -3.7831   -3.1776    0.0138 H   0  0  0  0  0  0  0  0  0  0  0  0
   -1.7881   -2.5193    0.4926 C   0  0  0  0  0  0  0  0  0  0  0  0
   -0.8308   -3.1829    0.8398 O   0  0  0  0  0  0  0  0  0  0  0  0
   -1.5809   -1.4188   -0.3223 N   0  0  0  0  0  0  0  0  0  0  0  0
   -2.4067   -0.8386   -0.4524 H   0  0  0  0  0  0  0  0  0  0  0  0
   -0.2634   -0.7381   -0.3524 C   0  0  1  0  0  0  0  0  0  0  0  0
    0.4978   -1.4930   -0.5912 H   0  0  0  0  0  0  0  0  0  0  0  0
   -0.2126    0.3242   -1.4615 C   0  0  0  0  0  0  0  0  0  0  0  0
   -1.1138    0.9448   -1.4294 H   0  0  0  0  0  0  0  0  0  0  0  0
    0.6451    0.9866   -1.2910 H   0  0  0  0  0  0  0  0  0  0  0  0
   -0.0715   -0.3260   -2.8180 C   0  0  0  0  0  0  0  0  0  0  0  0
   -0.7782   -1.4310   -3.2945 N   0  3  0  0  0  0  0  0  0  0  0  0
   -1.4206   -1.9659   -2.7032 H   0  0  0  0  0  0  0  0  0  0  0  0
   -0.3683   -1.7506   -4.4985 C   0  0  0  0  0  0  0  0  0  0  0  0
   -0.7102   -2.5971   -5.0976 H   0  0  0  0  0  0  0  0  0  0  0  0
    0.6072   -0.8237   -4.8604 N   0  0  0  0  0  0  0  0  0  0  0  0
    1.1301   -0.8187   -5.7420 H   0  0  0  0  0  0  0  0  0  0  0  0
    0.8002    0.0603   -3.8053 C   0  0  0  0  0  0  0  0  0  0  0  0
    1.5104    0.8870   -3.7565 H   0  0  0  0  0  0  0  0  0  0  0  0
    0.2056   -0.1571    0.9979 C   0  0  0  0  0  0  0  0  0  0  0  0
    1.4058   -0.0887    1.2087 O   0  0  0  0  0  0  0  0  0  0  0  0
   -0.6612    0.5578    1.8066 N   0  0  0  0  0  0  0  0  0  0  0  0
   -1.6561    0.4654    1.6334 H   0  0  0  0  0  0  0  0  0  0  0  0
   -0.2282    1.2089    3.0411 C   0  0  0  0  0  0  0  0  0  0  0  0
    0.5433    1.9581    2.8321 H   0  0  0  0  0  0  0  0  0  0  0  0
   -1.0715    1.7119    3.5245 H   0  0  0  0  0  0  0  0  0  0  0  0
    0.1818    0.4719    3.7405 H   0  0  0  0  0  0  0  0  0  0  0  0
  1  2  1  0  0  0  0
  2  3  1  0  0  0  0
  2  4  1  0  0  0  0
  2  5  1  0  0  0  0
  5  6  2  0  0  0  0
  5  7  1  0  0  0  0
  7  8  1  0  0  0  0
  7  9  1  0  0  0  0
  9 10  1  0  0  0  0
  9 11  1  0  0  0  0
  9 23  1  0  0  0  0
 11 12  1  0  0  0  0
 11 13  1  0  0  0  0
 11 14  1  0  0  0  0
 14 15  1  0  0  0  0
 14 21  2  0  0  0  0
 15 16  1  0  0  0  0
 15 17  2  0  0  0  0
 17 18  1  0  0  0  0
 17 19  1  0  0  0  0
 19 20  1  0  0  0  0
 19 21  1  0  0  0  0
 21 22  1  0  0  0  0
 23 24  2  0  0  0  0
 23 25  1  0  0  0  0
 25 26  1  0  0  0  0
 25 27  1  0  0  0  0
 27 28  1  0  0  0  0
 27 29  1  0  0  0  0
 27 30  1  0  0  0  0
M  CHG  1  15   1
M  END
$$$$

  -OEChem-04042216003D

 30 30  0     1  0  0  0  0  0999 V2000
   -3.1589   -3.8073    1.5497 H   0  0  0  0  0  0  0  0  0  0  0  0
   -3.1992   -2.9374    0.8869 C   0  0  0  0  0  0  0  0  0  0  0  0
   -3.7053   -2.1241    1.4123 H   0  0  0  0  0  0  0  0  0  0  0  0
   -3.7736   -3.2030   -0.0033 H   0  0  0  0  0  0  0  0  0  0  0  0
   -1.7943   -2.5178    0.4990 C   0  0  0  0  0  0  0  0  0  0  0  0
   -0.8365   -3.1634    0.8783 O   0  0  0  0  0  0  0  0  0  0  0  0
   -1.5889   -1.4156   -0.3145 N   0  0  0  0  0  0  0  0  0  0  0  0
   -2.4152   -0.8370   -0.4427 H   0  0  0  0  0  0  0  0  0  0  0  0
   -0.2712   -0.7366   -0.3502 C   0  0  1  0  0  0  0  0  0  0  0  0
    0.4835   -1.4969   -0.5922 H   0  0  0  0  0  0  0  0  0  0  0  0
   -0.2140    0.3235   -1.4603 C   0  0  0  0  0  0  0  0  0  0  0  0
   -1.1073    0.9554   -1.4309 H   0  0  0  0  0  0  0  0  0  0  0  0
    0.6497    0.9777   -1.2893 H   0  0  0  0  0  0  0  0  0  0  0  0
   -0.0734   -0.3321   -2.8136 C   0  0  0  0  0  0  0  0  0  0  0  0
   -0.9506   -1.2351   -3.4155 N   0  3  0  0  0  0  0  0  0  0  0  0
   -1.7679   -1.6153   -2.9327 H   0  0  0  0  0  0  0  0  0  0  0  0
   -0.4865   -1.6114   -4.5830 C   0  0  0  0  0  0  0  0  0  0  0  0
   -0.9397   -2.3394   -5.2587 H   0  0  0  0  0  0  0  0  0  0  0  0
    0.7082   -0.9263   -4.7925 N   0  0  0  0  0  0  0  0  0  0  0  0
    1.3155   -1.0184   -5.6130 H   0  0  0  0  0  0  0  0  0  0  0  0
    0.9694   -0.1317   -3.6832 C   0  0  0  0  0  0  0  0  0  0  0  0
    1.8341    0.5134   -3.5196 H   0  0  0  0  0  0  0  0  0  0  0  0
    0.2101   -0.1572    0.9963 C   0  0  0  0  0  0  0  0  0  0  0  0
    1.4131   -0.0744    1.1880 O   0  0  0  0  0  0  0  0  0  0  0  0
   -0.6505    0.5582    1.8109 N   0  0  0  0  0  0  0  0  0  0  0  0
   -1.6467    0.4432    1.6602 H   0  0  0  0  0  0  0  0  0  0  0  0
   -0.2060    1.2129    3.0392 C   0  0  0  0  0  0  0  0  0  0  0  0
    0.5712    1.9538    2.8220 H   0  0  0  0  0  0  0  0  0  0  0  0
   -1.0428    1.7267    3.5226 H   0  0  0  0  0  0  0  0  0  0  0  0
    0.2003    0.4765    3.7412 H   0  0  0  0  0  0  0  0  0  0  0  0
  1  2  1  0  0  0  0
  2  3  1  0  0  0  0
  2  4  1  0  0  0  0
  2  5  1  0  0  0  0
  5  6  2  0  0  0  0
  5  7  1  0  0  0  0
  7  8  1  0  0  0  0
  7  9  1  0  0  0  0
  9 10  1  0  0  0  0
  9 11  1  0  0  0  0
  9 23  1  0  0  0  0
 11 12  1  0  0  0  0
 11 13  1  0  0  0  0
 11 14  1  0  0  0  0
 14 15  1  0  0  0  0
 14 21  2  0  0  0  0
 15 16  1  0  0  0  0
 15 17  2  0  0  0  0
 17 18  1  0  0  0  0
 17 19  1  0  0  0  0
 19 20  1  0  0  0  0
 19 21  1  0  0  0  0
 21 22  1  0  0  0  0
 23 24  2  0  0  0  0
 23 25  1  0  0  0  0
 25 26  1  0  0  0  0
 25 27  1  0  0  0  0
 27 28  1  0  0  0  0
 27 29  1  0  0  0  0
 27 30  1  0  0  0  0
M  CHG  1  15   1
M  END
$$$$

  -OEChem-04042216003D

 30 30  0     1  0  0  0  0  0999 V2000
   -3.1698   -3.8205    1.5440 H   0  0  0  0  0  0  0  0  0  0  0  0
   -3.2087   -2.9585    0.8709 C   0  0  0  0  0  0  0  0  0  0  0  0
   -3.7469   -2.1505    1.3720 H   0  0  0  0  0  0  0  0  0  0  0  0
   -3.7506   -3.2461   -0.0330 H   0  0  0  0  0  0  0  0  0  0  0  0
   -1.8020   -2.5128    0.5199 C   0  0  0  0  0  0  0  0  0  0  0  0
   -0.8438   -3.1284    0.9465 O   0  0  0  0  0  0  0  0  0  0  0  0
   -1.5951   -1.4126   -0.2961 N   0  0  0  0  0  0  0  0  0  0  0  0
   -2.4239   -0.8475   -0.4570 H   0  0  0  0  0  0  0  0  0  0  0  0
   -0.2775   -0.7369   -0.3450 C   0  0  1  0  0  0  0  0  0  0  0  0
    0.4694   -1.5039   -0.5890 H   0  0  0  0  0  0  0  0  0  0  0  0
   -0.2135    0.3224   -1.4568 C   0  0  0  0  0  0  0  0  0  0  0  0
   -1.0949    0.9702   -1.4243 H   0  0  0  0  0  0  0  0  0  0  0  0
    0.6611    0.9630   -1.2881 H   0  0  0  0  0  0  0  0  0  0  0  0
   -0.0805   -0.3342   -2.8105 C   0  0  0  0  0  0  0  0  0  0  0  0
   -1.0636   -0.9956   -3.5486 N   0  3  0  0  0  0  0  0  0  0  0  0
   -2.0124   -1.1478   -3.2010 H   0  0  0  0  0  0  0  0  0  0  0  0
   -0.5641   -1.4398   -4.6776 C   0  0  0  0  0  0  0  0  0  0  0  0
   -1.0924   -2.0132   -5.4420 H   0  0  0  0  0  0  0  0  0  0  0  0
    0.7740   -1.0547   -4.7169 N   0  0  0  0  0  0  0  0  0  0  0  0
    1.4367   -1.2648   -5.4702 H   0  0  0  0  0  0  0  0  0  0  0  0
    1.0756   -0.3642   -3.5500 C   0  0  0  0  0  0  0  0  0  0  0  0
    2.0387    0.0612   -3.2625 H   0  0  0  0  0  0  0  0  0  0  0  0
    0.2165   -0.1557    0.9958 C   0  0  0  0  0  0  0  0  0  0  0  0
    1.4217   -0.0634    1.1703 O   0  0  0  0  0  0  0  0  0  0  0  0
   -0.6372    0.5627    1.8148 N   0  0  0  0  0  0  0  0  0  0  0  0
   -1.6335    0.4234    1.6870 H   0  0  0  0  0  0  0  0  0  0  0  0
   -0.1820    1.2164    3.0397 C   0  0  0  0  0  0  0  0  0  0  0  0
    0.5984    1.9524    2.8171 H   0  0  0  0  0  0  0  0  0  0  0  0
   -1.0129    1.7360    3.5271 H   0  0  0  0  0  0  0  0  0  0  0  0
    0.2236    0.4783    3.7405 H   0  0  0  0  0  0  0  0  0  0  0  0
  1  2  1  0  0  0  0
  2  3  1  0  0  0  0
  2  4  1  0  0  0  0
  2  5  1  0  0  0  0
  5  6  2  0  0  0  0
  5  7  1  0  0  0  0
  7  8  1  0  0  0  0
  7  9  1  0  0  0  0
  9 10  1  0  0  0  0
  9 11  1  0  0  0  0
  9 23  1  0  0  0  0
 11 12  1  0  0  0  0
 11 13  1  0  0  0  0
 11 14  1  0  0  0  0
 14 15  1  0  0  0  0
 14 21  2  0  0  0  0
 15 16  1  0  0  0  0
 15 17  2  0  0  0  0
 17 18  1  0  0  0  0
 17 19  1  0  0  0  0
 19 20  1  0  0  0  0
 19 21  1  0  0  0  0
 21 22  1  0  0  0  0
 23 24  2  0  0  0  0
 23 25  1  0  0  0  0
 25 26  1  0  0  0  0
 25 27  1  0  0  0  0
 27 28  1  0  0  0  0
 27 29  1  0  0  0  0
 27 30  1  0  0  0  0
M  CHG  1  15   1
M  END
$$$$

  -OEChem-04042216003D

 30 30  0     1  0  0  0  0  0999 V2000
   -3.1852   -3.8416    1.5082 H   0  0  0  0  0  0  0  0  0  0  0  0
   -3.2160   -2.9799    0.8345 C   0  0  0  0  0  0  0  0  0  0  0  0
   -3.7870   -2.1824    1.3154 H   0  0  0  0  0  0  0  0  0  0  0  0
   -3.7183   -3.2765   -0.0891 H   0  0  0  0  0  0  0  0  0  0  0  0
   -1.8065   -2.5077    0.5341 C   0  0  0  0  0  0  0  0  0  0  0  0
   -0.8524   -3.1002    1.0013 O   0  0  0  0  0  0  0  0  0  0  0  0
   -1.5931   -1.4084   -0.2804 N   0  0  0  0  0  0  0  0  0  0  0  0
   -2.4237   -0.8651   -0.4947 H   0  0  0  0  0  0  0  0  0  0  0  0
   -0.2774   -0.7330   -0.3376 C   0  0  1  0  0  0  0  0  0  0  0  0
    0.4657   -1.5026   -0.5832 H   0  0  0  0  0  0  0  0  0  0  0  0
   -0.2165    0.3265   -1.4499 C   0  0  0  0  0  0  0  0  0  0  0  0
   -1.0923    0.9814   -1.4112 H   0  0  0  0  0  0  0  0  0  0  0  0
    0.6643    0.9602   -1.2874 H   0  0  0  0  0  0  0  0  0  0  0  0
   -0.0906   -0.3315   -2.8033 C   0  0  0  0  0  0  0  0  0  0  0  0
   -1.1089   -0.7388   -3.6675 N   0  3  0  0  0  0  0  0  0  0  0  0
   -2.1023   -0.6401   -3.4481 H   0  0  0  0  0  0  0  0  0  0  0  0
   -0.5981   -1.2641   -4.7561 C   0  0  0  0  0  0  0  0  0  0  0  0
   -1.1523   -1.6749   -5.6025 H   0  0  0  0  0  0  0  0  0  0  0  0
    0.7882   -1.2035   -4.6338 N   0  0  0  0  0  0  0  0  0  0  0  0
    1.4672   -1.5428   -5.3227 H   0  0  0  0  0  0  0  0  0  0  0  0
    1.1046   -0.6162   -3.4157 C   0  0  0  0  0  0  0  0  0  0  0  0
    2.1003   -0.4241   -3.0112 H   0  0  0  0  0  0  0  0  0  0  0  0
    0.2249   -0.1501    0.9991 C   0  0  0  0  0  0  0  0  0  0  0  0
    1.4319   -0.0527    1.1595 O   0  0  0  0  0  0  0  0  0  0  0  0
   -0.6229    0.5692    1.8234 N   0  0  0  0  0  0  0  0  0  0  0  0
   -1.6193    0.4174    1.7102 H   0  0  0  0  0  0  0  0  0  0  0  0
   -0.1580    1.2192    3.0466 C   0  0  0  0  0  0  0  0  0  0  0  0
    0.6226    1.9541    2.8205 H   0  0  0  0  0  0  0  0  0  0  0  0
   -0.9843    1.7397    3.5408 H   0  0  0  0  0  0  0  0  0  0  0  0
    0.2509    0.4788    3.7430 H   0  0  0  0  0  0  0  0  0  0  0  0
  1  2  1  0  0  0  0
  2  3  1  0  0  0  0
  2  4  1  0  0  0  0
  2  5  1  0  0  0  0
  5  6  2  0  0  0  0
  5  7  1  0  0  0  0
  7  8  1  0  0  0  0
  7  9  1  0  0  0  0
  9 10  1  0  0  0  0
  9 11  1  0  0  0  0
  9 23  1  0  0  0  0
 11 12  1  0  0  0  0
 11 13  1  0  0  0  0
 11 14  1  0  0  0  0
 14 15  1  0  0  0  0
 14 21  2  0  0  0  0
 15 16  1  0  0  0  0
 15 17  2  0  0  0  0
 17 18  1  0  0  0  0
 17 19  1  0  0  0  0
 19 20  1  0  0  0  0
 19 21  1  0  0  0  0
 21 22  1  0  0  0  0
 23 24  2  0  0  0  0
 23 25  1  0  0  0  0
 25 26  1  0  0  0  0
 25 27  1  0  0  0  0
 27 28  1  0  0  0  0
 27 29  1  0  0  0  0
 27 30  1  0  0  0  0
M  CHG  1  15   1
M  END
$$$$

  -OEChem-04042216003D

 30 30  0     1  0  0  0  0  0999 V2000
   -3.2078   -3.8531    1.4877 H   0  0  0  0  0  0  0  0  0  0  0  0
   -3.2252   -3.0026    0.7994 C   0  0  0  0  0  0  0  0  0  0  0  0
   -3.8345   -2.2105    1.2403 H   0  0  0  0  0  0  0  0  0  0  0  0
   -3.6779   -3.3237   -0.1414 H   0  0  0  0  0  0  0  0  0  0  0  0
   -1.8135   -2.5048    0.5559 C   0  0  0  0  0  0  0  0  0  0  0  0
   -0.8686   -3.0706    1.0728 O   0  0  0  0  0  0  0  0  0  0  0  0
   -1.5862   -1.4115   -0.2623 N   0  0  0  0  0  0  0  0  0  0  0  0
   -2.4132   -0.8996   -0.5531 H   0  0  0  0  0  0  0  0  0  0  0  0
   -0.2698   -0.7398   -0.3252 C   0  0  1  0  0  0  0  0  0  0  0  0
    0.4700   -1.5132   -0.5662 H   0  0  0  0  0  0  0  0  0  0  0  0
   -0.2109    0.3214   -1.4377 C   0  0  0  0  0  0  0  0  0  0  0  0
   -1.0840    0.9790   -1.3894 H   0  0  0  0  0  0  0  0  0  0  0  0
    0.6735    0.9516   -1.2813 H   0  0  0  0  0  0  0  0  0  0  0  0
   -0.0937   -0.3289   -2.7954 C   0  0  0  0  0  0  0  0  0  0  0  0
   -1.0787   -0.4706   -3.7752 N   0  3  0  0  0  0  0  0  0  0  0  0
   -2.0338   -0.1225   -3.6648 H   0  0  0  0  0  0  0  0  0  0  0  0
   -0.5850   -1.0741   -4.8308 C   0  0  0  0  0  0  0  0  0  0  0  0
   -1.1198   -1.3148   -5.7520 H   0  0  0  0  0  0  0  0  0  0  0  0
    0.7546   -1.3476   -4.5633 N   0  0  0  0  0  0  0  0  0  0  0  0
    1.4101   -1.8160   -5.1972 H   0  0  0  0  0  0  0  0  0  0  0  0
    1.0631   -0.8748   -3.2945 C   0  0  0  0  0  0  0  0  0  0  0  0
    2.0271   -0.9243   -2.7838 H   0  0  0  0  0  0  0  0  0  0  0  0
    0.2343   -0.1491    1.0071 C   0  0  0  0  0  0  0  0  0  0  0  0
    1.4421   -0.0502    1.1627 O   0  0  0  0  0  0  0  0  0  0  0  0
   -0.6116    0.5770    1.8267 N   0  0  0  0  0  0  0  0  0  0  0  0
   -1.6075    0.4152    1.7208 H   0  0  0  0  0  0  0  0  0  0  0  0
   -0.1442    1.2306    3.0470 C   0  0  0  0  0  0  0  0  0  0  0  0
    0.6228    1.9776    2.8145 H   0  0  0  0  0  0  0  0  0  0  0  0
   -0.9733    1.7369    3.5512 H   0  0  0  0  0  0  0  0  0  0  0  0
    0.2835    0.4949    3.7372 H   0  0  0  0  0  0  0  0  0  0  0  0
  1  2  1  0  0  0  0
  2  3  1  0  0  0  0
  2  4  1  0  0  0  0
  2  5  1  0  0  0  0
  5  6  2  0  0  0  0
  5  7  1  0  0  0  0
  7  8  1  0  0  0  0
  7  9  1  0  0  0  0
  9 10  1  0  0  0  0
  9 11  1  0  0  0  0
  9 23  1  0  0  0  0
 11 12  1  0  0  0  0
 11 13  1  0  0  0  0
 11 14  1  0  0  0  0
 14 15  1  0  0  0  0
 14 21  2  0  0  0  0
 15 16  1  0  0  0  0
 15 17  2  0  0  0  0
 17 18  1  0  0  0  0
 17 19  1  0  0  0  0
 19 20  1  0  0  0  0
 19 21  1  0  0  0  0
 21 22  1  0  0  0  0
 23 24  2  0  0  0  0
 23 25  1  0  0  0  0
 25 26  1  0  0  0  0
 25 27  1  0  0  0  0
 27 28  1  0  0  0  0
 27 29  1  0  0  0  0
 27 30  1  0  0  0  0
M  CHG  1  15   1
M  END
$$$$

  -OEChem-04042216003D

 30 30  0     1  0  0  0  0  0999 V2000
   -3.2234   -3.8667    1.4700 H   0  0  0  0  0  0  0  0  0  0  0  0
   -3.2267   -3.0191    0.7778 C   0  0  0  0  0  0  0  0  0  0  0  0
   -3.8632   -2.2337    1.1920 H   0  0  0  0  0  0  0  0  0  0  0  0
   -3.6391   -3.3506   -0.1779 H   0  0  0  0  0  0  0  0  0  0  0  0
   -1.8139   -2.5025    0.5850 C   0  0  0  0  0  0  0  0  0  0  0  0
   -0.8827   -3.0443    1.1503 O   0  0  0  0  0  0  0  0  0  0  0  0
   -1.5675   -1.4221   -0.2442 N   0  0  0  0  0  0  0  0  0  0  0  0
   -2.3840   -0.9455   -0.6146 H   0  0  0  0  0  0  0  0  0  0  0  0
   -0.2485   -0.7565   -0.3083 C   0  0  1  0  0  0  0  0  0  0  0  0
    0.4920   -1.5322   -0.5360 H   0  0  0  0  0  0  0  0  0  0  0  0
   -0.1943    0.3035   -1.4240 C   0  0  0  0  0  0  0  0  0  0  0  0
   -1.0715    0.9550   -1.3645 H   0  0  0  0  0  0  0  0  0  0  0  0
    0.6875    0.9387   -1.2738 H   0  0  0  0  0  0  0  0  0  0  0  0
   -0.0851   -0.3332   -2.7902 C   0  0  0  0  0  0  0  0  0  0  0  0
   -0.9740   -0.2125   -3.8613 N   0  3  0  0  0  0  0  0  0  0  0  0
   -1.8212    0.3597   -3.8249 H   0  0  0  0  0  0  0  0  0  0  0  0
   -0.5303   -0.8836   -4.8981 C   0  0  0  0  0  0  0  0  0  0  0  0
   -1.0079   -0.9589   -5.8773 H   0  0  0  0  0  0  0  0  0  0  0  0
    0.6738   -1.4759   -4.5238 N   0  0  0  0  0  0  0  0  0  0  0  0
    1.2671   -2.0603   -5.1218 H   0  0  0  0  0  0  0  0  0  0  0  0
    0.9556   -1.1256   -3.2099 C   0  0  0  0  0  0  0  0  0  0  0  0
    1.8304   -1.4104   -2.6216 H   0  0  0  0  0  0  0  0  0  0  0  0
    0.2440   -0.1503    1.0213 C   0  0  0  0  0  0  0  0  0  0  0  0
    1.4505   -0.0584    1.1909 O   0  0  0  0  0  0  0  0  0  0  0  0
   -0.6091    0.5885    1.8218 N   0  0  0  0  0  0  0  0  0  0  0  0
   -1.6035    0.4213    1.7089 H   0  0  0  0  0  0  0  0  0  0  0  0
   -0.1554    1.2493    3.0433 C   0  0  0  0  0  0  0  0  0  0  0  0
    0.6434    1.9652    2.8208 H   0  0  0  0  0  0  0  0  0  0  0  0
   -0.9810    1.7935    3.5127 H   0  0  0  0  0  0  0  0  0  0  0  0
    0.2260    0.5126    3.7588 H   0  0  0  0  0  0  0  0  0  0  0  0
  1  2  1  0  0  0  0
  2  3  1  0  0  0  0
  2  4  1  0  0  0  0
  2  5  1  0  0  0  0
  5  6  2  0  0  0  0
  5  7  1  0  0  0  0
  7  8  1  0  0  0  0
  7  9  1  0  0  0  0
  9 10  1  0  0  0  0
  9 11  1  0  0  0  0
  9 23  1  0  0  0  0
 11 12  1  0  0  0  0
 11 13  1  0  0  0  0
 11 14  1  0  0  0  0
 14 15  1  0  0  0  0
 14 21  2  0  0  0  0
 15 16  1  0  0  0  0
 15 17  2  0  0  0  0
 17 18  1  0  0  0  0
 17 19  1  0  0  0  0
 19 20  1  0  0  0  0
 19 21  1  0  0  0  0
 21 22  1  0  0  0  0
 23 24  2  0  0  0  0
 23 25  1  0  0  0  0
 25 26  1  0  0  0  0
 25 27  1  0  0  0  0
 27 28  1  0  0  0  0
 27 29  1  0  0  0  0
 27 30  1  0  0  0  0
M  CHG  1  15   1
M  END
$$$$

  -OEChem-04042216003D

 30 30  0     1  0  0  0  0  0999 V2000
   -3.2340   -3.8695    1.4772 H   0  0  0  0  0  0  0  0  0  0  0  0
   -3.2238   -3.0300    0.7754 C   0  0  0  0  0  0  0  0  0  0  0  0
   -3.8773   -2.2444    1.1621 H   0  0  0  0  0  0  0  0  0  0  0  0
   -3.6062   -3.3756   -0.1879 H   0  0  0  0  0  0  0  0  0  0  0  0
   -1.8101   -2.5043    0.6173 C   0  0  0  0  0  0  0  0  0  0  0  0
   -0.8922   -3.0267    1.2212 O   0  0  0  0  0  0  0  0  0  0  0  0
   -1.5449   -1.4406   -0.2271 N   0  0  0  0  0  0  0  0  0  0  0  0
   -2.3470   -0.9960   -0.6632 H   0  0  0  0  0  0  0  0  0  0  0  0
   -0.2234   -0.7803   -0.2888 C   0  0  1  0  0  0  0  0  0  0  0  0
    0.5215   -1.5564   -0.4940 H   0  0  0  0  0  0  0  0  0  0  0  0
   -0.1675    0.2741   -1.4114 C   0  0  0  0  0  0  0  0  0  0  0  0
   -1.0506    0.9170   -1.3469 H   0  0  0  0  0  0  0  0  0  0  0  0
    0.7093    0.9163   -1.2607 H   0  0  0  0  0  0  0  0  0  0  0  0
   -0.0589   -0.3441   -2.7886 C   0  0  0  0  0  0  0  0  0  0  0  0
   -0.7856    0.0278   -3.9228 N   0  3  0  0  0  0  0  0  0  0  0  0
   -1.4596    0.7979   -3.9274 H   0  0  0  0  0  0  0  0  0  0  0  0
   -0.4265   -0.6981   -4.9548 C   0  0  0  0  0  0  0  0  0  0  0  0
   -0.8106   -0.6144   -5.9736 H   0  0  0  0  0  0  0  0  0  0  0  0
    0.5484   -1.5893   -4.5139 N   0  0  0  0  0  0  0  0  0  0  0  0
    1.0345   -2.2818   -5.0928 H   0  0  0  0  0  0  0  0  0  0  0  0
    0.7815   -1.3658   -3.1633 C   0  0  0  0  0  0  0  0  0  0  0  0
    1.4996   -1.8848   -2.5260 H   0  0  0  0  0  0  0  0  0  0  0  0
    0.2488   -0.1530    1.0387 C   0  0  0  0  0  0  0  0  0  0  0  0
    1.4523   -0.0586    1.2264 O   0  0  0  0  0  0  0  0  0  0  0  0
   -0.6173    0.5999    1.8117 N   0  0  0  0  0  0  0  0  0  0  0  0
   -1.6092    0.4240    1.6882 H   0  0  0  0  0  0  0  0  0  0  0  0
   -0.1845    1.2787    3.0308 C   0  0  0  0  0  0  0  0  0  0  0  0
    0.6224    1.9871    2.8130 H   0  0  0  0  0  0  0  0  0  0  0  0
   -1.0164    1.8346    3.4740 H   0  0  0  0  0  0  0  0  0  0  0  0
    0.1776    0.5521    3.7665 H   0  0  0  0  0  0  0  0  0  0  0  0
  1  2  1  0  0  0  0
  2  3  1  0  0  0  0
  2  4  1  0  0  0  0
  2  5  1  0  0  0  0
  5  6  2  0  0  0  0
  5  7  1  0  0  0  0
  7  8  1  0  0  0  0
  7  9  1  0  0  0  0
  9 10  1  0  0  0  0
  9 11  1  0  0  0  0
  9 23  1  0  0  0  0
 11 12  1  0  0  0  0
 11 13  1  0  0  0  0
 11 14  1  0  0  0  0
 14 15  1  0  0  0  0
 14 21  2  0  0  0  0
 15 16  1  0  0  0  0
 15 17  2  0  0  0  0
 17 18  1  0  0  0  0
 17 19  1  0  0  0  0
 19 20  1  0  0  0  0
 19 21  1  0  0  0  0
 21 22  1  0  0  0  0
 23 24  2  0  0  0  0
 23 25  1  0  0  0  0
 25 26  1  0  0  0  0
 25 27  1  0  0  0  0
 27 28  1  0  0  0  0
 27 29  1  0  0  0  0
 27 30  1  0  0  0  0
M  CHG  1  15   1
M  END
$$$$

  -OEChem-04042216003D

 30 30  0     1  0  0  0  0  0999 V2000
   -3.2421   -3.8540    1.5056 H   0  0  0  0  0  0  0  0  0  0  0  0
   -3.2199   -3.0258    0.7907 C   0  0  0  0  0  0  0  0  0  0  0  0
   -3.8697   -2.2291    1.1607 H   0  0  0  0  0  0  0  0  0  0  0  0
   -3.5990   -3.3821   -0.1699 H   0  0  0  0  0  0  0  0  0  0  0  0
   -1.8010   -2.5138    0.6343 C   0  0  0  0  0  0  0  0  0  0  0  0
   -0.8886   -3.0387    1.2442 O   0  0  0  0  0  0  0  0  0  0  0  0
   -1.5236   -1.4615   -0.2199 N   0  0  0  0  0  0  0  0  0  0  0  0
   -2.3197   -1.0228   -0.6734 H   0  0  0  0  0  0  0  0  0  0  0  0
   -0.2018   -0.8012   -0.2755 C   0  0  1  0  0  0  0  0  0  0  0  0
    0.5532   -1.5718   -0.4616 H   0  0  0  0  0  0  0  0  0  0  0  0
   -0.1455    0.2464   -1.4045 C   0  0  0  0  0  0  0  0  0  0  0  0
   -1.0349    0.8812   -1.3428 H   0  0  0  0  0  0  0  0  0  0  0  0
    0.7260    0.8952   -1.2511 H   0  0  0  0  0  0  0  0  0  0  0  0
   -0.0311   -0.3612   -2.7882 C   0  0  0  0  0  0  0  0  0  0  0  0
   -0.5325    0.2111   -3.9606 N   0  3  0  0  0  0  0  0  0  0  0  0
   -0.9853    1.1288   -3.9837 H   0  0  0  0  0  0  0  0  0  0  0  0
   -0.2718   -0.5532   -4.9942 C   0  0  0  0  0  0  0  0  0  0  0  0
   -0.5222   -0.3447   -6.0366 H   0  0  0  0  0  0  0  0  0  0  0  0
    0.3972   -1.6770   -4.5171 N   0  0  0  0  0  0  0  0  0  0  0  0
    0.7446   -2.4551   -5.0871 H   0  0  0  0  0  0  0  0  0  0  0  0
    0.5469   -1.5593   -3.1413 C   0  0  0  0  0  0  0  0  0  0  0  0
    1.0373   -2.2712   -2.4753 H   0  0  0  0  0  0  0  0  0  0  0  0
    0.2489   -0.1575    1.0521 C   0  0  0  0  0  0  0  0  0  0  0  0
    1.4485   -0.0539    1.2573 O   0  0  0  0  0  0  0  0  0  0  0  0
   -0.6306    0.6025    1.8028 N   0  0  0  0  0  0  0  0  0  0  0  0
   -1.6202    0.4235    1.6670 H   0  0  0  0  0  0  0  0  0  0  0  0
   -0.2157    1.3049    3.0147 C   0  0  0  0  0  0  0  0  0  0  0  0
    0.5545    2.0490    2.7839 H   0  0  0  0  0  0  0  0  0  0  0  0
   -1.0674    1.8224    3.4670 H   0  0  0  0  0  0  0  0  0  0  0  0
    0.1897    0.5989    3.7480 H   0  0  0  0  0  0  0  0  0  0  0  0
  1  2  1  0  0  0  0
  2  3  1  0  0  0  0
  2  4  1  0  0  0  0
  2  5  1  0  0  0  0
  5  6  2  0  0  0  0
  5  7  1  0  0  0  0
  7  8  1  0  0  0  0
  7  9  1  0  0  0  0
  9 10  1  0  0  0  0
  9 11  1  0  0  0  0
  9 23  1  0  0  0  0
 11 12  1  0  0  0  0
 11 13  1  0  0  0  0
 11 14  1  0  0  0  0
 14 15  1  0  0  0  0
 14 21  2  0  0  0  0
 15 16  1  0  0  0  0
 15 17  2  0  0  0  0
 17 18  1  0  0  0  0
 17 19  1  0  0  0  0
 19 20  1  0  0  0  0
 19 21  1  0  0  0  0
 21 22  1  0  0  0  0
 23 24  2  0  0  0  0
 23 25  1  0  0  0  0
 25 26  1  0  0  0  0
 25 27  1  0  0  0  0
 27 28  1  0  0  0  0
 27 29  1  0  0  0  0
 27 30  1  0  0  0  0
M  CHG  1  15   1
M  END
$$$$

  -OEChem-04042216003D

 30 30  0     1  0  0  0  0  0999 V2000
   -3.2286   -3.8484    1.5320 H   0  0  0  0  0  0  0  0  0  0  0  0
   -3.2133   -3.0151    0.8230 C   0  0  0  0  0  0  0  0  0  0  0  0
   -3.8441   -2.2132    1.2136 H   0  0  0  0  0  0  0  0  0  0  0  0
   -3.6195   -3.3602   -0.1307 H   0  0  0  0  0  0  0  0  0  0  0  0
   -1.7923   -2.5189    0.6372 C   0  0  0  0  0  0  0  0  0  0  0  0
   -0.8723   -3.0604    1.2207 O   0  0  0  0  0  0  0  0  0  0  0  0
   -1.5185   -1.4703   -0.2229 N   0  0  0  0  0  0  0  0  0  0  0  0
   -2.3213   -1.0108   -0.6440 H   0  0  0  0  0  0  0  0  0  0  0  0
   -0.1972   -0.8079   -0.2776 C   0  0  1  0  0  0  0  0  0  0  0  0
    0.5654   -1.5731   -0.4601 H   0  0  0  0  0  0  0  0  0  0  0  0
   -0.1407    0.2349   -1.4100 C   0  0  0  0  0  0  0  0  0  0  0  0
   -1.0297    0.8709   -1.3541 H   0  0  0  0  0  0  0  0  0  0  0  0
    0.7317    0.8817   -1.2537 H   0  0  0  0  0  0  0  0  0  0  0  0
   -0.0230   -0.3745   -2.7932 C   0  0  0  0  0  0  0  0  0  0  0  0
   -0.2502    0.3182   -3.9853 N   0  3  0  0  0  0  0  0  0  0  0  0
   -0.4637    1.3190   -4.0159 H   0  0  0  0  0  0  0  0  0  0  0  0
   -0.0761   -0.4717   -5.0177 C   0  0  0  0  0  0  0  0  0  0  0  0
   -0.1601   -0.1931   -6.0703 H   0  0  0  0  0  0  0  0  0  0  0  0
    0.2476   -1.7318   -4.5222 N   0  0  0  0  0  0  0  0  0  0  0  0
    0.4519   -2.5633   -5.0860 H   0  0  0  0  0  0  0  0  0  0  0  0
    0.2770   -1.6739   -3.1348 C   0  0  0  0  0  0  0  0  0  0  0  0
    0.4994   -2.4954   -2.4520 H   0  0  0  0  0  0  0  0  0  0  0  0
    0.2444   -0.1583    1.0504 C   0  0  0  0  0  0  0  0  0  0  0  0
    1.4420   -0.0532    1.2657 O   0  0  0  0  0  0  0  0  0  0  0  0
   -0.6415    0.6025    1.7933 N   0  0  0  0  0  0  0  0  0  0  0  0
   -1.6305    0.4287    1.6467 H   0  0  0  0  0  0  0  0  0  0  0  0
   -0.2367    1.3066    3.0078 C   0  0  0  0  0  0  0  0  0  0  0  0
    0.5501    2.0361    2.7865 H   0  0  0  0  0  0  0  0  0  0  0  0
   -1.0873    1.8418    3.4412 H   0  0  0  0  0  0  0  0  0  0  0  0
    0.1433    0.5986    3.7525 H   0  0  0  0  0  0  0  0  0  0  0  0
  1  2  1  0  0  0  0
  2  3  1  0  0  0  0
  2  4  1  0  0  0  0
  2  5  1  0  0  0  0
  5  6  2  0  0  0  0
  5  7  1  0  0  0  0
  7  8  1  0  0  0  0
  7  9  1  0  0  0  0
  9 10  1  0  0  0  0
  9 11  1  0  0  0  0
  9 23  1  0  0  0  0
 11 12  1  0  0  0  0
 11 13  1  0  0  0  0
 11 14  1  0  0  0  0
 14 15  1  0  0  0  0
 14 21  2  0  0  0  0
 15 16  1  0  0  0  0
 15 17  2  0  0  0  0
 17 18  1  0  0  0  0
 17 19  1  0  0  0  0
 19 20  1  0  0  0  0
 19 21  1  0  0  0  0
 21 22  1  0  0  0  0
 23 24  2  0  0  0  0
 23 25  1  0  0  0  0
 25 26  1  0  0  0  0
 25 27  1  0  0  0  0
 27 28  1  0  0  0  0
 27 29  1  0  0  0  0
 27 30  1  0  0  0  0
M  CHG  1  15   1
M  END
$$$$

  -OEChem-04042216003D

 30 30  0     1  0  0  0  0  0999 V2000
   -3.2196   -3.8437    1.6141 H   0  0  0  0  0  0  0  0  0  0  0  0
   -3.2338   -2.9984    0.9194 C   0  0  0  0  0  0  0  0  0  0  0  0
   -3.8206   -2.1916    1.3646 H   0  0  0  0  0  0  0  0  0  0  0  0
   -3.7093   -3.3183   -0.0106 H   0  0  0  0  0  0  0  0  0  0  0  0
   -1.8179   -2.5277    0.6484 C   0  0  0  0  0  0  0  0  0  0  0  0
   -0.8734   -3.1045    1.1520 O   0  0  0  0  0  0  0  0  0  0  0  0
   -1.5790   -1.4652   -0.2051 N   0  0  0  0  0  0  0  0  0  0  0  0
   -2.4010   -0.9599   -0.5253 H   0  0  0  0  0  0  0  0  0  0  0  0
   -0.2612   -0.7935   -0.2806 C   0  0  1  0  0  0  0  0  0  0  0  0
    0.4881   -1.5652   -0.4973 H   0  0  0  0  0  0  0  0  0  0  0  0
   -0.1966    0.2375   -1.4225 C   0  0  0  0  0  0  0  0  0  0  0  0
   -0.9345    1.0233   -1.2314 H   0  0  0  0  0  0  0  0  0  0  0  0
    0.7938    0.7089   -1.4066 H   0  0  0  0  0  0  0  0  0  0  0  0
   -0.4285   -0.3452   -2.8030 C   0  0  0  0  0  0  0  0  0  0  0  0
   -0.4174    0.3968   -3.9872 N   0  3  0  0  0  0  0  0  0  0  0  0
   -0.2526    1.4073   -4.0099 H   0  0  0  0  0  0  0  0  0  0  0  0
   -0.5833   -0.3882   -5.0247 C   0  0  0  0  0  0  0  0  0  0  0  0
   -0.5983   -0.0839   -6.0736 H   0  0  0  0  0  0  0  0  0  0  0  0
   -0.7194   -1.6868   -4.5413 N   0  0  0  0  0  0  0  0  0  0  0  0
   -0.8360   -2.5295   -5.1133 H   0  0  0  0  0  0  0  0  0  0  0  0
   -0.6118   -1.6624   -3.1564 C   0  0  0  0  0  0  0  0  0  0  0  0
   -0.6390   -2.5179   -2.4794 H   0  0  0  0  0  0  0  0  0  0  0  0
    0.2204   -0.1565    1.0392 C   0  0  0  0  0  0  0  0  0  0  0  0
    1.4232   -0.0499    1.2201 O   0  0  0  0  0  0  0  0  0  0  0  0
   -0.6447    0.5933    1.8171 N   0  0  0  0  0  0  0  0  0  0  0  0
   -1.6379    0.4284    1.6925 H   0  0  0  0  0  0  0  0  0  0  0  0
   -0.2066    1.2895    3.0247 C   0  0  0  0  0  0  0  0  0  0  0  0
    0.5606    2.0336    2.7840 H   0  0  0  0  0  0  0  0  0  0  0  0
   -1.0491    1.8065    3.4948 H   0  0  0  0  0  0  0  0  0  0  0  0
    0.2106    0.5795    3.7476 H   0  0  0  0  0  0  0  0  0  0  0  0
  1  2  1  0  0  0  0
  2  3  1  0  0  0  0
  2  4  1  0  0  0  0
  2  5  1  0  0  0  0
  5  6  2  0  0  0  0
  5  7  1  0  0  0  0
  7  8  1  0  0  0  0
  7  9  1  0  0  0  0
  9 10  1  0  0  0  0
  9 11  1  0  0  0  0
  9 23  1  0  0  0  0
 11 12  1  0  0  0  0
 11 13  1  0  0  0  0
 11 14  1  0  0  0  0
 14 15  1  0  0  0  0
 14 21  2  0  0  0  0
 15 16  1  0  0  0  0
 15 17  2  0  0  0  0
 17 18  1  0  0  0  0
 17 19  1  0  0  0  0
 19 20  1  0  0  0  0
 19 21  1  0  0  0  0
 21 22  1  0  0  0  0
 23 24  2  0  0  0  0
 23 25  1  0  0  0  0
 25 26  1  0  0  0  0
 25 27  1  0  0  0  0
 27 28  1  0  0  0  0
 27 29  1  0  0  0  0
 27 30  1  0  0  0  0
M  CHG  1  15   1
M  END
$$$$

  -OEChem-04042216003D

 30 30  0     1  0  0  0  0  0999 V2000
   -3.2287   -3.8258    1.6687 H   0  0  0  0  0  0  0  0  0  0  0  0
   -3.2507   -2.9837    0.9704 C   0  0  0  0  0  0  0  0  0  0  0  0
   -3.8159   -2.1678    1.4268 H   0  0  0  0  0  0  0  0  0  0  0  0
   -3.7542   -3.3021    0.0547 H   0  0  0  0  0  0  0  0  0  0  0  0
   -1.8368   -2.5318    0.6601 C   0  0  0  0  0  0  0  0  0  0  0  0
   -0.8860   -3.1210    1.1367 O   0  0  0  0  0  0  0  0  0  0  0  0
   -1.6102   -1.4679   -0.1954 N   0  0  0  0  0  0  0  0  0  0  0  0
   -2.4365   -0.9442   -0.4731 H   0  0  0  0  0  0  0  0  0  0  0  0
   -0.2919   -0.7984   -0.2870 C   0  0  1  0  0  0  0  0  0  0  0  0
    0.4490   -1.5756   -0.5143 H   0  0  0  0  0  0  0  0  0  0  0  0
   -0.2256    0.2298   -1.4321 C   0  0  0  0  0  0  0  0  0  0  0  0
   -0.9522    1.0261   -1.2402 H   0  0  0  0  0  0  0  0  0  0  0  0
    0.7708    0.6877   -1.4154 H   0  0  0  0  0  0  0  0  0  0  0  0
   -0.4631   -0.3395   -2.8176 C   0  0  0  0  0  0  0  0  0  0  0  0
   -0.1563    0.3413   -3.9989 N   0  3  0  0  0  0  0  0  0  0  0  0
    0.2174    1.2946   -4.0102 H   0  0  0  0  0  0  0  0  0  0  0  0
   -0.3645   -0.4242   -5.0428 C   0  0  0  0  0  0  0  0  0  0  0  0
   -0.1960   -0.1570   -6.0881 H   0  0  0  0  0  0  0  0  0  0  0  0
   -0.8212   -1.6503   -4.5681 N   0  0  0  0  0  0  0  0  0  0  0  0
   -1.0370   -2.4712   -5.1427 H   0  0  0  0  0  0  0  0  0  0  0  0
   -0.8625   -1.6054   -3.1801 C   0  0  0  0  0  0  0  0  0  0  0  0
   -1.1181   -2.4244   -2.5072 H   0  0  0  0  0  0  0  0  0  0  0  0
    0.2099   -0.1651    1.0268 C   0  0  0  0  0  0  0  0  0  0  0  0
    1.4155   -0.0529    1.1851 O   0  0  0  0  0  0  0  0  0  0  0  0
   -0.6424    0.5850    1.8183 N   0  0  0  0  0  0  0  0  0  0  0  0
   -1.6375    0.4179    1.7123 H   0  0  0  0  0  0  0  0  0  0  0  0
   -0.1837    1.2869    3.0149 C   0  0  0  0  0  0  0  0  0  0  0  0
    0.5769    2.0321    2.7572 H   0  0  0  0  0  0  0  0  0  0  0  0
   -1.0186    1.8036    3.4984 H   0  0  0  0  0  0  0  0  0  0  0  0
    0.2487    0.5806    3.7323 H   0  0  0  0  0  0  0  0  0  0  0  0
  1  2  1  0  0  0  0
  2  3  1  0  0  0  0
  2  4  1  0  0  0  0
  2  5  1  0  0  0  0
  5  6  2  0  0  0  0
  5  7  1  0  0  0  0
  7  8  1  0  0  0  0
  7  9  1  0  0  0  0
  9 10  1  0  0  0  0
  9 11  1  0  0  0  0
  9 23  1  0  0  0  0
 11 12  1  0  0  0  0
 11 13  1  0  0  0  0
 11 14  1  0  0  0  0
 14 15  1  0  0  0  0
 14 21  2  0  0  0  0
 15 16  1  0  0  0  0
 15 17  2  0  0  0  0
 17 18  1  0  0  0  0
 17 19  1  0  0  0  0
 19 20  1  0  0  0  0
 19 21  1  0  0  0  0
 21 22  1  0  0  0  0
 23 24  2  0  0  0  0
 23 25  1  0  0  0  0
 25 26  1  0  0  0  0
 25 27  1  0  0  0  0
 27 28  1  0  0  0  0
 27 29  1  0  0  0  0
 27 30  1  0  0  0  0
M  CHG  1  15   1
M  END
$$$$

  -OEChem-04042216003D

 30 30  0     1  0  0  0  0  0999 V2000
   -3.2136   -3.8223    1.7055 H   0  0  0  0  0  0  0  0  0  0  0  0
   -3.2500   -2.9789    1.0092 C   0  0  0  0  0  0  0  0  0  0  0  0
   -3.7998   -2.1616    1.4818 H   0  0  0  0  0  0  0  0  0  0  0  0
   -3.7790   -3.2935    0.1067 H   0  0  0  0  0  0  0  0  0  0  0  0
   -1.8421   -2.5336    0.6628 C   0  0  0  0  0  0  0  0  0  0  0  0
   -0.8838   -3.1284    1.1172 O   0  0  0  0  0  0  0  0  0  0  0  0
   -1.6314   -1.4664   -0.1937 N   0  0  0  0  0  0  0  0  0  0  0  0
   -2.4609   -0.9271   -0.4287 H   0  0  0  0  0  0  0  0  0  0  0  0
   -0.3137   -0.7977   -0.2966 C   0  0  1  0  0  0  0  0  0  0  0  0
    0.4207   -1.5792   -0.5323 H   0  0  0  0  0  0  0  0  0  0  0  0
   -0.2399    0.2314   -1.4414 C   0  0  0  0  0  0  0  0  0  0  0  0
   -0.9560    1.0371   -1.2493 H   0  0  0  0  0  0  0  0  0  0  0  0
    0.7616    0.6774   -1.4175 H   0  0  0  0  0  0  0  0  0  0  0  0
   -0.4779   -0.3238   -2.8333 C   0  0  0  0  0  0  0  0  0  0  0  0
    0.1038    0.2216   -3.9818 N   0  3  0  0  0  0  0  0  0  0  0  0
    0.6874    1.0631   -3.9626 H   0  0  0  0  0  0  0  0  0  0  0  0
   -0.1699   -0.5092   -5.0350 C   0  0  0  0  0  0  0  0  0  0  0  0
    0.1630   -0.3238   -6.0585 H   0  0  0  0  0  0  0  0  0  0  0  0
   -0.9480   -1.5775   -4.6004 N   0  0  0  0  0  0  0  0  0  0  0  0
   -1.2908   -2.3445   -5.1876 H   0  0  0  0  0  0  0  0  0  0  0  0
   -1.1201   -1.4763   -3.2253 C   0  0  0  0  0  0  0  0  0  0  0  0
   -1.6255   -2.1946   -2.5814 H   0  0  0  0  0  0  0  0  0  0  0  0
    0.2025   -0.1697    1.0146 C   0  0  0  0  0  0  0  0  0  0  0  0
    1.4099   -0.0627    1.1627 O   0  0  0  0  0  0  0  0  0  0  0  0
   -0.6403    0.5785    1.8183 N   0  0  0  0  0  0  0  0  0  0  0  0
   -1.6373    0.4204    1.7179 H   0  0  0  0  0  0  0  0  0  0  0  0
   -0.1689    1.2776    3.0117 C   0  0  0  0  0  0  0  0  0  0  0  0
    0.6055    2.0073    2.7506 H   0  0  0  0  0  0  0  0  0  0  0  0
   -0.9943    1.8122    3.4925 H   0  0  0  0  0  0  0  0  0  0  0  0
    0.2498    0.5672    3.7332 H   0  0  0  0  0  0  0  0  0  0  0  0
  1  2  1  0  0  0  0
  2  3  1  0  0  0  0
  2  4  1  0  0  0  0
  2  5  1  0  0  0  0
  5  6  2  0  0  0  0
  5  7  1  0  0  0  0
  7  8  1  0  0  0  0
  7  9  1  0  0  0  0
  9 10  1  0  0  0  0
  9 11  1  0  0  0  0
  9 23  1  0  0  0  0
 11 12  1  0  0  0  0
 11 13  1  0  0  0  0
 11 14  1  0  0  0  0
 14 15  1  0  0  0  0
 14 21  2  0  0  0  0
 15 16  1  0  0  0  0
 15 17  2  0  0  0  0
 17 18  1  0  0  0  0
 17 19  1  0  0  0  0
 19 20  1  0  0  0  0
 19 21  1  0  0  0  0
 21 22  1  0  0  0  0
 23 24  2  0  0  0  0
 23 25  1  0  0  0  0
 25 26  1  0  0  0  0
 25 27  1  0  0  0  0
 27 28  1  0  0  0  0
 27 29  1  0  0  0  0
 27 30  1  0  0  0  0
M  CHG  1  15   1
M  END
$$$$

  -OEChem-04042216003D

 30 30  0     1  0  0  0  0  0999 V2000
   -3.1939   -3.8222    1.7062 H   0  0  0  0  0  0  0  0  0  0  0  0
   -3.2384   -2.9822    1.0062 C   0  0  0  0  0  0  0  0  0  0  0  0
   -3.7850   -2.1634    1.4802 H   0  0  0  0  0  0  0  0  0  0  0  0
   -3.7748   -3.3029    0.1103 H   0  0  0  0  0  0  0  0  0  0  0  0
   -1.8348   -2.5359    0.6439 C   0  0  0  0  0  0  0  0  0  0  0  0
   -0.8719   -3.1303    1.0891 O   0  0  0  0  0  0  0  0  0  0  0  0
   -1.6364   -1.4597   -0.2048 N   0  0  0  0  0  0  0  0  0  0  0  0
   -2.4679   -0.9094   -0.4021 H   0  0  0  0  0  0  0  0  0  0  0  0
   -0.3214   -0.7864   -0.3056 C   0  0  1  0  0  0  0  0  0  0  0  0
    0.4104   -1.5684   -0.5468 H   0  0  0  0  0  0  0  0  0  0  0  0
   -0.2371    0.2473   -1.4452 C   0  0  0  0  0  0  0  0  0  0  0  0
   -0.9539    1.0537   -1.2582 H   0  0  0  0  0  0  0  0  0  0  0  0
    0.7634    0.6951   -1.4121 H   0  0  0  0  0  0  0  0  0  0  0  0
   -0.4671   -0.3103   -2.8367 C   0  0  0  0  0  0  0  0  0  0  0  0
    0.3384    0.0196   -3.9305 N   0  3  0  0  0  0  0  0  0  0  0  0
    1.1181    0.6807   -3.8665 H   0  0  0  0  0  0  0  0  0  0  0  0
   -0.0201   -0.6576   -4.9937 C   0  0  0  0  0  0  0  0  0  0  0  0
    0.4414   -0.6057   -5.9822 H   0  0  0  0  0  0  0  0  0  0  0  0
   -1.0888   -1.4671   -4.6215 N   0  0  0  0  0  0  0  0  0  0  0  0
   -1.5711   -2.1358   -5.2304 H   0  0  0  0  0  0  0  0  0  0  0  0
   -1.3568   -1.2645   -3.2726 C   0  0  0  0  0  0  0  0  0  0  0  0
   -2.1023   -1.7846   -2.6741 H   0  0  0  0  0  0  0  0  0  0  0  0
    0.2000   -0.1690    1.0081 C   0  0  0  0  0  0  0  0  0  0  0  0
    1.4081   -0.0575    1.1486 O   0  0  0  0  0  0  0  0  0  0  0  0
   -0.6397    0.5701    1.8233 N   0  0  0  0  0  0  0  0  0  0  0  0
   -1.6374    0.4148    1.7254 H   0  0  0  0  0  0  0  0  0  0  0  0
   -0.1616    1.2604    3.0191 C   0  0  0  0  0  0  0  0  0  0  0  0
    0.6040    1.9994    2.7580 H   0  0  0  0  0  0  0  0  0  0  0  0
   -0.9859    1.7832    3.5142 H   0  0  0  0  0  0  0  0  0  0  0  0
    0.2703    0.5452    3.7279 H   0  0  0  0  0  0  0  0  0  0  0  0
  1  2  1  0  0  0  0
  2  3  1  0  0  0  0
  2  4  1  0  0  0  0
  2  5  1  0  0  0  0
  5  6  2  0  0  0  0
  5  7  1  0  0  0  0
  7  8  1  0  0  0  0
  7  9  1  0  0  0  0
  9 10  1  0  0  0  0
  9 11  1  0  0  0  0
  9 23  1  0  0  0  0
 11 12  1  0  0  0  0
 11 13  1  0  0  0  0
 11 14  1  0  0  0  0
 14 15  1  0  0  0  0
 14 21  2  0  0  0  0
 15 16  1  0  0  0  0
 15 17  2  0  0  0  0
 17 18  1  0  0  0  0
 17 19  1  0  0  0  0
 19 20  1  0  0  0  0
 19 21  1  0  0  0  0
 21 22  1  0  0  0  0
 23 24  2  0  0  0  0
 23 25  1  0  0  0  0
 25 26  1  0  0  0  0
 25 27  1  0  0  0  0
 27 28  1  0  0  0  0
 27 29  1  0  0  0  0
 27 30  1  0  0  0  0
M  CHG  1  15   1
M  END
$$$$

  -OEChem-04042216003D

 30 30  0     1  0  0  0  0  0999 V2000
   -3.1770   -3.8422    1.6500 H   0  0  0  0  0  0  0  0  0  0  0  0
   -3.2214   -2.9985    0.9545 C   0  0  0  0  0  0  0  0  0  0  0  0
   -3.7812   -2.1876    1.4263 H   0  0  0  0  0  0  0  0  0  0  0  0
   -3.7439   -3.3186    0.0502 H   0  0  0  0  0  0  0  0  0  0  0  0
   -1.8183   -2.5365    0.6116 C   0  0  0  0  0  0  0  0  0  0  0  0
   -0.8548   -3.1229    1.0666 O   0  0  0  0  0  0  0  0  0  0  0  0
   -1.6230   -1.4486   -0.2227 N   0  0  0  0  0  0  0  0  0  0  0  0
   -2.4572   -0.9010   -0.4117 H   0  0  0  0  0  0  0  0  0  0  0  0
   -0.3120   -0.7659   -0.3079 C   0  0  1  0  0  0  0  0  0  0  0  0
    0.4239   -1.5438   -0.5492 H   0  0  0  0  0  0  0  0  0  0  0  0
   -0.2233    0.2716   -1.4424 C   0  0  0  0  0  0  0  0  0  0  0  0
   -0.9595    1.0628   -1.2668 H   0  0  0  0  0  0  0  0  0  0  0  0
    0.7658    0.7432   -1.4067 H   0  0  0  0  0  0  0  0  0  0  0  0
   -0.4408   -0.3166   -2.8203 C   0  0  0  0  0  0  0  0  0  0  0  0
    0.5110   -0.2651   -3.8418 N   0  3  0  0  0  0  0  0  0  0  0  0
    1.4341    0.1624   -3.7206 H   0  0  0  0  0  0  0  0  0  0  0  0
    0.0661   -0.8660   -4.9182 C   0  0  0  0  0  0  0  0  0  0  0  0
    0.6027   -0.9891   -5.8615 H   0  0  0  0  0  0  0  0  0  0  0  0
   -1.2161   -1.3254   -4.6301 N   0  0  0  0  0  0  0  0  0  0  0  0
   -1.8202   -1.8476   -5.2723 H   0  0  0  0  0  0  0  0  0  0  0  0
   -1.5331   -0.9842   -3.3201 C   0  0  0  0  0  0  0  0  0  0  0  0
   -2.4560   -1.2121   -2.7904 H   0  0  0  0  0  0  0  0  0  0  0  0
    0.2048   -0.1592    1.0124 C   0  0  0  0  0  0  0  0  0  0  0  0
    1.4127   -0.0399    1.1503 O   0  0  0  0  0  0  0  0  0  0  0  0
   -0.6385    0.5672    1.8352 N   0  0  0  0  0  0  0  0  0  0  0  0
   -1.6344    0.3969    1.7447 H   0  0  0  0  0  0  0  0  0  0  0  0
   -0.1618    1.2518    3.0349 C   0  0  0  0  0  0  0  0  0  0  0  0
    0.5998    1.9961    2.7775 H   0  0  0  0  0  0  0  0  0  0  0  0
   -0.9884    1.7672    3.5342 H   0  0  0  0  0  0  0  0  0  0  0  0
    0.2751    0.5344    3.7383 H   0  0  0  0  0  0  0  0  0  0  0  0
  1  2  1  0  0  0  0
  2  3  1  0  0  0  0
  2  4  1  0  0  0  0
  2  5  1  0  0  0  0
  5  6  2  0  0  0  0
  5  7  1  0  0  0  0
  7  8  1  0  0  0  0
  7  9  1  0  0  0  0
  9 10  1  0  0  0  0
  9 11  1  0  0  0  0
  9 23  1  0  0  0  0
 11 12  1  0  0  0  0
 11 13  1  0  0  0  0
 11 14  1  0  0  0  0
 14 15  1  0  0  0  0
 14 21  2  0  0  0  0
 15 16  1  0  0  0  0
 15 17  2  0  0  0  0
 17 18  1  0  0  0  0
 17 19  1  0  0  0  0
 19 20  1  0  0  0  0
 19 21  1  0  0  0  0
 21 22  1  0  0  0  0
 23 24  2  0  0  0  0
 23 25  1  0  0  0  0
 25 26  1  0  0  0  0
 25 27  1  0  0  0  0
 27 28  1  0  0  0  0
 27 29  1  0  0  0  0
 27 30  1  0  0  0  0
M  CHG  1  15   1
M  END
$$$$

  -OEChem-04042216003D

 30 30  0     1  0  0  0  0  0999 V2000
   -3.1810   -3.8655    1.5924 H   0  0  0  0  0  0  0  0  0  0  0  0
   -3.2139   -3.0250    0.8923 C   0  0  0  0  0  0  0  0  0  0  0  0
   -3.8098   -2.2245    1.3368 H   0  0  0  0  0  0  0  0  0  0  0  0
   -3.6909   -3.3587   -0.0320 H   0  0  0  0  0  0  0  0  0  0  0  0
   -1.8076   -2.5350    0.6063 C   0  0  0  0  0  0  0  0  0  0  0  0
   -0.8512   -3.1001    1.1020 O   0  0  0  0  0  0  0  0  0  0  0  0
   -1.6002   -1.4466   -0.2234 N   0  0  0  0  0  0  0  0  0  0  0  0
   -2.4340   -0.9240   -0.4714 H   0  0  0  0  0  0  0  0  0  0  0  0
   -0.2903   -0.7627   -0.3001 C   0  0  1  0  0  0  0  0  0  0  0  0
    0.4480   -1.5385   -0.5402 H   0  0  0  0  0  0  0  0  0  0  0  0
   -0.2092    0.2794   -1.4289 C   0  0  0  0  0  0  0  0  0  0  0  0
   -0.9589    1.0575   -1.2511 H   0  0  0  0  0  0  0  0  0  0  0  0
    0.7715    0.7694   -1.4040 H   0  0  0  0  0  0  0  0  0  0  0  0
   -0.4321   -0.3358   -2.7906 C   0  0  0  0  0  0  0  0  0  0  0  0
    0.5834   -0.5774   -3.7186 N   0  3  0  0  0  0  0  0  0  0  0  0
    1.5737   -0.4088   -3.5165 H   0  0  0  0  0  0  0  0  0  0  0  0
    0.0856   -1.0765   -4.8235 C   0  0  0  0  0  0  0  0  0  0  0  0
    0.6482   -1.3774   -5.7098 H   0  0  0  0  0  0  0  0  0  0  0  0
   -1.2948   -1.1515   -4.6539 N   0  0  0  0  0  0  0  0  0  0  0  0
   -1.9624   -1.4975   -5.3502 H   0  0  0  0  0  0  0  0  0  0  0  0
   -1.6207   -0.6765   -3.3881 C   0  0  0  0  0  0  0  0  0  0  0  0
   -2.6162   -0.5855   -2.9572 H   0  0  0  0  0  0  0  0  0  0  0  0
    0.2191   -0.1554    1.0221 C   0  0  0  0  0  0  0  0  0  0  0  0
    1.4263   -0.0304    1.1621 O   0  0  0  0  0  0  0  0  0  0  0  0
   -0.6304    0.5700    1.8390 N   0  0  0  0  0  0  0  0  0  0  0  0
   -1.6247    0.3921    1.7456 H   0  0  0  0  0  0  0  0  0  0  0  0
   -0.1626    1.2611    3.0381 C   0  0  0  0  0  0  0  0  0  0  0  0
    0.5818    2.0218    2.7784 H   0  0  0  0  0  0  0  0  0  0  0  0
   -0.9974    1.7573    3.5430 H   0  0  0  0  0  0  0  0  0  0  0  0
    0.2928    0.5513    3.7376 H   0  0  0  0  0  0  0  0  0  0  0  0
  1  2  1  0  0  0  0
  2  3  1  0  0  0  0
  2  4  1  0  0  0  0
  2  5  1  0  0  0  0
  5  6  2  0  0  0  0
  5  7  1  0  0  0  0
  7  8  1  0  0  0  0
  7  9  1  0  0  0  0
  9 10  1  0  0  0  0
  9 11  1  0  0  0  0
  9 23  1  0  0  0  0
 11 12  1  0  0  0  0
 11 13  1  0  0  0  0
 11 14  1  0  0  0  0
 14 15  1  0  0  0  0
 14 21  2  0  0  0  0
 15 16  1  0  0  0  0
 15 17  2  0  0  0  0
 17 18  1  0  0  0  0
 17 19  1  0  0  0  0
 19 20  1  0  0  0  0
 19 21  1  0  0  0  0
 21 22  1  0  0  0  0
 23 24  2  0  0  0  0
 23 25  1  0  0  0  0
 25 26  1  0  0  0  0
 25 27  1  0  0  0  0
 27 28  1  0  0  0  0
 27 29  1  0  0  0  0
 27 30  1  0  0  0  0
M  CHG  1  15   1
M  END
$$$$

  -OEChem-04042216003D

 30 30  0     1  0  0  0  0  0999 V2000
   -3.1917   -3.8857    1.5446 H   0  0  0  0  0  0  0  0  0  0  0  0
   -3.2153   -3.0434    0.8464 C   0  0  0  0  0  0  0  0  0  0  0  0
   -3.8412   -2.2558    1.2720 H   0  0  0  0  0  0  0  0  0  0  0  0
   -3.6532   -3.3825   -0.0951 H   0  0  0  0  0  0  0  0  0  0  0  0
   -1.8092   -2.5261    0.6115 C   0  0  0  0  0  0  0  0  0  0  0  0
   -0.8607   -3.0703    1.1446 O   0  0  0  0  0  0  0  0  0  0  0  0
   -1.5897   -1.4402   -0.2180 N   0  0  0  0  0  0  0  0  0  0  0  0
   -2.4185   -0.9506   -0.5390 H   0  0  0  0  0  0  0  0  0  0  0  0
   -0.2796   -0.7577   -0.2944 C   0  0  1  0  0  0  0  0  0  0  0  0
    0.4595   -1.5319   -0.5349 H   0  0  0  0  0  0  0  0  0  0  0  0
   -0.2108    0.2882   -1.4191 C   0  0  0  0  0  0  0  0  0  0  0  0
   -0.9607    1.0639   -1.2325 H   0  0  0  0  0  0  0  0  0  0  0  0
    0.7689    0.7809   -1.4080 H   0  0  0  0  0  0  0  0  0  0  0  0
   -0.4457   -0.3391   -2.7716 C   0  0  0  0  0  0  0  0  0  0  0  0
    0.5619   -0.8605   -3.5857 N   0  3  0  0  0  0  0  0  0  0  0  0
    1.5414   -0.9209   -3.2900 H   0  0  0  0  0  0  0  0  0  0  0  0
    0.0619   -1.2718   -4.7252 C   0  0  0  0  0  0  0  0  0  0  0  0
    0.6147   -1.7356   -5.5451 H   0  0  0  0  0  0  0  0  0  0  0  0
   -1.3047   -1.0023   -4.6952 N   0  0  0  0  0  0  0  0  0  0  0  0
   -1.9662   -1.1941   -5.4543 H   0  0  0  0  0  0  0  0  0  0  0  0
   -1.6204   -0.4034   -3.4800 C   0  0  0  0  0  0  0  0  0  0  0  0
   -2.5962   -0.0399   -3.1599 H   0  0  0  0  0  0  0  0  0  0  0  0
    0.2288   -0.1466    1.0260 C   0  0  0  0  0  0  0  0  0  0  0  0
    1.4366   -0.0291    1.1683 O   0  0  0  0  0  0  0  0  0  0  0  0
   -0.6205    0.5822    1.8396 N   0  0  0  0  0  0  0  0  0  0  0  0
   -1.6143    0.4001    1.7471 H   0  0  0  0  0  0  0  0  0  0  0  0
   -0.1530    1.2660    3.0430 C   0  0  0  0  0  0  0  0  0  0  0  0
    0.6104    2.0106    2.7917 H   0  0  0  0  0  0  0  0  0  0  0  0
   -0.9832    1.7807    3.5367 H   0  0  0  0  0  0  0  0  0  0  0  0
    0.2787    0.5481    3.7491 H   0  0  0  0  0  0  0  0  0  0  0  0
  1  2  1  0  0  0  0
  2  3  1  0  0  0  0
  2  4  1  0  0  0  0
  2  5  1  0  0  0  0
  5  6  2  0  0  0  0
  5  7  1  0  0  0  0
  7  8  1  0  0  0  0
  7  9  1  0  0  0  0
  9 10  1  0  0  0  0
  9 11  1  0  0  0  0
  9 23  1  0  0  0  0
 11 12  1  0  0  0  0
 11 13  1  0  0  0  0
 11 14  1  0  0  0  0
 14 15  1  0  0  0  0
 14 21  2  0  0  0  0
 15 16  1  0  0  0  0
 15 17  2  0  0  0  0
 17 18  1  0  0  0  0
 17 19  1  0  0  0  0
 19 20  1  0  0  0  0
 19 21  1  0  0  0  0
 21 22  1  0  0  0  0
 23 24  2  0  0  0  0
 23 25  1  0  0  0  0
 25 26  1  0  0  0  0
 25 27  1  0  0  0  0
 27 28  1  0  0  0  0
 27 29  1  0  0  0  0
 27 30  1  0  0  0  0
M  CHG  1  15   1
M  END
$$$$

  -OEChem-04042216003D

 30 30  0     1  0  0  0  0  0999 V2000
   -3.2063   -3.8843    1.5088 H   0  0  0  0  0  0  0  0  0  0  0  0
   -3.2213   -3.0403    0.8127 C   0  0  0  0  0  0  0  0  0  0  0  0
   -3.8559   -2.2554    1.2303 H   0  0  0  0  0  0  0  0  0  0  0  0
   -3.6434   -3.3779   -0.1367 H   0  0  0  0  0  0  0  0  0  0  0  0
   -1.8133   -2.5182    0.6019 C   0  0  0  0  0  0  0  0  0  0  0  0
   -0.8709   -3.0620    1.1463 O   0  0  0  0  0  0  0  0  0  0  0  0
   -1.5824   -1.4318   -0.2232 N   0  0  0  0  0  0  0  0  0  0  0  0
   -2.4049   -0.9544   -0.5786 H   0  0  0  0  0  0  0  0  0  0  0  0
   -0.2707   -0.7532   -0.2929 C   0  0  1  0  0  0  0  0  0  0  0  0
    0.4688   -1.5266   -0.5330 H   0  0  0  0  0  0  0  0  0  0  0  0
   -0.2106    0.2981   -1.4126 C   0  0  0  0  0  0  0  0  0  0  0  0
   -0.9549    1.0772   -1.2182 H   0  0  0  0  0  0  0  0  0  0  0  0
    0.7723    0.7845   -1.4082 H   0  0  0  0  0  0  0  0  0  0  0  0
   -0.4520   -0.3265   -2.7646 C   0  0  0  0  0  0  0  0  0  0  0  0
    0.4770   -1.1037   -3.4591 N   0  3  0  0  0  0  0  0  0  0  0  0
    1.3925   -1.3556   -3.0734 H   0  0  0  0  0  0  0  0  0  0  0  0
   -0.0015   -1.4495   -4.6292 C   0  0  0  0  0  0  0  0  0  0  0  0
    0.5029   -2.0623   -5.3795 H   0  0  0  0  0  0  0  0  0  0  0  0
   -1.2702   -0.8834   -4.7378 N   0  0  0  0  0  0  0  0  0  0  0  0
   -1.8887   -0.9598   -5.5516 H   0  0  0  0  0  0  0  0  0  0  0  0
   -1.5474   -0.1686   -3.5770 C   0  0  0  0  0  0  0  0  0  0  0  0
   -2.4409    0.4173   -3.3610 H   0  0  0  0  0  0  0  0  0  0  0  0
    0.2344   -0.1451    1.0300 C   0  0  0  0  0  0  0  0  0  0  0  0
    1.4421   -0.0390    1.1798 O   0  0  0  0  0  0  0  0  0  0  0  0
   -0.6144    0.5857    1.8423 N   0  0  0  0  0  0  0  0  0  0  0  0
   -1.6092    0.4121    1.7420 H   0  0  0  0  0  0  0  0  0  0  0  0
   -0.1499    1.2633    3.0503 C   0  0  0  0  0  0  0  0  0  0  0  0
    0.6154    2.0075    2.8043 H   0  0  0  0  0  0  0  0  0  0  0  0
   -0.9810    1.7773    3.5433 H   0  0  0  0  0  0  0  0  0  0  0  0
    0.2781    0.5418    3.7550 H   0  0  0  0  0  0  0  0  0  0  0  0
  1  2  1  0  0  0  0
  2  3  1  0  0  0  0
  2  4  1  0  0  0  0
  2  5  1  0  0  0  0
  5  6  2  0  0  0  0
  5  7  1  0  0  0  0
  7  8  1  0  0  0  0
  7  9  1  0  0  0  0
  9 10  1  0  0  0  0
  9 11  1  0  0  0  0
  9 23  1  0  0  0  0
 11 12  1  0  0  0  0
 11 13  1  0  0  0  0
 11 14  1  0  0  0  0
 14 15  1  0  0  0  0
 14 21  2  0  0  0  0
 15 16  1  0  0  0  0
 15 17  2  0  0  0  0
 17 18  1  0  0  0  0
 17 19  1  0  0  0  0
 19 20  1  0  0  0  0
 19 21  1  0  0  0  0
 21 22  1  0  0  0  0
 23 24  2  0  0  0  0
 23 25  1  0  0  0  0
 25 26  1  0  0  0  0
 25 27  1  0  0  0  0
 27 28  1  0  0  0  0
 27 29  1  0  0  0  0
 27 30  1  0  0  0  0
M  CHG  1  15   1
M  END
$$$$

  -OEChem-04042216003D

 30 30  0     1  0  0  0  0  0999 V2000
   -3.2035   -3.8832    1.4861 H   0  0  0  0  0  0  0  0  0  0  0  0
   -3.2184   -3.0257    0.8065 C   0  0  0  0  0  0  0  0  0  0  0  0
   -3.8407   -2.2431    1.2469 H   0  0  0  0  0  0  0  0  0  0  0  0
   -3.6548   -3.3405   -0.1442 H   0  0  0  0  0  0  0  0  0  0  0  0
   -1.8080   -2.5126    0.5896 C   0  0  0  0  0  0  0  0  0  0  0  0
   -0.8648   -3.0679    1.1210 O   0  0  0  0  0  0  0  0  0  0  0  0
   -1.5720   -1.4261   -0.2339 N   0  0  0  0  0  0  0  0  0  0  0  0
   -2.3929   -0.9454   -0.5907 H   0  0  0  0  0  0  0  0  0  0  0  0
   -0.2594   -0.7484   -0.2952 C   0  0  1  0  0  0  0  0  0  0  0  0
    0.4842   -1.5186   -0.5308 H   0  0  0  0  0  0  0  0  0  0  0  0
   -0.2027    0.3055   -1.4127 C   0  0  0  0  0  0  0  0  0  0  0  0
   -0.9407    1.0904   -1.2160 H   0  0  0  0  0  0  0  0  0  0  0  0
    0.7852    0.7824   -1.4083 H   0  0  0  0  0  0  0  0  0  0  0  0
   -0.4429   -0.3149   -2.7683 C   0  0  0  0  0  0  0  0  0  0  0  0
    0.3385   -1.3165   -3.3492 N   0  3  0  0  0  0  0  0  0  0  0  0
    1.1417   -1.7424   -2.8761 H   0  0  0  0  0  0  0  0  0  0  0  0
   -0.1055   -1.6038   -4.5485 C   0  0  0  0  0  0  0  0  0  0  0  0
    0.3110   -2.3466   -5.2322 H   0  0  0  0  0  0  0  0  0  0  0  0
   -1.2024   -0.7792   -4.7895 N   0  0  0  0  0  0  0  0  0  0  0  0
   -1.7514   -0.7555   -5.6548 H   0  0  0  0  0  0  0  0  0  0  0  0
   -1.4089    0.0333   -3.6795 C   0  0  0  0  0  0  0  0  0  0  0  0
   -2.1685    0.8063   -3.5603 H   0  0  0  0  0  0  0  0  0  0  0  0
    0.2343   -0.1424    1.0330 C   0  0  0  0  0  0  0  0  0  0  0  0
    1.4406   -0.0481    1.1998 O   0  0  0  0  0  0  0  0  0  0  0  0
   -0.6210    0.5874    1.8393 N   0  0  0  0  0  0  0  0  0  0  0  0
   -1.6156    0.4226    1.7232 H   0  0  0  0  0  0  0  0  0  0  0  0
   -0.1684    1.2545    3.0578 C   0  0  0  0  0  0  0  0  0  0  0  0
    0.6279    1.9724    2.8320 H   0  0  0  0  0  0  0  0  0  0  0  0
   -0.9952    1.7979    3.5253 H   0  0  0  0  0  0  0  0  0  0  0  0
    0.2157    0.5220    3.7764 H   0  0  0  0  0  0  0  0  0  0  0  0
  1  2  1  0  0  0  0
  2  3  1  0  0  0  0
  2  4  1  0  0  0  0
  2  5  1  0  0  0  0
  5  6  2  0  0  0  0
  5  7  1  0  0  0  0
  7  8  1  0  0  0  0
  7  9  1  0  0  0  0
  9 10  1  0  0  0  0
  9 11  1  0  0  0  0
  9 23  1  0  0  0  0
 11 12  1  0  0  0  0
 11 13  1  0  0  0  0
 11 14  1  0  0  0  0
 14 15  1  0  0  0  0
 14 21  2  0  0  0  0
 15 16  1  0  0  0  0
 15 17  2  0  0  0  0
 17 18  1  0  0  0  0
 17 19  1  0  0  0  0
 19 20  1  0  0  0  0
 19 21  1  0  0  0  0
 21 22  1  0  0  0  0
 23 24  2  0  0  0  0
 23 25  1  0  0  0  0
 25 26  1  0  0  0  0
 25 27  1  0  0  0  0
 27 28  1  0  0  0  0
 27 29  1  0  0  0  0
 27 30  1  0  0  0  0
M  CHG  1  15   1
M  END
$$$$

  -OEChem-04042216003D

 30 30  0     1  0  0  0  0  0999 V2000
   -3.2111   -3.8583    1.5015 H   0  0  0  0  0  0  0  0  0  0  0  0
   -3.2216   -3.0068    0.8144 C   0  0  0  0  0  0  0  0  0  0  0  0
   -3.8268   -2.2112    1.2553 H   0  0  0  0  0  0  0  0  0  0  0  0
   -3.6743   -3.3231   -0.1281 H   0  0  0  0  0  0  0  0  0  0  0  0
   -1.8064   -2.5173    0.5756 C   0  0  0  0  0  0  0  0  0  0  0  0
   -0.8618   -3.0979    1.0766 O   0  0  0  0  0  0  0  0  0  0  0  0
   -1.5656   -1.4305   -0.2455 N   0  0  0  0  0  0  0  0  0  0  0  0
   -2.3863   -0.9310   -0.5771 H   0  0  0  0  0  0  0  0  0  0  0  0
   -0.2524   -0.7528   -0.2941 C   0  0  1  0  0  0  0  0  0  0  0  0
    0.4968   -1.5199   -0.5202 H   0  0  0  0  0  0  0  0  0  0  0  0
   -0.1946    0.3003   -1.4121 C   0  0  0  0  0  0  0  0  0  0  0  0
   -0.9291    1.0891   -1.2190 H   0  0  0  0  0  0  0  0  0  0  0  0
    0.7963    0.7707   -1.4026 H   0  0  0  0  0  0  0  0  0  0  0  0
   -0.4258   -0.3136   -2.7732 C   0  0  0  0  0  0  0  0  0  0  0  0
    0.1524   -1.4918   -3.2533 N   0  3  0  0  0  0  0  0  0  0  0  0
    0.7928   -2.0662   -2.6963 H   0  0  0  0  0  0  0  0  0  0  0  0
   -0.2361   -1.7224   -4.4836 C   0  0  0  0  0  0  0  0  0  0  0  0
    0.0621   -2.5665   -5.1093 H   0  0  0  0  0  0  0  0  0  0  0  0
   -1.0941   -0.6855   -4.8449 N   0  0  0  0  0  0  0  0  0  0  0  0
   -1.5457   -0.5760   -5.7584 H   0  0  0  0  0  0  0  0  0  0  0  0
   -1.2109    0.1971   -3.7767 C   0  0  0  0  0  0  0  0  0  0  0  0
   -1.7904    1.1203   -3.7434 H   0  0  0  0  0  0  0  0  0  0  0  0
    0.2291   -0.1473    1.0392 C   0  0  0  0  0  0  0  0  0  0  0  0
    1.4334   -0.0574    1.2199 O   0  0  0  0  0  0  0  0  0  0  0  0
   -0.6317    0.5825    1.8395 N   0  0  0  0  0  0  0  0  0  0  0  0
   -1.6266    0.4321    1.7087 H   0  0  0  0  0  0  0  0  0  0  0  0
   -0.1862    1.2565    3.0569 C   0  0  0  0  0  0  0  0  0  0  0  0
    0.5662    2.0172    2.8219 H   0  0  0  0  0  0  0  0  0  0  0  0
   -1.0287    1.7496    3.5518 H   0  0  0  0  0  0  0  0  0  0  0  0
    0.2522    0.5363    3.7565 H   0  0  0  0  0  0  0  0  0  0  0  0
  1  2  1  0  0  0  0
  2  3  1  0  0  0  0
  2  4  1  0  0  0  0
  2  5  1  0  0  0  0
  5  6  2  0  0  0  0
  5  7  1  0  0  0  0
  7  8  1  0  0  0  0
  7  9  1  0  0  0  0
  9 10  1  0  0  0  0
  9 11  1  0  0  0  0
  9 23  1  0  0  0  0
 11 12  1  0  0  0  0
 11 13  1  0  0  0  0
 11 14  1  0  0  0  0
 14 15  1  0  0  0  0
 14 21  2  0  0  0  0
 15 16  1  0  0  0  0
 15 17  2  0  0  0  0
 17 18  1  0  0  0  0
 17 19  1  0  0  0  0
 19 20  1  0  0  0  0
 19 21  1  0  0  0  0
 21 22  1  0  0  0  0
 23 24  2  0  0  0  0
 23 25  1  0  0  0  0
 25 26  1  0  0  0  0
 25 27  1  0  0  0  0
 27 28  1  0  0  0  0
 27 29  1  0  0  0  0
 27 30  1  0  0  0  0
M  CHG  1  15   1
M  END
$$$$

  -OEChem-04042216003D

 30 30  0     1  0  0  0  0  0999 V2000
   -3.1888   -3.8501    1.5270 H   0  0  0  0  0  0  0  0  0  0  0  0
   -3.2084   -2.9831    0.8597 C   0  0  0  0  0  0  0  0  0  0  0  0
   -3.7708   -2.1825    1.3460 H   0  0  0  0  0  0  0  0  0  0  0  0
   -3.7132   -3.2660   -0.0670 H   0  0  0  0  0  0  0  0  0  0  0  0
   -1.7934   -2.5240    0.5660 C   0  0  0  0  0  0  0  0  0  0  0  0
   -0.8417   -3.1367    1.0120 O   0  0  0  0  0  0  0  0  0  0  0  0
   -1.5587   -1.4378   -0.2578 N   0  0  0  0  0  0  0  0  0  0  0  0
   -2.3834   -0.9156   -0.5428 H   0  0  0  0  0  0  0  0  0  0  0  0
   -0.2466   -0.7564   -0.2992 C   0  0  1  0  0  0  0  0  0  0  0  0
    0.5114   -1.5171   -0.5188 H   0  0  0  0  0  0  0  0  0  0  0  0
   -0.1910    0.2936   -1.4200 C   0  0  0  0  0  0  0  0  0  0  0  0
   -0.9272    1.0819   -1.2313 H   0  0  0  0  0  0  0  0  0  0  0  0
    0.7998    0.7640   -1.4064 H   0  0  0  0  0  0  0  0  0  0  0  0
   -0.4140   -0.3176   -2.7852 C   0  0  0  0  0  0  0  0  0  0  0  0
   -0.0815   -1.6159   -3.1836 N   0  3  0  0  0  0  0  0  0  0  0  0
    0.3478   -2.2995   -2.5517 H   0  0  0  0  0  0  0  0  0  0  0  0
   -0.3924   -1.8016   -4.4433 C   0  0  0  0  0  0  0  0  0  0  0  0
   -0.2372   -2.7159   -5.0202 H   0  0  0  0  0  0  0  0  0  0  0  0
   -0.9510   -0.6128   -4.9081 N   0  0  0  0  0  0  0  0  0  0  0  0
   -1.2772   -0.4405   -5.8644 H   0  0  0  0  0  0  0  0  0  0  0  0
   -0.9643    0.3149   -3.8721 C   0  0  0  0  0  0  0  0  0  0  0  0
   -1.3202    1.3452   -3.9122 H   0  0  0  0  0  0  0  0  0  0  0  0
    0.2208   -0.1493    1.0387 C   0  0  0  0  0  0  0  0  0  0  0  0
    1.4221   -0.0705    1.2412 O   0  0  0  0  0  0  0  0  0  0  0  0
   -0.6496    0.5780    1.8315 N   0  0  0  0  0  0  0  0  0  0  0  0
   -1.6436    0.4461    1.6771 H   0  0  0  0  0  0  0  0  0  0  0  0
   -0.2207    1.2488    3.0565 C   0  0  0  0  0  0  0  0  0  0  0  0
    0.5670    1.9792    2.8409 H   0  0  0  0  0  0  0  0  0  0  0  0
   -1.0610    1.7784    3.5162 H   0  0  0  0  0  0  0  0  0  0  0  0
    0.1662    0.5205    3.7777 H   0  0  0  0  0  0  0  0  0  0  0  0
  1  2  1  0  0  0  0
  2  3  1  0  0  0  0
  2  4  1  0  0  0  0
  2  5  1  0  0  0  0
  5  6  2  0  0  0  0
  5  7  1  0  0  0  0
  7  8  1  0  0  0  0
  7  9  1  0  0  0  0
  9 10  1  0  0  0  0
  9 11  1  0  0  0  0
  9 23  1  0  0  0  0
 11 12  1  0  0  0  0
 11 13  1  0  0  0  0
 11 14  1  0  0  0  0
 14 15  1  0  0  0  0
 14 21  2  0  0  0  0
 15 16  1  0  0  0  0
 15 17  2  0  0  0  0
 17 18  1  0  0  0  0
 17 19  1  0  0  0  0
 19 20  1  0  0  0  0
 19 21  1  0  0  0  0
 21 22  1  0  0  0  0
 23 24  2  0  0  0  0
 23 25  1  0  0  0  0
 25 26  1  0  0  0  0
 25 27  1  0  0  0  0
 27 28  1  0  0  0  0
 27 29  1  0  0  0  0
 27 30  1  0  0  0  0
M  CHG  1  15   1
M  END
$$$$

  -OEChem-04042216003D

 30 30  0     1  0  0  0  0  0999 V2000
   -3.1691   -3.8353    1.5621 H   0  0  0  0  0  0  0  0  0  0  0  0
   -3.1996   -2.9636    0.9014 C   0  0  0  0  0  0  0  0  0  0  0  0
   -3.7259   -2.1560    1.4156 H   0  0  0  0  0  0  0  0  0  0  0  0
   -3.7484   -3.2305   -0.0047 H   0  0  0  0  0  0  0  0  0  0  0  0
   -1.7893   -2.5294    0.5518 C   0  0  0  0  0  0  0  0  0  0  0  0
   -0.8319   -3.1757    0.9324 O   0  0  0  0  0  0  0  0  0  0  0  0
   -1.5654   -1.4388   -0.2693 N   0  0  0  0  0  0  0  0  0  0  0  0
   -2.3937   -0.8948   -0.5000 H   0  0  0  0  0  0  0  0  0  0  0  0
   -0.2539   -0.7526   -0.3064 C   0  0  1  0  0  0  0  0  0  0  0  0
    0.5095   -1.5080   -0.5287 H   0  0  0  0  0  0  0  0  0  0  0  0
   -0.1983    0.2952   -1.4291 C   0  0  0  0  0  0  0  0  0  0  0  0
   -0.9422    1.0779   -1.2467 H   0  0  0  0  0  0  0  0  0  0  0  0
    0.7890    0.7732   -1.4113 H   0  0  0  0  0  0  0  0  0  0  0  0
   -0.4137   -0.3190   -2.7950 C   0  0  0  0  0  0  0  0  0  0  0  0
   -0.3528   -1.6765   -3.1249 N   0  3  0  0  0  0  0  0  0  0  0  0
   -0.1669   -2.4073   -2.4299 H   0  0  0  0  0  0  0  0  0  0  0  0
   -0.5621   -1.8463   -4.4075 C   0  0  0  0  0  0  0  0  0  0  0  0
   -0.5642   -2.7979   -4.9431 H   0  0  0  0  0  0  0  0  0  0  0  0
   -0.7753   -0.5844   -4.9586 N   0  0  0  0  0  0  0  0  0  0  0  0
   -0.9494   -0.3873   -5.9493 H   0  0  0  0  0  0  0  0  0  0  0  0
   -0.6824    0.3699   -3.9512 C   0  0  0  0  0  0  0  0  0  0  0  0
   -0.7826    1.4511   -4.0537 H   0  0  0  0  0  0  0  0  0  0  0  0
    0.2108   -0.1501    1.0348 C   0  0  0  0  0  0  0  0  0  0  0  0
    1.4105   -0.0780    1.2470 O   0  0  0  0  0  0  0  0  0  0  0  0
   -0.6619    0.5711    1.8306 N   0  0  0  0  0  0  0  0  0  0  0  0
   -1.6556    0.4633    1.6581 H   0  0  0  0  0  0  0  0  0  0  0  0
   -0.2371    1.2398    3.0583 C   0  0  0  0  0  0  0  0  0  0  0  0
    0.5293    1.9923    2.8419 H   0  0  0  0  0  0  0  0  0  0  0  0
   -1.0856    1.7419    3.5336 H   0  0  0  0  0  0  0  0  0  0  0  0
    0.1766    0.5140    3.7674 H   0  0  0  0  0  0  0  0  0  0  0  0
  1  2  1  0  0  0  0
  2  3  1  0  0  0  0
  2  4  1  0  0  0  0
  2  5  1  0  0  0  0
  5  6  2  0  0  0  0
  5  7  1  0  0  0  0
  7  8  1  0  0  0  0
  7  9  1  0  0  0  0
  9 10  1  0  0  0  0
  9 11  1  0  0  0  0
  9 23  1  0  0  0  0
 11 12  1  0  0  0  0
 11 13  1  0  0  0  0
 11 14  1  0  0  0  0
 14 15  1  0  0  0  0
 14 21  2  0  0  0  0
 15 16  1  0  0  0  0
 15 17  2  0  0  0  0
 17 18  1  0  0  0  0
 17 19  1  0  0  0  0
 19 20  1  0  0  0  0
 19 21  1  0  0  0  0
 21 22  1  0  0  0  0
 23 24  2  0  0  0  0
 23 25  1  0  0  0  0
 25 26  1  0  0  0  0
 25 27  1  0  0  0  0
 27 28  1  0  0  0  0
 27 29  1  0  0  0  0
 27 30  1  0  0  0  0
M  CHG  1  15   1
M  END
$$$$

  -OEChem-04042216003D

 30 30  0     1  0  0  0  0  0999 V2000
   -3.1490   -3.8346    1.5884 H   0  0  0  0  0  0  0  0  0  0  0  0
   -3.1907   -2.9474    0.9492 C   0  0  0  0  0  0  0  0  0  0  0  0
   -3.6766   -2.1418    1.5048 H   0  0  0  0  0  0  0  0  0  0  0  0
   -3.7854   -3.1824    0.0635 H   0  0  0  0  0  0  0  0  0  0  0  0
   -1.7886   -2.5332    0.5467 C   0  0  0  0  0  0  0  0  0  0  0  0
   -0.8279   -3.2012    0.8764 O   0  0  0  0  0  0  0  0  0  0  0  0
   -1.5793   -1.4397   -0.2748 N   0  0  0  0  0  0  0  0  0  0  0  0
   -2.4095   -0.8783   -0.4528 H   0  0  0  0  0  0  0  0  0  0  0  0
   -0.2686   -0.7483   -0.3159 C   0  0  1  0  0  0  0  0  0  0  0  0
    0.4959   -1.5018   -0.5446 H   0  0  0  0  0  0  0  0  0  0  0  0
   -0.2130    0.2978   -1.4417 C   0  0  0  0  0  0  0  0  0  0  0  0
   -0.9670    1.0711   -1.2618 H   0  0  0  0  0  0  0  0  0  0  0  0
    0.7685    0.7872   -1.4205 H   0  0  0  0  0  0  0  0  0  0  0  0
   -0.4236   -0.3153   -2.8094 C   0  0  0  0  0  0  0  0  0  0  0  0
   -0.6476   -1.6632   -3.1024 N   0  3  0  0  0  0  0  0  0  0  0  0
   -0.6939   -2.3830   -2.3727 H   0  0  0  0  0  0  0  0  0  0  0  0
   -0.7381   -1.8435   -4.3972 C   0  0  0  0  0  0  0  0  0  0  0  0
   -0.8927   -2.7949   -4.9102 H   0  0  0  0  0  0  0  0  0  0  0  0
   -0.5876   -0.5939   -4.9953 N   0  0  0  0  0  0  0  0  0  0  0  0
   -0.5942   -0.4097   -6.0036 H   0  0  0  0  0  0  0  0  0  0  0  0
   -0.3868    0.3602   -4.0034 C   0  0  0  0  0  0  0  0  0  0  0  0
   -0.2144    1.4289   -4.1385 H   0  0  0  0  0  0  0  0  0  0  0  0
    0.1989   -0.1488    1.0258 C   0  0  0  0  0  0  0  0  0  0  0  0
    1.3983   -0.0787    1.2386 O   0  0  0  0  0  0  0  0  0  0  0  0
   -0.6728    0.5670    1.8281 N   0  0  0  0  0  0  0  0  0  0  0  0
   -1.6669    0.4677    1.6534 H   0  0  0  0  0  0  0  0  0  0  0  0
   -0.2457    1.2286    3.0589 C   0  0  0  0  0  0  0  0  0  0  0  0
    0.5249    1.9777    2.8462 H   0  0  0  0  0  0  0  0  0  0  0  0
   -1.0920    1.7336    3.5350 H   0  0  0  0  0  0  0  0  0  0  0  0
    0.1634    0.4982    3.7658 H   0  0  0  0  0  0  0  0  0  0  0  0
  1  2  1  0  0  0  0
  2  3  1  0  0  0  0
  2  4  1  0  0  0  0
  2  5  1  0  0  0  0
  5  6  2  0  0  0  0
  5  7  1  0  0  0  0
  7  8  1  0  0  0  0
  7  9  1  0  0  0  0
  9 10  1  0  0  0  0
  9 11  1  0  0  0  0
  9 23  1  0  0  0  0
 11 12  1  0  0  0  0
 11 13  1  0  0  0  0
 11 14  1  0  0  0  0
 14 15  1  0  0  0  0
 14 21  2  0  0  0  0
 15 16  1  0  0  0  0
 15 17  2  0  0  0  0
 17 18  1  0  0  0  0
 17 19  1  0  0  0  0
 19 20  1  0  0  0  0
 19 21  1  0  0  0  0
 21 22  1  0  0  0  0
 23 24  2  0  0  0  0
 23 25  1  0  0  0  0
 25 26  1  0  0  0  0
 25 27  1  0  0  0  0
 27 28  1  0  0  0  0
 27 29  1  0  0  0  0
 27 30  1  0  0  0  0
M  CHG  1  15   1
M  END
$$$$

  -OEChem-04042216003D

 30 30  0     1  0  0  0  0  0999 V2000
   -3.1361   -3.8231    1.6391 H   0  0  0  0  0  0  0  0  0  0  0  0
   -3.1891   -2.9420    0.9919 C   0  0  0  0  0  0  0  0  0  0  0  0
   -3.6580   -2.1288    1.5511 H   0  0  0  0  0  0  0  0  0  0  0  0
   -3.8057   -3.1833    0.1230 H   0  0  0  0  0  0  0  0  0  0  0  0
   -1.7948   -2.5386    0.5525 C   0  0  0  0  0  0  0  0  0  0  0  0
   -0.8322   -3.2121    0.8632 O   0  0  0  0  0  0  0  0  0  0  0  0
   -1.5995   -1.4451   -0.2742 N   0  0  0  0  0  0  0  0  0  0  0  0
   -2.4295   -0.8708   -0.4076 H   0  0  0  0  0  0  0  0  0  0  0  0
   -0.2873   -0.7530   -0.3224 C   0  0  1  0  0  0  0  0  0  0  0  0
    0.4724   -1.5105   -0.5564 H   0  0  0  0  0  0  0  0  0  0  0  0
   -0.2209    0.2926   -1.4497 C   0  0  0  0  0  0  0  0  0  0  0  0
   -0.9790    1.0623   -1.2725 H   0  0  0  0  0  0  0  0  0  0  0  0
    0.7578    0.7869   -1.4203 H   0  0  0  0  0  0  0  0  0  0  0  0
   -0.4271   -0.3111   -2.8224 C   0  0  0  0  0  0  0  0  0  0  0  0
   -0.9357   -1.5758   -3.1248 N   0  3  0  0  0  0  0  0  0  0  0  0
   -1.1914   -2.2485   -2.3941 H   0  0  0  0  0  0  0  0  0  0  0  0
   -0.9184   -1.7825   -4.4190 C   0  0  0  0  0  0  0  0  0  0  0  0
   -1.2253   -2.6946   -4.9351 H   0  0  0  0  0  0  0  0  0  0  0  0
   -0.4131   -0.6265   -5.0100 N   0  0  0  0  0  0  0  0  0  0  0  0
   -0.2632   -0.4853   -6.0140 H   0  0  0  0  0  0  0  0  0  0  0  0
   -0.0961    0.2882   -4.0118 C   0  0  0  0  0  0  0  0  0  0  0  0
    0.3438    1.2785   -4.1379 H   0  0  0  0  0  0  0  0  0  0  0  0
    0.1879   -0.1535    1.0171 C   0  0  0  0  0  0  0  0  0  0  0  0
    1.3885   -0.0795    1.2219 O   0  0  0  0  0  0  0  0  0  0  0  0
   -0.6785    0.5626    1.8251 N   0  0  0  0  0  0  0  0  0  0  0  0
   -1.6737    0.4696    1.6544 H   0  0  0  0  0  0  0  0  0  0  0  0
   -0.2428    1.2286    3.0507 C   0  0  0  0  0  0  0  0  0  0  0  0
    0.5217    1.9815    2.8292 H   0  0  0  0  0  0  0  0  0  0  0  0
   -1.0872    1.7298    3.5345 H   0  0  0  0  0  0  0  0  0  0  0  0
    0.1768    0.5013    3.7548 H   0  0  0  0  0  0  0  0  0  0  0  0
  1  2  1  0  0  0  0
  2  3  1  0  0  0  0
  2  4  1  0  0  0  0
  2  5  1  0  0  0  0
  5  6  2  0  0  0  0
  5  7  1  0  0  0  0
  7  8  1  0  0  0  0
  7  9  1  0  0  0  0
  9 10  1  0  0  0  0
  9 11  1  0  0  0  0
  9 23  1  0  0  0  0
 11 12  1  0  0  0  0
 11 13  1  0  0  0  0
 11 14  1  0  0  0  0
 14 15  1  0  0  0  0
 14 21  2  0  0  0  0
 15 16  1  0  0  0  0
 15 17  2  0  0  0  0
 17 18  1  0  0  0  0
 17 19  1  0  0  0  0
 19 20  1  0  0  0  0
 19 21  1  0  0  0  0
 21 22  1  0  0  0  0
 23 24  2  0  0  0  0
 23 25  1  0  0  0  0
 25 26  1  0  0  0  0
 25 27  1  0  0  0  0
 27 28  1  0  0  0  0
 27 29  1  0  0  0  0
 27 30  1  0  0  0  0
M  CHG  1  15   1
M  END
$$$$

  -OEChem-04042216003D

 30 30  0     1  0  0  0  0  0999 V2000
   -3.1359   -3.8105    1.6606 H   0  0  0  0  0  0  0  0  0  0  0  0
   -3.1934   -2.9385    1.0018 C   0  0  0  0  0  0  0  0  0  0  0  0
   -3.6647   -2.1197    1.5505 H   0  0  0  0  0  0  0  0  0  0  0  0
   -3.8106   -3.1942    0.1374 H   0  0  0  0  0  0  0  0  0  0  0  0
   -1.8010   -2.5364    0.5545 C   0  0  0  0  0  0  0  0  0  0  0  0
   -0.8372   -3.2028    0.8760 O   0  0  0  0  0  0  0  0  0  0  0  0
   -1.6136   -1.4416   -0.2735 N   0  0  0  0  0  0  0  0  0  0  0  0
   -2.4407   -0.8565   -0.3725 H   0  0  0  0  0  0  0  0  0  0  0  0
   -0.2996   -0.7520   -0.3261 C   0  0  1  0  0  0  0  0  0  0  0  0
    0.4539   -1.5144   -0.5645 H   0  0  0  0  0  0  0  0  0  0  0  0
   -0.2241    0.2922   -1.4544 C   0  0  0  0  0  0  0  0  0  0  0  0
   -0.9824    1.0626   -1.2798 H   0  0  0  0  0  0  0  0  0  0  0  0
    0.7546    0.7865   -1.4193 H   0  0  0  0  0  0  0  0  0  0  0  0
   -0.4282   -0.3092   -2.8282 C   0  0  0  0  0  0  0  0  0  0  0  0
   -1.1900   -1.4279   -3.1679 N   0  3  0  0  0  0  0  0  0  0  0  0
   -1.6352   -2.0165   -2.4573 H   0  0  0  0  0  0  0  0  0  0  0  0
   -1.0873   -1.6835   -4.4496 C   0  0  0  0  0  0  0  0  0  0  0  0
   -1.5360   -2.5242   -4.9826 H   0  0  0  0  0  0  0  0  0  0  0  0
   -0.2716   -0.6973   -4.9993 N   0  0  0  0  0  0  0  0  0  0  0  0
    0.0102   -0.6339   -5.9828 H   0  0  0  0  0  0  0  0  0  0  0  0
    0.1505    0.1533   -3.9840 C   0  0  0  0  0  0  0  0  0  0  0  0
    0.8203    1.0095   -4.0752 H   0  0  0  0  0  0  0  0  0  0  0  0
    0.1854   -0.1552    1.0114 C   0  0  0  0  0  0  0  0  0  0  0  0
    1.3876   -0.0786    1.2058 O   0  0  0  0  0  0  0  0  0  0  0  0
   -0.6745    0.5620    1.8255 N   0  0  0  0  0  0  0  0  0  0  0  0
   -1.6710    0.4668    1.6650 H   0  0  0  0  0  0  0  0  0  0  0  0
   -0.2279    1.2265    3.0479 C   0  0  0  0  0  0  0  0  0  0  0  0
    0.5229    1.9908    2.8187 H   0  0  0  0  0  0  0  0  0  0  0  0
   -1.0708    1.7133    3.5486 H   0  0  0  0  0  0  0  0  0  0  0  0
    0.2129    0.5012    3.7408 H   0  0  0  0  0  0  0  0  0  0  0  0
  1  2  1  0  0  0  0
  2  3  1  0  0  0  0
  2  4  1  0  0  0  0
  2  5  1  0  0  0  0
  5  6  2  0  0  0  0
  5  7  1  0  0  0  0
  7  8  1  0  0  0  0
  7  9  1  0  0  0  0
  9 10  1  0  0  0  0
  9 11  1  0  0  0  0
  9 23  1  0  0  0  0
 11 12  1  0  0  0  0
 11 13  1  0  0  0  0
 11 14  1  0  0  0  0
 14 15  1  0  0  0  0
 14 21  2  0  0  0  0
 15 16  1  0  0  0  0
 15 17  2  0  0  0  0
 17 18  1  0  0  0  0
 17 19  1  0  0  0  0
 19 20  1  0  0  0  0
 19 21  1  0  0  0  0
 21 22  1  0  0  0  0
 23 24  2  0  0  0  0
 23 25  1  0  0  0  0
 25 26  1  0  0  0  0
 25 27  1  0  0  0  0
 27 28  1  0  0  0  0
 27 29  1  0  0  0  0
 27 30  1  0  0  0  0
M  CHG  1  15   1
M  END
$$$$

  -OEChem-04042216003D

 30 30  0     1  0  0  0  0  0999 V2000
   -3.1379   -3.8056    1.6616 H   0  0  0  0  0  0  0  0  0  0  0  0
   -3.1989   -2.9388    0.9963 C   0  0  0  0  0  0  0  0  0  0  0  0
   -3.6780   -2.1197    1.5376 H   0  0  0  0  0  0  0  0  0  0  0  0
   -3.8110   -3.2055    0.1317 H   0  0  0  0  0  0  0  0  0  0  0  0
   -1.8077   -2.5309    0.5503 C   0  0  0  0  0  0  0  0  0  0  0  0
   -0.8418   -3.1871    0.8870 O   0  0  0  0  0  0  0  0  0  0  0  0
   -1.6265   -1.4317   -0.2742 N   0  0  0  0  0  0  0  0  0  0  0  0
   -2.4514   -0.8407   -0.3464 H   0  0  0  0  0  0  0  0  0  0  0  0
   -0.3113   -0.7448   -0.3280 C   0  0  1  0  0  0  0  0  0  0  0  0
    0.4357   -1.5130   -0.5687 H   0  0  0  0  0  0  0  0  0  0  0  0
   -0.2247    0.2954   -1.4580 C   0  0  0  0  0  0  0  0  0  0  0  0
   -0.9782    1.0719   -1.2917 H   0  0  0  0  0  0  0  0  0  0  0  0
    0.7567    0.7838   -1.4172 H   0  0  0  0  0  0  0  0  0  0  0  0
   -0.4246   -0.3128   -2.8289 C   0  0  0  0  0  0  0  0  0  0  0  0
   -1.3905   -1.2357   -3.2316 N   0  3  0  0  0  0  0  0  0  0  0  0
   -2.0194   -1.6910   -2.5655 H   0  0  0  0  0  0  0  0  0  0  0  0
   -1.2254   -1.5532   -4.4931 C   0  0  0  0  0  0  0  0  0  0  0  0
   -1.8011   -2.2883   -5.0593 H   0  0  0  0  0  0  0  0  0  0  0  0
   -0.1557   -0.7994   -4.9693 N   0  0  0  0  0  0  0  0  0  0  0  0
    0.2246   -0.8338   -5.9205 H   0  0  0  0  0  0  0  0  0  0  0  0
    0.3509   -0.0330   -3.9270 C   0  0  0  0  0  0  0  0  0  0  0  0
    1.2018    0.6490   -3.9620 H   0  0  0  0  0  0  0  0  0  0  0  0
    0.1851   -0.1548    1.0083 C   0  0  0  0  0  0  0  0  0  0  0  0
    1.3893   -0.0735    1.1894 O   0  0  0  0  0  0  0  0  0  0  0  0
   -0.6666    0.5620    1.8314 N   0  0  0  0  0  0  0  0  0  0  0  0
   -1.6646    0.4606    1.6850 H   0  0  0  0  0  0  0  0  0  0  0  0
   -0.2078    1.2216    3.0521 C   0  0  0  0  0  0  0  0  0  0  0  0
    0.5507    1.9776    2.8205 H   0  0  0  0  0  0  0  0  0  0  0  0
   -1.0433    1.7179    3.5558 H   0  0  0  0  0  0  0  0  0  0  0  0
    0.2273    0.4911    3.7432 H   0  0  0  0  0  0  0  0  0  0  0  0
  1  2  1  0  0  0  0
  2  3  1  0  0  0  0
  2  4  1  0  0  0  0
  2  5  1  0  0  0  0
  5  6  2  0  0  0  0
  5  7  1  0  0  0  0
  7  8  1  0  0  0  0
  7  9  1  0  0  0  0
  9 10  1  0  0  0  0
  9 11  1  0  0  0  0
  9 23  1  0  0  0  0
 11 12  1  0  0  0  0
 11 13  1  0  0  0  0
 11 14  1  0  0  0  0
 14 15  1  0  0  0  0
 14 21  2  0  0  0  0
 15 16  1  0  0  0  0
 15 17  2  0  0  0  0
 17 18  1  0  0  0  0
 17 19  1  0  0  0  0
 19 20  1  0  0  0  0
 19 21  1  0  0  0  0
 21 22  1  0  0  0  0
 23 24  2  0  0  0  0
 23 25  1  0  0  0  0
 25 26  1  0  0  0  0
 25 27  1  0  0  0  0
 27 28  1  0  0  0  0
 27 29  1  0  0  0  0
 27 30  1  0  0  0  0
M  CHG  1  15   1
M  END
$$$$

  -OEChem-04042216003D

 30 30  0     1  0  0  0  0  0999 V2000
   -3.1463   -3.8048    1.6561 H   0  0  0  0  0  0  0  0  0  0  0  0
   -3.2061   -2.9484    0.9775 C   0  0  0  0  0  0  0  0  0  0  0  0
   -3.7053   -2.1279    1.4982 H   0  0  0  0  0  0  0  0  0  0  0  0
   -3.7980   -3.2351    0.1052 H   0  0  0  0  0  0  0  0  0  0  0  0
   -1.8124   -2.5282    0.5510 C   0  0  0  0  0  0  0  0  0  0  0  0
   -0.8447   -3.1657    0.9181 O   0  0  0  0  0  0  0  0  0  0  0  0
   -1.6328   -1.4251   -0.2684 N   0  0  0  0  0  0  0  0  0  0  0  0
   -2.4595   -0.8394   -0.3445 H   0  0  0  0  0  0  0  0  0  0  0  0
   -0.3189   -0.7396   -0.3269 C   0  0  1  0  0  0  0  0  0  0  0  0
    0.4228   -1.5113   -0.5731 H   0  0  0  0  0  0  0  0  0  0  0  0
   -0.2297    0.3004   -1.4557 C   0  0  0  0  0  0  0  0  0  0  0  0
   -0.9740    1.0861   -1.2904 H   0  0  0  0  0  0  0  0  0  0  0  0
    0.7566    0.7790   -1.4156 H   0  0  0  0  0  0  0  0  0  0  0  0
   -0.4328   -0.3128   -2.8237 C   0  0  0  0  0  0  0  0  0  0  0  0
   -1.5409   -1.0039   -3.3172 N   0  3  0  0  0  0  0  0  0  0  0  0
   -2.3427   -1.2496   -2.7340 H   0  0  0  0  0  0  0  0  0  0  0  0
   -1.3268   -1.3922   -4.5517 C   0  0  0  0  0  0  0  0  0  0  0  0
   -2.0016   -1.9826   -5.1748 H   0  0  0  0  0  0  0  0  0  0  0  0
   -0.0656   -0.9287   -4.9162 N   0  0  0  0  0  0  0  0  0  0  0  0
    0.3906   -1.0806   -5.8215 H   0  0  0  0  0  0  0  0  0  0  0  0
    0.4939   -0.2591   -3.8357 C   0  0  0  0  0  0  0  0  0  0  0  0
    1.4778    0.2106   -3.7879 H   0  0  0  0  0  0  0  0  0  0  0  0
    0.1903   -0.1546    1.0065 C   0  0  0  0  0  0  0  0  0  0  0  0
    1.3966   -0.0645    1.1702 O   0  0  0  0  0  0  0  0  0  0  0  0
   -0.6538    0.5604    1.8389 N   0  0  0  0  0  0  0  0  0  0  0  0
   -1.6527    0.4387    1.7152 H   0  0  0  0  0  0  0  0  0  0  0  0
   -0.1814    1.2176    3.0557 C   0  0  0  0  0  0  0  0  0  0  0  0
    0.5783    1.9703    2.8175 H   0  0  0  0  0  0  0  0  0  0  0  0
   -1.0099    1.7176    3.5670 H   0  0  0  0  0  0  0  0  0  0  0  0
    0.2567    0.4851    3.7426 H   0  0  0  0  0  0  0  0  0  0  0  0
  1  2  1  0  0  0  0
  2  3  1  0  0  0  0
  2  4  1  0  0  0  0
  2  5  1  0  0  0  0
  5  6  2  0  0  0  0
  5  7  1  0  0  0  0
  7  8  1  0  0  0  0
  7  9  1  0  0  0  0
  9 10  1  0  0  0  0
  9 11  1  0  0  0  0
  9 23  1  0  0  0  0
 11 12  1  0  0  0  0
 11 13  1  0  0  0  0
 11 14  1  0  0  0  0
 14 15  1  0  0  0  0
 14 21  2  0  0  0  0
 15 16  1  0  0  0  0
 15 17  2  0  0  0  0
 17 18  1  0  0  0  0
 17 19  1  0  0  0  0
 19 20  1  0  0  0  0
 19 21  1  0  0  0  0
 21 22  1  0  0  0  0
 23 24  2  0  0  0  0
 23 25  1  0  0  0  0
 25 26  1  0  0  0  0
 25 27  1  0  0  0  0
 27 28  1  0  0  0  0
 27 29  1  0  0  0  0
 27 30  1  0  0  0  0
M  CHG  1  15   1
M  END
$$$$

  -OEChem-04042216003D

 30 30  0     1  0  0  0  0  0999 V2000
   -3.1482   -3.8562    1.5718 H   0  0  0  0  0  0  0  0  0  0  0  0
   -3.2047   -2.9735    0.9275 C   0  0  0  0  0  0  0  0  0  0  0  0
   -3.7307   -2.1824    1.4671 H   0  0  0  0  0  0  0  0  0  0  0  0
   -3.7682   -3.2337    0.0286 H   0  0  0  0  0  0  0  0  0  0  0  0
   -1.8076   -2.5162    0.5550 C   0  0  0  0  0  0  0  0  0  0  0  0
   -0.8390   -3.1279    0.9627 O   0  0  0  0  0  0  0  0  0  0  0  0
   -1.6248   -1.4107   -0.2600 N   0  0  0  0  0  0  0  0  0  0  0  0
   -2.4573   -0.8424   -0.3784 H   0  0  0  0  0  0  0  0  0  0  0  0
   -0.3123   -0.7263   -0.3263 C   0  0  1  0  0  0  0  0  0  0  0  0
    0.4252   -1.5001   -0.5778 H   0  0  0  0  0  0  0  0  0  0  0  0
   -0.2235    0.3188   -1.4507 C   0  0  0  0  0  0  0  0  0  0  0  0
   -0.9536    1.1163   -1.2807 H   0  0  0  0  0  0  0  0  0  0  0  0
    0.7698    0.7830   -1.4176 H   0  0  0  0  0  0  0  0  0  0  0  0
   -0.4377   -0.2991   -2.8140 C   0  0  0  0  0  0  0  0  0  0  0  0
   -1.6290   -0.7327   -3.3995 N   0  3  0  0  0  0  0  0  0  0  0  0
   -2.5316   -0.6911   -2.9239 H   0  0  0  0  0  0  0  0  0  0  0  0
   -1.4003   -1.2184   -4.5964 C   0  0  0  0  0  0  0  0  0  0  0  0
   -2.1399   -1.6413   -5.2792 H   0  0  0  0  0  0  0  0  0  0  0  0
   -0.0337   -1.1003   -4.8353 N   0  0  0  0  0  0  0  0  0  0  0  0
    0.4552   -1.4015   -5.6845 H   0  0  0  0  0  0  0  0  0  0  0  0
    0.5664   -0.5239   -3.7232 C   0  0  0  0  0  0  0  0  0  0  0  0
    1.6259   -0.3010   -3.5851 H   0  0  0  0  0  0  0  0  0  0  0  0
    0.2025   -0.1470    1.0073 C   0  0  0  0  0  0  0  0  0  0  0  0
    1.4095   -0.0486    1.1619 O   0  0  0  0  0  0  0  0  0  0  0  0
   -0.6414    0.5635    1.8436 N   0  0  0  0  0  0  0  0  0  0  0  0
   -1.6388    0.4194    1.7325 H   0  0  0  0  0  0  0  0  0  0  0  0
   -0.1698    1.2118    3.0654 C   0  0  0  0  0  0  0  0  0  0  0  0
    0.6169    1.9394    2.8376 H   0  0  0  0  0  0  0  0  0  0  0  0
   -0.9915    1.7406    3.5585 H   0  0  0  0  0  0  0  0  0  0  0  0
    0.2331    0.4694    3.7633 H   0  0  0  0  0  0  0  0  0  0  0  0
  1  2  1  0  0  0  0
  2  3  1  0  0  0  0
  2  4  1  0  0  0  0
  2  5  1  0  0  0  0
  5  6  2  0  0  0  0
  5  7  1  0  0  0  0
  7  8  1  0  0  0  0
  7  9  1  0  0  0  0
  9 10  1  0  0  0  0
  9 11  1  0  0  0  0
  9 23  1  0  0  0  0
 11 12  1  0  0  0  0
 11 13  1  0  0  0  0
 11 14  1  0  0  0  0
 14 15  1  0  0  0  0
 14 21  2  0  0  0  0
 15 16  1  0  0  0  0
 15 17  2  0  0  0  0
 17 18  1  0  0  0  0
 17 19  1  0  0  0  0
 19 20  1  0  0  0  0
 19 21  1  0  0  0  0
 21 22  1  0  0  0  0
 23 24  2  0  0  0  0
 23 25  1  0  0  0  0
 25 26  1  0  0  0  0
 25 27  1  0  0  0  0
 27 28  1  0  0  0  0
 27 29  1  0  0  0  0
 27 30  1  0  0  0  0
M  CHG  1  15   1
M  END
$$$$

  -OEChem-04042216003D

 30 30  0     1  0  0  0  0  0999 V2000
   -3.1793   -3.8446    1.5612 H   0  0  0  0  0  0  0  0  0  0  0  0
   -3.2174   -2.9938    0.8740 C   0  0  0  0  0  0  0  0  0  0  0  0
   -3.7974   -2.1948    1.3415 H   0  0  0  0  0  0  0  0  0  0  0  0
   -3.7146   -3.3103   -0.0457 H   0  0  0  0  0  0  0  0  0  0  0  0
   -1.8120   -2.5122    0.5688 C   0  0  0  0  0  0  0  0  0  0  0  0
   -0.8531   -3.0942    1.0389 O   0  0  0  0  0  0  0  0  0  0  0  0
   -1.6096   -1.4120   -0.2478 N   0  0  0  0  0  0  0  0  0  0  0  0
   -2.4437   -0.8738   -0.4556 H   0  0  0  0  0  0  0  0  0  0  0  0
   -0.2970   -0.7309   -0.3167 C   0  0  1  0  0  0  0  0  0  0  0  0
    0.4395   -1.5056   -0.5660 H   0  0  0  0  0  0  0  0  0  0  0  0
   -0.2150    0.3194   -1.4371 C   0  0  0  0  0  0  0  0  0  0  0  0
   -0.9375    1.1219   -1.2574 H   0  0  0  0  0  0  0  0  0  0  0  0
    0.7822    0.7761   -1.4129 H   0  0  0  0  0  0  0  0  0  0  0  0
   -0.4407   -0.2955   -2.7989 C   0  0  0  0  0  0  0  0  0  0  0  0
   -1.6423   -0.4658   -3.4908 N   0  3  0  0  0  0  0  0  0  0  0  0
   -2.5459   -0.1530   -3.1302 H   0  0  0  0  0  0  0  0  0  0  0  0
   -1.4211   -1.0314   -4.6540 C   0  0  0  0  0  0  0  0  0  0  0  0
   -2.1689   -1.2785   -5.4105 H   0  0  0  0  0  0  0  0  0  0  0  0
   -0.0496   -1.2535   -4.7522 N   0  0  0  0  0  0  0  0  0  0  0  0
    0.4333   -1.6864   -5.5461 H   0  0  0  0  0  0  0  0  0  0  0  0
    0.5628   -0.7873   -3.5963 C   0  0  0  0  0  0  0  0  0  0  0  0
    1.6273   -0.8093   -3.3561 H   0  0  0  0  0  0  0  0  0  0  0  0
    0.2162   -0.1447    1.0144 C   0  0  0  0  0  0  0  0  0  0  0  0
    1.4238   -0.0426    1.1662 O   0  0  0  0  0  0  0  0  0  0  0  0
   -0.6281    0.5717    1.8450 N   0  0  0  0  0  0  0  0  0  0  0  0
   -1.6238    0.4074    1.7451 H   0  0  0  0  0  0  0  0  0  0  0  0
   -0.1555    1.2183    3.0672 C   0  0  0  0  0  0  0  0  0  0  0  0
    0.6129    1.9646    2.8369 H   0  0  0  0  0  0  0  0  0  0  0  0
   -0.9818    1.7245    3.5762 H   0  0  0  0  0  0  0  0  0  0  0  0
    0.2715    0.4780    3.7527 H   0  0  0  0  0  0  0  0  0  0  0  0
  1  2  1  0  0  0  0
  2  3  1  0  0  0  0
  2  4  1  0  0  0  0
  2  5  1  0  0  0  0
  5  6  2  0  0  0  0
  5  7  1  0  0  0  0
  7  8  1  0  0  0  0
  7  9  1  0  0  0  0
  9 10  1  0  0  0  0
  9 11  1  0  0  0  0
  9 23  1  0  0  0  0
 11 12  1  0  0  0  0
 11 13  1  0  0  0  0
 11 14  1  0  0  0  0
 14 15  1  0  0  0  0
 14 21  2  0  0  0  0
 15 16  1  0  0  0  0
 15 17  2  0  0  0  0
 17 18  1  0  0  0  0
 17 19  1  0  0  0  0
 19 20  1  0  0  0  0
 19 21  1  0  0  0  0
 21 22  1  0  0  0  0
 23 24  2  0  0  0  0
 23 25  1  0  0  0  0
 25 26  1  0  0  0  0
 25 27  1  0  0  0  0
 27 28  1  0  0  0  0
 27 29  1  0  0  0  0
 27 30  1  0  0  0  0
M  CHG  1  15   1
M  END
$$$$

  -OEChem-04042216003D

 30 30  0     1  0  0  0  0  0999 V2000
   -3.2084   -3.8580    1.5133 H   0  0  0  0  0  0  0  0  0  0  0  0
   -3.2264   -3.0160    0.8146 C   0  0  0  0  0  0  0  0  0  0  0  0
   -3.8490   -2.2251    1.2390 H   0  0  0  0  0  0  0  0  0  0  0  0
   -3.6643   -3.3535   -0.1275 H   0  0  0  0  0  0  0  0  0  0  0  0
   -1.8169   -2.5067    0.5820 C   0  0  0  0  0  0  0  0  0  0  0  0
   -0.8724   -3.0634    1.1089 O   0  0  0  0  0  0  0  0  0  0  0  0
   -1.5915   -1.4137   -0.2371 N   0  0  0  0  0  0  0  0  0  0  0  0
   -2.4186   -0.9120   -0.5424 H   0  0  0  0  0  0  0  0  0  0  0  0
   -0.2768   -0.7382   -0.3039 C   0  0  1  0  0  0  0  0  0  0  0  0
    0.4595   -1.5137   -0.5491 H   0  0  0  0  0  0  0  0  0  0  0  0
   -0.2022    0.3176   -1.4200 C   0  0  0  0  0  0  0  0  0  0  0  0
   -0.9233    1.1181   -1.2284 H   0  0  0  0  0  0  0  0  0  0  0  0
    0.7952    0.7746   -1.4051 H   0  0  0  0  0  0  0  0  0  0  0  0
   -0.4382   -0.2920   -2.7815 C   0  0  0  0  0  0  0  0  0  0  0  0
   -1.5809   -0.2053   -3.5804 N   0  3  0  0  0  0  0  0  0  0  0  0
   -2.4056    0.3415   -3.3219 H   0  0  0  0  0  0  0  0  0  0  0  0
   -1.3969   -0.8538   -4.7065 C   0  0  0  0  0  0  0  0  0  0  0  0
   -2.1088   -0.9431   -5.5297 H   0  0  0  0  0  0  0  0  0  0  0  0
   -0.1157   -1.3995   -4.6661 N   0  0  0  0  0  0  0  0  0  0  0  0
    0.3211   -1.9615   -5.4039 H   0  0  0  0  0  0  0  0  0  0  0  0
    0.4857   -1.0415   -3.4665 C   0  0  0  0  0  0  0  0  0  0  0  0
    1.4902   -1.2994   -3.1257 H   0  0  0  0  0  0  0  0  0  0  0  0
    0.2304   -0.1437    1.0255 C   0  0  0  0  0  0  0  0  0  0  0  0
    1.4375   -0.0390    1.1790 O   0  0  0  0  0  0  0  0  0  0  0  0
   -0.6169    0.5816    1.8449 N   0  0  0  0  0  0  0  0  0  0  0  0
   -1.6112    0.4046    1.7491 H   0  0  0  0  0  0  0  0  0  0  0  0
   -0.1481    1.2373    3.0637 C   0  0  0  0  0  0  0  0  0  0  0  0
    0.6167    1.9859    2.8290 H   0  0  0  0  0  0  0  0  0  0  0  0
   -0.9771    1.7422    3.5695 H   0  0  0  0  0  0  0  0  0  0  0  0
    0.2823    0.5028    3.7535 H   0  0  0  0  0  0  0  0  0  0  0  0
  1  2  1  0  0  0  0
  2  3  1  0  0  0  0
  2  4  1  0  0  0  0
  2  5  1  0  0  0  0
  5  6  2  0  0  0  0
  5  7  1  0  0  0  0
  7  8  1  0  0  0  0
  7  9  1  0  0  0  0
  9 10  1  0  0  0  0
  9 11  1  0  0  0  0
  9 23  1  0  0  0  0
 11 12  1  0  0  0  0
 11 13  1  0  0  0  0
 11 14  1  0  0  0  0
 14 15  1  0  0  0  0
 14 21  2  0  0  0  0
 15 16  1  0  0  0  0
 15 17  2  0  0  0  0
 17 18  1  0  0  0  0
 17 19  1  0  0  0  0
 19 20  1  0  0  0  0
 19 21  1  0  0  0  0
 21 22  1  0  0  0  0
 23 24  2  0  0  0  0
 23 25  1  0  0  0  0
 25 26  1  0  0  0  0
 25 27  1  0  0  0  0
 27 28  1  0  0  0  0
 27 29  1  0  0  0  0
 27 30  1  0  0  0  0
M  CHG  1  15   1
M  END
$$$$

  -OEChem-04042216003D

 30 30  0     1  0  0  0  0  0999 V2000
   -3.2250   -3.8694    1.4837 H   0  0  0  0  0  0  0  0  0  0  0  0
   -3.2268   -3.0305    0.7812 C   0  0  0  0  0  0  0  0  0  0  0  0
   -3.8737   -2.2449    1.1784 H   0  0  0  0  0  0  0  0  0  0  0  0
   -3.6254   -3.3767   -0.1752 H   0  0  0  0  0  0  0  0  0  0  0  0
   -1.8161   -2.5046    0.5986 C   0  0  0  0  0  0  0  0  0  0  0  0
   -0.8849   -3.0420    1.1675 O   0  0  0  0  0  0  0  0  0  0  0  0
   -1.5718   -1.4213   -0.2272 N   0  0  0  0  0  0  0  0  0  0  0  0
   -2.3872   -0.9533   -0.6094 H   0  0  0  0  0  0  0  0  0  0  0  0
   -0.2553   -0.7500   -0.2906 C   0  0  1  0  0  0  0  0  0  0  0  0
    0.4840   -1.5252   -0.5245 H   0  0  0  0  0  0  0  0  0  0  0  0
   -0.1857    0.3063   -1.4072 C   0  0  0  0  0  0  0  0  0  0  0  0
   -0.9132    1.0993   -1.2066 H   0  0  0  0  0  0  0  0  0  0  0  0
    0.8079    0.7715   -1.3962 H   0  0  0  0  0  0  0  0  0  0  0  0
   -0.4255   -0.2937   -2.7731 C   0  0  0  0  0  0  0  0  0  0  0  0
   -1.4390    0.0317   -3.6779 N   0  3  0  0  0  0  0  0  0  0  0  0
   -2.1228    0.7742   -3.5098 H   0  0  0  0  0  0  0  0  0  0  0  0
   -1.3194   -0.6849   -4.7706 C   0  0  0  0  0  0  0  0  0  0  0  0
   -1.9536   -0.6285   -5.6579 H   0  0  0  0  0  0  0  0  0  0  0  0
   -0.2212   -1.5243   -4.5975 N   0  0  0  0  0  0  0  0  0  0  0  0
    0.1318   -2.2000   -5.2829 H   0  0  0  0  0  0  0  0  0  0  0  0
    0.3401   -1.2763   -3.3517 C   0  0  0  0  0  0  0  0  0  0  0  0
    1.2172   -1.7565   -2.9138 H   0  0  0  0  0  0  0  0  0  0  0  0
    0.2398   -0.1436    1.0375 C   0  0  0  0  0  0  0  0  0  0  0  0
    1.4457   -0.0369    1.2002 O   0  0  0  0  0  0  0  0  0  0  0  0
   -0.6152    0.5911    1.8400 N   0  0  0  0  0  0  0  0  0  0  0  0
   -1.6078    0.4062    1.7398 H   0  0  0  0  0  0  0  0  0  0  0  0
   -0.1580    1.2586    3.0566 C   0  0  0  0  0  0  0  0  0  0  0  0
    0.6030    2.0103    2.8203 H   0  0  0  0  0  0  0  0  0  0  0  0
   -0.9932    1.7615    3.5539 H   0  0  0  0  0  0  0  0  0  0  0  0
    0.2732    0.5322    3.7544 H   0  0  0  0  0  0  0  0  0  0  0  0
  1  2  1  0  0  0  0
  2  3  1  0  0  0  0
  2  4  1  0  0  0  0
  2  5  1  0  0  0  0
  5  6  2  0  0  0  0
  5  7  1  0  0  0  0
  7  8  1  0  0  0  0
  7  9  1  0  0  0  0
  9 10  1  0  0  0  0
  9 11  1  0  0  0  0
  9 23  1  0  0  0  0
 11 12  1  0  0  0  0
 11 13  1  0  0  0  0
 11 14  1  0  0  0  0
 14 15  1  0  0  0  0
 14 21  2  0  0  0  0
 15 16  1  0  0  0  0
 15 17  2  0  0  0  0
 17 18  1  0  0  0  0
 17 19  1  0  0  0  0
 19 20  1  0  0  0  0
 19 21  1  0  0  0  0
 21 22  1  0  0  0  0
 23 24  2  0  0  0  0
 23 25  1  0  0  0  0
 25 26  1  0  0  0  0
 25 27  1  0  0  0  0
 27 28  1  0  0  0  0
 27 29  1  0  0  0  0
 27 30  1  0  0  0  0
M  CHG  1  15   1
M  END
$$$$

  -OEChem-04042216003D

 30 30  0     1  0  0  0  0  0999 V2000
   -3.2202   -3.8730    1.4894 H   0  0  0  0  0  0  0  0  0  0  0  0
   -3.2177   -3.0330    0.7883 C   0  0  0  0  0  0  0  0  0  0  0  0
   -3.8648   -2.2469    1.1840 H   0  0  0  0  0  0  0  0  0  0  0  0
   -3.6131   -3.3764   -0.1704 H   0  0  0  0  0  0  0  0  0  0  0  0
   -1.8050   -2.5099    0.6134 C   0  0  0  0  0  0  0  0  0  0  0  0
   -0.8789   -3.0430    1.1946 O   0  0  0  0  0  0  0  0  0  0  0  0
   -1.5497   -1.4375   -0.2228 N   0  0  0  0  0  0  0  0  0  0  0  0
   -2.3586   -0.9791   -0.6314 H   0  0  0  0  0  0  0  0  0  0  0  0
   -0.2326   -0.7667   -0.2810 C   0  0  1  0  0  0  0  0  0  0  0  0
    0.5146   -1.5387   -0.4983 H   0  0  0  0  0  0  0  0  0  0  0  0
   -0.1663    0.2848   -1.4027 C   0  0  0  0  0  0  0  0  0  0  0  0
   -0.9059    1.0660   -1.1995 H   0  0  0  0  0  0  0  0  0  0  0  0
    0.8210    0.7630   -1.3904 H   0  0  0  0  0  0  0  0  0  0  0  0
   -0.4020   -0.3049   -2.7761 C   0  0  0  0  0  0  0  0  0  0  0  0
   -1.2212    0.2254   -3.7761 N   0  3  0  0  0  0  0  0  0  0  0  0
   -1.7120    1.1187   -3.6814 H   0  0  0  0  0  0  0  0  0  0  0  0
   -1.1897   -0.5366   -4.8437 C   0  0  0  0  0  0  0  0  0  0  0  0
   -1.7092   -0.3557   -5.7872 H   0  0  0  0  0  0  0  0  0  0  0  0
   -0.3572   -1.6159   -4.5566 N   0  0  0  0  0  0  0  0  0  0  0  0
   -0.1230   -2.3803   -5.1986 H   0  0  0  0  0  0  0  0  0  0  0  0
    0.1346   -1.4718   -3.2655 C   0  0  0  0  0  0  0  0  0  0  0  0
    0.8179   -2.1428   -2.7421 H   0  0  0  0  0  0  0  0  0  0  0  0
    0.2431   -0.1447    1.0474 C   0  0  0  0  0  0  0  0  0  0  0  0
    1.4461   -0.0342    1.2274 O   0  0  0  0  0  0  0  0  0  0  0  0
   -0.6256    0.5976    1.8281 N   0  0  0  0  0  0  0  0  0  0  0  0
   -1.6159    0.4069    1.7152 H   0  0  0  0  0  0  0  0  0  0  0  0
   -0.1901    1.2773    3.0459 C   0  0  0  0  0  0  0  0  0  0  0  0
    0.5846    2.0175    2.8180 H   0  0  0  0  0  0  0  0  0  0  0  0
   -1.0316    1.7961    3.5157 H   0  0  0  0  0  0  0  0  0  0  0  0
    0.2165    0.5562    3.7635 H   0  0  0  0  0  0  0  0  0  0  0  0
  1  2  1  0  0  0  0
  2  3  1  0  0  0  0
  2  4  1  0  0  0  0
  2  5  1  0  0  0  0
  5  6  2  0  0  0  0
  5  7  1  0  0  0  0
  7  8  1  0  0  0  0
  7  9  1  0  0  0  0
  9 10  1  0  0  0  0
  9 11  1  0  0  0  0
  9 23  1  0  0  0  0
 11 12  1  0  0  0  0
 11 13  1  0  0  0  0
 11 14  1  0  0  0  0
 14 15  1  0  0  0  0
 14 21  2  0  0  0  0
 15 16  1  0  0  0  0
 15 17  2  0  0  0  0
 17 18  1  0  0  0  0
 17 19  1  0  0  0  0
 19 20  1  0  0  0  0
 19 21  1  0  0  0  0
 21 22  1  0  0  0  0
 23 24  2  0  0  0  0
 23 25  1  0  0  0  0
 25 26  1  0  0  0  0
 25 27  1  0  0  0  0
 27 28  1  0  0  0  0
 27 29  1  0  0  0  0
 27 30  1  0  0  0  0
M  CHG  1  15   1
M  END
$$$$

  -OEChem-04042216003D

 30 30  0     1  0  0  0  0  0999 V2000
   -3.2159   -3.8660    1.5226 H   0  0  0  0  0  0  0  0  0  0  0  0
   -3.2131   -3.0272    0.8198 C   0  0  0  0  0  0  0  0  0  0  0  0
   -3.8437   -2.2320    1.2243 H   0  0  0  0  0  0  0  0  0  0  0  0
   -3.6281   -3.3671   -0.1318 H   0  0  0  0  0  0  0  0  0  0  0  0
   -1.7968   -2.5227    0.6214 C   0  0  0  0  0  0  0  0  0  0  0  0
   -0.8666   -3.0703    1.1823 O   0  0  0  0  0  0  0  0  0  0  0  0
   -1.5415   -1.4556   -0.2213 N   0  0  0  0  0  0  0  0  0  0  0  0
   -2.3537   -0.9841   -0.6087 H   0  0  0  0  0  0  0  0  0  0  0  0
   -0.2257   -0.7815   -0.2762 C   0  0  1  0  0  0  0  0  0  0  0  0
    0.5290   -1.5490   -0.4841 H   0  0  0  0  0  0  0  0  0  0  0  0
   -0.1599    0.2637   -1.4042 C   0  0  0  0  0  0  0  0  0  0  0  0
   -0.9084    1.0374   -1.2053 H   0  0  0  0  0  0  0  0  0  0  0  0
    0.8232    0.7501   -1.3876 H   0  0  0  0  0  0  0  0  0  0  0  0
   -0.3871   -0.3218   -2.7822 C   0  0  0  0  0  0  0  0  0  0  0  0
   -0.9558    0.3512   -3.8665 N   0  3  0  0  0  0  0  0  0  0  0  0
   -1.2215    1.3393   -3.8326 H   0  0  0  0  0  0  0  0  0  0  0  0
   -1.0102   -0.4342   -4.9157 C   0  0  0  0  0  0  0  0  0  0  0  0
   -1.3785   -0.1672   -5.9087 H   0  0  0  0  0  0  0  0  0  0  0  0
   -0.4971   -1.6709   -4.5324 N   0  0  0  0  0  0  0  0  0  0  0  0
   -0.3962   -2.4920   -5.1380 H   0  0  0  0  0  0  0  0  0  0  0  0
   -0.1101   -1.6023   -3.2001 C   0  0  0  0  0  0  0  0  0  0  0  0
    0.3333   -2.3999   -2.6015 H   0  0  0  0  0  0  0  0  0  0  0  0
    0.2379   -0.1493    1.0520 C   0  0  0  0  0  0  0  0  0  0  0  0
    1.4386   -0.0366    1.2438 O   0  0  0  0  0  0  0  0  0  0  0  0
   -0.6385    0.5954    1.8220 N   0  0  0  0  0  0  0  0  0  0  0  0
   -1.6284    0.4109    1.6974 H   0  0  0  0  0  0  0  0  0  0  0  0
   -0.2132    1.2919    3.0341 C   0  0  0  0  0  0  0  0  0  0  0  0
    0.5523    2.0399    2.8005 H   0  0  0  0  0  0  0  0  0  0  0  0
   -1.0619    1.8042    3.4978 H   0  0  0  0  0  0  0  0  0  0  0  0
    0.2018    0.5827    3.7589 H   0  0  0  0  0  0  0  0  0  0  0  0
  1  2  1  0  0  0  0
  2  3  1  0  0  0  0
  2  4  1  0  0  0  0
  2  5  1  0  0  0  0
  5  6  2  0  0  0  0
  5  7  1  0  0  0  0
  7  8  1  0  0  0  0
  7  9  1  0  0  0  0
  9 10  1  0  0  0  0
  9 11  1  0  0  0  0
  9 23  1  0  0  0  0
 11 12  1  0  0  0  0
 11 13  1  0  0  0  0
 11 14  1  0  0  0  0
 14 15  1  0  0  0  0
 14 21  2  0  0  0  0
 15 16  1  0  0  0  0
 15 17  2  0  0  0  0
 17 18  1  0  0  0  0
 17 19  1  0  0  0  0
 19 20  1  0  0  0  0
 19 21  1  0  0  0  0
 21 22  1  0  0  0  0
 23 24  2  0  0  0  0
 23 25  1  0  0  0  0
 25 26  1  0  0  0  0
 25 27  1  0  0  0  0
 27 28  1  0  0  0  0
 27 29  1  0  0  0  0
 27 30  1  0  0  0  0
M  CHG  1  15   1
M  END
$$$$

  -OEChem-04042216003D

 30 30  0     1  0  0  0  0  0999 V2000
   -3.2160   -3.8527    1.5731 H   0  0  0  0  0  0  0  0  0  0  0  0
   -3.2191   -3.0132    0.8713 C   0  0  0  0  0  0  0  0  0  0  0  0
   -3.8250   -2.2083    1.2937 H   0  0  0  0  0  0  0  0  0  0  0  0
   -3.6662   -3.3451   -0.0686 H   0  0  0  0  0  0  0  0  0  0  0  0
   -1.8010   -2.5310    0.6346 C   0  0  0  0  0  0  0  0  0  0  0  0
   -0.8639   -3.0961    1.1652 O   0  0  0  0  0  0  0  0  0  0  0  0
   -1.5515   -1.4679   -0.2149 N   0  0  0  0  0  0  0  0  0  0  0  0
   -2.3688   -0.9795   -0.5706 H   0  0  0  0  0  0  0  0  0  0  0  0
   -0.2354   -0.7934   -0.2764 C   0  0  1  0  0  0  0  0  0  0  0  0
    0.5205   -1.5600   -0.4861 H   0  0  0  0  0  0  0  0  0  0  0  0
   -0.1708    0.2451   -1.4102 C   0  0  0  0  0  0  0  0  0  0  0  0
   -0.9167    1.0224   -1.2150 H   0  0  0  0  0  0  0  0  0  0  0  0
    0.8144    0.7272   -1.3928 H   0  0  0  0  0  0  0  0  0  0  0  0
   -0.3981   -0.3396   -2.7893 C   0  0  0  0  0  0  0  0  0  0  0  0
   -0.6841    0.4050   -3.9362 N   0  3  0  0  0  0  0  0  0  0  0  0
   -0.7301    1.4279   -3.9396 H   0  0  0  0  0  0  0  0  0  0  0  0
   -0.8019   -0.3833   -4.9779 C   0  0  0  0  0  0  0  0  0  0  0  0
   -0.9978   -0.0749   -6.0071 H   0  0  0  0  0  0  0  0  0  0  0  0
   -0.6160   -1.6889   -4.5303 N   0  0  0  0  0  0  0  0  0  0  0  0
   -0.6305   -2.5306   -5.1153 H   0  0  0  0  0  0  0  0  0  0  0  0
   -0.3624   -1.6626   -3.1648 C   0  0  0  0  0  0  0  0  0  0  0  0
   -0.1609   -2.5168   -2.5160 H   0  0  0  0  0  0  0  0  0  0  0  0
    0.2301   -0.1556    1.0482 C   0  0  0  0  0  0  0  0  0  0  0  0
    1.4307   -0.0399    1.2382 O   0  0  0  0  0  0  0  0  0  0  0  0
   -0.6460    0.5918    1.8158 N   0  0  0  0  0  0  0  0  0  0  0  0
   -1.6367    0.4138    1.6880 H   0  0  0  0  0  0  0  0  0  0  0  0
   -0.2210    1.2964    3.0231 C   0  0  0  0  0  0  0  0  0  0  0  0
    0.5471    2.0403    2.7845 H   0  0  0  0  0  0  0  0  0  0  0  0
   -1.0687    1.8149    3.4821 H   0  0  0  0  0  0  0  0  0  0  0  0
    0.1907    0.5914    3.7539 H   0  0  0  0  0  0  0  0  0  0  0  0
  1  2  1  0  0  0  0
  2  3  1  0  0  0  0
  2  4  1  0  0  0  0
  2  5  1  0  0  0  0
  5  6  2  0  0  0  0
  5  7  1  0  0  0  0
  7  8  1  0  0  0  0
  7  9  1  0  0  0  0
  9 10  1  0  0  0  0
  9 11  1  0  0  0  0
  9 23  1  0  0  0  0
 11 12  1  0  0  0  0
 11 13  1  0  0  0  0
 11 14  1  0  0  0  0
 14 15  1  0  0  0  0
 14 21  2  0  0  0  0
 15 16  1  0  0  0  0
 15 17  2  0  0  0  0
 17 18  1  0  0  0  0
 17 19  1  0  0  0  0
 19 20  1  0  0  0  0
 19 21  1  0  0  0  0
 21 22  1  0  0  0  0
 23 24  2  0  0  0  0
 23 25  1  0  0  0  0
 25 26  1  0  0  0  0
 25 27  1  0  0  0  0
 27 28  1  0  0  0  0
 27 29  1  0  0  0  0
 27 30  1  0  0  0  0
M  CHG  1  15   1
M  END
$$$$

  -OEChem-04042216003D

 30 30  0     1  0  0  0  0  0999 V2000
   -3.1807   -3.8635    1.7508 H   0  0  0  0  0  0  0  0  0  0  0  0
   -3.2261   -3.0293    1.0440 C   0  0  0  0  0  0  0  0  0  0  0  0
   -3.8037   -2.2204    1.4974 H   0  0  0  0  0  0  0  0  0  0  0  0
   -3.7315   -3.3674    0.1365 H   0  0  0  0  0  0  0  0  0  0  0  0
   -1.8245   -2.5523    0.7158 C   0  0  0  0  0  0  0  0  0  0  0  0
   -0.8586   -3.1195    1.1885 O   0  0  0  0  0  0  0  0  0  0  0  0
   -1.6282   -1.4867   -0.1454 N   0  0  0  0  0  0  0  0  0  0  0  0
   -2.4661   -0.9756   -0.4108 H   0  0  0  0  0  0  0  0  0  0  0  0
   -0.3225   -0.7966   -0.2599 C   0  0  1  0  0  0  0  0  0  0  0  0
    0.4156   -1.5757   -0.4894 H   0  0  0  0  0  0  0  0  0  0  0  0
   -0.2479    0.2173   -1.4208 C   0  0  0  0  0  0  0  0  0  0  0  0
   -0.7945    1.1172   -1.1188 H   0  0  0  0  0  0  0  0  0  0  0  0
    0.8017    0.5063   -1.5526 H   0  0  0  0  0  0  0  0  0  0  0  0
   -0.7985   -0.2429   -2.7574 C   0  0  0  0  0  0  0  0  0  0  0  0
   -0.8078    0.5538   -3.9057 N   0  3  0  0  0  0  0  0  0  0  0  0
   -0.4764    1.5228   -3.9128 H   0  0  0  0  0  0  0  0  0  0  0  0
   -1.2416   -0.1271   -4.9390 C   0  0  0  0  0  0  0  0  0  0  0  0
   -1.3423    0.2400   -5.9626 H   0  0  0  0  0  0  0  0  0  0  0  0
   -1.5306   -1.4129   -4.4914 N   0  0  0  0  0  0  0  0  0  0  0  0
   -1.8532   -2.1911   -5.0756 H   0  0  0  0  0  0  0  0  0  0  0  0
   -1.2333   -1.4923   -3.1365 C   0  0  0  0  0  0  0  0  0  0  0  0
   -1.2865   -2.3805   -2.5055 H   0  0  0  0  0  0  0  0  0  0  0  0
    0.1964   -0.1502    1.0406 C   0  0  0  0  0  0  0  0  0  0  0  0
    1.4027   -0.0115    1.1696 O   0  0  0  0  0  0  0  0  0  0  0  0
   -0.6518    0.5905    1.8456 N   0  0  0  0  0  0  0  0  0  0  0  0
   -1.6444    0.3947    1.7705 H   0  0  0  0  0  0  0  0  0  0  0  0
   -0.1783    1.3056    3.0286 C   0  0  0  0  0  0  0  0  0  0  0  0
    0.5682    2.0578    2.7510 H   0  0  0  0  0  0  0  0  0  0  0  0
   -1.0095    1.8155    3.5256 H   0  0  0  0  0  0  0  0  0  0  0  0
    0.2766    0.6092    3.7416 H   0  0  0  0  0  0  0  0  0  0  0  0
  1  2  1  0  0  0  0
  2  3  1  0  0  0  0
  2  4  1  0  0  0  0
  2  5  1  0  0  0  0
  5  6  2  0  0  0  0
  5  7  1  0  0  0  0
  7  8  1  0  0  0  0
  7  9  1  0  0  0  0
  9 10  1  0  0  0  0
  9 11  1  0  0  0  0
  9 23  1  0  0  0  0
 11 12  1  0  0  0  0
 11 13  1  0  0  0  0
 11 14  1  0  0  0  0
 14 15  1  0  0  0  0
 14 21  2  0  0  0  0
 15 16  1  0  0  0  0
 15 17  2  0  0  0  0
 17 18  1  0  0  0  0
 17 19  1  0  0  0  0
 19 20  1  0  0  0  0
 19 21  1  0  0  0  0
 21 22  1  0  0  0  0
 23 24  2  0  0  0  0
 23 25  1  0  0  0  0
 25 26  1  0  0  0  0
 25 27  1  0  0  0  0
 27 28  1  0  0  0  0
 27 29  1  0  0  0  0
 27 30  1  0  0  0  0
M  CHG  1  15   1
M  END
$$$$

  -OEChem-04042216003D

 30 30  0     1  0  0  0  0  0999 V2000
   -3.1651   -3.8614    1.8118 H   0  0  0  0  0  0  0  0  0  0  0  0
   -3.2265   -3.0267    1.1067 C   0  0  0  0  0  0  0  0  0  0  0  0
   -3.7879   -2.2154    1.5762 H   0  0  0  0  0  0  0  0  0  0  0  0
   -3.7578   -3.3623    0.2131 H   0  0  0  0  0  0  0  0  0  0  0  0
   -1.8325   -2.5553    0.7403 C   0  0  0  0  0  0  0  0  0  0  0  0
   -0.8567   -3.1233    1.1912 O   0  0  0  0  0  0  0  0  0  0  0  0
   -1.6574   -1.4895   -0.1259 N   0  0  0  0  0  0  0  0  0  0  0  0
   -2.5004   -0.9657   -0.3472 H   0  0  0  0  0  0  0  0  0  0  0  0
   -0.3549   -0.7981   -0.2635 C   0  0  1  0  0  0  0  0  0  0  0  0
    0.3761   -1.5817   -0.5012 H   0  0  0  0  0  0  0  0  0  0  0  0
   -0.2817    0.2089   -1.4314 C   0  0  0  0  0  0  0  0  0  0  0  0
   -0.8152    1.1171   -1.1311 H   0  0  0  0  0  0  0  0  0  0  0  0
    0.7719    0.4844   -1.5614 H   0  0  0  0  0  0  0  0  0  0  0  0
   -0.8335   -0.2338   -2.7757 C   0  0  0  0  0  0  0  0  0  0  0  0
   -0.5571    0.4524   -3.9624 N   0  3  0  0  0  0  0  0  0  0  0  0
   -0.0221    1.3253   -3.9862 H   0  0  0  0  0  0  0  0  0  0  0  0
   -1.0379   -0.1905   -4.9984 C   0  0  0  0  0  0  0  0  0  0  0  0
   -0.9621    0.1135   -6.0448 H   0  0  0  0  0  0  0  0  0  0  0  0
   -1.6446   -1.3456   -4.5163 N   0  0  0  0  0  0  0  0  0  0  0  0
   -2.0754   -2.0779   -5.0898 H   0  0  0  0  0  0  0  0  0  0  0  0
   -1.4918   -1.3886   -3.1357 C   0  0  0  0  0  0  0  0  0  0  0  0
   -1.7853   -2.2067   -2.4788 H   0  0  0  0  0  0  0  0  0  0  0  0
    0.1873   -0.1508    1.0273 C   0  0  0  0  0  0  0  0  0  0  0  0
    1.3961   -0.0156    1.1357 O   0  0  0  0  0  0  0  0  0  0  0  0
   -0.6451    0.5899    1.8486 N   0  0  0  0  0  0  0  0  0  0  0  0
   -1.6406    0.4061    1.7835 H   0  0  0  0  0  0  0  0  0  0  0  0
   -0.1501    1.3024    3.0245 C   0  0  0  0  0  0  0  0  0  0  0  0
    0.5911    2.0556    2.7355 H   0  0  0  0  0  0  0  0  0  0  0  0
   -0.9725    1.8109    3.5372 H   0  0  0  0  0  0  0  0  0  0  0  0
    0.3178    0.6047    3.7280 H   0  0  0  0  0  0  0  0  0  0  0  0
  1  2  1  0  0  0  0
  2  3  1  0  0  0  0
  2  4  1  0  0  0  0
  2  5  1  0  0  0  0
  5  6  2  0  0  0  0
  5  7  1  0  0  0  0
  7  8  1  0  0  0  0
  7  9  1  0  0  0  0
  9 10  1  0  0  0  0
  9 11  1  0  0  0  0
  9 23  1  0  0  0  0
 11 12  1  0  0  0  0
 11 13  1  0  0  0  0
 11 14  1  0  0  0  0
 14 15  1  0  0  0  0
 14 21  2  0  0  0  0
 15 16  1  0  0  0  0
 15 17  2  0  0  0  0
 17 18  1  0  0  0  0
 17 19  1  0  0  0  0
 19 20  1  0  0  0  0
 19 21  1  0  0  0  0
 21 22  1  0  0  0  0
 23 24  2  0  0  0  0
 23 25  1  0  0  0  0
 25 26  1  0  0  0  0
 25 27  1  0  0  0  0
 27 28  1  0  0  0  0
 27 29  1  0  0  0  0
 27 30  1  0  0  0  0
M  CHG  1  15   1
M  END
$$$$

  -OEChem-04042216003D

 30 30  0     1  0  0  0  0  0999 V2000
   -3.1317   -3.8573    1.8638 H   0  0  0  0  0  0  0  0  0  0  0  0
   -3.2112   -3.0332    1.1482 C   0  0  0  0  0  0  0  0  0  0  0  0
   -3.7631   -2.2162    1.6188 H   0  0  0  0  0  0  0  0  0  0  0  0
   -3.7630   -3.3836    0.2730 H   0  0  0  0  0  0  0  0  0  0  0  0
   -1.8266   -2.5659    0.7416 C   0  0  0  0  0  0  0  0  0  0  0  0
   -0.8417   -3.1398    1.1643 O   0  0  0  0  0  0  0  0  0  0  0  0
   -1.6726   -1.4949   -0.1234 N   0  0  0  0  0  0  0  0  0  0  0  0
   -2.5174   -0.9551   -0.2902 H   0  0  0  0  0  0  0  0  0  0  0  0
   -0.3735   -0.8004   -0.2725 C   0  0  1  0  0  0  0  0  0  0  0  0
    0.3528   -1.5867   -0.5169 H   0  0  0  0  0  0  0  0  0  0  0  0
   -0.2902    0.2084   -1.4391 C   0  0  0  0  0  0  0  0  0  0  0  0
   -0.8094    1.1258   -1.1416 H   0  0  0  0  0  0  0  0  0  0  0  0
    0.7682    0.4677   -1.5609 H   0  0  0  0  0  0  0  0  0  0  0  0
   -0.8373   -0.2189   -2.7902 C   0  0  0  0  0  0  0  0  0  0  0  0
   -0.3094    0.2770   -3.9867 N   0  3  0  0  0  0  0  0  0  0  0  0
    0.4309    0.9844   -4.0143 H   0  0  0  0  0  0  0  0  0  0  0  0
   -0.8643   -0.3042   -5.0216 C   0  0  0  0  0  0  0  0  0  0  0  0
   -0.6374   -0.1135   -6.0726 H   0  0  0  0  0  0  0  0  0  0  0  0
   -1.7838   -1.2230   -4.5277 N   0  0  0  0  0  0  0  0  0  0  0  0
   -2.3545   -1.8589   -5.0937 H   0  0  0  0  0  0  0  0  0  0  0  0
   -1.7508   -1.1886   -3.1387 C   0  0  0  0  0  0  0  0  0  0  0  0
   -2.3100   -1.8376   -2.4684 H   0  0  0  0  0  0  0  0  0  0  0  0
    0.1824   -0.1589    1.0154 C   0  0  0  0  0  0  0  0  0  0  0  0
    1.3919   -0.0182    1.1096 O   0  0  0  0  0  0  0  0  0  0  0  0
   -0.6431    0.5755    1.8491 N   0  0  0  0  0  0  0  0  0  0  0  0
   -1.6391    0.3925    1.7931 H   0  0  0  0  0  0  0  0  0  0  0  0
   -0.1382    1.2931    3.0174 C   0  0  0  0  0  0  0  0  0  0  0  0
    0.6050    2.0411    2.7198 H   0  0  0  0  0  0  0  0  0  0  0  0
   -0.9555    1.8089    3.5313 H   0  0  0  0  0  0  0  0  0  0  0  0
    0.3299    0.5970    3.7223 H   0  0  0  0  0  0  0  0  0  0  0  0
  1  2  1  0  0  0  0
  2  3  1  0  0  0  0
  2  4  1  0  0  0  0
  2  5  1  0  0  0  0
  5  6  2  0  0  0  0
  5  7  1  0  0  0  0
  7  8  1  0  0  0  0
  7  9  1  0  0  0  0
  9 10  1  0  0  0  0
  9 11  1  0  0  0  0
  9 23  1  0  0  0  0
 11 12  1  0  0  0  0
 11 13  1  0  0  0  0
 11 14  1  0  0  0  0
 14 15  1  0  0  0  0
 14 21  2  0  0  0  0
 15 16  1  0  0  0  0
 15 17  2  0  0  0  0
 17 18  1  0  0  0  0
 17 19  1  0  0  0  0
 19 20  1  0  0  0  0
 19 21  1  0  0  0  0
 21 22  1  0  0  0  0
 23 24  2  0  0  0  0
 23 25  1  0  0  0  0
 25 26  1  0  0  0  0
 25 27  1  0  0  0  0
 27 28  1  0  0  0  0
 27 29  1  0  0  0  0
 27 30  1  0  0  0  0
M  CHG  1  15   1
M  END
$$$$

  -OEChem-04042216003D

 30 30  0     1  0  0  0  0  0999 V2000
   -3.1102   -3.8727    1.8231 H   0  0  0  0  0  0  0  0  0  0  0  0
   -3.1973   -3.0403    1.1178 C   0  0  0  0  0  0  0  0  0  0  0  0
   -3.7477   -2.2303    1.6021 H   0  0  0  0  0  0  0  0  0  0  0  0
   -3.7542   -3.3820    0.2424 H   0  0  0  0  0  0  0  0  0  0  0  0
   -1.8168   -2.5649    0.7071 C   0  0  0  0  0  0  0  0  0  0  0  0
   -0.8284   -3.1376    1.1239 O   0  0  0  0  0  0  0  0  0  0  0  0
   -1.6713   -1.4812   -0.1437 N   0  0  0  0  0  0  0  0  0  0  0  0
   -2.5163   -0.9346   -0.2787 H   0  0  0  0  0  0  0  0  0  0  0  0
   -0.3741   -0.7811   -0.2806 C   0  0  1  0  0  0  0  0  0  0  0  0
    0.3520   -1.5667   -0.5281 H   0  0  0  0  0  0  0  0  0  0  0  0
   -0.2780    0.2314   -1.4422 C   0  0  0  0  0  0  0  0  0  0  0  0
   -0.8054    1.1466   -1.1528 H   0  0  0  0  0  0  0  0  0  0  0  0
    0.7796    0.4986   -1.5527 H   0  0  0  0  0  0  0  0  0  0  0  0
   -0.8146   -0.2125   -2.7911 C   0  0  0  0  0  0  0  0  0  0  0  0
   -0.1129    0.0102   -3.9798 N   0  3  0  0  0  0  0  0  0  0  0  0
    0.7917    0.4898   -4.0081 H   0  0  0  0  0  0  0  0  0  0  0  0
   -0.7520   -0.5011   -5.0030 C   0  0  0  0  0  0  0  0  0  0  0  0
   -0.4288   -0.4816   -6.0462 H   0  0  0  0  0  0  0  0  0  0  0  0
   -1.9141   -1.0833   -4.5077 N   0  0  0  0  0  0  0  0  0  0  0  0
   -2.6146   -1.5822   -5.0651 H   0  0  0  0  0  0  0  0  0  0  0  0
   -1.9501   -0.9128   -3.1283 C   0  0  0  0  0  0  0  0  0  0  0  0
   -2.7186   -1.2813   -2.4531 H   0  0  0  0  0  0  0  0  0  0  0  0
    0.1821   -0.1553    1.0149 C   0  0  0  0  0  0  0  0  0  0  0  0
    1.3919   -0.0176    1.1102 O   0  0  0  0  0  0  0  0  0  0  0  0
   -0.6419    0.5670    1.8607 N   0  0  0  0  0  0  0  0  0  0  0  0
   -1.6389    0.3915    1.8001 H   0  0  0  0  0  0  0  0  0  0  0  0
   -0.1340    1.2679    3.0379 C   0  0  0  0  0  0  0  0  0  0  0  0
    0.6070    2.0211    2.7484 H   0  0  0  0  0  0  0  0  0  0  0  0
   -0.9496    1.7749    3.5629 H   0  0  0  0  0  0  0  0  0  0  0  0
    0.3380    0.5623    3.7305 H   0  0  0  0  0  0  0  0  0  0  0  0
  1  2  1  0  0  0  0
  2  3  1  0  0  0  0
  2  4  1  0  0  0  0
  2  5  1  0  0  0  0
  5  6  2  0  0  0  0
  5  7  1  0  0  0  0
  7  8  1  0  0  0  0
  7  9  1  0  0  0  0
  9 10  1  0  0  0  0
  9 11  1  0  0  0  0
  9 23  1  0  0  0  0
 11 12  1  0  0  0  0
 11 13  1  0  0  0  0
 11 14  1  0  0  0  0
 14 15  1  0  0  0  0
 14 21  2  0  0  0  0
 15 16  1  0  0  0  0
 15 17  2  0  0  0  0
 17 18  1  0  0  0  0
 17 19  1  0  0  0  0
 19 20  1  0  0  0  0
 19 21  1  0  0  0  0
 21 22  1  0  0  0  0
 23 24  2  0  0  0  0
 23 25  1  0  0  0  0
 25 26  1  0  0  0  0
 25 27  1  0  0  0  0
 27 28  1  0  0  0  0
 27 29  1  0  0  0  0
 27 30  1  0  0  0  0
M  CHG  1  15   1
M  END
$$$$

  -OEChem-04042216003D

 30 30  0     1  0  0  0  0  0999 V2000
   -3.1137   -3.9037    1.7240 H   0  0  0  0  0  0  0  0  0  0  0  0
   -3.1865   -3.0627    1.0275 C   0  0  0  0  0  0  0  0  0  0  0  0
   -3.7677   -2.2683    1.5009 H   0  0  0  0  0  0  0  0  0  0  0  0
   -3.7032   -3.4003    0.1262 H   0  0  0  0  0  0  0  0  0  0  0  0
   -1.7992   -2.5606    0.6764 C   0  0  0  0  0  0  0  0  0  0  0  0
   -0.8180   -3.1145    1.1340 O   0  0  0  0  0  0  0  0  0  0  0  0
   -1.6395   -1.4710   -0.1634 N   0  0  0  0  0  0  0  0  0  0  0  0
   -2.4871   -0.9451   -0.3454 H   0  0  0  0  0  0  0  0  0  0  0  0
   -0.3436   -0.7651   -0.2793 C   0  0  1  0  0  0  0  0  0  0  0  0
    0.3886   -1.5456   -0.5231 H   0  0  0  0  0  0  0  0  0  0  0  0
   -0.2472    0.2528   -1.4339 C   0  0  0  0  0  0  0  0  0  0  0  0
   -0.8006    1.1542   -1.1494 H   0  0  0  0  0  0  0  0  0  0  0  0
    0.8019    0.5503   -1.5470 H   0  0  0  0  0  0  0  0  0  0  0  0
   -0.7836   -0.2330   -2.7643 C   0  0  0  0  0  0  0  0  0  0  0  0
   -0.0015   -0.3256   -3.9186 N   0  3  0  0  0  0  0  0  0  0  0  0
    1.0029   -0.1236   -3.9266 H   0  0  0  0  0  0  0  0  0  0  0  0
   -0.7210   -0.7372   -4.9336 C   0  0  0  0  0  0  0  0  0  0  0  0
   -0.3659   -0.9153   -5.9509 H   0  0  0  0  0  0  0  0  0  0  0  0
   -2.0223   -0.9068   -4.4700 N   0  0  0  0  0  0  0  0  0  0  0  0
   -2.8194   -1.2188   -5.0338 H   0  0  0  0  0  0  0  0  0  0  0  0
   -2.0654   -0.5814   -3.1186 C   0  0  0  0  0  0  0  0  0  0  0  0
   -2.9412   -0.5929   -2.4738 H   0  0  0  0  0  0  0  0  0  0  0  0
    0.1962   -0.1442    1.0249 C   0  0  0  0  0  0  0  0  0  0  0  0
    1.4045   -0.0009    1.1314 O   0  0  0  0  0  0  0  0  0  0  0  0
   -0.6403    0.5704    1.8647 N   0  0  0  0  0  0  0  0  0  0  0  0
   -1.6332    0.3725    1.8037 H   0  0  0  0  0  0  0  0  0  0  0  0
   -0.1475    1.2587    3.0557 C   0  0  0  0  0  0  0  0  0  0  0  0
    0.6086    2.0044    2.7860 H   0  0  0  0  0  0  0  0  0  0  0  0
   -0.9677    1.7734    3.5660 H   0  0  0  0  0  0  0  0  0  0  0  0
    0.3013    0.5435    3.7538 H   0  0  0  0  0  0  0  0  0  0  0  0
  1  2  1  0  0  0  0
  2  3  1  0  0  0  0
  2  4  1  0  0  0  0
  2  5  1  0  0  0  0
  5  6  2  0  0  0  0
  5  7  1  0  0  0  0
  7  8  1  0  0  0  0
  7  9  1  0  0  0  0
  9 10  1  0  0  0  0
  9 11  1  0  0  0  0
  9 23  1  0  0  0  0
 11 12  1  0  0  0  0
 11 13  1  0  0  0  0
 11 14  1  0  0  0  0
 14 15  1  0  0  0  0
 14 21  2  0  0  0  0
 15 16  1  0  0  0  0
 15 17  2  0  0  0  0
 17 18  1  0  0  0  0
 17 19  1  0  0  0  0
 19 20  1  0  0  0  0
 19 21  1  0  0  0  0
 21 22  1  0  0  0  0
 23 24  2  0  0  0  0
 23 25  1  0  0  0  0
 25 26  1  0  0  0  0
 25 27  1  0  0  0  0
 27 28  1  0  0  0  0
 27 29  1  0  0  0  0
 27 30  1  0  0  0  0
M  CHG  1  15   1
M  END
$$$$

  -OEChem-04042216003D

 30 30  0     1  0  0  0  0  0999 V2000
   -3.1444   -3.9239    1.6470 H   0  0  0  0  0  0  0  0  0  0  0  0
   -3.1911   -3.0947    0.9345 C   0  0  0  0  0  0  0  0  0  0  0  0
   -3.8317   -2.3139    1.3508 H   0  0  0  0  0  0  0  0  0  0  0  0
   -3.6268   -3.4603    0.0019 H   0  0  0  0  0  0  0  0  0  0  0  0
   -1.7978   -2.5515    0.6821 C   0  0  0  0  0  0  0  0  0  0  0  0
   -0.8364   -3.0657    1.2212 O   0  0  0  0  0  0  0  0  0  0  0  0
   -1.6077   -1.4696   -0.1600 N   0  0  0  0  0  0  0  0  0  0  0  0
   -2.4477   -1.0009   -0.4797 H   0  0  0  0  0  0  0  0  0  0  0  0
   -0.3088   -0.7688   -0.2668 C   0  0  1  0  0  0  0  0  0  0  0  0
    0.4268   -1.5473   -0.5056 H   0  0  0  0  0  0  0  0  0  0  0  0
   -0.2264    0.2552   -1.4148 C   0  0  0  0  0  0  0  0  0  0  0  0
   -0.7882    1.1487   -1.1220 H   0  0  0  0  0  0  0  0  0  0  0  0
    0.8162    0.5674   -1.5468 H   0  0  0  0  0  0  0  0  0  0  0  0
   -0.7820   -0.2567   -2.7237 C   0  0  0  0  0  0  0  0  0  0  0  0
    0.0043   -0.6552   -3.8068 N   0  3  0  0  0  0  0  0  0  0  0  0
    1.0259   -0.7180   -3.7590 H   0  0  0  0  0  0  0  0  0  0  0  0
   -0.7492   -0.9538   -4.8366 C   0  0  0  0  0  0  0  0  0  0  0  0
   -0.4043   -1.3088   -5.8102 H   0  0  0  0  0  0  0  0  0  0  0  0
   -2.0701   -0.7257   -4.4584 N   0  0  0  0  0  0  0  0  0  0  0  0
   -2.8907   -0.8449   -5.0611 H   0  0  0  0  0  0  0  0  0  0  0  0
   -2.0901   -0.2674   -3.1451 C   0  0  0  0  0  0  0  0  0  0  0  0
   -2.9619    0.0513   -2.5758 H   0  0  0  0  0  0  0  0  0  0  0  0
    0.2168   -0.1384    1.0385 C   0  0  0  0  0  0  0  0  0  0  0  0
    1.4241    0.0073    1.1537 O   0  0  0  0  0  0  0  0  0  0  0  0
   -0.6288    0.5852    1.8609 N   0  0  0  0  0  0  0  0  0  0  0  0
   -1.6181    0.3687    1.8002 H   0  0  0  0  0  0  0  0  0  0  0  0
   -0.1498    1.2797    3.0540 C   0  0  0  0  0  0  0  0  0  0  0  0
    0.6167    2.0169    2.7907 H   0  0  0  0  0  0  0  0  0  0  0  0
   -0.9740    1.8053    3.5462 H   0  0  0  0  0  0  0  0  0  0  0  0
    0.2812    0.5670    3.7659 H   0  0  0  0  0  0  0  0  0  0  0  0
  1  2  1  0  0  0  0
  2  3  1  0  0  0  0
  2  4  1  0  0  0  0
  2  5  1  0  0  0  0
  5  6  2  0  0  0  0
  5  7  1  0  0  0  0
  7  8  1  0  0  0  0
  7  9  1  0  0  0  0
  9 10  1  0  0  0  0
  9 11  1  0  0  0  0
  9 23  1  0  0  0  0
 11 12  1  0  0  0  0
 11 13  1  0  0  0  0
 11 14  1  0  0  0  0
 14 15  1  0  0  0  0
 14 21  2  0  0  0  0
 15 16  1  0  0  0  0
 15 17  2  0  0  0  0
 17 18  1  0  0  0  0
 17 19  1  0  0  0  0
 19 20  1  0  0  0  0
 19 21  1  0  0  0  0
 21 22  1  0  0  0  0
 23 24  2  0  0  0  0
 23 25  1  0  0  0  0
 25 26  1  0  0  0  0
 25 27  1  0  0  0  0
 27 28  1  0  0  0  0
 27 29  1  0  0  0  0
 27 30  1  0  0  0  0
M  CHG  1  15   1
M  END
$$$$

  -OEChem-04042216003D

 30 30  0     1  0  0  0  0  0999 V2000
   -3.1828   -3.9221    1.5841 H   0  0  0  0  0  0  0  0  0  0  0  0
   -3.2099   -3.0951    0.8680 C   0  0  0  0  0  0  0  0  0  0  0  0
   -3.8742   -2.3197    1.2566 H   0  0  0  0  0  0  0  0  0  0  0  0
   -3.6052   -3.4674   -0.0799 H   0  0  0  0  0  0  0  0  0  0  0  0
   -1.8136   -2.5374    0.6687 C   0  0  0  0  0  0  0  0  0  0  0  0
   -0.8666   -3.0447    1.2390 O   0  0  0  0  0  0  0  0  0  0  0  0
   -1.6003   -1.4554   -0.1673 N   0  0  0  0  0  0  0  0  0  0  0  0
   -2.4266   -1.0109   -0.5526 H   0  0  0  0  0  0  0  0  0  0  0  0
   -0.2954   -0.7642   -0.2620 C   0  0  1  0  0  0  0  0  0  0  0  0
    0.4383   -1.5431   -0.5036 H   0  0  0  0  0  0  0  0  0  0  0  0
   -0.2198    0.2705   -1.3994 C   0  0  0  0  0  0  0  0  0  0  0  0
   -0.7762    1.1640   -1.0964 H   0  0  0  0  0  0  0  0  0  0  0  0
    0.8223    0.5798   -1.5430 H   0  0  0  0  0  0  0  0  0  0  0  0
   -0.7892   -0.2453   -2.6987 C   0  0  0  0  0  0  0  0  0  0  0  0
   -0.0528   -0.9193   -3.6745 N   0  3  0  0  0  0  0  0  0  0  0  0
    0.9271   -1.1897   -3.5449 H   0  0  0  0  0  0  0  0  0  0  0  0
   -0.7960   -1.1524   -4.7284 C   0  0  0  0  0  0  0  0  0  0  0  0
   -0.4847   -1.6709   -5.6380 H   0  0  0  0  0  0  0  0  0  0  0  0
   -2.0526   -0.6067   -4.4740 N   0  0  0  0  0  0  0  0  0  0  0  0
   -2.8434   -0.6040   -5.1263 H   0  0  0  0  0  0  0  0  0  0  0  0
   -2.0433   -0.0208   -3.2123 C   0  0  0  0  0  0  0  0  0  0  0  0
   -2.8519    0.5358   -2.7386 H   0  0  0  0  0  0  0  0  0  0  0  0
    0.2269   -0.1388    1.0466 C   0  0  0  0  0  0  0  0  0  0  0  0
    1.4349   -0.0040    1.1685 O   0  0  0  0  0  0  0  0  0  0  0  0
   -0.6173    0.5912    1.8644 N   0  0  0  0  0  0  0  0  0  0  0  0
   -1.6080    0.3825    1.7990 H   0  0  0  0  0  0  0  0  0  0  0  0
   -0.1377    1.2884    3.0553 C   0  0  0  0  0  0  0  0  0  0  0  0
    0.6074    2.0448    2.7851 H   0  0  0  0  0  0  0  0  0  0  0  0
   -0.9666    1.7906    3.5638 H   0  0  0  0  0  0  0  0  0  0  0  0
    0.3211    0.5815    3.7555 H   0  0  0  0  0  0  0  0  0  0  0  0
  1  2  1  0  0  0  0
  2  3  1  0  0  0  0
  2  4  1  0  0  0  0
  2  5  1  0  0  0  0
  5  6  2  0  0  0  0
  5  7  1  0  0  0  0
  7  8  1  0  0  0  0
  7  9  1  0  0  0  0
  9 10  1  0  0  0  0
  9 11  1  0  0  0  0
  9 23  1  0  0  0  0
 11 12  1  0  0  0  0
 11 13  1  0  0  0  0
 11 14  1  0  0  0  0
 14 15  1  0  0  0  0
 14 21  2  0  0  0  0
 15 16  1  0  0  0  0
 15 17  2  0  0  0  0
 17 18  1  0  0  0  0
 17 19  1  0  0  0  0
 19 20  1  0  0  0  0
 19 21  1  0  0  0  0
 21 22  1  0  0  0  0
 23 24  2  0  0  0  0
 23 25  1  0  0  0  0
 25 26  1  0  0  0  0
 25 27  1  0  0  0  0
 27 28  1  0  0  0  0
 27 29  1  0  0  0  0
 27 30  1  0  0  0  0
M  CHG  1  15   1
M  END
$$$$

  -OEChem-04042216003D

 30 30  0     1  0  0  0  0  0999 V2000
   -3.1841   -3.9137    1.5411 H   0  0  0  0  0  0  0  0  0  0  0  0
   -3.2118   -3.0644    0.8516 C   0  0  0  0  0  0  0  0  0  0  0  0
   -3.8546   -2.2907    1.2779 H   0  0  0  0  0  0  0  0  0  0  0  0
   -3.6327   -3.3997   -0.0990 H   0  0  0  0  0  0  0  0  0  0  0  0
   -1.8109   -2.5236    0.6400 C   0  0  0  0  0  0  0  0  0  0  0  0
   -0.8622   -3.0528    1.1872 O   0  0  0  0  0  0  0  0  0  0  0  0
   -1.5934   -1.4359   -0.1874 N   0  0  0  0  0  0  0  0  0  0  0  0
   -2.4200   -0.9744   -0.5540 H   0  0  0  0  0  0  0  0  0  0  0  0
   -0.2871   -0.7463   -0.2711 C   0  0  1  0  0  0  0  0  0  0  0  0
    0.4490   -1.5222   -0.5146 H   0  0  0  0  0  0  0  0  0  0  0  0
   -0.2170    0.2940   -1.4029 C   0  0  0  0  0  0  0  0  0  0  0  0
   -0.7701    1.1884   -1.0963 H   0  0  0  0  0  0  0  0  0  0  0  0
    0.8256    0.5994   -1.5521 H   0  0  0  0  0  0  0  0  0  0  0  0
   -0.7895   -0.2277   -2.6988 C   0  0  0  0  0  0  0  0  0  0  0  0
   -0.1569   -1.1445   -3.5405 N   0  3  0  0  0  0  0  0  0  0  0  0
    0.7362   -1.5902   -3.3083 H   0  0  0  0  0  0  0  0  0  0  0  0
   -0.8692   -1.3346   -4.6244 C   0  0  0  0  0  0  0  0  0  0  0  0
   -0.6202   -2.0000   -5.4539 H   0  0  0  0  0  0  0  0  0  0  0  0
   -1.9968   -0.5218   -4.5239 N   0  0  0  0  0  0  0  0  0  0  0  0
   -2.7287   -0.4282   -5.2356 H   0  0  0  0  0  0  0  0  0  0  0  0
   -1.9403    0.1826   -3.3255 C   0  0  0  0  0  0  0  0  0  0  0  0
   -2.6459    0.9325   -2.9667 H   0  0  0  0  0  0  0  0  0  0  0  0
    0.2283   -0.1323    1.0452 C   0  0  0  0  0  0  0  0  0  0  0  0
    1.4359   -0.0098    1.1806 O   0  0  0  0  0  0  0  0  0  0  0  0
   -0.6198    0.5923    1.8639 N   0  0  0  0  0  0  0  0  0  0  0  0
   -1.6117    0.3940    1.7828 H   0  0  0  0  0  0  0  0  0  0  0  0
   -0.1490    1.2642    3.0727 C   0  0  0  0  0  0  0  0  0  0  0  0
    0.6337    1.9911    2.8299 H   0  0  0  0  0  0  0  0  0  0  0  0
   -0.9721    1.7977    3.5583 H   0  0  0  0  0  0  0  0  0  0  0  0
    0.2591    0.5360    3.7823 H   0  0  0  0  0  0  0  0  0  0  0  0
  1  2  1  0  0  0  0
  2  3  1  0  0  0  0
  2  4  1  0  0  0  0
  2  5  1  0  0  0  0
  5  6  2  0  0  0  0
  5  7  1  0  0  0  0
  7  8  1  0  0  0  0
  7  9  1  0  0  0  0
  9 10  1  0  0  0  0
  9 11  1  0  0  0  0
  9 23  1  0  0  0  0
 11 12  1  0  0  0  0
 11 13  1  0  0  0  0
 11 14  1  0  0  0  0
 14 15  1  0  0  0  0
 14 21  2  0  0  0  0
 15 16  1  0  0  0  0
 15 17  2  0  0  0  0
 17 18  1  0  0  0  0
 17 19  1  0  0  0  0
 19 20  1  0  0  0  0
 19 21  1  0  0  0  0
 21 22  1  0  0  0  0
 23 24  2  0  0  0  0
 23 25  1  0  0  0  0
 25 26  1  0  0  0  0
 25 27  1  0  0  0  0
 27 28  1  0  0  0  0
 27 29  1  0  0  0  0
 27 30  1  0  0  0  0
M  CHG  1  15   1
M  END
$$$$

  -OEChem-04042216003D

 30 30  0     1  0  0  0  0  0999 V2000
   -3.1889   -3.8924    1.5278 H   0  0  0  0  0  0  0  0  0  0  0  0
   -3.2143   -3.0337    0.8500 C   0  0  0  0  0  0  0  0  0  0  0  0
   -3.8262   -2.2505    1.3032 H   0  0  0  0  0  0  0  0  0  0  0  0
   -3.6689   -3.3456   -0.0932 H   0  0  0  0  0  0  0  0  0  0  0  0
   -1.8069   -2.5235    0.6084 C   0  0  0  0  0  0  0  0  0  0  0  0
   -0.8547   -3.0877    1.1129 O   0  0  0  0  0  0  0  0  0  0  0  0
   -1.5856   -1.4306   -0.2106 N   0  0  0  0  0  0  0  0  0  0  0  0
   -2.4136   -0.9417   -0.5386 H   0  0  0  0  0  0  0  0  0  0  0  0
   -0.2784   -0.7410   -0.2773 C   0  0  1  0  0  0  0  0  0  0  0  0
    0.4627   -1.5124   -0.5193 H   0  0  0  0  0  0  0  0  0  0  0  0
   -0.2118    0.3056   -1.4029 C   0  0  0  0  0  0  0  0  0  0  0  0
   -0.7611    1.2018   -1.0945 H   0  0  0  0  0  0  0  0  0  0  0  0
    0.8325    0.6053   -1.5516 H   0  0  0  0  0  0  0  0  0  0  0  0
   -0.7794   -0.2129   -2.7026 C   0  0  0  0  0  0  0  0  0  0  0  0
   -0.3047   -1.3232   -3.4040 N   0  3  0  0  0  0  0  0  0  0  0  0
    0.4614   -1.9121   -3.0626 H   0  0  0  0  0  0  0  0  0  0  0  0
   -0.9712   -1.4748   -4.5224 C   0  0  0  0  0  0  0  0  0  0  0  0
   -0.8126   -2.2556   -5.2695 H   0  0  0  0  0  0  0  0  0  0  0  0
   -1.9119   -0.4482   -4.5834 N   0  0  0  0  0  0  0  0  0  0  0  0
   -2.5649   -0.2832   -5.3564 H   0  0  0  0  0  0  0  0  0  0  0  0
   -1.7869    0.3466   -3.4486 C   0  0  0  0  0  0  0  0  0  0  0  0
   -2.3516    1.2479   -3.2079 H   0  0  0  0  0  0  0  0  0  0  0  0
    0.2260   -0.1355    1.0473 C   0  0  0  0  0  0  0  0  0  0  0  0
    1.4325   -0.0275    1.2010 O   0  0  0  0  0  0  0  0  0  0  0  0
   -0.6270    0.5852    1.8645 N   0  0  0  0  0  0  0  0  0  0  0  0
   -1.6207    0.4078    1.7627 H   0  0  0  0  0  0  0  0  0  0  0  0
   -0.1661    1.2544    3.0787 C   0  0  0  0  0  0  0  0  0  0  0  0
    0.6255    1.9753    2.8461 H   0  0  0  0  0  0  0  0  0  0  0  0
   -0.9912    1.7951    3.5529 H   0  0  0  0  0  0  0  0  0  0  0  0
    0.2269    0.5235    3.7940 H   0  0  0  0  0  0  0  0  0  0  0  0
  1  2  1  0  0  0  0
  2  3  1  0  0  0  0
  2  4  1  0  0  0  0
  2  5  1  0  0  0  0
  5  6  2  0  0  0  0
  5  7  1  0  0  0  0
  7  8  1  0  0  0  0
  7  9  1  0  0  0  0
  9 10  1  0  0  0  0
  9 11  1  0  0  0  0
  9 23  1  0  0  0  0
 11 12  1  0  0  0  0
 11 13  1  0  0  0  0
 11 14  1  0  0  0  0
 14 15  1  0  0  0  0
 14 21  2  0  0  0  0
 15 16  1  0  0  0  0
 15 17  2  0  0  0  0
 17 18  1  0  0  0  0
 17 19  1  0  0  0  0
 19 20  1  0  0  0  0
 19 21  1  0  0  0  0
 21 22  1  0  0  0  0
 23 24  2  0  0  0  0
 23 25  1  0  0  0  0
 25 26  1  0  0  0  0
 25 27  1  0  0  0  0
 27 28  1  0  0  0  0
 27 29  1  0  0  0  0
 27 30  1  0  0  0  0
M  CHG  1  15   1
M  END
$$$$

  -OEChem-04042216003D

 30 30  0     1  0  0  0  0  0999 V2000
   -3.1851   -3.8662    1.5515 H   0  0  0  0  0  0  0  0  0  0  0  0
   -3.2132   -3.0072    0.8741 C   0  0  0  0  0  0  0  0  0  0  0  0
   -3.7943   -2.2115    1.3459 H   0  0  0  0  0  0  0  0  0  0  0  0
   -3.7040   -3.3093   -0.0538 H   0  0  0  0  0  0  0  0  0  0  0  0
   -1.8035   -2.5267    0.5880 C   0  0  0  0  0  0  0  0  0  0  0  0
   -0.8466   -3.1230    1.0441 O   0  0  0  0  0  0  0  0  0  0  0  0
   -1.5840   -1.4308   -0.2272 N   0  0  0  0  0  0  0  0  0  0  0  0
   -2.4140   -0.9163   -0.5093 H   0  0  0  0  0  0  0  0  0  0  0  0
   -0.2761   -0.7404   -0.2822 C   0  0  1  0  0  0  0  0  0  0  0  0
    0.4701   -1.5082   -0.5203 H   0  0  0  0  0  0  0  0  0  0  0  0
   -0.2047    0.3066   -1.4072 C   0  0  0  0  0  0  0  0  0  0  0  0
   -0.7503    1.2064   -1.1029 H   0  0  0  0  0  0  0  0  0  0  0  0
    0.8431    0.5979   -1.5492 H   0  0  0  0  0  0  0  0  0  0  0  0
   -0.7617   -0.2068   -2.7149 C   0  0  0  0  0  0  0  0  0  0  0  0
   -0.4983   -1.4575   -3.2789 N   0  3  0  0  0  0  0  0  0  0  0  0
    0.0919   -2.1603   -2.8226 H   0  0  0  0  0  0  0  0  0  0  0  0
   -1.1025   -1.5720   -4.4365 C   0  0  0  0  0  0  0  0  0  0  0  0
   -1.0665   -2.4369   -5.1026 H   0  0  0  0  0  0  0  0  0  0  0  0
   -1.7905   -0.3808   -4.6608 N   0  0  0  0  0  0  0  0  0  0  0  0
   -2.3407   -0.1580   -5.4966 H   0  0  0  0  0  0  0  0  0  0  0  0
   -1.5755    0.4746   -3.5853 C   0  0  0  0  0  0  0  0  0  0  0  0
   -1.9537    1.4904   -3.4633 H   0  0  0  0  0  0  0  0  0  0  0  0
    0.2175   -0.1405    1.0492 C   0  0  0  0  0  0  0  0  0  0  0  0
    1.4223   -0.0410    1.2187 O   0  0  0  0  0  0  0  0  0  0  0  0
   -0.6410    0.5763    1.8640 N   0  0  0  0  0  0  0  0  0  0  0  0
   -1.6359    0.4198    1.7425 H   0  0  0  0  0  0  0  0  0  0  0  0
   -0.1884    1.2458    3.0812 C   0  0  0  0  0  0  0  0  0  0  0  0
    0.5700    2.0006    2.8458 H   0  0  0  0  0  0  0  0  0  0  0  0
   -1.0263    1.7457    3.5772 H   0  0  0  0  0  0  0  0  0  0  0  0
    0.2450    0.5216    3.7798 H   0  0  0  0  0  0  0  0  0  0  0  0
  1  2  1  0  0  0  0
  2  3  1  0  0  0  0
  2  4  1  0  0  0  0
  2  5  1  0  0  0  0
  5  6  2  0  0  0  0
  5  7  1  0  0  0  0
  7  8  1  0  0  0  0
  7  9  1  0  0  0  0
  9 10  1  0  0  0  0
  9 11  1  0  0  0  0
  9 23  1  0  0  0  0
 11 12  1  0  0  0  0
 11 13  1  0  0  0  0
 11 14  1  0  0  0  0
 14 15  1  0  0  0  0
 14 21  2  0  0  0  0
 15 16  1  0  0  0  0
 15 17  2  0  0  0  0
 17 18  1  0  0  0  0
 17 19  1  0  0  0  0
 19 20  1  0  0  0  0
 19 21  1  0  0  0  0
 21 22  1  0  0  0  0
 23 24  2  0  0  0  0
 23 25  1  0  0  0  0
 25 26  1  0  0  0  0
 25 27  1  0  0  0  0
 27 28  1  0  0  0  0
 27 29  1  0  0  0  0
 27 30  1  0  0  0  0
M  CHG  1  15   1
M  END
$$$$

  -OEChem-04042216003D

 30 30  0     1  0  0  0  0  0999 V2000
   -3.1601   -3.8570    1.5967 H   0  0  0  0  0  0  0  0  0  0  0  0
   -3.2005   -2.9914    0.9284 C   0  0  0  0  0  0  0  0  0  0  0  0
   -3.7436   -2.1881    1.4322 H   0  0  0  0  0  0  0  0  0  0  0  0
   -3.7382   -3.2749    0.0207 H   0  0  0  0  0  0  0  0  0  0  0  0
   -1.7954   -2.5367    0.5838 C   0  0  0  0  0  0  0  0  0  0  0  0
   -0.8311   -3.1634    0.9791 O   0  0  0  0  0  0  0  0  0  0  0  0
   -1.5877   -1.4399   -0.2339 N   0  0  0  0  0  0  0  0  0  0  0  0
   -2.4217   -0.9042   -0.4619 H   0  0  0  0  0  0  0  0  0  0  0  0
   -0.2819   -0.7431   -0.2854 C   0  0  1  0  0  0  0  0  0  0  0  0
    0.4705   -1.5065   -0.5196 H   0  0  0  0  0  0  0  0  0  0  0  0
   -0.2079    0.2991   -1.4156 C   0  0  0  0  0  0  0  0  0  0  0  0
   -0.7564    1.1994   -1.1178 H   0  0  0  0  0  0  0  0  0  0  0  0
    0.8412    0.5896   -1.5496 H   0  0  0  0  0  0  0  0  0  0  0  0
   -0.7512   -0.2098   -2.7322 C   0  0  0  0  0  0  0  0  0  0  0  0
   -0.7366   -1.5343   -3.1776 N   0  3  0  0  0  0  0  0  0  0  0  0
   -0.3599   -2.3035   -2.6138 H   0  0  0  0  0  0  0  0  0  0  0  0
   -1.2550   -1.6191   -4.3785 C   0  0  0  0  0  0  0  0  0  0  0  0
   -1.3619   -2.5278   -4.9751 H   0  0  0  0  0  0  0  0  0  0  0  0
   -1.6361   -0.3316   -4.7523 N   0  0  0  0  0  0  0  0  0  0  0  0
   -2.0538   -0.0704   -5.6513 H   0  0  0  0  0  0  0  0  0  0  0  0
   -1.3207    0.5496   -3.7234 C   0  0  0  0  0  0  0  0  0  0  0  0
   -1.4704    1.6300   -3.7086 H   0  0  0  0  0  0  0  0  0  0  0  0
    0.2042   -0.1413    1.0481 C   0  0  0  0  0  0  0  0  0  0  0  0
    1.4074   -0.0478    1.2300 O   0  0  0  0  0  0  0  0  0  0  0  0
   -0.6593    0.5720    1.8613 N   0  0  0  0  0  0  0  0  0  0  0  0
   -1.6547    0.4342    1.7230 H   0  0  0  0  0  0  0  0  0  0  0  0
   -0.2142    1.2434    3.0802 C   0  0  0  0  0  0  0  0  0  0  0  0
    0.5455    1.9979    2.8488 H   0  0  0  0  0  0  0  0  0  0  0  0
   -1.0554    1.7439    3.5699 H   0  0  0  0  0  0  0  0  0  0  0  0
    0.2147    0.5201    3.7825 H   0  0  0  0  0  0  0  0  0  0  0  0
  1  2  1  0  0  0  0
  2  3  1  0  0  0  0
  2  4  1  0  0  0  0
  2  5  1  0  0  0  0
  5  6  2  0  0  0  0
  5  7  1  0  0  0  0
  7  8  1  0  0  0  0
  7  9  1  0  0  0  0
  9 10  1  0  0  0  0
  9 11  1  0  0  0  0
  9 23  1  0  0  0  0
 11 12  1  0  0  0  0
 11 13  1  0  0  0  0
 11 14  1  0  0  0  0
 14 15  1  0  0  0  0
 14 21  2  0  0  0  0
 15 16  1  0  0  0  0
 15 17  2  0  0  0  0
 17 18  1  0  0  0  0
 17 19  1  0  0  0  0
 19 20  1  0  0  0  0
 19 21  1  0  0  0  0
 21 22  1  0  0  0  0
 23 24  2  0  0  0  0
 23 25  1  0  0  0  0
 25 26  1  0  0  0  0
 25 27  1  0  0  0  0
 27 28  1  0  0  0  0
 27 29  1  0  0  0  0
 27 30  1  0  0  0  0
M  CHG  1  15   1
M  END
$$$$

  -OEChem-04042216003D

 30 30  0     1  0  0  0  0  0999 V2000
   -3.1300   -3.8515    1.6632 H   0  0  0  0  0  0  0  0  0  0  0  0
   -3.1873   -2.9827    1.0002 C   0  0  0  0  0  0  0  0  0  0  0  0
   -3.6946   -2.1738    1.5314 H   0  0  0  0  0  0  0  0  0  0  0  0
   -3.7697   -3.2542    0.1168 H   0  0  0  0  0  0  0  0  0  0  0  0
   -1.7917   -2.5486    0.5954 C   0  0  0  0  0  0  0  0  0  0  0  0
   -0.8220   -3.1959    0.9391 O   0  0  0  0  0  0  0  0  0  0  0  0
   -1.6010   -1.4541   -0.2300 N   0  0  0  0  0  0  0  0  0  0  0  0
   -2.4378   -0.9015   -0.4025 H   0  0  0  0  0  0  0  0  0  0  0  0
   -0.2969   -0.7505   -0.2879 C   0  0  1  0  0  0  0  0  0  0  0  0
    0.4578   -1.5133   -0.5193 H   0  0  0  0  0  0  0  0  0  0  0  0
   -0.2159    0.2844   -1.4265 C   0  0  0  0  0  0  0  0  0  0  0  0
   -0.7694    1.1841   -1.1368 H   0  0  0  0  0  0  0  0  0  0  0  0
    0.8337    0.5780   -1.5496 H   0  0  0  0  0  0  0  0  0  0  0  0
   -0.7451   -0.2164   -2.7532 C   0  0  0  0  0  0  0  0  0  0  0  0
   -1.0041   -1.5422   -3.1094 N   0  3  0  0  0  0  0  0  0  0  0  0
   -0.8496   -2.3238   -2.4634 H   0  0  0  0  0  0  0  0  0  0  0  0
   -1.4208   -1.6121   -4.3500 C   0  0  0  0  0  0  0  0  0  0  0  0
   -1.6790   -2.5212   -4.8973 H   0  0  0  0  0  0  0  0  0  0  0  0
   -1.4615   -0.3089   -4.8414 N   0  0  0  0  0  0  0  0  0  0  0  0
   -1.7314   -0.0372   -5.7921 H   0  0  0  0  0  0  0  0  0  0  0  0
   -1.0378    0.5630   -3.8442 C   0  0  0  0  0  0  0  0  0  0  0  0
   -0.9360    1.6470   -3.9132 H   0  0  0  0  0  0  0  0  0  0  0  0
    0.1885   -0.1425    1.0433 C   0  0  0  0  0  0  0  0  0  0  0  0
    1.3909   -0.0482    1.2282 O   0  0  0  0  0  0  0  0  0  0  0  0
   -0.6768    0.5689    1.8564 N   0  0  0  0  0  0  0  0  0  0  0  0
   -1.6724    0.4414    1.7112 H   0  0  0  0  0  0  0  0  0  0  0  0
   -0.2329    1.2452    3.0732 C   0  0  0  0  0  0  0  0  0  0  0  0
    0.5167    2.0088    2.8380 H   0  0  0  0  0  0  0  0  0  0  0  0
   -1.0772    1.7355    3.5677 H   0  0  0  0  0  0  0  0  0  0  0  0
    0.2085    0.5269    3.7729 H   0  0  0  0  0  0  0  0  0  0  0  0
  1  2  1  0  0  0  0
  2  3  1  0  0  0  0
  2  4  1  0  0  0  0
  2  5  1  0  0  0  0
  5  6  2  0  0  0  0
  5  7  1  0  0  0  0
  7  8  1  0  0  0  0
  7  9  1  0  0  0  0
  9 10  1  0  0  0  0
  9 11  1  0  0  0  0
  9 23  1  0  0  0  0
 11 12  1  0  0  0  0
 11 13  1  0  0  0  0
 11 14  1  0  0  0  0
 14 15  1  0  0  0  0
 14 21  2  0  0  0  0
 15 16  1  0  0  0  0
 15 17  2  0  0  0  0
 17 18  1  0  0  0  0
 17 19  1  0  0  0  0
 19 20  1  0  0  0  0
 19 21  1  0  0  0  0
 21 22  1  0  0  0  0
 23 24  2  0  0  0  0
 23 25  1  0  0  0  0
 25 26  1  0  0  0  0
 25 27  1  0  0  0  0
 27 28  1  0  0  0  0
 27 29  1  0  0  0  0
 27 30  1  0  0  0  0
M  CHG  1  15   1
M  END
$$$$

  -OEChem-04042216003D

 30 30  0     1  0  0  0  0  0999 V2000
   -3.1056   -3.8541    1.7236 H   0  0  0  0  0  0  0  0  0  0  0  0
   -3.1748   -2.9829    1.0649 C   0  0  0  0  0  0  0  0  0  0  0  0
   -3.6589   -2.1712    1.6130 H   0  0  0  0  0  0  0  0  0  0  0  0
   -3.7863   -3.2473    0.1992 H   0  0  0  0  0  0  0  0  0  0  0  0
   -1.7882   -2.5594    0.6199 C   0  0  0  0  0  0  0  0  0  0  0  0
   -0.8136   -3.2079    0.9453 O   0  0  0  0  0  0  0  0  0  0  0  0
   -1.6168   -1.4692   -0.2167 N   0  0  0  0  0  0  0  0  0  0  0  0
   -2.4555   -0.9066   -0.3452 H   0  0  0  0  0  0  0  0  0  0  0  0
   -0.3151   -0.7594   -0.2896 C   0  0  1  0  0  0  0  0  0  0  0  0
    0.4397   -1.5220   -0.5226 H   0  0  0  0  0  0  0  0  0  0  0  0
   -0.2334    0.2691   -1.4365 C   0  0  0  0  0  0  0  0  0  0  0  0
   -0.7976    1.1623   -1.1477 H   0  0  0  0  0  0  0  0  0  0  0  0
    0.8137    0.5743   -1.5540 H   0  0  0  0  0  0  0  0  0  0  0  0
   -0.7567   -0.2214   -2.7706 C   0  0  0  0  0  0  0  0  0  0  0  0
   -1.2914   -1.4753   -3.0726 N   0  3  0  0  0  0  0  0  0  0  0  0
   -1.3487   -2.2237   -2.3735 H   0  0  0  0  0  0  0  0  0  0  0  0
   -1.5952   -1.5546   -4.3452 C   0  0  0  0  0  0  0  0  0  0  0  0
   -1.9991   -2.4267   -4.8636 H   0  0  0  0  0  0  0  0  0  0  0  0
   -1.2868   -0.3214   -4.9152 N   0  0  0  0  0  0  0  0  0  0  0  0
   -1.3978   -0.0758   -5.9043 H   0  0  0  0  0  0  0  0  0  0  0  0
   -0.7564    0.5083   -3.9333 C   0  0  0  0  0  0  0  0  0  0  0  0
   -0.3929    1.5293   -4.0570 H   0  0  0  0  0  0  0  0  0  0  0  0
    0.1770   -0.1413    1.0353 C   0  0  0  0  0  0  0  0  0  0  0  0
    1.3801   -0.0428    1.2131 O   0  0  0  0  0  0  0  0  0  0  0  0
   -0.6848    0.5709    1.8518 N   0  0  0  0  0  0  0  0  0  0  0  0
   -1.6813    0.4490    1.7091 H   0  0  0  0  0  0  0  0  0  0  0  0
   -0.2352    1.2506    3.0648 C   0  0  0  0  0  0  0  0  0  0  0  0
    0.5197    2.0077    2.8252 H   0  0  0  0  0  0  0  0  0  0  0  0
   -1.0756    1.7493    3.5578 H   0  0  0  0  0  0  0  0  0  0  0  0
    0.2012    0.5326    3.7680 H   0  0  0  0  0  0  0  0  0  0  0  0
  1  2  1  0  0  0  0
  2  3  1  0  0  0  0
  2  4  1  0  0  0  0
  2  5  1  0  0  0  0
  5  6  2  0  0  0  0
  5  7  1  0  0  0  0
  7  8  1  0  0  0  0
  7  9  1  0  0  0  0
  9 10  1  0  0  0  0
  9 11  1  0  0  0  0
  9 23  1  0  0  0  0
 11 12  1  0  0  0  0
 11 13  1  0  0  0  0
 11 14  1  0  0  0  0
 14 15  1  0  0  0  0
 14 21  2  0  0  0  0
 15 16  1  0  0  0  0
 15 17  2  0  0  0  0
 17 18  1  0  0  0  0
 17 19  1  0  0  0  0
 19 20  1  0  0  0  0
 19 21  1  0  0  0  0
 21 22  1  0  0  0  0
 23 24  2  0  0  0  0
 23 25  1  0  0  0  0
 25 26  1  0  0  0  0
 25 27  1  0  0  0  0
 27 28  1  0  0  0  0
 27 29  1  0  0  0  0
 27 30  1  0  0  0  0
M  CHG  1  15   1
M  END
$$$$

  -OEChem-04042216003D

 30 30  0     1  0  0  0  0  0999 V2000
   -3.0843   -3.8319    1.7977 H   0  0  0  0  0  0  0  0  0  0  0  0
   -3.1682   -2.9771    1.1196 C   0  0  0  0  0  0  0  0  0  0  0  0
   -3.6387   -2.1519    1.6593 H   0  0  0  0  0  0  0  0  0  0  0  0
   -3.8005   -3.2616    0.2755 H   0  0  0  0  0  0  0  0  0  0  0  0
   -1.7920   -2.5672    0.6314 C   0  0  0  0  0  0  0  0  0  0  0  0
   -0.8132   -3.2177    0.9394 O   0  0  0  0  0  0  0  0  0  0  0  0
   -1.6394   -1.4762   -0.2093 N   0  0  0  0  0  0  0  0  0  0  0  0
   -2.4758   -0.9013   -0.2869 H   0  0  0  0  0  0  0  0  0  0  0  0
   -0.3382   -0.7650   -0.2936 C   0  0  1  0  0  0  0  0  0  0  0  0
    0.4117   -1.5318   -0.5299 H   0  0  0  0  0  0  0  0  0  0  0  0
   -0.2483    0.2585   -1.4454 C   0  0  0  0  0  0  0  0  0  0  0  0
   -0.8193    1.1485   -1.1596 H   0  0  0  0  0  0  0  0  0  0  0  0
    0.7977    0.5702   -1.5536 H   0  0  0  0  0  0  0  0  0  0  0  0
   -0.7656   -0.2234   -2.7856 C   0  0  0  0  0  0  0  0  0  0  0  0
   -1.5569   -1.3385   -3.0648 N   0  3  0  0  0  0  0  0  0  0  0  0
   -1.8046   -2.0195   -2.3400 H   0  0  0  0  0  0  0  0  0  0  0  0
   -1.7598   -1.4517   -4.3551 C   0  0  0  0  0  0  0  0  0  0  0  0
   -2.3008   -2.2541   -4.8610 H   0  0  0  0  0  0  0  0  0  0  0  0
   -1.1283   -0.3697   -4.9633 N   0  0  0  0  0  0  0  0  0  0  0  0
   -1.0946   -0.1857   -5.9712 H   0  0  0  0  0  0  0  0  0  0  0  0
   -0.4982    0.3900   -3.9846 C   0  0  0  0  0  0  0  0  0  0  0  0
    0.1029    1.2885   -4.1324 H   0  0  0  0  0  0  0  0  0  0  0  0
    0.1671   -0.1474    1.0268 C   0  0  0  0  0  0  0  0  0  0  0  0
    1.3717   -0.0445    1.1911 O   0  0  0  0  0  0  0  0  0  0  0  0
   -0.6864    0.5640    1.8528 N   0  0  0  0  0  0  0  0  0  0  0  0
   -1.6842    0.4421    1.7214 H   0  0  0  0  0  0  0  0  0  0  0  0
   -0.2237    1.2509    3.0568 C   0  0  0  0  0  0  0  0  0  0  0  0
    0.5230    2.0118    2.8040 H   0  0  0  0  0  0  0  0  0  0  0  0
   -1.0600    1.7461    3.5599 H   0  0  0  0  0  0  0  0  0  0  0  0
    0.2273    0.5382    3.7562 H   0  0  0  0  0  0  0  0  0  0  0  0
  1  2  1  0  0  0  0
  2  3  1  0  0  0  0
  2  4  1  0  0  0  0
  2  5  1  0  0  0  0
  5  6  2  0  0  0  0
  5  7  1  0  0  0  0
  7  8  1  0  0  0  0
  7  9  1  0  0  0  0
  9 10  1  0  0  0  0
  9 11  1  0  0  0  0
  9 23  1  0  0  0  0
 11 12  1  0  0  0  0
 11 13  1  0  0  0  0
 11 14  1  0  0  0  0
 14 15  1  0  0  0  0
 14 21  2  0  0  0  0
 15 16  1  0  0  0  0
 15 17  2  0  0  0  0
 17 18  1  0  0  0  0
 17 19  1  0  0  0  0
 19 20  1  0  0  0  0
 19 21  1  0  0  0  0
 21 22  1  0  0  0  0
 23 24  2  0  0  0  0
 23 25  1  0  0  0  0
 25 26  1  0  0  0  0
 25 27  1  0  0  0  0
 27 28  1  0  0  0  0
 27 29  1  0  0  0  0
 27 30  1  0  0  0  0
M  CHG  1  15   1
M  END
$$$$

  -OEChem-04042216003D

 30 30  0     1  0  0  0  0  0999 V2000
   -3.0762   -3.8358    1.8038 H   0  0  0  0  0  0  0  0  0  0  0  0
   -3.1721   -2.9790    1.1296 C   0  0  0  0  0  0  0  0  0  0  0  0
   -3.6434   -2.1587    1.6760 H   0  0  0  0  0  0  0  0  0  0  0  0
   -3.8097   -3.2661    0.2904 H   0  0  0  0  0  0  0  0  0  0  0  0
   -1.8023   -2.5590    0.6313 C   0  0  0  0  0  0  0  0  0  0  0  0
   -0.8181   -3.2011    0.9406 O   0  0  0  0  0  0  0  0  0  0  0  0
   -1.6633   -1.4622   -0.2058 N   0  0  0  0  0  0  0  0  0  0  0  0
   -2.4952   -0.8775   -0.2390 H   0  0  0  0  0  0  0  0  0  0  0  0
   -0.3607   -0.7535   -0.2974 C   0  0  1  0  0  0  0  0  0  0  0  0
    0.3812   -1.5267   -0.5386 H   0  0  0  0  0  0  0  0  0  0  0  0
   -0.2586    0.2634   -1.4530 C   0  0  0  0  0  0  0  0  0  0  0  0
   -0.8286    1.1558   -1.1738 H   0  0  0  0  0  0  0  0  0  0  0  0
    0.7889    0.5728   -1.5542 H   0  0  0  0  0  0  0  0  0  0  0  0
   -0.7723   -0.2217   -2.7936 C   0  0  0  0  0  0  0  0  0  0  0  0
   -1.7817   -1.1449   -3.0690 N   0  3  0  0  0  0  0  0  0  0  0  0
   -2.2148   -1.7068   -2.3316 H   0  0  0  0  0  0  0  0  0  0  0  0
   -1.9060   -1.3229   -4.3620 C   0  0  0  0  0  0  0  0  0  0  0  0
   -2.5763   -2.0261   -4.8605 H   0  0  0  0  0  0  0  0  0  0  0  0
   -0.9968   -0.4700   -4.9816 N   0  0  0  0  0  0  0  0  0  0  0  0
   -0.8466   -0.3862   -5.9920 H   0  0  0  0  0  0  0  0  0  0  0  0
   -0.2803    0.2068   -4.0022 C   0  0  0  0  0  0  0  0  0  0  0  0
    0.5225    0.9298   -4.1540 H   0  0  0  0  0  0  0  0  0  0  0  0
    0.1630   -0.1448    1.0200 C   0  0  0  0  0  0  0  0  0  0  0  0
    1.3701   -0.0414    1.1665 O   0  0  0  0  0  0  0  0  0  0  0  0
   -0.6771    0.5650    1.8612 N   0  0  0  0  0  0  0  0  0  0  0  0
   -1.6770    0.4454    1.7452 H   0  0  0  0  0  0  0  0  0  0  0  0
   -0.1942    1.2421    3.0630 C   0  0  0  0  0  0  0  0  0  0  0  0
    0.5498    2.0035    2.8041 H   0  0  0  0  0  0  0  0  0  0  0  0
   -1.0215    1.7352    3.5831 H   0  0  0  0  0  0  0  0  0  0  0  0
    0.2668    0.5232    3.7497 H   0  0  0  0  0  0  0  0  0  0  0  0
  1  2  1  0  0  0  0
  2  3  1  0  0  0  0
  2  4  1  0  0  0  0
  2  5  1  0  0  0  0
  5  6  2  0  0  0  0
  5  7  1  0  0  0  0
  7  8  1  0  0  0  0
  7  9  1  0  0  0  0
  9 10  1  0  0  0  0
  9 11  1  0  0  0  0
  9 23  1  0  0  0  0
 11 12  1  0  0  0  0
 11 13  1  0  0  0  0
 11 14  1  0  0  0  0
 14 15  1  0  0  0  0
 14 21  2  0  0  0  0
 15 16  1  0  0  0  0
 15 17  2  0  0  0  0
 17 18  1  0  0  0  0
 17 19  1  0  0  0  0
 19 20  1  0  0  0  0
 19 21  1  0  0  0  0
 21 22  1  0  0  0  0
 23 24  2  0  0  0  0
 23 25  1  0  0  0  0
 25 26  1  0  0  0  0
 25 27  1  0  0  0  0
 27 28  1  0  0  0  0
 27 29  1  0  0  0  0
 27 30  1  0  0  0  0
M  CHG  1  15   1
M  END
$$$$

  -OEChem-04042216003D

 30 30  0     1  0  0  0  0  0999 V2000
   -3.0834   -3.8379    1.7860 H   0  0  0  0  0  0  0  0  0  0  0  0
   -3.1803   -2.9821    1.1107 C   0  0  0  0  0  0  0  0  0  0  0  0
   -3.6636   -2.1659    1.6529 H   0  0  0  0  0  0  0  0  0  0  0  0
   -3.8069   -3.2748    0.2652 H   0  0  0  0  0  0  0  0  0  0  0  0
   -1.8105   -2.5508    0.6226 C   0  0  0  0  0  0  0  0  0  0  0  0
   -0.8241   -3.1850    0.9414 O   0  0  0  0  0  0  0  0  0  0  0  0
   -1.6782   -1.4448   -0.2032 N   0  0  0  0  0  0  0  0  0  0  0  0
   -2.5077   -0.8581   -0.2108 H   0  0  0  0  0  0  0  0  0  0  0  0
   -0.3758   -0.7386   -0.2984 C   0  0  1  0  0  0  0  0  0  0  0  0
    0.3584   -1.5162   -0.5482 H   0  0  0  0  0  0  0  0  0  0  0  0
   -0.2683    0.2755   -1.4544 C   0  0  0  0  0  0  0  0  0  0  0  0
   -0.8331    1.1726   -1.1792 H   0  0  0  0  0  0  0  0  0  0  0  0
    0.7811    0.5788   -1.5540 H   0  0  0  0  0  0  0  0  0  0  0  0
   -0.7836   -0.2167   -2.7922 C   0  0  0  0  0  0  0  0  0  0  0  0
   -1.9566   -0.9100   -3.0972 N   0  3  0  0  0  0  0  0  0  0  0  0
   -2.5752   -1.2812   -2.3743 H   0  0  0  0  0  0  0  0  0  0  0  0
   -2.0205   -1.1680   -4.3816 C   0  0  0  0  0  0  0  0  0  0  0  0
   -2.7985   -1.7375   -4.8938 H   0  0  0  0  0  0  0  0  0  0  0  0
   -0.8921   -0.6050   -4.9700 N   0  0  0  0  0  0  0  0  0  0  0  0
   -0.6512   -0.6459   -5.9655 H   0  0  0  0  0  0  0  0  0  0  0  0
   -0.1167   -0.0202   -3.9770 C   0  0  0  0  0  0  0  0  0  0  0  0
    0.8396    0.4897   -4.1034 H   0  0  0  0  0  0  0  0  0  0  0  0
    0.1668   -0.1438    1.0177 C   0  0  0  0  0  0  0  0  0  0  0  0
    1.3760   -0.0379    1.1452 O   0  0  0  0  0  0  0  0  0  0  0  0
   -0.6602    0.5607    1.8762 N   0  0  0  0  0  0  0  0  0  0  0  0
   -1.6611    0.4312    1.7822 H   0  0  0  0  0  0  0  0  0  0  0  0
   -0.1582    1.2289    3.0754 C   0  0  0  0  0  0  0  0  0  0  0  0
    0.5832    1.9908    2.8106 H   0  0  0  0  0  0  0  0  0  0  0  0
   -0.9766    1.7198    3.6111 H   0  0  0  0  0  0  0  0  0  0  0  0
    0.3118    0.5053    3.7505 H   0  0  0  0  0  0  0  0  0  0  0  0
  1  2  1  0  0  0  0
  2  3  1  0  0  0  0
  2  4  1  0  0  0  0
  2  5  1  0  0  0  0
  5  6  2  0  0  0  0
  5  7  1  0  0  0  0
  7  8  1  0  0  0  0
  7  9  1  0  0  0  0
  9 10  1  0  0  0  0
  9 11  1  0  0  0  0
  9 23  1  0  0  0  0
 11 12  1  0  0  0  0
 11 13  1  0  0  0  0
 11 14  1  0  0  0  0
 14 15  1  0  0  0  0
 14 21  2  0  0  0  0
 15 16  1  0  0  0  0
 15 17  2  0  0  0  0
 17 18  1  0  0  0  0
 17 19  1  0  0  0  0
 19 20  1  0  0  0  0
 19 21  1  0  0  0  0
 21 22  1  0  0  0  0
 23 24  2  0  0  0  0
 23 25  1  0  0  0  0
 25 26  1  0  0  0  0
 25 27  1  0  0  0  0
 27 28  1  0  0  0  0
 27 29  1  0  0  0  0
 27 30  1  0  0  0  0
M  CHG  1  15   1
M  END
$$$$

  -OEChem-04042216003D

 30 30  0     1  0  0  0  0  0999 V2000
   -3.0922   -3.8655    1.7299 H   0  0  0  0  0  0  0  0  0  0  0  0
   -3.1873   -3.0076    1.0571 C   0  0  0  0  0  0  0  0  0  0  0  0
   -3.7073   -2.2066    1.5875 H   0  0  0  0  0  0  0  0  0  0  0  0
   -3.7780   -3.3096    0.1892 H   0  0  0  0  0  0  0  0  0  0  0  0
   -1.8123   -2.5419    0.6174 C   0  0  0  0  0  0  0  0  0  0  0  0
   -0.8227   -3.1500    0.9767 O   0  0  0  0  0  0  0  0  0  0  0  0
   -1.6768   -1.4297   -0.1991 N   0  0  0  0  0  0  0  0  0  0  0  0
   -2.5128   -0.8566   -0.2352 H   0  0  0  0  0  0  0  0  0  0  0  0
   -0.3752   -0.7258   -0.2990 C   0  0  1  0  0  0  0  0  0  0  0  0
    0.3530   -1.5065   -0.5565 H   0  0  0  0  0  0  0  0  0  0  0  0
   -0.2639    0.2958   -1.4477 C   0  0  0  0  0  0  0  0  0  0  0  0
   -0.8117    1.2024   -1.1698 H   0  0  0  0  0  0  0  0  0  0  0  0
    0.7897    0.5829   -1.5510 H   0  0  0  0  0  0  0  0  0  0  0  0
   -0.7893   -0.1946   -2.7815 C   0  0  0  0  0  0  0  0  0  0  0  0
   -2.0707   -0.6254   -3.1346 N   0  3  0  0  0  0  0  0  0  0  0  0
   -2.8407   -0.6845   -2.4680 H   0  0  0  0  0  0  0  0  0  0  0  0
   -2.1062   -0.9816   -4.3966 C   0  0  0  0  0  0  0  0  0  0  0  0
   -2.9699   -1.3715   -4.9393 H   0  0  0  0  0  0  0  0  0  0  0  0
   -0.8317   -0.7787   -4.9174 N   0  0  0  0  0  0  0  0  0  0  0  0
   -0.5385   -0.9748   -5.8799 H   0  0  0  0  0  0  0  0  0  0  0  0
   -0.0110   -0.2893   -3.9097 C   0  0  0  0  0  0  0  0  0  0  0  0
    1.0479   -0.0370   -3.9878 H   0  0  0  0  0  0  0  0  0  0  0  0
    0.1770   -0.1426    1.0181 C   0  0  0  0  0  0  0  0  0  0  0  0
    1.3868   -0.0237    1.1307 O   0  0  0  0  0  0  0  0  0  0  0  0
   -0.6462    0.5553    1.8851 N   0  0  0  0  0  0  0  0  0  0  0  0
   -1.6444    0.3942    1.8148 H   0  0  0  0  0  0  0  0  0  0  0  0
   -0.1366    1.2153    3.0854 C   0  0  0  0  0  0  0  0  0  0  0  0
    0.5953    1.9862    2.8200 H   0  0  0  0  0  0  0  0  0  0  0  0
   -0.9533    1.6938    3.6348 H   0  0  0  0  0  0  0  0  0  0  0  0
    0.3470    0.4889    3.7480 H   0  0  0  0  0  0  0  0  0  0  0  0
  1  2  1  0  0  0  0
  2  3  1  0  0  0  0
  2  4  1  0  0  0  0
  2  5  1  0  0  0  0
  5  6  2  0  0  0  0
  5  7  1  0  0  0  0
  7  8  1  0  0  0  0
  7  9  1  0  0  0  0
  9 10  1  0  0  0  0
  9 11  1  0  0  0  0
  9 23  1  0  0  0  0
 11 12  1  0  0  0  0
 11 13  1  0  0  0  0
 11 14  1  0  0  0  0
 14 15  1  0  0  0  0
 14 21  2  0  0  0  0
 15 16  1  0  0  0  0
 15 17  2  0  0  0  0
 17 18  1  0  0  0  0
 17 19  1  0  0  0  0
 19 20  1  0  0  0  0
 19 21  1  0  0  0  0
 21 22  1  0  0  0  0
 23 24  2  0  0  0  0
 23 25  1  0  0  0  0
 25 26  1  0  0  0  0
 25 27  1  0  0  0  0
 27 28  1  0  0  0  0
 27 29  1  0  0  0  0
 27 30  1  0  0  0  0
M  CHG  1  15   1
M  END
$$$$

  -OEChem-04042216003D

 30 30  0     1  0  0  0  0  0999 V2000
   -3.1240   -3.8687    1.6758 H   0  0  0  0  0  0  0  0  0  0  0  0
   -3.1976   -3.0301    0.9764 C   0  0  0  0  0  0  0  0  0  0  0  0
   -3.7767   -2.2337    1.4492 H   0  0  0  0  0  0  0  0  0  0  0  0
   -3.7174   -3.3698    0.0777 H   0  0  0  0  0  0  0  0  0  0  0  0
   -1.8103   -2.5320    0.6192 C   0  0  0  0  0  0  0  0  0  0  0  0
   -0.8298   -3.1080    1.0495 O   0  0  0  0  0  0  0  0  0  0  0  0
   -1.6511   -1.4242   -0.1978 N   0  0  0  0  0  0  0  0  0  0  0  0
   -2.4957   -0.8826   -0.3382 H   0  0  0  0  0  0  0  0  0  0  0  0
   -0.3493   -0.7236   -0.2946 C   0  0  1  0  0  0  0  0  0  0  0  0
    0.3790   -1.5038   -0.5517 H   0  0  0  0  0  0  0  0  0  0  0  0
   -0.2446    0.3086   -1.4339 C   0  0  0  0  0  0  0  0  0  0  0  0
   -0.7788    1.2205   -1.1475 H   0  0  0  0  0  0  0  0  0  0  0  0
    0.8107    0.5849   -1.5488 H   0  0  0  0  0  0  0  0  0  0  0  0
   -0.7843   -0.1836   -2.7592 C   0  0  0  0  0  0  0  0  0  0  0  0
   -2.1102   -0.3464   -3.1704 N   0  3  0  0  0  0  0  0  0  0  0  0
   -2.9112   -0.0937   -2.5899 H   0  0  0  0  0  0  0  0  0  0  0  0
   -2.1550   -0.8000   -4.4009 C   0  0  0  0  0  0  0  0  0  0  0  0
   -3.0531   -1.0098   -4.9858 H   0  0  0  0  0  0  0  0  0  0  0  0
   -0.8403   -0.9570   -4.8312 N   0  0  0  0  0  0  0  0  0  0  0  0
   -0.5470   -1.3011   -5.7512 H   0  0  0  0  0  0  0  0  0  0  0  0
    0.0142   -0.5672   -3.8084 C   0  0  0  0  0  0  0  0  0  0  0  0
    1.1055   -0.5701   -3.8225 H   0  0  0  0  0  0  0  0  0  0  0  0
    0.1946   -0.1349    1.0232 C   0  0  0  0  0  0  0  0  0  0  0  0
    1.4038   -0.0129    1.1398 O   0  0  0  0  0  0  0  0  0  0  0  0
   -0.6350    0.5675    1.8803 N   0  0  0  0  0  0  0  0  0  0  0  0
   -1.6300    0.3852    1.8134 H   0  0  0  0  0  0  0  0  0  0  0  0
   -0.1342    1.2155    3.0907 C   0  0  0  0  0  0  0  0  0  0  0  0
    0.6176    1.9722    2.8405 H   0  0  0  0  0  0  0  0  0  0  0  0
   -0.9513    1.7089    3.6262 H   0  0  0  0  0  0  0  0  0  0  0  0
    0.3225    0.4779    3.7599 H   0  0  0  0  0  0  0  0  0  0  0  0
  1  2  1  0  0  0  0
  2  3  1  0  0  0  0
  2  4  1  0  0  0  0
  2  5  1  0  0  0  0
  5  6  2  0  0  0  0
  5  7  1  0  0  0  0
  7  8  1  0  0  0  0
  7  9  1  0  0  0  0
  9 10  1  0  0  0  0
  9 11  1  0  0  0  0
  9 23  1  0  0  0  0
 11 12  1  0  0  0  0
 11 13  1  0  0  0  0
 11 14  1  0  0  0  0
 14 15  1  0  0  0  0
 14 21  2  0  0  0  0
 15 16  1  0  0  0  0
 15 17  2  0  0  0  0
 17 18  1  0  0  0  0
 17 19  1  0  0  0  0
 19 20  1  0  0  0  0
 19 21  1  0  0  0  0
 21 22  1  0  0  0  0
 23 24  2  0  0  0  0
 23 25  1  0  0  0  0
 25 26  1  0  0  0  0
 25 27  1  0  0  0  0
 27 28  1  0  0  0  0
 27 29  1  0  0  0  0
 27 30  1  0  0  0  0
M  CHG  1  15   1
M  END
$$$$

  -OEChem-04042216003D

 30 30  0     1  0  0  0  0  0999 V2000
   -3.1726   -3.8872    1.5783 H   0  0  0  0  0  0  0  0  0  0  0  0
   -3.2138   -3.0454    0.8803 C   0  0  0  0  0  0  0  0  0  0  0  0
   -3.8393   -2.2626    1.3156 H   0  0  0  0  0  0  0  0  0  0  0  0
   -3.6630   -3.3891   -0.0543 H   0  0  0  0  0  0  0  0  0  0  0  0
   -1.8153   -2.5178    0.6242 C   0  0  0  0  0  0  0  0  0  0  0  0
   -0.8559   -3.0618    1.1361 O   0  0  0  0  0  0  0  0  0  0  0  0
   -1.6191   -1.4191   -0.1951 N   0  0  0  0  0  0  0  0  0  0  0  0
   -2.4574   -0.9217   -0.4708 H   0  0  0  0  0  0  0  0  0  0  0  0
   -0.3125   -0.7282   -0.2845 C   0  0  1  0  0  0  0  0  0  0  0  0
    0.4164   -1.5091   -0.5369 H   0  0  0  0  0  0  0  0  0  0  0  0
   -0.2176    0.3123   -1.4165 C   0  0  0  0  0  0  0  0  0  0  0  0
   -0.7421    1.2271   -1.1216 H   0  0  0  0  0  0  0  0  0  0  0  0
    0.8377    0.5816   -1.5480 H   0  0  0  0  0  0  0  0  0  0  0  0
   -0.7749   -0.1857   -2.7298 C   0  0  0  0  0  0  0  0  0  0  0  0
   -2.0816   -0.0851   -3.2149 N   0  3  0  0  0  0  0  0  0  0  0  0
   -2.8224    0.4231   -2.7268 H   0  0  0  0  0  0  0  0  0  0  0  0
   -2.1664   -0.6299   -4.4058 C   0  0  0  0  0  0  0  0  0  0  0  0
   -3.0552   -0.6769   -5.0388 H   0  0  0  0  0  0  0  0  0  0  0  0
   -0.9043   -1.1249   -4.7256 N   0  0  0  0  0  0  0  0  0  0  0  0
   -0.6509   -1.6077   -5.5937 H   0  0  0  0  0  0  0  0  0  0  0  0
   -0.0336   -0.8393   -3.6821 C   0  0  0  0  0  0  0  0  0  0  0  0
    1.0281   -1.0845   -3.6190 H   0  0  0  0  0  0  0  0  0  0  0  0
    0.2181   -0.1314    1.0351 C   0  0  0  0  0  0  0  0  0  0  0  0
    1.4264   -0.0074    1.1607 O   0  0  0  0  0  0  0  0  0  0  0  0
   -0.6203    0.5828    1.8737 N   0  0  0  0  0  0  0  0  0  0  0  0
   -1.6121    0.3820    1.8066 H   0  0  0  0  0  0  0  0  0  0  0  0
   -0.1335    1.2365    3.0868 C   0  0  0  0  0  0  0  0  0  0  0  0
    0.6399    1.9739    2.8451 H   0  0  0  0  0  0  0  0  0  0  0  0
   -0.9517    1.7550    3.5963 H   0  0  0  0  0  0  0  0  0  0  0  0
    0.2918    0.4987    3.7762 H   0  0  0  0  0  0  0  0  0  0  0  0
  1  2  1  0  0  0  0
  2  3  1  0  0  0  0
  2  4  1  0  0  0  0
  2  5  1  0  0  0  0
  5  6  2  0  0  0  0
  5  7  1  0  0  0  0
  7  8  1  0  0  0  0
  7  9  1  0  0  0  0
  9 10  1  0  0  0  0
  9 11  1  0  0  0  0
  9 23  1  0  0  0  0
 11 12  1  0  0  0  0
 11 13  1  0  0  0  0
 11 14  1  0  0  0  0
 14 15  1  0  0  0  0
 14 21  2  0  0  0  0
 15 16  1  0  0  0  0
 15 17  2  0  0  0  0
 17 18  1  0  0  0  0
 17 19  1  0  0  0  0
 19 20  1  0  0  0  0
 19 21  1  0  0  0  0
 21 22  1  0  0  0  0
 23 24  2  0  0  0  0
 23 25  1  0  0  0  0
 25 26  1  0  0  0  0
 25 27  1  0  0  0  0
 27 28  1  0  0  0  0
 27 29  1  0  0  0  0
 27 30  1  0  0  0  0
M  CHG  1  15   1
M  END
$$$$

  -OEChem-04042216003D

 30 30  0     1  0  0  0  0  0999 V2000
   -3.2170   -3.8974    1.5160 H   0  0  0  0  0  0  0  0  0  0  0  0
   -3.2261   -3.0692    0.8006 C   0  0  0  0  0  0  0  0  0  0  0  0
   -3.9057   -2.2978    1.1697 H   0  0  0  0  0  0  0  0  0  0  0  0
   -3.5901   -3.4414   -0.1596 H   0  0  0  0  0  0  0  0  0  0  0  0
   -1.8271   -2.5049    0.6444 C   0  0  0  0  0  0  0  0  0  0  0  0
   -0.8954   -3.0108    1.2401 O   0  0  0  0  0  0  0  0  0  0  0  0
   -1.5956   -1.4203   -0.1835 N   0  0  0  0  0  0  0  0  0  0  0  0
   -2.4106   -0.9842   -0.5999 H   0  0  0  0  0  0  0  0  0  0  0  0
   -0.2823   -0.7432   -0.2689 C   0  0  1  0  0  0  0  0  0  0  0  0
    0.4451   -1.5272   -0.5132 H   0  0  0  0  0  0  0  0  0  0  0  0
   -0.1923    0.3025   -1.3959 C   0  0  0  0  0  0  0  0  0  0  0  0
   -0.7104    1.2173   -1.0896 H   0  0  0  0  0  0  0  0  0  0  0  0
    0.8621    0.5686   -1.5395 H   0  0  0  0  0  0  0  0  0  0  0  0
   -0.7653   -0.1907   -2.7030 C   0  0  0  0  0  0  0  0  0  0  0  0
   -1.9828    0.1612   -3.2908 N   0  3  0  0  0  0  0  0  0  0  0  0
   -2.6057    0.8749   -2.9037 H   0  0  0  0  0  0  0  0  0  0  0  0
   -2.1247   -0.4559   -4.4402 C   0  0  0  0  0  0  0  0  0  0  0  0
   -2.9582   -0.3488   -5.1377 H   0  0  0  0  0  0  0  0  0  0  0  0
   -1.0014   -1.2605   -4.6206 N   0  0  0  0  0  0  0  0  0  0  0  0
   -0.8173   -1.8612   -5.4309 H   0  0  0  0  0  0  0  0  0  0  0  0
   -0.1482   -1.0881   -3.5381 C   0  0  0  0  0  0  0  0  0  0  0  0
    0.8209   -1.5631   -3.3749 H   0  0  0  0  0  0  0  0  0  0  0  0
    0.2365   -0.1335    1.0488 C   0  0  0  0  0  0  0  0  0  0  0  0
    1.4440   -0.0077    1.1824 O   0  0  0  0  0  0  0  0  0  0  0  0
   -0.6093    0.5982    1.8639 N   0  0  0  0  0  0  0  0  0  0  0  0
   -1.5984    0.3825    1.7981 H   0  0  0  0  0  0  0  0  0  0  0  0
   -0.1334    1.2711    3.0704 C   0  0  0  0  0  0  0  0  0  0  0  0
    0.6296    2.0167    2.8211 H   0  0  0  0  0  0  0  0  0  0  0  0
   -0.9594    1.7827    3.5738 H   0  0  0  0  0  0  0  0  0  0  0  0
    0.3013    0.5464    3.7676 H   0  0  0  0  0  0  0  0  0  0  0  0
  1  2  1  0  0  0  0
  2  3  1  0  0  0  0
  2  4  1  0  0  0  0
  2  5  1  0  0  0  0
  5  6  2  0  0  0  0
  5  7  1  0  0  0  0
  7  8  1  0  0  0  0
  7  9  1  0  0  0  0
  9 10  1  0  0  0  0
  9 11  1  0  0  0  0
  9 23  1  0  0  0  0
 11 12  1  0  0  0  0
 11 13  1  0  0  0  0
 11 14  1  0  0  0  0
 14 15  1  0  0  0  0
 14 21  2  0  0  0  0
 15 16  1  0  0  0  0
 15 17  2  0  0  0  0
 17 18  1  0  0  0  0
 17 19  1  0  0  0  0
 19 20  1  0  0  0  0
 19 21  1  0  0  0  0
 21 22  1  0  0  0  0
 23 24  2  0  0  0  0
 23 25  1  0  0  0  0
 25 26  1  0  0  0  0
 25 27  1  0  0  0  0
 27 28  1  0  0  0  0
 27 29  1  0  0  0  0
 27 30  1  0  0  0  0
M  CHG  1  15   1
M  END
$$$$

  -OEChem-04042216003D

 30 30  0     1  0  0  0  0  0999 V2000
   -3.2161   -3.8966    1.5012 H   0  0  0  0  0  0  0  0  0  0  0  0
   -3.2252   -3.0589    0.7972 C   0  0  0  0  0  0  0  0  0  0  0  0
   -3.8911   -2.2849    1.1858 H   0  0  0  0  0  0  0  0  0  0  0  0
   -3.6063   -3.4142   -0.1628 H   0  0  0  0  0  0  0  0  0  0  0  0
   -1.8222   -2.5081    0.6303 C   0  0  0  0  0  0  0  0  0  0  0  0
   -0.8894   -3.0286    1.2115 O   0  0  0  0  0  0  0  0  0  0  0  0
   -1.5855   -1.4228   -0.1949 N   0  0  0  0  0  0  0  0  0  0  0  0
   -2.3997   -0.9752   -0.6028 H   0  0  0  0  0  0  0  0  0  0  0  0
   -0.2721   -0.7445   -0.2685 C   0  0  1  0  0  0  0  0  0  0  0  0
    0.4613   -1.5246   -0.5078 H   0  0  0  0  0  0  0  0  0  0  0  0
   -0.1864    0.3025   -1.3948 C   0  0  0  0  0  0  0  0  0  0  0  0
   -0.7203    1.2059   -1.0828 H   0  0  0  0  0  0  0  0  0  0  0  0
    0.8638    0.5856   -1.5375 H   0  0  0  0  0  0  0  0  0  0  0  0
   -0.7538   -0.1901   -2.7053 C   0  0  0  0  0  0  0  0  0  0  0  0
   -1.8144    0.3590   -3.4300 N   0  3  0  0  0  0  0  0  0  0  0  0
   -2.2904    1.2234   -3.1572 H   0  0  0  0  0  0  0  0  0  0  0  0
   -2.0127   -0.3266   -4.5312 C   0  0  0  0  0  0  0  0  0  0  0  0
   -2.7496   -0.1101   -5.3077 H   0  0  0  0  0  0  0  0  0  0  0  0
   -1.0944   -1.3748   -4.5383 N   0  0  0  0  0  0  0  0  0  0  0  0
   -0.9935   -2.0794   -5.2763 H   0  0  0  0  0  0  0  0  0  0  0  0
   -0.3055   -1.2871   -3.3984 C   0  0  0  0  0  0  0  0  0  0  0  0
    0.5130   -1.9472   -3.1053 H   0  0  0  0  0  0  0  0  0  0  0  0
    0.2357   -0.1351    1.0534 C   0  0  0  0  0  0  0  0  0  0  0  0
    1.4421   -0.0132    1.1990 O   0  0  0  0  0  0  0  0  0  0  0  0
   -0.6158    0.5960    1.8629 N   0  0  0  0  0  0  0  0  0  0  0  0
   -1.6063    0.3903    1.7833 H   0  0  0  0  0  0  0  0  0  0  0  0
   -0.1483    1.2709    3.0714 C   0  0  0  0  0  0  0  0  0  0  0  0
    0.6088    2.0231    2.8237 H   0  0  0  0  0  0  0  0  0  0  0  0
   -0.9797    1.7748    3.5740 H   0  0  0  0  0  0  0  0  0  0  0  0
    0.2918    0.5493    3.7686 H   0  0  0  0  0  0  0  0  0  0  0  0
  1  2  1  0  0  0  0
  2  3  1  0  0  0  0
  2  4  1  0  0  0  0
  2  5  1  0  0  0  0
  5  6  2  0  0  0  0
  5  7  1  0  0  0  0
  7  8  1  0  0  0  0
  7  9  1  0  0  0  0
  9 10  1  0  0  0  0
  9 11  1  0  0  0  0
  9 23  1  0  0  0  0
 11 12  1  0  0  0  0
 11 13  1  0  0  0  0
 11 14  1  0  0  0  0
 14 15  1  0  0  0  0
 14 21  2  0  0  0  0
 15 16  1  0  0  0  0
 15 17  2  0  0  0  0
 17 18  1  0  0  0  0
 17 19  1  0  0  0  0
 19 20  1  0  0  0  0
 19 21  1  0  0  0  0
 21 22  1  0  0  0  0
 23 24  2  0  0  0  0
 23 25  1  0  0  0  0
 25 26  1  0  0  0  0
 25 27  1  0  0  0  0
 27 28  1  0  0  0  0
 27 29  1  0  0  0  0
 27 30  1  0  0  0  0
M  CHG  1  15   1
M  END
$$$$

  -OEChem-04042216003D

 30 30  0     1  0  0  0  0  0999 V2000
   -3.2014   -3.8921    1.5303 H   0  0  0  0  0  0  0  0  0  0  0  0
   -3.2154   -3.0484    0.8334 C   0  0  0  0  0  0  0  0  0  0  0  0
   -3.8555   -2.2656    1.2467 H   0  0  0  0  0  0  0  0  0  0  0  0
   -3.6302   -3.3883   -0.1182 H   0  0  0  0  0  0  0  0  0  0  0  0
   -1.8080   -2.5211    0.6322 C   0  0  0  0  0  0  0  0  0  0  0  0
   -0.8692   -3.0565    1.1897 O   0  0  0  0  0  0  0  0  0  0  0  0
   -1.5732   -1.4401   -0.1989 N   0  0  0  0  0  0  0  0  0  0  0  0
   -2.3923   -0.9755   -0.5786 H   0  0  0  0  0  0  0  0  0  0  0  0
   -0.2621   -0.7567   -0.2676 C   0  0  1  0  0  0  0  0  0  0  0  0
    0.4791   -1.5318   -0.4983 H   0  0  0  0  0  0  0  0  0  0  0  0
   -0.1818    0.2860   -1.3984 C   0  0  0  0  0  0  0  0  0  0  0  0
   -0.7326    1.1788   -1.0852 H   0  0  0  0  0  0  0  0  0  0  0  0
    0.8642    0.5858   -1.5368 H   0  0  0  0  0  0  0  0  0  0  0  0
   -0.7404   -0.2027   -2.7162 C   0  0  0  0  0  0  0  0  0  0  0  0
   -1.5895    0.5018   -3.5732 N   0  3  0  0  0  0  0  0  0  0  0  0
   -1.8807    1.4684   -3.4014 H   0  0  0  0  0  0  0  0  0  0  0  0
   -1.8604   -0.2168   -4.6371 C   0  0  0  0  0  0  0  0  0  0  0  0
   -2.4704    0.0895   -5.4897 H   0  0  0  0  0  0  0  0  0  0  0  0
   -1.2104   -1.4400   -4.4869 N   0  0  0  0  0  0  0  0  0  0  0  0
   -1.2162   -2.2094   -5.1645 H   0  0  0  0  0  0  0  0  0  0  0  0
   -0.5104   -1.4311   -3.2869 C   0  0  0  0  0  0  0  0  0  0  0  0
    0.1098   -2.2294   -2.8751 H   0  0  0  0  0  0  0  0  0  0  0  0
    0.2315   -0.1377    1.0556 C   0  0  0  0  0  0  0  0  0  0  0  0
    1.4358   -0.0132    1.2139 O   0  0  0  0  0  0  0  0  0  0  0  0
   -0.6305    0.5938    1.8540 N   0  0  0  0  0  0  0  0  0  0  0  0
   -1.6199    0.3887    1.7622 H   0  0  0  0  0  0  0  0  0  0  0  0
   -0.1796    1.2764    3.0645 C   0  0  0  0  0  0  0  0  0  0  0  0
    0.6014    2.0070    2.8271 H   0  0  0  0  0  0  0  0  0  0  0  0
   -1.0122    1.8076    3.5364 H   0  0  0  0  0  0  0  0  0  0  0  0
    0.2243    0.5554    3.7837 H   0  0  0  0  0  0  0  0  0  0  0  0
  1  2  1  0  0  0  0
  2  3  1  0  0  0  0
  2  4  1  0  0  0  0
  2  5  1  0  0  0  0
  5  6  2  0  0  0  0
  5  7  1  0  0  0  0
  7  8  1  0  0  0  0
  7  9  1  0  0  0  0
  9 10  1  0  0  0  0
  9 11  1  0  0  0  0
  9 23  1  0  0  0  0
 11 12  1  0  0  0  0
 11 13  1  0  0  0  0
 11 14  1  0  0  0  0
 14 15  1  0  0  0  0
 14 21  2  0  0  0  0
 15 16  1  0  0  0  0
 15 17  2  0  0  0  0
 17 18  1  0  0  0  0
 17 19  1  0  0  0  0
 19 20  1  0  0  0  0
 19 21  1  0  0  0  0
 21 22  1  0  0  0  0
 23 24  2  0  0  0  0
 23 25  1  0  0  0  0
 25 26  1  0  0  0  0
 25 27  1  0  0  0  0
 27 28  1  0  0  0  0
 27 29  1  0  0  0  0
 27 30  1  0  0  0  0
M  CHG  1  15   1
M  END
$$$$

  -OEChem-04042216003D

 30 30  0     1  0  0  0  0  0999 V2000
   -3.1978   -3.8831    1.5813 H   0  0  0  0  0  0  0  0  0  0  0  0
   -3.2156   -3.0413    0.8822 C   0  0  0  0  0  0  0  0  0  0  0  0
   -3.8381   -2.2498    1.3060 H   0  0  0  0  0  0  0  0  0  0  0  0
   -3.6537   -3.3786   -0.0599 H   0  0  0  0  0  0  0  0  0  0  0  0
   -1.8064   -2.5311    0.6507 C   0  0  0  0  0  0  0  0  0  0  0  0
   -0.8610   -3.0802    1.1830 O   0  0  0  0  0  0  0  0  0  0  0  0
   -1.5773   -1.4552   -0.1883 N   0  0  0  0  0  0  0  0  0  0  0  0
   -2.4022   -0.9743   -0.5357 H   0  0  0  0  0  0  0  0  0  0  0  0
   -0.2680   -0.7681   -0.2630 C   0  0  1  0  0  0  0  0  0  0  0  0
    0.4767   -1.5418   -0.4877 H   0  0  0  0  0  0  0  0  0  0  0  0
   -0.1888    0.2646   -1.4043 C   0  0  0  0  0  0  0  0  0  0  0  0
   -0.7484    1.1538   -1.0959 H   0  0  0  0  0  0  0  0  0  0  0  0
    0.8559    0.5708   -1.5380 H   0  0  0  0  0  0  0  0  0  0  0  0
   -0.7399   -0.2215   -2.7283 C   0  0  0  0  0  0  0  0  0  0  0  0
   -1.3310    0.5779   -3.7097 N   0  3  0  0  0  0  0  0  0  0  0  0
   -1.4105    1.5955   -3.6273 H   0  0  0  0  0  0  0  0  0  0  0  0
   -1.6713   -0.1490   -4.7474 C   0  0  0  0  0  0  0  0  0  0  0  0
   -2.1251    0.2127   -5.6726 H   0  0  0  0  0  0  0  0  0  0  0  0
   -1.3295   -1.4679   -4.4578 N   0  0  0  0  0  0  0  0  0  0  0  0
   -1.4525   -2.2701   -5.0839 H   0  0  0  0  0  0  0  0  0  0  0  0
   -0.7444   -1.5131   -3.1987 C   0  0  0  0  0  0  0  0  0  0  0  0
   -0.3500   -2.3900   -2.6816 H   0  0  0  0  0  0  0  0  0  0  0  0
    0.2231   -0.1396    1.0564 C   0  0  0  0  0  0  0  0  0  0  0  0
    1.4266   -0.0097    1.2156 O   0  0  0  0  0  0  0  0  0  0  0  0
   -0.6414    0.5938    1.8503 N   0  0  0  0  0  0  0  0  0  0  0  0
   -1.6312    0.3926    1.7547 H   0  0  0  0  0  0  0  0  0  0  0  0
   -0.1930    1.2856    3.0567 C   0  0  0  0  0  0  0  0  0  0  0  0
    0.5557    2.0460    2.8089 H   0  0  0  0  0  0  0  0  0  0  0  0
   -1.0354    1.7820    3.5484 H   0  0  0  0  0  0  0  0  0  0  0  0
    0.2510    0.5757    3.7633 H   0  0  0  0  0  0  0  0  0  0  0  0
  1  2  1  0  0  0  0
  2  3  1  0  0  0  0
  2  4  1  0  0  0  0
  2  5  1  0  0  0  0
  5  6  2  0  0  0  0
  5  7  1  0  0  0  0
  7  8  1  0  0  0  0
  7  9  1  0  0  0  0
  9 10  1  0  0  0  0
  9 11  1  0  0  0  0
  9 23  1  0  0  0  0
 11 12  1  0  0  0  0
 11 13  1  0  0  0  0
 11 14  1  0  0  0  0
 14 15  1  0  0  0  0
 14 21  2  0  0  0  0
 15 16  1  0  0  0  0
 15 17  2  0  0  0  0
 17 18  1  0  0  0  0
 17 19  1  0  0  0  0
 19 20  1  0  0  0  0
 19 21  1  0  0  0  0
 21 22  1  0  0  0  0
 23 24  2  0  0  0  0
 23 25  1  0  0  0  0
 25 26  1  0  0  0  0
 25 27  1  0  0  0  0
 27 28  1  0  0  0  0
 27 29  1  0  0  0  0
 27 30  1  0  0  0  0
M  CHG  1  15   1
M  END
$$$$

  -OEChem-04042216003D

 30 30  0     1  0  0  0  0  0999 V2000
   -3.1885   -3.8832    1.6498 H   0  0  0  0  0  0  0  0  0  0  0  0
   -3.2203   -3.0374    0.9563 C   0  0  0  0  0  0  0  0  0  0  0  0
   -3.8206   -2.2421    1.4042 H   0  0  0  0  0  0  0  0  0  0  0  0
   -3.6922   -3.3652    0.0273 H   0  0  0  0  0  0  0  0  0  0  0  0
   -1.8145   -2.5394    0.6817 C   0  0  0  0  0  0  0  0  0  0  0  0
   -0.8582   -3.0984    1.1830 O   0  0  0  0  0  0  0  0  0  0  0  0
   -1.6009   -1.4681   -0.1677 N   0  0  0  0  0  0  0  0  0  0  0  0
   -2.4331   -0.9738   -0.4778 H   0  0  0  0  0  0  0  0  0  0  0  0
   -0.2935   -0.7779   -0.2601 C   0  0  1  0  0  0  0  0  0  0  0  0
    0.4492   -1.5534   -0.4866 H   0  0  0  0  0  0  0  0  0  0  0  0
   -0.2171    0.2435   -1.4127 C   0  0  0  0  0  0  0  0  0  0  0  0
   -0.7736    1.1368   -1.1097 H   0  0  0  0  0  0  0  0  0  0  0  0
    0.8292    0.5441   -1.5457 H   0  0  0  0  0  0  0  0  0  0  0  0
   -0.7665   -0.2370   -2.7412 C   0  0  0  0  0  0  0  0  0  0  0  0
   -1.0739    0.5908   -3.8239 N   0  3  0  0  0  0  0  0  0  0  0  0
   -0.9512    1.6073   -3.8005 H   0  0  0  0  0  0  0  0  0  0  0  0
   -1.4607   -0.1235   -4.8538 C   0  0  0  0  0  0  0  0  0  0  0  0
   -1.7416    0.2564   -5.8386 H   0  0  0  0  0  0  0  0  0  0  0  0
   -1.4279   -1.4601   -4.4645 N   0  0  0  0  0  0  0  0  0  0  0  0
   -1.6484   -2.2635   -5.0620 H   0  0  0  0  0  0  0  0  0  0  0  0
   -0.9835   -1.5323   -3.1501 C   0  0  0  0  0  0  0  0  0  0  0  0
   -0.8091   -2.4340   -2.5599 H   0  0  0  0  0  0  0  0  0  0  0  0
    0.2102   -0.1398    1.0502 C   0  0  0  0  0  0  0  0  0  0  0  0
    1.4151   -0.0103    1.1986 O   0  0  0  0  0  0  0  0  0  0  0  0
   -0.6464    0.5971    1.8496 N   0  0  0  0  0  0  0  0  0  0  0  0
   -1.6387    0.4076    1.7563 H   0  0  0  0  0  0  0  0  0  0  0  0
   -0.1874    1.2938    3.0492 C   0  0  0  0  0  0  0  0  0  0  0  0
    0.5685    2.0444    2.7937 H   0  0  0  0  0  0  0  0  0  0  0  0
   -1.0232    1.8029    3.5391 H   0  0  0  0  0  0  0  0  0  0  0  0
    0.2509    0.5852    3.7605 H   0  0  0  0  0  0  0  0  0  0  0  0
  1  2  1  0  0  0  0
  2  3  1  0  0  0  0
  2  4  1  0  0  0  0
  2  5  1  0  0  0  0
  5  6  2  0  0  0  0
  5  7  1  0  0  0  0
  7  8  1  0  0  0  0
  7  9  1  0  0  0  0
  9 10  1  0  0  0  0
  9 11  1  0  0  0  0
  9 23  1  0  0  0  0
 11 12  1  0  0  0  0
 11 13  1  0  0  0  0
 11 14  1  0  0  0  0
 14 15  1  0  0  0  0
 14 21  2  0  0  0  0
 15 16  1  0  0  0  0
 15 17  2  0  0  0  0
 17 18  1  0  0  0  0
 17 19  1  0  0  0  0
 19 20  1  0  0  0  0
 19 21  1  0  0  0  0
 21 22  1  0  0  0  0
 23 24  2  0  0  0  0
 23 25  1  0  0  0  0
 25 26  1  0  0  0  0
 25 27  1  0  0  0  0
 27 28  1  0  0  0  0
 27 29  1  0  0  0  0
 27 30  1  0  0  0  0
M  CHG  1  15   1
M  END
$$$$

  -OEChem-04042216003D

 30 30  0     1  0  0  0  0  0999 V2000
   -3.0708   -3.9187    1.8896 H   0  0  0  0  0  0  0  0  0  0  0  0
   -3.1669   -3.0945    1.1764 C   0  0  0  0  0  0  0  0  0  0  0  0
   -3.7470   -2.2954    1.6438 H   0  0  0  0  0  0  0  0  0  0  0  0
   -3.6989   -3.4569    0.2939 H   0  0  0  0  0  0  0  0  0  0  0  0
   -1.7922   -2.5857    0.7872 C   0  0  0  0  0  0  0  0  0  0  0  0
   -0.7953   -3.1242    1.2277 O   0  0  0  0  0  0  0  0  0  0  0  0
   -1.6598   -1.5122   -0.0774 N   0  0  0  0  0  0  0  0  0  0  0  0
   -2.5181   -1.0067   -0.2797 H   0  0  0  0  0  0  0  0  0  0  0  0
   -0.3770   -0.7905   -0.2391 C   0  0  1  0  0  0  0  0  0  0  0  0
    0.3592   -1.5672   -0.4842 H   0  0  0  0  0  0  0  0  0  0  0  0
   -0.3116    0.2132   -1.4152 C   0  0  0  0  0  0  0  0  0  0  0  0
   -0.6323    1.1874   -1.0294 H   0  0  0  0  0  0  0  0  0  0  0  0
    0.7408    0.3186   -1.7047 H   0  0  0  0  0  0  0  0  0  0  0  0
   -1.1359   -0.0613   -2.6609 C   0  0  0  0  0  0  0  0  0  0  0  0
   -1.1360    0.7961   -3.7654 N   0  3  0  0  0  0  0  0  0  0  0  0
   -0.6328    1.6882   -3.7750 H   0  0  0  0  0  0  0  0  0  0  0  0
   -1.8216    0.2816   -4.7571 C   0  0  0  0  0  0  0  0  0  0  0  0
   -1.9807    0.7318   -5.7394 H   0  0  0  0  0  0  0  0  0  0  0  0
   -2.2897   -0.9571   -4.3307 N   0  0  0  0  0  0  0  0  0  0  0  0
   -2.8209   -1.6230   -4.9010 H   0  0  0  0  0  0  0  0  0  0  0  0
   -1.8382   -1.1845   -3.0361 C   0  0  0  0  0  0  0  0  0  0  0  0
   -1.9622   -2.0999   -2.4581 H   0  0  0  0  0  0  0  0  0  0  0  0
    0.1785   -0.1363    1.0425 C   0  0  0  0  0  0  0  0  0  0  0  0
    1.3842    0.0415    1.1176 O   0  0  0  0  0  0  0  0  0  0  0  0
   -0.6554    0.5809    1.8832 N   0  0  0  0  0  0  0  0  0  0  0  0
   -1.6444    0.3575    1.8496 H   0  0  0  0  0  0  0  0  0  0  0  0
   -0.1526    1.3075    3.0470 C   0  0  0  0  0  0  0  0  0  0  0  0
    0.5703    2.0720    2.7420 H   0  0  0  0  0  0  0  0  0  0  0  0
   -0.9745    1.8045    3.5717 H   0  0  0  0  0  0  0  0  0  0  0  0
    0.3393    0.6209    3.7448 H   0  0  0  0  0  0  0  0  0  0  0  0
  1  2  1  0  0  0  0
  2  3  1  0  0  0  0
  2  4  1  0  0  0  0
  2  5  1  0  0  0  0
  5  6  2  0  0  0  0
  5  7  1  0  0  0  0
  7  8  1  0  0  0  0
  7  9  1  0  0  0  0
  9 10  1  0  0  0  0
  9 11  1  0  0  0  0
  9 23  1  0  0  0  0
 11 12  1  0  0  0  0
 11 13  1  0  0  0  0
 11 14  1  0  0  0  0
 14 15  1  0  0  0  0
 14 21  2  0  0  0  0
 15 16  1  0  0  0  0
 15 17  2  0  0  0  0
 17 18  1  0  0  0  0
 17 19  1  0  0  0  0
 19 20  1  0  0  0  0
 19 21  1  0  0  0  0
 21 22  1  0  0  0  0
 23 24  2  0  0  0  0
 23 25  1  0  0  0  0
 25 26  1  0  0  0  0
 25 27  1  0  0  0  0
 27 28  1  0  0  0  0
 27 29  1  0  0  0  0
 27 30  1  0  0  0  0
M  CHG  1  15   1
M  END
$$$$

  -OEChem-04042216003D

 30 30  0     1  0  0  0  0  0999 V2000
   -3.0243   -3.9210    1.9652 H   0  0  0  0  0  0  0  0  0  0  0  0
   -3.1448   -3.1097    1.2407 C   0  0  0  0  0  0  0  0  0  0  0  0
   -3.7201   -2.3080    1.7095 H   0  0  0  0  0  0  0  0  0  0  0  0
   -3.6952   -3.4916    0.3780 H   0  0  0  0  0  0  0  0  0  0  0  0
   -1.7844   -2.5972    0.8078 C   0  0  0  0  0  0  0  0  0  0  0  0
   -0.7737   -3.1369    1.2146 O   0  0  0  0  0  0  0  0  0  0  0  0
   -1.6833   -1.5200   -0.0575 N   0  0  0  0  0  0  0  0  0  0  0  0
   -2.5459   -1.0013   -0.1960 H   0  0  0  0  0  0  0  0  0  0  0  0
   -0.4089   -0.7903   -0.2425 C   0  0  1  0  0  0  0  0  0  0  0  0
    0.3229   -1.5685   -0.4963 H   0  0  0  0  0  0  0  0  0  0  0  0
   -0.3457    0.2068   -1.4251 C   0  0  0  0  0  0  0  0  0  0  0  0
   -0.6536    1.1874   -1.0452 H   0  0  0  0  0  0  0  0  0  0  0  0
    0.7094    0.2965   -1.7102 H   0  0  0  0  0  0  0  0  0  0  0  0
   -1.1633   -0.0513   -2.6805 C   0  0  0  0  0  0  0  0  0  0  0  0
   -0.9037    0.6434   -3.8664 N   0  3  0  0  0  0  0  0  0  0  0  0
   -0.2056    1.3906   -3.9284 H   0  0  0  0  0  0  0  0  0  0  0  0
   -1.6425    0.1909   -4.8492 C   0  0  0  0  0  0  0  0  0  0  0  0
   -1.6406    0.5483   -5.8812 H   0  0  0  0  0  0  0  0  0  0  0  0
   -2.4151   -0.8438   -4.3341 N   0  0  0  0  0  0  0  0  0  0  0  0
   -3.0674   -1.4250   -4.8704 H   0  0  0  0  0  0  0  0  0  0  0  0
   -2.0967   -1.0156   -2.9921 C   0  0  0  0  0  0  0  0  0  0  0  0
   -2.4757   -1.8011   -2.3420 H   0  0  0  0  0  0  0  0  0  0  0  0
    0.1702   -0.1359    1.0289 C   0  0  0  0  0  0  0  0  0  0  0  0
    1.3765    0.0468    1.0799 O   0  0  0  0  0  0  0  0  0  0  0  0
   -0.6487    0.5747    1.8894 N   0  0  0  0  0  0  0  0  0  0  0  0
   -1.6390    0.3563    1.8698 H   0  0  0  0  0  0  0  0  0  0  0  0
   -0.1257    1.3054    3.0418 C   0  0  0  0  0  0  0  0  0  0  0  0
    0.5768    2.0819    2.7201 H   0  0  0  0  0  0  0  0  0  0  0  0
   -0.9408    1.7878    3.5900 H   0  0  0  0  0  0  0  0  0  0  0  0
    0.3950    0.6242    3.7240 H   0  0  0  0  0  0  0  0  0  0  0  0
  1  2  1  0  0  0  0
  2  3  1  0  0  0  0
  2  4  1  0  0  0  0
  2  5  1  0  0  0  0
  5  6  2  0  0  0  0
  5  7  1  0  0  0  0
  7  8  1  0  0  0  0
  7  9  1  0  0  0  0
  9 10  1  0  0  0  0
  9 11  1  0  0  0  0
  9 23  1  0  0  0  0
 11 12  1  0  0  0  0
 11 13  1  0  0  0  0
 11 14  1  0  0  0  0
 14 15  1  0  0  0  0
 14 21  2  0  0  0  0
 15 16  1  0  0  0  0
 15 17  2  0  0  0  0
 17 18  1  0  0  0  0
 17 19  1  0  0  0  0
 19 20  1  0  0  0  0
 19 21  1  0  0  0  0
 21 22  1  0  0  0  0
 23 24  2  0  0  0  0
 23 25  1  0  0  0  0
 25 26  1  0  0  0  0
 25 27  1  0  0  0  0
 27 28  1  0  0  0  0
 27 29  1  0  0  0  0
 27 30  1  0  0  0  0
M  CHG  1  15   1
M  END
$$$$

  -OEChem-04042216003D

 30 30  0     1  0  0  0  0  0999 V2000
   -3.0017   -3.9352    1.9508 H   0  0  0  0  0  0  0  0  0  0  0  0
   -3.1333   -3.1111    1.2429 C   0  0  0  0  0  0  0  0  0  0  0  0
   -3.6904   -2.3130    1.7387 H   0  0  0  0  0  0  0  0  0  0  0  0
   -3.7072   -3.4744    0.3877 H   0  0  0  0  0  0  0  0  0  0  0  0
   -1.7805   -2.6012    0.7851 C   0  0  0  0  0  0  0  0  0  0  0  0
   -0.7640   -3.1478    1.1678 O   0  0  0  0  0  0  0  0  0  0  0  0
   -1.6955   -1.5108   -0.0656 N   0  0  0  0  0  0  0  0  0  0  0  0
   -2.5568   -0.9811   -0.1540 H   0  0  0  0  0  0  0  0  0  0  0  0
   -0.4248   -0.7759   -0.2512 C   0  0  1  0  0  0  0  0  0  0  0  0
    0.3027   -1.5553   -0.5139 H   0  0  0  0  0  0  0  0  0  0  0  0
   -0.3514    0.2235   -1.4315 C   0  0  0  0  0  0  0  0  0  0  0  0
   -0.6521    1.2084   -1.0569 H   0  0  0  0  0  0  0  0  0  0  0  0
    0.7067    0.3043   -1.7070 H   0  0  0  0  0  0  0  0  0  0  0  0
   -1.1621   -0.0346   -2.6919 C   0  0  0  0  0  0  0  0  0  0  0  0
   -0.7119    0.4116   -3.9391 N   0  3  0  0  0  0  0  0  0  0  0  0
    0.1496    0.9536   -4.0548 H   0  0  0  0  0  0  0  0  0  0  0  0
   -1.5160    0.0236   -4.8978 C   0  0  0  0  0  0  0  0  0  0  0  0
   -1.4014    0.2279   -5.9648 H   0  0  0  0  0  0  0  0  0  0  0  0
   -2.5355   -0.7090   -4.3005 N   0  0  0  0  0  0  0  0  0  0  0  0
   -3.3071   -1.1687   -4.7945 H   0  0  0  0  0  0  0  0  0  0  0  0
   -2.3075   -0.7620   -2.9300 C   0  0  0  0  0  0  0  0  0  0  0  0
   -2.9087   -1.3049   -2.2059 H   0  0  0  0  0  0  0  0  0  0  0  0
    0.1681   -0.1385    1.0224 C   0  0  0  0  0  0  0  0  0  0  0  0
    1.3748    0.0454    1.0600 O   0  0  0  0  0  0  0  0  0  0  0  0
   -0.6397    0.5591    1.9038 N   0  0  0  0  0  0  0  0  0  0  0  0
   -1.6298    0.3396    1.8969 H   0  0  0  0  0  0  0  0  0  0  0  0
   -0.1009    1.2769    3.0571 C   0  0  0  0  0  0  0  0  0  0  0  0
    0.6002    2.0543    2.7345 H   0  0  0  0  0  0  0  0  0  0  0  0
   -0.9079    1.7566    3.6197 H   0  0  0  0  0  0  0  0  0  0  0  0
    0.4261    0.5881    3.7265 H   0  0  0  0  0  0  0  0  0  0  0  0
  1  2  1  0  0  0  0
  2  3  1  0  0  0  0
  2  4  1  0  0  0  0
  2  5  1  0  0  0  0
  5  6  2  0  0  0  0
  5  7  1  0  0  0  0
  7  8  1  0  0  0  0
  7  9  1  0  0  0  0
  9 10  1  0  0  0  0
  9 11  1  0  0  0  0
  9 23  1  0  0  0  0
 11 12  1  0  0  0  0
 11 13  1  0  0  0  0
 11 14  1  0  0  0  0
 14 15  1  0  0  0  0
 14 21  2  0  0  0  0
 15 16  1  0  0  0  0
 15 17  2  0  0  0  0
 17 18  1  0  0  0  0
 17 19  1  0  0  0  0
 19 20  1  0  0  0  0
 19 21  1  0  0  0  0
 21 22  1  0  0  0  0
 23 24  2  0  0  0  0
 23 25  1  0  0  0  0
 25 26  1  0  0  0  0
 25 27  1  0  0  0  0
 27 28  1  0  0  0  0
 27 29  1  0  0  0  0
 27 30  1  0  0  0  0
M  CHG  1  15   1
M  END
$$$$

  -OEChem-04042216003D

 30 30  0     1  0  0  0  0  0999 V2000
   -3.0057   -3.9511    1.8779 H   0  0  0  0  0  0  0  0  0  0  0  0
   -3.1287   -3.1399    1.1537 C   0  0  0  0  0  0  0  0  0  0  0  0
   -3.7299   -2.3521    1.6134 H   0  0  0  0  0  0  0  0  0  0  0  0
   -3.6527   -3.5306    0.2784 H   0  0  0  0  0  0  0  0  0  0  0  0
   -1.7710   -2.5988    0.7489 C   0  0  0  0  0  0  0  0  0  0  0  0
   -0.7586   -3.1282    1.1654 O   0  0  0  0  0  0  0  0  0  0  0  0
   -1.6760   -1.4999   -0.0896 N   0  0  0  0  0  0  0  0  0  0  0  0
   -2.5402   -0.9846   -0.2075 H   0  0  0  0  0  0  0  0  0  0  0  0
   -0.4042   -0.7608   -0.2538 C   0  0  1  0  0  0  0  0  0  0  0  0
    0.3266   -1.5382   -0.5134 H   0  0  0  0  0  0  0  0  0  0  0  0
   -0.3188    0.2440   -1.4273 C   0  0  0  0  0  0  0  0  0  0  0  0
   -0.6347    1.2261   -1.0579 H   0  0  0  0  0  0  0  0  0  0  0  0
    0.7398    0.3406   -1.6953 H   0  0  0  0  0  0  0  0  0  0  0  0
   -1.1269   -0.0422   -2.6802 C   0  0  0  0  0  0  0  0  0  0  0  0
   -0.5805    0.0929   -3.9603 N   0  3  0  0  0  0  0  0  0  0  0  0
    0.3938    0.3649   -4.1214 H   0  0  0  0  0  0  0  0  0  0  0  0
   -1.4662   -0.1992   -4.8804 C   0  0  0  0  0  0  0  0  0  0  0  0
   -1.3076   -0.1893   -5.9610 H   0  0  0  0  0  0  0  0  0  0  0  0
   -2.6459   -0.5264   -4.2204 N   0  0  0  0  0  0  0  0  0  0  0  0
   -3.5243   -0.8005   -4.6720 H   0  0  0  0  0  0  0  0  0  0  0  0
   -2.4383   -0.4239   -2.8491 C   0  0  0  0  0  0  0  0  0  0  0  0
   -3.1759   -0.6054   -2.0721 H   0  0  0  0  0  0  0  0  0  0  0  0
    0.1772   -0.1329    1.0301 C   0  0  0  0  0  0  0  0  0  0  0  0
    1.3840    0.0486    1.0796 O   0  0  0  0  0  0  0  0  0  0  0  0
   -0.6376    0.5569    1.9114 N   0  0  0  0  0  0  0  0  0  0  0  0
   -1.6255    0.3282    1.9006 H   0  0  0  0  0  0  0  0  0  0  0  0
   -0.1061    1.2547    3.0804 C   0  0  0  0  0  0  0  0  0  0  0  0
    0.6017    2.0338    2.7765 H   0  0  0  0  0  0  0  0  0  0  0  0
   -0.9159    1.7297    3.6429 H   0  0  0  0  0  0  0  0  0  0  0  0
    0.4111    0.5528    3.7438 H   0  0  0  0  0  0  0  0  0  0  0  0
  1  2  1  0  0  0  0
  2  3  1  0  0  0  0
  2  4  1  0  0  0  0
  2  5  1  0  0  0  0
  5  6  2  0  0  0  0
  5  7  1  0  0  0  0
  7  8  1  0  0  0  0
  7  9  1  0  0  0  0
  9 10  1  0  0  0  0
  9 11  1  0  0  0  0
  9 23  1  0  0  0  0
 11 12  1  0  0  0  0
 11 13  1  0  0  0  0
 11 14  1  0  0  0  0
 14 15  1  0  0  0  0
 14 21  2  0  0  0  0
 15 16  1  0  0  0  0
 15 17  2  0  0  0  0
 17 18  1  0  0  0  0
 17 19  1  0  0  0  0
 19 20  1  0  0  0  0
 19 21  1  0  0  0  0
 21 22  1  0  0  0  0
 23 24  2  0  0  0  0
 23 25  1  0  0  0  0
 25 26  1  0  0  0  0
 25 27  1  0  0  0  0
 27 28  1  0  0  0  0
 27 29  1  0  0  0  0
 27 30  1  0  0  0  0
M  CHG  1  15   1
M  END
$$$$

  -OEChem-04042216003D

 30 30  0     1  0  0  0  0  0999 V2000
   -3.1276   -4.0808    1.5940 H   0  0  0  0  0  0  0  0  0  0  0  0
   -3.1336   -3.3149    0.8124 C   0  0  0  0  0  0  0  0  0  0  0  0
   -3.9993   -2.6664    0.9656 H   0  0  0  0  0  0  0  0  0  0  0  0
   -3.2188   -3.8088   -0.1582 H   0  0  0  0  0  0  0  0  0  0  0  0
   -1.8546   -2.5024    0.8755 C   0  0  0  0  0  0  0  0  0  0  0  0
   -1.0197   -2.7522    1.7231 O   0  0  0  0  0  0  0  0  0  0  0  0
   -1.6300   -1.4839   -0.0357 N   0  0  0  0  0  0  0  0  0  0  0  0
   -2.2664   -1.4650   -0.8238 H   0  0  0  0  0  0  0  0  0  0  0  0
   -0.3111   -0.8281   -0.1869 C   0  0  1  0  0  0  0  0  0  0  0  0
    0.4023   -1.6350   -0.3958 H   0  0  0  0  0  0  0  0  0  0  0  0
   -0.2142    0.1725   -1.3630 C   0  0  0  0  0  0  0  0  0  0  0  0
   -0.4987    1.1644   -0.9924 H   0  0  0  0  0  0  0  0  0  0  0  0
    0.8348    0.2481   -1.6713 H   0  0  0  0  0  0  0  0  0  0  0  0
   -1.0888   -0.1230   -2.5608 C   0  0  0  0  0  0  0  0  0  0  0  0
   -0.6189   -0.3571   -3.8552 N   0  3  0  0  0  0  0  0  0  0  0  0
    0.3768   -0.4551   -4.0769 H   0  0  0  0  0  0  0  0  0  0  0  0
   -1.6169   -0.4204   -4.7030 C   0  0  0  0  0  0  0  0  0  0  0  0
   -1.5432   -0.5970   -5.7786 H   0  0  0  0  0  0  0  0  0  0  0  0
   -2.7861   -0.1990   -3.9789 N   0  0  0  0  0  0  0  0  0  0  0  0
   -3.7294   -0.1372   -4.3764 H   0  0  0  0  0  0  0  0  0  0  0  0
   -2.4539    0.0207   -2.6462 C   0  0  0  0  0  0  0  0  0  0  0  0
   -3.1279    0.3115   -1.8392 H   0  0  0  0  0  0  0  0  0  0  0  0
    0.2337   -0.1296    1.0770 C   0  0  0  0  0  0  0  0  0  0  0  0
    1.4442    0.0102    1.1681 O   0  0  0  0  0  0  0  0  0  0  0  0
   -0.5959    0.6667    1.8460 N   0  0  0  0  0  0  0  0  0  0  0  0
   -1.5807    0.4197    1.8296 H   0  0  0  0  0  0  0  0  0  0  0  0
   -0.0991    1.4105    3.0008 C   0  0  0  0  0  0  0  0  0  0  0  0
    0.6902    2.1082    2.7003 H   0  0  0  0  0  0  0  0  0  0  0  0
   -0.9081    1.9874    3.4599 H   0  0  0  0  0  0  0  0  0  0  0  0
    0.3085    0.7250    3.7520 H   0  0  0  0  0  0  0  0  0  0  0  0
  1  2  1  0  0  0  0
  2  3  1  0  0  0  0
  2  4  1  0  0  0  0
  2  5  1  0  0  0  0
  5  6  2  0  0  0  0
  5  7  1  0  0  0  0
  7  8  1  0  0  0  0
  7  9  1  0  0  0  0
  9 10  1  0  0  0  0
  9 11  1  0  0  0  0
  9 23  1  0  0  0  0
 11 12  1  0  0  0  0
 11 13  1  0  0  0  0
 11 14  1  0  0  0  0
 14 15  1  0  0  0  0
 14 21  2  0  0  0  0
 15 16  1  0  0  0  0
 15 17  2  0  0  0  0
 17 18  1  0  0  0  0
 17 19  1  0  0  0  0
 19 20  1  0  0  0  0
 19 21  1  0  0  0  0
 21 22  1  0  0  0  0
 23 24  2  0  0  0  0
 23 25  1  0  0  0  0
 25 26  1  0  0  0  0
 25 27  1  0  0  0  0
 27 28  1  0  0  0  0
 27 29  1  0  0  0  0
 27 30  1  0  0  0  0
M  CHG  1  15   1
M  END
$$$$

  -OEChem-04042216003D

 30 30  0     1  0  0  0  0  0999 V2000
   -3.1595   -4.0331    1.5542 H   0  0  0  0  0  0  0  0  0  0  0  0
   -3.1717   -3.2282    0.8130 C   0  0  0  0  0  0  0  0  0  0  0  0
   -3.9675   -2.5266    1.0734 H   0  0  0  0  0  0  0  0  0  0  0  0
   -3.3782   -3.6613   -0.1683 H   0  0  0  0  0  0  0  0  0  0  0  0
   -1.8328   -2.5163    0.8003 C   0  0  0  0  0  0  0  0  0  0  0  0
   -0.9492   -2.8673    1.5580 O   0  0  0  0  0  0  0  0  0  0  0  0
   -1.6070   -1.4665   -0.0728 N   0  0  0  0  0  0  0  0  0  0  0  0
   -2.3298   -1.2844   -0.7597 H   0  0  0  0  0  0  0  0  0  0  0  0
   -0.2975   -0.7899   -0.2060 C   0  0  1  0  0  0  0  0  0  0  0  0
    0.4245   -1.5841   -0.4330 H   0  0  0  0  0  0  0  0  0  0  0  0
   -0.2175    0.2228   -1.3696 C   0  0  0  0  0  0  0  0  0  0  0  0
   -0.5255    1.2041   -0.9904 H   0  0  0  0  0  0  0  0  0  0  0  0
    0.8274    0.3271   -1.6836 H   0  0  0  0  0  0  0  0  0  0  0  0
   -1.0925   -0.1040   -2.5572 C   0  0  0  0  0  0  0  0  0  0  0  0
   -0.6361   -0.6181   -3.7724 N   0  3  0  0  0  0  0  0  0  0  0  0
    0.3358   -0.9042   -3.9266 H   0  0  0  0  0  0  0  0  0  0  0  0
   -1.6115   -0.6598   -4.6474 C   0  0  0  0  0  0  0  0  0  0  0  0
   -1.5417   -1.0148   -5.6783 H   0  0  0  0  0  0  0  0  0  0  0  0
   -2.7472   -0.1487   -4.0225 N   0  0  0  0  0  0  0  0  0  0  0  0
   -3.6600   -0.0099   -4.4686 H   0  0  0  0  0  0  0  0  0  0  0  0
   -2.4166    0.2244   -2.7238 C   0  0  0  0  0  0  0  0  0  0  0  0
   -3.0585    0.7251   -1.9979 H   0  0  0  0  0  0  0  0  0  0  0  0
    0.2414   -0.1242    1.0771 C   0  0  0  0  0  0  0  0  0  0  0  0
    1.4502    0.0250    1.1733 O   0  0  0  0  0  0  0  0  0  0  0  0
   -0.5964    0.6375    1.8722 N   0  0  0  0  0  0  0  0  0  0  0  0
   -1.5793    0.3851    1.8467 H   0  0  0  0  0  0  0  0  0  0  0  0
   -0.1075    1.3583    3.0452 C   0  0  0  0  0  0  0  0  0  0  0  0
    0.6494    2.0959    2.7572 H   0  0  0  0  0  0  0  0  0  0  0  0
   -0.9296    1.8867    3.5380 H   0  0  0  0  0  0  0  0  0  0  0  0
    0.3390    0.6632    3.7650 H   0  0  0  0  0  0  0  0  0  0  0  0
  1  2  1  0  0  0  0
  2  3  1  0  0  0  0
  2  4  1  0  0  0  0
  2  5  1  0  0  0  0
  5  6  2  0  0  0  0
  5  7  1  0  0  0  0
  7  8  1  0  0  0  0
  7  9  1  0  0  0  0
  9 10  1  0  0  0  0
  9 11  1  0  0  0  0
  9 23  1  0  0  0  0
 11 12  1  0  0  0  0
 11 13  1  0  0  0  0
 11 14  1  0  0  0  0
 14 15  1  0  0  0  0
 14 21  2  0  0  0  0
 15 16  1  0  0  0  0
 15 17  2  0  0  0  0
 17 18  1  0  0  0  0
 17 19  1  0  0  0  0
 19 20  1  0  0  0  0
 19 21  1  0  0  0  0
 21 22  1  0  0  0  0
 23 24  2  0  0  0  0
 23 25  1  0  0  0  0
 25 26  1  0  0  0  0
 25 27  1  0  0  0  0
 27 28  1  0  0  0  0
 27 29  1  0  0  0  0
 27 30  1  0  0  0  0
M  CHG  1  15   1
M  END
$$$$

  -OEChem-04042216003D

 30 30  0     1  0  0  0  0  0999 V2000
   -3.1586   -3.9721    1.5794 H   0  0  0  0  0  0  0  0  0  0  0  0
   -3.1880   -3.1456    0.8628 C   0  0  0  0  0  0  0  0  0  0  0  0
   -3.8936   -2.3950    1.2265 H   0  0  0  0  0  0  0  0  0  0  0  0
   -3.5337   -3.5298   -0.0996 H   0  0  0  0  0  0  0  0  0  0  0  0
   -1.8059   -2.5385    0.7170 C   0  0  0  0  0  0  0  0  0  0  0  0
   -0.8673   -3.0034    1.3346 O   0  0  0  0  0  0  0  0  0  0  0  0
   -1.5972   -1.4587   -0.1226 N   0  0  0  0  0  0  0  0  0  0  0  0
   -2.4101   -1.0789   -0.5959 H   0  0  0  0  0  0  0  0  0  0  0  0
   -0.2975   -0.7600   -0.2340 C   0  0  1  0  0  0  0  0  0  0  0  0
    0.4340   -1.5409   -0.4762 H   0  0  0  0  0  0  0  0  0  0  0  0
   -0.2263    0.2676   -1.3825 C   0  0  0  0  0  0  0  0  0  0  0  0
   -0.5507    1.2402   -0.9952 H   0  0  0  0  0  0  0  0  0  0  0  0
    0.8171    0.3891   -1.6956 H   0  0  0  0  0  0  0  0  0  0  0  0
   -1.0928   -0.0784   -2.5700 C   0  0  0  0  0  0  0  0  0  0  0  0
   -0.6845   -0.8443   -3.6632 N   0  3  0  0  0  0  0  0  0  0  0  0
    0.2295   -1.3052   -3.7099 H   0  0  0  0  0  0  0  0  0  0  0  0
   -1.6215   -0.8682   -4.5796 C   0  0  0  0  0  0  0  0  0  0  0  0
   -1.5753   -1.3884   -5.5392 H   0  0  0  0  0  0  0  0  0  0  0  0
   -2.6790   -0.0933   -4.1071 N   0  0  0  0  0  0  0  0  0  0  0  0
   -3.5426    0.1120   -4.6203 H   0  0  0  0  0  0  0  0  0  0  0  0
   -2.3403    0.4189   -2.8589 C   0  0  0  0  0  0  0  0  0  0  0  0
   -2.9233    1.1099   -2.2487 H   0  0  0  0  0  0  0  0  0  0  0  0
    0.2344   -0.1261    1.0670 C   0  0  0  0  0  0  0  0  0  0  0  0
    1.4415    0.0265    1.1730 O   0  0  0  0  0  0  0  0  0  0  0  0
   -0.6103    0.6009    1.8874 N   0  0  0  0  0  0  0  0  0  0  0  0
   -1.5956    0.3617    1.8427 H   0  0  0  0  0  0  0  0  0  0  0  0
   -0.1282    1.2989    3.0772 C   0  0  0  0  0  0  0  0  0  0  0  0
    0.6438    2.0296    2.8114 H   0  0  0  0  0  0  0  0  0  0  0  0
   -0.9496    1.8330    3.5652 H   0  0  0  0  0  0  0  0  0  0  0  0
    0.2976    0.5874    3.7934 H   0  0  0  0  0  0  0  0  0  0  0  0
  1  2  1  0  0  0  0
  2  3  1  0  0  0  0
  2  4  1  0  0  0  0
  2  5  1  0  0  0  0
  5  6  2  0  0  0  0
  5  7  1  0  0  0  0
  7  8  1  0  0  0  0
  7  9  1  0  0  0  0
  9 10  1  0  0  0  0
  9 11  1  0  0  0  0
  9 23  1  0  0  0  0
 11 12  1  0  0  0  0
 11 13  1  0  0  0  0
 11 14  1  0  0  0  0
 14 15  1  0  0  0  0
 14 21  2  0  0  0  0
 15 16  1  0  0  0  0
 15 17  2  0  0  0  0
 17 18  1  0  0  0  0
 17 19  1  0  0  0  0
 19 20  1  0  0  0  0
 19 21  1  0  0  0  0
 21 22  1  0  0  0  0
 23 24  2  0  0  0  0
 23 25  1  0  0  0  0
 25 26  1  0  0  0  0
 25 27  1  0  0  0  0
 27 28  1  0  0  0  0
 27 29  1  0  0  0  0
 27 30  1  0  0  0  0
M  CHG  1  15   1
M  END
$$$$

  -OEChem-04042216003D

 30 30  0     1  0  0  0  0  0999 V2000
   -3.1662   -3.9277    1.5934 H   0  0  0  0  0  0  0  0  0  0  0  0
   -3.2004   -3.0943    0.8851 C   0  0  0  0  0  0  0  0  0  0  0  0
   -3.8552   -2.3197    1.2904 H   0  0  0  0  0  0  0  0  0  0  0  0
   -3.6117   -3.4559   -0.0601 H   0  0  0  0  0  0  0  0  0  0  0  0
   -1.8051   -2.5406    0.6696 C   0  0  0  0  0  0  0  0  0  0  0  0
   -0.8497   -3.0633    1.2107 O   0  0  0  0  0  0  0  0  0  0  0  0
   -1.6018   -1.4473   -0.1539 N   0  0  0  0  0  0  0  0  0  0  0  0
   -2.4339   -0.9921   -0.5162 H   0  0  0  0  0  0  0  0  0  0  0  0
   -0.3018   -0.7457   -0.2469 C   0  0  1  0  0  0  0  0  0  0  0  0
    0.4326   -1.5222   -0.4946 H   0  0  0  0  0  0  0  0  0  0  0  0
   -0.2278    0.2900   -1.3869 C   0  0  0  0  0  0  0  0  0  0  0  0
   -0.5514    1.2614   -0.9967 H   0  0  0  0  0  0  0  0  0  0  0  0
    0.8169    0.4090   -1.6978 H   0  0  0  0  0  0  0  0  0  0  0  0
   -1.0871   -0.0580   -2.5788 C   0  0  0  0  0  0  0  0  0  0  0  0
   -0.7902   -1.0434   -3.5218 N   0  3  0  0  0  0  0  0  0  0  0  0
    0.0237   -1.6612   -3.4436 H   0  0  0  0  0  0  0  0  0  0  0  0
   -1.6796   -1.0354   -4.4849 C   0  0  0  0  0  0  0  0  0  0  0  0
   -1.6943   -1.6919   -5.3580 H   0  0  0  0  0  0  0  0  0  0  0  0
   -2.5932   -0.0241   -4.1932 N   0  0  0  0  0  0  0  0  0  0  0  0
   -3.3857    0.2511   -4.7827 H   0  0  0  0  0  0  0  0  0  0  0  0
   -2.2146    0.5978   -3.0077 C   0  0  0  0  0  0  0  0  0  0  0  0
   -2.6896    1.4562   -2.5310 H   0  0  0  0  0  0  0  0  0  0  0  0
    0.2247   -0.1314    1.0657 C   0  0  0  0  0  0  0  0  0  0  0  0
    1.4317    0.0117    1.1825 O   0  0  0  0  0  0  0  0  0  0  0  0
   -0.6202    0.5837    1.8964 N   0  0  0  0  0  0  0  0  0  0  0  0
   -1.6093    0.3655    1.8365 H   0  0  0  0  0  0  0  0  0  0  0  0
   -0.1384    1.2708    3.0928 C   0  0  0  0  0  0  0  0  0  0  0  0
    0.5977    2.0377    2.8278 H   0  0  0  0  0  0  0  0  0  0  0  0
   -0.9682    1.7591    3.6132 H   0  0  0  0  0  0  0  0  0  0  0  0
    0.3314    0.5595    3.7810 H   0  0  0  0  0  0  0  0  0  0  0  0
  1  2  1  0  0  0  0
  2  3  1  0  0  0  0
  2  4  1  0  0  0  0
  2  5  1  0  0  0  0
  5  6  2  0  0  0  0
  5  7  1  0  0  0  0
  7  8  1  0  0  0  0
  7  9  1  0  0  0  0
  9 10  1  0  0  0  0
  9 11  1  0  0  0  0
  9 23  1  0  0  0  0
 11 12  1  0  0  0  0
 11 13  1  0  0  0  0
 11 14  1  0  0  0  0
 14 15  1  0  0  0  0
 14 21  2  0  0  0  0
 15 16  1  0  0  0  0
 15 17  2  0  0  0  0
 17 18  1  0  0  0  0
 17 19  1  0  0  0  0
 19 20  1  0  0  0  0
 19 21  1  0  0  0  0
 21 22  1  0  0  0  0
 23 24  2  0  0  0  0
 23 25  1  0  0  0  0
 25 26  1  0  0  0  0
 25 27  1  0  0  0  0
 27 28  1  0  0  0  0
 27 29  1  0  0  0  0
 27 30  1  0  0  0  0
M  CHG  1  15   1
M  END
$$$$

  -OEChem-04042216003D

 30 30  0     1  0  0  0  0  0999 V2000
   -3.1605   -3.9056    1.5846 H   0  0  0  0  0  0  0  0  0  0  0  0
   -3.2011   -3.0536    0.8991 C   0  0  0  0  0  0  0  0  0  0  0  0
   -3.8129   -2.2707    1.3533 H   0  0  0  0  0  0  0  0  0  0  0  0
   -3.6658   -3.3779   -0.0349 H   0  0  0  0  0  0  0  0  0  0  0  0
   -1.8006   -2.5355    0.6343 C   0  0  0  0  0  0  0  0  0  0  0  0
   -0.8377   -3.0992    1.1175 O   0  0  0  0  0  0  0  0  0  0  0  0
   -1.5999   -1.4350   -0.1801 N   0  0  0  0  0  0  0  0  0  0  0  0
   -2.4366   -0.9409   -0.4763 H   0  0  0  0  0  0  0  0  0  0  0  0
   -0.2990   -0.7320   -0.2578 C   0  0  1  0  0  0  0  0  0  0  0  0
    0.4393   -1.5048   -0.5052 H   0  0  0  0  0  0  0  0  0  0  0  0
   -0.2213    0.3087   -1.3930 C   0  0  0  0  0  0  0  0  0  0  0  0
   -0.5405    1.2822   -1.0042 H   0  0  0  0  0  0  0  0  0  0  0  0
    0.8251    0.4194   -1.7015 H   0  0  0  0  0  0  0  0  0  0  0  0
   -1.0733   -0.0403   -2.5904 C   0  0  0  0  0  0  0  0  0  0  0  0
   -0.9397   -1.1943   -3.3648 N   0  3  0  0  0  0  0  0  0  0  0  0
   -0.2614   -1.9321   -3.1504 H   0  0  0  0  0  0  0  0  0  0  0  0
   -1.7804   -1.1675   -4.3703 C   0  0  0  0  0  0  0  0  0  0  0  0
   -1.8904   -1.9318   -5.1430 H   0  0  0  0  0  0  0  0  0  0  0  0
   -2.4980    0.0238   -4.2750 N   0  0  0  0  0  0  0  0  0  0  0  0
   -3.2107    0.3453   -4.9382 H   0  0  0  0  0  0  0  0  0  0  0  0
   -2.0494    0.7340   -3.1662 C   0  0  0  0  0  0  0  0  0  0  0  0
   -2.3793    1.7192   -2.8338 H   0  0  0  0  0  0  0  0  0  0  0  0
    0.2185   -0.1294    1.0633 C   0  0  0  0  0  0  0  0  0  0  0  0
    1.4250   -0.0030    1.1995 O   0  0  0  0  0  0  0  0  0  0  0  0
   -0.6311    0.5786    1.8953 N   0  0  0  0  0  0  0  0  0  0  0  0
   -1.6236    0.3869    1.8100 H   0  0  0  0  0  0  0  0  0  0  0  0
   -0.1585    1.2483    3.1048 C   0  0  0  0  0  0  0  0  0  0  0  0
    0.5890    2.0099    2.8570 H   0  0  0  0  0  0  0  0  0  0  0  0
   -0.9901    1.7399    3.6192 H   0  0  0  0  0  0  0  0  0  0  0  0
    0.2946    0.5250    3.7918 H   0  0  0  0  0  0  0  0  0  0  0  0
  1  2  1  0  0  0  0
  2  3  1  0  0  0  0
  2  4  1  0  0  0  0
  2  5  1  0  0  0  0
  5  6  2  0  0  0  0
  5  7  1  0  0  0  0
  7  8  1  0  0  0  0
  7  9  1  0  0  0  0
  9 10  1  0  0  0  0
  9 11  1  0  0  0  0
  9 23  1  0  0  0  0
 11 12  1  0  0  0  0
 11 13  1  0  0  0  0
 11 14  1  0  0  0  0
 14 15  1  0  0  0  0
 14 21  2  0  0  0  0
 15 16  1  0  0  0  0
 15 17  2  0  0  0  0
 17 18  1  0  0  0  0
 17 19  1  0  0  0  0
 19 20  1  0  0  0  0
 19 21  1  0  0  0  0
 21 22  1  0  0  0  0
 23 24  2  0  0  0  0
 23 25  1  0  0  0  0
 25 26  1  0  0  0  0
 25 27  1  0  0  0  0
 27 28  1  0  0  0  0
 27 29  1  0  0  0  0
 27 30  1  0  0  0  0
M  CHG  1  15   1
M  END
$$$$

  -OEChem-04042216003D

 30 30  0     1  0  0  0  0  0999 V2000
   -3.1385   -3.8881    1.6274 H   0  0  0  0  0  0  0  0  0  0  0  0
   -3.1907   -3.0319    0.9478 C   0  0  0  0  0  0  0  0  0  0  0  0
   -3.7649   -2.2386    1.4323 H   0  0  0  0  0  0  0  0  0  0  0  0
   -3.7035   -3.3412    0.0343 H   0  0  0  0  0  0  0  0  0  0  0  0
   -1.7920   -2.5431    0.6236 C   0  0  0  0  0  0  0  0  0  0  0  0
   -0.8206   -3.1367    1.0506 O   0  0  0  0  0  0  0  0  0  0  0  0
   -1.6015   -1.4418   -0.1925 N   0  0  0  0  0  0  0  0  0  0  0  0
   -2.4424   -0.9215   -0.4286 H   0  0  0  0  0  0  0  0  0  0  0  0
   -0.3018   -0.7341   -0.2638 C   0  0  1  0  0  0  0  0  0  0  0  0
    0.4422   -1.5035   -0.5064 H   0  0  0  0  0  0  0  0  0  0  0  0
   -0.2171    0.3051   -1.4009 C   0  0  0  0  0  0  0  0  0  0  0  0
   -0.5333    1.2816   -1.0170 H   0  0  0  0  0  0  0  0  0  0  0  0
    0.8329    0.4069   -1.6998 H   0  0  0  0  0  0  0  0  0  0  0  0
   -1.0538   -0.0354   -2.6127 C   0  0  0  0  0  0  0  0  0  0  0  0
   -1.1322   -1.2881   -3.2250 N   0  3  0  0  0  0  0  0  0  0  0  0
   -0.6288   -2.1088   -2.8729 H   0  0  0  0  0  0  0  0  0  0  0  0
   -1.9086   -1.2323   -4.2798 C   0  0  0  0  0  0  0  0  0  0  0  0
   -2.1414   -2.0568   -4.9573 H   0  0  0  0  0  0  0  0  0  0  0  0
   -2.3719    0.0786   -4.3800 N   0  0  0  0  0  0  0  0  0  0  0  0
   -2.9807    0.4418   -5.1207 H   0  0  0  0  0  0  0  0  0  0  0  0
   -1.8345    0.8284   -3.3391 C   0  0  0  0  0  0  0  0  0  0  0  0
   -1.9777    1.8927   -3.1471 H   0  0  0  0  0  0  0  0  0  0  0  0
    0.2052   -0.1315    1.0616 C   0  0  0  0  0  0  0  0  0  0  0  0
    1.4103   -0.0099    1.2117 O   0  0  0  0  0  0  0  0  0  0  0  0
   -0.6505    0.5726    1.8907 N   0  0  0  0  0  0  0  0  0  0  0  0
   -1.6448    0.4013    1.7850 H   0  0  0  0  0  0  0  0  0  0  0  0
   -0.1881    1.2405    3.1052 C   0  0  0  0  0  0  0  0  0  0  0  0
    0.5577    2.0058    2.8641 H   0  0  0  0  0  0  0  0  0  0  0  0
   -1.0245    1.7272    3.6163 H   0  0  0  0  0  0  0  0  0  0  0  0
    0.2637    0.5170    3.7930 H   0  0  0  0  0  0  0  0  0  0  0  0
  1  2  1  0  0  0  0
  2  3  1  0  0  0  0
  2  4  1  0  0  0  0
  2  5  1  0  0  0  0
  5  6  2  0  0  0  0
  5  7  1  0  0  0  0
  7  8  1  0  0  0  0
  7  9  1  0  0  0  0
  9 10  1  0  0  0  0
  9 11  1  0  0  0  0
  9 23  1  0  0  0  0
 11 12  1  0  0  0  0
 11 13  1  0  0  0  0
 11 14  1  0  0  0  0
 14 15  1  0  0  0  0
 14 21  2  0  0  0  0
 15 16  1  0  0  0  0
 15 17  2  0  0  0  0
 17 18  1  0  0  0  0
 17 19  1  0  0  0  0
 19 20  1  0  0  0  0
 19 21  1  0  0  0  0
 21 22  1  0  0  0  0
 23 24  2  0  0  0  0
 23 25  1  0  0  0  0
 25 26  1  0  0  0  0
 25 27  1  0  0  0  0
 27 28  1  0  0  0  0
 27 29  1  0  0  0  0
 27 30  1  0  0  0  0
M  CHG  1  15   1
M  END
$$$$

  -OEChem-04042216003D

 30 30  0     1  0  0  0  0  0999 V2000
   -3.0999   -3.9077    1.6627 H   0  0  0  0  0  0  0  0  0  0  0  0
   -3.1688   -3.0262    1.0179 C   0  0  0  0  0  0  0  0  0  0  0  0
   -3.6965   -2.2389    1.5613 H   0  0  0  0  0  0  0  0  0  0  0  0
   -3.7387   -3.2906    0.1244 H   0  0  0  0  0  0  0  0  0  0  0  0
   -1.7789   -2.5561    0.6341 C   0  0  0  0  0  0  0  0  0  0  0  0
   -0.7989   -3.1699    1.0081 O   0  0  0  0  0  0  0  0  0  0  0  0
   -1.6086   -1.4554   -0.1881 N   0  0  0  0  0  0  0  0  0  0  0  0
   -2.4543   -0.9193   -0.3668 H   0  0  0  0  0  0  0  0  0  0  0  0
   -0.3146   -0.7356   -0.2645 C   0  0  1  0  0  0  0  0  0  0  0  0
    0.4354   -1.5010   -0.5018 H   0  0  0  0  0  0  0  0  0  0  0  0
   -0.2265    0.2940   -1.4125 C   0  0  0  0  0  0  0  0  0  0  0  0
   -0.5480    1.2725   -1.0382 H   0  0  0  0  0  0  0  0  0  0  0  0
    0.8273    0.3958   -1.6985 H   0  0  0  0  0  0  0  0  0  0  0  0
   -1.0433   -0.0422   -2.6414 C   0  0  0  0  0  0  0  0  0  0  0  0
   -1.3618   -1.3195   -3.1088 N   0  3  0  0  0  0  0  0  0  0  0  0
   -1.0520   -2.1723   -2.6309 H   0  0  0  0  0  0  0  0  0  0  0  0
   -2.0551   -1.2429   -4.2187 C   0  0  0  0  0  0  0  0  0  0  0  0
   -2.4220   -2.0819   -4.8138 H   0  0  0  0  0  0  0  0  0  0  0  0
   -2.2254    0.1110   -4.5019 N   0  0  0  0  0  0  0  0  0  0  0  0
   -2.7098    0.4939   -5.3202 H   0  0  0  0  0  0  0  0  0  0  0  0
   -1.5918    0.8614   -3.5170 C   0  0  0  0  0  0  0  0  0  0  0  0
   -1.5212    1.9484   -3.4569 H   0  0  0  0  0  0  0  0  0  0  0  0
    0.1886   -0.1253    1.0593 C   0  0  0  0  0  0  0  0  0  0  0  0
    1.3928   -0.0037    1.2144 O   0  0  0  0  0  0  0  0  0  0  0  0
   -0.6705    0.5732    1.8898 N   0  0  0  0  0  0  0  0  0  0  0  0
   -1.6650    0.4096    1.7770 H   0  0  0  0  0  0  0  0  0  0  0  0
   -0.2119    1.2414    3.1058 C   0  0  0  0  0  0  0  0  0  0  0  0
    0.5513    1.9913    2.8700 H   0  0  0  0  0  0  0  0  0  0  0  0
   -1.0460    1.7471    3.6021 H   0  0  0  0  0  0  0  0  0  0  0  0
    0.2176    0.5146    3.8042 H   0  0  0  0  0  0  0  0  0  0  0  0
  1  2  1  0  0  0  0
  2  3  1  0  0  0  0
  2  4  1  0  0  0  0
  2  5  1  0  0  0  0
  5  6  2  0  0  0  0
  5  7  1  0  0  0  0
  7  8  1  0  0  0  0
  7  9  1  0  0  0  0
  9 10  1  0  0  0  0
  9 11  1  0  0  0  0
  9 23  1  0  0  0  0
 11 12  1  0  0  0  0
 11 13  1  0  0  0  0
 11 14  1  0  0  0  0
 14 15  1  0  0  0  0
 14 21  2  0  0  0  0
 15 16  1  0  0  0  0
 15 17  2  0  0  0  0
 17 18  1  0  0  0  0
 17 19  1  0  0  0  0
 19 20  1  0  0  0  0
 19 21  1  0  0  0  0
 21 22  1  0  0  0  0
 23 24  2  0  0  0  0
 23 25  1  0  0  0  0
 25 26  1  0  0  0  0
 25 27  1  0  0  0  0
 27 28  1  0  0  0  0
 27 29  1  0  0  0  0
 27 30  1  0  0  0  0
M  CHG  1  15   1
M  END
$$$$

  -OEChem-04042216003D

 30 30  0     1  0  0  0  0  0999 V2000
   -3.0605   -3.8991    1.7756 H   0  0  0  0  0  0  0  0  0  0  0  0
   -3.1522   -3.0425    1.1005 C   0  0  0  0  0  0  0  0  0  0  0  0
   -3.6704   -2.2385    1.6284 H   0  0  0  0  0  0  0  0  0  0  0  0
   -3.7441   -3.3433    0.2331 H   0  0  0  0  0  0  0  0  0  0  0  0
   -1.7757   -2.5800    0.6630 C   0  0  0  0  0  0  0  0  0  0  0  0
   -0.7856   -3.1961    1.0044 O   0  0  0  0  0  0  0  0  0  0  0  0
   -1.6317   -1.4817   -0.1685 N   0  0  0  0  0  0  0  0  0  0  0  0
   -2.4810   -0.9351   -0.2911 H   0  0  0  0  0  0  0  0  0  0  0  0
   -0.3435   -0.7505   -0.2595 C   0  0  1  0  0  0  0  0  0  0  0  0
    0.4082   -1.5152   -0.4960 H   0  0  0  0  0  0  0  0  0  0  0  0
   -0.2507    0.2700   -1.4174 C   0  0  0  0  0  0  0  0  0  0  0  0
   -0.5798    1.2474   -1.0472 H   0  0  0  0  0  0  0  0  0  0  0  0
    0.8064    0.3763   -1.6895 H   0  0  0  0  0  0  0  0  0  0  0  0
   -1.0487   -0.0519   -2.6642 C   0  0  0  0  0  0  0  0  0  0  0  0
   -1.6231   -1.2731   -3.0223 N   0  3  0  0  0  0  0  0  0  0  0  0
   -1.5156   -2.1145   -2.4456 H   0  0  0  0  0  0  0  0  0  0  0  0
   -2.2072   -1.1837   -4.1924 C   0  0  0  0  0  0  0  0  0  0  0  0
   -2.7070   -1.9905   -4.7327 H   0  0  0  0  0  0  0  0  0  0  0  0
   -2.0539    0.1318   -4.6252 N   0  0  0  0  0  0  0  0  0  0  0  0
   -2.3889    0.5108   -5.5169 H   0  0  0  0  0  0  0  0  0  0  0  0
   -1.3275    0.8372   -3.6721 C   0  0  0  0  0  0  0  0  0  0  0  0
   -1.0189    1.8828   -3.7171 H   0  0  0  0  0  0  0  0  0  0  0  0
    0.1689   -0.1292    1.0561 C   0  0  0  0  0  0  0  0  0  0  0  0
    1.3736    0.0070    1.1941 O   0  0  0  0  0  0  0  0  0  0  0  0
   -0.6847    0.5670    1.8943 N   0  0  0  0  0  0  0  0  0  0  0  0
   -1.6804    0.4046    1.7927 H   0  0  0  0  0  0  0  0  0  0  0  0
   -0.2136    1.2596    3.0917 C   0  0  0  0  0  0  0  0  0  0  0  0
    0.5064    2.0416    2.8267 H   0  0  0  0  0  0  0  0  0  0  0  0
   -1.0515    1.7291    3.6165 H   0  0  0  0  0  0  0  0  0  0  0  0
    0.2727    0.5559    3.7762 H   0  0  0  0  0  0  0  0  0  0  0  0
  1  2  1  0  0  0  0
  2  3  1  0  0  0  0
  2  4  1  0  0  0  0
  2  5  1  0  0  0  0
  5  6  2  0  0  0  0
  5  7  1  0  0  0  0
  7  8  1  0  0  0  0
  7  9  1  0  0  0  0
  9 10  1  0  0  0  0
  9 11  1  0  0  0  0
  9 23  1  0  0  0  0
 11 12  1  0  0  0  0
 11 13  1  0  0  0  0
 11 14  1  0  0  0  0
 14 15  1  0  0  0  0
 14 21  2  0  0  0  0
 15 16  1  0  0  0  0
 15 17  2  0  0  0  0
 17 18  1  0  0  0  0
 17 19  1  0  0  0  0
 19 20  1  0  0  0  0
 19 21  1  0  0  0  0
 21 22  1  0  0  0  0
 23 24  2  0  0  0  0
 23 25  1  0  0  0  0
 25 26  1  0  0  0  0
 25 27  1  0  0  0  0
 27 28  1  0  0  0  0
 27 29  1  0  0  0  0
 27 30  1  0  0  0  0
M  CHG  1  15   1
M  END
$$$$

  -OEChem-04042216003D

 30 30  0     1  0  0  0  0  0999 V2000
   -3.0065   -3.8927    1.8681 H   0  0  0  0  0  0  0  0  0  0  0  0
   -3.1234   -3.0464    1.1842 C   0  0  0  0  0  0  0  0  0  0  0  0
   -3.6218   -2.2346    1.7192 H   0  0  0  0  0  0  0  0  0  0  0  0
   -3.7469   -3.3603    0.3441 H   0  0  0  0  0  0  0  0  0  0  0  0
   -1.7640   -2.5920    0.6887 C   0  0  0  0  0  0  0  0  0  0  0  0
   -0.7641   -3.2090    0.9975 O   0  0  0  0  0  0  0  0  0  0  0  0
   -1.6518   -1.4956   -0.1518 N   0  0  0  0  0  0  0  0  0  0  0  0
   -2.5009   -0.9374   -0.2090 H   0  0  0  0  0  0  0  0  0  0  0  0
   -0.3683   -0.7574   -0.2641 C   0  0  1  0  0  0  0  0  0  0  0  0
    0.3817   -1.5227   -0.5053 H   0  0  0  0  0  0  0  0  0  0  0  0
   -0.2751    0.2549   -1.4309 C   0  0  0  0  0  0  0  0  0  0  0  0
   -0.6158    1.2288   -1.0619 H   0  0  0  0  0  0  0  0  0  0  0  0
    0.7826    0.3716   -1.6959 H   0  0  0  0  0  0  0  0  0  0  0  0
   -1.0662   -0.0570   -2.6857 C   0  0  0  0  0  0  0  0  0  0  0  0
   -1.8867   -1.1531   -2.9559 N   0  3  0  0  0  0  0  0  0  0  0  0
   -1.9675   -1.9399   -2.3035 H   0  0  0  0  0  0  0  0  0  0  0  0
   -2.3697   -1.0827   -4.1727 C   0  0  0  0  0  0  0  0  0  0  0  0
   -3.0020   -1.8237   -4.6661 H   0  0  0  0  0  0  0  0  0  0  0  0
   -1.9013    0.1049   -4.7289 N   0  0  0  0  0  0  0  0  0  0  0  0
   -2.0934    0.4374   -5.6794 H   0  0  0  0  0  0  0  0  0  0  0  0
   -1.0813    0.7402   -3.8037 C   0  0  0  0  0  0  0  0  0  0  0  0
   -0.5400    1.6783   -3.9361 H   0  0  0  0  0  0  0  0  0  0  0  0
    0.1568   -0.1316    1.0448 C   0  0  0  0  0  0  0  0  0  0  0  0
    1.3621    0.0084    1.1722 O   0  0  0  0  0  0  0  0  0  0  0  0
   -0.6914    0.5605    1.8926 N   0  0  0  0  0  0  0  0  0  0  0  0
   -1.6884    0.4052    1.7949 H   0  0  0  0  0  0  0  0  0  0  0  0
   -0.2123    1.2593    3.0835 C   0  0  0  0  0  0  0  0  0  0  0  0
    0.5112    2.0353    2.8102 H   0  0  0  0  0  0  0  0  0  0  0  0
   -1.0455    1.7380    3.6072 H   0  0  0  0  0  0  0  0  0  0  0  0
    0.2717    0.5583    3.7723 H   0  0  0  0  0  0  0  0  0  0  0  0
  1  2  1  0  0  0  0
  2  3  1  0  0  0  0
  2  4  1  0  0  0  0
  2  5  1  0  0  0  0
  5  6  2  0  0  0  0
  5  7  1  0  0  0  0
  7  8  1  0  0  0  0
  7  9  1  0  0  0  0
  9 10  1  0  0  0  0
  9 11  1  0  0  0  0
  9 23  1  0  0  0  0
 11 12  1  0  0  0  0
 11 13  1  0  0  0  0
 11 14  1  0  0  0  0
 14 15  1  0  0  0  0
 14 21  2  0  0  0  0
 15 16  1  0  0  0  0
 15 17  2  0  0  0  0
 17 18  1  0  0  0  0
 17 19  1  0  0  0  0
 19 20  1  0  0  0  0
 19 21  1  0  0  0  0
 21 22  1  0  0  0  0
 23 24  2  0  0  0  0
 23 25  1  0  0  0  0
 25 26  1  0  0  0  0
 25 27  1  0  0  0  0
 27 28  1  0  0  0  0
 27 29  1  0  0  0  0
 27 30  1  0  0  0  0
M  CHG  1  15   1
M  END
$$$$

  -OEChem-04042216003D

 30 30  0     1  0  0  0  0  0999 V2000
   -2.9783   -3.8852    1.9234 H   0  0  0  0  0  0  0  0  0  0  0  0
   -3.1150   -3.0492    1.2304 C   0  0  0  0  0  0  0  0  0  0  0  0
   -3.6080   -2.2337    1.7647 H   0  0  0  0  0  0  0  0  0  0  0  0
   -3.7528   -3.3793    0.4074 H   0  0  0  0  0  0  0  0  0  0  0  0
   -1.7690   -2.5928    0.7007 C   0  0  0  0  0  0  0  0  0  0  0  0
   -0.7613   -3.2043    0.9952 O   0  0  0  0  0  0  0  0  0  0  0  0
   -1.6807   -1.4922   -0.1389 N   0  0  0  0  0  0  0  0  0  0  0  0
   -2.5249   -0.9246   -0.1389 H   0  0  0  0  0  0  0  0  0  0  0  0
   -0.3994   -0.7514   -0.2662 C   0  0  1  0  0  0  0  0  0  0  0  0
    0.3446   -1.5208   -0.5131 H   0  0  0  0  0  0  0  0  0  0  0  0
   -0.2999    0.2510   -1.4407 C   0  0  0  0  0  0  0  0  0  0  0  0
   -0.6494    1.2231   -1.0760 H   0  0  0  0  0  0  0  0  0  0  0  0
    0.7595    0.3748   -1.6961 H   0  0  0  0  0  0  0  0  0  0  0  0
   -1.0841   -0.0593   -2.7007 C   0  0  0  0  0  0  0  0  0  0  0  0
   -2.1179   -0.9734   -2.9087 N   0  3  0  0  0  0  0  0  0  0  0  0
   -2.3765   -1.6638   -2.1984 H   0  0  0  0  0  0  0  0  0  0  0  0
   -2.5115   -0.9527   -4.1594 C   0  0  0  0  0  0  0  0  0  0  0  0
   -3.2627   -1.6003   -4.6164 H   0  0  0  0  0  0  0  0  0  0  0  0
   -1.7654    0.0284   -4.8064 N   0  0  0  0  0  0  0  0  0  0  0  0
   -1.8342    0.2778   -5.7985 H   0  0  0  0  0  0  0  0  0  0  0  0
   -0.8669    0.5759   -3.8988 C   0  0  0  0  0  0  0  0  0  0  0  0
   -0.1254    1.3526   -4.0925 H   0  0  0  0  0  0  0  0  0  0  0  0
    0.1483   -0.1294    1.0356 C   0  0  0  0  0  0  0  0  0  0  0  0
    1.3556    0.0136    1.1403 O   0  0  0  0  0  0  0  0  0  0  0  0
   -0.6837    0.5598    1.9017 N   0  0  0  0  0  0  0  0  0  0  0  0
   -1.6824    0.4048    1.8240 H   0  0  0  0  0  0  0  0  0  0  0  0
   -0.1801    1.2529    3.0858 C   0  0  0  0  0  0  0  0  0  0  0  0
    0.5260    2.0405    2.8002 H   0  0  0  0  0  0  0  0  0  0  0  0
   -1.0039    1.7154    3.6384 H   0  0  0  0  0  0  0  0  0  0  0  0
    0.3324    0.5506    3.7528 H   0  0  0  0  0  0  0  0  0  0  0  0
  1  2  1  0  0  0  0
  2  3  1  0  0  0  0
  2  4  1  0  0  0  0
  2  5  1  0  0  0  0
  5  6  2  0  0  0  0
  5  7  1  0  0  0  0
  7  8  1  0  0  0  0
  7  9  1  0  0  0  0
  9 10  1  0  0  0  0
  9 11  1  0  0  0  0
  9 23  1  0  0  0  0
 11 12  1  0  0  0  0
 11 13  1  0  0  0  0
 11 14  1  0  0  0  0
 14 15  1  0  0  0  0
 14 21  2  0  0  0  0
 15 16  1  0  0  0  0
 15 17  2  0  0  0  0
 17 18  1  0  0  0  0
 17 19  1  0  0  0  0
 19 20  1  0  0  0  0
 19 21  1  0  0  0  0
 21 22  1  0  0  0  0
 23 24  2  0  0  0  0
 23 25  1  0  0  0  0
 25 26  1  0  0  0  0
 25 27  1  0  0  0  0
 27 28  1  0  0  0  0
 27 29  1  0  0  0  0
 27 30  1  0  0  0  0
M  CHG  1  15   1
M  END
$$$$

  -OEChem-04042216003D

 30 30  0     1  0  0  0  0  0999 V2000
   -2.9697   -3.8917    1.9176 H   0  0  0  0  0  0  0  0  0  0  0  0
   -3.1156   -3.0459    1.2385 C   0  0  0  0  0  0  0  0  0  0  0  0
   -3.5983   -2.2369    1.7919 H   0  0  0  0  0  0  0  0  0  0  0  0
   -3.7670   -3.3641    0.4213 H   0  0  0  0  0  0  0  0  0  0  0  0
   -1.7776   -2.5854    0.6928 C   0  0  0  0  0  0  0  0  0  0  0  0
   -0.7664   -3.1979    0.9732 O   0  0  0  0  0  0  0  0  0  0  0  0
   -1.7030   -1.4746   -0.1351 N   0  0  0  0  0  0  0  0  0  0  0  0
   -2.5396   -0.9003   -0.0860 H   0  0  0  0  0  0  0  0  0  0  0  0
   -0.4211   -0.7366   -0.2701 C   0  0  1  0  0  0  0  0  0  0  0  0
    0.3139   -1.5112   -0.5273 H   0  0  0  0  0  0  0  0  0  0  0  0
   -0.3150    0.2614   -1.4463 C   0  0  0  0  0  0  0  0  0  0  0  0
   -0.6646    1.2346   -1.0843 H   0  0  0  0  0  0  0  0  0  0  0  0
    0.7456    0.3840   -1.6973 H   0  0  0  0  0  0  0  0  0  0  0  0
   -1.1006   -0.0507   -2.7058 C   0  0  0  0  0  0  0  0  0  0  0  0
   -2.3036   -0.7384   -2.8743 N   0  3  0  0  0  0  0  0  0  0  0  0
   -2.7359   -1.2666   -2.1145 H   0  0  0  0  0  0  0  0  0  0  0  0
   -2.6314   -0.7964   -4.1428 C   0  0  0  0  0  0  0  0  0  0  0  0
   -3.4888   -1.3197   -4.5711 H   0  0  0  0  0  0  0  0  0  0  0  0
   -1.6600   -0.0944   -4.8495 N   0  0  0  0  0  0  0  0  0  0  0  0
   -1.6331    0.0336   -5.8662 H   0  0  0  0  0  0  0  0  0  0  0  0
   -0.6998    0.3592   -3.9545 C   0  0  0  0  0  0  0  0  0  0  0  0
    0.2015    0.9275   -4.1894 H   0  0  0  0  0  0  0  0  0  0  0  0
    0.1503   -0.1311    1.0291 C   0  0  0  0  0  0  0  0  0  0  0  0
    1.3596    0.0087    1.1150 O   0  0  0  0  0  0  0  0  0  0  0  0
   -0.6656    0.5517    1.9154 N   0  0  0  0  0  0  0  0  0  0  0  0
   -1.6654    0.3965    1.8551 H   0  0  0  0  0  0  0  0  0  0  0  0
   -0.1407    1.2323    3.0977 C   0  0  0  0  0  0  0  0  0  0  0  0
    0.5778    2.0075    2.8093 H   0  0  0  0  0  0  0  0  0  0  0  0
   -0.9519    1.7090    3.6566 H   0  0  0  0  0  0  0  0  0  0  0  0
    0.3629    0.5192    3.7598 H   0  0  0  0  0  0  0  0  0  0  0  0
  1  2  1  0  0  0  0
  2  3  1  0  0  0  0
  2  4  1  0  0  0  0
  2  5  1  0  0  0  0
  5  6  2  0  0  0  0
  5  7  1  0  0  0  0
  7  8  1  0  0  0  0
  7  9  1  0  0  0  0
  9 10  1  0  0  0  0
  9 11  1  0  0  0  0
  9 23  1  0  0  0  0
 11 12  1  0  0  0  0
 11 13  1  0  0  0  0
 11 14  1  0  0  0  0
 14 15  1  0  0  0  0
 14 21  2  0  0  0  0
 15 16  1  0  0  0  0
 15 17  2  0  0  0  0
 17 18  1  0  0  0  0
 17 19  1  0  0  0  0
 19 20  1  0  0  0  0
 19 21  1  0  0  0  0
 21 22  1  0  0  0  0
 23 24  2  0  0  0  0
 23 25  1  0  0  0  0
 25 26  1  0  0  0  0
 25 27  1  0  0  0  0
 27 28  1  0  0  0  0
 27 29  1  0  0  0  0
 27 30  1  0  0  0  0
M  CHG  1  15   1
M  END
$$$$

  -OEChem-04042216003D

 30 30  0     1  0  0  0  0  0999 V2000
   -2.9887   -3.9615    1.8090 H   0  0  0  0  0  0  0  0  0  0  0  0
   -3.1308   -3.0793    1.1771 C   0  0  0  0  0  0  0  0  0  0  0  0
   -3.6299   -2.3071    1.7670 H   0  0  0  0  0  0  0  0  0  0  0  0
   -3.7656   -3.3560    0.3322 H   0  0  0  0  0  0  0  0  0  0  0  0
   -1.7876   -2.5783    0.6808 C   0  0  0  0  0  0  0  0  0  0  0  0
   -0.7711   -3.1681    0.9911 O   0  0  0  0  0  0  0  0  0  0  0  0
   -1.7149   -1.4533   -0.1276 N   0  0  0  0  0  0  0  0  0  0  0  0
   -2.5570   -0.8906   -0.0840 H   0  0  0  0  0  0  0  0  0  0  0  0
   -0.4351   -0.7154   -0.2667 C   0  0  1  0  0  0  0  0  0  0  0  0
    0.2913   -1.4932   -0.5383 H   0  0  0  0  0  0  0  0  0  0  0  0
   -0.3269    0.2890   -1.4362 C   0  0  0  0  0  0  0  0  0  0  0  0
   -0.6679    1.2638   -1.0706 H   0  0  0  0  0  0  0  0  0  0  0  0
    0.7343    0.4050   -1.6876 H   0  0  0  0  0  0  0  0  0  0  0  0
   -1.1190   -0.0186   -2.6927 C   0  0  0  0  0  0  0  0  0  0  0  0
   -2.4384   -0.4477   -2.8599 N   0  3  0  0  0  0  0  0  0  0  0  0
   -3.0500   -0.6753   -2.0768 H   0  0  0  0  0  0  0  0  0  0  0  0
   -2.7160   -0.6089   -4.1318 C   0  0  0  0  0  0  0  0  0  0  0  0
   -3.6597   -0.9604   -4.5540 H   0  0  0  0  0  0  0  0  0  0  0  0
   -1.5749   -0.2629   -4.8483 N   0  0  0  0  0  0  0  0  0  0  0  0
   -1.4746   -0.2912   -5.8681 H   0  0  0  0  0  0  0  0  0  0  0  0
   -0.5791    0.0983   -3.9510 C   0  0  0  0  0  0  0  0  0  0  0  0
    0.4388    0.4105   -4.1900 H   0  0  0  0  0  0  0  0  0  0  0  0
    0.1590   -0.1294    1.0312 C   0  0  0  0  0  0  0  0  0  0  0  0
    1.3689    0.0200    1.0914 O   0  0  0  0  0  0  0  0  0  0  0  0
   -0.6416    0.5420    1.9398 N   0  0  0  0  0  0  0  0  0  0  0  0
   -1.6388    0.3636    1.9105 H   0  0  0  0  0  0  0  0  0  0  0  0
   -0.0943    1.2100    3.1188 C   0  0  0  0  0  0  0  0  0  0  0  0
    0.5948    2.0089    2.8232 H   0  0  0  0  0  0  0  0  0  0  0  0
   -0.8977    1.6538    3.7150 H   0  0  0  0  0  0  0  0  0  0  0  0
    0.4486    0.4958    3.7478 H   0  0  0  0  0  0  0  0  0  0  0  0
  1  2  1  0  0  0  0
  2  3  1  0  0  0  0
  2  4  1  0  0  0  0
  2  5  1  0  0  0  0
  5  6  2  0  0  0  0
  5  7  1  0  0  0  0
  7  8  1  0  0  0  0
  7  9  1  0  0  0  0
  9 10  1  0  0  0  0
  9 11  1  0  0  0  0
  9 23  1  0  0  0  0
 11 12  1  0  0  0  0
 11 13  1  0  0  0  0
 11 14  1  0  0  0  0
 14 15  1  0  0  0  0
 14 21  2  0  0  0  0
 15 16  1  0  0  0  0
 15 17  2  0  0  0  0
 17 18  1  0  0  0  0
 17 19  1  0  0  0  0
 19 20  1  0  0  0  0
 19 21  1  0  0  0  0
 21 22  1  0  0  0  0
 23 24  2  0  0  0  0
 23 25  1  0  0  0  0
 25 26  1  0  0  0  0
 25 27  1  0  0  0  0
 27 28  1  0  0  0  0
 27 29  1  0  0  0  0
 27 30  1  0  0  0  0
M  CHG  1  15   1
M  END
$$$$

  -OEChem-04042216003D

 30 30  0     1  0  0  0  0  0999 V2000
   -3.1549   -4.0764    1.5445 H   0  0  0  0  0  0  0  0  0  0  0  0
   -3.1510   -3.3175    0.7559 C   0  0  0  0  0  0  0  0  0  0  0  0
   -4.0535   -2.7097    0.8536 H   0  0  0  0  0  0  0  0  0  0  0  0
   -3.1580   -3.8234   -0.2122 H   0  0  0  0  0  0  0  0  0  0  0  0
   -1.9161   -2.4458    0.8841 C   0  0  0  0  0  0  0  0  0  0  0  0
   -1.1395   -2.6350    1.7992 O   0  0  0  0  0  0  0  0  0  0  0  0
   -1.6747   -1.4409   -0.0402 N   0  0  0  0  0  0  0  0  0  0  0  0
   -2.2160   -1.5510   -0.8886 H   0  0  0  0  0  0  0  0  0  0  0  0
   -0.3316   -0.8299   -0.1860 C   0  0  1  0  0  0  0  0  0  0  0  0
    0.3596   -1.6544   -0.4008 H   0  0  0  0  0  0  0  0  0  0  0  0
   -0.2027    0.1919   -1.3444 C   0  0  0  0  0  0  0  0  0  0  0  0
   -0.4330    1.1911   -0.9567 H   0  0  0  0  0  0  0  0  0  0  0  0
    0.8487    0.2172   -1.6548 H   0  0  0  0  0  0  0  0  0  0  0  0
   -1.0854   -0.0259   -2.5537 C   0  0  0  0  0  0  0  0  0  0  0  0
   -2.4826   -0.0545   -2.6042 N   0  3  0  0  0  0  0  0  0  0  0  0
   -3.0696    0.2151   -1.8093 H   0  0  0  0  0  0  0  0  0  0  0  0
   -2.8879   -0.2469   -3.8378 C   0  0  0  0  0  0  0  0  0  0  0  0
   -3.9218   -0.2545   -4.1908 H   0  0  0  0  0  0  0  0  0  0  0  0
   -1.7509   -0.4038   -4.6273 N   0  0  0  0  0  0  0  0  0  0  0  0
   -1.7411   -0.5590   -5.6411 H   0  0  0  0  0  0  0  0  0  0  0  0
   -0.6254   -0.2556   -3.8265 C   0  0  0  0  0  0  0  0  0  0  0  0
    0.4191   -0.3033   -4.1394 H   0  0  0  0  0  0  0  0  0  0  0  0
    0.2300   -0.1424    1.0793 C   0  0  0  0  0  0  0  0  0  0  0  0
    1.4440   -0.0441    1.1763 O   0  0  0  0  0  0  0  0  0  0  0  0
   -0.5749    0.6863    1.8411 N   0  0  0  0  0  0  0  0  0  0  0  0
   -1.5623    0.4498    1.8443 H   0  0  0  0  0  0  0  0  0  0  0  0
   -0.0515    1.4213    2.9902 C   0  0  0  0  0  0  0  0  0  0  0  0
    0.7326    2.1195    2.6771 H   0  0  0  0  0  0  0  0  0  0  0  0
   -0.8489    1.9959    3.4717 H   0  0  0  0  0  0  0  0  0  0  0  0
    0.3710    0.7295    3.7274 H   0  0  0  0  0  0  0  0  0  0  0  0
  1  2  1  0  0  0  0
  2  3  1  0  0  0  0
  2  4  1  0  0  0  0
  2  5  1  0  0  0  0
  5  6  2  0  0  0  0
  5  7  1  0  0  0  0
  7  8  1  0  0  0  0
  7  9  1  0  0  0  0
  9 10  1  0  0  0  0
  9 11  1  0  0  0  0
  9 23  1  0  0  0  0
 11 12  1  0  0  0  0
 11 13  1  0  0  0  0
 11 14  1  0  0  0  0
 14 15  1  0  0  0  0
 14 21  2  0  0  0  0
 15 16  1  0  0  0  0
 15 17  2  0  0  0  0
 17 18  1  0  0  0  0
 17 19  1  0  0  0  0
 19 20  1  0  0  0  0
 19 21  1  0  0  0  0
 21 22  1  0  0  0  0
 23 24  2  0  0  0  0
 23 25  1  0  0  0  0
 25 26  1  0  0  0  0
 25 27  1  0  0  0  0
 27 28  1  0  0  0  0
 27 29  1  0  0  0  0
 27 30  1  0  0  0  0
M  CHG  1  15   1
M  END
$$$$

  -OEChem-04042216003D

 30 30  0     1  0  0  0  0  0999 V2000
   -3.1931   -4.0478    1.4849 H   0  0  0  0  0  0  0  0  0  0  0  0
   -3.1744   -3.2753    0.7100 C   0  0  0  0  0  0  0  0  0  0  0  0
   -4.0553   -2.6404    0.8298 H   0  0  0  0  0  0  0  0  0  0  0  0
   -3.2092   -3.7623   -0.2671 H   0  0  0  0  0  0  0  0  0  0  0  0
   -1.9111   -2.4458    0.8375 C   0  0  0  0  0  0  0  0  0  0  0  0
   -1.1254   -2.6775    1.7352 O   0  0  0  0  0  0  0  0  0  0  0  0
   -1.6515   -1.4280   -0.0664 N   0  0  0  0  0  0  0  0  0  0  0  0
   -2.2270   -1.4605   -0.8997 H   0  0  0  0  0  0  0  0  0  0  0  0
   -0.3092   -0.8116   -0.1902 C   0  0  1  0  0  0  0  0  0  0  0  0
    0.3862   -1.6322   -0.4061 H   0  0  0  0  0  0  0  0  0  0  0  0
   -0.1845    0.2110   -1.3443 C   0  0  0  0  0  0  0  0  0  0  0  0
   -0.4179    1.2125   -0.9650 H   0  0  0  0  0  0  0  0  0  0  0  0
    0.8654    0.2372   -1.6602 H   0  0  0  0  0  0  0  0  0  0  0  0
   -1.0699   -0.0468   -2.5412 C   0  0  0  0  0  0  0  0  0  0  0  0
   -2.4468    0.1757   -2.6333 N   0  3  0  0  0  0  0  0  0  0  0  0
   -2.9861    0.6331   -1.8919 H   0  0  0  0  0  0  0  0  0  0  0  0
   -2.8724   -0.1162   -3.8400 C   0  0  0  0  0  0  0  0  0  0  0  0
   -3.8903    0.0048   -4.2187 H   0  0  0  0  0  0  0  0  0  0  0  0
   -1.7760   -0.5808   -4.5642 N   0  0  0  0  0  0  0  0  0  0  0  0
   -1.7874   -0.8726   -5.5474 H   0  0  0  0  0  0  0  0  0  0  0  0
   -0.6469   -0.5246   -3.7559 C   0  0  0  0  0  0  0  0  0  0  0  0
    0.3761   -0.7926   -4.0268 H   0  0  0  0  0  0  0  0  0  0  0  0
    0.2397   -0.1384    1.0870 C   0  0  0  0  0  0  0  0  0  0  0  0
    1.4523   -0.0334    1.1932 O   0  0  0  0  0  0  0  0  0  0  0  0
   -0.5757    0.6790    1.8498 N   0  0  0  0  0  0  0  0  0  0  0  0
   -1.5619    0.4370    1.8430 H   0  0  0  0  0  0  0  0  0  0  0  0
   -0.0654    1.4092    3.0080 C   0  0  0  0  0  0  0  0  0  0  0  0
    0.7371    2.0934    2.7111 H   0  0  0  0  0  0  0  0  0  0  0  0
   -0.8635    1.9991    3.4694 H   0  0  0  0  0  0  0  0  0  0  0  0
    0.3286    0.7134    3.7570 H   0  0  0  0  0  0  0  0  0  0  0  0
  1  2  1  0  0  0  0
  2  3  1  0  0  0  0
  2  4  1  0  0  0  0
  2  5  1  0  0  0  0
  5  6  2  0  0  0  0
  5  7  1  0  0  0  0
  7  8  1  0  0  0  0
  7  9  1  0  0  0  0
  9 10  1  0  0  0  0
  9 11  1  0  0  0  0
  9 23  1  0  0  0  0
 11 12  1  0  0  0  0
 11 13  1  0  0  0  0
 11 14  1  0  0  0  0
 14 15  1  0  0  0  0
 14 21  2  0  0  0  0
 15 16  1  0  0  0  0
 15 17  2  0  0  0  0
 17 18  1  0  0  0  0
 17 19  1  0  0  0  0
 19 20  1  0  0  0  0
 19 21  1  0  0  0  0
 21 22  1  0  0  0  0
 23 24  2  0  0  0  0
 23 25  1  0  0  0  0
 25 26  1  0  0  0  0
 25 27  1  0  0  0  0
 27 28  1  0  0  0  0
 27 29  1  0  0  0  0
 27 30  1  0  0  0  0
M  CHG  1  15   1
M  END
$$$$

  -OEChem-04042216003D

 30 30  0     1  0  0  0  0  0999 V2000
   -3.2132   -4.0214    1.4604 H   0  0  0  0  0  0  0  0  0  0  0  0
   -3.1983   -3.2238    0.7112 C   0  0  0  0  0  0  0  0  0  0  0  0
   -4.0416   -2.5549    0.8978 H   0  0  0  0  0  0  0  0  0  0  0  0
   -3.3053   -3.6741   -0.2781 H   0  0  0  0  0  0  0  0  0  0  0  0
   -1.8933   -2.4561    0.7987 C   0  0  0  0  0  0  0  0  0  0  0  0
   -1.0705   -2.7544    1.6421 O   0  0  0  0  0  0  0  0  0  0  0  0
   -1.6306   -1.4213   -0.0832 N   0  0  0  0  0  0  0  0  0  0  0  0
   -2.2682   -1.3460   -0.8676 H   0  0  0  0  0  0  0  0  0  0  0  0
   -0.2954   -0.7904   -0.1991 C   0  0  1  0  0  0  0  0  0  0  0  0
    0.4063   -1.6040   -0.4214 H   0  0  0  0  0  0  0  0  0  0  0  0
   -0.1823    0.2329   -1.3507 C   0  0  0  0  0  0  0  0  0  0  0  0
   -0.4239    1.2334   -0.9748 H   0  0  0  0  0  0  0  0  0  0  0  0
    0.8658    0.2670   -1.6717 H   0  0  0  0  0  0  0  0  0  0  0  0
   -1.0682   -0.0554   -2.5388 C   0  0  0  0  0  0  0  0  0  0  0  0
   -2.3758    0.3949   -2.7375 N   0  3  0  0  0  0  0  0  0  0  0  0
   -2.8504    1.0327   -2.0911 H   0  0  0  0  0  0  0  0  0  0  0  0
   -2.8138    0.0044   -3.9113 C   0  0  0  0  0  0  0  0  0  0  0  0
   -3.7824    0.2435   -4.3567 H   0  0  0  0  0  0  0  0  0  0  0  0
   -1.8011   -0.7498   -4.5017 N   0  0  0  0  0  0  0  0  0  0  0  0
   -1.8365   -1.1747   -5.4345 H   0  0  0  0  0  0  0  0  0  0  0  0
   -0.7045   -0.7756   -3.6484 C   0  0  0  0  0  0  0  0  0  0  0  0
    0.2610   -1.2541   -3.8226 H   0  0  0  0  0  0  0  0  0  0  0  0
    0.2471   -0.1332    1.0875 C   0  0  0  0  0  0  0  0  0  0  0  0
    1.4582   -0.0139    1.1953 O   0  0  0  0  0  0  0  0  0  0  0  0
   -0.5786    0.6627    1.8614 N   0  0  0  0  0  0  0  0  0  0  0  0
   -1.5627    0.4134    1.8460 H   0  0  0  0  0  0  0  0  0  0  0  0
   -0.0796    1.3828    3.0304 C   0  0  0  0  0  0  0  0  0  0  0  0
    0.7204    2.0750    2.7454 H   0  0  0  0  0  0  0  0  0  0  0  0
   -0.8842    1.9627    3.4933 H   0  0  0  0  0  0  0  0  0  0  0  0
    0.3143    0.6808    3.7738 H   0  0  0  0  0  0  0  0  0  0  0  0
  1  2  1  0  0  0  0
  2  3  1  0  0  0  0
  2  4  1  0  0  0  0
  2  5  1  0  0  0  0
  5  6  2  0  0  0  0
  5  7  1  0  0  0  0
  7  8  1  0  0  0  0
  7  9  1  0  0  0  0
  9 10  1  0  0  0  0
  9 11  1  0  0  0  0
  9 23  1  0  0  0  0
 11 12  1  0  0  0  0
 11 13  1  0  0  0  0
 11 14  1  0  0  0  0
 14 15  1  0  0  0  0
 14 21  2  0  0  0  0
 15 16  1  0  0  0  0
 15 17  2  0  0  0  0
 17 18  1  0  0  0  0
 17 19  1  0  0  0  0
 19 20  1  0  0  0  0
 19 21  1  0  0  0  0
 21 22  1  0  0  0  0
 23 24  2  0  0  0  0
 23 25  1  0  0  0  0
 25 26  1  0  0  0  0
 25 27  1  0  0  0  0
 27 28  1  0  0  0  0
 27 29  1  0  0  0  0
 27 30  1  0  0  0  0
M  CHG  1  15   1
M  END
$$$$

  -OEChem-04042216003D

 30 30  0     1  0  0  0  0  0999 V2000
   -3.2188   -3.9686    1.4894 H   0  0  0  0  0  0  0  0  0  0  0  0
   -3.2169   -3.1471    0.7665 C   0  0  0  0  0  0  0  0  0  0  0  0
   -3.9790   -2.4219    1.0610 H   0  0  0  0  0  0  0  0  0  0  0  0
   -3.4624   -3.5490   -0.2191 H   0  0  0  0  0  0  0  0  0  0  0  0
   -1.8517   -2.4875    0.7377 C   0  0  0  0  0  0  0  0  0  0  0  0
   -0.9648   -2.8908    1.4650 O   0  0  0  0  0  0  0  0  0  0  0  0
   -1.6054   -1.4242   -0.1133 N   0  0  0  0  0  0  0  0  0  0  0  0
   -2.3514   -1.1605   -0.7475 H   0  0  0  0  0  0  0  0  0  0  0  0
   -0.2870   -0.7600   -0.2229 C   0  0  1  0  0  0  0  0  0  0  0  0
    0.4286   -1.5576   -0.4577 H   0  0  0  0  0  0  0  0  0  0  0  0
   -0.1912    0.2692   -1.3695 C   0  0  0  0  0  0  0  0  0  0  0  0
   -0.4600    1.2607   -0.9889 H   0  0  0  0  0  0  0  0  0  0  0  0
    0.8562    0.3317   -1.6887 H   0  0  0  0  0  0  0  0  0  0  0  0
   -1.0657   -0.0448   -2.5597 C   0  0  0  0  0  0  0  0  0  0  0  0
   -2.2610    0.5838   -2.9165 N   0  3  0  0  0  0  0  0  0  0  0  0
   -2.6476    1.3819   -2.4037 H   0  0  0  0  0  0  0  0  0  0  0  0
   -2.7135    0.0870   -4.0437 C   0  0  0  0  0  0  0  0  0  0  0  0
   -3.6060    0.4102   -4.5847 H   0  0  0  0  0  0  0  0  0  0  0  0
   -1.8284   -0.9142   -4.4401 N   0  0  0  0  0  0  0  0  0  0  0  0
   -1.9002   -1.4726   -5.2972 H   0  0  0  0  0  0  0  0  0  0  0  0
   -0.7921   -0.9886   -3.5172 C   0  0  0  0  0  0  0  0  0  0  0  0
    0.0769   -1.6487   -3.5455 H   0  0  0  0  0  0  0  0  0  0  0  0
    0.2466   -0.1248    1.0772 C   0  0  0  0  0  0  0  0  0  0  0  0
    1.4550    0.0143    1.1870 O   0  0  0  0  0  0  0  0  0  0  0  0
   -0.5919    0.6307    1.8778 N   0  0  0  0  0  0  0  0  0  0  0  0
   -1.5745    0.3781    1.8473 H   0  0  0  0  0  0  0  0  0  0  0  0
   -0.1046    1.3244    3.0679 C   0  0  0  0  0  0  0  0  0  0  0  0
    0.6834    2.0384    2.8044 H   0  0  0  0  0  0  0  0  0  0  0  0
   -0.9186    1.8764    3.5478 H   0  0  0  0  0  0  0  0  0  0  0  0
    0.3018    0.6074    3.7898 H   0  0  0  0  0  0  0  0  0  0  0  0
  1  2  1  0  0  0  0
  2  3  1  0  0  0  0
  2  4  1  0  0  0  0
  2  5  1  0  0  0  0
  5  6  2  0  0  0  0
  5  7  1  0  0  0  0
  7  8  1  0  0  0  0
  7  9  1  0  0  0  0
  9 10  1  0  0  0  0
  9 11  1  0  0  0  0
  9 23  1  0  0  0  0
 11 12  1  0  0  0  0
 11 13  1  0  0  0  0
 11 14  1  0  0  0  0
 14 15  1  0  0  0  0
 14 21  2  0  0  0  0
 15 16  1  0  0  0  0
 15 17  2  0  0  0  0
 17 18  1  0  0  0  0
 17 19  1  0  0  0  0
 19 20  1  0  0  0  0
 19 21  1  0  0  0  0
 21 22  1  0  0  0  0
 23 24  2  0  0  0  0
 23 25  1  0  0  0  0
 25 26  1  0  0  0  0
 25 27  1  0  0  0  0
 27 28  1  0  0  0  0
 27 29  1  0  0  0  0
 27 30  1  0  0  0  0
M  CHG  1  15   1
M  END
$$$$

  -OEChem-04042216003D

 30 30  0     1  0  0  0  0  0999 V2000
   -3.2002   -3.9241    1.5400 H   0  0  0  0  0  0  0  0  0  0  0  0
   -3.2150   -3.0920    0.8297 C   0  0  0  0  0  0  0  0  0  0  0  0
   -3.9004   -2.3276    1.2032 H   0  0  0  0  0  0  0  0  0  0  0  0
   -3.5759   -3.4613   -0.1329 H   0  0  0  0  0  0  0  0  0  0  0  0
   -1.8200   -2.5165    0.6792 C   0  0  0  0  0  0  0  0  0  0  0  0
   -0.8883   -3.0076    1.2865 O   0  0  0  0  0  0  0  0  0  0  0  0
   -1.5926   -1.4331   -0.1509 N   0  0  0  0  0  0  0  0  0  0  0  0
   -2.4040   -1.0200   -0.5988 H   0  0  0  0  0  0  0  0  0  0  0  0
   -0.2843   -0.7463   -0.2437 C   0  0  1  0  0  0  0  0  0  0  0  0
    0.4443   -1.5309   -0.4840 H   0  0  0  0  0  0  0  0  0  0  0  0
   -0.1934    0.2900   -1.3841 C   0  0  0  0  0  0  0  0  0  0  0  0
   -0.4921    1.2693   -0.9949 H   0  0  0  0  0  0  0  0  0  0  0  0
    0.8550    0.3823   -1.6924 H   0  0  0  0  0  0  0  0  0  0  0  0
   -1.0500   -0.0329   -2.5862 C   0  0  0  0  0  0  0  0  0  0  0  0
   -2.0809    0.7452   -3.1181 N   0  3  0  0  0  0  0  0  0  0  0  0
   -2.3318    1.6678   -2.7505 H   0  0  0  0  0  0  0  0  0  0  0  0
   -2.5772    0.1690   -4.1874 C   0  0  0  0  0  0  0  0  0  0  0  0
   -3.3687    0.5623   -4.8293 H   0  0  0  0  0  0  0  0  0  0  0  0
   -1.8919   -1.0313   -4.3670 N   0  0  0  0  0  0  0  0  0  0  0  0
   -2.0398   -1.6969   -5.1328 H   0  0  0  0  0  0  0  0  0  0  0  0
   -0.9330   -1.1544   -3.3690 C   0  0  0  0  0  0  0  0  0  0  0  0
   -0.2166   -1.9661   -3.2305 H   0  0  0  0  0  0  0  0  0  0  0  0
    0.2353   -0.1285    1.0698 C   0  0  0  0  0  0  0  0  0  0  0  0
    1.4411    0.0200    1.1924 O   0  0  0  0  0  0  0  0  0  0  0  0
   -0.6156    0.5988    1.8836 N   0  0  0  0  0  0  0  0  0  0  0  0
   -1.5997    0.3566    1.8321 H   0  0  0  0  0  0  0  0  0  0  0  0
   -0.1414    1.2829    3.0844 C   0  0  0  0  0  0  0  0  0  0  0  0
    0.6193    2.0287    2.8289 H   0  0  0  0  0  0  0  0  0  0  0  0
   -0.9689    1.7964    3.5837 H   0  0  0  0  0  0  0  0  0  0  0  0
    0.2962    0.5655    3.7874 H   0  0  0  0  0  0  0  0  0  0  0  0
  1  2  1  0  0  0  0
  2  3  1  0  0  0  0
  2  4  1  0  0  0  0
  2  5  1  0  0  0  0
  5  6  2  0  0  0  0
  5  7  1  0  0  0  0
  7  8  1  0  0  0  0
  7  9  1  0  0  0  0
  9 10  1  0  0  0  0
  9 11  1  0  0  0  0
  9 23  1  0  0  0  0
 11 12  1  0  0  0  0
 11 13  1  0  0  0  0
 11 14  1  0  0  0  0
 14 15  1  0  0  0  0
 14 21  2  0  0  0  0
 15 16  1  0  0  0  0
 15 17  2  0  0  0  0
 17 18  1  0  0  0  0
 17 19  1  0  0  0  0
 19 20  1  0  0  0  0
 19 21  1  0  0  0  0
 21 22  1  0  0  0  0
 23 24  2  0  0  0  0
 23 25  1  0  0  0  0
 25 26  1  0  0  0  0
 25 27  1  0  0  0  0
 27 28  1  0  0  0  0
 27 29  1  0  0  0  0
 27 30  1  0  0  0  0
M  CHG  1  15   1
M  END
$$$$

  -OEChem-04042216003D

 30 30  0     1  0  0  0  0  0999 V2000
   -3.1781   -3.9155    1.6022 H   0  0  0  0  0  0  0  0  0  0  0  0
   -3.2082   -3.0816    0.8943 C   0  0  0  0  0  0  0  0  0  0  0  0
   -3.8576   -2.3031    1.3012 H   0  0  0  0  0  0  0  0  0  0  0  0
   -3.6235   -3.4402   -0.0502 H   0  0  0  0  0  0  0  0  0  0  0  0
   -1.8096   -2.5367    0.6773 C   0  0  0  0  0  0  0  0  0  0  0  0
   -0.8586   -3.0603    1.2248 O   0  0  0  0  0  0  0  0  0  0  0  0
   -1.5988   -1.4503   -0.1534 N   0  0  0  0  0  0  0  0  0  0  0  0
   -2.4282   -0.9903   -0.5163 H   0  0  0  0  0  0  0  0  0  0  0  0
   -0.2952   -0.7532   -0.2448 C   0  0  1  0  0  0  0  0  0  0  0  0
    0.4393   -1.5329   -0.4833 H   0  0  0  0  0  0  0  0  0  0  0  0
   -0.2057    0.2788   -1.3900 C   0  0  0  0  0  0  0  0  0  0  0  0
   -0.5253    1.2503   -0.9976 H   0  0  0  0  0  0  0  0  0  0  0  0
    0.8437    0.3887   -1.6888 H   0  0  0  0  0  0  0  0  0  0  0  0
   -1.0474   -0.0405   -2.6054 C   0  0  0  0  0  0  0  0  0  0  0  0
   -1.8598    0.8508   -3.3101 N   0  3  0  0  0  0  0  0  0  0  0  0
   -1.9366    1.8442   -3.0728 H   0  0  0  0  0  0  0  0  0  0  0  0
   -2.4079    0.2496   -4.3394 C   0  0  0  0  0  0  0  0  0  0  0  0
   -3.0640    0.7062   -5.0838 H   0  0  0  0  0  0  0  0  0  0  0  0
   -1.9817   -1.0771   -4.3190 N   0  0  0  0  0  0  0  0  0  0  0  0
   -2.2213   -1.7941   -5.0116 H   0  0  0  0  0  0  0  0  0  0  0  0
   -1.1268   -1.2568   -3.2386 C   0  0  0  0  0  0  0  0  0  0  0  0
   -0.6026   -2.1694   -2.9483 H   0  0  0  0  0  0  0  0  0  0  0  0
    0.2216   -0.1326    1.0688 C   0  0  0  0  0  0  0  0  0  0  0  0
    1.4268    0.0196    1.1927 O   0  0  0  0  0  0  0  0  0  0  0  0
   -0.6316    0.5886    1.8858 N   0  0  0  0  0  0  0  0  0  0  0  0
   -1.6184    0.3613    1.8237 H   0  0  0  0  0  0  0  0  0  0  0  0
   -0.1604    1.2812    3.0831 C   0  0  0  0  0  0  0  0  0  0  0  0
    0.5765    2.0478    2.8199 H   0  0  0  0  0  0  0  0  0  0  0  0
   -0.9951    1.7702    3.5949 H   0  0  0  0  0  0  0  0  0  0  0  0
    0.3053    0.5736    3.7780 H   0  0  0  0  0  0  0  0  0  0  0  0
  1  2  1  0  0  0  0
  2  3  1  0  0  0  0
  2  4  1  0  0  0  0
  2  5  1  0  0  0  0
  5  6  2  0  0  0  0
  5  7  1  0  0  0  0
  7  8  1  0  0  0  0
  7  9  1  0  0  0  0
  9 10  1  0  0  0  0
  9 11  1  0  0  0  0
  9 23  1  0  0  0  0
 11 12  1  0  0  0  0
 11 13  1  0  0  0  0
 11 14  1  0  0  0  0
 14 15  1  0  0  0  0
 14 21  2  0  0  0  0
 15 16  1  0  0  0  0
 15 17  2  0  0  0  0
 17 18  1  0  0  0  0
 17 19  1  0  0  0  0
 19 20  1  0  0  0  0
 19 21  1  0  0  0  0
 21 22  1  0  0  0  0
 23 24  2  0  0  0  0
 23 25  1  0  0  0  0
 25 26  1  0  0  0  0
 25 27  1  0  0  0  0
 27 28  1  0  0  0  0
 27 29  1  0  0  0  0
 27 30  1  0  0  0  0
M  CHG  1  15   1
M  END
$$$$

  -OEChem-04042216003D

 30 30  0     1  0  0  0  0  0999 V2000
   -3.1500   -3.9152    1.6828 H   0  0  0  0  0  0  0  0  0  0  0  0
   -3.1967   -3.0805    0.9765 C   0  0  0  0  0  0  0  0  0  0  0  0
   -3.8244   -2.2963    1.4060 H   0  0  0  0  0  0  0  0  0  0  0  0
   -3.6475   -3.4351    0.0469 H   0  0  0  0  0  0  0  0  0  0  0  0
   -1.8013   -2.5489    0.7107 C   0  0  0  0  0  0  0  0  0  0  0  0
   -0.8370   -3.0799    1.2266 O   0  0  0  0  0  0  0  0  0  0  0  0
   -1.6089   -1.4688   -0.1330 N   0  0  0  0  0  0  0  0  0  0  0  0
   -2.4487   -0.9913   -0.4477 H   0  0  0  0  0  0  0  0  0  0  0  0
   -0.3106   -0.7639   -0.2417 C   0  0  1  0  0  0  0  0  0  0  0  0
    0.4276   -1.5413   -0.4769 H   0  0  0  0  0  0  0  0  0  0  0  0
   -0.2280    0.2562   -1.3999 C   0  0  0  0  0  0  0  0  0  0  0  0
   -0.5573    1.2257   -1.0106 H   0  0  0  0  0  0  0  0  0  0  0  0
    0.8220    0.3739   -1.6933 H   0  0  0  0  0  0  0  0  0  0  0  0
   -1.0627   -0.0568   -2.6249 C   0  0  0  0  0  0  0  0  0  0  0  0
   -1.6205    0.8898   -3.4878 N   0  3  0  0  0  0  0  0  0  0  0  0
   -1.5076    1.8993   -3.3565 H   0  0  0  0  0  0  0  0  0  0  0  0
   -2.2228    0.2970   -4.4910 C   0  0  0  0  0  0  0  0  0  0  0  0
   -2.7263    0.7877   -5.3268 H   0  0  0  0  0  0  0  0  0  0  0  0
   -2.0843   -1.0763   -4.3030 N   0  0  0  0  0  0  0  0  0  0  0  0
   -2.4227   -1.8049   -4.9401 H   0  0  0  0  0  0  0  0  0  0  0  0
   -1.3496   -1.2969   -3.1443 C   0  0  0  0  0  0  0  0  0  0  0  0
   -1.0318   -2.2563   -2.7322 H   0  0  0  0  0  0  0  0  0  0  0  0
    0.2087   -0.1299    1.0646 C   0  0  0  0  0  0  0  0  0  0  0  0
    1.4136    0.0253    1.1866 O   0  0  0  0  0  0  0  0  0  0  0  0
   -0.6446    0.5912    1.8818 N   0  0  0  0  0  0  0  0  0  0  0  0
   -1.6327    0.3703    1.8166 H   0  0  0  0  0  0  0  0  0  0  0  0
   -0.1724    1.2859    3.0775 C   0  0  0  0  0  0  0  0  0  0  0  0
    0.5474    2.0671    2.8096 H   0  0  0  0  0  0  0  0  0  0  0  0
   -1.0097    1.7564    3.6023 H   0  0  0  0  0  0  0  0  0  0  0  0
    0.3143    0.5833    3.7631 H   0  0  0  0  0  0  0  0  0  0  0  0
  1  2  1  0  0  0  0
  2  3  1  0  0  0  0
  2  4  1  0  0  0  0
  2  5  1  0  0  0  0
  5  6  2  0  0  0  0
  5  7  1  0  0  0  0
  7  8  1  0  0  0  0
  7  9  1  0  0  0  0
  9 10  1  0  0  0  0
  9 11  1  0  0  0  0
  9 23  1  0  0  0  0
 11 12  1  0  0  0  0
 11 13  1  0  0  0  0
 11 14  1  0  0  0  0
 14 15  1  0  0  0  0
 14 21  2  0  0  0  0
 15 16  1  0  0  0  0
 15 17  2  0  0  0  0
 17 18  1  0  0  0  0
 17 19  1  0  0  0  0
 19 20  1  0  0  0  0
 19 21  1  0  0  0  0
 21 22  1  0  0  0  0
 23 24  2  0  0  0  0
 23 25  1  0  0  0  0
 25 26  1  0  0  0  0
 25 27  1  0  0  0  0
 27 28  1  0  0  0  0
 27 29  1  0  0  0  0
 27 30  1  0  0  0  0
M  CHG  1  15   1
M  END
$$$$

  -OEChem-04042216003D

 30 30  0     1  0  0  0  0  0999 V2000
   -3.1094   -3.9201    1.7885 H   0  0  0  0  0  0  0  0  0  0  0  0
   -3.1812   -3.0850    1.0848 C   0  0  0  0  0  0  0  0  0  0  0  0
   -3.7768   -2.2928    1.5443 H   0  0  0  0  0  0  0  0  0  0  0  0
   -3.6827   -3.4339    0.1794 H   0  0  0  0  0  0  0  0  0  0  0  0
   -1.7944   -2.5707    0.7495 C   0  0  0  0  0  0  0  0  0  0  0  0
   -0.8125   -3.1098    1.2219 O   0  0  0  0  0  0  0  0  0  0  0  0
   -1.6313   -1.4949   -0.1065 N   0  0  0  0  0  0  0  0  0  0  0  0
   -2.4822   -1.0009   -0.3615 H   0  0  0  0  0  0  0  0  0  0  0  0
   -0.3405   -0.7801   -0.2405 C   0  0  1  0  0  0  0  0  0  0  0  0
    0.3986   -1.5558   -0.4791 H   0  0  0  0  0  0  0  0  0  0  0  0
   -0.2676    0.2320   -1.4080 C   0  0  0  0  0  0  0  0  0  0  0  0
   -0.5973    1.2017   -1.0197 H   0  0  0  0  0  0  0  0  0  0  0  0
    0.7832    0.3487   -1.6995 H   0  0  0  0  0  0  0  0  0  0  0  0
   -1.0966   -0.0641   -2.6428 C   0  0  0  0  0  0  0  0  0  0  0  0
   -1.3785    0.8742   -3.6394 N   0  3  0  0  0  0  0  0  0  0  0  0
   -1.0721    1.8502   -3.5873 H   0  0  0  0  0  0  0  0  0  0  0  0
   -2.0223    0.3128   -4.6344 C   0  0  0  0  0  0  0  0  0  0  0  0
   -2.3561    0.8042   -5.5511 H   0  0  0  0  0  0  0  0  0  0  0  0
   -2.1816   -1.0327   -4.3139 N   0  0  0  0  0  0  0  0  0  0  0  0
   -2.6125   -1.7432   -4.9143 H   0  0  0  0  0  0  0  0  0  0  0  0
   -1.5849   -1.2727   -3.0822 C   0  0  0  0  0  0  0  0  0  0  0  0
   -1.4772   -2.2346   -2.5785 H   0  0  0  0  0  0  0  0  0  0  0  0
    0.1930   -0.1336    1.0542 C   0  0  0  0  0  0  0  0  0  0  0  0
    1.3979    0.0359    1.1554 O   0  0  0  0  0  0  0  0  0  0  0  0
   -0.6547    0.5853    1.8793 N   0  0  0  0  0  0  0  0  0  0  0  0
   -1.6430    0.3628    1.8254 H   0  0  0  0  0  0  0  0  0  0  0  0
   -0.1734    1.2975    3.0607 C   0  0  0  0  0  0  0  0  0  0  0  0
    0.5716    2.0504    2.7806 H   0  0  0  0  0  0  0  0  0  0  0  0
   -1.0015    1.8066    3.5635 H   0  0  0  0  0  0  0  0  0  0  0  0
    0.2852    0.5991    3.7693 H   0  0  0  0  0  0  0  0  0  0  0  0
  1  2  1  0  0  0  0
  2  3  1  0  0  0  0
  2  4  1  0  0  0  0
  2  5  1  0  0  0  0
  5  6  2  0  0  0  0
  5  7  1  0  0  0  0
  7  8  1  0  0  0  0
  7  9  1  0  0  0  0
  9 10  1  0  0  0  0
  9 11  1  0  0  0  0
  9 23  1  0  0  0  0
 11 12  1  0  0  0  0
 11 13  1  0  0  0  0
 11 14  1  0  0  0  0
 14 15  1  0  0  0  0
 14 21  2  0  0  0  0
 15 16  1  0  0  0  0
 15 17  2  0  0  0  0
 17 18  1  0  0  0  0
 17 19  1  0  0  0  0
 19 20  1  0  0  0  0
 19 21  1  0  0  0  0
 21 22  1  0  0  0  0
 23 24  2  0  0  0  0
 23 25  1  0  0  0  0
 25 26  1  0  0  0  0
 25 27  1  0  0  0  0
 27 28  1  0  0  0  0
 27 29  1  0  0  0  0
 27 30  1  0  0  0  0
M  CHG  1  15   1
M  END
$$$$

  -OEChem-04042216003D

 30 30  0     1  0  0  0  0  0999 V2000
   -2.9169   -3.9910    1.9772 H   0  0  0  0  0  0  0  0  0  0  0  0
   -3.0679   -3.1786    1.2596 C   0  0  0  0  0  0  0  0  0  0  0  0
   -3.6638   -2.3981    1.7382 H   0  0  0  0  0  0  0  0  0  0  0  0
   -3.6124   -3.5716    0.3980 H   0  0  0  0  0  0  0  0  0  0  0  0
   -1.7275   -2.6215    0.8206 C   0  0  0  0  0  0  0  0  0  0  0  0
   -0.6979   -3.1344    1.2140 O   0  0  0  0  0  0  0  0  0  0  0  0
   -1.6674   -1.5280   -0.0280 N   0  0  0  0  0  0  0  0  0  0  0  0
   -2.5444   -1.0285   -0.1430 H   0  0  0  0  0  0  0  0  0  0  0  0
   -0.4151   -0.7639   -0.2232 C   0  0  1  0  0  0  0  0  0  0  0  0
    0.3292   -1.5257   -0.4898 H   0  0  0  0  0  0  0  0  0  0  0  0
   -0.3736    0.2430   -1.4040 C   0  0  0  0  0  0  0  0  0  0  0  0
   -0.4447    1.2476   -0.9712 H   0  0  0  0  0  0  0  0  0  0  0  0
    0.6212    0.1711   -1.8586 H   0  0  0  0  0  0  0  0  0  0  0  0
   -1.4127    0.1867   -2.5117 C   0  0  0  0  0  0  0  0  0  0  0  0
   -1.3873    1.0917   -3.5779 N   0  3  0  0  0  0  0  0  0  0  0  0
   -0.7245    1.8713   -3.6263 H   0  0  0  0  0  0  0  0  0  0  0  0
   -2.2944    0.7900   -4.4738 C   0  0  0  0  0  0  0  0  0  0  0  0
   -2.4944    1.3282   -5.4029 H   0  0  0  0  0  0  0  0  0  0  0  0
   -2.9409   -0.3571   -4.0273 N   0  0  0  0  0  0  0  0  0  0  0  0
   -3.6709   -0.8661   -4.5362 H   0  0  0  0  0  0  0  0  0  0  0  0
   -2.3724   -0.7519   -2.8218 C   0  0  0  0  0  0  0  0  0  0  0  0
   -2.6004   -1.6654   -2.2758 H   0  0  0  0  0  0  0  0  0  0  0  0
    0.1685   -0.1171    1.0505 C   0  0  0  0  0  0  0  0  0  0  0  0
    1.3695    0.1016    1.0825 O   0  0  0  0  0  0  0  0  0  0  0  0
   -0.6542    0.5573    1.9363 N   0  0  0  0  0  0  0  0  0  0  0  0
   -1.6370    0.3067    1.9339 H   0  0  0  0  0  0  0  0  0  0  0  0
   -0.1308    1.2810    3.0929 C   0  0  0  0  0  0  0  0  0  0  0  0
    0.5478    2.0797    2.7739 H   0  0  0  0  0  0  0  0  0  0  0  0
   -0.9486    1.7344    3.6618 H   0  0  0  0  0  0  0  0  0  0  0  0
    0.4168    0.6018    3.7558 H   0  0  0  0  0  0  0  0  0  0  0  0
  1  2  1  0  0  0  0
  2  3  1  0  0  0  0
  2  4  1  0  0  0  0
  2  5  1  0  0  0  0
  5  6  2  0  0  0  0
  5  7  1  0  0  0  0
  7  8  1  0  0  0  0
  7  9  1  0  0  0  0
  9 10  1  0  0  0  0
  9 11  1  0  0  0  0
  9 23  1  0  0  0  0
 11 12  1  0  0  0  0
 11 13  1  0  0  0  0
 11 14  1  0  0  0  0
 14 15  1  0  0  0  0
 14 21  2  0  0  0  0
 15 16  1  0  0  0  0
 15 17  2  0  0  0  0
 17 18  1  0  0  0  0
 17 19  1  0  0  0  0
 19 20  1  0  0  0  0
 19 21  1  0  0  0  0
 21 22  1  0  0  0  0
 23 24  2  0  0  0  0
 23 25  1  0  0  0  0
 25 26  1  0  0  0  0
 25 27  1  0  0  0  0
 27 28  1  0  0  0  0
 27 29  1  0  0  0  0
 27 30  1  0  0  0  0
M  CHG  1  15   1
M  END
$$$$

  -OEChem-04042216003D

 30 30  0     1  0  0  0  0  0999 V2000
   -2.8642   -4.0101    2.0061 H   0  0  0  0  0  0  0  0  0  0  0  0
   -3.0401   -3.1888    1.3045 C   0  0  0  0  0  0  0  0  0  0  0  0
   -3.6148   -2.4127    1.8148 H   0  0  0  0  0  0  0  0  0  0  0  0
   -3.6183   -3.5702    0.4598 H   0  0  0  0  0  0  0  0  0  0  0  0
   -1.7157   -2.6304    0.8206 C   0  0  0  0  0  0  0  0  0  0  0  0
   -0.6736   -3.1471    1.1751 O   0  0  0  0  0  0  0  0  0  0  0  0
   -1.6865   -1.5269   -0.0174 N   0  0  0  0  0  0  0  0  0  0  0  0
   -2.5621   -1.0167   -0.0664 H   0  0  0  0  0  0  0  0  0  0  0  0
   -0.4418   -0.7583   -0.2375 C   0  0  1  0  0  0  0  0  0  0  0  0
    0.2929   -1.5231   -0.5226 H   0  0  0  0  0  0  0  0  0  0  0  0
   -0.4066    0.2471   -1.4198 C   0  0  0  0  0  0  0  0  0  0  0  0
   -0.4572    1.2553   -0.9922 H   0  0  0  0  0  0  0  0  0  0  0  0
    0.5851    0.1562   -1.8782 H   0  0  0  0  0  0  0  0  0  0  0  0
   -1.4486    0.2056   -2.5278 C   0  0  0  0  0  0  0  0  0  0  0  0
   -1.2336    0.8969   -3.7251 N   0  3  0  0  0  0  0  0  0  0  0  0
   -0.4118    1.4878   -3.8819 H   0  0  0  0  0  0  0  0  0  0  0  0
   -2.1971    0.6701   -4.5828 C   0  0  0  0  0  0  0  0  0  0  0  0
   -2.2799    1.0812   -5.5914 H   0  0  0  0  0  0  0  0  0  0  0  0
   -3.0868   -0.2047   -3.9705 N   0  0  0  0  0  0  0  0  0  0  0  0
   -3.9299   -0.5960   -4.4028 H   0  0  0  0  0  0  0  0  0  0  0  0
   -2.6116   -0.5136   -2.7009 C   0  0  0  0  0  0  0  0  0  0  0  0
   -3.0611   -1.2248   -2.0137 H   0  0  0  0  0  0  0  0  0  0  0  0
    0.1778   -0.1241    1.0255 C   0  0  0  0  0  0  0  0  0  0  0  0
    1.3797    0.0924    1.0247 O   0  0  0  0  0  0  0  0  0  0  0  0
   -0.6173    0.5401    1.9436 N   0  0  0  0  0  0  0  0  0  0  0  0
   -1.6000    0.2910    1.9682 H   0  0  0  0  0  0  0  0  0  0  0  0
   -0.0576    1.2466    3.0939 C   0  0  0  0  0  0  0  0  0  0  0  0
    0.6053    2.0548    2.7657 H   0  0  0  0  0  0  0  0  0  0  0  0
   -0.8574    1.6851    3.6991 H   0  0  0  0  0  0  0  0  0  0  0  0
    0.5165    0.5588    3.7248 H   0  0  0  0  0  0  0  0  0  0  0  0
  1  2  1  0  0  0  0
  2  3  1  0  0  0  0
  2  4  1  0  0  0  0
  2  5  1  0  0  0  0
  5  6  2  0  0  0  0
  5  7  1  0  0  0  0
  7  8  1  0  0  0  0
  7  9  1  0  0  0  0
  9 10  1  0  0  0  0
  9 11  1  0  0  0  0
  9 23  1  0  0  0  0
 11 12  1  0  0  0  0
 11 13  1  0  0  0  0
 11 14  1  0  0  0  0
 14 15  1  0  0  0  0
 14 21  2  0  0  0  0
 15 16  1  0  0  0  0
 15 17  2  0  0  0  0
 17 18  1  0  0  0  0
 17 19  1  0  0  0  0
 19 20  1  0  0  0  0
 19 21  1  0  0  0  0
 21 22  1  0  0  0  0
 23 24  2  0  0  0  0
 23 25  1  0  0  0  0
 25 26  1  0  0  0  0
 25 27  1  0  0  0  0
 27 28  1  0  0  0  0
 27 29  1  0  0  0  0
 27 30  1  0  0  0  0
M  CHG  1  15   1
M  END
$$$$

  -OEChem-04042216003D

 30 30  0     1  0  0  0  0  0999 V2000
   -2.9546   -4.2204    1.6989 H   0  0  0  0  0  0  0  0  0  0  0  0
   -3.0138   -3.4707    0.9038 C   0  0  0  0  0  0  0  0  0  0  0  0
   -3.9383   -2.9025    1.0292 H   0  0  0  0  0  0  0  0  0  0  0  0
   -3.0340   -3.9866   -0.0590 H   0  0  0  0  0  0  0  0  0  0  0  0
   -1.8158   -2.5431    0.9772 C   0  0  0  0  0  0  0  0  0  0  0  0
   -0.9982   -2.6841    1.8654 O   0  0  0  0  0  0  0  0  0  0  0  0
   -1.6536   -1.5422    0.0321 N   0  0  0  0  0  0  0  0  0  0  0  0
   -2.2290   -1.6746   -0.7913 H   0  0  0  0  0  0  0  0  0  0  0  0
   -0.3528   -0.8637   -0.1717 C   0  0  1  0  0  0  0  0  0  0  0  0
    0.3706   -1.6622   -0.3793 H   0  0  0  0  0  0  0  0  0  0  0  0
   -0.2810    0.1332   -1.3651 C   0  0  0  0  0  0  0  0  0  0  0  0
   -0.2604    1.1559   -0.9690 H   0  0  0  0  0  0  0  0  0  0  0  0
    0.6905   -0.0240   -1.8467 H   0  0  0  0  0  0  0  0  0  0  0  0
   -1.3621    0.1141   -2.4303 C   0  0  0  0  0  0  0  0  0  0  0  0
   -1.1195    0.4662   -3.7615 N   0  3  0  0  0  0  0  0  0  0  0  0
   -0.1796    0.6562   -4.1228 H   0  0  0  0  0  0  0  0  0  0  0  0
   -2.2371    0.5143   -4.4441 C   0  0  0  0  0  0  0  0  0  0  0  0
   -2.3394    0.7549   -5.5049 H   0  0  0  0  0  0  0  0  0  0  0  0
   -3.2695    0.2225   -3.5583 N   0  0  0  0  0  0  0  0  0  0  0  0
   -4.2693    0.2358   -3.7850 H   0  0  0  0  0  0  0  0  0  0  0  0
   -2.7291    0.0110   -2.2946 C   0  0  0  0  0  0  0  0  0  0  0  0
   -3.2853   -0.1254   -1.3675 H   0  0  0  0  0  0  0  0  0  0  0  0
    0.2073   -0.1281    1.0669 C   0  0  0  0  0  0  0  0  0  0  0  0
    1.4156    0.0479    1.1202 O   0  0  0  0  0  0  0  0  0  0  0  0
   -0.6215    0.6648    1.8403 N   0  0  0  0  0  0  0  0  0  0  0  0
   -1.5950    0.3774    1.8695 H   0  0  0  0  0  0  0  0  0  0  0  0
   -0.1104    1.4488    2.9618 C   0  0  0  0  0  0  0  0  0  0  0  0
    0.6359    2.1731    2.6179 H   0  0  0  0  0  0  0  0  0  0  0  0
   -0.9240    1.9992    3.4445 H   0  0  0  0  0  0  0  0  0  0  0  0
    0.3559    0.7941    3.7065 H   0  0  0  0  0  0  0  0  0  0  0  0
  1  2  1  0  0  0  0
  2  3  1  0  0  0  0
  2  4  1  0  0  0  0
  2  5  1  0  0  0  0
  5  6  2  0  0  0  0
  5  7  1  0  0  0  0
  7  8  1  0  0  0  0
  7  9  1  0  0  0  0
  9 10  1  0  0  0  0
  9 11  1  0  0  0  0
  9 23  1  0  0  0  0
 11 12  1  0  0  0  0
 11 13  1  0  0  0  0
 11 14  1  0  0  0  0
 14 15  1  0  0  0  0
 14 21  2  0  0  0  0
 15 16  1  0  0  0  0
 15 17  2  0  0  0  0
 17 18  1  0  0  0  0
 17 19  1  0  0  0  0
 19 20  1  0  0  0  0
 19 21  1  0  0  0  0
 21 22  1  0  0  0  0
 23 24  2  0  0  0  0
 23 25  1  0  0  0  0
 25 26  1  0  0  0  0
 25 27  1  0  0  0  0
 27 28  1  0  0  0  0
 27 29  1  0  0  0  0
 27 30  1  0  0  0  0
M  CHG  1  15   1
M  END
$$$$

  -OEChem-04042216003D

 30 30  0     1  0  0  0  0  0999 V2000
   -3.0360   -4.1651    1.6188 H   0  0  0  0  0  0  0  0  0  0  0  0
   -3.0688   -3.4023    0.8350 C   0  0  0  0  0  0  0  0  0  0  0  0
   -3.9688   -2.7990    0.9732 H   0  0  0  0  0  0  0  0  0  0  0  0
   -3.1134   -3.9026   -0.1349 H   0  0  0  0  0  0  0  0  0  0  0  0
   -1.8344   -2.5250    0.9151 C   0  0  0  0  0  0  0  0  0  0  0  0
   -1.0115   -2.7191    1.7884 O   0  0  0  0  0  0  0  0  0  0  0  0
   -1.6428   -1.5062   -0.0040 N   0  0  0  0  0  0  0  0  0  0  0  0
   -2.2469   -1.5623   -0.8167 H   0  0  0  0  0  0  0  0  0  0  0  0
   -0.3330   -0.8352   -0.1772 C   0  0  1  0  0  0  0  0  0  0  0  0
    0.3861   -1.6365   -0.3890 H   0  0  0  0  0  0  0  0  0  0  0  0
   -0.2494    0.1677   -1.3612 C   0  0  0  0  0  0  0  0  0  0  0  0
   -0.2493    1.1885   -0.9594 H   0  0  0  0  0  0  0  0  0  0  0  0
    0.7262    0.0315   -1.8414 H   0  0  0  0  0  0  0  0  0  0  0  0
   -1.3409    0.1160   -2.4102 C   0  0  0  0  0  0  0  0  0  0  0  0
   -1.1165    0.1536   -3.7889 N   0  3  0  0  0  0  0  0  0  0  0  0
   -0.1790    0.1220   -4.2014 H   0  0  0  0  0  0  0  0  0  0  0  0
   -2.2502    0.2533   -4.4395 C   0  0  0  0  0  0  0  0  0  0  0  0
   -2.3729    0.3023   -5.5241 H   0  0  0  0  0  0  0  0  0  0  0  0
   -3.2660    0.3083   -3.4887 N   0  0  0  0  0  0  0  0  0  0  0  0
   -4.2625    0.4430   -3.6896 H   0  0  0  0  0  0  0  0  0  0  0  0
   -2.6964    0.2557   -2.2210 C   0  0  0  0  0  0  0  0  0  0  0  0
   -3.2078    0.3693   -1.2639 H   0  0  0  0  0  0  0  0  0  0  0  0
    0.2202   -0.1291    1.0805 C   0  0  0  0  0  0  0  0  0  0  0  0
    1.4292    0.0357    1.1492 O   0  0  0  0  0  0  0  0  0  0  0  0
   -0.6099    0.6568    1.8599 N   0  0  0  0  0  0  0  0  0  0  0  0
   -1.5843    0.3718    1.8799 H   0  0  0  0  0  0  0  0  0  0  0  0
   -0.1023    1.4163    3.0001 C   0  0  0  0  0  0  0  0  0  0  0  0
    0.6493    2.1442    2.6757 H   0  0  0  0  0  0  0  0  0  0  0  0
   -0.9163    1.9607    3.4889 H   0  0  0  0  0  0  0  0  0  0  0  0
    0.3562    0.7447    3.7344 H   0  0  0  0  0  0  0  0  0  0  0  0
  1  2  1  0  0  0  0
  2  3  1  0  0  0  0
  2  4  1  0  0  0  0
  2  5  1  0  0  0  0
  5  6  2  0  0  0  0
  5  7  1  0  0  0  0
  7  8  1  0  0  0  0
  7  9  1  0  0  0  0
  9 10  1  0  0  0  0
  9 11  1  0  0  0  0
  9 23  1  0  0  0  0
 11 12  1  0  0  0  0
 11 13  1  0  0  0  0
 11 14  1  0  0  0  0
 14 15  1  0  0  0  0
 14 21  2  0  0  0  0
 15 16  1  0  0  0  0
 15 17  2  0  0  0  0
 17 18  1  0  0  0  0
 17 19  1  0  0  0  0
 19 20  1  0  0  0  0
 19 21  1  0  0  0  0
 21 22  1  0  0  0  0
 23 24  2  0  0  0  0
 23 25  1  0  0  0  0
 25 26  1  0  0  0  0
 25 27  1  0  0  0  0
 27 28  1  0  0  0  0
 27 29  1  0  0  0  0
 27 30  1  0  0  0  0
M  CHG  1  15   1
M  END
$$$$

  -OEChem-04042216003D

 30 30  0     1  0  0  0  0  0999 V2000
   -3.0964   -4.1278    1.5361 H   0  0  0  0  0  0  0  0  0  0  0  0
   -3.1197   -3.3315    0.7858 C   0  0  0  0  0  0  0  0  0  0  0  0
   -3.9860   -2.6948    0.9799 H   0  0  0  0  0  0  0  0  0  0  0  0
   -3.2202   -3.7873   -0.2019 H   0  0  0  0  0  0  0  0  0  0  0  0
   -1.8437   -2.5148    0.8584 C   0  0  0  0  0  0  0  0  0  0  0  0
   -1.0070   -2.7709    1.7023 O   0  0  0  0  0  0  0  0  0  0  0  0
   -1.6274   -1.4784   -0.0340 N   0  0  0  0  0  0  0  0  0  0  0  0
   -2.2727   -1.4387   -0.8155 H   0  0  0  0  0  0  0  0  0  0  0  0
   -0.3145   -0.8084   -0.1810 C   0  0  1  0  0  0  0  0  0  0  0  0
    0.4038   -1.6086   -0.3991 H   0  0  0  0  0  0  0  0  0  0  0  0
   -0.2285    0.2013   -1.3546 C   0  0  0  0  0  0  0  0  0  0  0  0
   -0.2526    1.2176   -0.9432 H   0  0  0  0  0  0  0  0  0  0  0  0
    0.7501    0.0914   -1.8350 H   0  0  0  0  0  0  0  0  0  0  0  0
   -1.3275    0.1205   -2.3901 C   0  0  0  0  0  0  0  0  0  0  0  0
   -1.1421   -0.1442   -3.7486 N   0  3  0  0  0  0  0  0  0  0  0  0
   -0.2315   -0.3880   -4.1503 H   0  0  0  0  0  0  0  0  0  0  0  0
   -2.2706   -0.0023   -4.4010 C   0  0  0  0  0  0  0  0  0  0  0  0
   -2.4196   -0.1396   -5.4747 H   0  0  0  0  0  0  0  0  0  0  0  0
   -3.2383    0.3778   -3.4733 N   0  0  0  0  0  0  0  0  0  0  0  0
   -4.2127    0.6121   -3.6909 H   0  0  0  0  0  0  0  0  0  0  0  0
   -2.6428    0.4817   -2.2210 C   0  0  0  0  0  0  0  0  0  0  0  0
   -3.1035    0.8287   -1.2948 H   0  0  0  0  0  0  0  0  0  0  0  0
    0.2321   -0.1271    1.0918 C   0  0  0  0  0  0  0  0  0  0  0  0
    1.4405    0.0362    1.1693 O   0  0  0  0  0  0  0  0  0  0  0  0
   -0.6013    0.6482    1.8783 N   0  0  0  0  0  0  0  0  0  0  0  0
   -1.5757    0.3631    1.8915 H   0  0  0  0  0  0  0  0  0  0  0  0
   -0.0967    1.3934    3.0292 C   0  0  0  0  0  0  0  0  0  0  0  0
    0.6407    2.1393    2.7124 H   0  0  0  0  0  0  0  0  0  0  0  0
   -0.9150    1.9146    3.5357 H   0  0  0  0  0  0  0  0  0  0  0  0
    0.3786    0.7153    3.7467 H   0  0  0  0  0  0  0  0  0  0  0  0
  1  2  1  0  0  0  0
  2  3  1  0  0  0  0
  2  4  1  0  0  0  0
  2  5  1  0  0  0  0
  5  6  2  0  0  0  0
  5  7  1  0  0  0  0
  7  8  1  0  0  0  0
  7  9  1  0  0  0  0
  9 10  1  0  0  0  0
  9 11  1  0  0  0  0
  9 23  1  0  0  0  0
 11 12  1  0  0  0  0
 11 13  1  0  0  0  0
 11 14  1  0  0  0  0
 14 15  1  0  0  0  0
 14 21  2  0  0  0  0
 15 16  1  0  0  0  0
 15 17  2  0  0  0  0
 17 18  1  0  0  0  0
 17 19  1  0  0  0  0
 19 20  1  0  0  0  0
 19 21  1  0  0  0  0
 21 22  1  0  0  0  0
 23 24  2  0  0  0  0
 23 25  1  0  0  0  0
 25 26  1  0  0  0  0
 25 27  1  0  0  0  0
 27 28  1  0  0  0  0
 27 29  1  0  0  0  0
 27 30  1  0  0  0  0
M  CHG  1  15   1
M  END
$$$$

  -OEChem-04042216003D

 30 30  0     1  0  0  0  0  0999 V2000
   -3.1266   -4.0702    1.5308 H   0  0  0  0  0  0  0  0  0  0  0  0
   -3.1470   -3.2607    0.7946 C   0  0  0  0  0  0  0  0  0  0  0  0
   -3.9625   -2.5795    1.0478 H   0  0  0  0  0  0  0  0  0  0  0  0
   -3.3293   -3.6922   -0.1922 H   0  0  0  0  0  0  0  0  0  0  0  0
   -1.8246   -2.5181    0.8051 C   0  0  0  0  0  0  0  0  0  0  0  0
   -0.9467   -2.8509    1.5774 O   0  0  0  0  0  0  0  0  0  0  0  0
   -1.6076   -1.4611   -0.0618 N   0  0  0  0  0  0  0  0  0  0  0  0
   -2.3251   -1.2922   -0.7586 H   0  0  0  0  0  0  0  0  0  0  0  0
   -0.3004   -0.7781   -0.1967 C   0  0  1  0  0  0  0  0  0  0  0  0
    0.4228   -1.5705   -0.4267 H   0  0  0  0  0  0  0  0  0  0  0  0
   -0.2224    0.2395   -1.3607 C   0  0  0  0  0  0  0  0  0  0  0  0
   -0.2633    1.2513   -0.9397 H   0  0  0  0  0  0  0  0  0  0  0  0
    0.7564    0.1516   -1.8449 H   0  0  0  0  0  0  0  0  0  0  0  0
   -1.3264    0.1340   -2.3866 C   0  0  0  0  0  0  0  0  0  0  0  0
   -1.1975   -0.4101   -3.6658 N   0  3  0  0  0  0  0  0  0  0  0  0
   -0.3346   -0.8505   -4.0003 H   0  0  0  0  0  0  0  0  0  0  0  0
   -2.3026   -0.2343   -4.3494 C   0  0  0  0  0  0  0  0  0  0  0  0
   -2.4830   -0.5475   -5.3805 H   0  0  0  0  0  0  0  0  0  0  0  0
   -3.1954    0.4459   -3.5229 N   0  0  0  0  0  0  0  0  0  0  0  0
   -4.1305    0.7688   -3.7935 H   0  0  0  0  0  0  0  0  0  0  0  0
   -2.5768    0.6963   -2.3026 C   0  0  0  0  0  0  0  0  0  0  0  0
   -2.9773    1.2623   -1.4600 H   0  0  0  0  0  0  0  0  0  0  0  0
    0.2405   -0.1201    1.0900 C   0  0  0  0  0  0  0  0  0  0  0  0
    1.4480    0.0434    1.1774 O   0  0  0  0  0  0  0  0  0  0  0  0
   -0.5994    0.6314    1.8928 N   0  0  0  0  0  0  0  0  0  0  0  0
   -1.5757    0.3531    1.8861 H   0  0  0  0  0  0  0  0  0  0  0  0
   -0.1052    1.3494    3.0654 C   0  0  0  0  0  0  0  0  0  0  0  0
    0.6692    2.0698    2.7800 H   0  0  0  0  0  0  0  0  0  0  0  0
   -0.9196    1.8980    3.5488 H   0  0  0  0  0  0  0  0  0  0  0  0
    0.3211    0.6488    3.7919 H   0  0  0  0  0  0  0  0  0  0  0  0
  1  2  1  0  0  0  0
  2  3  1  0  0  0  0
  2  4  1  0  0  0  0
  2  5  1  0  0  0  0
  5  6  2  0  0  0  0
  5  7  1  0  0  0  0
  7  8  1  0  0  0  0
  7  9  1  0  0  0  0
  9 10  1  0  0  0  0
  9 11  1  0  0  0  0
  9 23  1  0  0  0  0
 11 12  1  0  0  0  0
 11 13  1  0  0  0  0
 11 14  1  0  0  0  0
 14 15  1  0  0  0  0
 14 21  2  0  0  0  0
 15 16  1  0  0  0  0
 15 17  2  0  0  0  0
 17 18  1  0  0  0  0
 17 19  1  0  0  0  0
 19 20  1  0  0  0  0
 19 21  1  0  0  0  0
 21 22  1  0  0  0  0
 23 24  2  0  0  0  0
 23 25  1  0  0  0  0
 25 26  1  0  0  0  0
 25 27  1  0  0  0  0
 27 28  1  0  0  0  0
 27 29  1  0  0  0  0
 27 30  1  0  0  0  0
M  CHG  1  15   1
M  END
$$$$

  -OEChem-04042216003D

 30 30  0     1  0  0  0  0  0999 V2000
   -3.1321   -4.0004    1.5845 H   0  0  0  0  0  0  0  0  0  0  0  0
   -3.1673   -3.1779    0.8634 C   0  0  0  0  0  0  0  0  0  0  0  0
   -3.8900   -2.4376    1.2146 H   0  0  0  0  0  0  0  0  0  0  0  0
   -3.4945   -3.5736   -0.1008 H   0  0  0  0  0  0  0  0  0  0  0  0
   -1.7939   -2.5480    0.7307 C   0  0  0  0  0  0  0  0  0  0  0  0
   -0.8536   -2.9989    1.3561 O   0  0  0  0  0  0  0  0  0  0  0  0
   -1.5957   -1.4608   -0.1024 N   0  0  0  0  0  0  0  0  0  0  0  0
   -2.4099   -1.0923   -0.5829 H   0  0  0  0  0  0  0  0  0  0  0  0
   -0.3010   -0.7521   -0.2181 C   0  0  1  0  0  0  0  0  0  0  0  0
    0.4333   -1.5301   -0.4628 H   0  0  0  0  0  0  0  0  0  0  0  0
   -0.2309    0.2779   -1.3697 C   0  0  0  0  0  0  0  0  0  0  0  0
   -0.2929    1.2838   -0.9378 H   0  0  0  0  0  0  0  0  0  0  0  0
    0.7515    0.2126   -1.8510 H   0  0  0  0  0  0  0  0  0  0  0  0
   -1.3274    0.1513   -2.4008 C   0  0  0  0  0  0  0  0  0  0  0  0
   -1.2668   -0.6348   -3.5527 N   0  3  0  0  0  0  0  0  0  0  0  0
   -0.4764   -1.2516   -3.7652 H   0  0  0  0  0  0  0  0  0  0  0  0
   -2.3265   -0.4333   -4.2982 C   0  0  0  0  0  0  0  0  0  0  0  0
   -2.5405   -0.9034   -5.2609 H   0  0  0  0  0  0  0  0  0  0  0  0
   -3.1186    0.5081   -3.6431 N   0  0  0  0  0  0  0  0  0  0  0  0
   -3.9949    0.9026   -4.0012 H   0  0  0  0  0  0  0  0  0  0  0  0
   -2.4839    0.8890   -2.4654 C   0  0  0  0  0  0  0  0  0  0  0  0
   -2.8096    1.6503   -1.7550 H   0  0  0  0  0  0  0  0  0  0  0  0
    0.2336   -0.1239    1.0855 C   0  0  0  0  0  0  0  0  0  0  0  0
    1.4389    0.0486    1.1796 O   0  0  0  0  0  0  0  0  0  0  0  0
   -0.6115    0.5908    1.9166 N   0  0  0  0  0  0  0  0  0  0  0  0
   -1.5912    0.3278    1.8909 H   0  0  0  0  0  0  0  0  0  0  0  0
   -0.1216    1.2922    3.1015 C   0  0  0  0  0  0  0  0  0  0  0  0
    0.6196    2.0495    2.8234 H   0  0  0  0  0  0  0  0  0  0  0  0
   -0.9462    1.7950    3.6164 H   0  0  0  0  0  0  0  0  0  0  0  0
    0.3453    0.5880    3.7990 H   0  0  0  0  0  0  0  0  0  0  0  0
  1  2  1  0  0  0  0
  2  3  1  0  0  0  0
  2  4  1  0  0  0  0
  2  5  1  0  0  0  0
  5  6  2  0  0  0  0
  5  7  1  0  0  0  0
  7  8  1  0  0  0  0
  7  9  1  0  0  0  0
  9 10  1  0  0  0  0
  9 11  1  0  0  0  0
  9 23  1  0  0  0  0
 11 12  1  0  0  0  0
 11 13  1  0  0  0  0
 11 14  1  0  0  0  0
 14 15  1  0  0  0  0
 14 21  2  0  0  0  0
 15 16  1  0  0  0  0
 15 17  2  0  0  0  0
 17 18  1  0  0  0  0
 17 19  1  0  0  0  0
 19 20  1  0  0  0  0
 19 21  1  0  0  0  0
 21 22  1  0  0  0  0
 23 24  2  0  0  0  0
 23 25  1  0  0  0  0
 25 26  1  0  0  0  0
 25 27  1  0  0  0  0
 27 28  1  0  0  0  0
 27 29  1  0  0  0  0
 27 30  1  0  0  0  0
M  CHG  1  15   1
M  END
$$$$

  -OEChem-04042216003D

 30 30  0     1  0  0  0  0  0999 V2000
   -3.1228   -3.9510    1.6081 H   0  0  0  0  0  0  0  0  0  0  0  0
   -3.1709   -3.1110    0.9082 C   0  0  0  0  0  0  0  0  0  0  0  0
   -3.8267   -2.3449    1.3284 H   0  0  0  0  0  0  0  0  0  0  0  0
   -3.5896   -3.4663   -0.0359 H   0  0  0  0  0  0  0  0  0  0  0  0
   -1.7817   -2.5460    0.6833 C   0  0  0  0  0  0  0  0  0  0  0  0
   -0.8198   -3.0585    1.2220 O   0  0  0  0  0  0  0  0  0  0  0  0
   -1.5938   -1.4477   -0.1375 N   0  0  0  0  0  0  0  0  0  0  0  0
   -2.4325   -0.9937   -0.4854 H   0  0  0  0  0  0  0  0  0  0  0  0
   -0.2999   -0.7340   -0.2368 C   0  0  1  0  0  0  0  0  0  0  0  0
    0.4389   -1.5063   -0.4855 H   0  0  0  0  0  0  0  0  0  0  0  0
   -0.2265    0.3039   -1.3804 C   0  0  0  0  0  0  0  0  0  0  0  0
   -0.2879    1.3084   -0.9458 H   0  0  0  0  0  0  0  0  0  0  0  0
    0.7558    0.2362   -1.8618 H   0  0  0  0  0  0  0  0  0  0  0  0
   -1.3170    0.1736   -2.4165 C   0  0  0  0  0  0  0  0  0  0  0  0
   -1.3772   -0.8120   -3.4029 N   0  3  0  0  0  0  0  0  0  0  0  0
   -0.6904   -1.5692   -3.4748 H   0  0  0  0  0  0  0  0  0  0  0  0
   -2.3926   -0.5931   -4.2029 C   0  0  0  0  0  0  0  0  0  0  0  0
   -2.6743   -1.1929   -5.0713 H   0  0  0  0  0  0  0  0  0  0  0  0
   -3.0347    0.5577   -3.7480 N   0  0  0  0  0  0  0  0  0  0  0  0
   -3.8449    1.0032   -4.1915 H   0  0  0  0  0  0  0  0  0  0  0  0
   -2.3535    1.0459   -2.6377 C   0  0  0  0  0  0  0  0  0  0  0  0
   -2.5695    1.9552   -2.0746 H   0  0  0  0  0  0  0  0  0  0  0  0
    0.2248   -0.1227    1.0783 C   0  0  0  0  0  0  0  0  0  0  0  0
    1.4300    0.0353    1.1927 O   0  0  0  0  0  0  0  0  0  0  0  0
   -0.6256    0.5786    1.9154 N   0  0  0  0  0  0  0  0  0  0  0  0
   -1.6103    0.3399    1.8629 H   0  0  0  0  0  0  0  0  0  0  0  0
   -0.1452    1.2475    3.1227 C   0  0  0  0  0  0  0  0  0  0  0  0
    0.6040    2.0062    2.8711 H   0  0  0  0  0  0  0  0  0  0  0  0
   -0.9726    1.7422    3.6408 H   0  0  0  0  0  0  0  0  0  0  0  0
    0.3090    0.5231    3.8079 H   0  0  0  0  0  0  0  0  0  0  0  0
  1  2  1  0  0  0  0
  2  3  1  0  0  0  0
  2  4  1  0  0  0  0
  2  5  1  0  0  0  0
  5  6  2  0  0  0  0
  5  7  1  0  0  0  0
  7  8  1  0  0  0  0
  7  9  1  0  0  0  0
  9 10  1  0  0  0  0
  9 11  1  0  0  0  0
  9 23  1  0  0  0  0
 11 12  1  0  0  0  0
 11 13  1  0  0  0  0
 11 14  1  0  0  0  0
 14 15  1  0  0  0  0
 14 21  2  0  0  0  0
 15 16  1  0  0  0  0
 15 17  2  0  0  0  0
 17 18  1  0  0  0  0
 17 19  1  0  0  0  0
 19 20  1  0  0  0  0
 19 21  1  0  0  0  0
 21 22  1  0  0  0  0
 23 24  2  0  0  0  0
 23 25  1  0  0  0  0
 25 26  1  0  0  0  0
 25 27  1  0  0  0  0
 27 28  1  0  0  0  0
 27 29  1  0  0  0  0
 27 30  1  0  0  0  0
M  CHG  1  15   1
M  END
$$$$

  -OEChem-04042216003D

 30 30  0     1  0  0  0  0  0999 V2000
   -3.1058   -3.9258    1.6369 H   0  0  0  0  0  0  0  0  0  0  0  0
   -3.1664   -3.0752    0.9510 C   0  0  0  0  0  0  0  0  0  0  0  0
   -3.7737   -2.2956    1.4168 H   0  0  0  0  0  0  0  0  0  0  0  0
   -3.6484   -3.4048    0.0279 H   0  0  0  0  0  0  0  0  0  0  0  0
   -1.7748   -2.5495    0.6556 C   0  0  0  0  0  0  0  0  0  0  0  0
   -0.7999   -3.1064    1.1216 O   0  0  0  0  0  0  0  0  0  0  0  0
   -1.5982   -1.4437   -0.1582 N   0  0  0  0  0  0  0  0  0  0  0  0
   -2.4444   -0.9439   -0.4155 H   0  0  0  0  0  0  0  0  0  0  0  0
   -0.3050   -0.7257   -0.2461 C   0  0  1  0  0  0  0  0  0  0  0  0
    0.4380   -1.4944   -0.4950 H   0  0  0  0  0  0  0  0  0  0  0  0
   -0.2234    0.3155   -1.3866 C   0  0  0  0  0  0  0  0  0  0  0  0
   -0.2798    1.3208   -0.9530 H   0  0  0  0  0  0  0  0  0  0  0  0
    0.7616    0.2384   -1.8612 H   0  0  0  0  0  0  0  0  0  0  0  0
   -1.3021    0.1897   -2.4368 C   0  0  0  0  0  0  0  0  0  0  0  0
   -1.5255   -0.9324   -3.2366 N   0  3  0  0  0  0  0  0  0  0  0  0
   -0.9746   -1.7926   -3.1506 H   0  0  0  0  0  0  0  0  0  0  0  0
   -2.4882   -0.6952   -4.0947 C   0  0  0  0  0  0  0  0  0  0  0  0
   -2.8631   -1.3844   -4.8547 H   0  0  0  0  0  0  0  0  0  0  0  0
   -2.9322    0.6063   -3.8655 N   0  0  0  0  0  0  0  0  0  0  0  0
   -3.6587    1.0920   -4.4017 H   0  0  0  0  0  0  0  0  0  0  0  0
   -2.1842    1.1633   -2.8334 C   0  0  0  0  0  0  0  0  0  0  0  0
   -2.2561    2.1768   -2.4355 H   0  0  0  0  0  0  0  0  0  0  0  0
    0.2127   -0.1250    1.0767 C   0  0  0  0  0  0  0  0  0  0  0  0
    1.4174    0.0237    1.2045 O   0  0  0  0  0  0  0  0  0  0  0  0
   -0.6409    0.5673    1.9180 N   0  0  0  0  0  0  0  0  0  0  0  0
   -1.6301    0.3560    1.8427 H   0  0  0  0  0  0  0  0  0  0  0  0
   -0.1679    1.2273    3.1329 C   0  0  0  0  0  0  0  0  0  0  0  0
    0.5813    1.9892    2.8910 H   0  0  0  0  0  0  0  0  0  0  0  0
   -0.9984    1.7168    3.6510 H   0  0  0  0  0  0  0  0  0  0  0  0
    0.2842    0.4981    3.8145 H   0  0  0  0  0  0  0  0  0  0  0  0
  1  2  1  0  0  0  0
  2  3  1  0  0  0  0
  2  4  1  0  0  0  0
  2  5  1  0  0  0  0
  5  6  2  0  0  0  0
  5  7  1  0  0  0  0
  7  8  1  0  0  0  0
  7  9  1  0  0  0  0
  9 10  1  0  0  0  0
  9 11  1  0  0  0  0
  9 23  1  0  0  0  0
 11 12  1  0  0  0  0
 11 13  1  0  0  0  0
 11 14  1  0  0  0  0
 14 15  1  0  0  0  0
 14 21  2  0  0  0  0
 15 16  1  0  0  0  0
 15 17  2  0  0  0  0
 17 18  1  0  0  0  0
 17 19  1  0  0  0  0
 19 20  1  0  0  0  0
 19 21  1  0  0  0  0
 21 22  1  0  0  0  0
 23 24  2  0  0  0  0
 23 25  1  0  0  0  0
 25 26  1  0  0  0  0
 25 27  1  0  0  0  0
 27 28  1  0  0  0  0
 27 29  1  0  0  0  0
 27 30  1  0  0  0  0
M  CHG  1  15   1
M  END
$$$$

  -OEChem-04042216003D

 30 30  0     1  0  0  0  0  0999 V2000
   -3.0622   -3.9219    1.7059 H   0  0  0  0  0  0  0  0  0  0  0  0
   -3.1443   -3.0715    1.0221 C   0  0  0  0  0  0  0  0  0  0  0  0
   -3.7163   -2.2829    1.5166 H   0  0  0  0  0  0  0  0  0  0  0  0
   -3.6771   -3.3954    0.1253 H   0  0  0  0  0  0  0  0  0  0  0  0
   -1.7612   -2.5668    0.6569 C   0  0  0  0  0  0  0  0  0  0  0  0
   -0.7732   -3.1472    1.0625 O   0  0  0  0  0  0  0  0  0  0  0  0
   -1.6074   -1.4587   -0.1596 N   0  0  0  0  0  0  0  0  0  0  0  0
   -2.4595   -0.9352   -0.3421 H   0  0  0  0  0  0  0  0  0  0  0  0
   -0.3198   -0.7287   -0.2488 C   0  0  1  0  0  0  0  0  0  0  0  0
    0.4289   -1.4929   -0.4957 H   0  0  0  0  0  0  0  0  0  0  0  0
   -0.2324    0.3094   -1.3939 C   0  0  0  0  0  0  0  0  0  0  0  0
   -0.2874    1.3161   -0.9640 H   0  0  0  0  0  0  0  0  0  0  0  0
    0.7577    0.2246   -1.8568 H   0  0  0  0  0  0  0  0  0  0  0  0
   -1.2907    0.1947   -2.4679 C   0  0  0  0  0  0  0  0  0  0  0  0
   -1.7139   -0.9844   -3.0849 N   0  3  0  0  0  0  0  0  0  0  0  0
   -1.3266   -1.9020   -2.8420 H   0  0  0  0  0  0  0  0  0  0  0  0
   -2.6059   -0.7222   -4.0092 C   0  0  0  0  0  0  0  0  0  0  0  0
   -3.0921   -1.4468   -4.6661 H   0  0  0  0  0  0  0  0  0  0  0  0
   -2.8053    0.6575   -4.0072 N   0  0  0  0  0  0  0  0  0  0  0  0
   -3.4265    1.1721   -4.6401 H   0  0  0  0  0  0  0  0  0  0  0  0
   -1.9806    1.2313   -3.0454 C   0  0  0  0  0  0  0  0  0  0  0  0
   -1.8765    2.2917   -2.8099 H   0  0  0  0  0  0  0  0  0  0  0  0
    0.1947   -0.1251    1.0744 C   0  0  0  0  0  0  0  0  0  0  0  0
    1.3987    0.0243    1.2064 O   0  0  0  0  0  0  0  0  0  0  0  0
   -0.6619    0.5592    1.9195 N   0  0  0  0  0  0  0  0  0  0  0  0
   -1.6528    0.3609    1.8340 H   0  0  0  0  0  0  0  0  0  0  0  0
   -0.1930    1.2248    3.1332 C   0  0  0  0  0  0  0  0  0  0  0  0
    0.5499    1.9924    2.8901 H   0  0  0  0  0  0  0  0  0  0  0  0
   -1.0269    1.7087    3.6512 H   0  0  0  0  0  0  0  0  0  0  0  0
    0.2648    0.5002    3.8157 H   0  0  0  0  0  0  0  0  0  0  0  0
  1  2  1  0  0  0  0
  2  3  1  0  0  0  0
  2  4  1  0  0  0  0
  2  5  1  0  0  0  0
  5  6  2  0  0  0  0
  5  7  1  0  0  0  0
  7  8  1  0  0  0  0
  7  9  1  0  0  0  0
  9 10  1  0  0  0  0
  9 11  1  0  0  0  0
  9 23  1  0  0  0  0
 11 12  1  0  0  0  0
 11 13  1  0  0  0  0
 11 14  1  0  0  0  0
 14 15  1  0  0  0  0
 14 21  2  0  0  0  0
 15 16  1  0  0  0  0
 15 17  2  0  0  0  0
 17 18  1  0  0  0  0
 17 19  1  0  0  0  0
 19 20  1  0  0  0  0
 19 21  1  0  0  0  0
 21 22  1  0  0  0  0
 23 24  2  0  0  0  0
 23 25  1  0  0  0  0
 25 26  1  0  0  0  0
 25 27  1  0  0  0  0
 27 28  1  0  0  0  0
 27 29  1  0  0  0  0
 27 30  1  0  0  0  0
M  CHG  1  15   1
M  END
$$$$

  -OEChem-04042216003D

 30 30  0     1  0  0  0  0  0999 V2000
   -3.0041   -3.9224    1.8005 H   0  0  0  0  0  0  0  0  0  0  0  0
   -3.1115   -3.0819    1.1076 C   0  0  0  0  0  0  0  0  0  0  0  0
   -3.6606   -2.2840    1.6130 H   0  0  0  0  0  0  0  0  0  0  0  0
   -3.6814   -3.4172    0.2382 H   0  0  0  0  0  0  0  0  0  0  0  0
   -1.7426   -2.5883    0.6795 C   0  0  0  0  0  0  0  0  0  0  0  0
   -0.7421   -3.1761    1.0402 O   0  0  0  0  0  0  0  0  0  0  0  0
   -1.6190   -1.4824   -0.1461 N   0  0  0  0  0  0  0  0  0  0  0  0
   -2.4758   -0.9473   -0.2631 H   0  0  0  0  0  0  0  0  0  0  0  0
   -0.3399   -0.7378   -0.2481 C   0  0  1  0  0  0  0  0  0  0  0  0
    0.4139   -1.4987   -0.4907 H   0  0  0  0  0  0  0  0  0  0  0  0
   -0.2489    0.2906   -1.4043 C   0  0  0  0  0  0  0  0  0  0  0  0
   -0.3061    1.3003   -0.9811 H   0  0  0  0  0  0  0  0  0  0  0  0
    0.7474    0.2002   -1.8530 H   0  0  0  0  0  0  0  0  0  0  0  0
   -1.2850    0.1859   -2.5035 C   0  0  0  0  0  0  0  0  0  0  0  0
   -1.9305   -0.9674   -2.9545 N   0  3  0  0  0  0  0  0  0  0  0  0
   -1.7160   -1.8961   -2.5760 H   0  0  0  0  0  0  0  0  0  0  0  0
   -2.7417   -0.6839   -3.9447 C   0  0  0  0  0  0  0  0  0  0  0  0
   -3.3479   -1.3935   -4.5122 H   0  0  0  0  0  0  0  0  0  0  0  0
   -2.6705    0.6923   -4.1500 N   0  0  0  0  0  0  0  0  0  0  0  0
   -3.1784    1.2169   -4.8698 H   0  0  0  0  0  0  0  0  0  0  0  0
   -1.7586    1.2349   -3.2515 C   0  0  0  0  0  0  0  0  0  0  0  0
   -1.4572    2.2799   -3.1648 H   0  0  0  0  0  0  0  0  0  0  0  0
    0.1758   -0.1237    1.0701 C   0  0  0  0  0  0  0  0  0  0  0  0
    1.3788    0.0356    1.1975 O   0  0  0  0  0  0  0  0  0  0  0  0
   -0.6826    0.5536    1.9191 N   0  0  0  0  0  0  0  0  0  0  0  0
   -1.6744    0.3621    1.8305 H   0  0  0  0  0  0  0  0  0  0  0  0
   -0.2145    1.2304    3.1267 C   0  0  0  0  0  0  0  0  0  0  0  0
    0.5083    2.0139    2.8740 H   0  0  0  0  0  0  0  0  0  0  0  0
   -1.0531    1.6955    3.6545 H   0  0  0  0  0  0  0  0  0  0  0  0
    0.2673    0.5163    3.8037 H   0  0  0  0  0  0  0  0  0  0  0  0
  1  2  1  0  0  0  0
  2  3  1  0  0  0  0
  2  4  1  0  0  0  0
  2  5  1  0  0  0  0
  5  6  2  0  0  0  0
  5  7  1  0  0  0  0
  7  8  1  0  0  0  0
  7  9  1  0  0  0  0
  9 10  1  0  0  0  0
  9 11  1  0  0  0  0
  9 23  1  0  0  0  0
 11 12  1  0  0  0  0
 11 13  1  0  0  0  0
 11 14  1  0  0  0  0
 14 15  1  0  0  0  0
 14 21  2  0  0  0  0
 15 16  1  0  0  0  0
 15 17  2  0  0  0  0
 17 18  1  0  0  0  0
 17 19  1  0  0  0  0
 19 20  1  0  0  0  0
 19 21  1  0  0  0  0
 21 22  1  0  0  0  0
 23 24  2  0  0  0  0
 23 25  1  0  0  0  0
 25 26  1  0  0  0  0
 25 27  1  0  0  0  0
 27 28  1  0  0  0  0
 27 29  1  0  0  0  0
 27 30  1  0  0  0  0
M  CHG  1  15   1
M  END
$$$$

  -OEChem-04042216003D

 30 30  0     1  0  0  0  0  0999 V2000
   -2.9345   -3.9377    1.8892 H   0  0  0  0  0  0  0  0  0  0  0  0
   -3.0735   -3.1018    1.1967 C   0  0  0  0  0  0  0  0  0  0  0  0
   -3.6007   -2.3015    1.7212 H   0  0  0  0  0  0  0  0  0  0  0  0
   -3.6811   -3.4435    0.3557 H   0  0  0  0  0  0  0  0  0  0  0  0
   -1.7256   -2.6094    0.7052 C   0  0  0  0  0  0  0  0  0  0  0  0
   -0.7108   -3.1976    1.0219 O   0  0  0  0  0  0  0  0  0  0  0  0
   -1.6412   -1.5024   -0.1251 N   0  0  0  0  0  0  0  0  0  0  0  0
   -2.5004   -0.9600   -0.1705 H   0  0  0  0  0  0  0  0  0  0  0  0
   -0.3726   -0.7409   -0.2469 C   0  0  1  0  0  0  0  0  0  0  0  0
    0.3836   -1.4987   -0.4925 H   0  0  0  0  0  0  0  0  0  0  0  0
   -0.2816    0.2769   -1.4144 C   0  0  0  0  0  0  0  0  0  0  0  0
   -0.3507    1.2877   -0.9954 H   0  0  0  0  0  0  0  0  0  0  0  0
    0.7213    0.1923   -1.8494 H   0  0  0  0  0  0  0  0  0  0  0  0
   -1.2993    0.1780   -2.5332 C   0  0  0  0  0  0  0  0  0  0  0  0
   -2.1609   -0.8771   -2.8380 N   0  3  0  0  0  0  0  0  0  0  0  0
   -2.1155   -1.7725   -2.3408 H   0  0  0  0  0  0  0  0  0  0  0  0
   -2.8805   -0.5973   -3.8976 C   0  0  0  0  0  0  0  0  0  0  0  0
   -3.6023   -1.2548   -4.3869 H   0  0  0  0  0  0  0  0  0  0  0  0
   -2.5328    0.6907   -4.2973 N   0  0  0  0  0  0  0  0  0  0  0  0
   -2.9136    1.1892   -5.1080 H   0  0  0  0  0  0  0  0  0  0  0  0
   -1.5433    1.1724   -3.4482 C   0  0  0  0  0  0  0  0  0  0  0  0
   -1.0434    2.1409   -3.5000 H   0  0  0  0  0  0  0  0  0  0  0  0
    0.1574   -0.1200    1.0626 C   0  0  0  0  0  0  0  0  0  0  0  0
    1.3607    0.0501    1.1724 O   0  0  0  0  0  0  0  0  0  0  0  0
   -0.6939    0.5474    1.9268 N   0  0  0  0  0  0  0  0  0  0  0  0
   -1.6866    0.3575    1.8488 H   0  0  0  0  0  0  0  0  0  0  0  0
   -0.2131    1.2346    3.1236 C   0  0  0  0  0  0  0  0  0  0  0  0
    0.4989    2.0233    2.8568 H   0  0  0  0  0  0  0  0  0  0  0  0
   -1.0481    1.6949    3.6612 H   0  0  0  0  0  0  0  0  0  0  0  0
    0.2851    0.5287    3.7973 H   0  0  0  0  0  0  0  0  0  0  0  0
  1  2  1  0  0  0  0
  2  3  1  0  0  0  0
  2  4  1  0  0  0  0
  2  5  1  0  0  0  0
  5  6  2  0  0  0  0
  5  7  1  0  0  0  0
  7  8  1  0  0  0  0
  7  9  1  0  0  0  0
  9 10  1  0  0  0  0
  9 11  1  0  0  0  0
  9 23  1  0  0  0  0
 11 12  1  0  0  0  0
 11 13  1  0  0  0  0
 11 14  1  0  0  0  0
 14 15  1  0  0  0  0
 14 21  2  0  0  0  0
 15 16  1  0  0  0  0
 15 17  2  0  0  0  0
 17 18  1  0  0  0  0
 17 19  1  0  0  0  0
 19 20  1  0  0  0  0
 19 21  1  0  0  0  0
 21 22  1  0  0  0  0
 23 24  2  0  0  0  0
 23 25  1  0  0  0  0
 25 26  1  0  0  0  0
 25 27  1  0  0  0  0
 27 28  1  0  0  0  0
 27 29  1  0  0  0  0
 27 30  1  0  0  0  0
M  CHG  1  15   1
M  END
$$$$

  -OEChem-04042216003D

 30 30  0     1  0  0  0  0  0999 V2000
   -2.8825   -3.9476    1.9520 H   0  0  0  0  0  0  0  0  0  0  0  0
   -3.0475   -3.1165    1.2591 C   0  0  0  0  0  0  0  0  0  0  0  0
   -3.5645   -2.3169    1.7946 H   0  0  0  0  0  0  0  0  0  0  0  0
   -3.6775   -3.4678    0.4388 H   0  0  0  0  0  0  0  0  0  0  0  0
   -1.7181   -2.6190    0.7242 C   0  0  0  0  0  0  0  0  0  0  0  0
   -0.6919   -3.2027    1.0113 O   0  0  0  0  0  0  0  0  0  0  0  0
   -1.6675   -1.5069   -0.1036 N   0  0  0  0  0  0  0  0  0  0  0  0
   -2.5229   -0.9580   -0.0790 H   0  0  0  0  0  0  0  0  0  0  0  0
   -0.4066   -0.7351   -0.2461 C   0  0  1  0  0  0  0  0  0  0  0  0
    0.3466   -1.4930   -0.5009 H   0  0  0  0  0  0  0  0  0  0  0  0
   -0.3183    0.2724   -1.4234 C   0  0  0  0  0  0  0  0  0  0  0  0
   -0.4053    1.2825   -1.0063 H   0  0  0  0  0  0  0  0  0  0  0  0
    0.6898    0.2014   -1.8490 H   0  0  0  0  0  0  0  0  0  0  0  0
   -1.3275    0.1741   -2.5510 C   0  0  0  0  0  0  0  0  0  0  0  0
   -2.3837   -0.7203   -2.7295 N   0  3  0  0  0  0  0  0  0  0  0  0
   -2.4968   -1.5438   -2.1312 H   0  0  0  0  0  0  0  0  0  0  0  0
   -3.0145   -0.4759   -3.8528 C   0  0  0  0  0  0  0  0  0  0  0  0
   -3.8392   -1.0534   -4.2756 H   0  0  0  0  0  0  0  0  0  0  0  0
   -2.4111    0.6404   -4.4254 N   0  0  0  0  0  0  0  0  0  0  0  0
   -2.6724    1.0716   -5.3181 H   0  0  0  0  0  0  0  0  0  0  0  0
   -1.3538    1.0398   -3.6172 C   0  0  0  0  0  0  0  0  0  0  0  0
   -0.6685    1.8709   -3.7915 H   0  0  0  0  0  0  0  0  0  0  0  0
    0.1482   -0.1160    1.0543 C   0  0  0  0  0  0  0  0  0  0  0  0
    1.3524    0.0626    1.1376 O   0  0  0  0  0  0  0  0  0  0  0  0
   -0.6873    0.5421    1.9409 N   0  0  0  0  0  0  0  0  0  0  0  0
   -1.6812    0.3527    1.8823 H   0  0  0  0  0  0  0  0  0  0  0  0
   -0.1833    1.2313    3.1269 C   0  0  0  0  0  0  0  0  0  0  0  0
    0.5049    2.0350    2.8428 H   0  0  0  0  0  0  0  0  0  0  0  0
   -1.0094    1.6726    3.6933 H   0  0  0  0  0  0  0  0  0  0  0  0
    0.3491    0.5315    3.7804 H   0  0  0  0  0  0  0  0  0  0  0  0
  1  2  1  0  0  0  0
  2  3  1  0  0  0  0
  2  4  1  0  0  0  0
  2  5  1  0  0  0  0
  5  6  2  0  0  0  0
  5  7  1  0  0  0  0
  7  8  1  0  0  0  0
  7  9  1  0  0  0  0
  9 10  1  0  0  0  0
  9 11  1  0  0  0  0
  9 23  1  0  0  0  0
 11 12  1  0  0  0  0
 11 13  1  0  0  0  0
 11 14  1  0  0  0  0
 14 15  1  0  0  0  0
 14 21  2  0  0  0  0
 15 16  1  0  0  0  0
 15 17  2  0  0  0  0
 17 18  1  0  0  0  0
 17 19  1  0  0  0  0
 19 20  1  0  0  0  0
 19 21  1  0  0  0  0
 21 22  1  0  0  0  0
 23 24  2  0  0  0  0
 23 25  1  0  0  0  0
 25 26  1  0  0  0  0
 25 27  1  0  0  0  0
 27 28  1  0  0  0  0
 27 29  1  0  0  0  0
 27 30  1  0  0  0  0
M  CHG  1  15   1
M  END
$$$$

  -OEChem-04042216003D

 30 30  0     1  0  0  0  0  0999 V2000
   -2.8576   -3.9834    1.9446 H   0  0  0  0  0  0  0  0  0  0  0  0
   -3.0398   -3.1240    1.2916 C   0  0  0  0  0  0  0  0  0  0  0  0
   -3.5301   -2.3427    1.8767 H   0  0  0  0  0  0  0  0  0  0  0  0
   -3.7014   -3.4378    0.4812 H   0  0  0  0  0  0  0  0  0  0  0  0
   -1.7258   -2.6154    0.7295 C   0  0  0  0  0  0  0  0  0  0  0  0
   -0.6915   -3.1962    0.9919 O   0  0  0  0  0  0  0  0  0  0  0  0
   -1.7011   -1.4924   -0.0858 N   0  0  0  0  0  0  0  0  0  0  0  0
   -2.5486   -0.9396    0.0014 H   0  0  0  0  0  0  0  0  0  0  0  0
   -0.4443   -0.7167   -0.2438 C   0  0  1  0  0  0  0  0  0  0  0  0
    0.3004   -1.4788   -0.5113 H   0  0  0  0  0  0  0  0  0  0  0  0
   -0.3550    0.2794   -1.4290 C   0  0  0  0  0  0  0  0  0  0  0  0
   -0.4577    1.2889   -1.0144 H   0  0  0  0  0  0  0  0  0  0  0  0
    0.6582    0.2198   -1.8447 H   0  0  0  0  0  0  0  0  0  0  0  0
   -1.3596    0.1762   -2.5607 C   0  0  0  0  0  0  0  0  0  0  0  0
   -2.5745   -0.5064   -2.6445 N   0  3  0  0  0  0  0  0  0  0  0  0
   -2.8517   -1.2014   -1.9483 H   0  0  0  0  0  0  0  0  0  0  0  0
   -3.1253   -0.3289   -3.8217 C   0  0  0  0  0  0  0  0  0  0  0  0
   -4.0421   -0.7946   -4.1895 H   0  0  0  0  0  0  0  0  0  0  0  0
   -2.3010    0.5365   -4.5341 N   0  0  0  0  0  0  0  0  0  0  0  0
   -2.4593    0.8636   -5.4927 H   0  0  0  0  0  0  0  0  0  0  0  0
   -1.1948    0.8409   -3.7516 C   0  0  0  0  0  0  0  0  0  0  0  0
   -0.3528    1.4801   -4.0216 H   0  0  0  0  0  0  0  0  0  0  0  0
    0.1445   -0.1093    1.0475 C   0  0  0  0  0  0  0  0  0  0  0  0
    1.3508    0.0680    1.1005 O   0  0  0  0  0  0  0  0  0  0  0  0
   -0.6655    0.5408    1.9634 N   0  0  0  0  0  0  0  0  0  0  0  0
   -1.6609    0.3530    1.9319 H   0  0  0  0  0  0  0  0  0  0  0  0
   -0.1265    1.2164    3.1423 C   0  0  0  0  0  0  0  0  0  0  0  0
    0.5684    2.0108    2.8483 H   0  0  0  0  0  0  0  0  0  0  0  0
   -0.9338    1.6681    3.7271 H   0  0  0  0  0  0  0  0  0  0  0  0
    0.4078    0.5051    3.7818 H   0  0  0  0  0  0  0  0  0  0  0  0
  1  2  1  0  0  0  0
  2  3  1  0  0  0  0
  2  4  1  0  0  0  0
  2  5  1  0  0  0  0
  5  6  2  0  0  0  0
  5  7  1  0  0  0  0
  7  8  1  0  0  0  0
  7  9  1  0  0  0  0
  9 10  1  0  0  0  0
  9 11  1  0  0  0  0
  9 23  1  0  0  0  0
 11 12  1  0  0  0  0
 11 13  1  0  0  0  0
 11 14  1  0  0  0  0
 14 15  1  0  0  0  0
 14 21  2  0  0  0  0
 15 16  1  0  0  0  0
 15 17  2  0  0  0  0
 17 18  1  0  0  0  0
 17 19  1  0  0  0  0
 19 20  1  0  0  0  0
 19 21  1  0  0  0  0
 21 22  1  0  0  0  0
 23 24  2  0  0  0  0
 23 25  1  0  0  0  0
 25 26  1  0  0  0  0
 25 27  1  0  0  0  0
 27 28  1  0  0  0  0
 27 29  1  0  0  0  0
 27 30  1  0  0  0  0
M  CHG  1  15   1
M  END
$$$$

  -OEChem-04042216003D

 30 30  0     1  0  0  0  0  0999 V2000
   -3.0023   -4.1797    1.6532 H   0  0  0  0  0  0  0  0  0  0  0  0
   -3.0408   -3.4422    0.8454 C   0  0  0  0  0  0  0  0  0  0  0  0
   -3.9876   -2.9017    0.9132 H   0  0  0  0  0  0  0  0  0  0  0  0
   -2.9927   -3.9715   -0.1091 H   0  0  0  0  0  0  0  0  0  0  0  0
   -1.8770   -2.4774    0.9704 C   0  0  0  0  0  0  0  0  0  0  0  0
   -1.1116   -2.5808    1.9079 O   0  0  0  0  0  0  0  0  0  0  0  0
   -1.6985   -1.4796    0.0225 N   0  0  0  0  0  0  0  0  0  0  0  0
   -2.1955   -1.7012   -0.8321 H   0  0  0  0  0  0  0  0  0  0  0  0
   -0.3706   -0.8465   -0.1738 C   0  0  1  0  0  0  0  0  0  0  0  0
    0.3300   -1.6599   -0.4007 H   0  0  0  0  0  0  0  0  0  0  0  0
   -0.2795    0.1837   -1.3405 C   0  0  0  0  0  0  0  0  0  0  0  0
   -0.2439    1.1905   -0.9061 H   0  0  0  0  0  0  0  0  0  0  0  0
    0.6876    0.0366   -1.8355 H   0  0  0  0  0  0  0  0  0  0  0  0
   -1.3762    0.2366   -2.3881 C   0  0  0  0  0  0  0  0  0  0  0  0
   -2.7393   -0.0553   -2.2754 N   0  3  0  0  0  0  0  0  0  0  0  0
   -3.2024   -0.1498   -1.3672 H   0  0  0  0  0  0  0  0  0  0  0  0
   -3.3377    0.0877   -3.4344 C   0  0  0  0  0  0  0  0  0  0  0  0
   -4.4080   -0.0052   -3.6325 H   0  0  0  0  0  0  0  0  0  0  0  0
   -2.3579    0.4196   -4.3655 N   0  0  0  0  0  0  0  0  0  0  0  0
   -2.5138    0.5992   -5.3631 H   0  0  0  0  0  0  0  0  0  0  0  0
   -1.1367    0.5173   -3.7113 C   0  0  0  0  0  0  0  0  0  0  0  0
   -0.1708    0.7663   -4.1544 H   0  0  0  0  0  0  0  0  0  0  0  0
    0.2127   -0.1373    1.0720 C   0  0  0  0  0  0  0  0  0  0  0  0
    1.4268   -0.0161    1.1339 O   0  0  0  0  0  0  0  0  0  0  0  0
   -0.5863    0.6823    1.8498 N   0  0  0  0  0  0  0  0  0  0  0  0
   -1.5661    0.4190    1.8892 H   0  0  0  0  0  0  0  0  0  0  0  0
   -0.0438    1.4329    2.9798 C   0  0  0  0  0  0  0  0  0  0  0  0
    0.7394    2.1225    2.6463 H   0  0  0  0  0  0  0  0  0  0  0  0
   -0.8319    2.0193    3.4622 H   0  0  0  0  0  0  0  0  0  0  0  0
    0.3849    0.7505    3.7220 H   0  0  0  0  0  0  0  0  0  0  0  0
  1  2  1  0  0  0  0
  2  3  1  0  0  0  0
  2  4  1  0  0  0  0
  2  5  1  0  0  0  0
  5  6  2  0  0  0  0
  5  7  1  0  0  0  0
  7  8  1  0  0  0  0
  7  9  1  0  0  0  0
  9 10  1  0  0  0  0
  9 11  1  0  0  0  0
  9 23  1  0  0  0  0
 11 12  1  0  0  0  0
 11 13  1  0  0  0  0
 11 14  1  0  0  0  0
 14 15  1  0  0  0  0
 14 21  2  0  0  0  0
 15 16  1  0  0  0  0
 15 17  2  0  0  0  0
 17 18  1  0  0  0  0
 17 19  1  0  0  0  0
 19 20  1  0  0  0  0
 19 21  1  0  0  0  0
 21 22  1  0  0  0  0
 23 24  2  0  0  0  0
 23 25  1  0  0  0  0
 25 26  1  0  0  0  0
 25 27  1  0  0  0  0
 27 28  1  0  0  0  0
 27 29  1  0  0  0  0
 27 30  1  0  0  0  0
M  CHG  1  15   1
M  END
$$$$

  -OEChem-04042216003D

 30 30  0     1  0  0  0  0  0999 V2000
   -3.0647   -4.1565    1.5632 H   0  0  0  0  0  0  0  0  0  0  0  0
   -3.0900   -3.3946    0.7778 C   0  0  0  0  0  0  0  0  0  0  0  0
   -4.0223   -2.8324    0.8681 H   0  0  0  0  0  0  0  0  0  0  0  0
   -3.0613   -3.8961   -0.1923 H   0  0  0  0  0  0  0  0  0  0  0  0
   -1.9010   -2.4637    0.9225 C   0  0  0  0  0  0  0  0  0  0  0  0
   -1.1420   -2.6004    1.8611 O   0  0  0  0  0  0  0  0  0  0  0  0
   -1.6908   -1.4550   -0.0058 N   0  0  0  0  0  0  0  0  0  0  0  0
   -2.2103   -1.6131   -0.8622 H   0  0  0  0  0  0  0  0  0  0  0  0
   -0.3551   -0.8309   -0.1732 C   0  0  1  0  0  0  0  0  0  0  0  0
    0.3398   -1.6510   -0.3943 H   0  0  0  0  0  0  0  0  0  0  0  0
   -0.2433    0.1927   -1.3398 C   0  0  0  0  0  0  0  0  0  0  0  0
   -0.2109    1.2033   -0.9147 H   0  0  0  0  0  0  0  0  0  0  0  0
    0.7270    0.0396   -1.8265 H   0  0  0  0  0  0  0  0  0  0  0  0
   -1.3382    0.2138   -2.3872 C   0  0  0  0  0  0  0  0  0  0  0  0
   -2.7229    0.1790   -2.1972 N   0  3  0  0  0  0  0  0  0  0  0  0
   -3.1519    0.2678   -1.2712 H   0  0  0  0  0  0  0  0  0  0  0  0
   -3.3444    0.2272   -3.3517 C   0  0  0  0  0  0  0  0  0  0  0  0
   -4.4245    0.2737   -3.5094 H   0  0  0  0  0  0  0  0  0  0  0  0
   -2.3678    0.2418   -4.3446 N   0  0  0  0  0  0  0  0  0  0  0  0
   -2.5399    0.2897   -5.3544 H   0  0  0  0  0  0  0  0  0  0  0  0
   -1.1159    0.2398   -3.7420 C   0  0  0  0  0  0  0  0  0  0  0  0
   -0.1444    0.2636   -4.2385 H   0  0  0  0  0  0  0  0  0  0  0  0
    0.2209   -0.1410    1.0855 C   0  0  0  0  0  0  0  0  0  0  0  0
    1.4348   -0.0209    1.1545 O   0  0  0  0  0  0  0  0  0  0  0  0
   -0.5804    0.6774    1.8619 N   0  0  0  0  0  0  0  0  0  0  0  0
   -1.5577    0.4059    1.9045 H   0  0  0  0  0  0  0  0  0  0  0  0
   -0.0401    1.4233    2.9962 C   0  0  0  0  0  0  0  0  0  0  0  0
    0.7300    2.1279    2.6634 H   0  0  0  0  0  0  0  0  0  0  0  0
   -0.8327    1.9923    3.4918 H   0  0  0  0  0  0  0  0  0  0  0  0
    0.4050    0.7397    3.7277 H   0  0  0  0  0  0  0  0  0  0  0  0
  1  2  1  0  0  0  0
  2  3  1  0  0  0  0
  2  4  1  0  0  0  0
  2  5  1  0  0  0  0
  5  6  2  0  0  0  0
  5  7  1  0  0  0  0
  7  8  1  0  0  0  0
  7  9  1  0  0  0  0
  9 10  1  0  0  0  0
  9 11  1  0  0  0  0
  9 23  1  0  0  0  0
 11 12  1  0  0  0  0
 11 13  1  0  0  0  0
 11 14  1  0  0  0  0
 14 15  1  0  0  0  0
 14 21  2  0  0  0  0
 15 16  1  0  0  0  0
 15 17  2  0  0  0  0
 17 18  1  0  0  0  0
 17 19  1  0  0  0  0
 19 20  1  0  0  0  0
 19 21  1  0  0  0  0
 21 22  1  0  0  0  0
 23 24  2  0  0  0  0
 23 25  1  0  0  0  0
 25 26  1  0  0  0  0
 25 27  1  0  0  0  0
 27 28  1  0  0  0  0
 27 29  1  0  0  0  0
 27 30  1  0  0  0  0
M  CHG  1  15   1
M  END
$$$$

  -OEChem-04042216003D

 30 30  0     1  0  0  0  0  0999 V2000
   -3.1339   -4.0993    1.5135 H   0  0  0  0  0  0  0  0  0  0  0  0
   -3.1261   -3.3391    0.7264 C   0  0  0  0  0  0  0  0  0  0  0  0
   -4.0363   -2.7412    0.8113 H   0  0  0  0  0  0  0  0  0  0  0  0
   -3.1125   -3.8429   -0.2428 H   0  0  0  0  0  0  0  0  0  0  0  0
   -1.9032   -2.4544    0.8741 C   0  0  0  0  0  0  0  0  0  0  0  0
   -1.1364   -2.6351    1.7991 O   0  0  0  0  0  0  0  0  0  0  0  0
   -1.6667   -1.4368   -0.0367 N   0  0  0  0  0  0  0  0  0  0  0  0
   -2.2160   -1.5252   -0.8849 H   0  0  0  0  0  0  0  0  0  0  0  0
   -0.3280   -0.8140   -0.1786 C   0  0  1  0  0  0  0  0  0  0  0  0
    0.3683   -1.6340   -0.3952 H   0  0  0  0  0  0  0  0  0  0  0  0
   -0.2097    0.2060   -1.3431 C   0  0  0  0  0  0  0  0  0  0  0  0
   -0.1814    1.2207   -0.9279 H   0  0  0  0  0  0  0  0  0  0  0  0
    0.7600    0.0502   -1.8297 H   0  0  0  0  0  0  0  0  0  0  0  0
   -1.3102    0.1876   -2.3809 C   0  0  0  0  0  0  0  0  0  0  0  0
   -2.6727    0.4142   -2.1683 N   0  3  0  0  0  0  0  0  0  0  0  0
   -3.0489    0.7027   -1.2599 H   0  0  0  0  0  0  0  0  0  0  0  0
   -3.3255    0.3603   -3.3052 C   0  0  0  0  0  0  0  0  0  0  0  0
   -4.3921    0.5447   -3.4536 H   0  0  0  0  0  0  0  0  0  0  0  0
   -2.3983    0.0524   -4.2989 N   0  0  0  0  0  0  0  0  0  0  0  0
   -2.6020   -0.0423   -5.2995 H   0  0  0  0  0  0  0  0  0  0  0  0
   -1.1372   -0.0455   -3.7224 C   0  0  0  0  0  0  0  0  0  0  0  0
   -0.1921   -0.2510   -4.2285 H   0  0  0  0  0  0  0  0  0  0  0  0
    0.2317   -0.1377    1.0934 C   0  0  0  0  0  0  0  0  0  0  0  0
    1.4442   -0.0162    1.1805 O   0  0  0  0  0  0  0  0  0  0  0  0
   -0.5819    0.6746    1.8636 N   0  0  0  0  0  0  0  0  0  0  0  0
   -1.5577    0.3959    1.8947 H   0  0  0  0  0  0  0  0  0  0  0  0
   -0.0579    1.4112    3.0116 C   0  0  0  0  0  0  0  0  0  0  0  0
    0.7295    2.1060    2.6992 H   0  0  0  0  0  0  0  0  0  0  0  0
   -0.8543    1.9902    3.4893 H   0  0  0  0  0  0  0  0  0  0  0  0
    0.3605    0.7203    3.7520 H   0  0  0  0  0  0  0  0  0  0  0  0
  1  2  1  0  0  0  0
  2  3  1  0  0  0  0
  2  4  1  0  0  0  0
  2  5  1  0  0  0  0
  5  6  2  0  0  0  0
  5  7  1  0  0  0  0
  7  8  1  0  0  0  0
  7  9  1  0  0  0  0
  9 10  1  0  0  0  0
  9 11  1  0  0  0  0
  9 23  1  0  0  0  0
 11 12  1  0  0  0  0
 11 13  1  0  0  0  0
 11 14  1  0  0  0  0
 14 15  1  0  0  0  0
 14 21  2  0  0  0  0
 15 16  1  0  0  0  0
 15 17  2  0  0  0  0
 17 18  1  0  0  0  0
 17 19  1  0  0  0  0
 19 20  1  0  0  0  0
 19 21  1  0  0  0  0
 21 22  1  0  0  0  0
 23 24  2  0  0  0  0
 23 25  1  0  0  0  0
 25 26  1  0  0  0  0
 25 27  1  0  0  0  0
 27 28  1  0  0  0  0
 27 29  1  0  0  0  0
 27 30  1  0  0  0  0
M  CHG  1  15   1
M  END
$$$$

  -OEChem-04042216003D

 30 30  0     1  0  0  0  0  0999 V2000
   -3.1680   -4.0710    1.4775 H   0  0  0  0  0  0  0  0  0  0  0  0
   -3.1549   -3.2933    0.7077 C   0  0  0  0  0  0  0  0  0  0  0  0
   -4.0400   -2.6651    0.8316 H   0  0  0  0  0  0  0  0  0  0  0  0
   -3.1869   -3.7742   -0.2727 H   0  0  0  0  0  0  0  0  0  0  0  0
   -1.8970   -2.4563    0.8399 C   0  0  0  0  0  0  0  0  0  0  0  0
   -1.1105   -2.6841    1.7380 O   0  0  0  0  0  0  0  0  0  0  0  0
   -1.6456   -1.4297   -0.0556 N   0  0  0  0  0  0  0  0  0  0  0  0
   -2.2355   -1.4407   -0.8809 H   0  0  0  0  0  0  0  0  0  0  0  0
   -0.3087   -0.8007   -0.1828 C   0  0  1  0  0  0  0  0  0  0  0  0
    0.3920   -1.6174   -0.3975 H   0  0  0  0  0  0  0  0  0  0  0  0
   -0.1916    0.2167   -1.3462 C   0  0  0  0  0  0  0  0  0  0  0  0
   -0.1640    1.2353   -0.9410 H   0  0  0  0  0  0  0  0  0  0  0  0
    0.7760    0.0579   -1.8360 H   0  0  0  0  0  0  0  0  0  0  0  0
   -1.2969    0.1626   -2.3744 C   0  0  0  0  0  0  0  0  0  0  0  0
   -2.5986    0.6423   -2.2128 N   0  3  0  0  0  0  0  0  0  0  0  0
   -2.9097    1.1277   -1.3657 H   0  0  0  0  0  0  0  0  0  0  0  0
   -3.2764    0.4963   -3.3265 C   0  0  0  0  0  0  0  0  0  0  0  0
   -4.3040    0.8193   -3.5095 H   0  0  0  0  0  0  0  0  0  0  0  0
   -2.4312   -0.1222   -4.2464 N   0  0  0  0  0  0  0  0  0  0  0  0
   -2.6671   -0.3468   -5.2189 H   0  0  0  0  0  0  0  0  0  0  0  0
   -1.1888   -0.3191   -3.6546 C   0  0  0  0  0  0  0  0  0  0  0  0
   -0.2964   -0.7487   -4.1134 H   0  0  0  0  0  0  0  0  0  0  0  0
    0.2380   -0.1334    1.0985 C   0  0  0  0  0  0  0  0  0  0  0  0
    1.4487   -0.0001    1.1922 O   0  0  0  0  0  0  0  0  0  0  0  0
   -0.5865    0.6685    1.8680 N   0  0  0  0  0  0  0  0  0  0  0  0
   -1.5600    0.3813    1.8915 H   0  0  0  0  0  0  0  0  0  0  0  0
   -0.0753    1.4022    3.0238 C   0  0  0  0  0  0  0  0  0  0  0  0
    0.7091    2.1040    2.7202 H   0  0  0  0  0  0  0  0  0  0  0  0
   -0.8784    1.9734    3.4993 H   0  0  0  0  0  0  0  0  0  0  0  0
    0.3432    0.7101    3.7629 H   0  0  0  0  0  0  0  0  0  0  0  0
  1  2  1  0  0  0  0
  2  3  1  0  0  0  0
  2  4  1  0  0  0  0
  2  5  1  0  0  0  0
  5  6  2  0  0  0  0
  5  7  1  0  0  0  0
  7  8  1  0  0  0  0
  7  9  1  0  0  0  0
  9 10  1  0  0  0  0
  9 11  1  0  0  0  0
  9 23  1  0  0  0  0
 11 12  1  0  0  0  0
 11 13  1  0  0  0  0
 11 14  1  0  0  0  0
 14 15  1  0  0  0  0
 14 21  2  0  0  0  0
 15 16  1  0  0  0  0
 15 17  2  0  0  0  0
 17 18  1  0  0  0  0
 17 19  1  0  0  0  0
 19 20  1  0  0  0  0
 19 21  1  0  0  0  0
 21 22  1  0  0  0  0
 23 24  2  0  0  0  0
 23 25  1  0  0  0  0
 25 26  1  0  0  0  0
 25 27  1  0  0  0  0
 27 28  1  0  0  0  0
 27 29  1  0  0  0  0
 27 30  1  0  0  0  0
M  CHG  1  15   1
M  END
$$$$

  -OEChem-04042216003D

 30 30  0     1  0  0  0  0  0999 V2000
   -3.1803   -4.0549    1.4723 H   0  0  0  0  0  0  0  0  0  0  0  0
   -3.1766   -3.2524    0.7283 C   0  0  0  0  0  0  0  0  0  0  0  0
   -4.0276   -2.5949    0.9203 H   0  0  0  0  0  0  0  0  0  0  0  0
   -3.2802   -3.6977   -0.2637 H   0  0  0  0  0  0  0  0  0  0  0  0
   -1.8808   -2.4693    0.8185 C   0  0  0  0  0  0  0  0  0  0  0  0
   -1.0614   -2.7494    1.6715 O   0  0  0  0  0  0  0  0  0  0  0  0
   -1.6288   -1.4319   -0.0632 N   0  0  0  0  0  0  0  0  0  0  0  0
   -2.2723   -1.3570   -0.8438 H   0  0  0  0  0  0  0  0  0  0  0  0
   -0.2987   -0.7901   -0.1879 C   0  0  1  0  0  0  0  0  0  0  0  0
    0.4078   -1.6002   -0.4078 H   0  0  0  0  0  0  0  0  0  0  0  0
   -0.1927    0.2297   -1.3486 C   0  0  0  0  0  0  0  0  0  0  0  0
   -0.1691    1.2486   -0.9448 H   0  0  0  0  0  0  0  0  0  0  0  0
    0.7730    0.0762   -1.8442 H   0  0  0  0  0  0  0  0  0  0  0  0
   -1.3017    0.1550   -2.3704 C   0  0  0  0  0  0  0  0  0  0  0  0
   -2.5089    0.8559   -2.3333 N   0  3  0  0  0  0  0  0  0  0  0  0
   -2.7447    1.5202   -1.5895 H   0  0  0  0  0  0  0  0  0  0  0  0
   -3.2018    0.6199   -3.4221 C   0  0  0  0  0  0  0  0  0  0  0  0
   -4.1675    1.0580   -3.6849 H   0  0  0  0  0  0  0  0  0  0  0  0
   -2.4641   -0.2738   -4.1969 N   0  0  0  0  0  0  0  0  0  0  0  0
   -2.7309   -0.6245   -5.1231 H   0  0  0  0  0  0  0  0  0  0  0  0
   -1.2682   -0.5526   -3.5454 C   0  0  0  0  0  0  0  0  0  0  0  0
   -0.4510   -1.1837   -3.8992 H   0  0  0  0  0  0  0  0  0  0  0  0
    0.2432   -0.1308    1.0982 C   0  0  0  0  0  0  0  0  0  0  0  0
    1.4526    0.0111    1.1949 O   0  0  0  0  0  0  0  0  0  0  0  0
   -0.5886    0.6557    1.8758 N   0  0  0  0  0  0  0  0  0  0  0  0
   -1.5629    0.3698    1.8872 H   0  0  0  0  0  0  0  0  0  0  0  0
   -0.0858    1.3847    3.0383 C   0  0  0  0  0  0  0  0  0  0  0  0
    0.6970    2.0918    2.7422 H   0  0  0  0  0  0  0  0  0  0  0  0
   -0.8937    1.9494    3.5140 H   0  0  0  0  0  0  0  0  0  0  0  0
    0.3329    0.6899    3.7748 H   0  0  0  0  0  0  0  0  0  0  0  0
  1  2  1  0  0  0  0
  2  3  1  0  0  0  0
  2  4  1  0  0  0  0
  2  5  1  0  0  0  0
  5  6  2  0  0  0  0
  5  7  1  0  0  0  0
  7  8  1  0  0  0  0
  7  9  1  0  0  0  0
  9 10  1  0  0  0  0
  9 11  1  0  0  0  0
  9 23  1  0  0  0  0
 11 12  1  0  0  0  0
 11 13  1  0  0  0  0
 11 14  1  0  0  0  0
 14 15  1  0  0  0  0
 14 21  2  0  0  0  0
 15 16  1  0  0  0  0
 15 17  2  0  0  0  0
 17 18  1  0  0  0  0
 17 19  1  0  0  0  0
 19 20  1  0  0  0  0
 19 21  1  0  0  0  0
 21 22  1  0  0  0  0
 23 24  2  0  0  0  0
 23 25  1  0  0  0  0
 25 26  1  0  0  0  0
 25 27  1  0  0  0  0
 27 28  1  0  0  0  0
 27 29  1  0  0  0  0
 27 30  1  0  0  0  0
M  CHG  1  15   1
M  END
$$$$

  -OEChem-04042216003D

 30 30  0     1  0  0  0  0  0999 V2000
   -3.1880   -4.0020    1.5144 H   0  0  0  0  0  0  0  0  0  0  0  0
   -3.1936   -3.1842    0.7873 C   0  0  0  0  0  0  0  0  0  0  0  0
   -3.9752   -2.4741    1.0671 H   0  0  0  0  0  0  0  0  0  0  0  0
   -3.4163   -3.5964   -0.1994 H   0  0  0  0  0  0  0  0  0  0  0  0
   -1.8423   -2.4955    0.7736 C   0  0  0  0  0  0  0  0  0  0  0  0
   -0.9599   -2.8717    1.5203 O   0  0  0  0  0  0  0  0  0  0  0  0
   -1.6045   -1.4350   -0.0833 N   0  0  0  0  0  0  0  0  0  0  0  0
   -2.3443   -1.1979   -0.7355 H   0  0  0  0  0  0  0  0  0  0  0  0
   -0.2894   -0.7646   -0.2059 C   0  0  1  0  0  0  0  0  0  0  0  0
    0.4292   -1.5609   -0.4372 H   0  0  0  0  0  0  0  0  0  0  0  0
   -0.1983    0.2605   -1.3618 C   0  0  0  0  0  0  0  0  0  0  0  0
   -0.1949    1.2765   -0.9504 H   0  0  0  0  0  0  0  0  0  0  0  0
    0.7706    0.1288   -1.8575 H   0  0  0  0  0  0  0  0  0  0  0  0
   -1.3023    0.1656   -2.3874 C   0  0  0  0  0  0  0  0  0  0  0  0
   -2.3871    1.0339   -2.5260 N   0  3  0  0  0  0  0  0  0  0  0  0
   -2.5259    1.8538   -1.9275 H   0  0  0  0  0  0  0  0  0  0  0  0
   -3.1020    0.7003   -3.5743 C   0  0  0  0  0  0  0  0  0  0  0  0
   -3.9876    1.2195   -3.9485 H   0  0  0  0  0  0  0  0  0  0  0  0
   -2.5063   -0.4262   -4.1400 N   0  0  0  0  0  0  0  0  0  0  0  0
   -2.8175   -0.9029   -4.9931 H   0  0  0  0  0  0  0  0  0  0  0  0
   -1.3728   -0.7527   -3.4046 C   0  0  0  0  0  0  0  0  0  0  0  0
   -0.6609   -1.5568   -3.6007 H   0  0  0  0  0  0  0  0  0  0  0  0
    0.2454   -0.1223    1.0907 C   0  0  0  0  0  0  0  0  0  0  0  0
    1.4523    0.0375    1.1899 O   0  0  0  0  0  0  0  0  0  0  0  0
   -0.5975    0.6300    1.8900 N   0  0  0  0  0  0  0  0  0  0  0  0
   -1.5739    0.3525    1.8765 H   0  0  0  0  0  0  0  0  0  0  0  0
   -0.1075    1.3310    3.0747 C   0  0  0  0  0  0  0  0  0  0  0  0
    0.6484    2.0743    2.7983 H   0  0  0  0  0  0  0  0  0  0  0  0
   -0.9287    1.8495    3.5791 H   0  0  0  0  0  0  0  0  0  0  0  0
    0.3415    0.6233    3.7804 H   0  0  0  0  0  0  0  0  0  0  0  0
  1  2  1  0  0  0  0
  2  3  1  0  0  0  0
  2  4  1  0  0  0  0
  2  5  1  0  0  0  0
  5  6  2  0  0  0  0
  5  7  1  0  0  0  0
  7  8  1  0  0  0  0
  7  9  1  0  0  0  0
  9 10  1  0  0  0  0
  9 11  1  0  0  0  0
  9 23  1  0  0  0  0
 11 12  1  0  0  0  0
 11 13  1  0  0  0  0
 11 14  1  0  0  0  0
 14 15  1  0  0  0  0
 14 21  2  0  0  0  0
 15 16  1  0  0  0  0
 15 17  2  0  0  0  0
 17 18  1  0  0  0  0
 17 19  1  0  0  0  0
 19 20  1  0  0  0  0
 19 21  1  0  0  0  0
 21 22  1  0  0  0  0
 23 24  2  0  0  0  0
 23 25  1  0  0  0  0
 25 26  1  0  0  0  0
 25 27  1  0  0  0  0
 27 28  1  0  0  0  0
 27 29  1  0  0  0  0
 27 30  1  0  0  0  0
M  CHG  1  15   1
M  END
$$$$

  -OEChem-04042216003D

 30 30  0     1  0  0  0  0  0999 V2000
   -3.1660   -3.9568    1.5878 H   0  0  0  0  0  0  0  0  0  0  0  0
   -3.1925   -3.1311    0.8700 C   0  0  0  0  0  0  0  0  0  0  0  0
   -3.8948   -2.3770    1.2324 H   0  0  0  0  0  0  0  0  0  0  0  0
   -3.5402   -3.5160   -0.0914 H   0  0  0  0  0  0  0  0  0  0  0  0
   -1.8077   -2.5303    0.7224 C   0  0  0  0  0  0  0  0  0  0  0  0
   -0.8700   -3.0008    1.3367 O   0  0  0  0  0  0  0  0  0  0  0  0
   -1.5971   -1.4463   -0.1117 N   0  0  0  0  0  0  0  0  0  0  0  0
   -2.4140   -1.0466   -0.5620 H   0  0  0  0  0  0  0  0  0  0  0  0
   -0.2951   -0.7492   -0.2233 C   0  0  1  0  0  0  0  0  0  0  0  0
    0.4345   -1.5327   -0.4651 H   0  0  0  0  0  0  0  0  0  0  0  0
   -0.2089    0.2826   -1.3738 C   0  0  0  0  0  0  0  0  0  0  0  0
   -0.2364    1.2919   -0.9478 H   0  0  0  0  0  0  0  0  0  0  0  0
    0.7696    0.1804   -1.8575 H   0  0  0  0  0  0  0  0  0  0  0  0
   -1.2967    0.1798   -2.4179 C   0  0  0  0  0  0  0  0  0  0  0  0
   -2.2204    1.1697   -2.7606 N   0  3  0  0  0  0  0  0  0  0  0  0
   -2.2336    2.0967   -2.3247 H   0  0  0  0  0  0  0  0  0  0  0  0
   -2.9688    0.7646   -3.7591 C   0  0  0  0  0  0  0  0  0  0  0  0
   -3.7532    1.3394   -4.2571 H   0  0  0  0  0  0  0  0  0  0  0  0
   -2.5615   -0.5283   -4.0841 N   0  0  0  0  0  0  0  0  0  0  0  0
   -2.9378   -1.1001   -4.8476 H   0  0  0  0  0  0  0  0  0  0  0  0
   -1.5080   -0.8893   -3.2526 C   0  0  0  0  0  0  0  0  0  0  0  0
   -0.9382   -1.8203   -3.2644 H   0  0  0  0  0  0  0  0  0  0  0  0
    0.2336   -0.1265    1.0852 C   0  0  0  0  0  0  0  0  0  0  0  0
    1.4380    0.0462    1.1887 O   0  0  0  0  0  0  0  0  0  0  0  0
   -0.6166    0.5932    1.9068 N   0  0  0  0  0  0  0  0  0  0  0  0
   -1.5947    0.3242    1.8783 H   0  0  0  0  0  0  0  0  0  0  0  0
   -0.1350    1.2871    3.0994 C   0  0  0  0  0  0  0  0  0  0  0  0
    0.5998    2.0537    2.8297 H   0  0  0  0  0  0  0  0  0  0  0  0
   -0.9652    1.7768    3.6180 H   0  0  0  0  0  0  0  0  0  0  0  0
    0.3367    0.5804    3.7912 H   0  0  0  0  0  0  0  0  0  0  0  0
  1  2  1  0  0  0  0
  2  3  1  0  0  0  0
  2  4  1  0  0  0  0
  2  5  1  0  0  0  0
  5  6  2  0  0  0  0
  5  7  1  0  0  0  0
  7  8  1  0  0  0  0
  7  9  1  0  0  0  0
  9 10  1  0  0  0  0
  9 11  1  0  0  0  0
  9 23  1  0  0  0  0
 11 12  1  0  0  0  0
 11 13  1  0  0  0  0
 11 14  1  0  0  0  0
 14 15  1  0  0  0  0
 14 21  2  0  0  0  0
 15 16  1  0  0  0  0
 15 17  2  0  0  0  0
 17 18  1  0  0  0  0
 17 19  1  0  0  0  0
 19 20  1  0  0  0  0
 19 21  1  0  0  0  0
 21 22  1  0  0  0  0
 23 24  2  0  0  0  0
 23 25  1  0  0  0  0
 25 26  1  0  0  0  0
 25 27  1  0  0  0  0
 27 28  1  0  0  0  0
 27 29  1  0  0  0  0
 27 30  1  0  0  0  0
M  CHG  1  15   1
M  END
$$$$

  -OEChem-04042216003D

 30 30  0     1  0  0  0  0  0999 V2000
   -3.1173   -3.9514    1.6776 H   0  0  0  0  0  0  0  0  0  0  0  0
   -3.1718   -3.1214    0.9665 C   0  0  0  0  0  0  0  0  0  0  0  0
   -3.8276   -2.3517    1.3798 H   0  0  0  0  0  0  0  0  0  0  0  0
   -3.5950   -3.4917    0.0300 H   0  0  0  0  0  0  0  0  0  0  0  0
   -1.7855   -2.5552    0.7257 C   0  0  0  0  0  0  0  0  0  0  0  0
   -0.8194   -3.0585    1.2654 O   0  0  0  0  0  0  0  0  0  0  0  0
   -1.6062   -1.4656   -0.1089 N   0  0  0  0  0  0  0  0  0  0  0  0
   -2.4491   -1.0120   -0.4482 H   0  0  0  0  0  0  0  0  0  0  0  0
   -0.3144   -0.7502   -0.2275 C   0  0  1  0  0  0  0  0  0  0  0  0
    0.4229   -1.5259   -0.4723 H   0  0  0  0  0  0  0  0  0  0  0  0
   -0.2359    0.2788   -1.3823 C   0  0  0  0  0  0  0  0  0  0  0  0
   -0.2875    1.2834   -0.9480 H   0  0  0  0  0  0  0  0  0  0  0  0
    0.7496    0.1985   -1.8555 H   0  0  0  0  0  0  0  0  0  0  0  0
   -1.3096    0.1796   -2.4436 C   0  0  0  0  0  0  0  0  0  0  0  0
   -2.0265    1.2469   -2.9895 N   0  3  0  0  0  0  0  0  0  0  0  0
   -1.8893    2.2192   -2.6975 H   0  0  0  0  0  0  0  0  0  0  0  0
   -2.8116    0.8242   -3.9516 C   0  0  0  0  0  0  0  0  0  0  0  0
   -3.4675    1.4398   -4.5714 H   0  0  0  0  0  0  0  0  0  0  0  0
   -2.6363   -0.5544   -4.0528 N   0  0  0  0  0  0  0  0  0  0  0  0
   -3.0864   -1.1656   -4.7421 H   0  0  0  0  0  0  0  0  0  0  0  0
   -1.6876   -0.9549   -3.1195 C   0  0  0  0  0  0  0  0  0  0  0  0
   -1.2879   -1.9588   -2.9639 H   0  0  0  0  0  0  0  0  0  0  0  0
    0.2166   -0.1247    1.0786 C   0  0  0  0  0  0  0  0  0  0  0  0
    1.4202    0.0539    1.1789 O   0  0  0  0  0  0  0  0  0  0  0  0
   -0.6343    0.5814    1.9110 N   0  0  0  0  0  0  0  0  0  0  0  0
   -1.6156    0.3267    1.8717 H   0  0  0  0  0  0  0  0  0  0  0  0
   -0.1528    1.2700    3.1068 C   0  0  0  0  0  0  0  0  0  0  0  0
    0.5850    2.0350    2.8413 H   0  0  0  0  0  0  0  0  0  0  0  0
   -0.9825    1.7605    3.6254 H   0  0  0  0  0  0  0  0  0  0  0  0
    0.3155    0.5592    3.7968 H   0  0  0  0  0  0  0  0  0  0  0  0
  1  2  1  0  0  0  0
  2  3  1  0  0  0  0
  2  4  1  0  0  0  0
  2  5  1  0  0  0  0
  5  6  2  0  0  0  0
  5  7  1  0  0  0  0
  7  8  1  0  0  0  0
  7  9  1  0  0  0  0
  9 10  1  0  0  0  0
  9 11  1  0  0  0  0
  9 23  1  0  0  0  0
 11 12  1  0  0  0  0
 11 13  1  0  0  0  0
 11 14  1  0  0  0  0
 14 15  1  0  0  0  0
 14 21  2  0  0  0  0
 15 16  1  0  0  0  0
 15 17  2  0  0  0  0
 17 18  1  0  0  0  0
 17 19  1  0  0  0  0
 19 20  1  0  0  0  0
 19 21  1  0  0  0  0
 21 22  1  0  0  0  0
 23 24  2  0  0  0  0
 23 25  1  0  0  0  0
 25 26  1  0  0  0  0
 25 27  1  0  0  0  0
 27 28  1  0  0  0  0
 27 29  1  0  0  0  0
 27 30  1  0  0  0  0
M  CHG  1  15   1
M  END
$$$$

  -OEChem-04042216003D

 30 30  0     1  0  0  0  0  0999 V2000
   -3.0622   -3.9585    1.7765 H   0  0  0  0  0  0  0  0  0  0  0  0
   -3.1448   -3.1307    1.0656 C   0  0  0  0  0  0  0  0  0  0  0  0
   -3.7731   -2.3542    1.5077 H   0  0  0  0  0  0  0  0  0  0  0  0
   -3.6169   -3.5007    0.1526 H   0  0  0  0  0  0  0  0  0  0  0  0
   -1.7675   -2.5771    0.7547 C   0  0  0  0  0  0  0  0  0  0  0  0
   -0.7794   -3.0914    1.2416 O   0  0  0  0  0  0  0  0  0  0  0  0
   -1.6223   -1.4875   -0.0869 N   0  0  0  0  0  0  0  0  0  0  0  0
   -2.4803   -1.0105   -0.3484 H   0  0  0  0  0  0  0  0  0  0  0  0
   -0.3412   -0.7570   -0.2261 C   0  0  1  0  0  0  0  0  0  0  0  0
    0.4001   -1.5276   -0.4746 H   0  0  0  0  0  0  0  0  0  0  0  0
   -0.2722    0.2650   -1.3901 C   0  0  0  0  0  0  0  0  0  0  0  0
   -0.3391    1.2673   -0.9522 H   0  0  0  0  0  0  0  0  0  0  0  0
    0.7185    0.1966   -1.8545 H   0  0  0  0  0  0  0  0  0  0  0  0
   -1.3339    0.1768   -2.4678 C   0  0  0  0  0  0  0  0  0  0  0  0
   -1.8109    1.2616   -3.2079 N   0  3  0  0  0  0  0  0  0  0  0  0
   -1.5001    2.2246   -3.0480 H   0  0  0  0  0  0  0  0  0  0  0  0
   -2.6401    0.8548   -4.1389 C   0  0  0  0  0  0  0  0  0  0  0  0
   -3.1512    1.4831   -4.8717 H   0  0  0  0  0  0  0  0  0  0  0  0
   -2.7297   -0.5312   -4.0342 N   0  0  0  0  0  0  0  0  0  0  0  0
   -3.2688   -1.1439   -4.6549 H   0  0  0  0  0  0  0  0  0  0  0  0
   -1.8976   -0.9562   -3.0054 C   0  0  0  0  0  0  0  0  0  0  0  0
   -1.6874   -1.9841   -2.7038 H   0  0  0  0  0  0  0  0  0  0  0  0
    0.1991   -0.1235    1.0728 C   0  0  0  0  0  0  0  0  0  0  0  0
    1.4022    0.0656    1.1602 O   0  0  0  0  0  0  0  0  0  0  0  0
   -0.6481    0.5733    1.9170 N   0  0  0  0  0  0  0  0  0  0  0  0
   -1.6310    0.3250    1.8806 H   0  0  0  0  0  0  0  0  0  0  0  0
   -0.1599    1.2706    3.1047 C   0  0  0  0  0  0  0  0  0  0  0  0
    0.5500    2.0571    2.8260 H   0  0  0  0  0  0  0  0  0  0  0  0
   -0.9912    1.7357    3.6437 H   0  0  0  0  0  0  0  0  0  0  0  0
    0.3429    0.5706    3.7814 H   0  0  0  0  0  0  0  0  0  0  0  0
  1  2  1  0  0  0  0
  2  3  1  0  0  0  0
  2  4  1  0  0  0  0
  2  5  1  0  0  0  0
  5  6  2  0  0  0  0
  5  7  1  0  0  0  0
  7  8  1  0  0  0  0
  7  9  1  0  0  0  0
  9 10  1  0  0  0  0
  9 11  1  0  0  0  0
  9 23  1  0  0  0  0
 11 12  1  0  0  0  0
 11 13  1  0  0  0  0
 11 14  1  0  0  0  0
 14 15  1  0  0  0  0
 14 21  2  0  0  0  0
 15 16  1  0  0  0  0
 15 17  2  0  0  0  0
 17 18  1  0  0  0  0
 17 19  1  0  0  0  0
 19 20  1  0  0  0  0
 19 21  1  0  0  0  0
 21 22  1  0  0  0  0
 23 24  2  0  0  0  0
 23 25  1  0  0  0  0
 25 26  1  0  0  0  0
 25 27  1  0  0  0  0
 27 28  1  0  0  0  0
 27 29  1  0  0  0  0
 27 30  1  0  0  0  0
M  CHG  1  15   1
M  END
$$$$

  -OEChem-04042216003D

 30 30  0     1  0  0  0  0  0999 V2000
   -2.9973   -3.9729    1.8842 H   0  0  0  0  0  0  0  0  0  0  0  0
   -3.1122   -3.1524    1.1693 C   0  0  0  0  0  0  0  0  0  0  0  0
   -3.7229   -2.3726    1.6301 H   0  0  0  0  0  0  0  0  0  0  0  0
   -3.6218   -3.5324    0.2810 H   0  0  0  0  0  0  0  0  0  0  0  0
   -1.7506   -2.5999    0.7937 C   0  0  0  0  0  0  0  0  0  0  0  0
   -0.7415   -3.1160    1.2331 O   0  0  0  0  0  0  0  0  0  0  0  0
   -1.6462   -1.5094   -0.0537 N   0  0  0  0  0  0  0  0  0  0  0  0
   -2.5159   -1.0195   -0.2434 H   0  0  0  0  0  0  0  0  0  0  0  0
   -0.3790   -0.7616   -0.2217 C   0  0  1  0  0  0  0  0  0  0  0  0
    0.3649   -1.5280   -0.4764 H   0  0  0  0  0  0  0  0  0  0  0  0
   -0.3233    0.2506   -1.3965 C   0  0  0  0  0  0  0  0  0  0  0  0
   -0.3974    1.2535   -0.9605 H   0  0  0  0  0  0  0  0  0  0  0  0
    0.6708    0.1846   -1.8541 H   0  0  0  0  0  0  0  0  0  0  0  0
   -1.3723    0.1773   -2.4912 C   0  0  0  0  0  0  0  0  0  0  0  0
   -1.5921    1.2103   -3.4071 N   0  3  0  0  0  0  0  0  0  0  0  0
   -1.1037    2.1094   -3.3575 H   0  0  0  0  0  0  0  0  0  0  0  0
   -2.4595    0.8470   -4.3203 C   0  0  0  0  0  0  0  0  0  0  0  0
   -2.8124    1.4528   -5.1579 H   0  0  0  0  0  0  0  0  0  0  0  0
   -2.8294   -0.4639   -4.0350 N   0  0  0  0  0  0  0  0  0  0  0  0
   -3.4608   -1.0420   -4.5991 H   0  0  0  0  0  0  0  0  0  0  0  0
   -2.1301   -0.8916   -2.9126 C   0  0  0  0  0  0  0  0  0  0  0  0
   -2.1293   -1.8954   -2.4867 H   0  0  0  0  0  0  0  0  0  0  0  0
    0.1816   -0.1191    1.0642 C   0  0  0  0  0  0  0  0  0  0  0  0
    1.3836    0.0870    1.1240 O   0  0  0  0  0  0  0  0  0  0  0  0
   -0.6547    0.5674    1.9275 N   0  0  0  0  0  0  0  0  0  0  0  0
   -1.6376    0.3172    1.9080 H   0  0  0  0  0  0  0  0  0  0  0  0
   -0.1486    1.2776    3.1001 C   0  0  0  0  0  0  0  0  0  0  0  0
    0.5345    2.0795    2.7994 H   0  0  0  0  0  0  0  0  0  0  0  0
   -0.9745    1.7242    3.6626 H   0  0  0  0  0  0  0  0  0  0  0  0
    0.3897    0.5905    3.7627 H   0  0  0  0  0  0  0  0  0  0  0  0
  1  2  1  0  0  0  0
  2  3  1  0  0  0  0
  2  4  1  0  0  0  0
  2  5  1  0  0  0  0
  5  6  2  0  0  0  0
  5  7  1  0  0  0  0
  7  8  1  0  0  0  0
  7  9  1  0  0  0  0
  9 10  1  0  0  0  0
  9 11  1  0  0  0  0
  9 23  1  0  0  0  0
 11 12  1  0  0  0  0
 11 13  1  0  0  0  0
 11 14  1  0  0  0  0
 14 15  1  0  0  0  0
 14 21  2  0  0  0  0
 15 16  1  0  0  0  0
 15 17  2  0  0  0  0
 17 18  1  0  0  0  0
 17 19  1  0  0  0  0
 19 20  1  0  0  0  0
 19 21  1  0  0  0  0
 21 22  1  0  0  0  0
 23 24  2  0  0  0  0
 23 25  1  0  0  0  0
 25 26  1  0  0  0  0
 25 27  1  0  0  0  0
 27 28  1  0  0  0  0
 27 29  1  0  0  0  0
 27 30  1  0  0  0  0
M  CHG  1  15   1
M  END
$$$$

  -OEChem-04042216003D

 30 30  0     1  0  0  0  0  0999 V2000
   -2.7521   -4.0745    1.9735 H   0  0  0  0  0  0  0  0  0  0  0  0
   -2.9521   -3.2539    1.2776 C   0  0  0  0  0  0  0  0  0  0  0  0
   -3.5521   -2.5004    1.7927 H   0  0  0  0  0  0  0  0  0  0  0  0
   -3.5158   -3.6472    0.4284 H   0  0  0  0  0  0  0  0  0  0  0  0
   -1.6446   -2.6514    0.8000 C   0  0  0  0  0  0  0  0  0  0  0  0
   -0.5887   -3.1466    1.1433 O   0  0  0  0  0  0  0  0  0  0  0  0
   -1.6471   -1.5326   -0.0185 N   0  0  0  0  0  0  0  0  0  0  0  0
   -2.5330   -1.0408   -0.0487 H   0  0  0  0  0  0  0  0  0  0  0  0
   -0.4211   -0.7343   -0.2383 C   0  0  1  0  0  0  0  0  0  0  0  0
    0.3322   -1.4752   -0.5384 H   0  0  0  0  0  0  0  0  0  0  0  0
   -0.4176    0.2976   -1.4032 C   0  0  0  0  0  0  0  0  0  0  0  0
   -0.2007    1.2797   -0.9666 H   0  0  0  0  0  0  0  0  0  0  0  0
    0.4397    0.0530   -2.0407 H   0  0  0  0  0  0  0  0  0  0  0  0
   -1.6239    0.4939   -2.3091 C   0  0  0  0  0  0  0  0  0  0  0  0
   -1.5855    1.4344   -3.3444 N   0  3  0  0  0  0  0  0  0  0  0  0
   -0.7880    2.0600   -3.4939 H   0  0  0  0  0  0  0  0  0  0  0  0
   -2.6777    1.3889   -4.0661 C   0  0  0  0  0  0  0  0  0  0  0  0
   -2.9114    2.0128   -4.9319 H   0  0  0  0  0  0  0  0  0  0  0  0
   -3.4756    0.3846   -3.5305 N   0  0  0  0  0  0  0  0  0  0  0  0
   -4.3810    0.0813   -3.9038 H   0  0  0  0  0  0  0  0  0  0  0  0
   -2.8105   -0.1924   -2.4543 C   0  0  0  0  0  0  0  0  0  0  0  0
   -3.1497   -1.0588   -1.8929 H   0  0  0  0  0  0  0  0  0  0  0  0
    0.1884   -0.1150    1.0383 C   0  0  0  0  0  0  0  0  0  0  0  0
    1.3858    0.1248    1.0436 O   0  0  0  0  0  0  0  0  0  0  0  0
   -0.6180    0.5103    1.9740 N   0  0  0  0  0  0  0  0  0  0  0  0
   -1.5953    0.2411    1.9928 H   0  0  0  0  0  0  0  0  0  0  0  0
   -0.0681    1.1854    3.1477 C   0  0  0  0  0  0  0  0  0  0  0  0
    0.5744    2.0203    2.8468 H   0  0  0  0  0  0  0  0  0  0  0  0
   -0.8739    1.5817    3.7738 H   0  0  0  0  0  0  0  0  0  0  0  0
    0.5253    0.4873    3.7489 H   0  0  0  0  0  0  0  0  0  0  0  0
  1  2  1  0  0  0  0
  2  3  1  0  0  0  0
  2  4  1  0  0  0  0
  2  5  1  0  0  0  0
  5  6  2  0  0  0  0
  5  7  1  0  0  0  0
  7  8  1  0  0  0  0
  7  9  1  0  0  0  0
  9 10  1  0  0  0  0
  9 11  1  0  0  0  0
  9 23  1  0  0  0  0
 11 12  1  0  0  0  0
 11 13  1  0  0  0  0
 11 14  1  0  0  0  0
 14 15  1  0  0  0  0
 14 21  2  0  0  0  0
 15 16  1  0  0  0  0
 15 17  2  0  0  0  0
 17 18  1  0  0  0  0
 17 19  1  0  0  0  0
 19 20  1  0  0  0  0
 19 21  1  0  0  0  0
 21 22  1  0  0  0  0
 23 24  2  0  0  0  0
 23 25  1  0  0  0  0
 25 26  1  0  0  0  0
 25 27  1  0  0  0  0
 27 28  1  0  0  0  0
 27 29  1  0  0  0  0
 27 30  1  0  0  0  0
M  CHG  1  15   1
M  END
$$$$

  -OEChem-04042216003D

 30 30  0     1  0  0  0  0  0999 V2000
   -2.8216   -4.2934    1.6824 H   0  0  0  0  0  0  0  0  0  0  0  0
   -2.9073   -3.5423    0.8911 C   0  0  0  0  0  0  0  0  0  0  0  0
   -3.8541   -3.0117    1.0157 H   0  0  0  0  0  0  0  0  0  0  0  0
   -2.9030   -4.0537   -0.0744 H   0  0  0  0  0  0  0  0  0  0  0  0
   -1.7472   -2.5685    0.9735 C   0  0  0  0  0  0  0  0  0  0  0  0
   -0.9328   -2.6767    1.8689 O   0  0  0  0  0  0  0  0  0  0  0  0
   -1.6202   -1.5599    0.0308 N   0  0  0  0  0  0  0  0  0  0  0  0
   -2.1863   -1.7188   -0.7958 H   0  0  0  0  0  0  0  0  0  0  0  0
   -0.3408   -0.8448   -0.1831 C   0  0  1  0  0  0  0  0  0  0  0  0
    0.4124   -1.6130   -0.3993 H   0  0  0  0  0  0  0  0  0  0  0  0
   -0.3187    0.1735   -1.3654 C   0  0  0  0  0  0  0  0  0  0  0  0
   -0.0103    1.1572   -0.9899 H   0  0  0  0  0  0  0  0  0  0  0  0
    0.4866   -0.1586   -2.0296 H   0  0  0  0  0  0  0  0  0  0  0  0
   -1.5513    0.4031   -2.2260 C   0  0  0  0  0  0  0  0  0  0  0  0
   -1.4739    1.0574   -3.4599 N   0  3  0  0  0  0  0  0  0  0  0  0
   -0.5840    1.3365   -3.8839 H   0  0  0  0  0  0  0  0  0  0  0  0
   -2.6669    1.2586   -3.9629 C   0  0  0  0  0  0  0  0  0  0  0  0
   -2.8980    1.7422   -4.9150 H   0  0  0  0  0  0  0  0  0  0  0  0
   -3.5845    0.7581   -3.0459 N   0  0  0  0  0  0  0  0  0  0  0  0
   -4.6045    0.8142   -3.1340 H   0  0  0  0  0  0  0  0  0  0  0  0
   -2.8935    0.2571   -1.9483 C   0  0  0  0  0  0  0  0  0  0  0  0
   -3.3382   -0.1036   -1.0220 H   0  0  0  0  0  0  0  0  0  0  0  0
    0.1951   -0.1035    1.0644 C   0  0  0  0  0  0  0  0  0  0  0  0
    1.3978    0.1052    1.1260 O   0  0  0  0  0  0  0  0  0  0  0  0
   -0.6584    0.6558    1.8452 N   0  0  0  0  0  0  0  0  0  0  0  0
   -1.6199    0.3310    1.8746 H   0  0  0  0  0  0  0  0  0  0  0  0
   -0.1710    1.4311    2.9834 C   0  0  0  0  0  0  0  0  0  0  0  0
    0.5573    2.1812    2.6563 H   0  0  0  0  0  0  0  0  0  0  0  0
   -0.9996    1.9501    3.4752 H   0  0  0  0  0  0  0  0  0  0  0  0
    0.3102    0.7738    3.7163 H   0  0  0  0  0  0  0  0  0  0  0  0
  1  2  1  0  0  0  0
  2  3  1  0  0  0  0
  2  4  1  0  0  0  0
  2  5  1  0  0  0  0
  5  6  2  0  0  0  0
  5  7  1  0  0  0  0
  7  8  1  0  0  0  0
  7  9  1  0  0  0  0
  9 10  1  0  0  0  0
  9 11  1  0  0  0  0
  9 23  1  0  0  0  0
 11 12  1  0  0  0  0
 11 13  1  0  0  0  0
 11 14  1  0  0  0  0
 14 15  1  0  0  0  0
 14 21  2  0  0  0  0
 15 16  1  0  0  0  0
 15 17  2  0  0  0  0
 17 18  1  0  0  0  0
 17 19  1  0  0  0  0
 19 20  1  0  0  0  0
 19 21  1  0  0  0  0
 21 22  1  0  0  0  0
 23 24  2  0  0  0  0
 23 25  1  0  0  0  0
 25 26  1  0  0  0  0
 25 27  1  0  0  0  0
 27 28  1  0  0  0  0
 27 29  1  0  0  0  0
 27 30  1  0  0  0  0
M  CHG  1  15   1
M  END
$$$$

  -OEChem-04042216003D

 30 30  0     1  0  0  0  0  0999 V2000
   -2.9580   -4.2236    1.6102 H   0  0  0  0  0  0  0  0  0  0  0  0
   -3.0073   -3.4604    0.8274 C   0  0  0  0  0  0  0  0  0  0  0  0
   -3.9285   -2.8876    0.9564 H   0  0  0  0  0  0  0  0  0  0  0  0
   -3.0253   -3.9598   -0.1441 H   0  0  0  0  0  0  0  0  0  0  0  0
   -1.8027   -2.5434    0.9224 C   0  0  0  0  0  0  0  0  0  0  0  0
   -0.9912   -2.7029    1.8130 O   0  0  0  0  0  0  0  0  0  0  0  0
   -1.6320   -1.5225    0.0011 N   0  0  0  0  0  0  0  0  0  0  0  0
   -2.2246   -1.6089   -0.8185 H   0  0  0  0  0  0  0  0  0  0  0  0
   -0.3314   -0.8361   -0.1854 C   0  0  1  0  0  0  0  0  0  0  0  0
    0.4031   -1.6220   -0.4030 H   0  0  0  0  0  0  0  0  0  0  0  0
   -0.2762    0.1839   -1.3621 C   0  0  0  0  0  0  0  0  0  0  0  0
    0.0326    1.1661   -0.9829 H   0  0  0  0  0  0  0  0  0  0  0  0
    0.5315   -0.1501   -2.0221 H   0  0  0  0  0  0  0  0  0  0  0  0
   -1.5164    0.4036   -2.2083 C   0  0  0  0  0  0  0  0  0  0  0  0
   -1.4814    0.7615   -3.5591 N   0  3  0  0  0  0  0  0  0  0  0  0
   -0.6107    0.8233   -4.0955 H   0  0  0  0  0  0  0  0  0  0  0  0
   -2.6872    1.0224   -4.0024 C   0  0  0  0  0  0  0  0  0  0  0  0
   -2.9535    1.3281   -5.0168 H   0  0  0  0  0  0  0  0  0  0  0  0
   -3.5618    0.8592   -2.9319 N   0  0  0  0  0  0  0  0  0  0  0  0
   -4.5703    1.0433   -2.9530 H   0  0  0  0  0  0  0  0  0  0  0  0
   -2.8284    0.5046   -1.8053 C   0  0  0  0  0  0  0  0  0  0  0  0
   -3.2037    0.3936   -0.7874 H   0  0  0  0  0  0  0  0  0  0  0  0
    0.2133   -0.1275    1.0761 C   0  0  0  0  0  0  0  0  0  0  0  0
    1.4197    0.0547    1.1458 O   0  0  0  0  0  0  0  0  0  0  0  0
   -0.6279    0.6425    1.8599 N   0  0  0  0  0  0  0  0  0  0  0  0
   -1.5918    0.3257    1.8934 H   0  0  0  0  0  0  0  0  0  0  0  0
   -0.1270    1.3978    3.0058 C   0  0  0  0  0  0  0  0  0  0  0  0
    0.6229    2.1303    2.6877 H   0  0  0  0  0  0  0  0  0  0  0  0
   -0.9447    1.9360    3.4951 H   0  0  0  0  0  0  0  0  0  0  0  0
    0.3320    0.7240    3.7379 H   0  0  0  0  0  0  0  0  0  0  0  0
  1  2  1  0  0  0  0
  2  3  1  0  0  0  0
  2  4  1  0  0  0  0
  2  5  1  0  0  0  0
  5  6  2  0  0  0  0
  5  7  1  0  0  0  0
  7  8  1  0  0  0  0
  7  9  1  0  0  0  0
  9 10  1  0  0  0  0
  9 11  1  0  0  0  0
  9 23  1  0  0  0  0
 11 12  1  0  0  0  0
 11 13  1  0  0  0  0
 11 14  1  0  0  0  0
 14 15  1  0  0  0  0
 14 21  2  0  0  0  0
 15 16  1  0  0  0  0
 15 17  2  0  0  0  0
 17 18  1  0  0  0  0
 17 19  1  0  0  0  0
 19 20  1  0  0  0  0
 19 21  1  0  0  0  0
 21 22  1  0  0  0  0
 23 24  2  0  0  0  0
 23 25  1  0  0  0  0
 25 26  1  0  0  0  0
 25 27  1  0  0  0  0
 27 28  1  0  0  0  0
 27 29  1  0  0  0  0
 27 30  1  0  0  0  0
M  CHG  1  15   1
M  END
$$$$

  -OEChem-04042216003D

 30 30  0     1  0  0  0  0  0999 V2000
   -3.0378   -4.1797    1.5230 H   0  0  0  0  0  0  0  0  0  0  0  0
   -3.0695   -3.3880    0.7681 C   0  0  0  0  0  0  0  0  0  0  0  0
   -3.9650   -2.7842    0.9323 H   0  0  0  0  0  0  0  0  0  0  0  0
   -3.1225   -3.8519   -0.2196 H   0  0  0  0  0  0  0  0  0  0  0  0
   -1.8289   -2.5218    0.8734 C   0  0  0  0  0  0  0  0  0  0  0  0
   -1.0177   -2.7294    1.7542 O   0  0  0  0  0  0  0  0  0  0  0  0
   -1.6231   -1.4890   -0.0261 N   0  0  0  0  0  0  0  0  0  0  0  0
   -2.2416   -1.5002   -0.8308 H   0  0  0  0  0  0  0  0  0  0  0  0
   -0.3120   -0.8153   -0.1838 C   0  0  1  0  0  0  0  0  0  0  0  0
    0.4155   -1.6073   -0.4020 H   0  0  0  0  0  0  0  0  0  0  0  0
   -0.2395    0.2057   -1.3550 C   0  0  0  0  0  0  0  0  0  0  0  0
    0.0500    1.1900   -0.9663 H   0  0  0  0  0  0  0  0  0  0  0  0
    0.5788   -0.1102   -2.0107 H   0  0  0  0  0  0  0  0  0  0  0  0
   -1.4888    0.3998   -2.1887 C   0  0  0  0  0  0  0  0  0  0  0  0
   -1.5251    0.4551   -3.5843 N   0  3  0  0  0  0  0  0  0  0  0  0
   -0.6984    0.3025   -4.1701 H   0  0  0  0  0  0  0  0  0  0  0  0
   -2.7295    0.7640   -4.0010 C   0  0  0  0  0  0  0  0  0  0  0  0
   -3.0446    0.8861   -5.0400 H   0  0  0  0  0  0  0  0  0  0  0  0
   -3.5265    0.9303   -2.8705 N   0  0  0  0  0  0  0  0  0  0  0  0
   -4.5099    1.2209   -2.8715 H   0  0  0  0  0  0  0  0  0  0  0  0
   -2.7452    0.7288   -1.7382 C   0  0  0  0  0  0  0  0  0  0  0  0
   -3.0431    0.8532   -0.6959 H   0  0  0  0  0  0  0  0  0  0  0  0
    0.2268   -0.1308    1.0922 C   0  0  0  0  0  0  0  0  0  0  0  0
    1.4334    0.0444    1.1728 O   0  0  0  0  0  0  0  0  0  0  0  0
   -0.6157    0.6387    1.8751 N   0  0  0  0  0  0  0  0  0  0  0  0
   -1.5784    0.3185    1.9079 H   0  0  0  0  0  0  0  0  0  0  0  0
   -0.1171    1.3877    3.0266 C   0  0  0  0  0  0  0  0  0  0  0  0
    0.6214    2.1332    2.7121 H   0  0  0  0  0  0  0  0  0  0  0  0
   -0.9382    1.9104    3.5270 H   0  0  0  0  0  0  0  0  0  0  0  0
    0.3550    0.7123    3.7490 H   0  0  0  0  0  0  0  0  0  0  0  0
  1  2  1  0  0  0  0
  2  3  1  0  0  0  0
  2  4  1  0  0  0  0
  2  5  1  0  0  0  0
  5  6  2  0  0  0  0
  5  7  1  0  0  0  0
  7  8  1  0  0  0  0
  7  9  1  0  0  0  0
  9 10  1  0  0  0  0
  9 11  1  0  0  0  0
  9 23  1  0  0  0  0
 11 12  1  0  0  0  0
 11 13  1  0  0  0  0
 11 14  1  0  0  0  0
 14 15  1  0  0  0  0
 14 21  2  0  0  0  0
 15 16  1  0  0  0  0
 15 17  2  0  0  0  0
 17 18  1  0  0  0  0
 17 19  1  0  0  0  0
 19 20  1  0  0  0  0
 19 21  1  0  0  0  0
 21 22  1  0  0  0  0
 23 24  2  0  0  0  0
 23 25  1  0  0  0  0
 25 26  1  0  0  0  0
 25 27  1  0  0  0  0
 27 28  1  0  0  0  0
 27 29  1  0  0  0  0
 27 30  1  0  0  0  0
M  CHG  1  15   1
M  END
$$$$

  -OEChem-04042216003D

 30 30  0     1  0  0  0  0  0999 V2000
   -3.0935   -4.1131    1.5046 H   0  0  0  0  0  0  0  0  0  0  0  0
   -3.1086   -3.3162    0.7548 C   0  0  0  0  0  0  0  0  0  0  0  0
   -3.9690   -2.6715    0.9479 H   0  0  0  0  0  0  0  0  0  0  0  0
   -3.2120   -3.7701   -0.2333 H   0  0  0  0  0  0  0  0  0  0  0  0
   -1.8249   -2.5120    0.8291 C   0  0  0  0  0  0  0  0  0  0  0  0
   -0.9896   -2.7790    1.6707 O   0  0  0  0  0  0  0  0  0  0  0  0
   -1.6028   -1.4685   -0.0531 N   0  0  0  0  0  0  0  0  0  0  0  0
   -2.2648   -1.3924   -0.8184 H   0  0  0  0  0  0  0  0  0  0  0  0
   -0.2902   -0.7948   -0.1931 C   0  0  1  0  0  0  0  0  0  0  0  0
    0.4383   -1.5856   -0.4127 H   0  0  0  0  0  0  0  0  0  0  0  0
   -0.2127    0.2287   -1.3580 C   0  0  0  0  0  0  0  0  0  0  0  0
    0.0556    1.2142   -0.9574 H   0  0  0  0  0  0  0  0  0  0  0  0
    0.6145   -0.0640   -2.0135 H   0  0  0  0  0  0  0  0  0  0  0  0
   -1.4707    0.3972   -2.1798 C   0  0  0  0  0  0  0  0  0  0  0  0
   -1.5945    0.1610   -3.5506 N   0  3  0  0  0  0  0  0  0  0  0  0
   -0.8286   -0.2025   -4.1262 H   0  0  0  0  0  0  0  0  0  0  0  0
   -2.7837    0.5219   -3.9697 C   0  0  0  0  0  0  0  0  0  0  0  0
   -3.1534    0.4673   -4.9963 H   0  0  0  0  0  0  0  0  0  0  0  0
   -3.4801    1.0107   -2.8659 N   0  0  0  0  0  0  0  0  0  0  0  0
   -4.4237    1.4120   -2.8857 H   0  0  0  0  0  0  0  0  0  0  0  0
   -2.6515    0.9524   -1.7509 C   0  0  0  0  0  0  0  0  0  0  0  0
   -2.8661    1.3114   -0.7431 H   0  0  0  0  0  0  0  0  0  0  0  0
    0.2366   -0.1274    1.0963 C   0  0  0  0  0  0  0  0  0  0  0  0
    1.4421    0.0462    1.1927 O   0  0  0  0  0  0  0  0  0  0  0  0
   -0.6142    0.6322    1.8801 N   0  0  0  0  0  0  0  0  0  0  0  0
   -1.5782    0.3145    1.8953 H   0  0  0  0  0  0  0  0  0  0  0  0
   -0.1279    1.3618    3.0492 C   0  0  0  0  0  0  0  0  0  0  0  0
    0.6136    2.1124    2.7550 H   0  0  0  0  0  0  0  0  0  0  0  0
   -0.9543    1.8754    3.5504 H   0  0  0  0  0  0  0  0  0  0  0  0
    0.3373    0.6743    3.7646 H   0  0  0  0  0  0  0  0  0  0  0  0
  1  2  1  0  0  0  0
  2  3  1  0  0  0  0
  2  4  1  0  0  0  0
  2  5  1  0  0  0  0
  5  6  2  0  0  0  0
  5  7  1  0  0  0  0
  7  8  1  0  0  0  0
  7  9  1  0  0  0  0
  9 10  1  0  0  0  0
  9 11  1  0  0  0  0
  9 23  1  0  0  0  0
 11 12  1  0  0  0  0
 11 13  1  0  0  0  0
 11 14  1  0  0  0  0
 14 15  1  0  0  0  0
 14 21  2  0  0  0  0
 15 16  1  0  0  0  0
 15 17  2  0  0  0  0
 17 18  1  0  0  0  0
 17 19  1  0  0  0  0
 19 20  1  0  0  0  0
 19 21  1  0  0  0  0
 21 22  1  0  0  0  0
 23 24  2  0  0  0  0
 23 25  1  0  0  0  0
 25 26  1  0  0  0  0
 25 27  1  0  0  0  0
 27 28  1  0  0  0  0
 27 29  1  0  0  0  0
 27 30  1  0  0  0  0
M  CHG  1  15   1
M  END
$$$$

  -OEChem-04042216003D

 30 30  0     1  0  0  0  0  0999 V2000
   -3.1096   -4.0704    1.5123 H   0  0  0  0  0  0  0  0  0  0  0  0
   -3.1311   -3.2537    0.7842 C   0  0  0  0  0  0  0  0  0  0  0  0
   -3.9381   -2.5683    1.0528 H   0  0  0  0  0  0  0  0  0  0  0  0
   -3.3279   -3.6740   -0.2046 H   0  0  0  0  0  0  0  0  0  0  0  0
   -1.8019   -2.5232    0.7866 C   0  0  0  0  0  0  0  0  0  0  0  0
   -0.9197   -2.8687    1.5484 O   0  0  0  0  0  0  0  0  0  0  0  0
   -1.5838   -1.4612   -0.0740 N   0  0  0  0  0  0  0  0  0  0  0  0
   -2.3191   -1.2566   -0.7425 H   0  0  0  0  0  0  0  0  0  0  0  0
   -0.2788   -0.7716   -0.2038 C   0  0  1  0  0  0  0  0  0  0  0  0
    0.4560   -1.5543   -0.4319 H   0  0  0  0  0  0  0  0  0  0  0  0
   -0.2068    0.2570   -1.3622 C   0  0  0  0  0  0  0  0  0  0  0  0
    0.0388    1.2433   -0.9494 H   0  0  0  0  0  0  0  0  0  0  0  0
    0.6290   -0.0105   -2.0174 H   0  0  0  0  0  0  0  0  0  0  0  0
   -1.4688    0.4009   -2.1800 C   0  0  0  0  0  0  0  0  0  0  0  0
   -1.6798   -0.1037   -3.4646 N   0  3  0  0  0  0  0  0  0  0  0  0
   -0.9850   -0.6673   -3.9643 H   0  0  0  0  0  0  0  0  0  0  0  0
   -2.8368    0.3042   -3.9287 C   0  0  0  0  0  0  0  0  0  0  0  0
   -3.2551    0.0833   -4.9136 H   0  0  0  0  0  0  0  0  0  0  0  0
   -3.4232    1.0935   -2.9406 N   0  0  0  0  0  0  0  0  0  0  0  0
   -4.3147    1.5932   -3.0271 H   0  0  0  0  0  0  0  0  0  0  0  0
   -2.5580    1.1705   -1.8545 C   0  0  0  0  0  0  0  0  0  0  0  0
   -2.6874    1.7544   -0.9415 H   0  0  0  0  0  0  0  0  0  0  0  0
    0.2422   -0.1219    1.0963 C   0  0  0  0  0  0  0  0  0  0  0  0
    1.4462    0.0564    1.1997 O   0  0  0  0  0  0  0  0  0  0  0  0
   -0.6146    0.6153    1.8951 N   0  0  0  0  0  0  0  0  0  0  0  0
   -1.5825    0.3097    1.8882 H   0  0  0  0  0  0  0  0  0  0  0  0
   -0.1372    1.3233    3.0813 C   0  0  0  0  0  0  0  0  0  0  0  0
    0.6118    2.0745    2.8076 H   0  0  0  0  0  0  0  0  0  0  0  0
   -0.9661    1.8340    3.5811 H   0  0  0  0  0  0  0  0  0  0  0  0
    0.3162    0.6218    3.7907 H   0  0  0  0  0  0  0  0  0  0  0  0
  1  2  1  0  0  0  0
  2  3  1  0  0  0  0
  2  4  1  0  0  0  0
  2  5  1  0  0  0  0
  5  6  2  0  0  0  0
  5  7  1  0  0  0  0
  7  8  1  0  0  0  0
  7  9  1  0  0  0  0
  9 10  1  0  0  0  0
  9 11  1  0  0  0  0
  9 23  1  0  0  0  0
 11 12  1  0  0  0  0
 11 13  1  0  0  0  0
 11 14  1  0  0  0  0
 14 15  1  0  0  0  0
 14 21  2  0  0  0  0
 15 16  1  0  0  0  0
 15 17  2  0  0  0  0
 17 18  1  0  0  0  0
 17 19  1  0  0  0  0
 19 20  1  0  0  0  0
 19 21  1  0  0  0  0
 21 22  1  0  0  0  0
 23 24  2  0  0  0  0
 23 25  1  0  0  0  0
 25 26  1  0  0  0  0
 25 27  1  0  0  0  0
 27 28  1  0  0  0  0
 27 29  1  0  0  0  0
 27 30  1  0  0  0  0
M  CHG  1  15   1
M  END
$$$$

  -OEChem-04042216003D

 30 30  0     1  0  0  0  0  0999 V2000
   -3.1113   -3.9973    1.5733 H   0  0  0  0  0  0  0  0  0  0  0  0
   -3.1434   -3.1739    0.8531 C   0  0  0  0  0  0  0  0  0  0  0  0
   -3.8656   -2.4328    1.2029 H   0  0  0  0  0  0  0  0  0  0  0  0
   -3.4691   -3.5675   -0.1126 H   0  0  0  0  0  0  0  0  0  0  0  0
   -1.7687   -2.5467    0.7237 C   0  0  0  0  0  0  0  0  0  0  0  0
   -0.8324   -2.9950    1.3563 O   0  0  0  0  0  0  0  0  0  0  0  0
   -1.5683   -1.4609   -0.1108 N   0  0  0  0  0  0  0  0  0  0  0  0
   -2.3861   -1.0788   -0.5744 H   0  0  0  0  0  0  0  0  0  0  0  0
   -0.2733   -0.7507   -0.2234 C   0  0  1  0  0  0  0  0  0  0  0  0
    0.4711   -1.5207   -0.4629 H   0  0  0  0  0  0  0  0  0  0  0  0
   -0.2062    0.2905   -1.3688 C   0  0  0  0  0  0  0  0  0  0  0  0
    0.0228    1.2746   -0.9420 H   0  0  0  0  0  0  0  0  0  0  0  0
    0.6361    0.0425   -2.0240 H   0  0  0  0  0  0  0  0  0  0  0  0
   -1.4662    0.4179   -2.1906 C   0  0  0  0  0  0  0  0  0  0  0  0
   -1.7689   -0.3148   -3.3394 N   0  3  0  0  0  0  0  0  0  0  0  0
   -1.1569   -1.0491   -3.7093 H   0  0  0  0  0  0  0  0  0  0  0  0
   -2.8863    0.1183   -3.8721 C   0  0  0  0  0  0  0  0  0  0  0  0
   -3.3550   -0.2523   -4.7867 H   0  0  0  0  0  0  0  0  0  0  0  0
   -3.3527    1.1564   -3.0668 N   0  0  0  0  0  0  0  0  0  0  0  0
   -4.1871    1.7243   -3.2488 H   0  0  0  0  0  0  0  0  0  0  0  0
   -2.4546    1.3552   -2.0236 C   0  0  0  0  0  0  0  0  0  0  0  0
   -2.4963    2.1223   -1.2483 H   0  0  0  0  0  0  0  0  0  0  0  0
    0.2395   -0.1259    1.0909 C   0  0  0  0  0  0  0  0  0  0  0  0
    1.4411    0.0606    1.2032 O   0  0  0  0  0  0  0  0  0  0  0  0
   -0.6250    0.5807    1.9089 N   0  0  0  0  0  0  0  0  0  0  0  0
   -1.5976    0.2932    1.8769 H   0  0  0  0  0  0  0  0  0  0  0  0
   -0.1569    1.2666    3.1114 C   0  0  0  0  0  0  0  0  0  0  0  0
    0.5630    2.0507    2.8525 H   0  0  0  0  0  0  0  0  0  0  0  0
   -0.9961    1.7320    3.6373 H   0  0  0  0  0  0  0  0  0  0  0  0
    0.3287    0.5588    3.7925 H   0  0  0  0  0  0  0  0  0  0  0  0
  1  2  1  0  0  0  0
  2  3  1  0  0  0  0
  2  4  1  0  0  0  0
  2  5  1  0  0  0  0
  5  6  2  0  0  0  0
  5  7  1  0  0  0  0
  7  8  1  0  0  0  0
  7  9  1  0  0  0  0
  9 10  1  0  0  0  0
  9 11  1  0  0  0  0
  9 23  1  0  0  0  0
 11 12  1  0  0  0  0
 11 13  1  0  0  0  0
 11 14  1  0  0  0  0
 14 15  1  0  0  0  0
 14 21  2  0  0  0  0
 15 16  1  0  0  0  0
 15 17  2  0  0  0  0
 17 18  1  0  0  0  0
 17 19  1  0  0  0  0
 19 20  1  0  0  0  0
 19 21  1  0  0  0  0
 21 22  1  0  0  0  0
 23 24  2  0  0  0  0
 23 25  1  0  0  0  0
 25 26  1  0  0  0  0
 25 27  1  0  0  0  0
 27 28  1  0  0  0  0
 27 29  1  0  0  0  0
 27 30  1  0  0  0  0
M  CHG  1  15   1
M  END
$$$$

  -OEChem-04042216003D

 30 30  0     1  0  0  0  0  0999 V2000
   -3.0814   -3.9596    1.6143 H   0  0  0  0  0  0  0  0  0  0  0  0
   -3.1364   -3.1189    0.9158 C   0  0  0  0  0  0  0  0  0  0  0  0
   -3.7889   -2.3539    1.3427 H   0  0  0  0  0  0  0  0  0  0  0  0
   -3.5639   -3.4746   -0.0245 H   0  0  0  0  0  0  0  0  0  0  0  0
   -1.7496   -2.5523    0.6788 C   0  0  0  0  0  0  0  0  0  0  0  0
   -0.7836   -3.0651    1.2090 O   0  0  0  0  0  0  0  0  0  0  0  0
   -1.5701   -1.4511   -0.1409 N   0  0  0  0  0  0  0  0  0  0  0  0
   -2.4141   -0.9811   -0.4532 H   0  0  0  0  0  0  0  0  0  0  0  0
   -0.2787   -0.7310   -0.2381 C   0  0  1  0  0  0  0  0  0  0  0  0
    0.4710   -1.4943   -0.4846 H   0  0  0  0  0  0  0  0  0  0  0  0
   -0.2088    0.3174   -1.3762 C   0  0  0  0  0  0  0  0  0  0  0  0
    0.0178    1.2992   -0.9434 H   0  0  0  0  0  0  0  0  0  0  0  0
    0.6361    0.0718   -2.0290 H   0  0  0  0  0  0  0  0  0  0  0  0
   -1.4622    0.4410   -2.2097 C   0  0  0  0  0  0  0  0  0  0  0  0
   -1.8852   -0.4698   -3.1794 N   0  3  0  0  0  0  0  0  0  0  0  0
   -1.3774   -1.3355   -3.3875 H   0  0  0  0  0  0  0  0  0  0  0  0
   -2.9581   -0.0218   -3.7858 C   0  0  0  0  0  0  0  0  0  0  0  0
   -3.4948   -0.5127   -4.6010 H   0  0  0  0  0  0  0  0  0  0  0  0
   -3.2738    1.2081   -3.2101 N   0  0  0  0  0  0  0  0  0  0  0  0
   -4.0420    1.8230   -3.4990 H   0  0  0  0  0  0  0  0  0  0  0  0
   -2.3302    1.5038   -2.2322 C   0  0  0  0  0  0  0  0  0  0  0  0
   -2.2637    2.4088   -1.6260 H   0  0  0  0  0  0  0  0  0  0  0  0
    0.2298   -0.1257    1.0872 C   0  0  0  0  0  0  0  0  0  0  0  0
    1.4319    0.0445    1.2156 O   0  0  0  0  0  0  0  0  0  0  0  0
   -0.6356    0.5634    1.9193 N   0  0  0  0  0  0  0  0  0  0  0  0
   -1.6154    0.3081    1.8594 H   0  0  0  0  0  0  0  0  0  0  0  0
   -0.1738    1.2209    3.1400 C   0  0  0  0  0  0  0  0  0  0  0  0
    0.5791    1.9821    2.9071 H   0  0  0  0  0  0  0  0  0  0  0  0
   -1.0090    1.7109    3.6500 H   0  0  0  0  0  0  0  0  0  0  0  0
    0.2700    0.4898    3.8249 H   0  0  0  0  0  0  0  0  0  0  0  0
  1  2  1  0  0  0  0
  2  3  1  0  0  0  0
  2  4  1  0  0  0  0
  2  5  1  0  0  0  0
  5  6  2  0  0  0  0
  5  7  1  0  0  0  0
  7  8  1  0  0  0  0
  7  9  1  0  0  0  0
  9 10  1  0  0  0  0
  9 11  1  0  0  0  0
  9 23  1  0  0  0  0
 11 12  1  0  0  0  0
 11 13  1  0  0  0  0
 11 14  1  0  0  0  0
 14 15  1  0  0  0  0
 14 21  2  0  0  0  0
 15 16  1  0  0  0  0
 15 17  2  0  0  0  0
 17 18  1  0  0  0  0
 17 19  1  0  0  0  0
 19 20  1  0  0  0  0
 19 21  1  0  0  0  0
 21 22  1  0  0  0  0
 23 24  2  0  0  0  0
 23 25  1  0  0  0  0
 25 26  1  0  0  0  0
 25 27  1  0  0  0  0
 27 28  1  0  0  0  0
 27 29  1  0  0  0  0
 27 30  1  0  0  0  0
M  CHG  1  15   1
M  END
$$$$

  -OEChem-04042216003D

 30 30  0     1  0  0  0  0  0999 V2000
   -3.0621   -3.9325    1.6756 H   0  0  0  0  0  0  0  0  0  0  0  0
   -3.1305   -3.0993    0.9694 C   0  0  0  0  0  0  0  0  0  0  0  0
   -3.7474   -2.3157    1.4152 H   0  0  0  0  0  0  0  0  0  0  0  0
   -3.6070   -3.4566    0.0537 H   0  0  0  0  0  0  0  0  0  0  0  0
   -1.7439   -2.5664    0.6635 C   0  0  0  0  0  0  0  0  0  0  0  0
   -0.7637   -3.1157    1.1268 O   0  0  0  0  0  0  0  0  0  0  0  0
   -1.5811   -1.4584   -0.1510 N   0  0  0  0  0  0  0  0  0  0  0  0
   -2.4316   -0.9483   -0.3699 H   0  0  0  0  0  0  0  0  0  0  0  0
   -0.2923   -0.7317   -0.2404 C   0  0  1  0  0  0  0  0  0  0  0  0
    0.4599   -1.4926   -0.4870 H   0  0  0  0  0  0  0  0  0  0  0  0
   -0.2109    0.3193   -1.3768 C   0  0  0  0  0  0  0  0  0  0  0  0
    0.0226    1.2995   -0.9439 H   0  0  0  0  0  0  0  0  0  0  0  0
    0.6379    0.0617   -2.0203 H   0  0  0  0  0  0  0  0  0  0  0  0
   -1.4469    0.4556   -2.2359 C   0  0  0  0  0  0  0  0  0  0  0  0
   -2.0244   -0.5563   -3.0057 N   0  3  0  0  0  0  0  0  0  0  0  0
   -1.6383   -1.5050   -3.0500 H   0  0  0  0  0  0  0  0  0  0  0  0
   -3.0436   -0.0867   -3.6843 C   0  0  0  0  0  0  0  0  0  0  0  0
   -3.6643   -0.6421   -4.3913 H   0  0  0  0  0  0  0  0  0  0  0  0
   -3.1738    1.2608   -3.3511 N   0  0  0  0  0  0  0  0  0  0  0  0
   -3.8648    1.9091   -3.7434 H   0  0  0  0  0  0  0  0  0  0  0  0
   -2.1702    1.6020   -2.4509 C   0  0  0  0  0  0  0  0  0  0  0  0
   -1.9729    2.5850   -2.0199 H   0  0  0  0  0  0  0  0  0  0  0  0
    0.2134   -0.1338    1.0896 C   0  0  0  0  0  0  0  0  0  0  0  0
    1.4150    0.0359    1.2215 O   0  0  0  0  0  0  0  0  0  0  0  0
   -0.6519    0.5466    1.9292 N   0  0  0  0  0  0  0  0  0  0  0  0
   -1.6362    0.3134    1.8578 H   0  0  0  0  0  0  0  0  0  0  0  0
   -0.1890    1.2143    3.1441 C   0  0  0  0  0  0  0  0  0  0  0  0
    0.5142    2.0176    2.8979 H   0  0  0  0  0  0  0  0  0  0  0  0
   -1.0328    1.6522    3.6862 H   0  0  0  0  0  0  0  0  0  0  0  0
    0.3146    0.5012    3.8064 H   0  0  0  0  0  0  0  0  0  0  0  0
  1  2  1  0  0  0  0
  2  3  1  0  0  0  0
  2  4  1  0  0  0  0
  2  5  1  0  0  0  0
  5  6  2  0  0  0  0
  5  7  1  0  0  0  0
  7  8  1  0  0  0  0
  7  9  1  0  0  0  0
  9 10  1  0  0  0  0
  9 11  1  0  0  0  0
  9 23  1  0  0  0  0
 11 12  1  0  0  0  0
 11 13  1  0  0  0  0
 11 14  1  0  0  0  0
 14 15  1  0  0  0  0
 14 21  2  0  0  0  0
 15 16  1  0  0  0  0
 15 17  2  0  0  0  0
 17 18  1  0  0  0  0
 17 19  1  0  0  0  0
 19 20  1  0  0  0  0
 19 21  1  0  0  0  0
 21 22  1  0  0  0  0
 23 24  2  0  0  0  0
 23 25  1  0  0  0  0
 25 26  1  0  0  0  0
 25 27  1  0  0  0  0
 27 28  1  0  0  0  0
 27 29  1  0  0  0  0
 27 30  1  0  0  0  0
M  CHG  1  15   1
M  END
$$$$

  -OEChem-04042216003D

 30 30  0     1  0  0  0  0  0999 V2000
   -2.9858   -3.9435    1.7545 H   0  0  0  0  0  0  0  0  0  0  0  0
   -3.0896   -3.1050    1.0589 C   0  0  0  0  0  0  0  0  0  0  0  0
   -3.6685   -2.3182    1.5480 H   0  0  0  0  0  0  0  0  0  0  0  0
   -3.6269   -3.4514    0.1732 H   0  0  0  0  0  0  0  0  0  0  0  0
   -1.7191   -2.5851    0.6699 C   0  0  0  0  0  0  0  0  0  0  0  0
   -0.7194   -3.1505    1.0668 O   0  0  0  0  0  0  0  0  0  0  0  0
   -1.5942   -1.4727   -0.1466 N   0  0  0  0  0  0  0  0  0  0  0  0
   -2.4523   -0.9443   -0.2760 H   0  0  0  0  0  0  0  0  0  0  0  0
   -0.3164   -0.7266   -0.2439 C   0  0  1  0  0  0  0  0  0  0  0  0
    0.4430   -1.4815   -0.4889 H   0  0  0  0  0  0  0  0  0  0  0  0
   -0.2304    0.3176   -1.3886 C   0  0  0  0  0  0  0  0  0  0  0  0
    0.0018    1.2997   -0.9593 H   0  0  0  0  0  0  0  0  0  0  0  0
    0.6266    0.0510   -2.0173 H   0  0  0  0  0  0  0  0  0  0  0  0
   -1.4436    0.4607   -2.2818 C   0  0  0  0  0  0  0  0  0  0  0  0
   -2.1959   -0.5716   -2.8467 N   0  3  0  0  0  0  0  0  0  0  0  0
   -1.9503   -1.5594   -2.7229 H   0  0  0  0  0  0  0  0  0  0  0  0
   -3.1503   -0.0831   -3.6017 C   0  0  0  0  0  0  0  0  0  0  0  0
   -3.8669   -0.6551   -4.1955 H   0  0  0  0  0  0  0  0  0  0  0  0
   -3.0654    1.3057   -3.5224 N   0  0  0  0  0  0  0  0  0  0  0  0
   -3.6646    1.9711   -4.0220 H   0  0  0  0  0  0  0  0  0  0  0  0
   -1.9958    1.6452   -2.7014 C   0  0  0  0  0  0  0  0  0  0  0  0
   -1.6446    2.6481   -2.4527 H   0  0  0  0  0  0  0  0  0  0  0  0
    0.1913   -0.1259    1.0846 C   0  0  0  0  0  0  0  0  0  0  0  0
    1.3925    0.0450    1.2159 O   0  0  0  0  0  0  0  0  0  0  0  0
   -0.6739    0.5399    1.9364 N   0  0  0  0  0  0  0  0  0  0  0  0
   -1.6606    0.3218    1.8560 H   0  0  0  0  0  0  0  0  0  0  0  0
   -0.2112    1.1976    3.1569 C   0  0  0  0  0  0  0  0  0  0  0  0
    0.5151    1.9834    2.9210 H   0  0  0  0  0  0  0  0  0  0  0  0
   -1.0514    1.6571    3.6868 H   0  0  0  0  0  0  0  0  0  0  0  0
    0.2651    0.4723    3.8259 H   0  0  0  0  0  0  0  0  0  0  0  0
  1  2  1  0  0  0  0
  2  3  1  0  0  0  0
  2  4  1  0  0  0  0
  2  5  1  0  0  0  0
  5  6  2  0  0  0  0
  5  7  1  0  0  0  0
  7  8  1  0  0  0  0
  7  9  1  0  0  0  0
  9 10  1  0  0  0  0
  9 11  1  0  0  0  0
  9 23  1  0  0  0  0
 11 12  1  0  0  0  0
 11 13  1  0  0  0  0
 11 14  1  0  0  0  0
 14 15  1  0  0  0  0
 14 21  2  0  0  0  0
 15 16  1  0  0  0  0
 15 17  2  0  0  0  0
 17 18  1  0  0  0  0
 17 19  1  0  0  0  0
 19 20  1  0  0  0  0
 19 21  1  0  0  0  0
 21 22  1  0  0  0  0
 23 24  2  0  0  0  0
 23 25  1  0  0  0  0
 25 26  1  0  0  0  0
 25 27  1  0  0  0  0
 27 28  1  0  0  0  0
 27 29  1  0  0  0  0
 27 30  1  0  0  0  0
M  CHG  1  15   1
M  END
$$$$

  -OEChem-04042216003D

 30 30  0     1  0  0  0  0  0999 V2000
   -2.9042   -3.9639    1.8461 H   0  0  0  0  0  0  0  0  0  0  0  0
   -3.0438   -3.1331    1.1475 C   0  0  0  0  0  0  0  0  0  0  0  0
   -3.6047   -2.3446    1.6544 H   0  0  0  0  0  0  0  0  0  0  0  0
   -3.6188   -3.4915    0.2907 H   0  0  0  0  0  0  0  0  0  0  0  0
   -1.6947   -2.6109    0.6916 C   0  0  0  0  0  0  0  0  0  0  0  0
   -0.6769   -3.1787    1.0350 O   0  0  0  0  0  0  0  0  0  0  0  0
   -1.6129   -1.4948   -0.1271 N   0  0  0  0  0  0  0  0  0  0  0  0
   -2.4750   -0.9591   -0.1742 H   0  0  0  0  0  0  0  0  0  0  0  0
   -0.3479   -0.7274   -0.2419 C   0  0  1  0  0  0  0  0  0  0  0  0
    0.4165   -1.4767   -0.4892 H   0  0  0  0  0  0  0  0  0  0  0  0
   -0.2613    0.3077   -1.3975 C   0  0  0  0  0  0  0  0  0  0  0  0
   -0.0343    1.2929   -0.9729 H   0  0  0  0  0  0  0  0  0  0  0  0
    0.6052    0.0367   -2.0117 H   0  0  0  0  0  0  0  0  0  0  0  0
   -1.4529    0.4571   -2.3218 C   0  0  0  0  0  0  0  0  0  0  0  0
   -2.3860   -0.5134   -2.6931 N   0  3  0  0  0  0  0  0  0  0  0  0
   -2.2851   -1.4962   -2.4191 H   0  0  0  0  0  0  0  0  0  0  0  0
   -3.2645   -0.0135   -3.5287 C   0  0  0  0  0  0  0  0  0  0  0  0
   -4.0768   -0.5534   -4.0202 H   0  0  0  0  0  0  0  0  0  0  0  0
   -2.9509    1.3335   -3.6936 N   0  0  0  0  0  0  0  0  0  0  0  0
   -3.4473    1.9941   -4.3007 H   0  0  0  0  0  0  0  0  0  0  0  0
   -1.8182    1.6259   -2.9430 C   0  0  0  0  0  0  0  0  0  0  0  0
   -1.3052    2.5863   -2.8685 H   0  0  0  0  0  0  0  0  0  0  0  0
    0.1708   -0.1218    1.0802 C   0  0  0  0  0  0  0  0  0  0  0  0
    1.3715    0.0625    1.1970 O   0  0  0  0  0  0  0  0  0  0  0  0
   -0.6904    0.5284    1.9479 N   0  0  0  0  0  0  0  0  0  0  0  0
   -1.6783    0.3150    1.8721 H   0  0  0  0  0  0  0  0  0  0  0  0
   -0.2198    1.1959    3.1600 C   0  0  0  0  0  0  0  0  0  0  0  0
    0.4822    1.9993    2.9104 H   0  0  0  0  0  0  0  0  0  0  0  0
   -1.0606    1.6344    3.7068 H   0  0  0  0  0  0  0  0  0  0  0  0
    0.2868    0.4822    3.8194 H   0  0  0  0  0  0  0  0  0  0  0  0
  1  2  1  0  0  0  0
  2  3  1  0  0  0  0
  2  4  1  0  0  0  0
  2  5  1  0  0  0  0
  5  6  2  0  0  0  0
  5  7  1  0  0  0  0
  7  8  1  0  0  0  0
  7  9  1  0  0  0  0
  9 10  1  0  0  0  0
  9 11  1  0  0  0  0
  9 23  1  0  0  0  0
 11 12  1  0  0  0  0
 11 13  1  0  0  0  0
 11 14  1  0  0  0  0
 14 15  1  0  0  0  0
 14 21  2  0  0  0  0
 15 16  1  0  0  0  0
 15 17  2  0  0  0  0
 17 18  1  0  0  0  0
 17 19  1  0  0  0  0
 19 20  1  0  0  0  0
 19 21  1  0  0  0  0
 21 22  1  0  0  0  0
 23 24  2  0  0  0  0
 23 25  1  0  0  0  0
 25 26  1  0  0  0  0
 25 27  1  0  0  0  0
 27 28  1  0  0  0  0
 27 29  1  0  0  0  0
 27 30  1  0  0  0  0
M  CHG  1  15   1
M  END
$$$$

  -OEChem-04042216003D

 30 30  0     1  0  0  0  0  0999 V2000
   -2.8176   -3.9898    1.9197 H   0  0  0  0  0  0  0  0  0  0  0  0
   -2.9956   -3.1581    1.2308 C   0  0  0  0  0  0  0  0  0  0  0  0
   -3.5359   -2.3743    1.7666 H   0  0  0  0  0  0  0  0  0  0  0  0
   -3.6087   -3.5188    0.4018 H   0  0  0  0  0  0  0  0  0  0  0  0
   -1.6729   -2.6271    0.7120 C   0  0  0  0  0  0  0  0  0  0  0  0
   -0.6376   -3.1876    1.0119 O   0  0  0  0  0  0  0  0  0  0  0  0
   -1.6373   -1.5062   -0.1049 N   0  0  0  0  0  0  0  0  0  0  0  0
   -2.4992   -0.9695   -0.0738 H   0  0  0  0  0  0  0  0  0  0  0  0
   -0.3862   -0.7185   -0.2411 C   0  0  1  0  0  0  0  0  0  0  0  0
    0.3802   -1.4633   -0.4951 H   0  0  0  0  0  0  0  0  0  0  0  0
   -0.3038    0.3040   -1.4095 C   0  0  0  0  0  0  0  0  0  0  0  0
   -0.0915    1.2943   -0.9887 H   0  0  0  0  0  0  0  0  0  0  0  0
    0.5733    0.0367   -2.0104 H   0  0  0  0  0  0  0  0  0  0  0  0
   -1.4794    0.4494   -2.3560 C   0  0  0  0  0  0  0  0  0  0  0  0
   -2.5757   -0.3933   -2.5492 N   0  3  0  0  0  0  0  0  0  0  0  0
   -2.6106   -1.3333   -2.1434 H   0  0  0  0  0  0  0  0  0  0  0  0
   -3.3778    0.0934   -3.4659 C   0  0  0  0  0  0  0  0  0  0  0  0
   -4.2757   -0.3824   -3.8661 H   0  0  0  0  0  0  0  0  0  0  0  0
   -2.8506    1.3199   -3.8610 N   0  0  0  0  0  0  0  0  0  0  0  0
   -3.2479    1.9424   -4.5722 H   0  0  0  0  0  0  0  0  0  0  0  0
   -1.6643    1.5389   -3.1716 C   0  0  0  0  0  0  0  0  0  0  0  0
   -0.9993    2.3997   -3.2595 H   0  0  0  0  0  0  0  0  0  0  0  0
    0.1541   -0.1101    1.0713 C   0  0  0  0  0  0  0  0  0  0  0  0
    1.3551    0.0855    1.1634 O   0  0  0  0  0  0  0  0  0  0  0  0
   -0.6940    0.5246    1.9631 N   0  0  0  0  0  0  0  0  0  0  0  0
   -1.6824    0.3090    1.9048 H   0  0  0  0  0  0  0  0  0  0  0  0
   -0.2025    1.1839    3.1714 C   0  0  0  0  0  0  0  0  0  0  0  0
    0.4985    1.9863    2.9161 H   0  0  0  0  0  0  0  0  0  0  0  0
   -1.0334    1.6219    3.7333 H   0  0  0  0  0  0  0  0  0  0  0  0
    0.3119    0.4647    3.8186 H   0  0  0  0  0  0  0  0  0  0  0  0
  1  2  1  0  0  0  0
  2  3  1  0  0  0  0
  2  4  1  0  0  0  0
  2  5  1  0  0  0  0
  5  6  2  0  0  0  0
  5  7  1  0  0  0  0
  7  8  1  0  0  0  0
  7  9  1  0  0  0  0
  9 10  1  0  0  0  0
  9 11  1  0  0  0  0
  9 23  1  0  0  0  0
 11 12  1  0  0  0  0
 11 13  1  0  0  0  0
 11 14  1  0  0  0  0
 14 15  1  0  0  0  0
 14 21  2  0  0  0  0
 15 16  1  0  0  0  0
 15 17  2  0  0  0  0
 17 18  1  0  0  0  0
 17 19  1  0  0  0  0
 19 20  1  0  0  0  0
 19 21  1  0  0  0  0
 21 22  1  0  0  0  0
 23 24  2  0  0  0  0
 23 25  1  0  0  0  0
 25 26  1  0  0  0  0
 25 27  1  0  0  0  0
 27 28  1  0  0  0  0
 27 29  1  0  0  0  0
 27 30  1  0  0  0  0
M  CHG  1  15   1
M  END
$$$$

  -OEChem-04042216003D

 30 30  0     1  0  0  0  0  0999 V2000
   -2.7639   -4.0300    1.9429 H   0  0  0  0  0  0  0  0  0  0  0  0
   -2.9696   -3.1856    1.2776 C   0  0  0  0  0  0  0  0  0  0  0  0
   -3.4937   -2.4154    1.8478 H   0  0  0  0  0  0  0  0  0  0  0  0
   -3.6109   -3.5330    0.4643 H   0  0  0  0  0  0  0  0  0  0  0  0
   -1.6680   -2.6389    0.7220 C   0  0  0  0  0  0  0  0  0  0  0  0
   -0.6205   -3.1963    0.9831 O   0  0  0  0  0  0  0  0  0  0  0  0
   -1.6690   -1.5059   -0.0802 N   0  0  0  0  0  0  0  0  0  0  0  0
   -2.5232   -0.9686    0.0266 H   0  0  0  0  0  0  0  0  0  0  0  0
   -0.4268   -0.7073   -0.2372 C   0  0  1  0  0  0  0  0  0  0  0  0
    0.3330   -1.4530   -0.5083 H   0  0  0  0  0  0  0  0  0  0  0  0
   -0.3499    0.3063   -1.4135 C   0  0  0  0  0  0  0  0  0  0  0  0
   -0.1561    1.2994   -0.9908 H   0  0  0  0  0  0  0  0  0  0  0  0
    0.5372    0.0523   -2.0056 H   0  0  0  0  0  0  0  0  0  0  0  0
   -1.5194    0.4507   -2.3684 C   0  0  0  0  0  0  0  0  0  0  0  0
   -2.7513   -0.2050   -2.4053 N   0  3  0  0  0  0  0  0  0  0  0  0
   -2.9242   -1.0546   -1.8636 H   0  0  0  0  0  0  0  0  0  0  0  0
   -3.4833    0.2408   -3.3983 C   0  0  0  0  0  0  0  0  0  0  0  0
   -4.4590   -0.1375   -3.7105 H   0  0  0  0  0  0  0  0  0  0  0  0
   -2.7658    1.2643   -4.0098 N   0  0  0  0  0  0  0  0  0  0  0  0
   -3.0725    1.8109   -4.8212 H   0  0  0  0  0  0  0  0  0  0  0  0
   -1.5387    1.3891   -3.3718 C   0  0  0  0  0  0  0  0  0  0  0  0
   -0.7397    2.0921   -3.6130 H   0  0  0  0  0  0  0  0  0  0  0  0
    0.1513   -0.1102    1.0643 C   0  0  0  0  0  0  0  0  0  0  0  0
    1.3534    0.0932    1.1196 O   0  0  0  0  0  0  0  0  0  0  0  0
   -0.6710    0.5099    1.9901 N   0  0  0  0  0  0  0  0  0  0  0  0
   -1.6609    0.2956    1.9603 H   0  0  0  0  0  0  0  0  0  0  0  0
   -0.1444    1.1745    3.1807 C   0  0  0  0  0  0  0  0  0  0  0  0
    0.5288    1.9922    2.9002 H   0  0  0  0  0  0  0  0  0  0  0  0
   -0.9604    1.5932    3.7782 H   0  0  0  0  0  0  0  0  0  0  0  0
    0.4109    0.4638    3.8032 H   0  0  0  0  0  0  0  0  0  0  0  0
  1  2  1  0  0  0  0
  2  3  1  0  0  0  0
  2  4  1  0  0  0  0
  2  5  1  0  0  0  0
  5  6  2  0  0  0  0
  5  7  1  0  0  0  0
  7  8  1  0  0  0  0
  7  9  1  0  0  0  0
  9 10  1  0  0  0  0
  9 11  1  0  0  0  0
  9 23  1  0  0  0  0
 11 12  1  0  0  0  0
 11 13  1  0  0  0  0
 11 14  1  0  0  0  0
 14 15  1  0  0  0  0
 14 21  2  0  0  0  0
 15 16  1  0  0  0  0
 15 17  2  0  0  0  0
 17 18  1  0  0  0  0
 17 19  1  0  0  0  0
 19 20  1  0  0  0  0
 19 21  1  0  0  0  0
 21 22  1  0  0  0  0
 23 24  2  0  0  0  0
 23 25  1  0  0  0  0
 25 26  1  0  0  0  0
 25 27  1  0  0  0  0
 27 28  1  0  0  0  0
 27 29  1  0  0  0  0
 27 30  1  0  0  0  0
M  CHG  1  15   1
M  END
$$$$

  -OEChem-04042216003D

 30 30  0     1  0  0  0  0  0999 V2000
   -2.9069   -4.2595    1.6091 H   0  0  0  0  0  0  0  0  0  0  0  0
   -2.9733   -3.5045    0.8194 C   0  0  0  0  0  0  0  0  0  0  0  0
   -3.9408   -3.0034    0.8980 H   0  0  0  0  0  0  0  0  0  0  0  0
   -2.9032   -4.0090   -0.1473 H   0  0  0  0  0  0  0  0  0  0  0  0
   -1.8482   -2.4982    0.9694 C   0  0  0  0  0  0  0  0  0  0  0  0
   -1.1059   -2.5682    1.9280 O   0  0  0  0  0  0  0  0  0  0  0  0
   -1.6850   -1.4954    0.0238 N   0  0  0  0  0  0  0  0  0  0  0  0
   -2.1677   -1.7347   -0.8362 H   0  0  0  0  0  0  0  0  0  0  0  0
   -0.3643   -0.8460   -0.1771 C   0  0  1  0  0  0  0  0  0  0  0  0
    0.3530   -1.6436   -0.4093 H   0  0  0  0  0  0  0  0  0  0  0  0
   -0.3028    0.2007   -1.3356 C   0  0  0  0  0  0  0  0  0  0  0  0
    0.0295    1.1641   -0.9284 H   0  0  0  0  0  0  0  0  0  0  0  0
    0.4934   -0.1218   -2.0159 H   0  0  0  0  0  0  0  0  0  0  0  0
   -1.5406    0.5013   -2.1626 C   0  0  0  0  0  0  0  0  0  0  0  0
   -2.8867    0.2086   -1.9240 N   0  3  0  0  0  0  0  0  0  0  0  0
   -3.2190   -0.1087   -1.0090 H   0  0  0  0  0  0  0  0  0  0  0  0
   -3.6348    0.6319   -2.9151 C   0  0  0  0  0  0  0  0  0  0  0  0
   -4.7254    0.5991   -2.9696 H   0  0  0  0  0  0  0  0  0  0  0  0
   -2.7808    1.1668   -3.8746 N   0  0  0  0  0  0  0  0  0  0  0  0
   -3.0664    1.5829   -4.7673 H   0  0  0  0  0  0  0  0  0  0  0  0
   -1.4769    1.0893   -3.4028 C   0  0  0  0  0  0  0  0  0  0  0  0
   -0.5722    1.4284   -3.9106 H   0  0  0  0  0  0  0  0  0  0  0  0
    0.2072   -0.1368    1.0756 C   0  0  0  0  0  0  0  0  0  0  0  0
    1.4194    0.0016    1.1408 O   0  0  0  0  0  0  0  0  0  0  0  0
   -0.6041    0.6667    1.8575 N   0  0  0  0  0  0  0  0  0  0  0  0
   -1.5750    0.3748    1.9083 H   0  0  0  0  0  0  0  0  0  0  0  0
   -0.0698    1.4203    2.9896 C   0  0  0  0  0  0  0  0  0  0  0  0
    0.6983    2.1264    2.6560 H   0  0  0  0  0  0  0  0  0  0  0  0
   -0.8662    1.9884    3.4803 H   0  0  0  0  0  0  0  0  0  0  0  0
    0.3763    0.7415    3.7250 H   0  0  0  0  0  0  0  0  0  0  0  0
  1  2  1  0  0  0  0
  2  3  1  0  0  0  0
  2  4  1  0  0  0  0
  2  5  1  0  0  0  0
  5  6  2  0  0  0  0
  5  7  1  0  0  0  0
  7  8  1  0  0  0  0
  7  9  1  0  0  0  0
  9 10  1  0  0  0  0
  9 11  1  0  0  0  0
  9 23  1  0  0  0  0
 11 12  1  0  0  0  0
 11 13  1  0  0  0  0
 11 14  1  0  0  0  0
 14 15  1  0  0  0  0
 14 21  2  0  0  0  0
 15 16  1  0  0  0  0
 15 17  2  0  0  0  0
 17 18  1  0  0  0  0
 17 19  1  0  0  0  0
 19 20  1  0  0  0  0
 19 21  1  0  0  0  0
 21 22  1  0  0  0  0
 23 24  2  0  0  0  0
 23 25  1  0  0  0  0
 25 26  1  0  0  0  0
 25 27  1  0  0  0  0
 27 28  1  0  0  0  0
 27 29  1  0  0  0  0
 27 30  1  0  0  0  0
M  CHG  1  15   1
M  END
$$$$

  -OEChem-04042216003D

 30 30  0     1  0  0  0  0  0999 V2000
   -2.9954   -4.2102    1.5485 H   0  0  0  0  0  0  0  0  0  0  0  0
   -3.0331   -3.4481    0.7639 C   0  0  0  0  0  0  0  0  0  0  0  0
   -3.9836   -2.9153    0.8415 H   0  0  0  0  0  0  0  0  0  0  0  0
   -2.9763   -3.9471   -0.2064 H   0  0  0  0  0  0  0  0  0  0  0  0
   -1.8746   -2.4824    0.9259 C   0  0  0  0  0  0  0  0  0  0  0  0
   -1.1326   -2.5885    1.8816 O   0  0  0  0  0  0  0  0  0  0  0  0
   -1.6815   -1.4669    0.0009 N   0  0  0  0  0  0  0  0  0  0  0  0
   -2.1925   -1.6405   -0.8593 H   0  0  0  0  0  0  0  0  0  0  0  0
   -0.3526   -0.8281   -0.1753 C   0  0  1  0  0  0  0  0  0  0  0  0
    0.3567   -1.6336   -0.4044 H   0  0  0  0  0  0  0  0  0  0  0  0
   -0.2696    0.2116   -1.3357 C   0  0  0  0  0  0  0  0  0  0  0  0
    0.0477    1.1783   -0.9244 H   0  0  0  0  0  0  0  0  0  0  0  0
    0.5385   -0.1065   -2.0036 H   0  0  0  0  0  0  0  0  0  0  0  0
   -1.5074    0.4910   -2.1675 C   0  0  0  0  0  0  0  0  0  0  0  0
   -2.8525    0.4330   -1.7924 N   0  3  0  0  0  0  0  0  0  0  0  0
   -3.1417    0.2945   -0.8194 H   0  0  0  0  0  0  0  0  0  0  0  0
   -3.6274    0.7503   -2.8021 C   0  0  0  0  0  0  0  0  0  0  0  0
   -4.7161    0.8395   -2.7861 H   0  0  0  0  0  0  0  0  0  0  0  0
   -2.7992    0.9808   -3.8975 N   0  0  0  0  0  0  0  0  0  0  0  0
   -3.1085    1.2570   -4.8354 H   0  0  0  0  0  0  0  0  0  0  0  0
   -1.4772    0.8229   -3.5000 C   0  0  0  0  0  0  0  0  0  0  0  0
   -0.5847    0.9457   -4.1160 H   0  0  0  0  0  0  0  0  0  0  0  0
    0.2183   -0.1413    1.0888 C   0  0  0  0  0  0  0  0  0  0  0  0
    1.4306   -0.0061    1.1557 O   0  0  0  0  0  0  0  0  0  0  0  0
   -0.5909    0.6612    1.8740 N   0  0  0  0  0  0  0  0  0  0  0  0
   -1.5561    0.3545    1.9405 H   0  0  0  0  0  0  0  0  0  0  0  0
   -0.0501    1.4114    3.0054 C   0  0  0  0  0  0  0  0  0  0  0  0
    0.7292    2.1055    2.6723 H   0  0  0  0  0  0  0  0  0  0  0  0
   -0.8399    1.9929    3.4908 H   0  0  0  0  0  0  0  0  0  0  0  0
    0.3838    0.7294    3.7451 H   0  0  0  0  0  0  0  0  0  0  0  0
  1  2  1  0  0  0  0
  2  3  1  0  0  0  0
  2  4  1  0  0  0  0
  2  5  1  0  0  0  0
  5  6  2  0  0  0  0
  5  7  1  0  0  0  0
  7  8  1  0  0  0  0
  7  9  1  0  0  0  0
  9 10  1  0  0  0  0
  9 11  1  0  0  0  0
  9 23  1  0  0  0  0
 11 12  1  0  0  0  0
 11 13  1  0  0  0  0
 11 14  1  0  0  0  0
 14 15  1  0  0  0  0
 14 21  2  0  0  0  0
 15 16  1  0  0  0  0
 15 17  2  0  0  0  0
 17 18  1  0  0  0  0
 17 19  1  0  0  0  0
 19 20  1  0  0  0  0
 19 21  1  0  0  0  0
 21 22  1  0  0  0  0
 23 24  2  0  0  0  0
 23 25  1  0  0  0  0
 25 26  1  0  0  0  0
 25 27  1  0  0  0  0
 27 28  1  0  0  0  0
 27 29  1  0  0  0  0
 27 30  1  0  0  0  0
M  CHG  1  15   1
M  END
$$$$

  -OEChem-04042216003D

 30 30  0     1  0  0  0  0  0999 V2000
   -3.0860   -4.1427    1.5076 H   0  0  0  0  0  0  0  0  0  0  0  0
   -3.0837   -3.3866    0.7163 C   0  0  0  0  0  0  0  0  0  0  0  0
   -4.0111   -2.8129    0.7800 H   0  0  0  0  0  0  0  0  0  0  0  0
   -3.0389   -3.8951   -0.2497 H   0  0  0  0  0  0  0  0  0  0  0  0
   -1.8869   -2.4697    0.8813 C   0  0  0  0  0  0  0  0  0  0  0  0
   -1.1392   -2.6178    1.8274 O   0  0  0  0  0  0  0  0  0  0  0  0
   -1.6642   -1.4463   -0.0266 N   0  0  0  0  0  0  0  0  0  0  0  0
   -2.2050   -1.5517   -0.8798 H   0  0  0  0  0  0  0  0  0  0  0  0
   -0.3298   -0.8145   -0.1791 C   0  0  1  0  0  0  0  0  0  0  0  0
    0.3765   -1.6247   -0.4013 H   0  0  0  0  0  0  0  0  0  0  0  0
   -0.2304    0.2175   -1.3407 C   0  0  0  0  0  0  0  0  0  0  0  0
    0.0793    1.1884   -0.9345 H   0  0  0  0  0  0  0  0  0  0  0  0
    0.5823   -0.1032   -2.0020 H   0  0  0  0  0  0  0  0  0  0  0  0
   -1.4736    0.4661   -2.1696 C   0  0  0  0  0  0  0  0  0  0  0  0
   -2.7784    0.6638   -1.7101 N   0  3  0  0  0  0  0  0  0  0  0  0
   -3.0050    0.7292   -0.7131 H   0  0  0  0  0  0  0  0  0  0  0  0
   -3.5910    0.8808   -2.7167 C   0  0  0  0  0  0  0  0  0  0  0  0
   -4.6576    1.1091   -2.6555 H   0  0  0  0  0  0  0  0  0  0  0  0
   -2.8332    0.7908   -3.8823 N   0  0  0  0  0  0  0  0  0  0  0  0
   -3.1826    0.9317   -4.8359 H   0  0  0  0  0  0  0  0  0  0  0  0
   -1.5102    0.5365   -3.5401 C   0  0  0  0  0  0  0  0  0  0  0  0
   -0.6612    0.4298   -4.2174 H   0  0  0  0  0  0  0  0  0  0  0  0
    0.2286   -0.1438    1.0977 C   0  0  0  0  0  0  0  0  0  0  0  0
    1.4396   -0.0007    1.1737 O   0  0  0  0  0  0  0  0  0  0  0  0
   -0.5911    0.6550    1.8763 N   0  0  0  0  0  0  0  0  0  0  0  0
   -1.5491    0.3269    1.9484 H   0  0  0  0  0  0  0  0  0  0  0  0
   -0.0605    1.4045    3.0134 C   0  0  0  0  0  0  0  0  0  0  0  0
    0.7176    2.1032    2.6869 H   0  0  0  0  0  0  0  0  0  0  0  0
   -0.8561    1.9810    3.4956 H   0  0  0  0  0  0  0  0  0  0  0  0
    0.3724    0.7229    3.7542 H   0  0  0  0  0  0  0  0  0  0  0  0
  1  2  1  0  0  0  0
  2  3  1  0  0  0  0
  2  4  1  0  0  0  0
  2  5  1  0  0  0  0
  5  6  2  0  0  0  0
  5  7  1  0  0  0  0
  7  8  1  0  0  0  0
  7  9  1  0  0  0  0
  9 10  1  0  0  0  0
  9 11  1  0  0  0  0
  9 23  1  0  0  0  0
 11 12  1  0  0  0  0
 11 13  1  0  0  0  0
 11 14  1  0  0  0  0
 14 15  1  0  0  0  0
 14 21  2  0  0  0  0
 15 16  1  0  0  0  0
 15 17  2  0  0  0  0
 17 18  1  0  0  0  0
 17 19  1  0  0  0  0
 19 20  1  0  0  0  0
 19 21  1  0  0  0  0
 21 22  1  0  0  0  0
 23 24  2  0  0  0  0
 23 25  1  0  0  0  0
 25 26  1  0  0  0  0
 25 27  1  0  0  0  0
 27 28  1  0  0  0  0
 27 29  1  0  0  0  0
 27 30  1  0  0  0  0
M  CHG  1  15   1
M  END
$$$$

  -OEChem-04042216003D

 30 30  0     1  0  0  0  0  0999 V2000
   -3.1219   -4.1238    1.4482 H   0  0  0  0  0  0  0  0  0  0  0  0
   -3.1177   -3.3407    0.6838 C   0  0  0  0  0  0  0  0  0  0  0  0
   -4.0264   -2.7442    0.7904 H   0  0  0  0  0  0  0  0  0  0  0  0
   -3.1110   -3.8162   -0.2997 H   0  0  0  0  0  0  0  0  0  0  0  0
   -1.8920   -2.4626    0.8488 C   0  0  0  0  0  0  0  0  0  0  0  0
   -1.1379   -2.6459    1.7840 O   0  0  0  0  0  0  0  0  0  0  0  0
   -1.6432   -1.4380   -0.0498 N   0  0  0  0  0  0  0  0  0  0  0  0
   -2.2106   -1.4842   -0.8908 H   0  0  0  0  0  0  0  0  0  0  0  0
   -0.3057   -0.8092   -0.1829 C   0  0  1  0  0  0  0  0  0  0  0  0
    0.4021   -1.6201   -0.3965 H   0  0  0  0  0  0  0  0  0  0  0  0
   -0.1955    0.2183   -1.3442 C   0  0  0  0  0  0  0  0  0  0  0  0
    0.1139    1.1930   -0.9471 H   0  0  0  0  0  0  0  0  0  0  0  0
    0.6158   -0.1087   -2.0039 H   0  0  0  0  0  0  0  0  0  0  0  0
   -1.4464    0.4363   -2.1651 C   0  0  0  0  0  0  0  0  0  0  0  0
   -2.6754    0.8971   -1.6882 N   0  3  0  0  0  0  0  0  0  0  0  0
   -2.8197    1.1753   -0.7127 H   0  0  0  0  0  0  0  0  0  0  0  0
   -3.5288    1.0231   -2.6762 C   0  0  0  0  0  0  0  0  0  0  0  0
   -4.5517    1.4008   -2.6077 H   0  0  0  0  0  0  0  0  0  0  0  0
   -2.8784    0.6094   -3.8375 N   0  0  0  0  0  0  0  0  0  0  0  0
   -3.2791    0.6133   -4.7814 H   0  0  0  0  0  0  0  0  0  0  0  0
   -1.5733    0.2503   -3.5191 C   0  0  0  0  0  0  0  0  0  0  0  0
   -0.7950   -0.0909   -4.2040 H   0  0  0  0  0  0  0  0  0  0  0  0
    0.2333   -0.1432    1.1032 C   0  0  0  0  0  0  0  0  0  0  0  0
    1.4418    0.0109    1.1931 O   0  0  0  0  0  0  0  0  0  0  0  0
   -0.6014    0.6540    1.8676 N   0  0  0  0  0  0  0  0  0  0  0  0
   -1.5550    0.3120    1.9347 H   0  0  0  0  0  0  0  0  0  0  0  0
   -0.0878    1.4100    3.0085 C   0  0  0  0  0  0  0  0  0  0  0  0
    0.6816    2.1204    2.6865 H   0  0  0  0  0  0  0  0  0  0  0  0
   -0.8940    1.9739    3.4878 H   0  0  0  0  0  0  0  0  0  0  0  0
    0.3515    0.7342    3.7510 H   0  0  0  0  0  0  0  0  0  0  0  0
  1  2  1  0  0  0  0
  2  3  1  0  0  0  0
  2  4  1  0  0  0  0
  2  5  1  0  0  0  0
  5  6  2  0  0  0  0
  5  7  1  0  0  0  0
  7  8  1  0  0  0  0
  7  9  1  0  0  0  0
  9 10  1  0  0  0  0
  9 11  1  0  0  0  0
  9 23  1  0  0  0  0
 11 12  1  0  0  0  0
 11 13  1  0  0  0  0
 11 14  1  0  0  0  0
 14 15  1  0  0  0  0
 14 21  2  0  0  0  0
 15 16  1  0  0  0  0
 15 17  2  0  0  0  0
 17 18  1  0  0  0  0
 17 19  1  0  0  0  0
 19 20  1  0  0  0  0
 19 21  1  0  0  0  0
 21 22  1  0  0  0  0
 23 24  2  0  0  0  0
 23 25  1  0  0  0  0
 25 26  1  0  0  0  0
 25 27  1  0  0  0  0
 27 28  1  0  0  0  0
 27 29  1  0  0  0  0
 27 30  1  0  0  0  0
M  CHG  1  15   1
M  END
$$$$

  -OEChem-04042216003D

 30 30  0     1  0  0  0  0  0999 V2000
   -3.1522   -4.0765    1.4643 H   0  0  0  0  0  0  0  0  0  0  0  0
   -3.1364   -3.2964    0.6972 C   0  0  0  0  0  0  0  0  0  0  0  0
   -4.0179   -2.6639    0.8241 H   0  0  0  0  0  0  0  0  0  0  0  0
   -3.1732   -3.7739   -0.2847 H   0  0  0  0  0  0  0  0  0  0  0  0
   -1.8732   -2.4671    0.8290 C   0  0  0  0  0  0  0  0  0  0  0  0
   -1.0916   -2.6928    1.7319 O   0  0  0  0  0  0  0  0  0  0  0  0
   -1.6163   -1.4404   -0.0641 N   0  0  0  0  0  0  0  0  0  0  0  0
   -2.2232   -1.4228   -0.8776 H   0  0  0  0  0  0  0  0  0  0  0  0
   -0.2828   -0.8033   -0.1921 C   0  0  1  0  0  0  0  0  0  0  0  0
    0.4328   -1.6082   -0.4028 H   0  0  0  0  0  0  0  0  0  0  0  0
   -0.1800    0.2231   -1.3521 C   0  0  0  0  0  0  0  0  0  0  0  0
    0.1310    1.2012   -0.9649 H   0  0  0  0  0  0  0  0  0  0  0  0
    0.6251   -0.1071   -2.0179 H   0  0  0  0  0  0  0  0  0  0  0  0
   -1.4407    0.4138   -2.1611 C   0  0  0  0  0  0  0  0  0  0  0  0
   -2.5720    1.1198   -1.7484 N   0  3  0  0  0  0  0  0  0  0  0  0
   -2.6297    1.5936   -0.8415 H   0  0  0  0  0  0  0  0  0  0  0  0
   -3.4577    1.1613   -2.7151 C   0  0  0  0  0  0  0  0  0  0  0  0
   -4.4218    1.6747   -2.6911 H   0  0  0  0  0  0  0  0  0  0  0  0
   -2.9278    0.4501   -3.7909 N   0  0  0  0  0  0  0  0  0  0  0  0
   -3.3734    0.3322   -4.7071 H   0  0  0  0  0  0  0  0  0  0  0  0
   -1.6601   -0.0076   -3.4484 C   0  0  0  0  0  0  0  0  0  0  0  0
   -0.9635   -0.5649   -4.0773 H   0  0  0  0  0  0  0  0  0  0  0  0
    0.2401   -0.1366    1.0994 C   0  0  0  0  0  0  0  0  0  0  0  0
    1.4462    0.0273    1.2030 O   0  0  0  0  0  0  0  0  0  0  0  0
   -0.6095    0.6517    1.8567 N   0  0  0  0  0  0  0  0  0  0  0  0
   -1.5646    0.3092    1.9004 H   0  0  0  0  0  0  0  0  0  0  0  0
   -0.1179    1.3964    3.0145 C   0  0  0  0  0  0  0  0  0  0  0  0
    0.6534    2.1140    2.7137 H   0  0  0  0  0  0  0  0  0  0  0  0
   -0.9343    1.9507    3.4877 H   0  0  0  0  0  0  0  0  0  0  0  0
    0.3120    0.7131    3.7554 H   0  0  0  0  0  0  0  0  0  0  0  0
  1  2  1  0  0  0  0
  2  3  1  0  0  0  0
  2  4  1  0  0  0  0
  2  5  1  0  0  0  0
  5  6  2  0  0  0  0
  5  7  1  0  0  0  0
  7  8  1  0  0  0  0
  7  9  1  0  0  0  0
  9 10  1  0  0  0  0
  9 11  1  0  0  0  0
  9 23  1  0  0  0  0
 11 12  1  0  0  0  0
 11 13  1  0  0  0  0
 11 14  1  0  0  0  0
 14 15  1  0  0  0  0
 14 21  2  0  0  0  0
 15 16  1  0  0  0  0
 15 17  2  0  0  0  0
 17 18  1  0  0  0  0
 17 19  1  0  0  0  0
 19 20  1  0  0  0  0
 19 21  1  0  0  0  0
 21 22  1  0  0  0  0
 23 24  2  0  0  0  0
 23 25  1  0  0  0  0
 25 26  1  0  0  0  0
 25 27  1  0  0  0  0
 27 28  1  0  0  0  0
 27 29  1  0  0  0  0
 27 30  1  0  0  0  0
M  CHG  1  15   1
M  END
$$$$

  -OEChem-04042216003D

 30 30  0     1  0  0  0  0  0999 V2000
   -3.1552   -4.0501    1.4936 H   0  0  0  0  0  0  0  0  0  0  0  0
   -3.1469   -3.2597    0.7366 C   0  0  0  0  0  0  0  0  0  0  0  0
   -3.9965   -2.5967    0.9147 H   0  0  0  0  0  0  0  0  0  0  0  0
   -3.2487   -3.7209   -0.2485 H   0  0  0  0  0  0  0  0  0  0  0  0
   -1.8486   -2.4797    0.8177 C   0  0  0  0  0  0  0  0  0  0  0  0
   -1.0275   -2.7547    1.6708 O   0  0  0  0  0  0  0  0  0  0  0  0
   -1.5984   -1.4453   -0.0680 N   0  0  0  0  0  0  0  0  0  0  0  0
   -2.2568   -1.3530   -0.8346 H   0  0  0  0  0  0  0  0  0  0  0  0
   -0.2732   -0.7936   -0.1987 C   0  0  1  0  0  0  0  0  0  0  0  0
    0.4494   -1.5911   -0.4132 H   0  0  0  0  0  0  0  0  0  0  0  0
   -0.1818    0.2343   -1.3569 C   0  0  0  0  0  0  0  0  0  0  0  0
    0.1284    1.2139   -0.9734 H   0  0  0  0  0  0  0  0  0  0  0  0
    0.6208   -0.0933   -2.0269 H   0  0  0  0  0  0  0  0  0  0  0  0
   -1.4474    0.4084   -2.1616 C   0  0  0  0  0  0  0  0  0  0  0  0
   -2.4636    1.3257   -1.8895 N   0  3  0  0  0  0  0  0  0  0  0  0
   -2.4317    1.9718   -1.0945 H   0  0  0  0  0  0  0  0  0  0  0  0
   -3.3750    1.2844   -2.8318 C   0  0  0  0  0  0  0  0  0  0  0  0
   -4.2681    1.9101   -2.8981 H   0  0  0  0  0  0  0  0  0  0  0  0
   -2.9787    0.3108   -3.7478 N   0  0  0  0  0  0  0  0  0  0  0  0
   -3.4701    0.0721   -4.6160 H   0  0  0  0  0  0  0  0  0  0  0  0
   -1.7640   -0.2268   -3.3362 C   0  0  0  0  0  0  0  0  0  0  0  0
   -1.1623   -0.9783   -3.8506 H   0  0  0  0  0  0  0  0  0  0  0  0
    0.2444   -0.1292    1.0952 C   0  0  0  0  0  0  0  0  0  0  0  0
    1.4489    0.0425    1.2030 O   0  0  0  0  0  0  0  0  0  0  0  0
   -0.6115    0.6451    1.8596 N   0  0  0  0  0  0  0  0  0  0  0  0
   -1.5728    0.3181    1.8756 H   0  0  0  0  0  0  0  0  0  0  0  0
   -0.1330    1.3711    3.0345 C   0  0  0  0  0  0  0  0  0  0  0  0
    0.6373    2.0978    2.7533 H   0  0  0  0  0  0  0  0  0  0  0  0
   -0.9559    1.9126    3.5111 H   0  0  0  0  0  0  0  0  0  0  0  0
    0.2948    0.6763    3.7660 H   0  0  0  0  0  0  0  0  0  0  0  0
  1  2  1  0  0  0  0
  2  3  1  0  0  0  0
  2  4  1  0  0  0  0
  2  5  1  0  0  0  0
  5  6  2  0  0  0  0
  5  7  1  0  0  0  0
  7  8  1  0  0  0  0
  7  9  1  0  0  0  0
  9 10  1  0  0  0  0
  9 11  1  0  0  0  0
  9 23  1  0  0  0  0
 11 12  1  0  0  0  0
 11 13  1  0  0  0  0
 11 14  1  0  0  0  0
 14 15  1  0  0  0  0
 14 21  2  0  0  0  0
 15 16  1  0  0  0  0
 15 17  2  0  0  0  0
 17 18  1  0  0  0  0
 17 19  1  0  0  0  0
 19 20  1  0  0  0  0
 19 21  1  0  0  0  0
 21 22  1  0  0  0  0
 23 24  2  0  0  0  0
 23 25  1  0  0  0  0
 25 26  1  0  0  0  0
 25 27  1  0  0  0  0
 27 28  1  0  0  0  0
 27 29  1  0  0  0  0
 27 30  1  0  0  0  0
M  CHG  1  15   1
M  END
$$$$

  -OEChem-04042216003D

 30 30  0     1  0  0  0  0  0999 V2000
   -3.1419   -4.0261    1.5405 H   0  0  0  0  0  0  0  0  0  0  0  0
   -3.1573   -3.2115    0.8099 C   0  0  0  0  0  0  0  0  0  0  0  0
   -3.9460   -2.5086    1.0874 H   0  0  0  0  0  0  0  0  0  0  0  0
   -3.3767   -3.6311   -0.1745 H   0  0  0  0  0  0  0  0  0  0  0  0
   -1.8134   -2.5085    0.7914 C   0  0  0  0  0  0  0  0  0  0  0  0
   -0.9296   -2.8663    1.5456 O   0  0  0  0  0  0  0  0  0  0  0  0
   -1.5854   -1.4524   -0.0739 N   0  0  0  0  0  0  0  0  0  0  0  0
   -2.3321   -1.2188   -0.7198 H   0  0  0  0  0  0  0  0  0  0  0  0
   -0.2754   -0.7732   -0.2070 C   0  0  1  0  0  0  0  0  0  0  0  0
    0.4558   -1.5596   -0.4337 H   0  0  0  0  0  0  0  0  0  0  0  0
   -0.1980    0.2582   -1.3619 C   0  0  0  0  0  0  0  0  0  0  0  0
    0.0953    1.2395   -0.9702 H   0  0  0  0  0  0  0  0  0  0  0  0
    0.6130   -0.0530   -2.0301 H   0  0  0  0  0  0  0  0  0  0  0  0
   -1.4607    0.4162   -2.1753 C   0  0  0  0  0  0  0  0  0  0  0  0
   -2.3529    1.4873   -2.1034 N   0  3  0  0  0  0  0  0  0  0  0  0
   -2.2308    2.2719   -1.4556 H   0  0  0  0  0  0  0  0  0  0  0  0
   -3.2823    1.3656   -3.0209 C   0  0  0  0  0  0  0  0  0  0  0  0
   -4.0962    2.0679   -3.2164 H   0  0  0  0  0  0  0  0  0  0  0  0
   -3.0231    0.1863   -3.7180 N   0  0  0  0  0  0  0  0  0  0  0  0
   -3.5537   -0.1591   -4.5248 H   0  0  0  0  0  0  0  0  0  0  0  0
   -1.8724   -0.3983   -3.2007 C   0  0  0  0  0  0  0  0  0  0  0  0
   -1.3686   -1.3003   -3.5530 H   0  0  0  0  0  0  0  0  0  0  0  0
    0.2450   -0.1230    1.0928 C   0  0  0  0  0  0  0  0  0  0  0  0
    1.4482    0.0593    1.1966 O   0  0  0  0  0  0  0  0  0  0  0  0
   -0.6125    0.6216    1.8842 N   0  0  0  0  0  0  0  0  0  0  0  0
   -1.5788    0.3103    1.8799 H   0  0  0  0  0  0  0  0  0  0  0  0
   -0.1366    1.3261    3.0732 C   0  0  0  0  0  0  0  0  0  0  0  0
    0.6300    2.0621    2.8066 H   0  0  0  0  0  0  0  0  0  0  0  0
   -0.9621    1.8541    3.5605 H   0  0  0  0  0  0  0  0  0  0  0  0
    0.2948    0.6192    3.7908 H   0  0  0  0  0  0  0  0  0  0  0  0
  1  2  1  0  0  0  0
  2  3  1  0  0  0  0
  2  4  1  0  0  0  0
  2  5  1  0  0  0  0
  5  6  2  0  0  0  0
  5  7  1  0  0  0  0
  7  8  1  0  0  0  0
  7  9  1  0  0  0  0
  9 10  1  0  0  0  0
  9 11  1  0  0  0  0
  9 23  1  0  0  0  0
 11 12  1  0  0  0  0
 11 13  1  0  0  0  0
 11 14  1  0  0  0  0
 14 15  1  0  0  0  0
 14 21  2  0  0  0  0
 15 16  1  0  0  0  0
 15 17  2  0  0  0  0
 17 18  1  0  0  0  0
 17 19  1  0  0  0  0
 19 20  1  0  0  0  0
 19 21  1  0  0  0  0
 21 22  1  0  0  0  0
 23 24  2  0  0  0  0
 23 25  1  0  0  0  0
 25 26  1  0  0  0  0
 25 27  1  0  0  0  0
 27 28  1  0  0  0  0
 27 29  1  0  0  0  0
 27 30  1  0  0  0  0
M  CHG  1  15   1
M  END
$$$$

  -OEChem-04042216003D

 30 30  0     1  0  0  0  0  0999 V2000
   -3.1105   -3.9814    1.6275 H   0  0  0  0  0  0  0  0  0  0  0  0
   -3.1507   -3.1585    0.9071 C   0  0  0  0  0  0  0  0  0  0  0  0
   -3.8585   -2.4107    1.2719 H   0  0  0  0  0  0  0  0  0  0  0  0
   -3.5009   -3.5510   -0.0503 H   0  0  0  0  0  0  0  0  0  0  0  0
   -1.7734   -2.5440    0.7473 C   0  0  0  0  0  0  0  0  0  0  0  0
   -0.8291   -2.9987    1.3630 O   0  0  0  0  0  0  0  0  0  0  0  0
   -1.5785   -1.4635   -0.0956 N   0  0  0  0  0  0  0  0  0  0  0  0
   -2.4049   -1.0626   -0.5271 H   0  0  0  0  0  0  0  0  0  0  0  0
   -0.2832   -0.7559   -0.2213 C   0  0  1  0  0  0  0  0  0  0  0  0
    0.4588   -1.5287   -0.4609 H   0  0  0  0  0  0  0  0  0  0  0  0
   -0.2142    0.2839   -1.3701 C   0  0  0  0  0  0  0  0  0  0  0  0
    0.0542    1.2645   -0.9601 H   0  0  0  0  0  0  0  0  0  0  0  0
    0.6114   -0.0019   -2.0316 H   0  0  0  0  0  0  0  0  0  0  0  0
   -1.4663    0.4344   -2.2034 C   0  0  0  0  0  0  0  0  0  0  0  0
   -2.2147    1.6028   -2.3604 N   0  3  0  0  0  0  0  0  0  0  0  0
   -1.9867    2.4802   -1.8826 H   0  0  0  0  0  0  0  0  0  0  0  0
   -3.1703    1.4161   -3.2395 C   0  0  0  0  0  0  0  0  0  0  0  0
   -3.8946    2.1608   -3.5774 H   0  0  0  0  0  0  0  0  0  0  0  0
   -3.0742    0.0976   -3.6811 N   0  0  0  0  0  0  0  0  0  0  0  0
   -3.6589   -0.3342   -4.4046 H   0  0  0  0  0  0  0  0  0  0  0  0
   -1.9968   -0.5106   -3.0471 C   0  0  0  0  0  0  0  0  0  0  0  0
   -1.6149   -1.5210   -3.2044 H   0  0  0  0  0  0  0  0  0  0  0  0
    0.2356   -0.1256    1.0886 C   0  0  0  0  0  0  0  0  0  0  0  0
    1.4372    0.0638    1.1962 O   0  0  0  0  0  0  0  0  0  0  0  0
   -0.6259    0.5854    1.9063 N   0  0  0  0  0  0  0  0  0  0  0  0
   -1.5984    0.2972    1.8776 H   0  0  0  0  0  0  0  0  0  0  0  0
   -0.1555    1.2717    3.1081 C   0  0  0  0  0  0  0  0  0  0  0  0
    0.5894    2.0334    2.8523 H   0  0  0  0  0  0  0  0  0  0  0  0
   -0.9890    1.7662    3.6167 H   0  0  0  0  0  0  0  0  0  0  0  0
    0.3006    0.5583    3.8036 H   0  0  0  0  0  0  0  0  0  0  0  0
  1  2  1  0  0  0  0
  2  3  1  0  0  0  0
  2  4  1  0  0  0  0
  2  5  1  0  0  0  0
  5  6  2  0  0  0  0
  5  7  1  0  0  0  0
  7  8  1  0  0  0  0
  7  9  1  0  0  0  0
  9 10  1  0  0  0  0
  9 11  1  0  0  0  0
  9 23  1  0  0  0  0
 11 12  1  0  0  0  0
 11 13  1  0  0  0  0
 11 14  1  0  0  0  0
 14 15  1  0  0  0  0
 14 21  2  0  0  0  0
 15 16  1  0  0  0  0
 15 17  2  0  0  0  0
 17 18  1  0  0  0  0
 17 19  1  0  0  0  0
 19 20  1  0  0  0  0
 19 21  1  0  0  0  0
 21 22  1  0  0  0  0
 23 24  2  0  0  0  0
 23 25  1  0  0  0  0
 25 26  1  0  0  0  0
 25 27  1  0  0  0  0
 27 28  1  0  0  0  0
 27 29  1  0  0  0  0
 27 30  1  0  0  0  0
M  CHG  1  15   1
M  END
$$$$

  -OEChem-04042216003D

 30 30  0     1  0  0  0  0  0999 V2000
   -3.0475   -3.9748    1.7275 H   0  0  0  0  0  0  0  0  0  0  0  0
   -3.1217   -3.1512    1.0108 C   0  0  0  0  0  0  0  0  0  0  0  0
   -3.7790   -2.3849    1.4280 H   0  0  0  0  0  0  0  0  0  0  0  0
   -3.5553   -3.5338    0.0840 H   0  0  0  0  0  0  0  0  0  0  0  0
   -1.7453   -2.5736    0.7433 C   0  0  0  0  0  0  0  0  0  0  0  0
   -0.7652   -3.0683    1.2654 O   0  0  0  0  0  0  0  0  0  0  0  0
   -1.5932   -1.4793   -0.0910 N   0  0  0  0  0  0  0  0  0  0  0  0
   -2.4480   -1.0185   -0.3872 H   0  0  0  0  0  0  0  0  0  0  0  0
   -0.3117   -0.7487   -0.2245 C   0  0  1  0  0  0  0  0  0  0  0  0
    0.4365   -1.5122   -0.4749 H   0  0  0  0  0  0  0  0  0  0  0  0
   -0.2503    0.2927   -1.3742 C   0  0  0  0  0  0  0  0  0  0  0  0
   -0.0063    1.2723   -0.9474 H   0  0  0  0  0  0  0  0  0  0  0  0
    0.5909    0.0294   -2.0255 H   0  0  0  0  0  0  0  0  0  0  0  0
   -1.4878    0.4485   -2.2312 C   0  0  0  0  0  0  0  0  0  0  0  0
   -2.0536    1.6636   -2.6247 N   0  3  0  0  0  0  0  0  0  0  0  0
   -1.6972    2.5718   -2.3115 H   0  0  0  0  0  0  0  0  0  0  0  0
   -3.0363    1.4588   -3.4689 C   0  0  0  0  0  0  0  0  0  0  0  0
   -3.6472    2.2253   -3.9514 H   0  0  0  0  0  0  0  0  0  0  0  0
   -3.1402    0.0819   -3.6553 N   0  0  0  0  0  0  0  0  0  0  0  0
   -3.7861   -0.3862   -4.2995 H   0  0  0  0  0  0  0  0  0  0  0  0
   -2.1583   -0.5476   -2.8994 C   0  0  0  0  0  0  0  0  0  0  0  0
   -1.9226   -1.6132   -2.8690 H   0  0  0  0  0  0  0  0  0  0  0  0
    0.2161   -0.1268    1.0860 C   0  0  0  0  0  0  0  0  0  0  0  0
    1.4167    0.0744    1.1812 O   0  0  0  0  0  0  0  0  0  0  0  0
   -0.6410    0.5603    1.9285 N   0  0  0  0  0  0  0  0  0  0  0  0
   -1.6165    0.2838    1.8980 H   0  0  0  0  0  0  0  0  0  0  0  0
   -0.1620    1.2435    3.1284 C   0  0  0  0  0  0  0  0  0  0  0  0
    0.5596    2.0249    2.8658 H   0  0  0  0  0  0  0  0  0  0  0  0
   -0.9960    1.7128    3.6596 H   0  0  0  0  0  0  0  0  0  0  0  0
    0.3252    0.5333    3.8059 H   0  0  0  0  0  0  0  0  0  0  0  0
  1  2  1  0  0  0  0
  2  3  1  0  0  0  0
  2  4  1  0  0  0  0
  2  5  1  0  0  0  0
  5  6  2  0  0  0  0
  5  7  1  0  0  0  0
  7  8  1  0  0  0  0
  7  9  1  0  0  0  0
  9 10  1  0  0  0  0
  9 11  1  0  0  0  0
  9 23  1  0  0  0  0
 11 12  1  0  0  0  0
 11 13  1  0  0  0  0
 11 14  1  0  0  0  0
 14 15  1  0  0  0  0
 14 21  2  0  0  0  0
 15 16  1  0  0  0  0
 15 17  2  0  0  0  0
 17 18  1  0  0  0  0
 17 19  1  0  0  0  0
 19 20  1  0  0  0  0
 19 21  1  0  0  0  0
 21 22  1  0  0  0  0
 23 24  2  0  0  0  0
 23 25  1  0  0  0  0
 25 26  1  0  0  0  0
 25 27  1  0  0  0  0
 27 28  1  0  0  0  0
 27 29  1  0  0  0  0
 27 30  1  0  0  0  0
M  CHG  1  15   1
M  END
$$$$

  -OEChem-04042216003D

 30 30  0     1  0  0  0  0  0999 V2000
   -2.9593   -3.9984    1.8297 H   0  0  0  0  0  0  0  0  0  0  0  0
   -3.0757   -3.1757    1.1175 C   0  0  0  0  0  0  0  0  0  0  0  0
   -3.7040   -2.4072    1.5732 H   0  0  0  0  0  0  0  0  0  0  0  0
   -3.5671   -3.5586    0.2202 H   0  0  0  0  0  0  0  0  0  0  0  0
   -1.7165   -2.6026    0.7647 C   0  0  0  0  0  0  0  0  0  0  0  0
   -0.7077   -3.1086    1.2164 O   0  0  0  0  0  0  0  0  0  0  0  0
   -1.6139   -1.4996   -0.0665 N   0  0  0  0  0  0  0  0  0  0  0  0
   -2.4853   -1.0173   -0.2641 H   0  0  0  0  0  0  0  0  0  0  0  0
   -0.3493   -0.7445   -0.2218 C   0  0  1  0  0  0  0  0  0  0  0  0
    0.4040   -1.4993   -0.4841 H   0  0  0  0  0  0  0  0  0  0  0  0
   -0.3011    0.2942   -1.3774 C   0  0  0  0  0  0  0  0  0  0  0  0
   -0.0777    1.2739   -0.9394 H   0  0  0  0  0  0  0  0  0  0  0  0
    0.5533    0.0469   -2.0178 H   0  0  0  0  0  0  0  0  0  0  0  0
   -1.5229    0.4620   -2.2594 C   0  0  0  0  0  0  0  0  0  0  0  0
   -1.8789    1.6605   -2.8841 N   0  3  0  0  0  0  0  0  0  0  0  0
   -1.3767    2.5397   -2.7272 H   0  0  0  0  0  0  0  0  0  0  0  0
   -2.8905    1.4767   -3.6976 C   0  0  0  0  0  0  0  0  0  0  0  0
   -3.3697    2.2367   -4.3188 H   0  0  0  0  0  0  0  0  0  0  0  0
   -3.2244    0.1264   -3.6395 N   0  0  0  0  0  0  0  0  0  0  0  0
   -3.9435   -0.3353   -4.2062 H   0  0  0  0  0  0  0  0  0  0  0  0
   -2.3524   -0.5120   -2.7652 C   0  0  0  0  0  0  0  0  0  0  0  0
   -2.2871   -1.5826   -2.5652 H   0  0  0  0  0  0  0  0  0  0  0  0
    0.1965   -0.1229    1.0819 C   0  0  0  0  0  0  0  0  0  0  0  0
    1.3962    0.0926    1.1553 O   0  0  0  0  0  0  0  0  0  0  0  0
   -0.6518    0.5428    1.9502 N   0  0  0  0  0  0  0  0  0  0  0  0
   -1.6286    0.2710    1.9270 H   0  0  0  0  0  0  0  0  0  0  0  0
   -0.1597    1.2311    3.1416 C   0  0  0  0  0  0  0  0  0  0  0  0
    0.5475    2.0214    2.8666 H   0  0  0  0  0  0  0  0  0  0  0  0
   -0.9894    1.6901    3.6882 H   0  0  0  0  0  0  0  0  0  0  0  0
    0.3479    0.5266    3.8099 H   0  0  0  0  0  0  0  0  0  0  0  0
  1  2  1  0  0  0  0
  2  3  1  0  0  0  0
  2  4  1  0  0  0  0
  2  5  1  0  0  0  0
  5  6  2  0  0  0  0
  5  7  1  0  0  0  0
  7  8  1  0  0  0  0
  7  9  1  0  0  0  0
  9 10  1  0  0  0  0
  9 11  1  0  0  0  0
  9 23  1  0  0  0  0
 11 12  1  0  0  0  0
 11 13  1  0  0  0  0
 11 14  1  0  0  0  0
 14 15  1  0  0  0  0
 14 21  2  0  0  0  0
 15 16  1  0  0  0  0
 15 17  2  0  0  0  0
 17 18  1  0  0  0  0
 17 19  1  0  0  0  0
 19 20  1  0  0  0  0
 19 21  1  0  0  0  0
 21 22  1  0  0  0  0
 23 24  2  0  0  0  0
 23 25  1  0  0  0  0
 25 26  1  0  0  0  0
 25 27  1  0  0  0  0
 27 28  1  0  0  0  0
 27 29  1  0  0  0  0
 27 30  1  0  0  0  0
M  CHG  1  15   1
M  END
$$$$

  -OEChem-04042216003D

 30 30  0     1  0  0  0  0  0999 V2000
   -2.8594   -4.0302    1.9257 H   0  0  0  0  0  0  0  0  0  0  0  0
   -3.0188   -3.2110    1.2175 C   0  0  0  0  0  0  0  0  0  0  0  0
   -3.6291   -2.4458    1.7027 H   0  0  0  0  0  0  0  0  0  0  0  0
   -3.5528   -3.6014    0.3481 H   0  0  0  0  0  0  0  0  0  0  0  0
   -1.6843   -2.6291    0.7923 C   0  0  0  0  0  0  0  0  0  0  0  0
   -0.6502   -3.1328    1.1857 O   0  0  0  0  0  0  0  0  0  0  0  0
   -1.6352   -1.5195   -0.0362 N   0  0  0  0  0  0  0  0  0  0  0  0
   -2.5170   -1.0282   -0.1437 H   0  0  0  0  0  0  0  0  0  0  0  0
   -0.3907   -0.7395   -0.2201 C   0  0  1  0  0  0  0  0  0  0  0  0
    0.3665   -1.4862   -0.4952 H   0  0  0  0  0  0  0  0  0  0  0  0
   -0.3600    0.2926   -1.3838 C   0  0  0  0  0  0  0  0  0  0  0  0
   -0.1514    1.2745   -0.9427 H   0  0  0  0  0  0  0  0  0  0  0  0
    0.5038    0.0534   -2.0146 H   0  0  0  0  0  0  0  0  0  0  0  0
   -1.5659    0.4731   -2.2898 C   0  0  0  0  0  0  0  0  0  0  0  0
   -1.7035    1.5811   -3.1320 N   0  3  0  0  0  0  0  0  0  0  0  0
   -1.0468    2.3675   -3.1248 H   0  0  0  0  0  0  0  0  0  0  0  0
   -2.7485    1.4510   -3.9121 C   0  0  0  0  0  0  0  0  0  0  0  0
   -3.0897    2.1655   -4.6649 H   0  0  0  0  0  0  0  0  0  0  0  0
   -3.3274    0.2213   -3.6167 N   0  0  0  0  0  0  0  0  0  0  0  0
   -4.1322   -0.1896   -4.1010 H   0  0  0  0  0  0  0  0  0  0  0  0
   -2.5724   -0.4032   -2.6303 C   0  0  0  0  0  0  0  0  0  0  0  0
   -2.7065   -1.4195   -2.2621 H   0  0  0  0  0  0  0  0  0  0  0  0
    0.1796   -0.1147    1.0717 C   0  0  0  0  0  0  0  0  0  0  0  0
    1.3775    0.1189    1.1146 O   0  0  0  0  0  0  0  0  0  0  0  0
   -0.6540    0.5305    1.9692 N   0  0  0  0  0  0  0  0  0  0  0  0
   -1.6315    0.2606    1.9626 H   0  0  0  0  0  0  0  0  0  0  0  0
   -0.1401    1.2230    3.1492 C   0  0  0  0  0  0  0  0  0  0  0  0
    0.5317    2.0375    2.8566 H   0  0  0  0  0  0  0  0  0  0  0  0
   -0.9630    1.6503    3.7309 H   0  0  0  0  0  0  0  0  0  0  0  0
    0.4132    0.5286    3.7912 H   0  0  0  0  0  0  0  0  0  0  0  0
  1  2  1  0  0  0  0
  2  3  1  0  0  0  0
  2  4  1  0  0  0  0
  2  5  1  0  0  0  0
  5  6  2  0  0  0  0
  5  7  1  0  0  0  0
  7  8  1  0  0  0  0
  7  9  1  0  0  0  0
  9 10  1  0  0  0  0
  9 11  1  0  0  0  0
  9 23  1  0  0  0  0
 11 12  1  0  0  0  0
 11 13  1  0  0  0  0
 11 14  1  0  0  0  0
 14 15  1  0  0  0  0
 14 21  2  0  0  0  0
 15 16  1  0  0  0  0
 15 17  2  0  0  0  0
 17 18  1  0  0  0  0
 17 19  1  0  0  0  0
 19 20  1  0  0  0  0
 19 21  1  0  0  0  0
 21 22  1  0  0  0  0
 23 24  2  0  0  0  0
 23 25  1  0  0  0  0
 25 26  1  0  0  0  0
 25 27  1  0  0  0  0
 27 28  1  0  0  0  0
 27 29  1  0  0  0  0
 27 30  1  0  0  0  0
M  CHG  1  15   1
M  END
$$$$

  -OEChem-04042216003D

 30 30  0     1  0  0  0  0  0999 V2000
   -2.8124   -4.3126    1.6134 H   0  0  0  0  0  0  0  0  0  0  0  0
   -2.8936   -3.5559    0.8270 C   0  0  0  0  0  0  0  0  0  0  0  0
   -3.8456   -3.0330    0.9432 H   0  0  0  0  0  0  0  0  0  0  0  0
   -2.8743   -4.0595   -0.1424 H   0  0  0  0  0  0  0  0  0  0  0  0
   -1.7406   -2.5757    0.9311 C   0  0  0  0  0  0  0  0  0  0  0  0
   -0.9442   -2.6784    1.8432 O   0  0  0  0  0  0  0  0  0  0  0  0
   -1.6059   -1.5612   -0.0042 N   0  0  0  0  0  0  0  0  0  0  0  0
   -2.1695   -1.7118   -0.8352 H   0  0  0  0  0  0  0  0  0  0  0  0
   -0.3248   -0.8451   -0.2093 C   0  0  1  0  0  0  0  0  0  0  0  0
    0.4399   -1.5990   -0.4356 H   0  0  0  0  0  0  0  0  0  0  0  0
   -0.3206    0.2011   -1.3661 C   0  0  0  0  0  0  0  0  0  0  0  0
    0.2613    1.0788   -1.0574 H   0  0  0  0  0  0  0  0  0  0  0  0
    0.2467   -0.2620   -2.1806 H   0  0  0  0  0  0  0  0  0  0  0  0
   -1.6187    0.7054   -1.9800 C   0  0  0  0  0  0  0  0  0  0  0  0
   -1.6050    1.6407   -3.0204 N   0  3  0  0  0  0  0  0  0  0  0  0
   -0.7390    1.9671   -3.4596 H   0  0  0  0  0  0  0  0  0  0  0  0
   -2.8189    2.0291   -3.3235 C   0  0  0  0  0  0  0  0  0  0  0  0
   -3.0968    2.7479   -4.0977 H   0  0  0  0  0  0  0  0  0  0  0  0
   -3.6842    1.3677   -2.4599 N   0  0  0  0  0  0  0  0  0  0  0  0
   -4.7003    1.4982   -2.4201 H   0  0  0  0  0  0  0  0  0  0  0  0
   -2.9375    0.5685   -1.6019 C   0  0  0  0  0  0  0  0  0  0  0  0
   -3.3281    0.0053   -0.7570 H   0  0  0  0  0  0  0  0  0  0  0  0
    0.1936   -0.1162    1.0537 C   0  0  0  0  0  0  0  0  0  0  0  0
    1.3951    0.0917    1.1380 O   0  0  0  0  0  0  0  0  0  0  0  0
   -0.6720    0.6323    1.8320 N   0  0  0  0  0  0  0  0  0  0  0  0
   -1.6274    0.2905    1.8556 H   0  0  0  0  0  0  0  0  0  0  0  0
   -0.1995    1.3888    2.9892 C   0  0  0  0  0  0  0  0  0  0  0  0
    0.5495    2.1292    2.6876 H   0  0  0  0  0  0  0  0  0  0  0  0
   -1.0311    1.9183    3.4645 H   0  0  0  0  0  0  0  0  0  0  0  0
    0.2520    0.7172    3.7281 H   0  0  0  0  0  0  0  0  0  0  0  0
  1  2  1  0  0  0  0
  2  3  1  0  0  0  0
  2  4  1  0  0  0  0
  2  5  1  0  0  0  0
  5  6  2  0  0  0  0
  5  7  1  0  0  0  0
  7  8  1  0  0  0  0
  7  9  1  0  0  0  0
  9 10  1  0  0  0  0
  9 11  1  0  0  0  0
  9 23  1  0  0  0  0
 11 12  1  0  0  0  0
 11 13  1  0  0  0  0
 11 14  1  0  0  0  0
 14 15  1  0  0  0  0
 14 21  2  0  0  0  0
 15 16  1  0  0  0  0
 15 17  2  0  0  0  0
 17 18  1  0  0  0  0
 17 19  1  0  0  0  0
 19 20  1  0  0  0  0
 19 21  1  0  0  0  0
 21 22  1  0  0  0  0
 23 24  2  0  0  0  0
 23 25  1  0  0  0  0
 25 26  1  0  0  0  0
 25 27  1  0  0  0  0
 27 28  1  0  0  0  0
 27 29  1  0  0  0  0
 27 30  1  0  0  0  0
M  CHG  1  15   1
M  END
$$$$

  -OEChem-04042216003D

 30 30  0     1  0  0  0  0  0999 V2000
   -2.9186   -4.2577    1.5624 H   0  0  0  0  0  0  0  0  0  0  0  0
   -2.9732   -3.4895    0.7851 C   0  0  0  0  0  0  0  0  0  0  0  0
   -3.9039   -2.9317    0.9104 H   0  0  0  0  0  0  0  0  0  0  0  0
   -2.9757   -3.9817   -0.1902 H   0  0  0  0  0  0  0  0  0  0  0  0
   -1.7836   -2.5553    0.8963 C   0  0  0  0  0  0  0  0  0  0  0  0
   -0.9859   -2.6993    1.8017 O   0  0  0  0  0  0  0  0  0  0  0  0
   -1.6163   -1.5302   -0.0211 N   0  0  0  0  0  0  0  0  0  0  0  0
   -2.2006   -1.6240   -0.8469 H   0  0  0  0  0  0  0  0  0  0  0  0
   -0.3194   -0.8349   -0.2036 C   0  0  1  0  0  0  0  0  0  0  0  0
    0.4313   -1.6027   -0.4299 H   0  0  0  0  0  0  0  0  0  0  0  0
   -0.2899    0.2099   -1.3588 C   0  0  0  0  0  0  0  0  0  0  0  0
    0.2937    1.0865   -1.0504 H   0  0  0  0  0  0  0  0  0  0  0  0
    0.2779   -0.2595   -2.1691 H   0  0  0  0  0  0  0  0  0  0  0  0
   -1.5923    0.7056   -1.9634 C   0  0  0  0  0  0  0  0  0  0  0  0
   -1.6468    1.3892   -3.1819 N   0  3  0  0  0  0  0  0  0  0  0  0
   -0.8223    1.5409   -3.7706 H   0  0  0  0  0  0  0  0  0  0  0  0
   -2.8615    1.8179   -3.4237 C   0  0  0  0  0  0  0  0  0  0  0  0
   -3.1878    2.3844   -4.2989 H   0  0  0  0  0  0  0  0  0  0  0  0
   -3.6524    1.4348   -2.3452 N   0  0  0  0  0  0  0  0  0  0  0  0
   -4.6433    1.6670   -2.2211 H   0  0  0  0  0  0  0  0  0  0  0  0
   -2.8564    0.7675   -1.4212 C   0  0  0  0  0  0  0  0  0  0  0  0
   -3.1588    0.4202   -0.4338 H   0  0  0  0  0  0  0  0  0  0  0  0
    0.2080   -0.1308    1.0687 C   0  0  0  0  0  0  0  0  0  0  0  0
    1.4122    0.0599    1.1539 O   0  0  0  0  0  0  0  0  0  0  0  0
   -0.6466    0.6262    1.8510 N   0  0  0  0  0  0  0  0  0  0  0  0
   -1.6003    0.2817    1.8904 H   0  0  0  0  0  0  0  0  0  0  0  0
   -0.1577    1.3761    3.0058 C   0  0  0  0  0  0  0  0  0  0  0  0
    0.5842    2.1208    2.6974 H   0  0  0  0  0  0  0  0  0  0  0  0
   -0.9827    1.8996    3.4986 H   0  0  0  0  0  0  0  0  0  0  0  0
    0.3077    0.7005    3.7321 H   0  0  0  0  0  0  0  0  0  0  0  0
  1  2  1  0  0  0  0
  2  3  1  0  0  0  0
  2  4  1  0  0  0  0
  2  5  1  0  0  0  0
  5  6  2  0  0  0  0
  5  7  1  0  0  0  0
  7  8  1  0  0  0  0
  7  9  1  0  0  0  0
  9 10  1  0  0  0  0
  9 11  1  0  0  0  0
  9 23  1  0  0  0  0
 11 12  1  0  0  0  0
 11 13  1  0  0  0  0
 11 14  1  0  0  0  0
 14 15  1  0  0  0  0
 14 21  2  0  0  0  0
 15 16  1  0  0  0  0
 15 17  2  0  0  0  0
 17 18  1  0  0  0  0
 17 19  1  0  0  0  0
 19 20  1  0  0  0  0
 19 21  1  0  0  0  0
 21 22  1  0  0  0  0
 23 24  2  0  0  0  0
 23 25  1  0  0  0  0
 25 26  1  0  0  0  0
 25 27  1  0  0  0  0
 27 28  1  0  0  0  0
 27 29  1  0  0  0  0
 27 30  1  0  0  0  0
M  CHG  1  15   1
M  END
$$$$

  -OEChem-04042216003D

 30 30  0     1  0  0  0  0  0999 V2000
   -3.0089   -4.2023    1.5027 H   0  0  0  0  0  0  0  0  0  0  0  0
   -3.0374   -3.4216    0.7363 C   0  0  0  0  0  0  0  0  0  0  0  0
   -3.9479   -2.8334    0.8709 H   0  0  0  0  0  0  0  0  0  0  0  0
   -3.0585   -3.8998   -0.2459 H   0  0  0  0  0  0  0  0  0  0  0  0
   -1.8158   -2.5311    0.8588 C   0  0  0  0  0  0  0  0  0  0  0  0
   -1.0213   -2.7145    1.7600 O   0  0  0  0  0  0  0  0  0  0  0  0
   -1.6142   -1.4971   -0.0407 N   0  0  0  0  0  0  0  0  0  0  0  0
   -2.2206   -1.5265   -0.8551 H   0  0  0  0  0  0  0  0  0  0  0  0
   -0.3047   -0.8189   -0.1985 C   0  0  1  0  0  0  0  0  0  0  0  0
    0.4364   -1.5971   -0.4210 H   0  0  0  0  0  0  0  0  0  0  0  0
   -0.2501    0.2226   -1.3530 C   0  0  0  0  0  0  0  0  0  0  0  0
    0.3268    1.1017   -1.0391 H   0  0  0  0  0  0  0  0  0  0  0  0
    0.3263   -0.2444   -2.1582 H   0  0  0  0  0  0  0  0  0  0  0  0
   -1.5594    0.7017   -1.9489 C   0  0  0  0  0  0  0  0  0  0  0  0
   -1.7215    1.1102   -3.2755 N   0  3  0  0  0  0  0  0  0  0  0  0
   -0.9658    1.0725   -3.9661 H   0  0  0  0  0  0  0  0  0  0  0  0
   -2.9308    1.5784   -3.4699 C   0  0  0  0  0  0  0  0  0  0  0  0
   -3.3294    1.9766   -4.4058 H   0  0  0  0  0  0  0  0  0  0  0  0
   -3.6049    1.4943   -2.2545 N   0  0  0  0  0  0  0  0  0  0  0  0
   -4.5582    1.8274   -2.0768 H   0  0  0  0  0  0  0  0  0  0  0  0
   -2.7418    0.9689   -1.2999 C   0  0  0  0  0  0  0  0  0  0  0  0
   -2.9347    0.8392   -0.2347 H   0  0  0  0  0  0  0  0  0  0  0  0
    0.2202   -0.1375    1.0865 C   0  0  0  0  0  0  0  0  0  0  0  0
    1.4247    0.0487    1.1760 O   0  0  0  0  0  0  0  0  0  0  0  0
   -0.6339    0.6230    1.8666 N   0  0  0  0  0  0  0  0  0  0  0  0
   -1.5797    0.2592    1.9253 H   0  0  0  0  0  0  0  0  0  0  0  0
   -0.1401    1.3783    3.0164 C   0  0  0  0  0  0  0  0  0  0  0  0
    0.6082    2.1149    2.7034 H   0  0  0  0  0  0  0  0  0  0  0  0
   -0.9615    1.9127    3.5036 H   0  0  0  0  0  0  0  0  0  0  0  0
    0.3192    0.7051    3.7489 H   0  0  0  0  0  0  0  0  0  0  0  0
  1  2  1  0  0  0  0
  2  3  1  0  0  0  0
  2  4  1  0  0  0  0
  2  5  1  0  0  0  0
  5  6  2  0  0  0  0
  5  7  1  0  0  0  0
  7  8  1  0  0  0  0
  7  9  1  0  0  0  0
  9 10  1  0  0  0  0
  9 11  1  0  0  0  0
  9 23  1  0  0  0  0
 11 12  1  0  0  0  0
 11 13  1  0  0  0  0
 11 14  1  0  0  0  0
 14 15  1  0  0  0  0
 14 21  2  0  0  0  0
 15 16  1  0  0  0  0
 15 17  2  0  0  0  0
 17 18  1  0  0  0  0
 17 19  1  0  0  0  0
 19 20  1  0  0  0  0
 19 21  1  0  0  0  0
 21 22  1  0  0  0  0
 23 24  2  0  0  0  0
 23 25  1  0  0  0  0
 25 26  1  0  0  0  0
 25 27  1  0  0  0  0
 27 28  1  0  0  0  0
 27 29  1  0  0  0  0
 27 30  1  0  0  0  0
M  CHG  1  15   1
M  END
$$$$

  -OEChem-04042216003D

 30 30  0     1  0  0  0  0  0999 V2000
   -3.0747   -4.1461    1.4619 H   0  0  0  0  0  0  0  0  0  0  0  0
   -3.0858   -3.3512    0.7100 C   0  0  0  0  0  0  0  0  0  0  0  0
   -3.9675   -2.7276    0.8740 H   0  0  0  0  0  0  0  0  0  0  0  0
   -3.1471   -3.8097   -0.2797 H   0  0  0  0  0  0  0  0  0  0  0  0
   -1.8255   -2.5151    0.8220 C   0  0  0  0  0  0  0  0  0  0  0  0
   -1.0217   -2.7437    1.7049 O   0  0  0  0  0  0  0  0  0  0  0  0
   -1.5981   -1.4754   -0.0636 N   0  0  0  0  0  0  0  0  0  0  0  0
   -2.2314   -1.4390   -0.8565 H   0  0  0  0  0  0  0  0  0  0  0  0
   -0.2826   -0.8053   -0.2008 C   0  0  1  0  0  0  0  0  0  0  0  0
    0.4553   -1.5879   -0.4185 H   0  0  0  0  0  0  0  0  0  0  0  0
   -0.2120    0.2333   -1.3538 C   0  0  0  0  0  0  0  0  0  0  0  0
    0.3484    1.1190   -1.0291 H   0  0  0  0  0  0  0  0  0  0  0  0
    0.3796   -0.2205   -2.1555 H   0  0  0  0  0  0  0  0  0  0  0  0
   -1.5300    0.6899   -1.9403 C   0  0  0  0  0  0  0  0  0  0  0  0
   -1.8182    0.8172   -3.3013 N   0  3  0  0  0  0  0  0  0  0  0  0
   -1.1496    0.5745   -4.0387 H   0  0  0  0  0  0  0  0  0  0  0  0
   -3.0085    1.3417   -3.4689 C   0  0  0  0  0  0  0  0  0  0  0  0
   -3.4861    1.5739   -4.4236 H   0  0  0  0  0  0  0  0  0  0  0  0
   -3.5421    1.5689   -2.2020 N   0  0  0  0  0  0  0  0  0  0  0  0
   -4.4451    2.0133   -2.0054 H   0  0  0  0  0  0  0  0  0  0  0  0
   -2.6103    1.1786   -1.2471 C   0  0  0  0  0  0  0  0  0  0  0  0
   -2.6865    1.2770   -0.1635 H   0  0  0  0  0  0  0  0  0  0  0  0
    0.2296   -0.1388    1.0961 C   0  0  0  0  0  0  0  0  0  0  0  0
    1.4322    0.0522    1.1969 O   0  0  0  0  0  0  0  0  0  0  0  0
   -0.6334    0.6196    1.8689 N   0  0  0  0  0  0  0  0  0  0  0  0
   -1.5743    0.2431    1.9269 H   0  0  0  0  0  0  0  0  0  0  0  0
   -0.1496    1.3735    3.0240 C   0  0  0  0  0  0  0  0  0  0  0  0
    0.5872    2.1231    2.7149 H   0  0  0  0  0  0  0  0  0  0  0  0
   -0.9782    1.8916    3.5165 H   0  0  0  0  0  0  0  0  0  0  0  0
    0.3208    0.7023    3.7513 H   0  0  0  0  0  0  0  0  0  0  0  0
  1  2  1  0  0  0  0
  2  3  1  0  0  0  0
  2  4  1  0  0  0  0
  2  5  1  0  0  0  0
  5  6  2  0  0  0  0
  5  7  1  0  0  0  0
  7  8  1  0  0  0  0
  7  9  1  0  0  0  0
  9 10  1  0  0  0  0
  9 11  1  0  0  0  0
  9 23  1  0  0  0  0
 11 12  1  0  0  0  0
 11 13  1  0  0  0  0
 11 14  1  0  0  0  0
 14 15  1  0  0  0  0
 14 21  2  0  0  0  0
 15 16  1  0  0  0  0
 15 17  2  0  0  0  0
 17 18  1  0  0  0  0
 17 19  1  0  0  0  0
 19 20  1  0  0  0  0
 19 21  1  0  0  0  0
 21 22  1  0  0  0  0
 23 24  2  0  0  0  0
 23 25  1  0  0  0  0
 25 26  1  0  0  0  0
 25 27  1  0  0  0  0
 27 28  1  0  0  0  0
 27 29  1  0  0  0  0
 27 30  1  0  0  0  0
M  CHG  1  15   1
M  END
$$$$

  -OEChem-04042216003D

 30 30  0     1  0  0  0  0  0999 V2000
   -3.1141   -4.0901    1.4587 H   0  0  0  0  0  0  0  0  0  0  0  0
   -3.1093   -3.2968    0.7047 C   0  0  0  0  0  0  0  0  0  0  0  0
   -3.9684   -2.6447    0.8782 H   0  0  0  0  0  0  0  0  0  0  0  0
   -3.1973   -3.7553   -0.2830 H   0  0  0  0  0  0  0  0  0  0  0  0
   -1.8212   -2.5018    0.7980 C   0  0  0  0  0  0  0  0  0  0  0  0
   -1.0052   -2.7668    1.6592 O   0  0  0  0  0  0  0  0  0  0  0  0
   -1.5760   -1.4642   -0.0850 N   0  0  0  0  0  0  0  0  0  0  0  0
   -2.2358   -1.3723   -0.8506 H   0  0  0  0  0  0  0  0  0  0  0  0
   -0.2568   -0.7990   -0.2112 C   0  0  1  0  0  0  0  0  0  0  0  0
    0.4826   -1.5814   -0.4241 H   0  0  0  0  0  0  0  0  0  0  0  0
   -0.1805    0.2402   -1.3614 C   0  0  0  0  0  0  0  0  0  0  0  0
    0.3679    1.1296   -1.0260 H   0  0  0  0  0  0  0  0  0  0  0  0
    0.4196   -0.1968   -2.1662 H   0  0  0  0  0  0  0  0  0  0  0  0
   -1.5090    0.6794   -1.9321 C   0  0  0  0  0  0  0  0  0  0  0  0
   -1.9375    0.5384   -3.2539 N   0  3  0  0  0  0  0  0  0  0  0  0
   -1.3711    0.0905   -3.9807 H   0  0  0  0  0  0  0  0  0  0  0  0
   -3.1000    1.1236   -3.4185 C   0  0  0  0  0  0  0  0  0  0  0  0
   -3.6640    1.1945   -4.3514 H   0  0  0  0  0  0  0  0  0  0  0  0
   -3.4711    1.6608   -2.1871 N   0  0  0  0  0  0  0  0  0  0  0  0
   -4.3141    2.2162   -2.0072 H   0  0  0  0  0  0  0  0  0  0  0  0
   -2.4679    1.3970   -1.2618 C   0  0  0  0  0  0  0  0  0  0  0  0
   -2.4179    1.7213   -0.2209 H   0  0  0  0  0  0  0  0  0  0  0  0
    0.2384   -0.1343    1.0927 C   0  0  0  0  0  0  0  0  0  0  0  0
    1.4396    0.0502    1.2167 O   0  0  0  0  0  0  0  0  0  0  0  0
   -0.6365    0.6252    1.8511 N   0  0  0  0  0  0  0  0  0  0  0  0
   -1.5846    0.2627    1.8761 H   0  0  0  0  0  0  0  0  0  0  0  0
   -0.1764    1.3627    3.0264 C   0  0  0  0  0  0  0  0  0  0  0  0
    0.5876    2.0973    2.7483 H   0  0  0  0  0  0  0  0  0  0  0  0
   -1.0098    1.8973    3.4929 H   0  0  0  0  0  0  0  0  0  0  0  0
    0.2529    0.6772    3.7658 H   0  0  0  0  0  0  0  0  0  0  0  0
  1  2  1  0  0  0  0
  2  3  1  0  0  0  0
  2  4  1  0  0  0  0
  2  5  1  0  0  0  0
  5  6  2  0  0  0  0
  5  7  1  0  0  0  0
  7  8  1  0  0  0  0
  7  9  1  0  0  0  0
  9 10  1  0  0  0  0
  9 11  1  0  0  0  0
  9 23  1  0  0  0  0
 11 12  1  0  0  0  0
 11 13  1  0  0  0  0
 11 14  1  0  0  0  0
 14 15  1  0  0  0  0
 14 21  2  0  0  0  0
 15 16  1  0  0  0  0
 15 17  2  0  0  0  0
 17 18  1  0  0  0  0
 17 19  1  0  0  0  0
 19 20  1  0  0  0  0
 19 21  1  0  0  0  0
 21 22  1  0  0  0  0
 23 24  2  0  0  0  0
 23 25  1  0  0  0  0
 25 26  1  0  0  0  0
 25 27  1  0  0  0  0
 27 28  1  0  0  0  0
 27 29  1  0  0  0  0
 27 30  1  0  0  0  0
M  CHG  1  15   1
M  END
$$$$

  -OEChem-04042216003D

 30 30  0     1  0  0  0  0  0999 V2000
   -3.1133   -4.0489    1.4846 H   0  0  0  0  0  0  0  0  0  0  0  0
   -3.1213   -3.2364    0.7516 C   0  0  0  0  0  0  0  0  0  0  0  0
   -3.9284   -2.5453    1.0052 H   0  0  0  0  0  0  0  0  0  0  0  0
   -3.3073   -3.6620   -0.2371 H   0  0  0  0  0  0  0  0  0  0  0  0
   -1.7882   -2.5133    0.7673 C   0  0  0  0  0  0  0  0  0  0  0  0
   -0.9260   -2.8462    1.5569 O   0  0  0  0  0  0  0  0  0  0  0  0
   -1.5497   -1.4643   -0.1041 N   0  0  0  0  0  0  0  0  0  0  0  0
   -2.2788   -1.2559   -0.7779 H   0  0  0  0  0  0  0  0  0  0  0  0
   -0.2392   -0.7828   -0.2255 C   0  0  1  0  0  0  0  0  0  0  0  0
    0.5091   -1.5558   -0.4416 H   0  0  0  0  0  0  0  0  0  0  0  0
   -0.1690    0.2609   -1.3695 C   0  0  0  0  0  0  0  0  0  0  0  0
    0.3615    1.1560   -1.0210 H   0  0  0  0  0  0  0  0  0  0  0  0
    0.4435   -0.1553   -2.1763 H   0  0  0  0  0  0  0  0  0  0  0  0
   -1.5038    0.6799   -1.9365 C   0  0  0  0  0  0  0  0  0  0  0  0
   -2.0526    0.2908   -3.1601 N   0  3  0  0  0  0  0  0  0  0  0  0
   -1.5773   -0.3439   -3.8093 H   0  0  0  0  0  0  0  0  0  0  0  0
   -3.1790    0.9289   -3.3731 C   0  0  0  0  0  0  0  0  0  0  0  0
   -3.8115    0.8507   -4.2607 H   0  0  0  0  0  0  0  0  0  0  0  0
   -3.4062    1.7478   -2.2678 N   0  0  0  0  0  0  0  0  0  0  0  0
   -4.1901    2.3999   -2.1586 H   0  0  0  0  0  0  0  0  0  0  0  0
   -2.3493    1.6036   -1.3762 C   0  0  0  0  0  0  0  0  0  0  0  0
   -2.1918    2.1349   -0.4355 H   0  0  0  0  0  0  0  0  0  0  0  0
    0.2440   -0.1259    1.0861 C   0  0  0  0  0  0  0  0  0  0  0  0
    1.4428    0.0638    1.2237 O   0  0  0  0  0  0  0  0  0  0  0  0
   -0.6412    0.6148    1.8511 N   0  0  0  0  0  0  0  0  0  0  0  0
   -1.5979    0.2757    1.8355 H   0  0  0  0  0  0  0  0  0  0  0  0
   -0.1991    1.3183    3.0534 C   0  0  0  0  0  0  0  0  0  0  0  0
    0.5623    2.0662    2.8058 H   0  0  0  0  0  0  0  0  0  0  0  0
   -1.0409    1.8313    3.5284 H   0  0  0  0  0  0  0  0  0  0  0  0
    0.2282    0.6127    3.7748 H   0  0  0  0  0  0  0  0  0  0  0  0
  1  2  1  0  0  0  0
  2  3  1  0  0  0  0
  2  4  1  0  0  0  0
  2  5  1  0  0  0  0
  5  6  2  0  0  0  0
  5  7  1  0  0  0  0
  7  8  1  0  0  0  0
  7  9  1  0  0  0  0
  9 10  1  0  0  0  0
  9 11  1  0  0  0  0
  9 23  1  0  0  0  0
 11 12  1  0  0  0  0
 11 13  1  0  0  0  0
 11 14  1  0  0  0  0
 14 15  1  0  0  0  0
 14 21  2  0  0  0  0
 15 16  1  0  0  0  0
 15 17  2  0  0  0  0
 17 18  1  0  0  0  0
 17 19  1  0  0  0  0
 19 20  1  0  0  0  0
 19 21  1  0  0  0  0
 21 22  1  0  0  0  0
 23 24  2  0  0  0  0
 23 25  1  0  0  0  0
 25 26  1  0  0  0  0
 25 27  1  0  0  0  0
 27 28  1  0  0  0  0
 27 29  1  0  0  0  0
 27 30  1  0  0  0  0
M  CHG  1  15   1
M  END
$$$$

  -OEChem-04042216003D

 30 30  0     1  0  0  0  0  0999 V2000
   -3.0992   -3.9827    1.5573 H   0  0  0  0  0  0  0  0  0  0  0  0
   -3.1253   -3.1629    0.8330 C   0  0  0  0  0  0  0  0  0  0  0  0
   -3.8465   -2.4178    1.1758 H   0  0  0  0  0  0  0  0  0  0  0  0
   -3.4470   -3.5614   -0.1318 H   0  0  0  0  0  0  0  0  0  0  0  0
   -1.7476   -2.5415    0.7072 C   0  0  0  0  0  0  0  0  0  0  0  0
   -0.8208   -2.9812    1.3593 O   0  0  0  0  0  0  0  0  0  0  0  0
   -1.5347   -1.4663   -0.1387 N   0  0  0  0  0  0  0  0  0  0  0  0
   -2.3499   -1.0745   -0.5979 H   0  0  0  0  0  0  0  0  0  0  0  0
   -0.2354   -0.7613   -0.2424 C   0  0  1  0  0  0  0  0  0  0  0  0
    0.5222   -1.5224   -0.4705 H   0  0  0  0  0  0  0  0  0  0  0  0
   -0.1679    0.2933   -1.3746 C   0  0  0  0  0  0  0  0  0  0  0  0
    0.3453    1.1911   -1.0078 H   0  0  0  0  0  0  0  0  0  0  0  0
    0.4599   -0.1030   -2.1796 H   0  0  0  0  0  0  0  0  0  0  0  0
   -1.5026    0.6952   -1.9526 C   0  0  0  0  0  0  0  0  0  0  0  0
   -2.1545    0.0938   -3.0309 N   0  3  0  0  0  0  0  0  0  0  0  0
   -1.7661   -0.7051   -3.5423 H   0  0  0  0  0  0  0  0  0  0  0  0
   -3.2458    0.7591   -3.3266 C   0  0  0  0  0  0  0  0  0  0  0  0
   -3.9382    0.5404   -4.1431 H   0  0  0  0  0  0  0  0  0  0  0  0
   -3.3444    1.8157   -2.4219 N   0  0  0  0  0  0  0  0  0  0  0  0
   -4.0733    2.5372   -2.4229 H   0  0  0  0  0  0  0  0  0  0  0  0
   -2.2448    1.7842   -1.5717 C   0  0  0  0  0  0  0  0  0  0  0  0
   -1.9939    2.4929   -0.7799 H   0  0  0  0  0  0  0  0  0  0  0  0
    0.2412   -0.1304    1.0839 C   0  0  0  0  0  0  0  0  0  0  0  0
    1.4381    0.0621    1.2310 O   0  0  0  0  0  0  0  0  0  0  0  0
   -0.6481    0.5790    1.8736 N   0  0  0  0  0  0  0  0  0  0  0  0
   -1.6133    0.2696    1.8268 H   0  0  0  0  0  0  0  0  0  0  0  0
   -0.2135    1.2548    3.0946 C   0  0  0  0  0  0  0  0  0  0  0  0
    0.5165    2.0384    2.8635 H   0  0  0  0  0  0  0  0  0  0  0  0
   -1.0660    1.7195    3.5997 H   0  0  0  0  0  0  0  0  0  0  0  0
    0.2498    0.5399    3.7838 H   0  0  0  0  0  0  0  0  0  0  0  0
  1  2  1  0  0  0  0
  2  3  1  0  0  0  0
  2  4  1  0  0  0  0
  2  5  1  0  0  0  0
  5  6  2  0  0  0  0
  5  7  1  0  0  0  0
  7  8  1  0  0  0  0
  7  9  1  0  0  0  0
  9 10  1  0  0  0  0
  9 11  1  0  0  0  0
  9 23  1  0  0  0  0
 11 12  1  0  0  0  0
 11 13  1  0  0  0  0
 11 14  1  0  0  0  0
 14 15  1  0  0  0  0
 14 21  2  0  0  0  0
 15 16  1  0  0  0  0
 15 17  2  0  0  0  0
 17 18  1  0  0  0  0
 17 19  1  0  0  0  0
 19 20  1  0  0  0  0
 19 21  1  0  0  0  0
 21 22  1  0  0  0  0
 23 24  2  0  0  0  0
 23 25  1  0  0  0  0
 25 26  1  0  0  0  0
 25 27  1  0  0  0  0
 27 28  1  0  0  0  0
 27 29  1  0  0  0  0
 27 30  1  0  0  0  0
M  CHG  1  15   1
M  END
$$$$

  -OEChem-04042216003D

 30 30  0     1  0  0  0  0  0999 V2000
   -3.0641   -3.9478    1.6100 H   0  0  0  0  0  0  0  0  0  0  0  0
   -3.1147   -3.1145    0.9024 C   0  0  0  0  0  0  0  0  0  0  0  0
   -3.7660   -2.3428    1.3189 H   0  0  0  0  0  0  0  0  0  0  0  0
   -3.5402   -3.4795   -0.0352 H   0  0  0  0  0  0  0  0  0  0  0  0
   -1.7250   -2.5564    0.6626 C   0  0  0  0  0  0  0  0  0  0  0  0
   -0.7631   -3.0671    1.2024 O   0  0  0  0  0  0  0  0  0  0  0  0
   -1.5404   -1.4608   -0.1640 N   0  0  0  0  0  0  0  0  0  0  0  0
   -2.3835   -0.9747   -0.4511 H   0  0  0  0  0  0  0  0  0  0  0  0
   -0.2467   -0.7430   -0.2508 C   0  0  1  0  0  0  0  0  0  0  0  0
    0.5149   -1.4976   -0.4883 H   0  0  0  0  0  0  0  0  0  0  0  0
   -0.1732    0.3189   -1.3757 C   0  0  0  0  0  0  0  0  0  0  0  0
    0.3345    1.2148   -0.9974 H   0  0  0  0  0  0  0  0  0  0  0  0
    0.4634   -0.0729   -2.1764 H   0  0  0  0  0  0  0  0  0  0  0  0
   -1.5003    0.7185   -1.9747 C   0  0  0  0  0  0  0  0  0  0  0  0
   -2.2646   -0.0400   -2.8639 N   0  3  0  0  0  0  0  0  0  0  0  0
   -1.9689   -0.9603   -3.2048 H   0  0  0  0  0  0  0  0  0  0  0  0
   -3.3177    0.6403   -3.2499 C   0  0  0  0  0  0  0  0  0  0  0  0
   -4.0741    0.3145   -3.9680 H   0  0  0  0  0  0  0  0  0  0  0  0
   -3.2786    1.8696   -2.5930 N   0  0  0  0  0  0  0  0  0  0  0  0
   -3.9505    2.6347   -2.7158 H   0  0  0  0  0  0  0  0  0  0  0  0
   -2.1346    1.9229   -1.8045 C   0  0  0  0  0  0  0  0  0  0  0  0
   -1.7867    2.7573   -1.1927 H   0  0  0  0  0  0  0  0  0  0  0  0
    0.2310   -0.1363    1.0863 C   0  0  0  0  0  0  0  0  0  0  0  0
    1.4287    0.0433    1.2413 O   0  0  0  0  0  0  0  0  0  0  0  0
   -0.6551    0.5518    1.8981 N   0  0  0  0  0  0  0  0  0  0  0  0
   -1.6294    0.2798    1.8269 H   0  0  0  0  0  0  0  0  0  0  0  0
   -0.2192    1.2094    3.1284 C   0  0  0  0  0  0  0  0  0  0  0  0
    0.5267    1.9814    2.9094 H   0  0  0  0  0  0  0  0  0  0  0  0
   -1.0674    1.6858    3.6297 H   0  0  0  0  0  0  0  0  0  0  0  0
    0.2253    0.4808    3.8157 H   0  0  0  0  0  0  0  0  0  0  0  0
  1  2  1  0  0  0  0
  2  3  1  0  0  0  0
  2  4  1  0  0  0  0
  2  5  1  0  0  0  0
  5  6  2  0  0  0  0
  5  7  1  0  0  0  0
  7  8  1  0  0  0  0
  7  9  1  0  0  0  0
  9 10  1  0  0  0  0
  9 11  1  0  0  0  0
  9 23  1  0  0  0  0
 11 12  1  0  0  0  0
 11 13  1  0  0  0  0
 11 14  1  0  0  0  0
 14 15  1  0  0  0  0
 14 21  2  0  0  0  0
 15 16  1  0  0  0  0
 15 17  2  0  0  0  0
 17 18  1  0  0  0  0
 17 19  1  0  0  0  0
 19 20  1  0  0  0  0
 19 21  1  0  0  0  0
 21 22  1  0  0  0  0
 23 24  2  0  0  0  0
 23 25  1  0  0  0  0
 25 26  1  0  0  0  0
 25 27  1  0  0  0  0
 27 28  1  0  0  0  0
 27 29  1  0  0  0  0
 27 30  1  0  0  0  0
M  CHG  1  15   1
M  END
$$$$

  -OEChem-04042216003D

 30 30  0     1  0  0  0  0  0999 V2000
   -3.0101   -3.9454    1.6818 H   0  0  0  0  0  0  0  0  0  0  0  0
   -3.0896   -3.1122    0.9767 C   0  0  0  0  0  0  0  0  0  0  0  0
   -3.7043   -2.3311    1.4297 H   0  0  0  0  0  0  0  0  0  0  0  0
   -3.5747   -3.4719    0.0664 H   0  0  0  0  0  0  0  0  0  0  0  0
   -1.7079   -2.5753    0.6549 C   0  0  0  0  0  0  0  0  0  0  0  0
   -0.7232   -3.1160    1.1191 O   0  0  0  0  0  0  0  0  0  0  0  0
   -1.5577   -1.4685   -0.1653 N   0  0  0  0  0  0  0  0  0  0  0  0
   -2.4104   -0.9464   -0.3390 H   0  0  0  0  0  0  0  0  0  0  0  0
   -0.2719   -0.7358   -0.2517 C   0  0  1  0  0  0  0  0  0  0  0  0
    0.4932   -1.4863   -0.4922 H   0  0  0  0  0  0  0  0  0  0  0  0
   -0.1877    0.3258   -1.3787 C   0  0  0  0  0  0  0  0  0  0  0  0
    0.3225    1.2195   -0.9991 H   0  0  0  0  0  0  0  0  0  0  0  0
    0.4567   -0.0766   -2.1681 H   0  0  0  0  0  0  0  0  0  0  0  0
   -1.4958    0.7365   -2.0145 C   0  0  0  0  0  0  0  0  0  0  0  0
   -2.3924   -0.0957   -2.6886 N   0  3  0  0  0  0  0  0  0  0  0  0
   -2.2023   -1.0890   -2.8571 H   0  0  0  0  0  0  0  0  0  0  0  0
   -3.3949    0.6054   -3.1623 C   0  0  0  0  0  0  0  0  0  0  0  0
   -4.2221    0.2290   -3.7685 H   0  0  0  0  0  0  0  0  0  0  0  0
   -3.1938    1.9283   -2.7711 N   0  0  0  0  0  0  0  0  0  0  0  0
   -3.7971    2.7220   -3.0115 H   0  0  0  0  0  0  0  0  0  0  0  0
   -2.0019    2.0112   -2.0604 C   0  0  0  0  0  0  0  0  0  0  0  0
   -1.5420    2.9067   -1.6382 H   0  0  0  0  0  0  0  0  0  0  0  0
    0.2117   -0.1383    1.0876 C   0  0  0  0  0  0  0  0  0  0  0  0
    1.4099    0.0392    1.2397 O   0  0  0  0  0  0  0  0  0  0  0  0
   -0.6700    0.5335    1.9177 N   0  0  0  0  0  0  0  0  0  0  0  0
   -1.6500    0.2868    1.8359 H   0  0  0  0  0  0  0  0  0  0  0  0
   -0.2277    1.1880    3.1476 C   0  0  0  0  0  0  0  0  0  0  0  0
    0.4957    1.9798    2.9239 H   0  0  0  0  0  0  0  0  0  0  0  0
   -1.0778    1.6388    3.6691 H   0  0  0  0  0  0  0  0  0  0  0  0
    0.2458    0.4632    3.8194 H   0  0  0  0  0  0  0  0  0  0  0  0
  1  2  1  0  0  0  0
  2  3  1  0  0  0  0
  2  4  1  0  0  0  0
  2  5  1  0  0  0  0
  5  6  2  0  0  0  0
  5  7  1  0  0  0  0
  7  8  1  0  0  0  0
  7  9  1  0  0  0  0
  9 10  1  0  0  0  0
  9 11  1  0  0  0  0
  9 23  1  0  0  0  0
 11 12  1  0  0  0  0
 11 13  1  0  0  0  0
 11 14  1  0  0  0  0
 14 15  1  0  0  0  0
 14 21  2  0  0  0  0
 15 16  1  0  0  0  0
 15 17  2  0  0  0  0
 17 18  1  0  0  0  0
 17 19  1  0  0  0  0
 19 20  1  0  0  0  0
 19 21  1  0  0  0  0
 21 22  1  0  0  0  0
 23 24  2  0  0  0  0
 23 25  1  0  0  0  0
 25 26  1  0  0  0  0
 25 27  1  0  0  0  0
 27 28  1  0  0  0  0
 27 29  1  0  0  0  0
 27 30  1  0  0  0  0
M  CHG  1  15   1
M  END
$$$$

  -OEChem-04042216003D

 30 30  0     1  0  0  0  0  0999 V2000
   -2.9276   -3.9672    1.7574 H   0  0  0  0  0  0  0  0  0  0  0  0
   -3.0443   -3.1323    1.0594 C   0  0  0  0  0  0  0  0  0  0  0  0
   -3.6336   -2.3525    1.5470 H   0  0  0  0  0  0  0  0  0  0  0  0
   -3.5776   -3.4900    0.1758 H   0  0  0  0  0  0  0  0  0  0  0  0
   -1.6814   -2.5959    0.6653 C   0  0  0  0  0  0  0  0  0  0  0  0
   -0.6750   -3.1437    1.0703 O   0  0  0  0  0  0  0  0  0  0  0  0
   -1.5746   -1.4823   -0.1539 N   0  0  0  0  0  0  0  0  0  0  0  0
   -2.4332   -0.9475   -0.2348 H   0  0  0  0  0  0  0  0  0  0  0  0
   -0.3015   -0.7278   -0.2521 C   0  0  1  0  0  0  0  0  0  0  0  0
    0.4694   -1.4723   -0.4933 H   0  0  0  0  0  0  0  0  0  0  0  0
   -0.2133    0.3267   -1.3883 C   0  0  0  0  0  0  0  0  0  0  0  0
    0.2993    1.2204   -1.0120 H   0  0  0  0  0  0  0  0  0  0  0  0
    0.4393   -0.0890   -2.1643 H   0  0  0  0  0  0  0  0  0  0  0  0
   -1.5014    0.7442   -2.0651 C   0  0  0  0  0  0  0  0  0  0  0  0
   -2.5365   -0.0798   -2.5134 N   0  3  0  0  0  0  0  0  0  0  0  0
   -2.4608   -1.1021   -2.5112 H   0  0  0  0  0  0  0  0  0  0  0  0
   -3.4831    0.6366   -3.0716 C   0  0  0  0  0  0  0  0  0  0  0  0
   -4.3861    0.2586   -3.5565 H   0  0  0  0  0  0  0  0  0  0  0  0
   -3.1073    1.9734   -2.9581 N   0  0  0  0  0  0  0  0  0  0  0  0
   -3.6357    2.7766   -3.3150 H   0  0  0  0  0  0  0  0  0  0  0  0
   -1.8667    2.0397   -2.3349 C   0  0  0  0  0  0  0  0  0  0  0  0
   -1.2853    2.9362   -2.1119 H   0  0  0  0  0  0  0  0  0  0  0  0
    0.1904   -0.1303    1.0850 C   0  0  0  0  0  0  0  0  0  0  0  0
    1.3887    0.0521    1.2292 O   0  0  0  0  0  0  0  0  0  0  0  0
   -0.6870    0.5233    1.9343 N   0  0  0  0  0  0  0  0  0  0  0  0
   -1.6698    0.2904    1.8496 H   0  0  0  0  0  0  0  0  0  0  0  0
   -0.2378    1.1667    3.1676 C   0  0  0  0  0  0  0  0  0  0  0  0
    0.4794    1.9650    2.9477 H   0  0  0  0  0  0  0  0  0  0  0  0
   -1.0860    1.6065    3.7011 H   0  0  0  0  0  0  0  0  0  0  0  0
    0.2452    0.4373    3.8274 H   0  0  0  0  0  0  0  0  0  0  0  0
  1  2  1  0  0  0  0
  2  3  1  0  0  0  0
  2  4  1  0  0  0  0
  2  5  1  0  0  0  0
  5  6  2  0  0  0  0
  5  7  1  0  0  0  0
  7  8  1  0  0  0  0
  7  9  1  0  0  0  0
  9 10  1  0  0  0  0
  9 11  1  0  0  0  0
  9 23  1  0  0  0  0
 11 12  1  0  0  0  0
 11 13  1  0  0  0  0
 11 14  1  0  0  0  0
 14 15  1  0  0  0  0
 14 21  2  0  0  0  0
 15 16  1  0  0  0  0
 15 17  2  0  0  0  0
 17 18  1  0  0  0  0
 17 19  1  0  0  0  0
 19 20  1  0  0  0  0
 19 21  1  0  0  0  0
 21 22  1  0  0  0  0
 23 24  2  0  0  0  0
 23 25  1  0  0  0  0
 25 26  1  0  0  0  0
 25 27  1  0  0  0  0
 27 28  1  0  0  0  0
 27 29  1  0  0  0  0
 27 30  1  0  0  0  0
M  CHG  1  15   1
M  END
$$$$

  -OEChem-04042216003D

 30 30  0     1  0  0  0  0  0999 V2000
   -2.8373   -4.0028    1.8284 H   0  0  0  0  0  0  0  0  0  0  0  0
   -2.9925   -3.1673    1.1386 C   0  0  0  0  0  0  0  0  0  0  0  0
   -3.5591   -2.3904    1.6569 H   0  0  0  0  0  0  0  0  0  0  0  0
   -3.5690   -3.5258    0.2827 H   0  0  0  0  0  0  0  0  0  0  0  0
   -1.6535   -2.6249    0.6761 C   0  0  0  0  0  0  0  0  0  0  0  0
   -0.6266   -3.1753    1.0211 O   0  0  0  0  0  0  0  0  0  0  0  0
   -1.5951   -1.5016   -0.1360 N   0  0  0  0  0  0  0  0  0  0  0  0
   -2.4565   -0.9659   -0.1293 H   0  0  0  0  0  0  0  0  0  0  0  0
   -0.3380   -0.7214   -0.2489 C   0  0  1  0  0  0  0  0  0  0  0  0
    0.4383   -1.4583   -0.4972 H   0  0  0  0  0  0  0  0  0  0  0  0
   -0.2528    0.3255   -1.3946 C   0  0  0  0  0  0  0  0  0  0  0  0
    0.2531    1.2246   -1.0213 H   0  0  0  0  0  0  0  0  0  0  0  0
    0.4106   -0.0976   -2.1574 H   0  0  0  0  0  0  0  0  0  0  0  0
   -1.5233    0.7427   -2.1072 C   0  0  0  0  0  0  0  0  0  0  0  0
   -2.6846    0.0023   -2.3394 N   0  3  0  0  0  0  0  0  0  0  0  0
   -2.7210   -1.0098   -2.1843 H   0  0  0  0  0  0  0  0  0  0  0  0
   -3.5693    0.7244   -2.9852 C   0  0  0  0  0  0  0  0  0  0  0  0
   -4.5385    0.3876   -3.3594 H   0  0  0  0  0  0  0  0  0  0  0  0
   -3.0267    1.9975   -3.1385 N   0  0  0  0  0  0  0  0  0  0  0  0
   -3.4762    2.7883   -3.6120 H   0  0  0  0  0  0  0  0  0  0  0  0
   -1.7487    2.0070   -2.5937 C   0  0  0  0  0  0  0  0  0  0  0  0
   -1.0525    2.8467   -2.5589 H   0  0  0  0  0  0  0  0  0  0  0  0
    0.1722   -0.1254    1.0822 C   0  0  0  0  0  0  0  0  0  0  0  0
    1.3705    0.0720    1.2045 O   0  0  0  0  0  0  0  0  0  0  0  0
   -0.6963    0.5058    1.9572 N   0  0  0  0  0  0  0  0  0  0  0  0
   -1.6801    0.2740    1.8848 H   0  0  0  0  0  0  0  0  0  0  0  0
   -0.2307    1.1574    3.1801 C   0  0  0  0  0  0  0  0  0  0  0  0
    0.4574    1.9763    2.9426 H   0  0  0  0  0  0  0  0  0  0  0  0
   -1.0755    1.5716    3.7391 H   0  0  0  0  0  0  0  0  0  0  0  0
    0.2907    0.4396    3.8232 H   0  0  0  0  0  0  0  0  0  0  0  0
  1  2  1  0  0  0  0
  2  3  1  0  0  0  0
  2  4  1  0  0  0  0
  2  5  1  0  0  0  0
  5  6  2  0  0  0  0
  5  7  1  0  0  0  0
  7  8  1  0  0  0  0
  7  9  1  0  0  0  0
  9 10  1  0  0  0  0
  9 11  1  0  0  0  0
  9 23  1  0  0  0  0
 11 12  1  0  0  0  0
 11 13  1  0  0  0  0
 11 14  1  0  0  0  0
 14 15  1  0  0  0  0
 14 21  2  0  0  0  0
 15 16  1  0  0  0  0
 15 17  2  0  0  0  0
 17 18  1  0  0  0  0
 17 19  1  0  0  0  0
 19 20  1  0  0  0  0
 19 21  1  0  0  0  0
 21 22  1  0  0  0  0
 23 24  2  0  0  0  0
 23 25  1  0  0  0  0
 25 26  1  0  0  0  0
 25 27  1  0  0  0  0
 27 28  1  0  0  0  0
 27 29  1  0  0  0  0
 27 30  1  0  0  0  0
M  CHG  1  15   1
M  END
$$$$

  -OEChem-04042216003D

 30 30  0     1  0  0  0  0  0999 V2000
   -2.8277   -4.2873    1.6319 H   0  0  0  0  0  0  0  0  0  0  0  0
   -2.8822   -3.5723    0.8049 C   0  0  0  0  0  0  0  0  0  0  0  0
   -3.8687   -3.1034    0.8154 H   0  0  0  0  0  0  0  0  0  0  0  0
   -2.7501   -4.1179   -0.1326 H   0  0  0  0  0  0  0  0  0  0  0  0
   -1.7992   -2.5210    0.9587 C   0  0  0  0  0  0  0  0  0  0  0  0
   -1.0889   -2.5379    1.9433 O   0  0  0  0  0  0  0  0  0  0  0  0
   -1.6439   -1.5389   -0.0110 N   0  0  0  0  0  0  0  0  0  0  0  0
   -2.0841   -1.8361   -0.8752 H   0  0  0  0  0  0  0  0  0  0  0  0
   -0.3320   -0.8683   -0.2079 C   0  0  1  0  0  0  0  0  0  0  0  0
    0.4198   -1.6367   -0.4288 H   0  0  0  0  0  0  0  0  0  0  0  0
   -0.3029    0.2018   -1.3443 C   0  0  0  0  0  0  0  0  0  0  0  0
    0.3255    1.0510   -1.0454 H   0  0  0  0  0  0  0  0  0  0  0  0
    0.2231   -0.2690   -2.1820 H   0  0  0  0  0  0  0  0  0  0  0  0
   -1.5995    0.7517   -1.9159 C   0  0  0  0  0  0  0  0  0  0  0  0
   -2.9249    0.3147   -1.8260 N   0  3  0  0  0  0  0  0  0  0  0  0
   -3.2180   -0.4121   -1.1715 H   0  0  0  0  0  0  0  0  0  0  0  0
   -3.7239    1.1152   -2.4910 C   0  0  0  0  0  0  0  0  0  0  0  0
   -4.8126    1.0501   -2.5496 H   0  0  0  0  0  0  0  0  0  0  0  0
   -2.9288    2.0901   -3.0839 N   0  0  0  0  0  0  0  0  0  0  0  0
   -3.2620    2.8643   -3.6675 H   0  0  0  0  0  0  0  0  0  0  0  0
   -1.6088    1.8696   -2.7154 C   0  0  0  0  0  0  0  0  0  0  0  0
   -0.7391    2.4639   -3.0009 H   0  0  0  0  0  0  0  0  0  0  0  0
    0.1864   -0.1235    1.0482 C   0  0  0  0  0  0  0  0  0  0  0  0
    1.3938    0.0251    1.1632 O   0  0  0  0  0  0  0  0  0  0  0  0
   -0.6649    0.6741    1.7928 N   0  0  0  0  0  0  0  0  0  0  0  0
   -1.6337    0.3715    1.8017 H   0  0  0  0  0  0  0  0  0  0  0  0
   -0.1866    1.4287    2.9487 C   0  0  0  0  0  0  0  0  0  0  0  0
    0.6103    2.1212    2.6559 H   0  0  0  0  0  0  0  0  0  0  0  0
   -1.0016    2.0124    3.3877 H   0  0  0  0  0  0  0  0  0  0  0  0
    0.2055    0.7492    3.7137 H   0  0  0  0  0  0  0  0  0  0  0  0
  1  2  1  0  0  0  0
  2  3  1  0  0  0  0
  2  4  1  0  0  0  0
  2  5  1  0  0  0  0
  5  6  2  0  0  0  0
  5  7  1  0  0  0  0
  7  8  1  0  0  0  0
  7  9  1  0  0  0  0
  9 10  1  0  0  0  0
  9 11  1  0  0  0  0
  9 23  1  0  0  0  0
 11 12  1  0  0  0  0
 11 13  1  0  0  0  0
 11 14  1  0  0  0  0
 14 15  1  0  0  0  0
 14 21  2  0  0  0  0
 15 16  1  0  0  0  0
 15 17  2  0  0  0  0
 17 18  1  0  0  0  0
 17 19  1  0  0  0  0
 19 20  1  0  0  0  0
 19 21  1  0  0  0  0
 21 22  1  0  0  0  0
 23 24  2  0  0  0  0
 23 25  1  0  0  0  0
 25 26  1  0  0  0  0
 25 27  1  0  0  0  0
 27 28  1  0  0  0  0
 27 29  1  0  0  0  0
 27 30  1  0  0  0  0
M  CHG  1  15   1
M  END
$$$$

  -OEChem-04042216003D

 30 30  0     1  0  0  0  0  0999 V2000
   -2.8821   -4.2802    1.5585 H   0  0  0  0  0  0  0  0  0  0  0  0
   -2.9401   -3.5319    0.7619 C   0  0  0  0  0  0  0  0  0  0  0  0
   -3.9172   -3.0460    0.8115 H   0  0  0  0  0  0  0  0  0  0  0  0
   -2.8383   -4.0418   -0.1991 H   0  0  0  0  0  0  0  0  0  0  0  0
   -1.8342   -2.5076    0.9341 C   0  0  0  0  0  0  0  0  0  0  0  0
   -1.1270   -2.5502    1.9201 O   0  0  0  0  0  0  0  0  0  0  0  0
   -1.6605   -1.5075   -0.0129 N   0  0  0  0  0  0  0  0  0  0  0  0
   -2.1276   -1.7518   -0.8817 H   0  0  0  0  0  0  0  0  0  0  0  0
   -0.3393   -0.8507   -0.1979 C   0  0  1  0  0  0  0  0  0  0  0  0
    0.3980   -1.6309   -0.4266 H   0  0  0  0  0  0  0  0  0  0  0  0
   -0.2933    0.2153   -1.3372 C   0  0  0  0  0  0  0  0  0  0  0  0
    0.3193    1.0696   -1.0213 H   0  0  0  0  0  0  0  0  0  0  0  0
    0.2518   -0.2459   -2.1680 H   0  0  0  0  0  0  0  0  0  0  0  0
   -1.5875    0.7642   -1.9121 C   0  0  0  0  0  0  0  0  0  0  0  0
   -2.9195    0.4856   -1.5957 N   0  3  0  0  0  0  0  0  0  0  0  0
   -3.1770   -0.0659   -0.7732 H   0  0  0  0  0  0  0  0  0  0  0  0
   -3.7324    1.1963   -2.3402 C   0  0  0  0  0  0  0  0  0  0  0  0
   -4.8219    1.2258   -2.2716 H   0  0  0  0  0  0  0  0  0  0  0  0
   -2.9440    1.9357   -3.2165 N   0  0  0  0  0  0  0  0  0  0  0  0
   -3.2877    2.5959   -3.9219 H   0  0  0  0  0  0  0  0  0  0  0  0
   -1.6079    1.6725   -2.9427 C   0  0  0  0  0  0  0  0  0  0  0  0
   -0.7368    2.1028   -3.4397 H   0  0  0  0  0  0  0  0  0  0  0  0
    0.2003   -0.1356    1.0664 C   0  0  0  0  0  0  0  0  0  0  0  0
    1.4102    0.0054    1.1634 O   0  0  0  0  0  0  0  0  0  0  0  0
   -0.6327    0.6625    1.8314 N   0  0  0  0  0  0  0  0  0  0  0  0
   -1.5965    0.3485    1.8762 H   0  0  0  0  0  0  0  0  0  0  0  0
   -0.1233    1.4166    2.9750 C   0  0  0  0  0  0  0  0  0  0  0  0
    0.6549    2.1202    2.6591 H   0  0  0  0  0  0  0  0  0  0  0  0
   -0.9294    1.9881    3.4454 H   0  0  0  0  0  0  0  0  0  0  0  0
    0.3028    0.7378    3.7221 H   0  0  0  0  0  0  0  0  0  0  0  0
  1  2  1  0  0  0  0
  2  3  1  0  0  0  0
  2  4  1  0  0  0  0
  2  5  1  0  0  0  0
  5  6  2  0  0  0  0
  5  7  1  0  0  0  0
  7  8  1  0  0  0  0
  7  9  1  0  0  0  0
  9 10  1  0  0  0  0
  9 11  1  0  0  0  0
  9 23  1  0  0  0  0
 11 12  1  0  0  0  0
 11 13  1  0  0  0  0
 11 14  1  0  0  0  0
 14 15  1  0  0  0  0
 14 21  2  0  0  0  0
 15 16  1  0  0  0  0
 15 17  2  0  0  0  0
 17 18  1  0  0  0  0
 17 19  1  0  0  0  0
 19 20  1  0  0  0  0
 19 21  1  0  0  0  0
 21 22  1  0  0  0  0
 23 24  2  0  0  0  0
 23 25  1  0  0  0  0
 25 26  1  0  0  0  0
 25 27  1  0  0  0  0
 27 28  1  0  0  0  0
 27 29  1  0  0  0  0
 27 30  1  0  0  0  0
M  CHG  1  15   1
M  END
$$$$

  -OEChem-04042216003D

 30 30  0     1  0  0  0  0  0999 V2000
   -2.9509   -4.2526    1.4946 H   0  0  0  0  0  0  0  0  0  0  0  0
   -2.9988   -3.4813    0.7195 C   0  0  0  0  0  0  0  0  0  0  0  0
   -3.9606   -2.9690    0.7961 H   0  0  0  0  0  0  0  0  0  0  0  0
   -2.9245   -3.9666   -0.2567 H   0  0  0  0  0  0  0  0  0  0  0  0
   -1.8618   -2.4940    0.9026 C   0  0  0  0  0  0  0  0  0  0  0  0
   -1.1461   -2.5763    1.8803 O   0  0  0  0  0  0  0  0  0  0  0  0
   -1.6691   -1.4751   -0.0189 N   0  0  0  0  0  0  0  0  0  0  0  0
   -2.1725   -1.6516   -0.8848 H   0  0  0  0  0  0  0  0  0  0  0  0
   -0.3415   -0.8291   -0.1889 C   0  0  1  0  0  0  0  0  0  0  0  0
    0.3830   -1.6200   -0.4216 H   0  0  0  0  0  0  0  0  0  0  0  0
   -0.2750    0.2291   -1.3328 C   0  0  0  0  0  0  0  0  0  0  0  0
    0.3187    1.0896   -0.9995 H   0  0  0  0  0  0  0  0  0  0  0  0
    0.2936   -0.2231   -2.1527 H   0  0  0  0  0  0  0  0  0  0  0  0
   -1.5676    0.7690   -1.9160 C   0  0  0  0  0  0  0  0  0  0  0  0
   -2.8700    0.6931   -1.4168 N   0  3  0  0  0  0  0  0  0  0  0  0
   -3.0741    0.3135   -0.4878 H   0  0  0  0  0  0  0  0  0  0  0  0
   -3.7103    1.3014   -2.2193 C   0  0  0  0  0  0  0  0  0  0  0  0
   -4.7818    1.4395   -2.0587 H   0  0  0  0  0  0  0  0  0  0  0  0
   -2.9746    1.7631   -3.3074 N   0  0  0  0  0  0  0  0  0  0  0  0
   -3.3487    2.2886   -4.1045 H   0  0  0  0  0  0  0  0  0  0  0  0
   -1.6380    1.4357   -3.1148 C   0  0  0  0  0  0  0  0  0  0  0  0
   -0.8008    1.6688   -3.7749 H   0  0  0  0  0  0  0  0  0  0  0  0
    0.2114   -0.1459    1.0864 C   0  0  0  0  0  0  0  0  0  0  0  0
    1.4218    0.0005    1.1658 O   0  0  0  0  0  0  0  0  0  0  0  0
   -0.6119    0.6460    1.8684 N   0  0  0  0  0  0  0  0  0  0  0  0
   -1.5611    0.2984    1.9579 H   0  0  0  0  0  0  0  0  0  0  0  0
   -0.0788    1.4051    2.9981 C   0  0  0  0  0  0  0  0  0  0  0  0
    0.6785    2.1209    2.6601 H   0  0  0  0  0  0  0  0  0  0  0  0
   -0.8783    1.9635    3.4945 H   0  0  0  0  0  0  0  0  0  0  0  0
    0.3808    0.7318    3.7305 H   0  0  0  0  0  0  0  0  0  0  0  0
  1  2  1  0  0  0  0
  2  3  1  0  0  0  0
  2  4  1  0  0  0  0
  2  5  1  0  0  0  0
  5  6  2  0  0  0  0
  5  7  1  0  0  0  0
  7  8  1  0  0  0  0
  7  9  1  0  0  0  0
  9 10  1  0  0  0  0
  9 11  1  0  0  0  0
  9 23  1  0  0  0  0
 11 12  1  0  0  0  0
 11 13  1  0  0  0  0
 11 14  1  0  0  0  0
 14 15  1  0  0  0  0
 14 21  2  0  0  0  0
 15 16  1  0  0  0  0
 15 17  2  0  0  0  0
 17 18  1  0  0  0  0
 17 19  1  0  0  0  0
 19 20  1  0  0  0  0
 19 21  1  0  0  0  0
 21 22  1  0  0  0  0
 23 24  2  0  0  0  0
 23 25  1  0  0  0  0
 25 26  1  0  0  0  0
 25 27  1  0  0  0  0
 27 28  1  0  0  0  0
 27 29  1  0  0  0  0
 27 30  1  0  0  0  0
M  CHG  1  15   1
M  END
$$$$

  -OEChem-04042216003D

 30 30  0     1  0  0  0  0  0999 V2000
   -3.0427   -4.1982    1.4423 H   0  0  0  0  0  0  0  0  0  0  0  0
   -3.0568   -3.4215    0.6714 C   0  0  0  0  0  0  0  0  0  0  0  0
   -3.9992   -2.8741    0.7449 H   0  0  0  0  0  0  0  0  0  0  0  0
   -2.9946   -3.9035   -0.3072 H   0  0  0  0  0  0  0  0  0  0  0  0
   -1.8853   -2.4780    0.8659 C   0  0  0  0  0  0  0  0  0  0  0  0
   -1.1711   -2.5949    1.8417 O   0  0  0  0  0  0  0  0  0  0  0  0
   -1.6589   -1.4522   -0.0384 N   0  0  0  0  0  0  0  0  0  0  0  0
   -2.1892   -1.5647   -0.8987 H   0  0  0  0  0  0  0  0  0  0  0  0
   -0.3237   -0.8185   -0.1866 C   0  0  1  0  0  0  0  0  0  0  0  0
    0.3937   -1.6175   -0.4141 H   0  0  0  0  0  0  0  0  0  0  0  0
   -0.2383    0.2318   -1.3338 C   0  0  0  0  0  0  0  0  0  0  0  0
    0.3421    1.0985   -0.9926 H   0  0  0  0  0  0  0  0  0  0  0  0
    0.3446   -0.2174   -2.1452 H   0  0  0  0  0  0  0  0  0  0  0  0
   -1.5361    0.7534   -1.9173 C   0  0  0  0  0  0  0  0  0  0  0  0
   -2.7687    0.9070   -1.2789 N   0  3  0  0  0  0  0  0  0  0  0  0
   -2.8926    0.7223   -0.2793 H   0  0  0  0  0  0  0  0  0  0  0  0
   -3.6546    1.4139   -2.1024 C   0  0  0  0  0  0  0  0  0  0  0  0
   -4.6880    1.6777   -1.8662 H   0  0  0  0  0  0  0  0  0  0  0  0
   -3.0235    1.5753   -3.3336 N   0  0  0  0  0  0  0  0  0  0  0  0
   -3.4508    1.9683   -4.1789 H   0  0  0  0  0  0  0  0  0  0  0  0
   -1.7003    1.1665   -3.2164 C   0  0  0  0  0  0  0  0  0  0  0  0
   -0.9328    1.1845   -3.9919 H   0  0  0  0  0  0  0  0  0  0  0  0
    0.2222   -0.1533    1.0995 C   0  0  0  0  0  0  0  0  0  0  0  0
    1.4316    0.0001    1.1807 O   0  0  0  0  0  0  0  0  0  0  0  0
   -0.6066    0.6387    1.8765 N   0  0  0  0  0  0  0  0  0  0  0  0
   -1.5410    0.2594    1.9923 H   0  0  0  0  0  0  0  0  0  0  0  0
   -0.0723    1.4099    2.9981 C   0  0  0  0  0  0  0  0  0  0  0  0
    0.6778    2.1289    2.6507 H   0  0  0  0  0  0  0  0  0  0  0  0
   -0.8725    1.9658    3.4963 H   0  0  0  0  0  0  0  0  0  0  0  0
    0.3969    0.7452    3.7321 H   0  0  0  0  0  0  0  0  0  0  0  0
  1  2  1  0  0  0  0
  2  3  1  0  0  0  0
  2  4  1  0  0  0  0
  2  5  1  0  0  0  0
  5  6  2  0  0  0  0
  5  7  1  0  0  0  0
  7  8  1  0  0  0  0
  7  9  1  0  0  0  0
  9 10  1  0  0  0  0
  9 11  1  0  0  0  0
  9 23  1  0  0  0  0
 11 12  1  0  0  0  0
 11 13  1  0  0  0  0
 11 14  1  0  0  0  0
 14 15  1  0  0  0  0
 14 21  2  0  0  0  0
 15 16  1  0  0  0  0
 15 17  2  0  0  0  0
 17 18  1  0  0  0  0
 17 19  1  0  0  0  0
 19 20  1  0  0  0  0
 19 21  1  0  0  0  0
 21 22  1  0  0  0  0
 23 24  2  0  0  0  0
 23 25  1  0  0  0  0
 25 26  1  0  0  0  0
 25 27  1  0  0  0  0
 27 28  1  0  0  0  0
 27 29  1  0  0  0  0
 27 30  1  0  0  0  0
M  CHG  1  15   1
M  END
$$$$

  -OEChem-04042216003D

 30 30  0     1  0  0  0  0  0999 V2000
   -3.1151   -4.1400    1.4098 H   0  0  0  0  0  0  0  0  0  0  0  0
   -3.1025   -3.3604    0.6419 C   0  0  0  0  0  0  0  0  0  0  0  0
   -4.0194   -2.7729    0.7257 H   0  0  0  0  0  0  0  0  0  0  0  0
   -3.0701   -3.8405   -0.3390 H   0  0  0  0  0  0  0  0  0  0  0  0
   -1.8894   -2.4696    0.8283 C   0  0  0  0  0  0  0  0  0  0  0  0
   -1.1635   -2.6282    1.7898 O   0  0  0  0  0  0  0  0  0  0  0  0
   -1.6323   -1.4446   -0.0672 N   0  0  0  0  0  0  0  0  0  0  0  0
   -2.1891   -1.4972   -0.9159 H   0  0  0  0  0  0  0  0  0  0  0  0
   -0.2926   -0.8181   -0.1961 C   0  0  1  0  0  0  0  0  0  0  0  0
    0.4254   -1.6194   -0.4127 H   0  0  0  0  0  0  0  0  0  0  0  0
   -0.1915    0.2286   -1.3418 C   0  0  0  0  0  0  0  0  0  0  0  0
    0.3839    1.0979   -0.9998 H   0  0  0  0  0  0  0  0  0  0  0  0
    0.3951   -0.2202   -2.1506 H   0  0  0  0  0  0  0  0  0  0  0  0
   -1.4979    0.7292   -1.9165 C   0  0  0  0  0  0  0  0  0  0  0  0
   -2.6231    1.1275   -1.1927 N   0  3  0  0  0  0  0  0  0  0  0  0
   -2.6321    1.1624   -0.1689 H   0  0  0  0  0  0  0  0  0  0  0  0
   -3.5662    1.5411   -2.0047 C   0  0  0  0  0  0  0  0  0  0  0  0
   -4.5390    1.9472   -1.7183 H   0  0  0  0  0  0  0  0  0  0  0  0
   -3.0855    1.3883   -3.3038 N   0  0  0  0  0  0  0  0  0  0  0  0
   -3.5853    1.6474   -4.1609 H   0  0  0  0  0  0  0  0  0  0  0  0
   -1.7901    0.8862   -3.2485 C   0  0  0  0  0  0  0  0  0  0  0  0
   -1.1253    0.6773   -4.0883 H   0  0  0  0  0  0  0  0  0  0  0  0
    0.2277   -0.1599    1.1030 C   0  0  0  0  0  0  0  0  0  0  0  0
    1.4328    0.0142    1.2006 O   0  0  0  0  0  0  0  0  0  0  0  0
   -0.6247    0.6295    1.8577 N   0  0  0  0  0  0  0  0  0  0  0  0
   -1.5419    0.2120    1.9860 H   0  0  0  0  0  0  0  0  0  0  0  0
   -0.1137    1.4218    2.9759 C   0  0  0  0  0  0  0  0  0  0  0  0
    0.6308    2.1467    2.6285 H   0  0  0  0  0  0  0  0  0  0  0  0
   -0.9270    1.9731    3.4578 H   0  0  0  0  0  0  0  0  0  0  0  0
    0.3561    0.7727    3.7236 H   0  0  0  0  0  0  0  0  0  0  0  0
  1  2  1  0  0  0  0
  2  3  1  0  0  0  0
  2  4  1  0  0  0  0
  2  5  1  0  0  0  0
  5  6  2  0  0  0  0
  5  7  1  0  0  0  0
  7  8  1  0  0  0  0
  7  9  1  0  0  0  0
  9 10  1  0  0  0  0
  9 11  1  0  0  0  0
  9 23  1  0  0  0  0
 11 12  1  0  0  0  0
 11 13  1  0  0  0  0
 11 14  1  0  0  0  0
 14 15  1  0  0  0  0
 14 21  2  0  0  0  0
 15 16  1  0  0  0  0
 15 17  2  0  0  0  0
 17 18  1  0  0  0  0
 17 19  1  0  0  0  0
 19 20  1  0  0  0  0
 19 21  1  0  0  0  0
 21 22  1  0  0  0  0
 23 24  2  0  0  0  0
 23 25  1  0  0  0  0
 25 26  1  0  0  0  0
 25 27  1  0  0  0  0
 27 28  1  0  0  0  0
 27 29  1  0  0  0  0
 27 30  1  0  0  0  0
M  CHG  1  15   1
M  END
$$$$

  -OEChem-04042216003D

 30 30  0     1  0  0  0  0  0999 V2000
   -3.1408   -4.1023    1.4083 H   0  0  0  0  0  0  0  0  0  0  0  0
   -3.1198   -3.3195    0.6439 C   0  0  0  0  0  0  0  0  0  0  0  0
   -4.0158   -2.7038    0.7493 H   0  0  0  0  0  0  0  0  0  0  0  0
   -3.1221   -3.7953   -0.3397 H   0  0  0  0  0  0  0  0  0  0  0  0
   -1.8764   -2.4667    0.8099 C   0  0  0  0  0  0  0  0  0  0  0  0
   -1.1361   -2.6522    1.7558 O   0  0  0  0  0  0  0  0  0  0  0  0
   -1.6011   -1.4506   -0.0900 N   0  0  0  0  0  0  0  0  0  0  0  0
   -2.1830   -1.4586   -0.9228 H   0  0  0  0  0  0  0  0  0  0  0  0
   -0.2612   -0.8233   -0.2101 C   0  0  1  0  0  0  0  0  0  0  0  0
    0.4642   -1.6209   -0.4143 H   0  0  0  0  0  0  0  0  0  0  0  0
   -0.1572    0.2210   -1.3546 C   0  0  0  0  0  0  0  0  0  0  0  0
    0.4211    1.0928   -1.0235 H   0  0  0  0  0  0  0  0  0  0  0  0
    0.4213   -0.2335   -2.1660 H   0  0  0  0  0  0  0  0  0  0  0  0
   -1.4760    0.6974   -1.9142 C   0  0  0  0  0  0  0  0  0  0  0  0
   -2.4707    1.3437   -1.1800 N   0  3  0  0  0  0  0  0  0  0  0  0
   -2.3581    1.5782   -0.1884 H   0  0  0  0  0  0  0  0  0  0  0  0
   -3.4664    1.6806   -1.9641 C   0  0  0  0  0  0  0  0  0  0  0  0
   -4.3649    2.2294   -1.6729 H   0  0  0  0  0  0  0  0  0  0  0  0
   -3.1523    1.2297   -3.2458 N   0  0  0  0  0  0  0  0  0  0  0  0
   -3.7245    1.3695   -4.0852 H   0  0  0  0  0  0  0  0  0  0  0  0
   -1.9014    0.6223   -3.2167 C   0  0  0  0  0  0  0  0  0  0  0  0
   -1.3516    0.1947   -4.0568 H   0  0  0  0  0  0  0  0  0  0  0  0
    0.2306   -0.1537    1.0931 C   0  0  0  0  0  0  0  0  0  0  0  0
    1.4311    0.0363    1.2134 O   0  0  0  0  0  0  0  0  0  0  0  0
   -0.6466    0.6361    1.8191 N   0  0  0  0  0  0  0  0  0  0  0  0
   -1.5655    0.2136    1.9196 H   0  0  0  0  0  0  0  0  0  0  0  0
   -0.1711    1.4282    2.9531 C   0  0  0  0  0  0  0  0  0  0  0  0
    0.5769    2.1599    2.6281 H   0  0  0  0  0  0  0  0  0  0  0  0
   -1.0009    1.9712    3.4160 H   0  0  0  0  0  0  0  0  0  0  0  0
    0.2840    0.7795    3.7104 H   0  0  0  0  0  0  0  0  0  0  0  0
  1  2  1  0  0  0  0
  2  3  1  0  0  0  0
  2  4  1  0  0  0  0
  2  5  1  0  0  0  0
  5  6  2  0  0  0  0
  5  7  1  0  0  0  0
  7  8  1  0  0  0  0
  7  9  1  0  0  0  0
  9 10  1  0  0  0  0
  9 11  1  0  0  0  0
  9 23  1  0  0  0  0
 11 12  1  0  0  0  0
 11 13  1  0  0  0  0
 11 14  1  0  0  0  0
 14 15  1  0  0  0  0
 14 21  2  0  0  0  0
 15 16  1  0  0  0  0
 15 17  2  0  0  0  0
 17 18  1  0  0  0  0
 17 19  1  0  0  0  0
 19 20  1  0  0  0  0
 19 21  1  0  0  0  0
 21 22  1  0  0  0  0
 23 24  2  0  0  0  0
 23 25  1  0  0  0  0
 25 26  1  0  0  0  0
 25 27  1  0  0  0  0
 27 28  1  0  0  0  0
 27 29  1  0  0  0  0
 27 30  1  0  0  0  0
M  CHG  1  15   1
M  END
$$$$

  -OEChem-04042216003D

 30 30  0     1  0  0  0  0  0999 V2000
   -3.1386   -4.0791    1.4366 H   0  0  0  0  0  0  0  0  0  0  0  0
   -3.1203   -3.2940    0.6746 C   0  0  0  0  0  0  0  0  0  0  0  0
   -4.0007   -2.6605    0.8043 H   0  0  0  0  0  0  0  0  0  0  0  0
   -3.1568   -3.7653   -0.3104 H   0  0  0  0  0  0  0  0  0  0  0  0
   -1.8556   -2.4681    0.8123 C   0  0  0  0  0  0  0  0  0  0  0  0
   -1.0940   -2.6751    1.7367 O   0  0  0  0  0  0  0  0  0  0  0  0
   -1.5786   -1.4598   -0.0955 N   0  0  0  0  0  0  0  0  0  0  0  0
   -2.1870   -1.4362   -0.9081 H   0  0  0  0  0  0  0  0  0  0  0  0
   -0.2432   -0.8248   -0.2189 C   0  0  1  0  0  0  0  0  0  0  0  0
    0.4904   -1.6167   -0.4164 H   0  0  0  0  0  0  0  0  0  0  0  0
   -0.1497    0.2167   -1.3647 C   0  0  0  0  0  0  0  0  0  0  0  0
    0.4307    1.0919   -1.0477 H   0  0  0  0  0  0  0  0  0  0  0  0
    0.4198   -0.2426   -2.1798 H   0  0  0  0  0  0  0  0  0  0  0  0
   -1.4794    0.6727   -1.9118 C   0  0  0  0  0  0  0  0  0  0  0  0
   -2.3400    1.5555   -1.2595 N   0  3  0  0  0  0  0  0  0  0  0  0
   -2.1242    1.9628   -0.3436 H   0  0  0  0  0  0  0  0  0  0  0  0
   -3.3737    1.8248   -2.0200 C   0  0  0  0  0  0  0  0  0  0  0  0
   -4.1938    2.5059   -1.7818 H   0  0  0  0  0  0  0  0  0  0  0  0
   -3.2180    1.0980   -3.2000 N   0  0  0  0  0  0  0  0  0  0  0  0
   -3.8506    1.1272   -4.0066 H   0  0  0  0  0  0  0  0  0  0  0  0
   -2.0238    0.3870   -3.1386 C   0  0  0  0  0  0  0  0  0  0  0  0
   -1.5865   -0.2440   -3.9141 H   0  0  0  0  0  0  0  0  0  0  0  0
    0.2342   -0.1395    1.0811 C   0  0  0  0  0  0  0  0  0  0  0  0
    1.4327    0.0524    1.2168 O   0  0  0  0  0  0  0  0  0  0  0  0
   -0.6527    0.6505    1.7950 N   0  0  0  0  0  0  0  0  0  0  0  0
   -1.5872    0.2545    1.8465 H   0  0  0  0  0  0  0  0  0  0  0  0
   -0.2019    1.4164    2.9564 C   0  0  0  0  0  0  0  0  0  0  0  0
    0.5682    2.1404    2.6680 H   0  0  0  0  0  0  0  0  0  0  0  0
   -1.0375    1.9653    3.4014 H   0  0  0  0  0  0  0  0  0  0  0  0
    0.2175    0.7478    3.7168 H   0  0  0  0  0  0  0  0  0  0  0  0
  1  2  1  0  0  0  0
  2  3  1  0  0  0  0
  2  4  1  0  0  0  0
  2  5  1  0  0  0  0
  5  6  2  0  0  0  0
  5  7  1  0  0  0  0
  7  8  1  0  0  0  0
  7  9  1  0  0  0  0
  9 10  1  0  0  0  0
  9 11  1  0  0  0  0
  9 23  1  0  0  0  0
 11 12  1  0  0  0  0
 11 13  1  0  0  0  0
 11 14  1  0  0  0  0
 14 15  1  0  0  0  0
 14 21  2  0  0  0  0
 15 16  1  0  0  0  0
 15 17  2  0  0  0  0
 17 18  1  0  0  0  0
 17 19  1  0  0  0  0
 19 20  1  0  0  0  0
 19 21  1  0  0  0  0
 21 22  1  0  0  0  0
 23 24  2  0  0  0  0
 23 25  1  0  0  0  0
 25 26  1  0  0  0  0
 25 27  1  0  0  0  0
 27 28  1  0  0  0  0
 27 29  1  0  0  0  0
 27 30  1  0  0  0  0
M  CHG  1  15   1
M  END
$$$$

  -OEChem-04042216003D

 30 30  0     1  0  0  0  0  0999 V2000
   -3.1269   -4.0602    1.4869 H   0  0  0  0  0  0  0  0  0  0  0  0
   -3.1197   -3.2692    0.7306 C   0  0  0  0  0  0  0  0  0  0  0  0
   -3.9721   -2.6091    0.9065 H   0  0  0  0  0  0  0  0  0  0  0  0
   -3.2172   -3.7299   -0.2551 H   0  0  0  0  0  0  0  0  0  0  0  0
   -1.8247   -2.4846    0.8149 C   0  0  0  0  0  0  0  0  0  0  0  0
   -1.0183   -2.7360    1.6891 O   0  0  0  0  0  0  0  0  0  0  0  0
   -1.5652   -1.4676   -0.0878 N   0  0  0  0  0  0  0  0  0  0  0  0
   -2.2235   -1.3808   -0.8551 H   0  0  0  0  0  0  0  0  0  0  0  0
   -0.2405   -0.8143   -0.2211 C   0  0  1  0  0  0  0  0  0  0  0  0
    0.5001   -1.5978   -0.4260 H   0  0  0  0  0  0  0  0  0  0  0  0
   -0.1649    0.2275   -1.3668 C   0  0  0  0  0  0  0  0  0  0  0  0
    0.4133    1.1069   -1.0575 H   0  0  0  0  0  0  0  0  0  0  0  0
    0.4020   -0.2307   -2.1845 H   0  0  0  0  0  0  0  0  0  0  0  0
   -1.5013    0.6681   -1.9112 C   0  0  0  0  0  0  0  0  0  0  0  0
   -2.2390    1.7482   -1.4261 N   0  3  0  0  0  0  0  0  0  0  0  0
   -1.9389    2.3082   -0.6213 H   0  0  0  0  0  0  0  0  0  0  0  0
   -3.2973    1.9473   -2.1742 C   0  0  0  0  0  0  0  0  0  0  0  0
   -4.0445    2.7335   -2.0434 H   0  0  0  0  0  0  0  0  0  0  0  0
   -3.2779    0.9827   -3.1811 N   0  0  0  0  0  0  0  0  0  0  0  0
   -3.9546    0.9083   -3.9481 H   0  0  0  0  0  0  0  0  0  0  0  0
   -2.1425    0.1934   -3.0283 C   0  0  0  0  0  0  0  0  0  0  0  0
   -1.8015   -0.6125   -3.6807 H   0  0  0  0  0  0  0  0  0  0  0  0
    0.2414   -0.1294    1.0770 C   0  0  0  0  0  0  0  0  0  0  0  0
    1.4400    0.0639    1.2114 O   0  0  0  0  0  0  0  0  0  0  0  0
   -0.6439    0.6464    1.8072 N   0  0  0  0  0  0  0  0  0  0  0  0
   -1.5931    0.2841    1.8190 H   0  0  0  0  0  0  0  0  0  0  0  0
   -0.2004    1.3826    2.9901 C   0  0  0  0  0  0  0  0  0  0  0  0
    0.5781    2.1070    2.7261 H   0  0  0  0  0  0  0  0  0  0  0  0
   -1.0372    1.9275    3.4376 H   0  0  0  0  0  0  0  0  0  0  0  0
    0.2057    0.6949    3.7405 H   0  0  0  0  0  0  0  0  0  0  0  0
  1  2  1  0  0  0  0
  2  3  1  0  0  0  0
  2  4  1  0  0  0  0
  2  5  1  0  0  0  0
  5  6  2  0  0  0  0
  5  7  1  0  0  0  0
  7  8  1  0  0  0  0
  7  9  1  0  0  0  0
  9 10  1  0  0  0  0
  9 11  1  0  0  0  0
  9 23  1  0  0  0  0
 11 12  1  0  0  0  0
 11 13  1  0  0  0  0
 11 14  1  0  0  0  0
 14 15  1  0  0  0  0
 14 21  2  0  0  0  0
 15 16  1  0  0  0  0
 15 17  2  0  0  0  0
 17 18  1  0  0  0  0
 17 19  1  0  0  0  0
 19 20  1  0  0  0  0
 19 21  1  0  0  0  0
 21 22  1  0  0  0  0
 23 24  2  0  0  0  0
 23 25  1  0  0  0  0
 25 26  1  0  0  0  0
 25 27  1  0  0  0  0
 27 28  1  0  0  0  0
 27 29  1  0  0  0  0
 27 30  1  0  0  0  0
M  CHG  1  15   1
M  END
$$$$

  -OEChem-04042216003D

 30 30  0     1  0  0  0  0  0999 V2000
   -3.1102   -4.0295    1.5530 H   0  0  0  0  0  0  0  0  0  0  0  0
   -3.1257   -3.2193    0.8174 C   0  0  0  0  0  0  0  0  0  0  0  0
   -3.9148   -2.5149    1.0904 H   0  0  0  0  0  0  0  0  0  0  0  0
   -3.3455   -3.6452   -0.1641 H   0  0  0  0  0  0  0  0  0  0  0  0
   -1.7819   -2.5164    0.7935 C   0  0  0  0  0  0  0  0  0  0  0  0
   -0.9032   -2.8584    1.5606 O   0  0  0  0  0  0  0  0  0  0  0  0
   -1.5518   -1.4732   -0.0869 N   0  0  0  0  0  0  0  0  0  0  0  0
   -2.3028   -1.2393   -0.7270 H   0  0  0  0  0  0  0  0  0  0  0  0
   -0.2443   -0.7901   -0.2254 C   0  0  1  0  0  0  0  0  0  0  0  0
    0.5045   -1.5618   -0.4459 H   0  0  0  0  0  0  0  0  0  0  0  0
   -0.1841    0.2554   -1.3676 C   0  0  0  0  0  0  0  0  0  0  0  0
    0.3835    1.1390   -1.0517 H   0  0  0  0  0  0  0  0  0  0  0  0
    0.3918   -0.1930   -2.1848 H   0  0  0  0  0  0  0  0  0  0  0  0
   -1.5210    0.6816   -1.9248 C   0  0  0  0  0  0  0  0  0  0  0  0
   -2.1464    1.9017   -1.6657 N   0  3  0  0  0  0  0  0  0  0  0  0
   -1.7673    2.5927   -1.0103 H   0  0  0  0  0  0  0  0  0  0  0  0
   -3.2249    2.0254   -2.4012 C   0  0  0  0  0  0  0  0  0  0  0  0
   -3.9041    2.8810   -2.4163 H   0  0  0  0  0  0  0  0  0  0  0  0
   -3.3296    0.8723   -3.1775 N   0  0  0  0  0  0  0  0  0  0  0  0
   -4.0460    0.6970   -3.8903 H   0  0  0  0  0  0  0  0  0  0  0  0
   -2.2501    0.0412   -2.8969 C   0  0  0  0  0  0  0  0  0  0  0  0
   -1.9986   -0.9050   -3.3793 H   0  0  0  0  0  0  0  0  0  0  0  0
    0.2461   -0.1240    1.0788 C   0  0  0  0  0  0  0  0  0  0  0  0
    1.4441    0.0780    1.2049 O   0  0  0  0  0  0  0  0  0  0  0  0
   -0.6363    0.6188    1.8449 N   0  0  0  0  0  0  0  0  0  0  0  0
   -1.5943    0.2828    1.8302 H   0  0  0  0  0  0  0  0  0  0  0  0
   -0.1916    1.3209    3.0474 C   0  0  0  0  0  0  0  0  0  0  0  0
    0.5657    2.0727    2.7994 H   0  0  0  0  0  0  0  0  0  0  0  0
   -1.0336    1.8288    3.5277 H   0  0  0  0  0  0  0  0  0  0  0  0
    0.2415    0.6147    3.7647 H   0  0  0  0  0  0  0  0  0  0  0  0
  1  2  1  0  0  0  0
  2  3  1  0  0  0  0
  2  4  1  0  0  0  0
  2  5  1  0  0  0  0
  5  6  2  0  0  0  0
  5  7  1  0  0  0  0
  7  8  1  0  0  0  0
  7  9  1  0  0  0  0
  9 10  1  0  0  0  0
  9 11  1  0  0  0  0
  9 23  1  0  0  0  0
 11 12  1  0  0  0  0
 11 13  1  0  0  0  0
 11 14  1  0  0  0  0
 14 15  1  0  0  0  0
 14 21  2  0  0  0  0
 15 16  1  0  0  0  0
 15 17  2  0  0  0  0
 17 18  1  0  0  0  0
 17 19  1  0  0  0  0
 19 20  1  0  0  0  0
 19 21  1  0  0  0  0
 21 22  1  0  0  0  0
 23 24  2  0  0  0  0
 23 25  1  0  0  0  0
 25 26  1  0  0  0  0
 25 27  1  0  0  0  0
 27 28  1  0  0  0  0
 27 29  1  0  0  0  0
 27 30  1  0  0  0  0
M  CHG  1  15   1
M  END
$$$$

  -OEChem-04042216003D

 30 30  0     1  0  0  0  0  0999 V2000
   -3.0616   -3.9921    1.6444 H   0  0  0  0  0  0  0  0  0  0  0  0
   -3.1101   -3.1714    0.9223 C   0  0  0  0  0  0  0  0  0  0  0  0
   -3.8163   -2.4242    1.2911 H   0  0  0  0  0  0  0  0  0  0  0  0
   -3.4676   -3.5675   -0.0308 H   0  0  0  0  0  0  0  0  0  0  0  0
   -1.7353   -2.5552    0.7482 C   0  0  0  0  0  0  0  0  0  0  0  0
   -0.7873   -2.9990    1.3662 O   0  0  0  0  0  0  0  0  0  0  0  0
   -1.5499   -1.4801   -0.1040 N   0  0  0  0  0  0  0  0  0  0  0  0
   -2.3839   -1.0719   -0.5123 H   0  0  0  0  0  0  0  0  0  0  0  0
   -0.2592   -0.7659   -0.2355 C   0  0  1  0  0  0  0  0  0  0  0  0
    0.4978   -1.5242   -0.4750 H   0  0  0  0  0  0  0  0  0  0  0  0
   -0.2074    0.2908   -1.3688 C   0  0  0  0  0  0  0  0  0  0  0  0
    0.3395    1.1782   -1.0290 H   0  0  0  0  0  0  0  0  0  0  0  0
    0.3900   -0.1352   -2.1826 H   0  0  0  0  0  0  0  0  0  0  0  0
   -1.5375    0.7109   -1.9503 C   0  0  0  0  0  0  0  0  0  0  0  0
   -2.0483    2.0103   -1.9454 N   0  3  0  0  0  0  0  0  0  0  0  0
   -1.5834    2.7898   -1.4693 H   0  0  0  0  0  0  0  0  0  0  0  0
   -3.1466    2.0718   -2.6593 C   0  0  0  0  0  0  0  0  0  0  0  0
   -3.7519    2.9627   -2.8413 H   0  0  0  0  0  0  0  0  0  0  0  0
   -3.3829    0.7945   -3.1644 N   0  0  0  0  0  0  0  0  0  0  0  0
   -4.1409    0.5379   -3.8058 H   0  0  0  0  0  0  0  0  0  0  0  0
   -2.3621   -0.0504   -2.7429 C   0  0  0  0  0  0  0  0  0  0  0  0
   -2.2061   -1.0944   -3.0208 H   0  0  0  0  0  0  0  0  0  0  0  0
    0.2380   -0.1297    1.0805 C   0  0  0  0  0  0  0  0  0  0  0  0
    1.4354    0.0767    1.2027 O   0  0  0  0  0  0  0  0  0  0  0  0
   -0.6412    0.5738    1.8865 N   0  0  0  0  0  0  0  0  0  0  0  0
   -1.6078    0.2672    1.8499 H   0  0  0  0  0  0  0  0  0  0  0  0
   -0.1915    1.2503    3.1016 C   0  0  0  0  0  0  0  0  0  0  0  0
    0.5674    2.0046    2.8665 H   0  0  0  0  0  0  0  0  0  0  0  0
   -1.0307    1.7520    3.5933 H   0  0  0  0  0  0  0  0  0  0  0  0
    0.2410    0.5287    3.8038 H   0  0  0  0  0  0  0  0  0  0  0  0
  1  2  1  0  0  0  0
  2  3  1  0  0  0  0
  2  4  1  0  0  0  0
  2  5  1  0  0  0  0
  5  6  2  0  0  0  0
  5  7  1  0  0  0  0
  7  8  1  0  0  0  0
  7  9  1  0  0  0  0
  9 10  1  0  0  0  0
  9 11  1  0  0  0  0
  9 23  1  0  0  0  0
 11 12  1  0  0  0  0
 11 13  1  0  0  0  0
 11 14  1  0  0  0  0
 14 15  1  0  0  0  0
 14 21  2  0  0  0  0
 15 16  1  0  0  0  0
 15 17  2  0  0  0  0
 17 18  1  0  0  0  0
 17 19  1  0  0  0  0
 19 20  1  0  0  0  0
 19 21  1  0  0  0  0
 21 22  1  0  0  0  0
 23 24  2  0  0  0  0
 23 25  1  0  0  0  0
 25 26  1  0  0  0  0
 25 27  1  0  0  0  0
 27 28  1  0  0  0  0
 27 29  1  0  0  0  0
 27 30  1  0  0  0  0
M  CHG  1  15   1
M  END
$$$$

  -OEChem-04042216003D

 30 30  0     1  0  0  0  0  0999 V2000
   -2.9807   -3.9976    1.7411 H   0  0  0  0  0  0  0  0  0  0  0  0
   -3.0717   -3.1746    1.0256 C   0  0  0  0  0  0  0  0  0  0  0  0
   -3.7283   -2.4133    1.4530 H   0  0  0  0  0  0  0  0  0  0  0  0
   -3.5169   -3.5607    0.1058 H   0  0  0  0  0  0  0  0  0  0  0  0
   -1.7030   -2.5881    0.7370 C   0  0  0  0  0  0  0  0  0  0  0  0
   -0.7134   -3.0767    1.2467 O   0  0  0  0  0  0  0  0  0  0  0  0
   -1.5702   -1.4900   -0.0967 N   0  0  0  0  0  0  0  0  0  0  0  0
   -2.4326   -1.0186   -0.3483 H   0  0  0  0  0  0  0  0  0  0  0  0
   -0.2955   -0.7486   -0.2348 C   0  0  1  0  0  0  0  0  0  0  0  0
    0.4666   -1.4963   -0.4918 H   0  0  0  0  0  0  0  0  0  0  0  0
   -0.2497    0.3134   -1.3666 C   0  0  0  0  0  0  0  0  0  0  0  0
    0.2798    1.2027   -1.0048 H   0  0  0  0  0  0  0  0  0  0  0  0
    0.3692   -0.0958   -2.1729 H   0  0  0  0  0  0  0  0  0  0  0  0
   -1.5653    0.7416   -1.9806 C   0  0  0  0  0  0  0  0  0  0  0  0
   -1.9278    2.0649   -2.2428 N   0  3  0  0  0  0  0  0  0  0  0  0
   -1.3616    2.8659   -1.9466 H   0  0  0  0  0  0  0  0  0  0  0  0
   -3.0451    2.1099   -2.9273 C   0  0  0  0  0  0  0  0  0  0  0  0
   -3.5566    3.0105   -3.2748 H   0  0  0  0  0  0  0  0  0  0  0  0
   -3.4444    0.7943   -3.1500 N   0  0  0  0  0  0  0  0  0  0  0  0
   -4.2546    0.5040   -3.7076 H   0  0  0  0  0  0  0  0  0  0  0  0
   -2.5040   -0.0605   -2.5857 C   0  0  0  0  0  0  0  0  0  0  0  0
   -2.4707   -1.1489   -2.6594 H   0  0  0  0  0  0  0  0  0  0  0  0
    0.2198   -0.1325    1.0845 C   0  0  0  0  0  0  0  0  0  0  0  0
    1.4177    0.0804    1.1905 O   0  0  0  0  0  0  0  0  0  0  0  0
   -0.6489    0.5382    1.9287 N   0  0  0  0  0  0  0  0  0  0  0  0
   -1.6200    0.2480    1.8916 H   0  0  0  0  0  0  0  0  0  0  0  0
   -0.1833    1.2058    3.1426 C   0  0  0  0  0  0  0  0  0  0  0  0
    0.5391    1.9923    2.8981 H   0  0  0  0  0  0  0  0  0  0  0  0
   -1.0231    1.6659    3.6725 H   0  0  0  0  0  0  0  0  0  0  0  0
    0.2989    0.4873    3.8147 H   0  0  0  0  0  0  0  0  0  0  0  0
  1  2  1  0  0  0  0
  2  3  1  0  0  0  0
  2  4  1  0  0  0  0
  2  5  1  0  0  0  0
  5  6  2  0  0  0  0
  5  7  1  0  0  0  0
  7  8  1  0  0  0  0
  7  9  1  0  0  0  0
  9 10  1  0  0  0  0
  9 11  1  0  0  0  0
  9 23  1  0  0  0  0
 11 12  1  0  0  0  0
 11 13  1  0  0  0  0
 11 14  1  0  0  0  0
 14 15  1  0  0  0  0
 14 21  2  0  0  0  0
 15 16  1  0  0  0  0
 15 17  2  0  0  0  0
 17 18  1  0  0  0  0
 17 19  1  0  0  0  0
 19 20  1  0  0  0  0
 19 21  1  0  0  0  0
 21 22  1  0  0  0  0
 23 24  2  0  0  0  0
 23 25  1  0  0  0  0
 25 26  1  0  0  0  0
 25 27  1  0  0  0  0
 27 28  1  0  0  0  0
 27 29  1  0  0  0  0
 27 30  1  0  0  0  0
M  CHG  1  15   1
M  END
$$$$

  -OEChem-04042216003D

 30 30  0     1  0  0  0  0  0999 V2000
   -2.8753   -4.0410    1.8090 H   0  0  0  0  0  0  0  0  0  0  0  0
   -3.0114   -3.2021    1.1195 C   0  0  0  0  0  0  0  0  0  0  0  0
   -3.6327   -2.4478    1.6076 H   0  0  0  0  0  0  0  0  0  0  0  0
   -3.5208   -3.5668    0.2246 H   0  0  0  0  0  0  0  0  0  0  0  0
   -1.6634   -2.6142    0.7491 C   0  0  0  0  0  0  0  0  0  0  0  0
   -0.6437   -3.1119    1.1853 O   0  0  0  0  0  0  0  0  0  0  0  0
   -1.5867   -1.5029   -0.0748 N   0  0  0  0  0  0  0  0  0  0  0  0
   -2.4632   -1.0126   -0.2154 H   0  0  0  0  0  0  0  0  0  0  0  0
   -0.3326   -0.7327   -0.2339 C   0  0  1  0  0  0  0  0  0  0  0  0
    0.4353   -1.4694   -0.5054 H   0  0  0  0  0  0  0  0  0  0  0  0
   -0.3009    0.3283   -1.3704 C   0  0  0  0  0  0  0  0  0  0  0  0
    0.2090    1.2224   -0.9926 H   0  0  0  0  0  0  0  0  0  0  0  0
    0.3383   -0.0679   -2.1674 H   0  0  0  0  0  0  0  0  0  0  0  0
   -1.6012    0.7667   -2.0169 C   0  0  0  0  0  0  0  0  0  0  0  0
   -1.7983    2.0446   -2.5481 N   0  3  0  0  0  0  0  0  0  0  0  0
   -1.1141    2.8002   -2.4432 H   0  0  0  0  0  0  0  0  0  0  0  0
   -2.9426    2.1148   -3.1835 C   0  0  0  0  0  0  0  0  0  0  0  0
   -3.3505    2.9925   -3.6902 H   0  0  0  0  0  0  0  0  0  0  0  0
   -3.5285    0.8545   -3.1112 N   0  0  0  0  0  0  0  0  0  0  0  0
   -4.4051    0.5785   -3.5661 H   0  0  0  0  0  0  0  0  0  0  0  0
   -2.6762    0.0043   -2.4152 C   0  0  0  0  0  0  0  0  0  0  0  0
   -2.7943   -1.0715   -2.2838 H   0  0  0  0  0  0  0  0  0  0  0  0
    0.2022   -0.1239    1.0814 C   0  0  0  0  0  0  0  0  0  0  0  0
    1.3992    0.1028    1.1659 O   0  0  0  0  0  0  0  0  0  0  0  0
   -0.6561    0.5170    1.9588 N   0  0  0  0  0  0  0  0  0  0  0  0
   -1.6286    0.2313    1.9287 H   0  0  0  0  0  0  0  0  0  0  0  0
   -0.1737    1.1696    3.1745 C   0  0  0  0  0  0  0  0  0  0  0  0
    0.5358    1.9674    2.9291 H   0  0  0  0  0  0  0  0  0  0  0  0
   -1.0077    1.6121    3.7282 H   0  0  0  0  0  0  0  0  0  0  0  0
    0.3287    0.4451    3.8253 H   0  0  0  0  0  0  0  0  0  0  0  0
  1  2  1  0  0  0  0
  2  3  1  0  0  0  0
  2  4  1  0  0  0  0
  2  5  1  0  0  0  0
  5  6  2  0  0  0  0
  5  7  1  0  0  0  0
  7  8  1  0  0  0  0
  7  9  1  0  0  0  0
  9 10  1  0  0  0  0
  9 11  1  0  0  0  0
  9 23  1  0  0  0  0
 11 12  1  0  0  0  0
 11 13  1  0  0  0  0
 11 14  1  0  0  0  0
 14 15  1  0  0  0  0
 14 21  2  0  0  0  0
 15 16  1  0  0  0  0
 15 17  2  0  0  0  0
 17 18  1  0  0  0  0
 17 19  1  0  0  0  0
 19 20  1  0  0  0  0
 19 21  1  0  0  0  0
 21 22  1  0  0  0  0
 23 24  2  0  0  0  0
 23 25  1  0  0  0  0
 25 26  1  0  0  0  0
 25 27  1  0  0  0  0
 27 28  1  0  0  0  0
 27 29  1  0  0  0  0
 27 30  1  0  0  0  0
M  CHG  1  15   1
M  END
$$$$

  -OEChem-04042216003D

 30 30  0     1  0  0  0  0  0999 V2000
   -2.7349   -4.3044    1.7172 H   0  0  0  0  0  0  0  0  0  0  0  0
   -2.8289   -3.5738    0.9079 C   0  0  0  0  0  0  0  0  0  0  0  0
   -3.7895   -3.0635    1.0091 H   0  0  0  0  0  0  0  0  0  0  0  0
   -2.8006   -4.1068   -0.0454 H   0  0  0  0  0  0  0  0  0  0  0  0
   -1.6935   -2.5710    0.9818 C   0  0  0  0  0  0  0  0  0  0  0  0
   -0.8898   -2.6413    1.8904 O   0  0  0  0  0  0  0  0  0  0  0  0
   -1.5825   -1.5780    0.0202 N   0  0  0  0  0  0  0  0  0  0  0  0
   -2.1220   -1.7854   -0.8123 H   0  0  0  0  0  0  0  0  0  0  0  0
   -0.3162   -0.8427   -0.2008 C   0  0  1  0  0  0  0  0  0  0  0  0
    0.4650   -1.5837   -0.4128 H   0  0  0  0  0  0  0  0  0  0  0  0
   -0.3274    0.1935   -1.3679 C   0  0  0  0  0  0  0  0  0  0  0  0
    0.2412    1.0790   -1.0574 H   0  0  0  0  0  0  0  0  0  0  0  0
    0.2525   -0.2609   -2.1783 H   0  0  0  0  0  0  0  0  0  0  0  0
   -1.6236    0.6869   -1.9979 C   0  0  0  0  0  0  0  0  0  0  0  0
   -1.6086    1.8265   -2.8101 N   0  3  0  0  0  0  0  0  0  0  0  0
   -0.7460    2.3291   -3.0402 H   0  0  0  0  0  0  0  0  0  0  0  0
   -2.8164    2.1479   -3.2011 C   0  0  0  0  0  0  0  0  0  0  0  0
   -3.0902    2.9903   -3.8404 H   0  0  0  0  0  0  0  0  0  0  0  0
   -3.6839    1.2204   -2.6370 N   0  0  0  0  0  0  0  0  0  0  0  0
   -4.7039    1.2210   -2.7396 H   0  0  0  0  0  0  0  0  0  0  0  0
   -2.9483    0.3243   -1.8689 C   0  0  0  0  0  0  0  0  0  0  0  0
   -3.3682   -0.4723   -1.2614 H   0  0  0  0  0  0  0  0  0  0  0  0
    0.1784   -0.0761    1.0504 C   0  0  0  0  0  0  0  0  0  0  0  0
    1.3754    0.1536    1.1440 O   0  0  0  0  0  0  0  0  0  0  0  0
   -0.7086    0.6699    1.8062 N   0  0  0  0  0  0  0  0  0  0  0  0
   -1.6635    0.3249    1.8110 H   0  0  0  0  0  0  0  0  0  0  0  0
   -0.2656    1.4521    2.9577 C   0  0  0  0  0  0  0  0  0  0  0  0
    0.4731    2.2021    2.6549 H   0  0  0  0  0  0  0  0  0  0  0  0
   -1.1131    1.9726    3.4142 H   0  0  0  0  0  0  0  0  0  0  0  0
    0.1886    0.7998    3.7118 H   0  0  0  0  0  0  0  0  0  0  0  0
  1  2  1  0  0  0  0
  2  3  1  0  0  0  0
  2  4  1  0  0  0  0
  2  5  1  0  0  0  0
  5  6  2  0  0  0  0
  5  7  1  0  0  0  0
  7  8  1  0  0  0  0
  7  9  1  0  0  0  0
  9 10  1  0  0  0  0
  9 11  1  0  0  0  0
  9 23  1  0  0  0  0
 11 12  1  0  0  0  0
 11 13  1  0  0  0  0
 11 14  1  0  0  0  0
 14 15  1  0  0  0  0
 14 21  2  0  0  0  0
 15 16  1  0  0  0  0
 15 17  2  0  0  0  0
 17 18  1  0  0  0  0
 17 19  1  0  0  0  0
 19 20  1  0  0  0  0
 19 21  1  0  0  0  0
 21 22  1  0  0  0  0
 23 24  2  0  0  0  0
 23 25  1  0  0  0  0
 25 26  1  0  0  0  0
 25 27  1  0  0  0  0
 27 28  1  0  0  0  0
 27 29  1  0  0  0  0
 27 30  1  0  0  0  0
M  CHG  1  15   1
M  END
$$$$

  -OEChem-04042216003D

 30 30  0     1  0  0  0  0  0999 V2000
   -2.9335   -4.2597    1.4784 H   0  0  0  0  0  0  0  0  0  0  0  0
   -2.9759   -3.4855    0.7061 C   0  0  0  0  0  0  0  0  0  0  0  0
   -3.9125   -2.9341    0.8155 H   0  0  0  0  0  0  0  0  0  0  0  0
   -2.9549   -3.9709   -0.2726 H   0  0  0  0  0  0  0  0  0  0  0  0
   -1.7942   -2.5456    0.8496 C   0  0  0  0  0  0  0  0  0  0  0  0
   -1.0211   -2.6848    1.7769 O   0  0  0  0  0  0  0  0  0  0  0  0
   -1.6128   -1.5125   -0.0559 N   0  0  0  0  0  0  0  0  0  0  0  0
   -2.1882   -1.5962   -0.8896 H   0  0  0  0  0  0  0  0  0  0  0  0
   -0.3118   -0.8194   -0.2174 C   0  0  1  0  0  0  0  0  0  0  0  0
    0.4432   -1.5808   -0.4513 H   0  0  0  0  0  0  0  0  0  0  0  0
   -0.2848    0.2405   -1.3528 C   0  0  0  0  0  0  0  0  0  0  0  0
    0.5029    0.9745   -1.1413 H   0  0  0  0  0  0  0  0  0  0  0  0
    0.0289   -0.2916   -2.2571 H   0  0  0  0  0  0  0  0  0  0  0  0
   -1.5572    0.9910   -1.7093 C   0  0  0  0  0  0  0  0  0  0  0  0
   -1.5890    1.9525   -2.7242 N   0  3  0  0  0  0  0  0  0  0  0  0
   -0.7769    2.1664   -3.3108 H   0  0  0  0  0  0  0  0  0  0  0  0
   -2.7583    2.5418   -2.7750 C   0  0  0  0  0  0  0  0  0  0  0  0
   -3.0561    3.3351   -3.4639 H   0  0  0  0  0  0  0  0  0  0  0  0
   -3.5418    1.9810   -1.7718 N   0  0  0  0  0  0  0  0  0  0  0  0
   -4.4986    2.2629   -1.5354 H   0  0  0  0  0  0  0  0  0  0  0  0
   -2.7865    1.0338   -1.0901 C   0  0  0  0  0  0  0  0  0  0  0  0
   -3.0932    0.4781   -0.2056 H   0  0  0  0  0  0  0  0  0  0  0  0
    0.2041   -0.1285    1.0673 C   0  0  0  0  0  0  0  0  0  0  0  0
    1.4071    0.0648    1.1633 O   0  0  0  0  0  0  0  0  0  0  0  0
   -0.6559    0.6241    1.8486 N   0  0  0  0  0  0  0  0  0  0  0  0
   -1.6027    0.2623    1.8942 H   0  0  0  0  0  0  0  0  0  0  0  0
   -0.1715    1.3663    3.0107 C   0  0  0  0  0  0  0  0  0  0  0  0
    0.5682    2.1162    2.7097 H   0  0  0  0  0  0  0  0  0  0  0  0
   -0.9991    1.8826    3.5067 H   0  0  0  0  0  0  0  0  0  0  0  0
    0.2953    0.6866    3.7323 H   0  0  0  0  0  0  0  0  0  0  0  0
  1  2  1  0  0  0  0
  2  3  1  0  0  0  0
  2  4  1  0  0  0  0
  2  5  1  0  0  0  0
  5  6  2  0  0  0  0
  5  7  1  0  0  0  0
  7  8  1  0  0  0  0
  7  9  1  0  0  0  0
  9 10  1  0  0  0  0
  9 11  1  0  0  0  0
  9 23  1  0  0  0  0
 11 12  1  0  0  0  0
 11 13  1  0  0  0  0
 11 14  1  0  0  0  0
 14 15  1  0  0  0  0
 14 21  2  0  0  0  0
 15 16  1  0  0  0  0
 15 17  2  0  0  0  0
 17 18  1  0  0  0  0
 17 19  1  0  0  0  0
 19 20  1  0  0  0  0
 19 21  1  0  0  0  0
 21 22  1  0  0  0  0
 23 24  2  0  0  0  0
 23 25  1  0  0  0  0
 25 26  1  0  0  0  0
 25 27  1  0  0  0  0
 27 28  1  0  0  0  0
 27 29  1  0  0  0  0
 27 30  1  0  0  0  0
M  CHG  1  15   1
M  END
$$$$

  -OEChem-04042216003D

 30 30  0     1  0  0  0  0  0999 V2000
   -3.0169   -4.2077    1.4386 H   0  0  0  0  0  0  0  0  0  0  0  0
   -3.0349   -3.4271    0.6719 C   0  0  0  0  0  0  0  0  0  0  0  0
   -3.9544   -2.8483    0.7840 H   0  0  0  0  0  0  0  0  0  0  0  0
   -3.0270   -3.9050   -0.3107 H   0  0  0  0  0  0  0  0  0  0  0  0
   -1.8255   -2.5246    0.8237 C   0  0  0  0  0  0  0  0  0  0  0  0
   -1.0519   -2.6990    1.7448 O   0  0  0  0  0  0  0  0  0  0  0  0
   -1.6191   -1.4790   -0.0611 N   0  0  0  0  0  0  0  0  0  0  0  0
   -2.2139   -1.5077   -0.8847 H   0  0  0  0  0  0  0  0  0  0  0  0
   -0.3070   -0.8023   -0.2037 C   0  0  1  0  0  0  0  0  0  0  0  0
    0.4361   -1.5753   -0.4381 H   0  0  0  0  0  0  0  0  0  0  0  0
   -0.2584    0.2523   -1.3423 C   0  0  0  0  0  0  0  0  0  0  0  0
    0.5289    0.9867   -1.1306 H   0  0  0  0  0  0  0  0  0  0  0  0
    0.0583   -0.2861   -2.2415 H   0  0  0  0  0  0  0  0  0  0  0  0
   -1.5334    0.9947   -1.6963 C   0  0  0  0  0  0  0  0  0  0  0  0
   -1.6958    1.7274   -2.8754 N   0  3  0  0  0  0  0  0  0  0  0  0
   -0.9704    1.7892   -3.5959 H   0  0  0  0  0  0  0  0  0  0  0  0
   -2.8538    2.3418   -2.8845 C   0  0  0  0  0  0  0  0  0  0  0  0
   -3.2369    2.9934   -3.6732 H   0  0  0  0  0  0  0  0  0  0  0  0
   -3.4956    2.0242   -1.6909 N   0  0  0  0  0  0  0  0  0  0  0  0
   -4.4062    2.3854   -1.3886 H   0  0  0  0  0  0  0  0  0  0  0  0
   -2.6643    1.1999   -0.9415 C   0  0  0  0  0  0  0  0  0  0  0  0
   -2.8462    0.8254    0.0651 H   0  0  0  0  0  0  0  0  0  0  0  0
    0.2181   -0.1388    1.0913 C   0  0  0  0  0  0  0  0  0  0  0  0
    1.4224    0.0506    1.1786 O   0  0  0  0  0  0  0  0  0  0  0  0
   -0.6326    0.6149    1.8822 N   0  0  0  0  0  0  0  0  0  0  0  0
   -1.5648    0.2230    1.9691 H   0  0  0  0  0  0  0  0  0  0  0  0
   -0.1269    1.3685    3.0282 C   0  0  0  0  0  0  0  0  0  0  0  0
    0.6110    2.1118    2.7067 H   0  0  0  0  0  0  0  0  0  0  0  0
   -0.9445    1.8943    3.5307 H   0  0  0  0  0  0  0  0  0  0  0  0
    0.3491    0.6960    3.7508 H   0  0  0  0  0  0  0  0  0  0  0  0
  1  2  1  0  0  0  0
  2  3  1  0  0  0  0
  2  4  1  0  0  0  0
  2  5  1  0  0  0  0
  5  6  2  0  0  0  0
  5  7  1  0  0  0  0
  7  8  1  0  0  0  0
  7  9  1  0  0  0  0
  9 10  1  0  0  0  0
  9 11  1  0  0  0  0
  9 23  1  0  0  0  0
 11 12  1  0  0  0  0
 11 13  1  0  0  0  0
 11 14  1  0  0  0  0
 14 15  1  0  0  0  0
 14 21  2  0  0  0  0
 15 16  1  0  0  0  0
 15 17  2  0  0  0  0
 17 18  1  0  0  0  0
 17 19  1  0  0  0  0
 19 20  1  0  0  0  0
 19 21  1  0  0  0  0
 21 22  1  0  0  0  0
 23 24  2  0  0  0  0
 23 25  1  0  0  0  0
 25 26  1  0  0  0  0
 25 27  1  0  0  0  0
 27 28  1  0  0  0  0
 27 29  1  0  0  0  0
 27 30  1  0  0  0  0
M  CHG  1  15   1
M  END
$$$$

  -OEChem-04042216003D

 30 30  0     1  0  0  0  0  0999 V2000
   -3.0659   -4.1776    1.3784 H   0  0  0  0  0  0  0  0  0  0  0  0
   -3.0839   -3.3641    0.6466 C   0  0  0  0  0  0  0  0  0  0  0  0
   -3.9822   -2.7651    0.8116 H   0  0  0  0  0  0  0  0  0  0  0  0
   -3.1193   -3.7989   -0.3551 H   0  0  0  0  0  0  0  0  0  0  0  0
   -1.8454   -2.5020    0.7994 C   0  0  0  0  0  0  0  0  0  0  0  0
   -1.0630   -2.7176    1.7045 O   0  0  0  0  0  0  0  0  0  0  0  0
   -1.6188   -1.4453   -0.0659 N   0  0  0  0  0  0  0  0  0  0  0  0
   -2.2369   -1.4153   -0.8718 H   0  0  0  0  0  0  0  0  0  0  0  0
   -0.3000   -0.7796   -0.1918 C   0  0  1  0  0  0  0  0  0  0  0  0
    0.4336   -1.5622   -0.4239 H   0  0  0  0  0  0  0  0  0  0  0  0
   -0.2318    0.2627   -1.3380 C   0  0  0  0  0  0  0  0  0  0  0  0
    0.5482    1.0032   -1.1215 H   0  0  0  0  0  0  0  0  0  0  0  0
    0.0993   -0.2797   -2.2294 H   0  0  0  0  0  0  0  0  0  0  0  0
   -1.5121    0.9898   -1.6962 C   0  0  0  0  0  0  0  0  0  0  0  0
   -1.8239    1.4649   -2.9728 N   0  3  0  0  0  0  0  0  0  0  0  0
   -1.2030    1.3464   -3.7788 H   0  0  0  0  0  0  0  0  0  0  0  0
   -2.9593    2.1205   -2.9555 C   0  0  0  0  0  0  0  0  0  0  0  0
   -3.4344    2.6172   -3.8044 H   0  0  0  0  0  0  0  0  0  0  0  0
   -3.4360    2.0834   -1.6477 N   0  0  0  0  0  0  0  0  0  0  0  0
   -4.2875    2.5431   -1.3089 H   0  0  0  0  0  0  0  0  0  0  0  0
   -2.5264    1.3883   -0.8595 C   0  0  0  0  0  0  0  0  0  0  0  0
   -2.5769    1.2231    0.2160 H   0  0  0  0  0  0  0  0  0  0  0  0
    0.2305   -0.1390    1.1121 C   0  0  0  0  0  0  0  0  0  0  0  0
    1.4350    0.0495    1.1944 O   0  0  0  0  0  0  0  0  0  0  0  0
   -0.6136    0.6127    1.9122 N   0  0  0  0  0  0  0  0  0  0  0  0
   -1.5379    0.2052    2.0166 H   0  0  0  0  0  0  0  0  0  0  0  0
   -0.0964    1.3619    3.0564 C   0  0  0  0  0  0  0  0  0  0  0  0
    0.6237    2.1197    2.7288 H   0  0  0  0  0  0  0  0  0  0  0  0
   -0.9115    1.8698    3.5811 H   0  0  0  0  0  0  0  0  0  0  0  0
    0.4039    0.6891    3.7619 H   0  0  0  0  0  0  0  0  0  0  0  0
  1  2  1  0  0  0  0
  2  3  1  0  0  0  0
  2  4  1  0  0  0  0
  2  5  1  0  0  0  0
  5  6  2  0  0  0  0
  5  7  1  0  0  0  0
  7  8  1  0  0  0  0
  7  9  1  0  0  0  0
  9 10  1  0  0  0  0
  9 11  1  0  0  0  0
  9 23  1  0  0  0  0
 11 12  1  0  0  0  0
 11 13  1  0  0  0  0
 11 14  1  0  0  0  0
 14 15  1  0  0  0  0
 14 21  2  0  0  0  0
 15 16  1  0  0  0  0
 15 17  2  0  0  0  0
 17 18  1  0  0  0  0
 17 19  1  0  0  0  0
 19 20  1  0  0  0  0
 19 21  1  0  0  0  0
 21 22  1  0  0  0  0
 23 24  2  0  0  0  0
 23 25  1  0  0  0  0
 25 26  1  0  0  0  0
 25 27  1  0  0  0  0
 27 28  1  0  0  0  0
 27 29  1  0  0  0  0
 27 30  1  0  0  0  0
M  CHG  1  15   1
M  END
$$$$

  -OEChem-04042216003D

 30 30  0     1  0  0  0  0  0999 V2000
   -3.1062   -4.1247    1.3739 H   0  0  0  0  0  0  0  0  0  0  0  0
   -3.1105   -3.3077    0.6457 C   0  0  0  0  0  0  0  0  0  0  0  0
   -3.9846   -2.6792    0.8304 H   0  0  0  0  0  0  0  0  0  0  0  0
   -3.1797   -3.7361   -0.3570 H   0  0  0  0  0  0  0  0  0  0  0  0
   -1.8404   -2.4892    0.7774 C   0  0  0  0  0  0  0  0  0  0  0  0
   -1.0393   -2.7466    1.6550 O   0  0  0  0  0  0  0  0  0  0  0  0
   -1.6007   -1.4291   -0.0799 N   0  0  0  0  0  0  0  0  0  0  0  0
   -2.2467   -1.3448   -0.8588 H   0  0  0  0  0  0  0  0  0  0  0  0
   -0.2808   -0.7652   -0.1954 C   0  0  1  0  0  0  0  0  0  0  0  0
    0.4530   -1.5496   -0.4209 H   0  0  0  0  0  0  0  0  0  0  0  0
   -0.2052    0.2683   -1.3470 C   0  0  0  0  0  0  0  0  0  0  0  0
    0.5627    1.0191   -1.1226 H   0  0  0  0  0  0  0  0  0  0  0  0
    0.1423   -0.2687   -2.2355 H   0  0  0  0  0  0  0  0  0  0  0  0
   -1.4963    0.9748   -1.7009 C   0  0  0  0  0  0  0  0  0  0  0  0
   -1.9781    1.1872   -2.9951 N   0  3  0  0  0  0  0  0  0  0  0  0
   -1.4858    0.8659   -3.8340 H   0  0  0  0  0  0  0  0  0  0  0  0
   -3.0748    1.9057   -2.9630 C   0  0  0  0  0  0  0  0  0  0  0  0
   -3.6536    2.2452   -3.8249 H   0  0  0  0  0  0  0  0  0  0  0  0
   -3.3517    2.1762   -1.6249 N   0  0  0  0  0  0  0  0  0  0  0  0
   -4.1256    2.7531   -1.2792 H   0  0  0  0  0  0  0  0  0  0  0  0
   -2.3575    1.6072   -0.8382 C   0  0  0  0  0  0  0  0  0  0  0  0
   -2.2493    1.6814    0.2436 H   0  0  0  0  0  0  0  0  0  0  0  0
    0.2388   -0.1323    1.1158 C   0  0  0  0  0  0  0  0  0  0  0  0
    1.4424    0.0550    1.2116 O   0  0  0  0  0  0  0  0  0  0  0  0
   -0.6125    0.6156    1.9120 N   0  0  0  0  0  0  0  0  0  0  0  0
   -1.5454    0.2203    1.9872 H   0  0  0  0  0  0  0  0  0  0  0  0
   -0.1098    1.3394    3.0790 C   0  0  0  0  0  0  0  0  0  0  0  0
    0.6266    2.0934    2.7794 H   0  0  0  0  0  0  0  0  0  0  0  0
   -0.9292    1.8487    3.5954 H   0  0  0  0  0  0  0  0  0  0  0  0
    0.3673    0.6484    3.7832 H   0  0  0  0  0  0  0  0  0  0  0  0
  1  2  1  0  0  0  0
  2  3  1  0  0  0  0
  2  4  1  0  0  0  0
  2  5  1  0  0  0  0
  5  6  2  0  0  0  0
  5  7  1  0  0  0  0
  7  8  1  0  0  0  0
  7  9  1  0  0  0  0
  9 10  1  0  0  0  0
  9 11  1  0  0  0  0
  9 23  1  0  0  0  0
 11 12  1  0  0  0  0
 11 13  1  0  0  0  0
 11 14  1  0  0  0  0
 14 15  1  0  0  0  0
 14 21  2  0  0  0  0
 15 16  1  0  0  0  0
 15 17  2  0  0  0  0
 17 18  1  0  0  0  0
 17 19  1  0  0  0  0
 19 20  1  0  0  0  0
 19 21  1  0  0  0  0
 21 22  1  0  0  0  0
 23 24  2  0  0  0  0
 23 25  1  0  0  0  0
 25 26  1  0  0  0  0
 25 27  1  0  0  0  0
 27 28  1  0  0  0  0
 27 29  1  0  0  0  0
 27 30  1  0  0  0  0
M  CHG  1  15   1
M  END
$$$$

  -OEChem-04042216003D

 30 30  0     1  0  0  0  0  0999 V2000
   -3.1103   -4.0904    1.3938 H   0  0  0  0  0  0  0  0  0  0  0  0
   -3.1144   -3.2707    0.6687 C   0  0  0  0  0  0  0  0  0  0  0  0
   -3.9678   -2.6220    0.8789 H   0  0  0  0  0  0  0  0  0  0  0  0
   -3.2198   -3.6935   -0.3332 H   0  0  0  0  0  0  0  0  0  0  0  0
   -1.8219   -2.4840    0.7698 C   0  0  0  0  0  0  0  0  0  0  0  0
   -1.0078   -2.7613    1.6289 O   0  0  0  0  0  0  0  0  0  0  0  0
   -1.5720   -1.4355   -0.0990 N   0  0  0  0  0  0  0  0  0  0  0  0
   -2.2398   -1.3184   -0.8539 H   0  0  0  0  0  0  0  0  0  0  0  0
   -0.2525   -0.7709   -0.2139 C   0  0  1  0  0  0  0  0  0  0  0  0
    0.4889   -1.5509   -0.4289 H   0  0  0  0  0  0  0  0  0  0  0  0
   -0.1771    0.2634   -1.3636 C   0  0  0  0  0  0  0  0  0  0  0  0
    0.5829    1.0195   -1.1305 H   0  0  0  0  0  0  0  0  0  0  0  0
    0.1765   -0.2591   -2.2581 H   0  0  0  0  0  0  0  0  0  0  0  0
   -1.4784    0.9555   -1.6971 C   0  0  0  0  0  0  0  0  0  0  0  0
   -2.1454    0.9310   -2.9243 N   0  3  0  0  0  0  0  0  0  0  0  0
   -1.7992    0.4152   -3.7388 H   0  0  0  0  0  0  0  0  0  0  0  0
   -3.1894    1.7249   -2.8896 C   0  0  0  0  0  0  0  0  0  0  0  0
   -3.8795    1.9261   -3.7121 H   0  0  0  0  0  0  0  0  0  0  0  0
   -3.2393    2.2875   -1.6157 N   0  0  0  0  0  0  0  0  0  0  0  0
   -3.9219    2.9819   -1.2945 H   0  0  0  0  0  0  0  0  0  0  0  0
   -2.1582    1.8215   -0.8777 C   0  0  0  0  0  0  0  0  0  0  0  0
   -1.8714    2.1109    0.1345 H   0  0  0  0  0  0  0  0  0  0  0  0
    0.2395   -0.1239    1.1005 C   0  0  0  0  0  0  0  0  0  0  0  0
    1.4398    0.0634    1.2284 O   0  0  0  0  0  0  0  0  0  0  0  0
   -0.6339    0.6265    1.8703 N   0  0  0  0  0  0  0  0  0  0  0  0
   -1.5793    0.2545    1.8928 H   0  0  0  0  0  0  0  0  0  0  0  0
   -0.1705    1.3280    3.0664 C   0  0  0  0  0  0  0  0  0  0  0  0
    0.5833    2.0795    2.8073 H   0  0  0  0  0  0  0  0  0  0  0  0
   -1.0046    1.8364    3.5597 H   0  0  0  0  0  0  0  0  0  0  0  0
    0.2732    0.6216    3.7771 H   0  0  0  0  0  0  0  0  0  0  0  0
  1  2  1  0  0  0  0
  2  3  1  0  0  0  0
  2  4  1  0  0  0  0
  2  5  1  0  0  0  0
  5  6  2  0  0  0  0
  5  7  1  0  0  0  0
  7  8  1  0  0  0  0
  7  9  1  0  0  0  0
  9 10  1  0  0  0  0
  9 11  1  0  0  0  0
  9 23  1  0  0  0  0
 11 12  1  0  0  0  0
 11 13  1  0  0  0  0
 11 14  1  0  0  0  0
 14 15  1  0  0  0  0
 14 21  2  0  0  0  0
 15 16  1  0  0  0  0
 15 17  2  0  0  0  0
 17 18  1  0  0  0  0
 17 19  1  0  0  0  0
 19 20  1  0  0  0  0
 19 21  1  0  0  0  0
 21 22  1  0  0  0  0
 23 24  2  0  0  0  0
 23 25  1  0  0  0  0
 25 26  1  0  0  0  0
 25 27  1  0  0  0  0
 27 28  1  0  0  0  0
 27 29  1  0  0  0  0
 27 30  1  0  0  0  0
M  CHG  1  15   1
M  END
$$$$

  -OEChem-04042216003D

 30 30  0     1  0  0  0  0  0999 V2000
   -3.1378   -4.0264    1.4416 H   0  0  0  0  0  0  0  0  0  0  0  0
   -3.1257   -3.2253    0.6962 C   0  0  0  0  0  0  0  0  0  0  0  0
   -3.9488   -2.5391    0.9073 H   0  0  0  0  0  0  0  0  0  0  0  0
   -3.2690   -3.6682   -0.2921 H   0  0  0  0  0  0  0  0  0  0  0  0
   -1.8017   -2.4878    0.7507 C   0  0  0  0  0  0  0  0  0  0  0  0
   -0.9642   -2.8034    1.5733 O   0  0  0  0  0  0  0  0  0  0  0  0
   -1.5434   -1.4464   -0.1243 N   0  0  0  0  0  0  0  0  0  0  0  0
   -2.2488   -1.2633   -0.8292 H   0  0  0  0  0  0  0  0  0  0  0  0
   -0.2250   -0.7782   -0.2338 C   0  0  1  0  0  0  0  0  0  0  0  0
    0.5235   -1.5531   -0.4428 H   0  0  0  0  0  0  0  0  0  0  0  0
   -0.1464    0.2658   -1.3731 C   0  0  0  0  0  0  0  0  0  0  0  0
    0.6099    1.0222   -1.1279 H   0  0  0  0  0  0  0  0  0  0  0  0
    0.2120   -0.2393   -2.2757 H   0  0  0  0  0  0  0  0  0  0  0  0
   -1.4535    0.9513   -1.6913 C   0  0  0  0  0  0  0  0  0  0  0  0
   -2.2824    0.7235   -2.7924 N   0  3  0  0  0  0  0  0  0  0  0  0
   -2.0530    0.0585   -3.5370 H   0  0  0  0  0  0  0  0  0  0  0  0
   -3.2907    1.5634   -2.7791 C   0  0  0  0  0  0  0  0  0  0  0  0
   -4.0771    1.6465   -3.5328 H   0  0  0  0  0  0  0  0  0  0  0  0
   -3.1573    2.3536   -1.6383 N   0  0  0  0  0  0  0  0  0  0  0  0
   -3.7777    3.1237   -1.3672 H   0  0  0  0  0  0  0  0  0  0  0  0
   -1.9990    1.9809   -0.9673 C   0  0  0  0  0  0  0  0  0  0  0  0
   -1.5797    2.4235   -0.0611 H   0  0  0  0  0  0  0  0  0  0  0  0
    0.2446   -0.1195    1.0827 C   0  0  0  0  0  0  0  0  0  0  0  0
    1.4419    0.0676    1.2356 O   0  0  0  0  0  0  0  0  0  0  0  0
   -0.6446    0.6324    1.8328 N   0  0  0  0  0  0  0  0  0  0  0  0
   -1.6000    0.2885    1.8111 H   0  0  0  0  0  0  0  0  0  0  0  0
   -0.2130    1.3282    3.0439 C   0  0  0  0  0  0  0  0  0  0  0  0
    0.5665    2.0625    2.8124 H   0  0  0  0  0  0  0  0  0  0  0  0
   -1.0545    1.8564    3.5026 H   0  0  0  0  0  0  0  0  0  0  0  0
    0.1874    0.6153    3.7734 H   0  0  0  0  0  0  0  0  0  0  0  0
  1  2  1  0  0  0  0
  2  3  1  0  0  0  0
  2  4  1  0  0  0  0
  2  5  1  0  0  0  0
  5  6  2  0  0  0  0
  5  7  1  0  0  0  0
  7  8  1  0  0  0  0
  7  9  1  0  0  0  0
  9 10  1  0  0  0  0
  9 11  1  0  0  0  0
  9 23  1  0  0  0  0
 11 12  1  0  0  0  0
 11 13  1  0  0  0  0
 11 14  1  0  0  0  0
 14 15  1  0  0  0  0
 14 21  2  0  0  0  0
 15 16  1  0  0  0  0
 15 17  2  0  0  0  0
 17 18  1  0  0  0  0
 17 19  1  0  0  0  0
 19 20  1  0  0  0  0
 19 21  1  0  0  0  0
 21 22  1  0  0  0  0
 23 24  2  0  0  0  0
 23 25  1  0  0  0  0
 25 26  1  0  0  0  0
 25 27  1  0  0  0  0
 27 28  1  0  0  0  0
 27 29  1  0  0  0  0
 27 30  1  0  0  0  0
M  CHG  1  15   1
M  END
$$$$

  -OEChem-04042216003D

 30 30  0     1  0  0  0  0  0999 V2000
   -3.1117   -3.9672    1.5132 H   0  0  0  0  0  0  0  0  0  0  0  0
   -3.1237   -3.1465    0.7894 C   0  0  0  0  0  0  0  0  0  0  0  0
   -3.8522   -2.4022    1.1181 H   0  0  0  0  0  0  0  0  0  0  0  0
   -3.4264   -3.5446   -0.1819 H   0  0  0  0  0  0  0  0  0  0  0  0
   -1.7440   -2.5244    0.6910 C   0  0  0  0  0  0  0  0  0  0  0  0
   -0.8344   -2.9519    1.3745 O   0  0  0  0  0  0  0  0  0  0  0  0
   -1.5120   -1.4608   -0.1646 N   0  0  0  0  0  0  0  0  0  0  0  0
   -2.3175   -1.0743   -0.6431 H   0  0  0  0  0  0  0  0  0  0  0  0
   -0.2072   -0.7653   -0.2582 C   0  0  1  0  0  0  0  0  0  0  0  0
    0.5552   -1.5245   -0.4757 H   0  0  0  0  0  0  0  0  0  0  0  0
   -0.1317    0.2926   -1.3829 C   0  0  0  0  0  0  0  0  0  0  0  0
    0.6111    1.0551   -1.1172 H   0  0  0  0  0  0  0  0  0  0  0  0
    0.2446   -0.1937   -2.2890 H   0  0  0  0  0  0  0  0  0  0  0  0
   -1.4447    0.9603   -1.7094 C   0  0  0  0  0  0  0  0  0  0  0  0
   -2.3917    0.5462   -2.6487 N   0  3  0  0  0  0  0  0  0  0  0  0
   -2.2526   -0.2634   -3.2613 H   0  0  0  0  0  0  0  0  0  0  0  0
   -3.3710    1.4175   -2.7137 C   0  0  0  0  0  0  0  0  0  0  0  0
   -4.2286    1.3819   -3.3899 H   0  0  0  0  0  0  0  0  0  0  0  0
   -3.0996    2.4176   -1.7809 N   0  0  0  0  0  0  0  0  0  0  0  0
   -3.6689    3.2549   -1.6179 H   0  0  0  0  0  0  0  0  0  0  0  0
   -1.8868    2.1378   -1.1627 C   0  0  0  0  0  0  0  0  0  0  0  0
   -1.3674    2.7340   -0.4094 H   0  0  0  0  0  0  0  0  0  0  0  0
    0.2449   -0.1247    1.0727 C   0  0  0  0  0  0  0  0  0  0  0  0
    1.4382    0.0683    1.2447 O   0  0  0  0  0  0  0  0  0  0  0  0
   -0.6593    0.5951    1.8365 N   0  0  0  0  0  0  0  0  0  0  0  0
   -1.6210    0.2767    1.7747 H   0  0  0  0  0  0  0  0  0  0  0  0
   -0.2505    1.2637    3.0705 C   0  0  0  0  0  0  0  0  0  0  0  0
    0.5169    2.0186    2.8669 H   0  0  0  0  0  0  0  0  0  0  0  0
   -1.1054    1.7627    3.5371 H   0  0  0  0  0  0  0  0  0  0  0  0
    0.1571    0.5370    3.7824 H   0  0  0  0  0  0  0  0  0  0  0  0
  1  2  1  0  0  0  0
  2  3  1  0  0  0  0
  2  4  1  0  0  0  0
  2  5  1  0  0  0  0
  5  6  2  0  0  0  0
  5  7  1  0  0  0  0
  7  8  1  0  0  0  0
  7  9  1  0  0  0  0
  9 10  1  0  0  0  0
  9 11  1  0  0  0  0
  9 23  1  0  0  0  0
 11 12  1  0  0  0  0
 11 13  1  0  0  0  0
 11 14  1  0  0  0  0
 14 15  1  0  0  0  0
 14 21  2  0  0  0  0
 15 16  1  0  0  0  0
 15 17  2  0  0  0  0
 17 18  1  0  0  0  0
 17 19  1  0  0  0  0
 19 20  1  0  0  0  0
 19 21  1  0  0  0  0
 21 22  1  0  0  0  0
 23 24  2  0  0  0  0
 23 25  1  0  0  0  0
 25 26  1  0  0  0  0
 25 27  1  0  0  0  0
 27 28  1  0  0  0  0
 27 29  1  0  0  0  0
 27 30  1  0  0  0  0
M  CHG  1  15   1
M  END
$$$$

  -OEChem-04042216003D

 30 30  0     1  0  0  0  0  0999 V2000
   -3.0623   -3.9411    1.5768 H   0  0  0  0  0  0  0  0  0  0  0  0
   -3.1058   -3.1062    0.8706 C   0  0  0  0  0  0  0  0  0  0  0  0
   -3.7616   -2.3357    1.2821 H   0  0  0  0  0  0  0  0  0  0  0  0
   -3.5211   -3.4699   -0.0722 H   0  0  0  0  0  0  0  0  0  0  0  0
   -1.7137   -2.5480    0.6454 C   0  0  0  0  0  0  0  0  0  0  0  0
   -0.7604   -3.0488    1.2091 O   0  0  0  0  0  0  0  0  0  0  0  0
   -1.5196   -1.4604   -0.1903 N   0  0  0  0  0  0  0  0  0  0  0  0
   -2.3598   -0.9667   -0.4688 H   0  0  0  0  0  0  0  0  0  0  0  0
   -0.2223   -0.7486   -0.2664 C   0  0  1  0  0  0  0  0  0  0  0  0
    0.5442   -1.5015   -0.4934 H   0  0  0  0  0  0  0  0  0  0  0  0
   -0.1358    0.3170   -1.3833 C   0  0  0  0  0  0  0  0  0  0  0  0
    0.6023    1.0784   -1.1019 H   0  0  0  0  0  0  0  0  0  0  0  0
    0.2559   -0.1664   -2.2846 H   0  0  0  0  0  0  0  0  0  0  0  0
   -1.4421    0.9847   -1.7402 C   0  0  0  0  0  0  0  0  0  0  0  0
   -2.4905    0.4362   -2.4830 N   0  3  0  0  0  0  0  0  0  0  0  0
   -2.4317   -0.4843   -2.9298 H   0  0  0  0  0  0  0  0  0  0  0  0
   -3.4412    1.3260   -2.6456 C   0  0  0  0  0  0  0  0  0  0  0  0
   -4.3591    1.1985   -3.2243 H   0  0  0  0  0  0  0  0  0  0  0  0
   -3.0489    2.4800   -1.9687 N   0  0  0  0  0  0  0  0  0  0  0  0
   -3.5730    3.3607   -1.9327 H   0  0  0  0  0  0  0  0  0  0  0  0
   -1.7931    2.2693   -1.4116 C   0  0  0  0  0  0  0  0  0  0  0  0
   -1.1902    2.9781   -0.8405 H   0  0  0  0  0  0  0  0  0  0  0  0
    0.2326   -0.1350    1.0761 C   0  0  0  0  0  0  0  0  0  0  0  0
    1.4267    0.0487    1.2525 O   0  0  0  0  0  0  0  0  0  0  0  0
   -0.6677    0.5602    1.8667 N   0  0  0  0  0  0  0  0  0  0  0  0
   -1.6380    0.2775    1.7845 H   0  0  0  0  0  0  0  0  0  0  0  0
   -0.2537    1.2102    3.1088 C   0  0  0  0  0  0  0  0  0  0  0  0
    0.5130    1.9677    2.9117 H   0  0  0  0  0  0  0  0  0  0  0  0
   -1.1064    1.7027    3.5860 H   0  0  0  0  0  0  0  0  0  0  0  0
    0.1571    0.4736    3.8084 H   0  0  0  0  0  0  0  0  0  0  0  0
  1  2  1  0  0  0  0
  2  3  1  0  0  0  0
  2  4  1  0  0  0  0
  2  5  1  0  0  0  0
  5  6  2  0  0  0  0
  5  7  1  0  0  0  0
  7  8  1  0  0  0  0
  7  9  1  0  0  0  0
  9 10  1  0  0  0  0
  9 11  1  0  0  0  0
  9 23  1  0  0  0  0
 11 12  1  0  0  0  0
 11 13  1  0  0  0  0
 11 14  1  0  0  0  0
 14 15  1  0  0  0  0
 14 21  2  0  0  0  0
 15 16  1  0  0  0  0
 15 17  2  0  0  0  0
 17 18  1  0  0  0  0
 17 19  1  0  0  0  0
 19 20  1  0  0  0  0
 19 21  1  0  0  0  0
 21 22  1  0  0  0  0
 23 24  2  0  0  0  0
 23 25  1  0  0  0  0
 25 26  1  0  0  0  0
 25 27  1  0  0  0  0
 27 28  1  0  0  0  0
 27 29  1  0  0  0  0
 27 30  1  0  0  0  0
M  CHG  1  15   1
M  END
$$$$

  -OEChem-04042216003D

 30 30  0     1  0  0  0  0  0999 V2000
   -2.9883   -3.9566    1.6461 H   0  0  0  0  0  0  0  0  0  0  0  0
   -3.0696   -3.1169    0.9488 C   0  0  0  0  0  0  0  0  0  0  0  0
   -3.6895   -2.3434    1.4072 H   0  0  0  0  0  0  0  0  0  0  0  0
   -3.5497   -3.4709    0.0336 H   0  0  0  0  0  0  0  0  0  0  0  0
   -1.6891   -2.5716    0.6362 C   0  0  0  0  0  0  0  0  0  0  0  0
   -0.7067   -3.1006    1.1180 O   0  0  0  0  0  0  0  0  0  0  0  0
   -1.5391   -1.4678   -0.1889 N   0  0  0  0  0  0  0  0  0  0  0  0
   -2.3905   -0.9401   -0.3417 H   0  0  0  0  0  0  0  0  0  0  0  0
   -0.2526   -0.7361   -0.2671 C   0  0  1  0  0  0  0  0  0  0  0  0
    0.5179   -1.4833   -0.5009 H   0  0  0  0  0  0  0  0  0  0  0  0
   -0.1571    0.3295   -1.3854 C   0  0  0  0  0  0  0  0  0  0  0  0
    0.5824    1.0877   -1.0996 H   0  0  0  0  0  0  0  0  0  0  0  0
    0.2443   -0.1632   -2.2777 H   0  0  0  0  0  0  0  0  0  0  0  0
   -1.4475    1.0067   -1.7845 C   0  0  0  0  0  0  0  0  0  0  0  0
   -2.5990    0.4062   -2.2996 N   0  3  0  0  0  0  0  0  0  0  0  0
   -2.6306   -0.5818   -2.5702 H   0  0  0  0  0  0  0  0  0  0  0  0
   -3.5069    1.3174   -2.5594 C   0  0  0  0  0  0  0  0  0  0  0  0
   -4.4825    1.1512   -3.0221 H   0  0  0  0  0  0  0  0  0  0  0  0
   -2.9825    2.5475   -2.1669 N   0  0  0  0  0  0  0  0  0  0  0  0
   -3.4492    3.4558   -2.2613 H   0  0  0  0  0  0  0  0  0  0  0  0
   -1.6917    2.3534   -1.6906 C   0  0  0  0  0  0  0  0  0  0  0  0
   -0.9983    3.1122   -1.3232 H   0  0  0  0  0  0  0  0  0  0  0  0
    0.2130   -0.1370    1.0786 C   0  0  0  0  0  0  0  0  0  0  0  0
    1.4081    0.0472    1.2468 O   0  0  0  0  0  0  0  0  0  0  0  0
   -0.6809    0.5349    1.8962 N   0  0  0  0  0  0  0  0  0  0  0  0
   -1.6568    0.2762    1.8066 H   0  0  0  0  0  0  0  0  0  0  0  0
   -0.2560    1.1738    3.1405 C   0  0  0  0  0  0  0  0  0  0  0  0
    0.4875    1.9531    2.9404 H   0  0  0  0  0  0  0  0  0  0  0  0
   -1.1099    1.6372    3.6440 H   0  0  0  0  0  0  0  0  0  0  0  0
    0.1871    0.4358    3.8185 H   0  0  0  0  0  0  0  0  0  0  0  0
  1  2  1  0  0  0  0
  2  3  1  0  0  0  0
  2  4  1  0  0  0  0
  2  5  1  0  0  0  0
  5  6  2  0  0  0  0
  5  7  1  0  0  0  0
  7  8  1  0  0  0  0
  7  9  1  0  0  0  0
  9 10  1  0  0  0  0
  9 11  1  0  0  0  0
  9 23  1  0  0  0  0
 11 12  1  0  0  0  0
 11 13  1  0  0  0  0
 11 14  1  0  0  0  0
 14 15  1  0  0  0  0
 14 21  2  0  0  0  0
 15 16  1  0  0  0  0
 15 17  2  0  0  0  0
 17 18  1  0  0  0  0
 17 19  1  0  0  0  0
 19 20  1  0  0  0  0
 19 21  1  0  0  0  0
 21 22  1  0  0  0  0
 23 24  2  0  0  0  0
 23 25  1  0  0  0  0
 25 26  1  0  0  0  0
 25 27  1  0  0  0  0
 27 28  1  0  0  0  0
 27 29  1  0  0  0  0
 27 30  1  0  0  0  0
M  CHG  1  15   1
M  END
$$$$

  -OEChem-04042216003D

 30 30  0     1  0  0  0  0  0999 V2000
   -2.8987   -3.9912    1.7178 H   0  0  0  0  0  0  0  0  0  0  0  0
   -3.0191   -3.1557    1.0210 C   0  0  0  0  0  0  0  0  0  0  0  0
   -3.6214   -2.3839    1.5053 H   0  0  0  0  0  0  0  0  0  0  0  0
   -3.5404   -3.5177    0.1317 H   0  0  0  0  0  0  0  0  0  0  0  0
   -1.6594   -2.6029    0.6386 C   0  0  0  0  0  0  0  0  0  0  0  0
   -0.6512   -3.1377    1.0563 O   0  0  0  0  0  0  0  0  0  0  0  0
   -1.5601   -1.4847   -0.1761 N   0  0  0  0  0  0  0  0  0  0  0  0
   -2.4191   -0.9512   -0.2302 H   0  0  0  0  0  0  0  0  0  0  0  0
   -0.2889   -0.7263   -0.2653 C   0  0  1  0  0  0  0  0  0  0  0  0
    0.4870   -1.4652   -0.5075 H   0  0  0  0  0  0  0  0  0  0  0  0
   -0.1918    0.3371   -1.3882 C   0  0  0  0  0  0  0  0  0  0  0  0
    0.5494    1.0943   -1.1036 H   0  0  0  0  0  0  0  0  0  0  0  0
    0.2172   -0.1692   -2.2695 H   0  0  0  0  0  0  0  0  0  0  0  0
   -1.4663    1.0213   -1.8315 C   0  0  0  0  0  0  0  0  0  0  0  0
   -2.7105    0.4496   -2.1099 N   0  3  0  0  0  0  0  0  0  0  0  0
   -2.8348   -0.5615   -2.2166 H   0  0  0  0  0  0  0  0  0  0  0  0
   -3.5684    1.3778   -2.4632 C   0  0  0  0  0  0  0  0  0  0  0  0
   -4.5938    1.2212   -2.8059 H   0  0  0  0  0  0  0  0  0  0  0  0
   -2.9169    2.6044   -2.3590 N   0  0  0  0  0  0  0  0  0  0  0  0
   -3.3238    3.5206   -2.5749 H   0  0  0  0  0  0  0  0  0  0  0  0
   -1.6020    2.3801   -1.9714 C   0  0  0  0  0  0  0  0  0  0  0  0
   -0.8230    3.1274   -1.8094 H   0  0  0  0  0  0  0  0  0  0  0  0
    0.1929   -0.1359    1.0792 C   0  0  0  0  0  0  0  0  0  0  0  0
    1.3883    0.0607    1.2296 O   0  0  0  0  0  0  0  0  0  0  0  0
   -0.6938    0.5087    1.9259 N   0  0  0  0  0  0  0  0  0  0  0  0
   -1.6701    0.2494    1.8477 H   0  0  0  0  0  0  0  0  0  0  0  0
   -0.2540    1.1500    3.1639 C   0  0  0  0  0  0  0  0  0  0  0  0
    0.4543    1.9580    2.9501 H   0  0  0  0  0  0  0  0  0  0  0  0
   -1.1084    1.5765    3.6987 H   0  0  0  0  0  0  0  0  0  0  0  0
    0.2360    0.4218    3.8201 H   0  0  0  0  0  0  0  0  0  0  0  0
  1  2  1  0  0  0  0
  2  3  1  0  0  0  0
  2  4  1  0  0  0  0
  2  5  1  0  0  0  0
  5  6  2  0  0  0  0
  5  7  1  0  0  0  0
  7  8  1  0  0  0  0
  7  9  1  0  0  0  0
  9 10  1  0  0  0  0
  9 11  1  0  0  0  0
  9 23  1  0  0  0  0
 11 12  1  0  0  0  0
 11 13  1  0  0  0  0
 11 14  1  0  0  0  0
 14 15  1  0  0  0  0
 14 21  2  0  0  0  0
 15 16  1  0  0  0  0
 15 17  2  0  0  0  0
 17 18  1  0  0  0  0
 17 19  1  0  0  0  0
 19 20  1  0  0  0  0
 19 21  1  0  0  0  0
 21 22  1  0  0  0  0
 23 24  2  0  0  0  0
 23 25  1  0  0  0  0
 25 26  1  0  0  0  0
 25 27  1  0  0  0  0
 27 28  1  0  0  0  0
 27 29  1  0  0  0  0
 27 30  1  0  0  0  0
M  CHG  1  15   1
M  END
$$$$

  -OEChem-04042216003D

 30 30  0     1  0  0  0  0  0999 V2000
   -2.9052   -4.2468    1.5190 H   0  0  0  0  0  0  0  0  0  0  0  0
   -2.9270   -3.5264    0.6953 C   0  0  0  0  0  0  0  0  0  0  0  0
   -3.9070   -3.0442    0.6810 H   0  0  0  0  0  0  0  0  0  0  0  0
   -2.7760   -4.0680   -0.2417 H   0  0  0  0  0  0  0  0  0  0  0  0
   -1.8349   -2.4911    0.8863 C   0  0  0  0  0  0  0  0  0  0  0  0
   -1.1637   -2.5108    1.8981 O   0  0  0  0  0  0  0  0  0  0  0  0
   -1.6350   -1.5086   -0.0742 N   0  0  0  0  0  0  0  0  0  0  0  0
   -2.0642   -1.7832   -0.9524 H   0  0  0  0  0  0  0  0  0  0  0  0
   -0.3087   -0.8544   -0.2289 C   0  0  1  0  0  0  0  0  0  0  0  0
    0.4428   -1.6250   -0.4424 H   0  0  0  0  0  0  0  0  0  0  0  0
   -0.2586    0.2227   -1.3490 C   0  0  0  0  0  0  0  0  0  0  0  0
    0.5636    0.9237   -1.1560 H   0  0  0  0  0  0  0  0  0  0  0  0
    0.0121   -0.3064   -2.2686 H   0  0  0  0  0  0  0  0  0  0  0  0
   -1.5226    1.0051   -1.6636 C   0  0  0  0  0  0  0  0  0  0  0  0
   -2.8738    0.6606   -1.5659 N   0  3  0  0  0  0  0  0  0  0  0  0
   -3.1892   -0.2072   -1.1307 H   0  0  0  0  0  0  0  0  0  0  0  0
   -3.6367    1.6649   -1.9269 C   0  0  0  0  0  0  0  0  0  0  0  0
   -4.7282    1.6936   -1.9108 H   0  0  0  0  0  0  0  0  0  0  0  0
   -2.7941    2.7031   -2.3103 N   0  0  0  0  0  0  0  0  0  0  0  0
   -3.0907    3.6286   -2.6369 H   0  0  0  0  0  0  0  0  0  0  0  0
   -1.4788    2.2951   -2.1345 C   0  0  0  0  0  0  0  0  0  0  0  0
   -0.5782    2.8812   -2.3245 H   0  0  0  0  0  0  0  0  0  0  0  0
    0.1858   -0.1179    1.0416 C   0  0  0  0  0  0  0  0  0  0  0  0
    1.3913    0.0165    1.1898 O   0  0  0  0  0  0  0  0  0  0  0  0
   -0.6738    0.6915    1.7643 N   0  0  0  0  0  0  0  0  0  0  0  0
   -1.6437    0.3931    1.7547 H   0  0  0  0  0  0  0  0  0  0  0  0
   -0.2135    1.4342    2.9354 C   0  0  0  0  0  0  0  0  0  0  0  0
    0.5948    2.1220    2.6641 H   0  0  0  0  0  0  0  0  0  0  0  0
   -1.0326    2.0210    3.3624 H   0  0  0  0  0  0  0  0  0  0  0  0
    0.1576    0.7459    3.7030 H   0  0  0  0  0  0  0  0  0  0  0  0
  1  2  1  0  0  0  0
  2  3  1  0  0  0  0
  2  4  1  0  0  0  0
  2  5  1  0  0  0  0
  5  6  2  0  0  0  0
  5  7  1  0  0  0  0
  7  8  1  0  0  0  0
  7  9  1  0  0  0  0
  9 10  1  0  0  0  0
  9 11  1  0  0  0  0
  9 23  1  0  0  0  0
 11 12  1  0  0  0  0
 11 13  1  0  0  0  0
 11 14  1  0  0  0  0
 14 15  1  0  0  0  0
 14 21  2  0  0  0  0
 15 16  1  0  0  0  0
 15 17  2  0  0  0  0
 17 18  1  0  0  0  0
 17 19  1  0  0  0  0
 19 20  1  0  0  0  0
 19 21  1  0  0  0  0
 21 22  1  0  0  0  0
 23 24  2  0  0  0  0
 23 25  1  0  0  0  0
 25 26  1  0  0  0  0
 25 27  1  0  0  0  0
 27 28  1  0  0  0  0
 27 29  1  0  0  0  0
 27 30  1  0  0  0  0
M  CHG  1  15   1
M  END
$$$$

  -OEChem-04042216003D

 30 30  0     1  0  0  0  0  0999 V2000
   -2.9146   -4.2681    1.4682 H   0  0  0  0  0  0  0  0  0  0  0  0
   -2.9467   -3.5242    0.6660 C   0  0  0  0  0  0  0  0  0  0  0  0
   -3.9313   -3.0512    0.6687 H   0  0  0  0  0  0  0  0  0  0  0  0
   -2.7951   -4.0373   -0.2869 H   0  0  0  0  0  0  0  0  0  0  0  0
   -1.8623   -2.4851    0.8806 C   0  0  0  0  0  0  0  0  0  0  0  0
   -1.2068   -2.5050    1.9026 O   0  0  0  0  0  0  0  0  0  0  0  0
   -1.6574   -1.4881   -0.0632 N   0  0  0  0  0  0  0  0  0  0  0  0
   -2.1072   -1.7273   -0.9434 H   0  0  0  0  0  0  0  0  0  0  0  0
   -0.3255   -0.8433   -0.2174 C   0  0  1  0  0  0  0  0  0  0  0  0
    0.4140   -1.6230   -0.4407 H   0  0  0  0  0  0  0  0  0  0  0  0
   -0.2682    0.2301   -1.3416 C   0  0  0  0  0  0  0  0  0  0  0  0
    0.5523    0.9322   -1.1446 H   0  0  0  0  0  0  0  0  0  0  0  0
    0.0062   -0.3007   -2.2593 H   0  0  0  0  0  0  0  0  0  0  0  0
   -1.5264    1.0180   -1.6604 C   0  0  0  0  0  0  0  0  0  0  0  0
   -2.8582    0.7874   -1.3083 N   0  3  0  0  0  0  0  0  0  0  0  0
   -3.1272    0.0468   -0.6560 H   0  0  0  0  0  0  0  0  0  0  0  0
   -3.6319    1.7421   -1.7669 C   0  0  0  0  0  0  0  0  0  0  0  0
   -4.7068    1.8451   -1.6045 H   0  0  0  0  0  0  0  0  0  0  0  0
   -2.8201    2.6208   -2.4778 N   0  0  0  0  0  0  0  0  0  0  0  0
   -3.1300    3.4777   -2.9477 H   0  0  0  0  0  0  0  0  0  0  0  0
   -1.5070    2.1749   -2.4007 C   0  0  0  0  0  0  0  0  0  0  0  0
   -0.6243    2.6492   -2.8327 H   0  0  0  0  0  0  0  0  0  0  0  0
    0.1930   -0.1311    1.0567 C   0  0  0  0  0  0  0  0  0  0  0  0
    1.4014    0.0003    1.1806 O   0  0  0  0  0  0  0  0  0  0  0  0
   -0.6495    0.6764    1.8014 N   0  0  0  0  0  0  0  0  0  0  0  0
   -1.6103    0.3530    1.8410 H   0  0  0  0  0  0  0  0  0  0  0  0
   -0.1554    1.4258    2.9544 C   0  0  0  0  0  0  0  0  0  0  0  0
    0.6358    2.1212    2.6537 H   0  0  0  0  0  0  0  0  0  0  0  0
   -0.9648    2.0054    3.4088 H   0  0  0  0  0  0  0  0  0  0  0  0
    0.2493    0.7433    3.7102 H   0  0  0  0  0  0  0  0  0  0  0  0
  1  2  1  0  0  0  0
  2  3  1  0  0  0  0
  2  4  1  0  0  0  0
  2  5  1  0  0  0  0
  5  6  2  0  0  0  0
  5  7  1  0  0  0  0
  7  8  1  0  0  0  0
  7  9  1  0  0  0  0
  9 10  1  0  0  0  0
  9 11  1  0  0  0  0
  9 23  1  0  0  0  0
 11 12  1  0  0  0  0
 11 13  1  0  0  0  0
 11 14  1  0  0  0  0
 14 15  1  0  0  0  0
 14 21  2  0  0  0  0
 15 16  1  0  0  0  0
 15 17  2  0  0  0  0
 17 18  1  0  0  0  0
 17 19  1  0  0  0  0
 19 20  1  0  0  0  0
 19 21  1  0  0  0  0
 21 22  1  0  0  0  0
 23 24  2  0  0  0  0
 23 25  1  0  0  0  0
 25 26  1  0  0  0  0
 25 27  1  0  0  0  0
 27 28  1  0  0  0  0
 27 29  1  0  0  0  0
 27 30  1  0  0  0  0
M  CHG  1  15   1
M  END
$$$$

  -OEChem-04042216003D

 30 30  0     1  0  0  0  0  0999 V2000
   -3.0069   -4.2174    1.4540 H   0  0  0  0  0  0  0  0  0  0  0  0
   -2.9924   -3.4905    0.6359 C   0  0  0  0  0  0  0  0  0  0  0  0
   -3.9619   -2.9887    0.5982 H   0  0  0  0  0  0  0  0  0  0  0  0
   -2.8275   -4.0274   -0.3017 H   0  0  0  0  0  0  0  0  0  0  0  0
   -1.8841   -2.4797    0.8617 C   0  0  0  0  0  0  0  0  0  0  0  0
   -1.2220   -2.5279    1.8787 O   0  0  0  0  0  0  0  0  0  0  0  0
   -1.6669   -1.4655   -0.0591 N   0  0  0  0  0  0  0  0  0  0  0  0
   -2.1478   -1.6481   -0.9373 H   0  0  0  0  0  0  0  0  0  0  0  0
   -0.3313   -0.8279   -0.2040 C   0  0  1  0  0  0  0  0  0  0  0  0
    0.3979   -1.6156   -0.4330 H   0  0  0  0  0  0  0  0  0  0  0  0
   -0.2634    0.2375   -1.3346 C   0  0  0  0  0  0  0  0  0  0  0  0
    0.5453    0.9485   -1.1230 H   0  0  0  0  0  0  0  0  0  0  0  0
    0.0309   -0.2907   -2.2478 H   0  0  0  0  0  0  0  0  0  0  0  0
   -1.5213    1.0192   -1.6622 C   0  0  0  0  0  0  0  0  0  0  0  0
   -2.7931    0.9433   -1.0911 N   0  3  0  0  0  0  0  0  0  0  0  0
   -2.9930    0.3373   -0.2907 H   0  0  0  0  0  0  0  0  0  0  0  0
   -3.5979    1.8268   -1.6309 C   0  0  0  0  0  0  0  0  0  0  0  0
   -4.6369    2.0181   -1.3539 H   0  0  0  0  0  0  0  0  0  0  0  0
   -2.8705    2.4957   -2.6117 N   0  0  0  0  0  0  0  0  0  0  0  0
   -3.2199    3.2579   -3.2018 H   0  0  0  0  0  0  0  0  0  0  0  0
   -1.5735    1.9975   -2.6243 C   0  0  0  0  0  0  0  0  0  0  0  0
   -0.7476    2.3243   -3.2581 H   0  0  0  0  0  0  0  0  0  0  0  0
    0.2041   -0.1424    1.0776 C   0  0  0  0  0  0  0  0  0  0  0  0
    1.4139   -0.0034    1.1776 O   0  0  0  0  0  0  0  0  0  0  0  0
   -0.6260    0.6594    1.8428 N   0  0  0  0  0  0  0  0  0  0  0  0
   -1.5696    0.2992    1.9381 H   0  0  0  0  0  0  0  0  0  0  0  0
   -0.1007    1.4217    2.9742 C   0  0  0  0  0  0  0  0  0  0  0  0
    0.6652    2.1304    2.6405 H   0  0  0  0  0  0  0  0  0  0  0  0
   -0.9020    1.9887    3.4581 H   0  0  0  0  0  0  0  0  0  0  0  0
    0.3460    0.7499    3.7160 H   0  0  0  0  0  0  0  0  0  0  0  0
  1  2  1  0  0  0  0
  2  3  1  0  0  0  0
  2  4  1  0  0  0  0
  2  5  1  0  0  0  0
  5  6  2  0  0  0  0
  5  7  1  0  0  0  0
  7  8  1  0  0  0  0
  7  9  1  0  0  0  0
  9 10  1  0  0  0  0
  9 11  1  0  0  0  0
  9 23  1  0  0  0  0
 11 12  1  0  0  0  0
 11 13  1  0  0  0  0
 11 14  1  0  0  0  0
 14 15  1  0  0  0  0
 14 21  2  0  0  0  0
 15 16  1  0  0  0  0
 15 17  2  0  0  0  0
 17 18  1  0  0  0  0
 17 19  1  0  0  0  0
 19 20  1  0  0  0  0
 19 21  1  0  0  0  0
 21 22  1  0  0  0  0
 23 24  2  0  0  0  0
 23 25  1  0  0  0  0
 25 26  1  0  0  0  0
 25 27  1  0  0  0  0
 27 28  1  0  0  0  0
 27 29  1  0  0  0  0
 27 30  1  0  0  0  0
M  CHG  1  15   1
M  END
$$$$

  -OEChem-04042216003D

 30 30  0     1  0  0  0  0  0999 V2000
   -3.0616   -4.2008    1.3728 H   0  0  0  0  0  0  0  0  0  0  0  0
   -3.0571   -3.4270    0.5990 C   0  0  0  0  0  0  0  0  0  0  0  0
   -4.0064   -2.8881    0.6385 H   0  0  0  0  0  0  0  0  0  0  0  0
   -2.9579   -3.9120   -0.3751 H   0  0  0  0  0  0  0  0  0  0  0  0
   -1.9008   -2.4727    0.8282 C   0  0  0  0  0  0  0  0  0  0  0  0
   -1.2261   -2.5685    1.8340 O   0  0  0  0  0  0  0  0  0  0  0  0
   -1.6569   -1.4433   -0.0670 N   0  0  0  0  0  0  0  0  0  0  0  0
   -2.1734   -1.5522   -0.9371 H   0  0  0  0  0  0  0  0  0  0  0  0
   -0.3158   -0.8163   -0.1960 C   0  0  1  0  0  0  0  0  0  0  0  0
    0.4054   -1.6106   -0.4272 H   0  0  0  0  0  0  0  0  0  0  0  0
   -0.2308    0.2448   -1.3280 C   0  0  0  0  0  0  0  0  0  0  0  0
    0.5659    0.9628   -1.0961 H   0  0  0  0  0  0  0  0  0  0  0  0
    0.0851   -0.2751   -2.2385 H   0  0  0  0  0  0  0  0  0  0  0  0
   -1.4911    1.0190   -1.6556 C   0  0  0  0  0  0  0  0  0  0  0  0
   -2.6613    1.1298   -0.9036 N   0  3  0  0  0  0  0  0  0  0  0  0
   -2.7528    0.7059    0.0235 H   0  0  0  0  0  0  0  0  0  0  0  0
   -3.5235    1.9155   -1.5021 C   0  0  0  0  0  0  0  0  0  0  0  0
   -4.5060    2.2099   -1.1271 H   0  0  0  0  0  0  0  0  0  0  0  0
   -2.9412    2.3229   -2.7000 N   0  0  0  0  0  0  0  0  0  0  0  0
   -3.3626    2.9590   -3.3847 H   0  0  0  0  0  0  0  0  0  0  0  0
   -1.6707    1.7665   -2.7931 C   0  0  0  0  0  0  0  0  0  0  0  0
   -0.9464    1.9049   -3.5971 H   0  0  0  0  0  0  0  0  0  0  0  0
    0.2167   -0.1623    1.1021 C   0  0  0  0  0  0  0  0  0  0  0  0
    1.4242    0.0015    1.1902 O   0  0  0  0  0  0  0  0  0  0  0  0
   -0.6218    0.6279    1.8717 N   0  0  0  0  0  0  0  0  0  0  0  0
   -1.5262    0.1966    2.0366 H   0  0  0  0  0  0  0  0  0  0  0  0
   -0.0873    1.4319    2.9704 C   0  0  0  0  0  0  0  0  0  0  0  0
    0.6480    2.1543    2.5992 H   0  0  0  0  0  0  0  0  0  0  0  0
   -0.8906    1.9870    3.4646 H   0  0  0  0  0  0  0  0  0  0  0  0
    0.3997    0.7909    3.7140 H   0  0  0  0  0  0  0  0  0  0  0  0
  1  2  1  0  0  0  0
  2  3  1  0  0  0  0
  2  4  1  0  0  0  0
  2  5  1  0  0  0  0
  5  6  2  0  0  0  0
  5  7  1  0  0  0  0
  7  8  1  0  0  0  0
  7  9  1  0  0  0  0
  9 10  1  0  0  0  0
  9 11  1  0  0  0  0
  9 23  1  0  0  0  0
 11 12  1  0  0  0  0
 11 13  1  0  0  0  0
 11 14  1  0  0  0  0
 14 15  1  0  0  0  0
 14 21  2  0  0  0  0
 15 16  1  0  0  0  0
 15 17  2  0  0  0  0
 17 18  1  0  0  0  0
 17 19  1  0  0  0  0
 19 20  1  0  0  0  0
 19 21  1  0  0  0  0
 21 22  1  0  0  0  0
 23 24  2  0  0  0  0
 23 25  1  0  0  0  0
 25 26  1  0  0  0  0
 25 27  1  0  0  0  0
 27 28  1  0  0  0  0
 27 29  1  0  0  0  0
 27 30  1  0  0  0  0
M  CHG  1  15   1
M  END
$$$$

  -OEChem-04042216003D

 30 30  0     1  0  0  0  0  0999 V2000
   -3.1460   -4.1352    1.3428 H   0  0  0  0  0  0  0  0  0  0  0  0
   -3.1072   -3.3626    0.5688 C   0  0  0  0  0  0  0  0  0  0  0  0
   -4.0298   -2.7793    0.6103 H   0  0  0  0  0  0  0  0  0  0  0  0
   -3.0340   -3.8515   -0.4057 H   0  0  0  0  0  0  0  0  0  0  0  0
   -1.9071   -2.4629    0.7939 C   0  0  0  0  0  0  0  0  0  0  0  0
   -1.2250   -2.5977    1.7907 O   0  0  0  0  0  0  0  0  0  0  0  0
   -1.6298   -1.4341   -0.0911 N   0  0  0  0  0  0  0  0  0  0  0  0
   -2.1750   -1.4803   -0.9486 H   0  0  0  0  0  0  0  0  0  0  0  0
   -0.2832   -0.8184   -0.2059 C   0  0  1  0  0  0  0  0  0  0  0  0
    0.4361   -1.6163   -0.4287 H   0  0  0  0  0  0  0  0  0  0  0  0
   -0.1825    0.2421   -1.3357 C   0  0  0  0  0  0  0  0  0  0  0  0
    0.6092    0.9616   -1.0920 H   0  0  0  0  0  0  0  0  0  0  0  0
    0.1418   -0.2708   -2.2473 H   0  0  0  0  0  0  0  0  0  0  0  0
   -1.4480    1.0085   -1.6507 C   0  0  0  0  0  0  0  0  0  0  0  0
   -2.4726    1.3273   -0.7598 N   0  3  0  0  0  0  0  0  0  0  0  0
   -2.4011    1.1281    0.2426 H   0  0  0  0  0  0  0  0  0  0  0  0
   -3.4074    2.0200   -1.3639 C   0  0  0  0  0  0  0  0  0  0  0  0
   -4.3022    2.4441   -0.9033 H   0  0  0  0  0  0  0  0  0  0  0  0
   -3.0306    2.1368   -2.7004 N   0  0  0  0  0  0  0  0  0  0  0  0
   -3.5498    2.6421   -3.4258 H   0  0  0  0  0  0  0  0  0  0  0  0
   -1.8031    1.5082   -2.8786 C   0  0  0  0  0  0  0  0  0  0  0  0
   -1.2234    1.4379   -3.8003 H   0  0  0  0  0  0  0  0  0  0  0  0
    0.2233   -0.1770    1.1073 C   0  0  0  0  0  0  0  0  0  0  0  0
    1.4252    0.0169    1.2075 O   0  0  0  0  0  0  0  0  0  0  0  0
   -0.6432    0.6083    1.8527 N   0  0  0  0  0  0  0  0  0  0  0  0
   -1.5099    0.1165    2.0574 H   0  0  0  0  0  0  0  0  0  0  0  0
   -0.1291    1.4499    2.9337 C   0  0  0  0  0  0  0  0  0  0  0  0
    0.5896    2.1809    2.5470 H   0  0  0  0  0  0  0  0  0  0  0  0
   -0.9458    1.9961    3.4158 H   0  0  0  0  0  0  0  0  0  0  0  0
    0.3729    0.8377    3.6917 H   0  0  0  0  0  0  0  0  0  0  0  0
  1  2  1  0  0  0  0
  2  3  1  0  0  0  0
  2  4  1  0  0  0  0
  2  5  1  0  0  0  0
  5  6  2  0  0  0  0
  5  7  1  0  0  0  0
  7  8  1  0  0  0  0
  7  9  1  0  0  0  0
  9 10  1  0  0  0  0
  9 11  1  0  0  0  0
  9 23  1  0  0  0  0
 11 12  1  0  0  0  0
 11 13  1  0  0  0  0
 11 14  1  0  0  0  0
 14 15  1  0  0  0  0
 14 21  2  0  0  0  0
 15 16  1  0  0  0  0
 15 17  2  0  0  0  0
 17 18  1  0  0  0  0
 17 19  1  0  0  0  0
 19 20  1  0  0  0  0
 19 21  1  0  0  0  0
 21 22  1  0  0  0  0
 23 24  2  0  0  0  0
 23 25  1  0  0  0  0
 25 26  1  0  0  0  0
 25 27  1  0  0  0  0
 27 28  1  0  0  0  0
 27 29  1  0  0  0  0
 27 30  1  0  0  0  0
M  CHG  1  15   1
M  END
$$$$

  -OEChem-04042216003D

 30 30  0     1  0  0  0  0  0999 V2000
   -3.2097   -4.0450    1.3795 H   0  0  0  0  0  0  0  0  0  0  0  0
   -3.1267   -3.3124    0.5709 C   0  0  0  0  0  0  0  0  0  0  0  0
   -4.0261   -2.6927    0.5670 H   0  0  0  0  0  0  0  0  0  0  0  0
   -3.0554   -3.8493   -0.3780 H   0  0  0  0  0  0  0  0  0  0  0  0
   -1.8959   -2.4504    0.7761 C   0  0  0  0  0  0  0  0  0  0  0  0
   -1.1967   -2.6127    1.7571 O   0  0  0  0  0  0  0  0  0  0  0  0
   -1.5998   -1.4324   -0.1145 N   0  0  0  0  0  0  0  0  0  0  0  0
   -2.1659   -1.4426   -0.9589 H   0  0  0  0  0  0  0  0  0  0  0  0
   -0.2526   -0.8182   -0.2219 C   0  0  1  0  0  0  0  0  0  0  0  0
    0.4719   -1.6157   -0.4296 H   0  0  0  0  0  0  0  0  0  0  0  0
   -0.1470    0.2342   -1.3564 C   0  0  0  0  0  0  0  0  0  0  0  0
    0.6407    0.9599   -1.1183 H   0  0  0  0  0  0  0  0  0  0  0  0
    0.1776   -0.2828   -2.2655 H   0  0  0  0  0  0  0  0  0  0  0  0
   -1.4247    0.9793   -1.6606 C   0  0  0  0  0  0  0  0  0  0  0  0
   -2.2822    1.5239   -0.7055 N   0  3  0  0  0  0  0  0  0  0  0  0
   -2.0572    1.5163    0.2957 H   0  0  0  0  0  0  0  0  0  0  0  0
   -3.2824    2.1386   -1.2887 C   0  0  0  0  0  0  0  0  0  0  0  0
   -4.0812    2.6936   -0.7922 H   0  0  0  0  0  0  0  0  0  0  0  0
   -3.1196    1.9734   -2.6635 N   0  0  0  0  0  0  0  0  0  0  0  0
   -3.7328    2.3607   -3.3881 H   0  0  0  0  0  0  0  0  0  0  0  0
   -1.9530    1.2528   -2.8968 C   0  0  0  0  0  0  0  0  0  0  0  0
   -1.5263    0.9768   -3.8622 H   0  0  0  0  0  0  0  0  0  0  0  0
    0.2257   -0.1650    1.0954 C   0  0  0  0  0  0  0  0  0  0  0  0
    1.4226    0.0432    1.2183 O   0  0  0  0  0  0  0  0  0  0  0  0
   -0.6628    0.6231    1.8134 N   0  0  0  0  0  0  0  0  0  0  0  0
   -1.5389    0.1323    1.9818 H   0  0  0  0  0  0  0  0  0  0  0  0
   -0.1821    1.4516    2.9202 C   0  0  0  0  0  0  0  0  0  0  0  0
    0.5388    2.1955    2.5629 H   0  0  0  0  0  0  0  0  0  0  0  0
   -1.0146    1.9819    3.3930 H   0  0  0  0  0  0  0  0  0  0  0  0
    0.3079    0.8317    3.6798 H   0  0  0  0  0  0  0  0  0  0  0  0
  1  2  1  0  0  0  0
  2  3  1  0  0  0  0
  2  4  1  0  0  0  0
  2  5  1  0  0  0  0
  5  6  2  0  0  0  0
  5  7  1  0  0  0  0
  7  8  1  0  0  0  0
  7  9  1  0  0  0  0
  9 10  1  0  0  0  0
  9 11  1  0  0  0  0
  9 23  1  0  0  0  0
 11 12  1  0  0  0  0
 11 13  1  0  0  0  0
 11 14  1  0  0  0  0
 14 15  1  0  0  0  0
 14 21  2  0  0  0  0
 15 16  1  0  0  0  0
 15 17  2  0  0  0  0
 17 18  1  0  0  0  0
 17 19  1  0  0  0  0
 19 20  1  0  0  0  0
 19 21  1  0  0  0  0
 21 22  1  0  0  0  0
 23 24  2  0  0  0  0
 23 25  1  0  0  0  0
 25 26  1  0  0  0  0
 25 27  1  0  0  0  0
 27 28  1  0  0  0  0
 27 29  1  0  0  0  0
 27 30  1  0  0  0  0
M  CHG  1  15   1
M  END
$$$$

  -OEChem-04042216003D

 30 30  0     1  0  0  0  0  0999 V2000
   -3.1775   -4.0507    1.3788 H   0  0  0  0  0  0  0  0  0  0  0  0
   -3.1296   -3.2815    0.6018 C   0  0  0  0  0  0  0  0  0  0  0  0
   -4.0180   -2.6505    0.6785 H   0  0  0  0  0  0  0  0  0  0  0  0
   -3.1198   -3.7735   -0.3738 H   0  0  0  0  0  0  0  0  0  0  0  0
   -1.8770   -2.4450    0.7777 C   0  0  0  0  0  0  0  0  0  0  0  0
   -1.1572   -2.6233    1.7410 O   0  0  0  0  0  0  0  0  0  0  0  0
   -1.5769   -1.4399   -0.1258 N   0  0  0  0  0  0  0  0  0  0  0  0
   -2.1580   -1.4340   -0.9595 H   0  0  0  0  0  0  0  0  0  0  0  0
   -0.2336   -0.8186   -0.2318 C   0  0  1  0  0  0  0  0  0  0  0  0
    0.4995   -1.6116   -0.4258 H   0  0  0  0  0  0  0  0  0  0  0  0
   -0.1318    0.2247   -1.3720 C   0  0  0  0  0  0  0  0  0  0  0  0
    0.6521    0.9585   -1.1465 H   0  0  0  0  0  0  0  0  0  0  0  0
    0.1897   -0.2993   -2.2784 H   0  0  0  0  0  0  0  0  0  0  0  0
   -1.4241    0.9446   -1.6689 C   0  0  0  0  0  0  0  0  0  0  0  0
   -2.1166    1.7213   -0.7413 N   0  3  0  0  0  0  0  0  0  0  0  0
   -1.7760    1.8631    0.2173 H   0  0  0  0  0  0  0  0  0  0  0  0
   -3.1675    2.2690   -1.3015 C   0  0  0  0  0  0  0  0  0  0  0  0
   -3.8777    2.9472   -0.8236 H   0  0  0  0  0  0  0  0  0  0  0  0
   -3.1957    1.8399   -2.6284 N   0  0  0  0  0  0  0  0  0  0  0  0
   -3.8850    2.1239   -3.3324 H   0  0  0  0  0  0  0  0  0  0  0  0
   -2.0981    1.0169   -2.8618 C   0  0  0  0  0  0  0  0  0  0  0  0
   -1.8099    0.5459   -3.8028 H   0  0  0  0  0  0  0  0  0  0  0  0
    0.2271   -0.1405    1.0792 C   0  0  0  0  0  0  0  0  0  0  0  0
    1.4215    0.0704    1.2200 O   0  0  0  0  0  0  0  0  0  0  0  0
   -0.6713    0.6541    1.7773 N   0  0  0  0  0  0  0  0  0  0  0  0
   -1.5753    0.1976    1.8822 H   0  0  0  0  0  0  0  0  0  0  0  0
   -0.2195    1.4454    2.9227 C   0  0  0  0  0  0  0  0  0  0  0  0
    0.5274    2.1851    2.6134 H   0  0  0  0  0  0  0  0  0  0  0  0
   -1.0606    1.9778    3.3775 H   0  0  0  0  0  0  0  0  0  0  0  0
    0.2302    0.7969    3.6836 H   0  0  0  0  0  0  0  0  0  0  0  0
  1  2  1  0  0  0  0
  2  3  1  0  0  0  0
  2  4  1  0  0  0  0
  2  5  1  0  0  0  0
  5  6  2  0  0  0  0
  5  7  1  0  0  0  0
  7  8  1  0  0  0  0
  7  9  1  0  0  0  0
  9 10  1  0  0  0  0
  9 11  1  0  0  0  0
  9 23  1  0  0  0  0
 11 12  1  0  0  0  0
 11 13  1  0  0  0  0
 11 14  1  0  0  0  0
 14 15  1  0  0  0  0
 14 21  2  0  0  0  0
 15 16  1  0  0  0  0
 15 17  2  0  0  0  0
 17 18  1  0  0  0  0
 17 19  1  0  0  0  0
 19 20  1  0  0  0  0
 19 21  1  0  0  0  0
 21 22  1  0  0  0  0
 23 24  2  0  0  0  0
 23 25  1  0  0  0  0
 25 26  1  0  0  0  0
 25 27  1  0  0  0  0
 27 28  1  0  0  0  0
 27 29  1  0  0  0  0
 27 30  1  0  0  0  0
M  CHG  1  15   1
M  END
$$$$

  -OEChem-04042216003D

 30 30  0     1  0  0  0  0  0999 V2000
   -3.1457   -4.0504    1.4253 H   0  0  0  0  0  0  0  0  0  0  0  0
   -3.1179   -3.2750    0.6536 C   0  0  0  0  0  0  0  0  0  0  0  0
   -3.9949   -2.6340    0.7696 H   0  0  0  0  0  0  0  0  0  0  0  0
   -3.1514   -3.7584   -0.3256 H   0  0  0  0  0  0  0  0  0  0  0  0
   -1.8493   -2.4551    0.7895 C   0  0  0  0  0  0  0  0  0  0  0  0
   -1.0990   -2.6492    1.7261 O   0  0  0  0  0  0  0  0  0  0  0  0
   -1.5599   -1.4576   -0.1262 N   0  0  0  0  0  0  0  0  0  0  0  0
   -2.1644   -1.4348   -0.9418 H   0  0  0  0  0  0  0  0  0  0  0  0
   -0.2239   -0.8233   -0.2413 C   0  0  1  0  0  0  0  0  0  0  0  0
    0.5188   -1.6083   -0.4318 H   0  0  0  0  0  0  0  0  0  0  0  0
   -0.1370    0.2209   -1.3796 C   0  0  0  0  0  0  0  0  0  0  0  0
    0.6482    0.9580   -1.1700 H   0  0  0  0  0  0  0  0  0  0  0  0
    0.1745   -0.3056   -2.2878 H   0  0  0  0  0  0  0  0  0  0  0  0
   -1.4403    0.9247   -1.6628 C   0  0  0  0  0  0  0  0  0  0  0  0
   -1.9778    1.9172   -0.8445 N   0  3  0  0  0  0  0  0  0  0  0  0
   -1.5382    2.1997    0.0394 H   0  0  0  0  0  0  0  0  0  0  0  0
   -3.0637    2.4130   -1.3857 C   0  0  0  0  0  0  0  0  0  0  0  0
   -3.6860    3.2113   -0.9753 H   0  0  0  0  0  0  0  0  0  0  0  0
   -3.2648    1.7424   -2.5919 N   0  0  0  0  0  0  0  0  0  0  0  0
   -4.0154    1.9361   -3.2631 H   0  0  0  0  0  0  0  0  0  0  0  0
   -2.2394    0.8194   -2.7735 C   0  0  0  0  0  0  0  0  0  0  0  0
   -2.0763    0.1709   -3.6356 H   0  0  0  0  0  0  0  0  0  0  0  0
    0.2298   -0.1241    1.0610 C   0  0  0  0  0  0  0  0  0  0  0  0
    1.4228    0.0894    1.2107 O   0  0  0  0  0  0  0  0  0  0  0  0
   -0.6734    0.6705    1.7516 N   0  0  0  0  0  0  0  0  0  0  0  0
   -1.6019    0.2564    1.7948 H   0  0  0  0  0  0  0  0  0  0  0  0
   -0.2455    1.4289    2.9274 C   0  0  0  0  0  0  0  0  0  0  0  0
    0.5258    2.1595    2.6591 H   0  0  0  0  0  0  0  0  0  0  0  0
   -1.0911    1.9686    3.3645 H   0  0  0  0  0  0  0  0  0  0  0  0
    0.1653    0.7557    3.6888 H   0  0  0  0  0  0  0  0  0  0  0  0
  1  2  1  0  0  0  0
  2  3  1  0  0  0  0
  2  4  1  0  0  0  0
  2  5  1  0  0  0  0
  5  6  2  0  0  0  0
  5  7  1  0  0  0  0
  7  8  1  0  0  0  0
  7  9  1  0  0  0  0
  9 10  1  0  0  0  0
  9 11  1  0  0  0  0
  9 23  1  0  0  0  0
 11 12  1  0  0  0  0
 11 13  1  0  0  0  0
 11 14  1  0  0  0  0
 14 15  1  0  0  0  0
 14 21  2  0  0  0  0
 15 16  1  0  0  0  0
 15 17  2  0  0  0  0
 17 18  1  0  0  0  0
 17 19  1  0  0  0  0
 19 20  1  0  0  0  0
 19 21  1  0  0  0  0
 21 22  1  0  0  0  0
 23 24  2  0  0  0  0
 23 25  1  0  0  0  0
 25 26  1  0  0  0  0
 25 27  1  0  0  0  0
 27 28  1  0  0  0  0
 27 29  1  0  0  0  0
 27 30  1  0  0  0  0
M  CHG  1  15   1
M  END
$$$$

  -OEChem-04042216003D

 30 30  0     1  0  0  0  0  0999 V2000
   -3.1320   -4.0365    1.4804 H   0  0  0  0  0  0  0  0  0  0  0  0
   -3.1085   -3.2683    0.7014 C   0  0  0  0  0  0  0  0  0  0  0  0
   -3.9728   -2.6129    0.8305 H   0  0  0  0  0  0  0  0  0  0  0  0
   -3.1705   -3.7593   -0.2726 H   0  0  0  0  0  0  0  0  0  0  0  0
   -1.8241   -2.4681    0.8023 C   0  0  0  0  0  0  0  0  0  0  0  0
   -1.0397   -2.6904    1.7040 O   0  0  0  0  0  0  0  0  0  0  0  0
   -1.5508   -1.4682   -0.1156 N   0  0  0  0  0  0  0  0  0  0  0  0
   -2.1883   -1.4127   -0.9029 H   0  0  0  0  0  0  0  0  0  0  0  0
   -0.2226   -0.8215   -0.2438 C   0  0  1  0  0  0  0  0  0  0  0  0
    0.5252   -1.6000   -0.4416 H   0  0  0  0  0  0  0  0  0  0  0  0
   -0.1507    0.2267   -1.3787 C   0  0  0  0  0  0  0  0  0  0  0  0
    0.6372    0.9637   -1.1799 H   0  0  0  0  0  0  0  0  0  0  0  0
    0.1505   -0.3004   -2.2901 H   0  0  0  0  0  0  0  0  0  0  0  0
   -1.4590    0.9254   -1.6540 C   0  0  0  0  0  0  0  0  0  0  0  0
   -1.8588    2.1014   -1.0199 N   0  3  0  0  0  0  0  0  0  0  0  0
   -1.3216    2.5285   -0.2572 H   0  0  0  0  0  0  0  0  0  0  0  0
   -2.9791    2.5403   -1.5395 C   0  0  0  0  0  0  0  0  0  0  0  0
   -3.5222    3.4400   -1.2417 H   0  0  0  0  0  0  0  0  0  0  0  0
   -3.3379    1.6524   -2.5531 N   0  0  0  0  0  0  0  0  0  0  0  0
   -4.1497    1.7517   -3.1715 H   0  0  0  0  0  0  0  0  0  0  0  0
   -2.3750    0.6515   -2.6396 C   0  0  0  0  0  0  0  0  0  0  0  0
   -2.3278   -0.1601   -3.3669 H   0  0  0  0  0  0  0  0  0  0  0  0
    0.2366   -0.1175    1.0532 C   0  0  0  0  0  0  0  0  0  0  0  0
    1.4307    0.0901    1.2041 O   0  0  0  0  0  0  0  0  0  0  0  0
   -0.6636    0.6698    1.7541 N   0  0  0  0  0  0  0  0  0  0  0  0
   -1.6091    0.2957    1.7540 H   0  0  0  0  0  0  0  0  0  0  0  0
   -0.2457    1.4017    2.9494 C   0  0  0  0  0  0  0  0  0  0  0  0
    0.5407    2.1252    2.7075 H   0  0  0  0  0  0  0  0  0  0  0  0
   -1.0914    1.9469    3.3802 H   0  0  0  0  0  0  0  0  0  0  0  0
    0.1408    0.7094    3.7059 H   0  0  0  0  0  0  0  0  0  0  0  0
  1  2  1  0  0  0  0
  2  3  1  0  0  0  0
  2  4  1  0  0  0  0
  2  5  1  0  0  0  0
  5  6  2  0  0  0  0
  5  7  1  0  0  0  0
  7  8  1  0  0  0  0
  7  9  1  0  0  0  0
  9 10  1  0  0  0  0
  9 11  1  0  0  0  0
  9 23  1  0  0  0  0
 11 12  1  0  0  0  0
 11 13  1  0  0  0  0
 11 14  1  0  0  0  0
 14 15  1  0  0  0  0
 14 21  2  0  0  0  0
 15 16  1  0  0  0  0
 15 17  2  0  0  0  0
 17 18  1  0  0  0  0
 17 19  1  0  0  0  0
 19 20  1  0  0  0  0
 19 21  1  0  0  0  0
 21 22  1  0  0  0  0
 23 24  2  0  0  0  0
 23 25  1  0  0  0  0
 25 26  1  0  0  0  0
 25 27  1  0  0  0  0
 27 28  1  0  0  0  0
 27 29  1  0  0  0  0
 27 30  1  0  0  0  0
M  CHG  1  15   1
M  END
$$$$

  -OEChem-04042216003D

 30 30  0     1  0  0  0  0  0999 V2000
   -3.1047   -4.0327    1.5419 H   0  0  0  0  0  0  0  0  0  0  0  0
   -3.0984   -3.2616    0.7654 C   0  0  0  0  0  0  0  0  0  0  0  0
   -3.9383   -2.5849    0.9378 H   0  0  0  0  0  0  0  0  0  0  0  0
   -3.2180   -3.7460   -0.2065 H   0  0  0  0  0  0  0  0  0  0  0  0
   -1.7908   -2.4947    0.8090 C   0  0  0  0  0  0  0  0  0  0  0  0
   -0.9585   -2.7612    1.6541 O   0  0  0  0  0  0  0  0  0  0  0  0
   -1.5464   -1.4788   -0.0995 N   0  0  0  0  0  0  0  0  0  0  0  0
   -2.2362   -1.3616   -0.8327 H   0  0  0  0  0  0  0  0  0  0  0  0
   -0.2309   -0.8117   -0.2429 C   0  0  1  0  0  0  0  0  0  0  0  0
    0.5212   -1.5819   -0.4560 H   0  0  0  0  0  0  0  0  0  0  0  0
   -0.1737    0.2445   -1.3718 C   0  0  0  0  0  0  0  0  0  0  0  0
    0.6147    0.9808   -1.1734 H   0  0  0  0  0  0  0  0  0  0  0  0
    0.1262   -0.2782   -2.2864 H   0  0  0  0  0  0  0  0  0  0  0  0
   -1.4821    0.9440   -1.6510 C   0  0  0  0  0  0  0  0  0  0  0  0
   -1.7672    2.2516   -1.2566 N   0  3  0  0  0  0  0  0  0  0  0  0
   -1.1455    2.7948   -0.6485 H   0  0  0  0  0  0  0  0  0  0  0  0
   -2.9135    2.6412   -1.7585 C   0  0  0  0  0  0  0  0  0  0  0  0
   -3.3880    3.6138   -1.6105 H   0  0  0  0  0  0  0  0  0  0  0  0
   -3.4040    1.5881   -2.5285 N   0  0  0  0  0  0  0  0  0  0  0  0
   -4.2633    1.6104   -3.0876 H   0  0  0  0  0  0  0  0  0  0  0  0
   -2.4951    0.5354   -2.4846 C   0  0  0  0  0  0  0  0  0  0  0  0
   -2.5445   -0.4019   -3.0400 H   0  0  0  0  0  0  0  0  0  0  0  0
    0.2411   -0.1181    1.0545 C   0  0  0  0  0  0  0  0  0  0  0  0
    1.4365    0.0898    1.1962 O   0  0  0  0  0  0  0  0  0  0  0  0
   -0.6529    0.6480    1.7843 N   0  0  0  0  0  0  0  0  0  0  0  0
   -1.6094    0.3065    1.7580 H   0  0  0  0  0  0  0  0  0  0  0  0
   -0.2306    1.3574    2.9906 C   0  0  0  0  0  0  0  0  0  0  0  0
    0.5379    2.1013    2.7535 H   0  0  0  0  0  0  0  0  0  0  0  0
   -1.0798    1.8750    3.4473 H   0  0  0  0  0  0  0  0  0  0  0  0
    0.1808    0.6547    3.7240 H   0  0  0  0  0  0  0  0  0  0  0  0
  1  2  1  0  0  0  0
  2  3  1  0  0  0  0
  2  4  1  0  0  0  0
  2  5  1  0  0  0  0
  5  6  2  0  0  0  0
  5  7  1  0  0  0  0
  7  8  1  0  0  0  0
  7  9  1  0  0  0  0
  9 10  1  0  0  0  0
  9 11  1  0  0  0  0
  9 23  1  0  0  0  0
 11 12  1  0  0  0  0
 11 13  1  0  0  0  0
 11 14  1  0  0  0  0
 14 15  1  0  0  0  0
 14 21  2  0  0  0  0
 15 16  1  0  0  0  0
 15 17  2  0  0  0  0
 17 18  1  0  0  0  0
 17 19  1  0  0  0  0
 19 20  1  0  0  0  0
 19 21  1  0  0  0  0
 21 22  1  0  0  0  0
 23 24  2  0  0  0  0
 23 25  1  0  0  0  0
 25 26  1  0  0  0  0
 25 27  1  0  0  0  0
 27 28  1  0  0  0  0
 27 29  1  0  0  0  0
 27 30  1  0  0  0  0
M  CHG  1  15   1
M  END
$$$$

  -OEChem-04042216003D

 30 30  0     1  0  0  0  0  0999 V2000
   -3.0468   -4.0036    1.6172 H   0  0  0  0  0  0  0  0  0  0  0  0
   -3.0909   -3.1864    0.8907 C   0  0  0  0  0  0  0  0  0  0  0  0
   -3.8104   -2.4444    1.2436 H   0  0  0  0  0  0  0  0  0  0  0  0
   -3.4281   -3.5904   -0.0667 H   0  0  0  0  0  0  0  0  0  0  0  0
   -1.7193   -2.5576    0.7363 C   0  0  0  0  0  0  0  0  0  0  0  0
   -0.7783   -2.9852    1.3763 O   0  0  0  0  0  0  0  0  0  0  0  0
   -1.5311   -1.4856   -0.1196 N   0  0  0  0  0  0  0  0  0  0  0  0
   -2.3625   -1.0887   -0.5414 H   0  0  0  0  0  0  0  0  0  0  0  0
   -0.2409   -0.7706   -0.2494 C   0  0  1  0  0  0  0  0  0  0  0  0
    0.5227   -1.5212   -0.4918 H   0  0  0  0  0  0  0  0  0  0  0  0
   -0.1935    0.3002   -1.3656 C   0  0  0  0  0  0  0  0  0  0  0  0
    0.5745    1.0484   -1.1357 H   0  0  0  0  0  0  0  0  0  0  0  0
    0.1413   -0.2042   -2.2786 H   0  0  0  0  0  0  0  0  0  0  0  0
   -1.5024    0.9841   -1.6841 C   0  0  0  0  0  0  0  0  0  0  0  0
   -1.7258    2.3573   -1.5682 N   0  3  0  0  0  0  0  0  0  0  0  0
   -1.0471    2.9964   -1.1418 H   0  0  0  0  0  0  0  0  0  0  0  0
   -2.8904    2.6781   -2.0771 C   0  0  0  0  0  0  0  0  0  0  0  0
   -3.3244    3.6798   -2.1214 H   0  0  0  0  0  0  0  0  0  0  0  0
   -3.4600    1.5061   -2.5705 N   0  0  0  0  0  0  0  0  0  0  0  0
   -4.3479    1.4451   -3.0801 H   0  0  0  0  0  0  0  0  0  0  0  0
   -2.5781    0.4522   -2.3546 C   0  0  0  0  0  0  0  0  0  0  0  0
   -2.6808   -0.5763   -2.7037 H   0  0  0  0  0  0  0  0  0  0  0  0
    0.2433   -0.1312    1.0707 C   0  0  0  0  0  0  0  0  0  0  0  0
    1.4373    0.0914    1.2001 O   0  0  0  0  0  0  0  0  0  0  0  0
   -0.6466    0.5707    1.8670 N   0  0  0  0  0  0  0  0  0  0  0  0
   -1.6076    0.2466    1.8293 H   0  0  0  0  0  0  0  0  0  0  0  0
   -0.2108    1.2452    3.0888 C   0  0  0  0  0  0  0  0  0  0  0  0
    0.5395    2.0108    2.8625 H   0  0  0  0  0  0  0  0  0  0  0  0
   -1.0588    1.7322    3.5801 H   0  0  0  0  0  0  0  0  0  0  0  0
    0.2279    0.5249    3.7885 H   0  0  0  0  0  0  0  0  0  0  0  0
  1  2  1  0  0  0  0
  2  3  1  0  0  0  0
  2  4  1  0  0  0  0
  2  5  1  0  0  0  0
  5  6  2  0  0  0  0
  5  7  1  0  0  0  0
  7  8  1  0  0  0  0
  7  9  1  0  0  0  0
  9 10  1  0  0  0  0
  9 11  1  0  0  0  0
  9 23  1  0  0  0  0
 11 12  1  0  0  0  0
 11 13  1  0  0  0  0
 11 14  1  0  0  0  0
 14 15  1  0  0  0  0
 14 21  2  0  0  0  0
 15 16  1  0  0  0  0
 15 17  2  0  0  0  0
 17 18  1  0  0  0  0
 17 19  1  0  0  0  0
 19 20  1  0  0  0  0
 19 21  1  0  0  0  0
 21 22  1  0  0  0  0
 23 24  2  0  0  0  0
 23 25  1  0  0  0  0
 25 26  1  0  0  0  0
 25 27  1  0  0  0  0
 27 28  1  0  0  0  0
 27 29  1  0  0  0  0
 27 30  1  0  0  0  0
M  CHG  1  15   1
M  END
$$$$

  -OEChem-04042216003D

 30 30  0     1  0  0  0  0  0999 V2000
   -2.9610   -4.0088    1.6969 H   0  0  0  0  0  0  0  0  0  0  0  0
   -3.0486   -3.1860    0.9807 C   0  0  0  0  0  0  0  0  0  0  0  0
   -3.7149   -2.4289    1.3997 H   0  0  0  0  0  0  0  0  0  0  0  0
   -3.4795   -3.5746    0.0551 H   0  0  0  0  0  0  0  0  0  0  0  0
   -1.6803   -2.5912    0.7075 C   0  0  0  0  0  0  0  0  0  0  0  0
   -0.6930   -3.0742    1.2270 O   0  0  0  0  0  0  0  0  0  0  0  0
   -1.5478   -1.4889   -0.1207 N   0  0  0  0  0  0  0  0  0  0  0  0
   -2.4105   -1.0122   -0.3540 H   0  0  0  0  0  0  0  0  0  0  0  0
   -0.2736   -0.7460   -0.2498 C   0  0  1  0  0  0  0  0  0  0  0  0
    0.4942   -1.4855   -0.5131 H   0  0  0  0  0  0  0  0  0  0  0  0
   -0.2279    0.3354   -1.3589 C   0  0  0  0  0  0  0  0  0  0  0  0
    0.5293    1.0856   -1.1012 H   0  0  0  0  0  0  0  0  0  0  0  0
    0.1316   -0.1554   -2.2699 H   0  0  0  0  0  0  0  0  0  0  0  0
   -1.5251    1.0291   -1.7147 C   0  0  0  0  0  0  0  0  0  0  0  0
   -1.6491    2.4097   -1.8878 N   0  3  0  0  0  0  0  0  0  0  0  0
   -0.8969    3.0673   -1.6598 H   0  0  0  0  0  0  0  0  0  0  0  0
   -2.8329    2.7130   -2.3615 C   0  0  0  0  0  0  0  0  0  0  0  0
   -3.2044    3.7160   -2.5841 H   0  0  0  0  0  0  0  0  0  0  0  0
   -3.5184    1.5156   -2.5487 N   0  0  0  0  0  0  0  0  0  0  0  0
   -4.4508    1.4232   -2.9652 H   0  0  0  0  0  0  0  0  0  0  0  0
   -2.6887    0.4618   -2.1806 C   0  0  0  0  0  0  0  0  0  0  0  0
   -2.8851   -0.6031   -2.3101 H   0  0  0  0  0  0  0  0  0  0  0  0
    0.2282   -0.1395    1.0795 C   0  0  0  0  0  0  0  0  0  0  0  0
    1.4235    0.0825    1.1982 O   0  0  0  0  0  0  0  0  0  0  0  0
   -0.6510    0.5224    1.9205 N   0  0  0  0  0  0  0  0  0  0  0  0
   -1.6181    0.2199    1.8769 H   0  0  0  0  0  0  0  0  0  0  0  0
   -0.1980    1.1756    3.1474 C   0  0  0  0  0  0  0  0  0  0  0  0
    0.5140    1.9761    2.9191 H   0  0  0  0  0  0  0  0  0  0  0  0
   -1.0459    1.6141    3.6827 H   0  0  0  0  0  0  0  0  0  0  0  0
    0.2923    0.4525    3.8088 H   0  0  0  0  0  0  0  0  0  0  0  0
  1  2  1  0  0  0  0
  2  3  1  0  0  0  0
  2  4  1  0  0  0  0
  2  5  1  0  0  0  0
  5  6  2  0  0  0  0
  5  7  1  0  0  0  0
  7  8  1  0  0  0  0
  7  9  1  0  0  0  0
  9 10  1  0  0  0  0
  9 11  1  0  0  0  0
  9 23  1  0  0  0  0
 11 12  1  0  0  0  0
 11 13  1  0  0  0  0
 11 14  1  0  0  0  0
 14 15  1  0  0  0  0
 14 21  2  0  0  0  0
 15 16  1  0  0  0  0
 15 17  2  0  0  0  0
 17 18  1  0  0  0  0
 17 19  1  0  0  0  0
 19 20  1  0  0  0  0
 19 21  1  0  0  0  0
 21 22  1  0  0  0  0
 23 24  2  0  0  0  0
 23 25  1  0  0  0  0
 25 26  1  0  0  0  0
 25 27  1  0  0  0  0
 27 28  1  0  0  0  0
 27 29  1  0  0  0  0
 27 30  1  0  0  0  0
M  CHG  1  15   1
M  END
$$$$

  -OEChem-04042216003D

 30 30  0     1  0  0  0  0  0999 V2000
   -2.8691   -4.2659    1.5565 H   0  0  0  0  0  0  0  0  0  0  0  0
   -2.9173   -3.5201    0.7571 C   0  0  0  0  0  0  0  0  0  0  0  0
   -3.8688   -2.9890    0.8324 H   0  0  0  0  0  0  0  0  0  0  0  0
   -2.8676   -4.0381   -0.2037 H   0  0  0  0  0  0  0  0  0  0  0  0
   -1.7623   -2.5455    0.8882 C   0  0  0  0  0  0  0  0  0  0  0  0
   -0.9961   -2.6436    1.8262 O   0  0  0  0  0  0  0  0  0  0  0  0
   -1.5939   -1.5418   -0.0536 N   0  0  0  0  0  0  0  0  0  0  0  0
   -2.1234   -1.7126   -0.9018 H   0  0  0  0  0  0  0  0  0  0  0  0
   -0.3000   -0.8424   -0.2326 C   0  0  1  0  0  0  0  0  0  0  0  0
    0.4683   -1.5943   -0.4529 H   0  0  0  0  0  0  0  0  0  0  0  0
   -0.2809    0.2248   -1.3641 C   0  0  0  0  0  0  0  0  0  0  0  0
    0.5114    0.9510   -1.1443 H   0  0  0  0  0  0  0  0  0  0  0  0
    0.0344   -0.2921   -2.2767 H   0  0  0  0  0  0  0  0  0  0  0  0
   -1.5483    0.9902   -1.7187 C   0  0  0  0  0  0  0  0  0  0  0  0
   -1.4694    2.2940   -2.2196 N   0  3  0  0  0  0  0  0  0  0  0  0
   -0.5770    2.7691   -2.3855 H   0  0  0  0  0  0  0  0  0  0  0  0
   -2.6619    2.8026   -2.4059 C   0  0  0  0  0  0  0  0  0  0  0  0
   -2.8903    3.8022   -2.7825 H   0  0  0  0  0  0  0  0  0  0  0  0
   -3.5805    1.8324   -2.0226 N   0  0  0  0  0  0  0  0  0  0  0  0
   -4.5999    1.9391   -2.0375 H   0  0  0  0  0  0  0  0  0  0  0  0
   -2.8908    0.7095   -1.5789 C   0  0  0  0  0  0  0  0  0  0  0  0
   -3.3437   -0.1945   -1.1815 H   0  0  0  0  0  0  0  0  0  0  0  0
    0.1872   -0.1100    1.0414 C   0  0  0  0  0  0  0  0  0  0  0  0
    1.3869    0.0894    1.1649 O   0  0  0  0  0  0  0  0  0  0  0  0
   -0.6962    0.6516    1.7866 N   0  0  0  0  0  0  0  0  0  0  0  0
   -1.6554    0.3192    1.7746 H   0  0  0  0  0  0  0  0  0  0  0  0
   -0.2574    1.3984    2.9631 C   0  0  0  0  0  0  0  0  0  0  0  0
    0.5210    2.1212    2.6948 H   0  0  0  0  0  0  0  0  0  0  0  0
   -1.0963    1.9470    3.4021 H   0  0  0  0  0  0  0  0  0  0  0  0
    0.1461    0.7165    3.7198 H   0  0  0  0  0  0  0  0  0  0  0  0
  1  2  1  0  0  0  0
  2  3  1  0  0  0  0
  2  4  1  0  0  0  0
  2  5  1  0  0  0  0
  5  6  2  0  0  0  0
  5  7  1  0  0  0  0
  7  8  1  0  0  0  0
  7  9  1  0  0  0  0
  9 10  1  0  0  0  0
  9 11  1  0  0  0  0
  9 23  1  0  0  0  0
 11 12  1  0  0  0  0
 11 13  1  0  0  0  0
 11 14  1  0  0  0  0
 14 15  1  0  0  0  0
 14 21  2  0  0  0  0
 15 16  1  0  0  0  0
 15 17  2  0  0  0  0
 17 18  1  0  0  0  0
 17 19  1  0  0  0  0
 19 20  1  0  0  0  0
 19 21  1  0  0  0  0
 21 22  1  0  0  0  0
 23 24  2  0  0  0  0
 23 25  1  0  0  0  0
 25 26  1  0  0  0  0
 25 27  1  0  0  0  0
 27 28  1  0  0  0  0
 27 29  1  0  0  0  0
 27 30  1  0  0  0  0
M  CHG  1  15   1
M  END
$$$$

  -OEChem-04042216003D

 30 30  0     1  0  0  0  0  0999 V2000
   -2.8573   -4.3005    1.5075 H   0  0  0  0  0  0  0  0  0  0  0  0
   -2.9254   -3.5276    0.7357 C   0  0  0  0  0  0  0  0  0  0  0  0
   -3.8761   -3.0022    0.8504 H   0  0  0  0  0  0  0  0  0  0  0  0
   -2.8959   -4.0117   -0.2434 H   0  0  0  0  0  0  0  0  0  0  0  0
   -1.7699   -2.5551    0.8739 C   0  0  0  0  0  0  0  0  0  0  0  0
   -1.0016   -2.6618    1.8093 O   0  0  0  0  0  0  0  0  0  0  0  0
   -1.6062   -1.5362   -0.0518 N   0  0  0  0  0  0  0  0  0  0  0  0
   -2.1561   -1.6747   -0.8947 H   0  0  0  0  0  0  0  0  0  0  0  0
   -0.3130   -0.8337   -0.2276 C   0  0  1  0  0  0  0  0  0  0  0  0
    0.4509   -1.5869   -0.4579 H   0  0  0  0  0  0  0  0  0  0  0  0
   -0.2985    0.2310   -1.3608 C   0  0  0  0  0  0  0  0  0  0  0  0
    0.4892    0.9630   -1.1435 H   0  0  0  0  0  0  0  0  0  0  0  0
    0.0178   -0.2916   -2.2696 H   0  0  0  0  0  0  0  0  0  0  0  0
   -1.5667    0.9914   -1.7203 C   0  0  0  0  0  0  0  0  0  0  0  0
   -1.5062    2.1479   -2.5048 N   0  3  0  0  0  0  0  0  0  0  0  0
   -0.6313    2.4995   -2.9052 H   0  0  0  0  0  0  0  0  0  0  0  0
   -2.6862    2.7054   -2.6168 C   0  0  0  0  0  0  0  0  0  0  0  0
   -2.9240    3.6177   -3.1687 H   0  0  0  0  0  0  0  0  0  0  0  0
   -3.5742    1.9264   -1.8843 N   0  0  0  0  0  0  0  0  0  0  0  0
   -4.5712    2.1249   -1.7529 H   0  0  0  0  0  0  0  0  0  0  0  0
   -2.8753    0.8748   -1.3026 C   0  0  0  0  0  0  0  0  0  0  0  0
   -3.2884    0.1405   -0.6150 H   0  0  0  0  0  0  0  0  0  0  0  0
    0.1912   -0.1187    1.0492 C   0  0  0  0  0  0  0  0  0  0  0  0
    1.3929    0.0783    1.1559 O   0  0  0  0  0  0  0  0  0  0  0  0
   -0.6799    0.6351    1.8164 N   0  0  0  0  0  0  0  0  0  0  0  0
   -1.6349    0.2919    1.8296 H   0  0  0  0  0  0  0  0  0  0  0  0
   -0.2174    1.3759    2.9877 C   0  0  0  0  0  0  0  0  0  0  0  0
    0.5298    2.1242    2.7018 H   0  0  0  0  0  0  0  0  0  0  0  0
   -1.0537    1.8937    3.4671 H   0  0  0  0  0  0  0  0  0  0  0  0
    0.2333    0.6947    3.7181 H   0  0  0  0  0  0  0  0  0  0  0  0
  1  2  1  0  0  0  0
  2  3  1  0  0  0  0
  2  4  1  0  0  0  0
  2  5  1  0  0  0  0
  5  6  2  0  0  0  0
  5  7  1  0  0  0  0
  7  8  1  0  0  0  0
  7  9  1  0  0  0  0
  9 10  1  0  0  0  0
  9 11  1  0  0  0  0
  9 23  1  0  0  0  0
 11 12  1  0  0  0  0
 11 13  1  0  0  0  0
 11 14  1  0  0  0  0
 14 15  1  0  0  0  0
 14 21  2  0  0  0  0
 15 16  1  0  0  0  0
 15 17  2  0  0  0  0
 17 18  1  0  0  0  0
 17 19  1  0  0  0  0
 19 20  1  0  0  0  0
 19 21  1  0  0  0  0
 21 22  1  0  0  0  0
 23 24  2  0  0  0  0
 23 25  1  0  0  0  0
 25 26  1  0  0  0  0
 25 27  1  0  0  0  0
 27 28  1  0  0  0  0
 27 29  1  0  0  0  0
 27 30  1  0  0  0  0
M  CHG  1  15   1
M  END
$$$$

  -OEChem-04042216003D

 30 30  0     1  0  0  0  0  0999 V2000
   -3.0279   -4.2276    1.3045 H   0  0  0  0  0  0  0  0  0  0  0  0
   -3.0565   -3.4068    0.5814 C   0  0  0  0  0  0  0  0  0  0  0  0
   -3.9850   -2.8490    0.7216 H   0  0  0  0  0  0  0  0  0  0  0  0
   -3.0393   -3.8306   -0.4255 H   0  0  0  0  0  0  0  0  0  0  0  0
   -1.8618   -2.4953    0.7859 C   0  0  0  0  0  0  0  0  0  0  0  0
   -1.1193   -2.6701    1.7324 O   0  0  0  0  0  0  0  0  0  0  0  0
   -1.6378   -1.4346   -0.0756 N   0  0  0  0  0  0  0  0  0  0  0  0
   -2.2156   -1.4532   -0.9120 H   0  0  0  0  0  0  0  0  0  0  0  0
   -0.3176   -0.7695   -0.1894 C   0  0  1  0  0  0  0  0  0  0  0  0
    0.4146   -1.5509   -0.4296 H   0  0  0  0  0  0  0  0  0  0  0  0
   -0.2542    0.2778   -1.3279 C   0  0  0  0  0  0  0  0  0  0  0  0
    0.6753    0.8511   -1.2247 H   0  0  0  0  0  0  0  0  0  0  0  0
   -0.1767   -0.2768   -2.2688 H   0  0  0  0  0  0  0  0  0  0  0  0
   -1.4105    1.2504   -1.4678 C   0  0  0  0  0  0  0  0  0  0  0  0
   -1.4581    2.2350   -2.4587 N   0  3  0  0  0  0  0  0  0  0  0  0
   -0.7211    2.3530   -3.1602 H   0  0  0  0  0  0  0  0  0  0  0  0
   -2.5204    2.9893   -2.3138 C   0  0  0  0  0  0  0  0  0  0  0  0
   -2.7994    3.8439   -2.9340 H   0  0  0  0  0  0  0  0  0  0  0  0
   -3.2170    2.5074   -1.2097 N   0  0  0  0  0  0  0  0  0  0  0  0
   -4.0770    2.9102   -0.8241 H   0  0  0  0  0  0  0  0  0  0  0  0
   -2.5188    1.4319   -0.6741 C   0  0  0  0  0  0  0  0  0  0  0  0
   -2.7763    0.8667    0.2200 H   0  0  0  0  0  0  0  0  0  0  0  0
    0.2202   -0.1311    1.1137 C   0  0  0  0  0  0  0  0  0  0  0  0
    1.4267    0.0500    1.1886 O   0  0  0  0  0  0  0  0  0  0  0  0
   -0.6114    0.6248    1.9231 N   0  0  0  0  0  0  0  0  0  0  0  0
   -1.5399    0.2286    2.0306 H   0  0  0  0  0  0  0  0  0  0  0  0
   -0.0795    1.3628    3.0679 C   0  0  0  0  0  0  0  0  0  0  0  0
    0.6547    2.1071    2.7403 H   0  0  0  0  0  0  0  0  0  0  0  0
   -0.8843    1.8850    3.5944 H   0  0  0  0  0  0  0  0  0  0  0  0
    0.4086    0.6793    3.7718 H   0  0  0  0  0  0  0  0  0  0  0  0
  1  2  1  0  0  0  0
  2  3  1  0  0  0  0
  2  4  1  0  0  0  0
  2  5  1  0  0  0  0
  5  6  2  0  0  0  0
  5  7  1  0  0  0  0
  7  8  1  0  0  0  0
  7  9  1  0  0  0  0
  9 10  1  0  0  0  0
  9 11  1  0  0  0  0
  9 23  1  0  0  0  0
 11 12  1  0  0  0  0
 11 13  1  0  0  0  0
 11 14  1  0  0  0  0
 14 15  1  0  0  0  0
 14 21  2  0  0  0  0
 15 16  1  0  0  0  0
 15 17  2  0  0  0  0
 17 18  1  0  0  0  0
 17 19  1  0  0  0  0
 19 20  1  0  0  0  0
 19 21  1  0  0  0  0
 21 22  1  0  0  0  0
 23 24  2  0  0  0  0
 23 25  1  0  0  0  0
 25 26  1  0  0  0  0
 25 27  1  0  0  0  0
 27 28  1  0  0  0  0
 27 29  1  0  0  0  0
 27 30  1  0  0  0  0
M  CHG  1  15   1
M  END
$$$$

  -OEChem-04042216003D

 30 30  0     1  0  0  0  0  0999 V2000
   -3.0772   -4.1819    1.2870 H   0  0  0  0  0  0  0  0  0  0  0  0
   -3.0951   -3.3493    0.5772 C   0  0  0  0  0  0  0  0  0  0  0  0
   -4.0012   -2.7636    0.7476 H   0  0  0  0  0  0  0  0  0  0  0  0
   -3.1148   -3.7572   -0.4362 H   0  0  0  0  0  0  0  0  0  0  0  0
   -1.8666   -2.4806    0.7670 C   0  0  0  0  0  0  0  0  0  0  0  0
   -1.0938   -2.7100    1.6771 O   0  0  0  0  0  0  0  0  0  0  0  0
   -1.6408   -1.3967   -0.0641 N   0  0  0  0  0  0  0  0  0  0  0  0
   -2.2535   -1.3498   -0.8737 H   0  0  0  0  0  0  0  0  0  0  0  0
   -0.3189   -0.7354   -0.1705 C   0  0  1  0  0  0  0  0  0  0  0  0
    0.4022   -1.5244   -0.4195 H   0  0  0  0  0  0  0  0  0  0  0  0
   -0.2428    0.3012   -1.3167 C   0  0  0  0  0  0  0  0  0  0  0  0
    0.6851    0.8773   -1.2149 H   0  0  0  0  0  0  0  0  0  0  0  0
   -0.1591   -0.2654   -2.2498 H   0  0  0  0  0  0  0  0  0  0  0  0
   -1.4010    1.2677   -1.4703 C   0  0  0  0  0  0  0  0  0  0  0  0
   -1.6125    2.0399   -2.6158 N   0  3  0  0  0  0  0  0  0  0  0  0
   -0.9843    2.0187   -3.4243 H   0  0  0  0  0  0  0  0  0  0  0  0
   -2.6581    2.8161   -2.4650 C   0  0  0  0  0  0  0  0  0  0  0  0
   -3.0395    3.5400   -3.1886 H   0  0  0  0  0  0  0  0  0  0  0  0
   -3.1816    2.5570   -1.2016 N   0  0  0  0  0  0  0  0  0  0  0  0
   -3.9876    3.0300   -0.7802 H   0  0  0  0  0  0  0  0  0  0  0  0
   -2.3956    1.5944   -0.5799 C   0  0  0  0  0  0  0  0  0  0  0  0
   -2.5231    1.1955    0.4245 H   0  0  0  0  0  0  0  0  0  0  0  0
    0.2408   -0.1345    1.1408 C   0  0  0  0  0  0  0  0  0  0  0  0
    1.4482    0.0464    1.1962 O   0  0  0  0  0  0  0  0  0  0  0  0
   -0.5727    0.6046    1.9833 N   0  0  0  0  0  0  0  0  0  0  0  0
   -1.4907    0.1901    2.1158 H   0  0  0  0  0  0  0  0  0  0  0  0
   -0.0141    1.3239    3.1276 C   0  0  0  0  0  0  0  0  0  0  0  0
    0.6980    2.0868    2.7943 H   0  0  0  0  0  0  0  0  0  0  0  0
   -0.8088    1.8219    3.6915 H   0  0  0  0  0  0  0  0  0  0  0  0
    0.5062    0.6321    3.7997 H   0  0  0  0  0  0  0  0  0  0  0  0
  1  2  1  0  0  0  0
  2  3  1  0  0  0  0
  2  4  1  0  0  0  0
  2  5  1  0  0  0  0
  5  6  2  0  0  0  0
  5  7  1  0  0  0  0
  7  8  1  0  0  0  0
  7  9  1  0  0  0  0
  9 10  1  0  0  0  0
  9 11  1  0  0  0  0
  9 23  1  0  0  0  0
 11 12  1  0  0  0  0
 11 13  1  0  0  0  0
 11 14  1  0  0  0  0
 14 15  1  0  0  0  0
 14 21  2  0  0  0  0
 15 16  1  0  0  0  0
 15 17  2  0  0  0  0
 17 18  1  0  0  0  0
 17 19  1  0  0  0  0
 19 20  1  0  0  0  0
 19 21  1  0  0  0  0
 21 22  1  0  0  0  0
 23 24  2  0  0  0  0
 23 25  1  0  0  0  0
 25 26  1  0  0  0  0
 25 27  1  0  0  0  0
 27 28  1  0  0  0  0
 27 29  1  0  0  0  0
 27 30  1  0  0  0  0
M  CHG  1  15   1
M  END
$$$$

  -OEChem-04042216003D

 30 30  0     1  0  0  0  0  0999 V2000
   -3.1045   -4.1464    1.2802 H   0  0  0  0  0  0  0  0  0  0  0  0
   -3.1199   -3.3012    0.5854 C   0  0  0  0  0  0  0  0  0  0  0  0
   -4.0015   -2.6915    0.7956 H   0  0  0  0  0  0  0  0  0  0  0  0
   -3.1857   -3.6904   -0.4334 H   0  0  0  0  0  0  0  0  0  0  0  0
   -1.8599   -2.4728    0.7491 C   0  0  0  0  0  0  0  0  0  0  0  0
   -1.0551   -2.7535    1.6165 O   0  0  0  0  0  0  0  0  0  0  0  0
   -1.6364   -1.3707   -0.0579 N   0  0  0  0  0  0  0  0  0  0  0  0
   -2.2858   -1.2624   -0.8317 H   0  0  0  0  0  0  0  0  0  0  0  0
   -0.3176   -0.7055   -0.1604 C   0  0  1  0  0  0  0  0  0  0  0  0
    0.3994   -1.4970   -0.4138 H   0  0  0  0  0  0  0  0  0  0  0  0
   -0.2367    0.3186   -1.3164 C   0  0  0  0  0  0  0  0  0  0  0  0
    0.6868    0.9020   -1.2147 H   0  0  0  0  0  0  0  0  0  0  0  0
   -0.1408   -0.2600   -2.2407 H   0  0  0  0  0  0  0  0  0  0  0  0
   -1.3996    1.2758   -1.4882 C   0  0  0  0  0  0  0  0  0  0  0  0
   -1.7937    1.8077   -2.7196 N   0  3  0  0  0  0  0  0  0  0  0  0
   -1.3032    1.6057   -3.5957 H   0  0  0  0  0  0  0  0  0  0  0  0
   -2.7980    2.6363   -2.5658 C   0  0  0  0  0  0  0  0  0  0  0  0
   -3.2888    3.2158   -3.3511 H   0  0  0  0  0  0  0  0  0  0  0  0
   -3.1104    2.6537   -1.2097 N   0  0  0  0  0  0  0  0  0  0  0  0
   -3.8339    3.2319   -0.7704 H   0  0  0  0  0  0  0  0  0  0  0  0
   -2.2362    1.8084   -0.5373 C   0  0  0  0  0  0  0  0  0  0  0  0
   -2.2000    1.6307    0.5351 H   0  0  0  0  0  0  0  0  0  0  0  0
    0.2544   -0.1311    1.1568 C   0  0  0  0  0  0  0  0  0  0  0  0
    1.4621    0.0493    1.2042 O   0  0  0  0  0  0  0  0  0  0  0  0
   -0.5491    0.5894    2.0241 N   0  0  0  0  0  0  0  0  0  0  0  0
   -1.4736    0.1840    2.1421 H   0  0  0  0  0  0  0  0  0  0  0  0
    0.0195    1.2667    3.1890 C   0  0  0  0  0  0  0  0  0  0  0  0
    0.7409    2.0307    2.8784 H   0  0  0  0  0  0  0  0  0  0  0  0
   -0.7683    1.7565    3.7696 H   0  0  0  0  0  0  0  0  0  0  0  0
    0.5324    0.5482    3.8386 H   0  0  0  0  0  0  0  0  0  0  0  0
  1  2  1  0  0  0  0
  2  3  1  0  0  0  0
  2  4  1  0  0  0  0
  2  5  1  0  0  0  0
  5  6  2  0  0  0  0
  5  7  1  0  0  0  0
  7  8  1  0  0  0  0
  7  9  1  0  0  0  0
  9 10  1  0  0  0  0
  9 11  1  0  0  0  0
  9 23  1  0  0  0  0
 11 12  1  0  0  0  0
 11 13  1  0  0  0  0
 11 14  1  0  0  0  0
 14 15  1  0  0  0  0
 14 21  2  0  0  0  0
 15 16  1  0  0  0  0
 15 17  2  0  0  0  0
 17 18  1  0  0  0  0
 17 19  1  0  0  0  0
 19 20  1  0  0  0  0
 19 21  1  0  0  0  0
 21 22  1  0  0  0  0
 23 24  2  0  0  0  0
 23 25  1  0  0  0  0
 25 26  1  0  0  0  0
 25 27  1  0  0  0  0
 27 28  1  0  0  0  0
 27 29  1  0  0  0  0
 27 30  1  0  0  0  0
M  CHG  1  15   1
M  END
$$$$

  -OEChem-04042216003D

 30 30  0     1  0  0  0  0  0999 V2000
   -3.1004   -4.1202    1.3057 H   0  0  0  0  0  0  0  0  0  0  0  0
   -3.1209   -3.2682    0.6194 C   0  0  0  0  0  0  0  0  0  0  0  0
   -3.9780   -2.6387    0.8690 H   0  0  0  0  0  0  0  0  0  0  0  0
   -3.2349   -3.6453   -0.3996 H   0  0  0  0  0  0  0  0  0  0  0  0
   -1.8345   -2.4740    0.7419 C   0  0  0  0  0  0  0  0  0  0  0  0
   -1.0036   -2.7864    1.5730 O   0  0  0  0  0  0  0  0  0  0  0  0
   -1.6101   -1.3741   -0.0680 N   0  0  0  0  0  0  0  0  0  0  0  0
   -2.2926   -1.2216   -0.8041 H   0  0  0  0  0  0  0  0  0  0  0  0
   -0.2959   -0.7011   -0.1738 C   0  0  1  0  0  0  0  0  0  0  0  0
    0.4292   -1.4879   -0.4190 H   0  0  0  0  0  0  0  0  0  0  0  0
   -0.2206    0.3139   -1.3377 C   0  0  0  0  0  0  0  0  0  0  0  0
    0.6951    0.9092   -1.2335 H   0  0  0  0  0  0  0  0  0  0  0  0
   -0.1124   -0.2631   -2.2613 H   0  0  0  0  0  0  0  0  0  0  0  0
   -1.3974    1.2530   -1.5026 C   0  0  0  0  0  0  0  0  0  0  0  0
   -2.0137    1.5518   -2.7213 N   0  3  0  0  0  0  0  0  0  0  0  0
   -1.7152    1.1431   -3.6116 H   0  0  0  0  0  0  0  0  0  0  0  0
   -2.9414    2.4642   -2.5575 C   0  0  0  0  0  0  0  0  0  0  0  0
   -3.5660    2.9036   -3.3384 H   0  0  0  0  0  0  0  0  0  0  0  0
   -2.9644    2.7881   -1.2041 N   0  0  0  0  0  0  0  0  0  0  0  0
   -3.5574    3.5031   -0.7702 H   0  0  0  0  0  0  0  0  0  0  0  0
   -1.9883    2.0468   -0.5498 C   0  0  0  0  0  0  0  0  0  0  0  0
   -1.7105    2.1211    0.5002 H   0  0  0  0  0  0  0  0  0  0  0  0
    0.2535   -0.1239    1.1506 C   0  0  0  0  0  0  0  0  0  0  0  0
    1.4581    0.0668    1.2222 O   0  0  0  0  0  0  0  0  0  0  0  0
   -0.5725    0.5867    2.0047 N   0  0  0  0  0  0  0  0  0  0  0  0
   -1.5128    0.2052    2.0673 H   0  0  0  0  0  0  0  0  0  0  0  0
   -0.0405    1.2270    3.2071 C   0  0  0  0  0  0  0  0  0  0  0  0
    0.6900    1.9995    2.9427 H   0  0  0  0  0  0  0  0  0  0  0  0
   -0.8463    1.6984    3.7782 H   0  0  0  0  0  0  0  0  0  0  0  0
    0.4518    0.4882    3.8497 H   0  0  0  0  0  0  0  0  0  0  0  0
  1  2  1  0  0  0  0
  2  3  1  0  0  0  0
  2  4  1  0  0  0  0
  2  5  1  0  0  0  0
  5  6  2  0  0  0  0
  5  7  1  0  0  0  0
  7  8  1  0  0  0  0
  7  9  1  0  0  0  0
  9 10  1  0  0  0  0
  9 11  1  0  0  0  0
  9 23  1  0  0  0  0
 11 12  1  0  0  0  0
 11 13  1  0  0  0  0
 11 14  1  0  0  0  0
 14 15  1  0  0  0  0
 14 21  2  0  0  0  0
 15 16  1  0  0  0  0
 15 17  2  0  0  0  0
 17 18  1  0  0  0  0
 17 19  1  0  0  0  0
 19 20  1  0  0  0  0
 19 21  1  0  0  0  0
 21 22  1  0  0  0  0
 23 24  2  0  0  0  0
 23 25  1  0  0  0  0
 25 26  1  0  0  0  0
 25 27  1  0  0  0  0
 27 28  1  0  0  0  0
 27 29  1  0  0  0  0
 27 30  1  0  0  0  0
M  CHG  1  15   1
M  END
$$$$

  -OEChem-04042216003D

 30 30  0     1  0  0  0  0  0999 V2000
   -3.1115   -4.0802    1.3458 H   0  0  0  0  0  0  0  0  0  0  0  0
   -3.1200   -3.2412    0.6432 C   0  0  0  0  0  0  0  0  0  0  0  0
   -3.9608   -2.5882    0.8881 H   0  0  0  0  0  0  0  0  0  0  0  0
   -3.2516   -3.6355   -0.3671 H   0  0  0  0  0  0  0  0  0  0  0  0
   -1.8162   -2.4727    0.7389 C   0  0  0  0  0  0  0  0  0  0  0  0
   -0.9842   -2.7872    1.5680 O   0  0  0  0  0  0  0  0  0  0  0  0
   -1.5753   -1.3971   -0.0986 N   0  0  0  0  0  0  0  0  0  0  0  0
   -2.2634   -1.2376   -0.8271 H   0  0  0  0  0  0  0  0  0  0  0  0
   -0.2595   -0.7258   -0.2012 C   0  0  1  0  0  0  0  0  0  0  0  0
    0.4772   -1.5068   -0.4297 H   0  0  0  0  0  0  0  0  0  0  0  0
   -0.1865    0.2956   -1.3585 C   0  0  0  0  0  0  0  0  0  0  0  0
    0.7227    0.8983   -1.2420 H   0  0  0  0  0  0  0  0  0  0  0  0
   -0.0715   -0.2606   -2.2943 H   0  0  0  0  0  0  0  0  0  0  0  0
   -1.3757    1.2211   -1.4867 C   0  0  0  0  0  0  0  0  0  0  0  0
   -2.2213    1.3332   -2.5939 N   0  3  0  0  0  0  0  0  0  0  0  0
   -2.1164    0.7622   -3.4374 H   0  0  0  0  0  0  0  0  0  0  0  0
   -3.0729    2.3160   -2.4210 C   0  0  0  0  0  0  0  0  0  0  0  0
   -3.8342    2.6487   -3.1300 H   0  0  0  0  0  0  0  0  0  0  0  0
   -2.8075    2.8777   -1.1746 N   0  0  0  0  0  0  0  0  0  0  0  0
   -3.2810    3.6930   -0.7719 H   0  0  0  0  0  0  0  0  0  0  0  0
   -1.7313    2.2104   -0.6036 C   0  0  0  0  0  0  0  0  0  0  0  0
   -1.2314    2.4484    0.3367 H   0  0  0  0  0  0  0  0  0  0  0  0
    0.2489   -0.1145    1.1243 C   0  0  0  0  0  0  0  0  0  0  0  0
    1.4500    0.0763    1.2375 O   0  0  0  0  0  0  0  0  0  0  0  0
   -0.6085    0.6137    1.9322 N   0  0  0  0  0  0  0  0  0  0  0  0
   -1.5635    0.2656    1.9340 H   0  0  0  0  0  0  0  0  0  0  0  0
   -0.1316    1.2490    3.1598 C   0  0  0  0  0  0  0  0  0  0  0  0
    0.6371    1.9972    2.9361 H   0  0  0  0  0  0  0  0  0  0  0  0
   -0.9563    1.7489    3.6774 H   0  0  0  0  0  0  0  0  0  0  0  0
    0.2981    0.5010    3.8358 H   0  0  0  0  0  0  0  0  0  0  0  0
  1  2  1  0  0  0  0
  2  3  1  0  0  0  0
  2  4  1  0  0  0  0
  2  5  1  0  0  0  0
  5  6  2  0  0  0  0
  5  7  1  0  0  0  0
  7  8  1  0  0  0  0
  7  9  1  0  0  0  0
  9 10  1  0  0  0  0
  9 11  1  0  0  0  0
  9 23  1  0  0  0  0
 11 12  1  0  0  0  0
 11 13  1  0  0  0  0
 11 14  1  0  0  0  0
 14 15  1  0  0  0  0
 14 21  2  0  0  0  0
 15 16  1  0  0  0  0
 15 17  2  0  0  0  0
 17 18  1  0  0  0  0
 17 19  1  0  0  0  0
 19 20  1  0  0  0  0
 19 21  1  0  0  0  0
 21 22  1  0  0  0  0
 23 24  2  0  0  0  0
 23 25  1  0  0  0  0
 25 26  1  0  0  0  0
 25 27  1  0  0  0  0
 27 28  1  0  0  0  0
 27 29  1  0  0  0  0
 27 30  1  0  0  0  0
M  CHG  1  15   1
M  END
$$$$

  -OEChem-04042216003D

 30 30  0     1  0  0  0  0  0999 V2000
   -3.1437   -4.0297    1.3901 H   0  0  0  0  0  0  0  0  0  0  0  0
   -3.1264   -3.2271    0.6465 C   0  0  0  0  0  0  0  0  0  0  0  0
   -3.9729   -2.5618    0.8307 H   0  0  0  0  0  0  0  0  0  0  0  0
   -3.2252   -3.6710   -0.3468 H   0  0  0  0  0  0  0  0  0  0  0  0
   -1.8238   -2.4571    0.7464 C   0  0  0  0  0  0  0  0  0  0  0  0
   -1.0102   -2.7482    1.6016 O   0  0  0  0  0  0  0  0  0  0  0  0
   -1.5639   -1.4086   -0.1198 N   0  0  0  0  0  0  0  0  0  0  0  0
   -2.2322   -1.2809   -0.8712 H   0  0  0  0  0  0  0  0  0  0  0  0
   -0.2407   -0.7506   -0.2219 C   0  0  1  0  0  0  0  0  0  0  0  0
    0.4971   -1.5349   -0.4348 H   0  0  0  0  0  0  0  0  0  0  0  0
   -0.1540    0.2780   -1.3712 C   0  0  0  0  0  0  0  0  0  0  0  0
    0.7606    0.8714   -1.2482 H   0  0  0  0  0  0  0  0  0  0  0  0
   -0.0447   -0.2640   -2.3158 H   0  0  0  0  0  0  0  0  0  0  0  0
   -1.3395    1.2092   -1.4744 C   0  0  0  0  0  0  0  0  0  0  0  0
   -2.3717    1.1691   -2.4152 N   0  3  0  0  0  0  0  0  0  0  0  0
   -2.4086    0.4864   -3.1772 H   0  0  0  0  0  0  0  0  0  0  0  0
   -3.1803    2.1884   -2.2436 C   0  0  0  0  0  0  0  0  0  0  0  0
   -4.0552    2.4337   -2.8497 H   0  0  0  0  0  0  0  0  0  0  0  0
   -2.7006    2.9207   -1.1596 N   0  0  0  0  0  0  0  0  0  0  0  0
   -3.1059    3.7893   -0.7957 H   0  0  0  0  0  0  0  0  0  0  0  0
   -1.5392    2.3191   -0.6928 C   0  0  0  0  0  0  0  0  0  0  0  0
   -0.8940    2.6575    0.1211 H   0  0  0  0  0  0  0  0  0  0  0  0
    0.2460   -0.1063    1.0966 C   0  0  0  0  0  0  0  0  0  0  0  0
    1.4461    0.0747    1.2349 O   0  0  0  0  0  0  0  0  0  0  0  0
   -0.6230    0.6501    1.8657 N   0  0  0  0  0  0  0  0  0  0  0  0
   -1.5870    0.3299    1.8367 H   0  0  0  0  0  0  0  0  0  0  0  0
   -0.1737    1.3031    3.0940 C   0  0  0  0  0  0  0  0  0  0  0  0
    0.6156    2.0322    2.8796 H   0  0  0  0  0  0  0  0  0  0  0  0
   -1.0045    1.8292    3.5739 H   0  0  0  0  0  0  0  0  0  0  0  0
    0.2197    0.5618    3.7988 H   0  0  0  0  0  0  0  0  0  0  0  0
  1  2  1  0  0  0  0
  2  3  1  0  0  0  0
  2  4  1  0  0  0  0
  2  5  1  0  0  0  0
  5  6  2  0  0  0  0
  5  7  1  0  0  0  0
  7  8  1  0  0  0  0
  7  9  1  0  0  0  0
  9 10  1  0  0  0  0
  9 11  1  0  0  0  0
  9 23  1  0  0  0  0
 11 12  1  0  0  0  0
 11 13  1  0  0  0  0
 11 14  1  0  0  0  0
 14 15  1  0  0  0  0
 14 21  2  0  0  0  0
 15 16  1  0  0  0  0
 15 17  2  0  0  0  0
 17 18  1  0  0  0  0
 17 19  1  0  0  0  0
 19 20  1  0  0  0  0
 19 21  1  0  0  0  0
 21 22  1  0  0  0  0
 23 24  2  0  0  0  0
 23 25  1  0  0  0  0
 25 26  1  0  0  0  0
 25 27  1  0  0  0  0
 27 28  1  0  0  0  0
 27 29  1  0  0  0  0
 27 30  1  0  0  0  0
M  CHG  1  15   1
M  END
$$$$

  -OEChem-04042216003D

 30 30  0     1  0  0  0  0  0999 V2000
   -3.1298   -4.0409    1.4164 H   0  0  0  0  0  0  0  0  0  0  0  0
   -3.1115   -3.2591    0.6510 C   0  0  0  0  0  0  0  0  0  0  0  0
   -3.9818   -2.6140    0.7903 H   0  0  0  0  0  0  0  0  0  0  0  0
   -3.1661   -3.7340   -0.3314 H   0  0  0  0  0  0  0  0  0  0  0  0
   -1.8349   -2.4488    0.7701 C   0  0  0  0  0  0  0  0  0  0  0  0
   -1.0442   -2.6931    1.6606 O   0  0  0  0  0  0  0  0  0  0  0  0
   -1.5730   -1.4237   -0.1242 N   0  0  0  0  0  0  0  0  0  0  0  0
   -2.1999   -1.3765   -0.9179 H   0  0  0  0  0  0  0  0  0  0  0  0
   -0.2449   -0.7749   -0.2339 C   0  0  1  0  0  0  0  0  0  0  0  0
    0.4931   -1.5614   -0.4361 H   0  0  0  0  0  0  0  0  0  0  0  0
   -0.1480    0.2609   -1.3769 C   0  0  0  0  0  0  0  0  0  0  0  0
    0.7767    0.8391   -1.2565 H   0  0  0  0  0  0  0  0  0  0  0  0
   -0.0527   -0.2746   -2.3267 H   0  0  0  0  0  0  0  0  0  0  0  0
   -1.3218    1.2080   -1.4704 C   0  0  0  0  0  0  0  0  0  0  0  0
   -2.5047    1.0588   -2.1991 N   0  3  0  0  0  0  0  0  0  0  0  0
   -2.6742    0.2781   -2.8380 H   0  0  0  0  0  0  0  0  0  0  0  0
   -3.2609    2.1220   -2.0549 C   0  0  0  0  0  0  0  0  0  0  0  0
   -4.2238    2.3057   -2.5367 H   0  0  0  0  0  0  0  0  0  0  0  0
   -2.5960    2.9912   -1.1925 N   0  0  0  0  0  0  0  0  0  0  0  0
   -2.9295    3.9137   -0.8945 H   0  0  0  0  0  0  0  0  0  0  0  0
   -1.3791    2.4243   -0.8383 C   0  0  0  0  0  0  0  0  0  0  0  0
   -0.6110    2.8458   -0.1861 H   0  0  0  0  0  0  0  0  0  0  0  0
    0.2340   -0.1011    1.0734 C   0  0  0  0  0  0  0  0  0  0  0  0
    1.4343    0.0704    1.2239 O   0  0  0  0  0  0  0  0  0  0  0  0
   -0.6391    0.6775    1.8146 N   0  0  0  0  0  0  0  0  0  0  0  0
   -1.6070    0.3713    1.7738 H   0  0  0  0  0  0  0  0  0  0  0  0
   -0.2025    1.3578    3.0322 C   0  0  0  0  0  0  0  0  0  0  0  0
    0.5995    2.0706    2.8117 H   0  0  0  0  0  0  0  0  0  0  0  0
   -1.0349    1.9071    3.4827 H   0  0  0  0  0  0  0  0  0  0  0  0
    0.1699    0.6318    3.7638 H   0  0  0  0  0  0  0  0  0  0  0  0
  1  2  1  0  0  0  0
  2  3  1  0  0  0  0
  2  4  1  0  0  0  0
  2  5  1  0  0  0  0
  5  6  2  0  0  0  0
  5  7  1  0  0  0  0
  7  8  1  0  0  0  0
  7  9  1  0  0  0  0
  9 10  1  0  0  0  0
  9 11  1  0  0  0  0
  9 23  1  0  0  0  0
 11 12  1  0  0  0  0
 11 13  1  0  0  0  0
 11 14  1  0  0  0  0
 14 15  1  0  0  0  0
 14 21  2  0  0  0  0
 15 16  1  0  0  0  0
 15 17  2  0  0  0  0
 17 18  1  0  0  0  0
 17 19  1  0  0  0  0
 19 20  1  0  0  0  0
 19 21  1  0  0  0  0
 21 22  1  0  0  0  0
 23 24  2  0  0  0  0
 23 25  1  0  0  0  0
 25 26  1  0  0  0  0
 25 27  1  0  0  0  0
 27 28  1  0  0  0  0
 27 29  1  0  0  0  0
 27 30  1  0  0  0  0
M  CHG  1  15   1
M  END
$$$$

  -OEChem-04042216003D

 30 30  0     1  0  0  0  0  0999 V2000
   -3.1013   -3.9743    1.5059 H   0  0  0  0  0  0  0  0  0  0  0  0
   -3.1179   -3.1557    0.7798 C   0  0  0  0  0  0  0  0  0  0  0  0
   -3.8516   -2.4150    1.1059 H   0  0  0  0  0  0  0  0  0  0  0  0
   -3.4164   -3.5586   -0.1909 H   0  0  0  0  0  0  0  0  0  0  0  0
   -1.7422   -2.5247    0.6823 C   0  0  0  0  0  0  0  0  0  0  0  0
   -0.8325   -2.9411    1.3725 O   0  0  0  0  0  0  0  0  0  0  0  0
   -1.5175   -1.4590   -0.1732 N   0  0  0  0  0  0  0  0  0  0  0  0
   -2.3249   -1.0834   -0.6519 H   0  0  0  0  0  0  0  0  0  0  0  0
   -0.2158   -0.7589   -0.2641 C   0  0  1  0  0  0  0  0  0  0  0  0
    0.5442   -1.5219   -0.4778 H   0  0  0  0  0  0  0  0  0  0  0  0
   -0.1173    0.2943   -1.3891 C   0  0  0  0  0  0  0  0  0  0  0  0
    0.7944    0.8864   -1.2408 H   0  0  0  0  0  0  0  0  0  0  0  0
    0.0105   -0.2310   -2.3411 H   0  0  0  0  0  0  0  0  0  0  0  0
   -1.3057    1.2189   -1.5141 C   0  0  0  0  0  0  0  0  0  0  0  0
   -2.5693    0.9453   -2.0453 N   0  3  0  0  0  0  0  0  0  0  0  0
   -2.7832    0.0846   -2.5564 H   0  0  0  0  0  0  0  0  0  0  0  0
   -3.3231    2.0187   -1.9891 C   0  0  0  0  0  0  0  0  0  0  0  0
   -4.3367    2.1241   -2.3831 H   0  0  0  0  0  0  0  0  0  0  0  0
   -2.5788    3.0175   -1.3647 N   0  0  0  0  0  0  0  0  0  0  0  0
   -2.8929    3.9769   -1.1853 H   0  0  0  0  0  0  0  0  0  0  0  0
   -1.3147    2.5194   -1.0772 C   0  0  0  0  0  0  0  0  0  0  0  0
   -0.4859    3.0440   -0.5969 H   0  0  0  0  0  0  0  0  0  0  0  0
    0.2385   -0.1159    1.0657 C   0  0  0  0  0  0  0  0  0  0  0  0
    1.4314    0.0884    1.2301 O   0  0  0  0  0  0  0  0  0  0  0  0
   -0.6624    0.6027    1.8342 N   0  0  0  0  0  0  0  0  0  0  0  0
   -1.6272    0.2957    1.7680 H   0  0  0  0  0  0  0  0  0  0  0  0
   -0.2509    1.2768    3.0641 C   0  0  0  0  0  0  0  0  0  0  0  0
    0.5078    2.0383    2.8525 H   0  0  0  0  0  0  0  0  0  0  0  0
   -1.1075    1.7683    3.5355 H   0  0  0  0  0  0  0  0  0  0  0  0
    0.1689    0.5557    3.7748 H   0  0  0  0  0  0  0  0  0  0  0  0
  1  2  1  0  0  0  0
  2  3  1  0  0  0  0
  2  4  1  0  0  0  0
  2  5  1  0  0  0  0
  5  6  2  0  0  0  0
  5  7  1  0  0  0  0
  7  8  1  0  0  0  0
  7  9  1  0  0  0  0
  9 10  1  0  0  0  0
  9 11  1  0  0  0  0
  9 23  1  0  0  0  0
 11 12  1  0  0  0  0
 11 13  1  0  0  0  0
 11 14  1  0  0  0  0
 14 15  1  0  0  0  0
 14 21  2  0  0  0  0
 15 16  1  0  0  0  0
 15 17  2  0  0  0  0
 17 18  1  0  0  0  0
 17 19  1  0  0  0  0
 19 20  1  0  0  0  0
 19 21  1  0  0  0  0
 21 22  1  0  0  0  0
 23 24  2  0  0  0  0
 23 25  1  0  0  0  0
 25 26  1  0  0  0  0
 25 27  1  0  0  0  0
 27 28  1  0  0  0  0
 27 29  1  0  0  0  0
 27 30  1  0  0  0  0
M  CHG  1  15   1
M  END
$$$$

  -OEChem-04042216003D

 30 30  0     1  0  0  0  0  0999 V2000
   -3.0479   -4.1248    1.4506 H   0  0  0  0  0  0  0  0  0  0  0  0
   -3.0302   -3.3936    0.6364 C   0  0  0  0  0  0  0  0  0  0  0  0
   -3.9730   -2.8423    0.6425 H   0  0  0  0  0  0  0  0  0  0  0  0
   -2.9309   -3.9311   -0.3096 H   0  0  0  0  0  0  0  0  0  0  0  0
   -1.8649   -2.4409    0.8227 C   0  0  0  0  0  0  0  0  0  0  0  0
   -1.1658   -2.5351    1.8119 O   0  0  0  0  0  0  0  0  0  0  0  0
   -1.6169   -1.4557   -0.1216 N   0  0  0  0  0  0  0  0  0  0  0  0
   -2.0943   -1.6454   -0.9950 H   0  0  0  0  0  0  0  0  0  0  0  0
   -0.2798   -0.8216   -0.2416 C   0  0  1  0  0  0  0  0  0  0  0  0
    0.4598   -1.6083   -0.4364 H   0  0  0  0  0  0  0  0  0  0  0  0
   -0.1888    0.2321   -1.3719 C   0  0  0  0  0  0  0  0  0  0  0  0
    0.7576    0.7793   -1.2762 H   0  0  0  0  0  0  0  0  0  0  0  0
   -0.1361   -0.3014   -2.3262 H   0  0  0  0  0  0  0  0  0  0  0  0
   -1.3405    1.2152   -1.4536 C   0  0  0  0  0  0  0  0  0  0  0  0
   -2.7076    1.0013   -1.6545 N   0  3  0  0  0  0  0  0  0  0  0  0
   -3.1130    0.0784   -1.8122 H   0  0  0  0  0  0  0  0  0  0  0  0
   -3.3588    2.1404   -1.6344 C   0  0  0  0  0  0  0  0  0  0  0  0
   -4.4333    2.2796   -1.7710 H   0  0  0  0  0  0  0  0  0  0  0  0
   -2.4235    3.1462   -1.4089 N   0  0  0  0  0  0  0  0  0  0  0  0
   -2.6249    4.1486   -1.3349 H   0  0  0  0  0  0  0  0  0  0  0  0
   -1.1667    2.5682   -1.2944 C   0  0  0  0  0  0  0  0  0  0  0  0
   -0.2208    3.0769   -1.0994 H   0  0  0  0  0  0  0  0  0  0  0  0
    0.1979   -0.0990    1.0422 C   0  0  0  0  0  0  0  0  0  0  0  0
    1.4007    0.0432    1.2043 O   0  0  0  0  0  0  0  0  0  0  0  0
   -0.6682    0.7191    1.7479 N   0  0  0  0  0  0  0  0  0  0  0  0
   -1.6403    0.4282    1.7127 H   0  0  0  0  0  0  0  0  0  0  0  0
   -0.2290    1.4466    2.9365 C   0  0  0  0  0  0  0  0  0  0  0  0
    0.5872    2.1346    2.6902 H   0  0  0  0  0  0  0  0  0  0  0  0
   -1.0550    2.0311    3.3535 H   0  0  0  0  0  0  0  0  0  0  0  0
    0.1237    0.7484    3.7039 H   0  0  0  0  0  0  0  0  0  0  0  0
  1  2  1  0  0  0  0
  2  3  1  0  0  0  0
  2  4  1  0  0  0  0
  2  5  1  0  0  0  0
  5  6  2  0  0  0  0
  5  7  1  0  0  0  0
  7  8  1  0  0  0  0
  7  9  1  0  0  0  0
  9 10  1  0  0  0  0
  9 11  1  0  0  0  0
  9 23  1  0  0  0  0
 11 12  1  0  0  0  0
 11 13  1  0  0  0  0
 11 14  1  0  0  0  0
 14 15  1  0  0  0  0
 14 21  2  0  0  0  0
 15 16  1  0  0  0  0
 15 17  2  0  0  0  0
 17 18  1  0  0  0  0
 17 19  1  0  0  0  0
 19 20  1  0  0  0  0
 19 21  1  0  0  0  0
 21 22  1  0  0  0  0
 23 24  2  0  0  0  0
 23 25  1  0  0  0  0
 25 26  1  0  0  0  0
 25 27  1  0  0  0  0
 27 28  1  0  0  0  0
 27 29  1  0  0  0  0
 27 30  1  0  0  0  0
M  CHG  1  15   1
M  END
$$$$

  -OEChem-04042216003D

 30 30  0     1  0  0  0  0  0999 V2000
   -3.0189   -4.1739    1.4057 H   0  0  0  0  0  0  0  0  0  0  0  0
   -3.0059   -3.4407    0.5934 C   0  0  0  0  0  0  0  0  0  0  0  0
   -3.9717   -2.9307    0.5691 H   0  0  0  0  0  0  0  0  0  0  0  0
   -2.8540   -3.9716   -0.3495 H   0  0  0  0  0  0  0  0  0  0  0  0
   -1.8880   -2.4403    0.8190 C   0  0  0  0  0  0  0  0  0  0  0  0
   -1.2378   -2.4887    1.8440 O   0  0  0  0  0  0  0  0  0  0  0  0
   -1.6404   -1.4510   -0.1218 N   0  0  0  0  0  0  0  0  0  0  0  0
   -2.0774   -1.6783   -1.0099 H   0  0  0  0  0  0  0  0  0  0  0  0
   -0.2976   -0.8236   -0.2345 C   0  0  1  0  0  0  0  0  0  0  0  0
    0.4379   -1.6116   -0.4402 H   0  0  0  0  0  0  0  0  0  0  0  0
   -0.2125    0.2400   -1.3566 C   0  0  0  0  0  0  0  0  0  0  0  0
    0.7392    0.7798   -1.2720 H   0  0  0  0  0  0  0  0  0  0  0  0
   -0.1770   -0.2933   -2.3120 H   0  0  0  0  0  0  0  0  0  0  0  0
   -1.3584    1.2321   -1.4318 C   0  0  0  0  0  0  0  0  0  0  0  0
   -2.7385    1.0293   -1.3521 N   0  3  0  0  0  0  0  0  0  0  0  0
   -3.1524    0.1159   -1.1618 H   0  0  0  0  0  0  0  0  0  0  0  0
   -3.3793    2.1708   -1.4368 C   0  0  0  0  0  0  0  0  0  0  0  0
   -4.4598    2.3182   -1.3803 H   0  0  0  0  0  0  0  0  0  0  0  0
   -2.4222    3.1683   -1.5948 N   0  0  0  0  0  0  0  0  0  0  0  0
   -2.6096    4.1724   -1.6804 H   0  0  0  0  0  0  0  0  0  0  0  0
   -1.1631    2.5834   -1.5819 C   0  0  0  0  0  0  0  0  0  0  0  0
   -0.2004    3.0910   -1.6617 H   0  0  0  0  0  0  0  0  0  0  0  0
    0.1949   -0.1090    1.0484 C   0  0  0  0  0  0  0  0  0  0  0  0
    1.4008    0.0196    1.1990 O   0  0  0  0  0  0  0  0  0  0  0  0
   -0.6565    0.7156    1.7642 N   0  0  0  0  0  0  0  0  0  0  0  0
   -1.6266    0.4171    1.7602 H   0  0  0  0  0  0  0  0  0  0  0  0
   -0.1907    1.4534    2.9363 C   0  0  0  0  0  0  0  0  0  0  0  0
    0.6301    2.1273    2.6678 H   0  0  0  0  0  0  0  0  0  0  0  0
   -1.0026    2.0544    3.3573 H   0  0  0  0  0  0  0  0  0  0  0  0
    0.1654    0.7614    3.7079 H   0  0  0  0  0  0  0  0  0  0  0  0
  1  2  1  0  0  0  0
  2  3  1  0  0  0  0
  2  4  1  0  0  0  0
  2  5  1  0  0  0  0
  5  6  2  0  0  0  0
  5  7  1  0  0  0  0
  7  8  1  0  0  0  0
  7  9  1  0  0  0  0
  9 10  1  0  0  0  0
  9 11  1  0  0  0  0
  9 23  1  0  0  0  0
 11 12  1  0  0  0  0
 11 13  1  0  0  0  0
 11 14  1  0  0  0  0
 14 15  1  0  0  0  0
 14 21  2  0  0  0  0
 15 16  1  0  0  0  0
 15 17  2  0  0  0  0
 17 18  1  0  0  0  0
 17 19  1  0  0  0  0
 19 20  1  0  0  0  0
 19 21  1  0  0  0  0
 21 22  1  0  0  0  0
 23 24  2  0  0  0  0
 23 25  1  0  0  0  0
 25 26  1  0  0  0  0
 25 27  1  0  0  0  0
 27 28  1  0  0  0  0
 27 29  1  0  0  0  0
 27 30  1  0  0  0  0
M  CHG  1  15   1
M  END
$$$$

  -OEChem-04042216003D

 30 30  0     1  0  0  0  0  0999 V2000
   -3.0213   -4.1987    1.3624 H   0  0  0  0  0  0  0  0  0  0  0  0
   -3.0122   -3.4511    0.5630 C   0  0  0  0  0  0  0  0  0  0  0  0
   -3.9845   -2.9537    0.5400 H   0  0  0  0  0  0  0  0  0  0  0  0
   -2.8464   -3.9635   -0.3879 H   0  0  0  0  0  0  0  0  0  0  0  0
   -1.9100   -2.4395    0.8135 C   0  0  0  0  0  0  0  0  0  0  0  0
   -1.2870   -2.4729    1.8555 O   0  0  0  0  0  0  0  0  0  0  0  0
   -1.6588   -1.4392   -0.1142 N   0  0  0  0  0  0  0  0  0  0  0  0
   -2.0976   -1.6504   -1.0074 H   0  0  0  0  0  0  0  0  0  0  0  0
   -0.3118   -0.8176   -0.2218 C   0  0  1  0  0  0  0  0  0  0  0  0
    0.4163   -1.6102   -0.4362 H   0  0  0  0  0  0  0  0  0  0  0  0
   -0.2254    0.2440   -1.3461 C   0  0  0  0  0  0  0  0  0  0  0  0
    0.7270    0.7832   -1.2656 H   0  0  0  0  0  0  0  0  0  0  0  0
   -0.1939   -0.2953   -2.2985 H   0  0  0  0  0  0  0  0  0  0  0  0
   -1.3669    1.2399   -1.4290 C   0  0  0  0  0  0  0  0  0  0  0  0
   -2.7107    1.0918   -1.0796 N   0  3  0  0  0  0  0  0  0  0  0  0
   -3.0668    0.2465   -0.6280 H   0  0  0  0  0  0  0  0  0  0  0  0
   -3.3636    2.2142   -1.2641 C   0  0  0  0  0  0  0  0  0  0  0  0
   -4.4160    2.4009   -1.0406 H   0  0  0  0  0  0  0  0  0  0  0  0
   -2.4555    3.1367   -1.7756 N   0  0  0  0  0  0  0  0  0  0  0  0
   -2.6606    4.1128   -2.0121 H   0  0  0  0  0  0  0  0  0  0  0  0
   -1.2083    2.5320   -1.8661 C   0  0  0  0  0  0  0  0  0  0  0  0
   -0.2768    2.9894   -2.2035 H   0  0  0  0  0  0  0  0  0  0  0  0
    0.1979   -0.1200    1.0639 C   0  0  0  0  0  0  0  0  0  0  0  0
    1.4063    0.0022    1.1973 O   0  0  0  0  0  0  0  0  0  0  0  0
   -0.6395    0.7042    1.7970 N   0  0  0  0  0  0  0  0  0  0  0  0
   -1.6007    0.3820    1.8402 H   0  0  0  0  0  0  0  0  0  0  0  0
   -0.1432    1.4531    2.9500 C   0  0  0  0  0  0  0  0  0  0  0  0
    0.6641    2.1317    2.6530 H   0  0  0  0  0  0  0  0  0  0  0  0
   -0.9463    2.0509    3.3920 H   0  0  0  0  0  0  0  0  0  0  0  0
    0.2413    0.7686    3.7144 H   0  0  0  0  0  0  0  0  0  0  0  0
  1  2  1  0  0  0  0
  2  3  1  0  0  0  0
  2  4  1  0  0  0  0
  2  5  1  0  0  0  0
  5  6  2  0  0  0  0
  5  7  1  0  0  0  0
  7  8  1  0  0  0  0
  7  9  1  0  0  0  0
  9 10  1  0  0  0  0
  9 11  1  0  0  0  0
  9 23  1  0  0  0  0
 11 12  1  0  0  0  0
 11 13  1  0  0  0  0
 11 14  1  0  0  0  0
 14 15  1  0  0  0  0
 14 21  2  0  0  0  0
 15 16  1  0  0  0  0
 15 17  2  0  0  0  0
 17 18  1  0  0  0  0
 17 19  1  0  0  0  0
 19 20  1  0  0  0  0
 19 21  1  0  0  0  0
 21 22  1  0  0  0  0
 23 24  2  0  0  0  0
 23 25  1  0  0  0  0
 25 26  1  0  0  0  0
 25 27  1  0  0  0  0
 27 28  1  0  0  0  0
 27 29  1  0  0  0  0
 27 30  1  0  0  0  0
M  CHG  1  15   1
M  END
$$$$

  -OEChem-04042216003D

 30 30  0     1  0  0  0  0  0999 V2000
   -3.0739   -4.1801    1.3518 H   0  0  0  0  0  0  0  0  0  0  0  0
   -3.0298   -3.4499    0.5377 C   0  0  0  0  0  0  0  0  0  0  0  0
   -3.9971   -2.9475    0.4671 H   0  0  0  0  0  0  0  0  0  0  0  0
   -2.8316   -3.9833   -0.3953 H   0  0  0  0  0  0  0  0  0  0  0  0
   -1.9298   -2.4408    0.8065 C   0  0  0  0  0  0  0  0  0  0  0  0
   -1.3150   -2.4790    1.8535 O   0  0  0  0  0  0  0  0  0  0  0  0
   -1.6758   -1.4246   -0.1018 N   0  0  0  0  0  0  0  0  0  0  0  0
   -2.1376   -1.5941   -0.9933 H   0  0  0  0  0  0  0  0  0  0  0  0
   -0.3272   -0.8064   -0.2067 C   0  0  1  0  0  0  0  0  0  0  0  0
    0.3926   -1.6047   -0.4284 H   0  0  0  0  0  0  0  0  0  0  0  0
   -0.2352    0.2474   -1.3385 C   0  0  0  0  0  0  0  0  0  0  0  0
    0.7142    0.7912   -1.2540 H   0  0  0  0  0  0  0  0  0  0  0  0
   -0.1956   -0.2980   -2.2871 H   0  0  0  0  0  0  0  0  0  0  0  0
   -1.3748    1.2423   -1.4352 C   0  0  0  0  0  0  0  0  0  0  0  0
   -2.6375    1.1972   -0.8424 N   0  3  0  0  0  0  0  0  0  0  0  0
   -2.9127    0.4422   -0.2088 H   0  0  0  0  0  0  0  0  0  0  0  0
   -3.3175    2.2843   -1.1162 C   0  0  0  0  0  0  0  0  0  0  0  0
   -4.3187    2.5342   -0.7593 H   0  0  0  0  0  0  0  0  0  0  0  0
   -2.5116    3.0751   -1.9310 N   0  0  0  0  0  0  0  0  0  0  0  0
   -2.7557    4.0004   -2.2984 H   0  0  0  0  0  0  0  0  0  0  0  0
   -1.2954    2.4300   -2.1191 C   0  0  0  0  0  0  0  0  0  0  0  0
   -0.4342    2.7960   -2.6800 H   0  0  0  0  0  0  0  0  0  0  0  0
    0.2017   -0.1324    1.0835 C   0  0  0  0  0  0  0  0  0  0  0  0
    1.4120   -0.0016    1.1883 O   0  0  0  0  0  0  0  0  0  0  0  0
   -0.6230    0.6840    1.8399 N   0  0  0  0  0  0  0  0  0  0  0  0
   -1.5622    0.3159    1.9515 H   0  0  0  0  0  0  0  0  0  0  0  0
   -0.0907    1.4536    2.9635 C   0  0  0  0  0  0  0  0  0  0  0  0
    0.6917    2.1423    2.6257 H   0  0  0  0  0  0  0  0  0  0  0  0
   -0.8842    2.0427    3.4332 H   0  0  0  0  0  0  0  0  0  0  0  0
    0.3374    0.7840    3.7181 H   0  0  0  0  0  0  0  0  0  0  0  0
  1  2  1  0  0  0  0
  2  3  1  0  0  0  0
  2  4  1  0  0  0  0
  2  5  1  0  0  0  0
  5  6  2  0  0  0  0
  5  7  1  0  0  0  0
  7  8  1  0  0  0  0
  7  9  1  0  0  0  0
  9 10  1  0  0  0  0
  9 11  1  0  0  0  0
  9 23  1  0  0  0  0
 11 12  1  0  0  0  0
 11 13  1  0  0  0  0
 11 14  1  0  0  0  0
 14 15  1  0  0  0  0
 14 21  2  0  0  0  0
 15 16  1  0  0  0  0
 15 17  2  0  0  0  0
 17 18  1  0  0  0  0
 17 19  1  0  0  0  0
 19 20  1  0  0  0  0
 19 21  1  0  0  0  0
 21 22  1  0  0  0  0
 23 24  2  0  0  0  0
 23 25  1  0  0  0  0
 25 26  1  0  0  0  0
 25 27  1  0  0  0  0
 27 28  1  0  0  0  0
 27 29  1  0  0  0  0
 27 30  1  0  0  0  0
M  CHG  1  15   1
M  END
$$$$

  -OEChem-04042216003D

 30 30  0     1  0  0  0  0  0999 V2000
   -3.1117   -4.1756    1.2994 H   0  0  0  0  0  0  0  0  0  0  0  0
   -3.0753   -3.4098    0.5185 C   0  0  0  0  0  0  0  0  0  0  0  0
   -4.0256   -2.8713    0.5128 H   0  0  0  0  0  0  0  0  0  0  0  0
   -2.9362   -3.9048   -0.4458 H   0  0  0  0  0  0  0  0  0  0  0  0
   -1.9296   -2.4524    0.7848 C   0  0  0  0  0  0  0  0  0  0  0  0
   -1.2874   -2.5431    1.8125 O   0  0  0  0  0  0  0  0  0  0  0  0
   -1.6670   -1.4126   -0.0925 N   0  0  0  0  0  0  0  0  0  0  0  0
   -2.1711   -1.5070   -0.9718 H   0  0  0  0  0  0  0  0  0  0  0  0
   -0.3197   -0.7944   -0.1918 C   0  0  1  0  0  0  0  0  0  0  0  0
    0.3947   -1.5947   -0.4235 H   0  0  0  0  0  0  0  0  0  0  0  0
   -0.2230    0.2573   -1.3250 C   0  0  0  0  0  0  0  0  0  0  0  0
    0.7193    0.8101   -1.2232 H   0  0  0  0  0  0  0  0  0  0  0  0
   -0.1642   -0.2844   -2.2749 H   0  0  0  0  0  0  0  0  0  0  0  0
   -1.3634    1.2483   -1.4283 C   0  0  0  0  0  0  0  0  0  0  0  0
   -2.5037    1.3464   -0.6311 N   0  3  0  0  0  0  0  0  0  0  0  0
   -2.6541    0.7359    0.1763 H   0  0  0  0  0  0  0  0  0  0  0  0
   -3.2372    2.3698   -0.9959 C   0  0  0  0  0  0  0  0  0  0  0  0
   -4.1640    2.7067   -0.5267 H   0  0  0  0  0  0  0  0  0  0  0  0
   -2.5987    2.9625   -2.0824 N   0  0  0  0  0  0  0  0  0  0  0  0
   -2.9180    3.7992   -2.5811 H   0  0  0  0  0  0  0  0  0  0  0  0
   -1.4242    2.2673   -2.3459 C   0  0  0  0  0  0  0  0  0  0  0  0
   -0.6820    2.4916   -3.1134 H   0  0  0  0  0  0  0  0  0  0  0  0
    0.2143   -0.1583    1.1144 C   0  0  0  0  0  0  0  0  0  0  0  0
    1.4218    0.0093    1.1949 O   0  0  0  0  0  0  0  0  0  0  0  0
   -0.6181    0.6334    1.8896 N   0  0  0  0  0  0  0  0  0  0  0  0
   -1.5026    0.1764    2.0929 H   0  0  0  0  0  0  0  0  0  0  0  0
   -0.0697    1.4554    2.9683 C   0  0  0  0  0  0  0  0  0  0  0  0
    0.6604    2.1723    2.5764 H   0  0  0  0  0  0  0  0  0  0  0  0
   -0.8670    2.0179    3.4636 H   0  0  0  0  0  0  0  0  0  0  0  0
    0.4276    0.8269    3.7158 H   0  0  0  0  0  0  0  0  0  0  0  0
  1  2  1  0  0  0  0
  2  3  1  0  0  0  0
  2  4  1  0  0  0  0
  2  5  1  0  0  0  0
  5  6  2  0  0  0  0
  5  7  1  0  0  0  0
  7  8  1  0  0  0  0
  7  9  1  0  0  0  0
  9 10  1  0  0  0  0
  9 11  1  0  0  0  0
  9 23  1  0  0  0  0
 11 12  1  0  0  0  0
 11 13  1  0  0  0  0
 11 14  1  0  0  0  0
 14 15  1  0  0  0  0
 14 21  2  0  0  0  0
 15 16  1  0  0  0  0
 15 17  2  0  0  0  0
 17 18  1  0  0  0  0
 17 19  1  0  0  0  0
 19 20  1  0  0  0  0
 19 21  1  0  0  0  0
 21 22  1  0  0  0  0
 23 24  2  0  0  0  0
 23 25  1  0  0  0  0
 25 26  1  0  0  0  0
 25 27  1  0  0  0  0
 27 28  1  0  0  0  0
 27 29  1  0  0  0  0
 27 30  1  0  0  0  0
M  CHG  1  15   1
M  END
$$$$

  -OEChem-04042216003D

 30 30  0     1  0  0  0  0  0999 V2000
   -3.1848   -4.1114    1.2850 H   0  0  0  0  0  0  0  0  0  0  0  0
   -3.1184   -3.3473    0.5044 C   0  0  0  0  0  0  0  0  0  0  0  0
   -4.0401   -2.7608    0.5094 H   0  0  0  0  0  0  0  0  0  0  0  0
   -3.0145   -3.8461   -0.4622 H   0  0  0  0  0  0  0  0  0  0  0  0
   -1.9235   -2.4486    0.7587 C   0  0  0  0  0  0  0  0  0  0  0  0
   -1.2511   -2.5966    1.7607 O   0  0  0  0  0  0  0  0  0  0  0  0
   -1.6453   -1.3955   -0.0961 N   0  0  0  0  0  0  0  0  0  0  0  0
   -2.1910   -1.4173   -0.9547 H   0  0  0  0  0  0  0  0  0  0  0  0
   -0.2973   -0.7824   -0.1923 C   0  0  1  0  0  0  0  0  0  0  0  0
    0.4126   -1.5852   -0.4291 H   0  0  0  0  0  0  0  0  0  0  0  0
   -0.1957    0.2681   -1.3259 C   0  0  0  0  0  0  0  0  0  0  0  0
    0.7415    0.8260   -1.2081 H   0  0  0  0  0  0  0  0  0  0  0  0
   -0.1219   -0.2669   -2.2783 H   0  0  0  0  0  0  0  0  0  0  0  0
   -1.3361    1.2576   -1.4249 C   0  0  0  0  0  0  0  0  0  0  0  0
   -2.3112    1.5308   -0.4664 N   0  3  0  0  0  0  0  0  0  0  0  0
   -2.2672    1.1336    0.4768 H   0  0  0  0  0  0  0  0  0  0  0  0
   -3.1249    2.4670   -0.8902 C   0  0  0  0  0  0  0  0  0  0  0  0
   -3.9472    2.9163   -0.3294 H   0  0  0  0  0  0  0  0  0  0  0  0
   -2.7237    2.8032   -2.1811 N   0  0  0  0  0  0  0  0  0  0  0  0
   -3.1546    3.5202   -2.7737 H   0  0  0  0  0  0  0  0  0  0  0  0
   -1.6022    2.0514   -2.5125 C   0  0  0  0  0  0  0  0  0  0  0  0
   -1.0308    2.0904   -3.4409 H   0  0  0  0  0  0  0  0  0  0  0  0
    0.2279   -0.1774    1.1313 C   0  0  0  0  0  0  0  0  0  0  0  0
    1.4302    0.0241    1.2062 O   0  0  0  0  0  0  0  0  0  0  0  0
   -0.6204    0.5948    1.9117 N   0  0  0  0  0  0  0  0  0  0  0  0
   -1.4609    0.0761    2.1598 H   0  0  0  0  0  0  0  0  0  0  0  0
   -0.0760    1.4380    2.9772 C   0  0  0  0  0  0  0  0  0  0  0  0
    0.6065    2.1902    2.5657 H   0  0  0  0  0  0  0  0  0  0  0  0
   -0.8820    1.9591    3.5031 H   0  0  0  0  0  0  0  0  0  0  0  0
    0.4751    0.8312    3.7048 H   0  0  0  0  0  0  0  0  0  0  0  0
  1  2  1  0  0  0  0
  2  3  1  0  0  0  0
  2  4  1  0  0  0  0
  2  5  1  0  0  0  0
  5  6  2  0  0  0  0
  5  7  1  0  0  0  0
  7  8  1  0  0  0  0
  7  9  1  0  0  0  0
  9 10  1  0  0  0  0
  9 11  1  0  0  0  0
  9 23  1  0  0  0  0
 11 12  1  0  0  0  0
 11 13  1  0  0  0  0
 11 14  1  0  0  0  0
 14 15  1  0  0  0  0
 14 21  2  0  0  0  0
 15 16  1  0  0  0  0
 15 17  2  0  0  0  0
 17 18  1  0  0  0  0
 17 19  1  0  0  0  0
 19 20  1  0  0  0  0
 19 21  1  0  0  0  0
 21 22  1  0  0  0  0
 23 24  2  0  0  0  0
 23 25  1  0  0  0  0
 25 26  1  0  0  0  0
 25 27  1  0  0  0  0
 27 28  1  0  0  0  0
 27 29  1  0  0  0  0
 27 30  1  0  0  0  0
M  CHG  1  15   1
M  END
$$$$

  -OEChem-04042216003D

 30 30  0     1  0  0  0  0  0999 V2000
   -3.1738   -4.1012    1.2528 H   0  0  0  0  0  0  0  0  0  0  0  0
   -3.1406   -3.2907    0.5184 C   0  0  0  0  0  0  0  0  0  0  0  0
   -4.0459   -2.6880    0.6210 H   0  0  0  0  0  0  0  0  0  0  0  0
   -3.1116   -3.7293   -0.4820 H   0  0  0  0  0  0  0  0  0  0  0  0
   -1.9112   -2.4331    0.7482 C   0  0  0  0  0  0  0  0  0  0  0  0
   -1.2040   -2.6280    1.7181 O   0  0  0  0  0  0  0  0  0  0  0  0
   -1.6245   -1.3786   -0.1016 N   0  0  0  0  0  0  0  0  0  0  0  0
   -2.2008   -1.3516   -0.9391 H   0  0  0  0  0  0  0  0  0  0  0  0
   -0.2780   -0.7653   -0.1959 C   0  0  1  0  0  0  0  0  0  0  0  0
    0.4319   -1.5702   -0.4248 H   0  0  0  0  0  0  0  0  0  0  0  0
   -0.1715    0.2712   -1.3402 C   0  0  0  0  0  0  0  0  0  0  0  0
    0.7607    0.8364   -1.2180 H   0  0  0  0  0  0  0  0  0  0  0  0
   -0.0856   -0.2718   -2.2869 H   0  0  0  0  0  0  0  0  0  0  0  0
   -1.3181    1.2508   -1.4481 C   0  0  0  0  0  0  0  0  0  0  0  0
   -2.1072    1.7267   -0.4020 N   0  3  0  0  0  0  0  0  0  0  0  0
   -1.8862    1.5223    0.5793 H   0  0  0  0  0  0  0  0  0  0  0  0
   -2.9989    2.5770   -0.8487 C   0  0  0  0  0  0  0  0  0  0  0  0
   -3.7130    3.1442   -0.2481 H   0  0  0  0  0  0  0  0  0  0  0  0
   -2.8436    2.6432   -2.2318 N   0  0  0  0  0  0  0  0  0  0  0  0
   -3.3869    3.2373   -2.8665 H   0  0  0  0  0  0  0  0  0  0  0  0
   -1.7890    1.8176   -2.6063 C   0  0  0  0  0  0  0  0  0  0  0  0
   -1.3978    1.6601   -3.6124 H   0  0  0  0  0  0  0  0  0  0  0  0
    0.2373   -0.1645    1.1328 C   0  0  0  0  0  0  0  0  0  0  0  0
    1.4369    0.0460    1.2183 O   0  0  0  0  0  0  0  0  0  0  0  0
   -0.6207    0.6029    1.9088 N   0  0  0  0  0  0  0  0  0  0  0  0
   -1.4795    0.0934    2.1135 H   0  0  0  0  0  0  0  0  0  0  0  0
   -0.0927    1.4046    3.0142 C   0  0  0  0  0  0  0  0  0  0  0  0
    0.6140    2.1563    2.6451 H   0  0  0  0  0  0  0  0  0  0  0  0
   -0.9040    1.9246    3.5332 H   0  0  0  0  0  0  0  0  0  0  0  0
    0.4274    0.7663    3.7380 H   0  0  0  0  0  0  0  0  0  0  0  0
  1  2  1  0  0  0  0
  2  3  1  0  0  0  0
  2  4  1  0  0  0  0
  2  5  1  0  0  0  0
  5  6  2  0  0  0  0
  5  7  1  0  0  0  0
  7  8  1  0  0  0  0
  7  9  1  0  0  0  0
  9 10  1  0  0  0  0
  9 11  1  0  0  0  0
  9 23  1  0  0  0  0
 11 12  1  0  0  0  0
 11 13  1  0  0  0  0
 11 14  1  0  0  0  0
 14 15  1  0  0  0  0
 14 21  2  0  0  0  0
 15 16  1  0  0  0  0
 15 17  2  0  0  0  0
 17 18  1  0  0  0  0
 17 19  1  0  0  0  0
 19 20  1  0  0  0  0
 19 21  1  0  0  0  0
 21 22  1  0  0  0  0
 23 24  2  0  0  0  0
 23 25  1  0  0  0  0
 25 26  1  0  0  0  0
 25 27  1  0  0  0  0
 27 28  1  0  0  0  0
 27 29  1  0  0  0  0
 27 30  1  0  0  0  0
M  CHG  1  15   1
M  END
$$$$

  -OEChem-04042216003D

 30 30  0     1  0  0  0  0  0999 V2000
   -3.1788   -4.0645    1.2899 H   0  0  0  0  0  0  0  0  0  0  0  0
   -3.1438   -3.2600    0.5490 C   0  0  0  0  0  0  0  0  0  0  0  0
   -4.0359   -2.6399    0.6635 H   0  0  0  0  0  0  0  0  0  0  0  0
   -3.1414   -3.7065   -0.4484 H   0  0  0  0  0  0  0  0  0  0  0  0
   -1.8946   -2.4238    0.7504 C   0  0  0  0  0  0  0  0  0  0  0  0
   -1.1656   -2.6357    1.7003 O   0  0  0  0  0  0  0  0  0  0  0  0
   -1.6062   -1.3779   -0.1093 N   0  0  0  0  0  0  0  0  0  0  0  0
   -2.2007   -1.3309   -0.9324 H   0  0  0  0  0  0  0  0  0  0  0  0
   -0.2634   -0.7579   -0.2046 C   0  0  1  0  0  0  0  0  0  0  0  0
    0.4530   -1.5606   -0.4217 H   0  0  0  0  0  0  0  0  0  0  0  0
   -0.1603    0.2659   -1.3594 C   0  0  0  0  0  0  0  0  0  0  0  0
    0.7676    0.8398   -1.2456 H   0  0  0  0  0  0  0  0  0  0  0  0
   -0.0714   -0.2873   -2.3001 H   0  0  0  0  0  0  0  0  0  0  0  0
   -1.3204    1.2285   -1.4692 C   0  0  0  0  0  0  0  0  0  0  0  0
   -1.9148    1.9155   -0.4116 N   0  3  0  0  0  0  0  0  0  0  0  0
   -1.5546    1.8551    0.5491 H   0  0  0  0  0  0  0  0  0  0  0  0
   -2.8691    2.6988   -0.8513 C   0  0  0  0  0  0  0  0  0  0  0  0
   -3.4767    3.3803   -0.2521 H   0  0  0  0  0  0  0  0  0  0  0  0
   -2.9453    2.5158   -2.2308 N   0  0  0  0  0  0  0  0  0  0  0  0
   -3.5828    3.0094   -2.8641 H   0  0  0  0  0  0  0  0  0  0  0  0
   -1.9722    1.6005   -2.6186 C   0  0  0  0  0  0  0  0  0  0  0  0
   -1.7503    1.2606   -3.6311 H   0  0  0  0  0  0  0  0  0  0  0  0
    0.2416   -0.1375    1.1194 C   0  0  0  0  0  0  0  0  0  0  0  0
    1.4400    0.0737    1.2163 O   0  0  0  0  0  0  0  0  0  0  0  0
   -0.6199    0.6357    1.8858 N   0  0  0  0  0  0  0  0  0  0  0  0
   -1.5162    0.1699    2.0219 H   0  0  0  0  0  0  0  0  0  0  0  0
   -0.1114    1.3797    3.0398 C   0  0  0  0  0  0  0  0  0  0  0  0
    0.6256    2.1277    2.7267 H   0  0  0  0  0  0  0  0  0  0  0  0
   -0.9274    1.8980    3.5530 H   0  0  0  0  0  0  0  0  0  0  0  0
    0.3679    0.6995    3.7535 H   0  0  0  0  0  0  0  0  0  0  0  0
  1  2  1  0  0  0  0
  2  3  1  0  0  0  0
  2  4  1  0  0  0  0
  2  5  1  0  0  0  0
  5  6  2  0  0  0  0
  5  7  1  0  0  0  0
  7  8  1  0  0  0  0
  7  9  1  0  0  0  0
  9 10  1  0  0  0  0
  9 11  1  0  0  0  0
  9 23  1  0  0  0  0
 11 12  1  0  0  0  0
 11 13  1  0  0  0  0
 11 14  1  0  0  0  0
 14 15  1  0  0  0  0
 14 21  2  0  0  0  0
 15 16  1  0  0  0  0
 15 17  2  0  0  0  0
 17 18  1  0  0  0  0
 17 19  1  0  0  0  0
 19 20  1  0  0  0  0
 19 21  1  0  0  0  0
 21 22  1  0  0  0  0
 23 24  2  0  0  0  0
 23 25  1  0  0  0  0
 25 26  1  0  0  0  0
 25 27  1  0  0  0  0
 27 28  1  0  0  0  0
 27 29  1  0  0  0  0
 27 30  1  0  0  0  0
M  CHG  1  15   1
M  END
$$$$

  -OEChem-04042216003D

 30 30  0     1  0  0  0  0  0999 V2000
   -3.1671   -4.0446    1.3420 H   0  0  0  0  0  0  0  0  0  0  0  0
   -3.1347   -3.2518    0.5885 C   0  0  0  0  0  0  0  0  0  0  0  0
   -4.0189   -2.6212    0.7053 H   0  0  0  0  0  0  0  0  0  0  0  0
   -3.1492   -3.7134   -0.4020 H   0  0  0  0  0  0  0  0  0  0  0  0
   -1.8756   -2.4243    0.7609 C   0  0  0  0  0  0  0  0  0  0  0  0
   -1.1280   -2.6397    1.6955 O   0  0  0  0  0  0  0  0  0  0  0  0
   -1.5917   -1.3915   -0.1159 N   0  0  0  0  0  0  0  0  0  0  0  0
   -2.1989   -1.3408   -0.9290 H   0  0  0  0  0  0  0  0  0  0  0  0
   -0.2540   -0.7632   -0.2168 C   0  0  1  0  0  0  0  0  0  0  0  0
    0.4699   -1.5614   -0.4244 H   0  0  0  0  0  0  0  0  0  0  0  0
   -0.1587    0.2556   -1.3742 C   0  0  0  0  0  0  0  0  0  0  0  0
    0.7668    0.8357   -1.2734 H   0  0  0  0  0  0  0  0  0  0  0  0
   -0.0760   -0.3023   -2.3127 H   0  0  0  0  0  0  0  0  0  0  0  0
   -1.3315    1.2017   -1.4727 C   0  0  0  0  0  0  0  0  0  0  0  0
   -1.7292    2.0889   -0.4734 N   0  3  0  0  0  0  0  0  0  0  0  0
   -1.2539    2.1375    0.4371 H   0  0  0  0  0  0  0  0  0  0  0  0
   -2.7331    2.8235   -0.8855 C   0  0  0  0  0  0  0  0  0  0  0  0
   -3.2360    3.6099   -0.3187 H   0  0  0  0  0  0  0  0  0  0  0  0
   -3.0268    2.4213   -2.1875 N   0  0  0  0  0  0  0  0  0  0  0  0
   -3.7465    2.8328   -2.7905 H   0  0  0  0  0  0  0  0  0  0  0  0
   -2.1440    1.4122   -2.5588 C   0  0  0  0  0  0  0  0  0  0  0  0
   -2.0831    0.9095   -3.5248 H   0  0  0  0  0  0  0  0  0  0  0  0
    0.2411   -0.1151    1.0975 C   0  0  0  0  0  0  0  0  0  0  0  0
    1.4381    0.0995    1.2044 O   0  0  0  0  0  0  0  0  0  0  0  0
   -0.6251    0.6666    1.8487 N   0  0  0  0  0  0  0  0  0  0  0  0
   -1.5493    0.2449    1.9265 H   0  0  0  0  0  0  0  0  0  0  0  0
   -0.1417    1.3752    3.0351 C   0  0  0  0  0  0  0  0  0  0  0  0
    0.6257    2.1096    2.7654 H   0  0  0  0  0  0  0  0  0  0  0  0
   -0.9636    1.9041    3.5277 H   0  0  0  0  0  0  0  0  0  0  0  0
    0.2925    0.6693    3.7526 H   0  0  0  0  0  0  0  0  0  0  0  0
  1  2  1  0  0  0  0
  2  3  1  0  0  0  0
  2  4  1  0  0  0  0
  2  5  1  0  0  0  0
  5  6  2  0  0  0  0
  5  7  1  0  0  0  0
  7  8  1  0  0  0  0
  7  9  1  0  0  0  0
  9 10  1  0  0  0  0
  9 11  1  0  0  0  0
  9 23  1  0  0  0  0
 11 12  1  0  0  0  0
 11 13  1  0  0  0  0
 11 14  1  0  0  0  0
 14 15  1  0  0  0  0
 14 21  2  0  0  0  0
 15 16  1  0  0  0  0
 15 17  2  0  0  0  0
 17 18  1  0  0  0  0
 17 19  1  0  0  0  0
 19 20  1  0  0  0  0
 19 21  1  0  0  0  0
 21 22  1  0  0  0  0
 23 24  2  0  0  0  0
 23 25  1  0  0  0  0
 25 26  1  0  0  0  0
 25 27  1  0  0  0  0
 27 28  1  0  0  0  0
 27 29  1  0  0  0  0
 27 30  1  0  0  0  0
M  CHG  1  15   1
M  END
$$$$

  -OEChem-04042216003D

 30 30  0     1  0  0  0  0  0999 V2000
   -3.1506   -4.0324    1.3902 H   0  0  0  0  0  0  0  0  0  0  0  0
   -3.1243   -3.2466    0.6292 C   0  0  0  0  0  0  0  0  0  0  0  0
   -4.0017   -2.6081    0.7550 H   0  0  0  0  0  0  0  0  0  0  0  0
   -3.1582   -3.7166   -0.3566 H   0  0  0  0  0  0  0  0  0  0  0  0
   -1.8564   -2.4274    0.7736 C   0  0  0  0  0  0  0  0  0  0  0  0
   -1.0965   -2.6409    1.6986 O   0  0  0  0  0  0  0  0  0  0  0  0
   -1.5760   -1.4101   -0.1224 N   0  0  0  0  0  0  0  0  0  0  0  0
   -2.1905   -1.3664   -0.9297 H   0  0  0  0  0  0  0  0  0  0  0  0
   -0.2419   -0.7756   -0.2322 C   0  0  1  0  0  0  0  0  0  0  0  0
    0.4902   -1.5679   -0.4334 H   0  0  0  0  0  0  0  0  0  0  0  0
   -0.1552    0.2466   -1.3857 C   0  0  0  0  0  0  0  0  0  0  0  0
    0.7718    0.8268   -1.3010 H   0  0  0  0  0  0  0  0  0  0  0  0
   -0.0882   -0.3106   -2.3260 H   0  0  0  0  0  0  0  0  0  0  0  0
   -1.3366    1.1824   -1.4613 C   0  0  0  0  0  0  0  0  0  0  0  0
   -1.5475    2.2487   -0.5879 N   0  3  0  0  0  0  0  0  0  0  0  0
   -0.9520    2.4121    0.2333 H   0  0  0  0  0  0  0  0  0  0  0  0
   -2.5999    2.9381   -0.9540 C   0  0  0  0  0  0  0  0  0  0  0  0
   -3.0010    3.8218   -0.4532 H   0  0  0  0  0  0  0  0  0  0  0  0
   -3.1039    2.3356   -2.1060 N   0  0  0  0  0  0  0  0  0  0  0  0
   -3.9074    2.6680   -2.6492 H   0  0  0  0  0  0  0  0  0  0  0  0
   -2.3054    1.2434   -2.4320 C   0  0  0  0  0  0  0  0  0  0  0  0
   -2.4017    0.5896   -3.2996 H   0  0  0  0  0  0  0  0  0  0  0  0
    0.2401   -0.1005    1.0734 C   0  0  0  0  0  0  0  0  0  0  0  0
    1.4356    0.1162    1.1943 O   0  0  0  0  0  0  0  0  0  0  0  0
   -0.6346    0.6887    1.8053 N   0  0  0  0  0  0  0  0  0  0  0  0
   -1.5785    0.3080    1.8285 H   0  0  0  0  0  0  0  0  0  0  0  0
   -0.1821    1.3774    3.0147 C   0  0  0  0  0  0  0  0  0  0  0  0
    0.5983    2.1091    2.7784 H   0  0  0  0  0  0  0  0  0  0  0  0
   -1.0152    1.9057    3.4888 H   0  0  0  0  0  0  0  0  0  0  0  0
    0.2246    0.6584    3.7354 H   0  0  0  0  0  0  0  0  0  0  0  0
  1  2  1  0  0  0  0
  2  3  1  0  0  0  0
  2  4  1  0  0  0  0
  2  5  1  0  0  0  0
  5  6  2  0  0  0  0
  5  7  1  0  0  0  0
  7  8  1  0  0  0  0
  7  9  1  0  0  0  0
  9 10  1  0  0  0  0
  9 11  1  0  0  0  0
  9 23  1  0  0  0  0
 11 12  1  0  0  0  0
 11 13  1  0  0  0  0
 11 14  1  0  0  0  0
 14 15  1  0  0  0  0
 14 21  2  0  0  0  0
 15 16  1  0  0  0  0
 15 17  2  0  0  0  0
 17 18  1  0  0  0  0
 17 19  1  0  0  0  0
 19 20  1  0  0  0  0
 19 21  1  0  0  0  0
 21 22  1  0  0  0  0
 23 24  2  0  0  0  0
 23 25  1  0  0  0  0
 25 26  1  0  0  0  0
 25 27  1  0  0  0  0
 27 28  1  0  0  0  0
 27 29  1  0  0  0  0
 27 30  1  0  0  0  0
M  CHG  1  15   1
M  END
$$$$

  -OEChem-04042216003D

 30 30  0     1  0  0  0  0  0999 V2000
   -3.1299   -4.0358    1.4299 H   0  0  0  0  0  0  0  0  0  0  0  0
   -3.1096   -3.2600    0.6585 C   0  0  0  0  0  0  0  0  0  0  0  0
   -3.9881   -2.6225    0.7804 H   0  0  0  0  0  0  0  0  0  0  0  0
   -3.1475   -3.7432   -0.3207 H   0  0  0  0  0  0  0  0  0  0  0  0
   -1.8429   -2.4359    0.7867 C   0  0  0  0  0  0  0  0  0  0  0  0
   -1.0744   -2.6430    1.7060 O   0  0  0  0  0  0  0  0  0  0  0  0
   -1.5700   -1.4285   -0.1232 N   0  0  0  0  0  0  0  0  0  0  0  0
   -2.1854   -1.4004   -0.9295 H   0  0  0  0  0  0  0  0  0  0  0  0
   -0.2386   -0.7888   -0.2421 C   0  0  1  0  0  0  0  0  0  0  0  0
    0.4989   -1.5760   -0.4435 H   0  0  0  0  0  0  0  0  0  0  0  0
   -0.1596    0.2449   -1.3847 C   0  0  0  0  0  0  0  0  0  0  0  0
    0.7712    0.8206   -1.3115 H   0  0  0  0  0  0  0  0  0  0  0  0
   -0.1099   -0.3053   -2.3300 H   0  0  0  0  0  0  0  0  0  0  0  0
   -1.3437    1.1789   -1.4363 C   0  0  0  0  0  0  0  0  0  0  0  0
   -1.4006    2.3940   -0.7536 N   0  3  0  0  0  0  0  0  0  0  0  0
   -0.6877    2.6771   -0.0718 H   0  0  0  0  0  0  0  0  0  0  0  0
   -2.4935    3.0444   -1.0684 C   0  0  0  0  0  0  0  0  0  0  0  0
   -2.8046    4.0147   -0.6755 H   0  0  0  0  0  0  0  0  0  0  0  0
   -3.1774    2.2681   -2.0026 N   0  0  0  0  0  0  0  0  0  0  0  0
   -4.0535    2.5296   -2.4664 H   0  0  0  0  0  0  0  0  0  0  0  0
   -2.4486    1.1085   -2.2484 C   0  0  0  0  0  0  0  0  0  0  0  0
   -2.6819    0.3229   -2.9671 H   0  0  0  0  0  0  0  0  0  0  0  0
    0.2394   -0.0956    1.0552 C   0  0  0  0  0  0  0  0  0  0  0  0
    1.4355    0.1168    1.1834 O   0  0  0  0  0  0  0  0  0  0  0  0
   -0.6392    0.6980    1.7757 N   0  0  0  0  0  0  0  0  0  0  0  0
   -1.5953    0.3511    1.7631 H   0  0  0  0  0  0  0  0  0  0  0  0
   -0.2047    1.3831    2.9924 C   0  0  0  0  0  0  0  0  0  0  0  0
    0.6023    2.0912    2.7740 H   0  0  0  0  0  0  0  0  0  0  0  0
   -1.0366    1.9380    3.4373 H   0  0  0  0  0  0  0  0  0  0  0  0
    0.1598    0.6583    3.7293 H   0  0  0  0  0  0  0  0  0  0  0  0
  1  2  1  0  0  0  0
  2  3  1  0  0  0  0
  2  4  1  0  0  0  0
  2  5  1  0  0  0  0
  5  6  2  0  0  0  0
  5  7  1  0  0  0  0
  7  8  1  0  0  0  0
  7  9  1  0  0  0  0
  9 10  1  0  0  0  0
  9 11  1  0  0  0  0
  9 23  1  0  0  0  0
 11 12  1  0  0  0  0
 11 13  1  0  0  0  0
 11 14  1  0  0  0  0
 14 15  1  0  0  0  0
 14 21  2  0  0  0  0
 15 16  1  0  0  0  0
 15 17  2  0  0  0  0
 17 18  1  0  0  0  0
 17 19  1  0  0  0  0
 19 20  1  0  0  0  0
 19 21  1  0  0  0  0
 21 22  1  0  0  0  0
 23 24  2  0  0  0  0
 23 25  1  0  0  0  0
 25 26  1  0  0  0  0
 25 27  1  0  0  0  0
 27 28  1  0  0  0  0
 27 29  1  0  0  0  0
 27 30  1  0  0  0  0
M  CHG  1  15   1
M  END
$$$$

  -OEChem-04042216003D

 30 30  0     1  0  0  0  0  0999 V2000
   -3.1094   -4.0486    1.4690 H   0  0  0  0  0  0  0  0  0  0  0  0
   -3.0902   -3.2875    0.6831 C   0  0  0  0  0  0  0  0  0  0  0  0
   -3.9740   -2.6543    0.7888 H   0  0  0  0  0  0  0  0  0  0  0  0
   -3.1192   -3.7889   -0.2872 H   0  0  0  0  0  0  0  0  0  0  0  0
   -1.8302   -2.4515    0.8018 C   0  0  0  0  0  0  0  0  0  0  0  0
   -1.0512   -2.6554    1.7127 O   0  0  0  0  0  0  0  0  0  0  0  0
   -1.5737   -1.4445   -0.1139 N   0  0  0  0  0  0  0  0  0  0  0  0
   -2.1844   -1.4423   -0.9228 H   0  0  0  0  0  0  0  0  0  0  0  0
   -0.2466   -0.7982   -0.2456 C   0  0  1  0  0  0  0  0  0  0  0  0
    0.4932   -1.5808   -0.4558 H   0  0  0  0  0  0  0  0  0  0  0  0
   -0.1738    0.2509   -1.3761 C   0  0  0  0  0  0  0  0  0  0  0  0
    0.7640    0.8158   -1.3081 H   0  0  0  0  0  0  0  0  0  0  0  0
   -0.1381   -0.2902   -2.3272 H   0  0  0  0  0  0  0  0  0  0  0  0
   -1.3514    1.1958   -1.4177 C   0  0  0  0  0  0  0  0  0  0  0  0
   -1.2877    2.5200   -0.9823 N   0  3  0  0  0  0  0  0  0  0  0  0
   -0.4735    2.9003   -0.4879 H   0  0  0  0  0  0  0  0  0  0  0  0
   -2.4119    3.1420   -1.2393 C   0  0  0  0  0  0  0  0  0  0  0  0
   -2.6491    4.1789   -0.9919 H   0  0  0  0  0  0  0  0  0  0  0  0
   -3.2425    2.2337   -1.8924 N   0  0  0  0  0  0  0  0  0  0  0  0
   -4.1797    2.4383   -2.2539 H   0  0  0  0  0  0  0  0  0  0  0  0
   -2.5710    1.0225   -2.0262 C   0  0  0  0  0  0  0  0  0  0  0  0
   -2.9225    0.1315   -2.5454 H   0  0  0  0  0  0  0  0  0  0  0  0
    0.2363   -0.1008    1.0476 C   0  0  0  0  0  0  0  0  0  0  0  0
    1.4340    0.1037    1.1773 O   0  0  0  0  0  0  0  0  0  0  0  0
   -0.6417    0.6885    1.7723 N   0  0  0  0  0  0  0  0  0  0  0  0
   -1.6032    0.3597    1.7470 H   0  0  0  0  0  0  0  0  0  0  0  0
   -0.2098    1.3837    2.9834 C   0  0  0  0  0  0  0  0  0  0  0  0
    0.5950    2.0922    2.7591 H   0  0  0  0  0  0  0  0  0  0  0  0
   -1.0436    1.9400    3.4223 H   0  0  0  0  0  0  0  0  0  0  0  0
    0.1563    0.6657    3.7262 H   0  0  0  0  0  0  0  0  0  0  0  0
  1  2  1  0  0  0  0
  2  3  1  0  0  0  0
  2  4  1  0  0  0  0
  2  5  1  0  0  0  0
  5  6  2  0  0  0  0
  5  7  1  0  0  0  0
  7  8  1  0  0  0  0
  7  9  1  0  0  0  0
  9 10  1  0  0  0  0
  9 11  1  0  0  0  0
  9 23  1  0  0  0  0
 11 12  1  0  0  0  0
 11 13  1  0  0  0  0
 11 14  1  0  0  0  0
 14 15  1  0  0  0  0
 14 21  2  0  0  0  0
 15 16  1  0  0  0  0
 15 17  2  0  0  0  0
 17 18  1  0  0  0  0
 17 19  1  0  0  0  0
 19 20  1  0  0  0  0
 19 21  1  0  0  0  0
 21 22  1  0  0  0  0
 23 24  2  0  0  0  0
 23 25  1  0  0  0  0
 25 26  1  0  0  0  0
 25 27  1  0  0  0  0
 27 28  1  0  0  0  0
 27 29  1  0  0  0  0
 27 30  1  0  0  0  0
M  CHG  1  15   1
M  END
$$$$

  -OEChem-04042216003D

 30 30  0     1  0  0  0  0  0999 V2000
   -3.0648   -4.0991    1.4738 H   0  0  0  0  0  0  0  0  0  0  0  0
   -3.0555   -3.3467    0.6792 C   0  0  0  0  0  0  0  0  0  0  0  0
   -3.9654   -2.7472    0.7556 H   0  0  0  0  0  0  0  0  0  0  0  0
   -3.0412   -3.8602   -0.2851 H   0  0  0  0  0  0  0  0  0  0  0  0
   -1.8324   -2.4608    0.8190 C   0  0  0  0  0  0  0  0  0  0  0  0
   -1.0729   -2.6230    1.7543 O   0  0  0  0  0  0  0  0  0  0  0  0
   -1.5918   -1.4584   -0.1069 N   0  0  0  0  0  0  0  0  0  0  0  0
   -2.1519   -1.5418   -0.9476 H   0  0  0  0  0  0  0  0  0  0  0  0
   -0.2661   -0.8096   -0.2438 C   0  0  1  0  0  0  0  0  0  0  0  0
    0.4753   -1.5898   -0.4568 H   0  0  0  0  0  0  0  0  0  0  0  0
   -0.1944    0.2516   -1.3662 C   0  0  0  0  0  0  0  0  0  0  0  0
    0.7498    0.8043   -1.2887 H   0  0  0  0  0  0  0  0  0  0  0  0
   -0.1585   -0.2813   -2.3219 H   0  0  0  0  0  0  0  0  0  0  0  0
   -1.3563    1.2212   -1.4236 C   0  0  0  0  0  0  0  0  0  0  0  0
   -1.1940    2.6009   -1.2824 N   0  3  0  0  0  0  0  0  0  0  0  0
   -0.2963    3.0297   -1.0355 H   0  0  0  0  0  0  0  0  0  0  0  0
   -2.3377    3.2200   -1.4410 C   0  0  0  0  0  0  0  0  0  0  0  0
   -2.5077    4.2962   -1.3640 H   0  0  0  0  0  0  0  0  0  0  0  0
   -3.2921    2.2475   -1.7274 N   0  0  0  0  0  0  0  0  0  0  0  0
   -4.2822    2.4251   -1.9244 H   0  0  0  0  0  0  0  0  0  0  0  0
   -2.6772    0.9998   -1.7345 C   0  0  0  0  0  0  0  0  0  0  0  0
   -3.1451    0.0453   -1.9665 H   0  0  0  0  0  0  0  0  0  0  0  0
    0.2214   -0.1033    1.0438 C   0  0  0  0  0  0  0  0  0  0  0  0
    1.4220    0.0831    1.1767 O   0  0  0  0  0  0  0  0  0  0  0  0
   -0.6504    0.6902    1.7701 N   0  0  0  0  0  0  0  0  0  0  0  0
   -1.6175    0.3805    1.7384 H   0  0  0  0  0  0  0  0  0  0  0  0
   -0.2136    1.3969    2.9723 C   0  0  0  0  0  0  0  0  0  0  0  0
    0.5954    2.0978    2.7389 H   0  0  0  0  0  0  0  0  0  0  0  0
   -1.0438    1.9641    3.4045 H   0  0  0  0  0  0  0  0  0  0  0  0
    0.1483    0.6856    3.7233 H   0  0  0  0  0  0  0  0  0  0  0  0
  1  2  1  0  0  0  0
  2  3  1  0  0  0  0
  2  4  1  0  0  0  0
  2  5  1  0  0  0  0
  5  6  2  0  0  0  0
  5  7  1  0  0  0  0
  7  8  1  0  0  0  0
  7  9  1  0  0  0  0
  9 10  1  0  0  0  0
  9 11  1  0  0  0  0
  9 23  1  0  0  0  0
 11 12  1  0  0  0  0
 11 13  1  0  0  0  0
 11 14  1  0  0  0  0
 14 15  1  0  0  0  0
 14 21  2  0  0  0  0
 15 16  1  0  0  0  0
 15 17  2  0  0  0  0
 17 18  1  0  0  0  0
 17 19  1  0  0  0  0
 19 20  1  0  0  0  0
 19 21  1  0  0  0  0
 21 22  1  0  0  0  0
 23 24  2  0  0  0  0
 23 25  1  0  0  0  0
 25 26  1  0  0  0  0
 25 27  1  0  0  0  0
 27 28  1  0  0  0  0
 27 29  1  0  0  0  0
 27 30  1  0  0  0  0
M  CHG  1  15   1
M  END
$$$$

  -OEChem-04042216003D

 30 30  0     1  0  0  0  0  0999 V2000
   -3.0017   -4.1739    1.4479 H   0  0  0  0  0  0  0  0  0  0  0  0
   -3.0106   -3.4173    0.6574 C   0  0  0  0  0  0  0  0  0  0  0  0
   -3.9456   -2.8561    0.7214 H   0  0  0  0  0  0  0  0  0  0  0  0
   -2.9589   -3.9246   -0.3090 H   0  0  0  0  0  0  0  0  0  0  0  0
   -1.8266   -2.4835    0.8216 C   0  0  0  0  0  0  0  0  0  0  0  0
   -1.0868   -2.6100    1.7776 O   0  0  0  0  0  0  0  0  0  0  0  0
   -1.6031   -1.4778   -0.1059 N   0  0  0  0  0  0  0  0  0  0  0  0
   -2.1285   -1.6099   -0.9643 H   0  0  0  0  0  0  0  0  0  0  0  0
   -0.2841   -0.8151   -0.2433 C   0  0  1  0  0  0  0  0  0  0  0  0
    0.4646   -1.5879   -0.4578 H   0  0  0  0  0  0  0  0  0  0  0  0
   -0.2220    0.2492   -1.3664 C   0  0  0  0  0  0  0  0  0  0  0  0
    0.7190    0.8038   -1.2681 H   0  0  0  0  0  0  0  0  0  0  0  0
   -0.1638   -0.2800   -2.3233 H   0  0  0  0  0  0  0  0  0  0  0  0
   -1.3743    1.2343   -1.4611 C   0  0  0  0  0  0  0  0  0  0  0  0
   -1.1558    2.6021   -1.6471 N   0  3  0  0  0  0  0  0  0  0  0  0
   -0.2176    3.0101   -1.7021 H   0  0  0  0  0  0  0  0  0  0  0  0
   -2.2900    3.2572   -1.6730 C   0  0  0  0  0  0  0  0  0  0  0  0
   -2.4128    4.3363   -1.7885 H   0  0  0  0  0  0  0  0  0  0  0  0
   -3.3057    2.3198   -1.5156 N   0  0  0  0  0  0  0  0  0  0  0  0
   -4.3091    2.5277   -1.4907 H   0  0  0  0  0  0  0  0  0  0  0  0
   -2.7369    1.0585   -1.3777 C   0  0  0  0  0  0  0  0  0  0  0  0
   -3.2725    0.1245   -1.2275 H   0  0  0  0  0  0  0  0  0  0  0  0
    0.2017   -0.1039    1.0428 C   0  0  0  0  0  0  0  0  0  0  0  0
    1.4030    0.0793    1.1765 O   0  0  0  0  0  0  0  0  0  0  0  0
   -0.6720    0.6823    1.7745 N   0  0  0  0  0  0  0  0  0  0  0  0
   -1.6369    0.3664    1.7515 H   0  0  0  0  0  0  0  0  0  0  0  0
   -0.2310    1.4046    2.9658 C   0  0  0  0  0  0  0  0  0  0  0  0
    0.5566    2.1231    2.7139 H   0  0  0  0  0  0  0  0  0  0  0  0
   -1.0666    1.9542    3.4101 H   0  0  0  0  0  0  0  0  0  0  0  0
    0.1610    0.7061    3.7137 H   0  0  0  0  0  0  0  0  0  0  0  0
  1  2  1  0  0  0  0
  2  3  1  0  0  0  0
  2  4  1  0  0  0  0
  2  5  1  0  0  0  0
  5  6  2  0  0  0  0
  5  7  1  0  0  0  0
  7  8  1  0  0  0  0
  7  9  1  0  0  0  0
  9 10  1  0  0  0  0
  9 11  1  0  0  0  0
  9 23  1  0  0  0  0
 11 12  1  0  0  0  0
 11 13  1  0  0  0  0
 11 14  1  0  0  0  0
 14 15  1  0  0  0  0
 14 21  2  0  0  0  0
 15 16  1  0  0  0  0
 15 17  2  0  0  0  0
 17 18  1  0  0  0  0
 17 19  1  0  0  0  0
 19 20  1  0  0  0  0
 19 21  1  0  0  0  0
 21 22  1  0  0  0  0
 23 24  2  0  0  0  0
 23 25  1  0  0  0  0
 25 26  1  0  0  0  0
 25 27  1  0  0  0  0
 27 28  1  0  0  0  0
 27 29  1  0  0  0  0
 27 30  1  0  0  0  0
M  CHG  1  15   1
M  END
$$$$

  -OEChem-04042216003D

 30 30  0     1  0  0  0  0  0999 V2000
   -2.9739   -4.2174    1.4259 H   0  0  0  0  0  0  0  0  0  0  0  0
   -2.9905   -3.4564    0.6396 C   0  0  0  0  0  0  0  0  0  0  0  0
   -3.9338   -2.9094    0.7030 H   0  0  0  0  0  0  0  0  0  0  0  0
   -2.9284   -3.9570   -0.3297 H   0  0  0  0  0  0  0  0  0  0  0  0
   -1.8210   -2.5066    0.8140 C   0  0  0  0  0  0  0  0  0  0  0  0
   -1.0820   -2.6295    1.7711 O   0  0  0  0  0  0  0  0  0  0  0  0
   -1.6138   -1.4836   -0.0979 N   0  0  0  0  0  0  0  0  0  0  0  0
   -2.1501   -1.5980   -0.9536 H   0  0  0  0  0  0  0  0  0  0  0  0
   -0.3017   -0.8072   -0.2346 C   0  0  1  0  0  0  0  0  0  0  0  0
    0.4495   -1.5748   -0.4597 H   0  0  0  0  0  0  0  0  0  0  0  0
   -0.2539    0.2564   -1.3602 C   0  0  0  0  0  0  0  0  0  0  0  0
    0.6804    0.8207   -1.2528 H   0  0  0  0  0  0  0  0  0  0  0  0
   -0.1824   -0.2766   -2.3140 H   0  0  0  0  0  0  0  0  0  0  0  0
   -1.4056    1.2416   -1.4797 C   0  0  0  0  0  0  0  0  0  0  0  0
   -1.2085    2.5311   -1.9828 N   0  3  0  0  0  0  0  0  0  0  0  0
   -0.2973    2.8638   -2.3118 H   0  0  0  0  0  0  0  0  0  0  0  0
   -2.3130    3.2325   -1.9226 C   0  0  0  0  0  0  0  0  0  0  0  0
   -2.4407    4.2702   -2.2384 H   0  0  0  0  0  0  0  0  0  0  0  0
   -3.2871    2.4109   -1.3660 N   0  0  0  0  0  0  0  0  0  0  0  0
   -4.2554    2.6842   -1.1704 H   0  0  0  0  0  0  0  0  0  0  0  0
   -2.7192    1.1766   -1.0708 C   0  0  0  0  0  0  0  0  0  0  0  0
   -3.2179    0.3420   -0.5837 H   0  0  0  0  0  0  0  0  0  0  0  0
    0.1962   -0.1109    1.0546 C   0  0  0  0  0  0  0  0  0  0  0  0
    1.3987    0.0738    1.1741 O   0  0  0  0  0  0  0  0  0  0  0  0
   -0.6712    0.6589    1.8104 N   0  0  0  0  0  0  0  0  0  0  0  0
   -1.6282    0.3210    1.8186 H   0  0  0  0  0  0  0  0  0  0  0  0
   -0.2097    1.3841    2.9918 C   0  0  0  0  0  0  0  0  0  0  0  0
    0.5620    2.1132    2.7215 H   0  0  0  0  0  0  0  0  0  0  0  0
   -1.0408    1.9223    3.4578 H   0  0  0  0  0  0  0  0  0  0  0  0
    0.2102    0.6892    3.7277 H   0  0  0  0  0  0  0  0  0  0  0  0
  1  2  1  0  0  0  0
  2  3  1  0  0  0  0
  2  4  1  0  0  0  0
  2  5  1  0  0  0  0
  5  6  2  0  0  0  0
  5  7  1  0  0  0  0
  7  8  1  0  0  0  0
  7  9  1  0  0  0  0
  9 10  1  0  0  0  0
  9 11  1  0  0  0  0
  9 23  1  0  0  0  0
 11 12  1  0  0  0  0
 11 13  1  0  0  0  0
 11 14  1  0  0  0  0
 14 15  1  0  0  0  0
 14 21  2  0  0  0  0
 15 16  1  0  0  0  0
 15 17  2  0  0  0  0
 17 18  1  0  0  0  0
 17 19  1  0  0  0  0
 19 20  1  0  0  0  0
 19 21  1  0  0  0  0
 21 22  1  0  0  0  0
 23 24  2  0  0  0  0
 23 25  1  0  0  0  0
 25 26  1  0  0  0  0
 25 27  1  0  0  0  0
 27 28  1  0  0  0  0
 27 29  1  0  0  0  0
 27 30  1  0  0  0  0
M  CHG  1  15   1
M  END
$$$$

  -OEChem-04042216003D

 30 30  0     1  0  0  0  0  0999 V2000
   -3.0026   -4.2200    1.3848 H   0  0  0  0  0  0  0  0  0  0  0  0
   -3.0156   -3.4434    0.6139 C   0  0  0  0  0  0  0  0  0  0  0  0
   -3.9520   -2.8866    0.6943 H   0  0  0  0  0  0  0  0  0  0  0  0
   -2.9657   -3.9257   -0.3653 H   0  0  0  0  0  0  0  0  0  0  0  0
   -1.8337   -2.5108    0.7979 C   0  0  0  0  0  0  0  0  0  0  0  0
   -1.0895   -2.6572    1.7477 O   0  0  0  0  0  0  0  0  0  0  0  0
   -1.6231   -1.4680   -0.0897 N   0  0  0  0  0  0  0  0  0  0  0  0
   -2.1822   -1.5361   -0.9363 H   0  0  0  0  0  0  0  0  0  0  0  0
   -0.3092   -0.7917   -0.2171 C   0  0  1  0  0  0  0  0  0  0  0  0
    0.4356   -1.5624   -0.4530 H   0  0  0  0  0  0  0  0  0  0  0  0
   -0.2608    0.2674   -1.3466 C   0  0  0  0  0  0  0  0  0  0  0  0
    0.6696    0.8387   -1.2401 H   0  0  0  0  0  0  0  0  0  0  0  0
   -0.1861   -0.2738   -2.2956 H   0  0  0  0  0  0  0  0  0  0  0  0
   -1.4163    1.2458   -1.4750 C   0  0  0  0  0  0  0  0  0  0  0  0
   -1.3200    2.4061   -2.2489 N   0  3  0  0  0  0  0  0  0  0  0  0
   -0.4837    2.6429   -2.7908 H   0  0  0  0  0  0  0  0  0  0  0  0
   -2.4021    3.1363   -2.1350 C   0  0  0  0  0  0  0  0  0  0  0  0
   -2.5914    4.0968   -2.6191 H   0  0  0  0  0  0  0  0  0  0  0  0
   -3.2566    2.4661   -1.2658 N   0  0  0  0  0  0  0  0  0  0  0  0
   -4.1735    2.8022   -0.9540 H   0  0  0  0  0  0  0  0  0  0  0  0
   -2.6357    1.2983   -0.8380 C   0  0  0  0  0  0  0  0  0  0  0  0
   -3.0254    0.5892   -0.1105 H   0  0  0  0  0  0  0  0  0  0  0  0
    0.2072   -0.1217    1.0786 C   0  0  0  0  0  0  0  0  0  0  0  0
    1.4117    0.0612    1.1782 O   0  0  0  0  0  0  0  0  0  0  0  0
   -0.6452    0.6384    1.8613 N   0  0  0  0  0  0  0  0  0  0  0  0
   -1.5899    0.2716    1.9153 H   0  0  0  0  0  0  0  0  0  0  0  0
   -0.1529    1.3690    3.0276 C   0  0  0  0  0  0  0  0  0  0  0  0
    0.6057    2.1028    2.7336 H   0  0  0  0  0  0  0  0  0  0  0  0
   -0.9728    1.9030    3.5175 H   0  0  0  0  0  0  0  0  0  0  0  0
    0.2934    0.6785    3.7522 H   0  0  0  0  0  0  0  0  0  0  0  0
  1  2  1  0  0  0  0
  2  3  1  0  0  0  0
  2  4  1  0  0  0  0
  2  5  1  0  0  0  0
  5  6  2  0  0  0  0
  5  7  1  0  0  0  0
  7  8  1  0  0  0  0
  7  9  1  0  0  0  0
  9 10  1  0  0  0  0
  9 11  1  0  0  0  0
  9 23  1  0  0  0  0
 11 12  1  0  0  0  0
 11 13  1  0  0  0  0
 11 14  1  0  0  0  0
 14 15  1  0  0  0  0
 14 21  2  0  0  0  0
 15 16  1  0  0  0  0
 15 17  2  0  0  0  0
 17 18  1  0  0  0  0
 17 19  1  0  0  0  0
 19 20  1  0  0  0  0
 19 21  1  0  0  0  0
 21 22  1  0  0  0  0
 23 24  2  0  0  0  0
 23 25  1  0  0  0  0
 25 26  1  0  0  0  0
 25 27  1  0  0  0  0
 27 28  1  0  0  0  0
 27 29  1  0  0  0  0
 27 30  1  0  0  0  0
M  CHG  1  15   1
M  END
$$$$

  -OEChem-04042216003D

 30 30  0     1  0  0  0  0  0999 V2000
   -3.1092   -4.1650    1.2079 H   0  0  0  0  0  0  0  0  0  0  0  0
   -3.1139   -3.3224    0.5098 C   0  0  0  0  0  0  0  0  0  0  0  0
   -4.0223   -2.7378    0.6728 H   0  0  0  0  0  0  0  0  0  0  0  0
   -3.1168   -3.7155   -0.5096 H   0  0  0  0  0  0  0  0  0  0  0  0
   -1.8875   -2.4583    0.7328 C   0  0  0  0  0  0  0  0  0  0  0  0
   -1.1216   -2.7099    1.6434 O   0  0  0  0  0  0  0  0  0  0  0  0
   -1.6547   -1.3521   -0.0662 N   0  0  0  0  0  0  0  0  0  0  0  0
   -2.2623   -1.2828   -0.8782 H   0  0  0  0  0  0  0  0  0  0  0  0
   -0.3291   -0.6969   -0.1480 C   0  0  1  0  0  0  0  0  0  0  0  0
    0.3771   -1.4976   -0.4039 H   0  0  0  0  0  0  0  0  0  0  0  0
   -0.2317    0.3264   -1.3012 C   0  0  0  0  0  0  0  0  0  0  0  0
    0.7908    0.7234   -1.3117 H   0  0  0  0  0  0  0  0  0  0  0  0
   -0.3721   -0.2157   -2.2416 H   0  0  0  0  0  0  0  0  0  0  0  0
   -1.1941    1.4976   -1.2830 C   0  0  0  0  0  0  0  0  0  0  0  0
   -1.2071    2.4913   -2.2657 N   0  3  0  0  0  0  0  0  0  0  0  0
   -0.5395    2.5134   -3.0419 H   0  0  0  0  0  0  0  0  0  0  0  0
   -2.1229    3.3918   -2.0028 C   0  0  0  0  0  0  0  0  0  0  0  0
   -2.3363    4.2905   -2.5854 H   0  0  0  0  0  0  0  0  0  0  0  0
   -2.7639    2.9941   -0.8337 N   0  0  0  0  0  0  0  0  0  0  0  0
   -3.5153    3.5057   -0.3604 H   0  0  0  0  0  0  0  0  0  0  0  0
   -2.1876    1.8114   -0.3871 C   0  0  0  0  0  0  0  0  0  0  0  0
   -2.4586    1.2497    0.5042 H   0  0  0  0  0  0  0  0  0  0  0  0
    0.2512   -0.1304    1.1700 C   0  0  0  0  0  0  0  0  0  0  0  0
    1.4606    0.0423    1.2087 O   0  0  0  0  0  0  0  0  0  0  0  0
   -0.5394    0.5980    2.0429 N   0  0  0  0  0  0  0  0  0  0  0  0
   -1.4611    0.1926    2.1780 H   0  0  0  0  0  0  0  0  0  0  0  0
    0.0445    1.2803    3.1971 C   0  0  0  0  0  0  0  0  0  0  0  0
    0.7719    2.0333    2.8745 H   0  0  0  0  0  0  0  0  0  0  0  0
   -0.7342    1.7842    3.7775 H   0  0  0  0  0  0  0  0  0  0  0  0
    0.5536    0.5628    3.8503 H   0  0  0  0  0  0  0  0  0  0  0  0
  1  2  1  0  0  0  0
  2  3  1  0  0  0  0
  2  4  1  0  0  0  0
  2  5  1  0  0  0  0
  5  6  2  0  0  0  0
  5  7  1  0  0  0  0
  7  8  1  0  0  0  0
  7  9  1  0  0  0  0
  9 10  1  0  0  0  0
  9 11  1  0  0  0  0
  9 23  1  0  0  0  0
 11 12  1  0  0  0  0
 11 13  1  0  0  0  0
 11 14  1  0  0  0  0
 14 15  1  0  0  0  0
 14 21  2  0  0  0  0
 15 16  1  0  0  0  0
 15 17  2  0  0  0  0
 17 18  1  0  0  0  0
 17 19  1  0  0  0  0
 19 20  1  0  0  0  0
 19 21  1  0  0  0  0
 21 22  1  0  0  0  0
 23 24  2  0  0  0  0
 23 25  1  0  0  0  0
 25 26  1  0  0  0  0
 25 27  1  0  0  0  0
 27 28  1  0  0  0  0
 27 29  1  0  0  0  0
 27 30  1  0  0  0  0
M  CHG  1  15   1
M  END
$$$$

  -OEChem-04042216003D

 30 30  0     1  0  0  0  0  0999 V2000
   -3.1037   -4.1529    1.2109 H   0  0  0  0  0  0  0  0  0  0  0  0
   -3.1218   -3.2888    0.5400 C   0  0  0  0  0  0  0  0  0  0  0  0
   -4.0056   -2.6880    0.7667 H   0  0  0  0  0  0  0  0  0  0  0  0
   -3.1853   -3.6491   -0.4896 H   0  0  0  0  0  0  0  0  0  0  0  0
   -1.8649   -2.4611    0.7277 C   0  0  0  0  0  0  0  0  0  0  0  0
   -1.0531   -2.7683    1.5798 O   0  0  0  0  0  0  0  0  0  0  0  0
   -1.6511   -1.3278   -0.0377 N   0  0  0  0  0  0  0  0  0  0  0  0
   -2.3061   -1.1932   -0.8031 H   0  0  0  0  0  0  0  0  0  0  0  0
   -0.3343   -0.6582   -0.1235 C   0  0  1  0  0  0  0  0  0  0  0  0
    0.3692   -1.4572   -0.3919 H   0  0  0  0  0  0  0  0  0  0  0  0
   -0.2371    0.3538   -1.2865 C   0  0  0  0  0  0  0  0  0  0  0  0
    0.7834    0.7549   -1.3022 H   0  0  0  0  0  0  0  0  0  0  0  0
   -0.3702   -0.2099   -2.2156 H   0  0  0  0  0  0  0  0  0  0  0  0
   -1.2028    1.5227   -1.3054 C   0  0  0  0  0  0  0  0  0  0  0  0
   -1.4094    2.3144   -2.4392 N   0  3  0  0  0  0  0  0  0  0  0  0
   -0.8807    2.1893   -3.3073 H   0  0  0  0  0  0  0  0  0  0  0  0
   -2.2871    3.2570   -2.1954 C   0  0  0  0  0  0  0  0  0  0  0  0
   -2.6147    4.0350   -2.8885 H   0  0  0  0  0  0  0  0  0  0  0  0
   -2.7129    3.0881   -0.8820 N   0  0  0  0  0  0  0  0  0  0  0  0
   -3.3862    3.6844   -0.3905 H   0  0  0  0  0  0  0  0  0  0  0  0
   -2.0430    2.0033   -0.3297 C   0  0  0  0  0  0  0  0  0  0  0  0
   -2.1566    1.6225    0.6816 H   0  0  0  0  0  0  0  0  0  0  0  0
    0.2688   -0.1269    1.1984 C   0  0  0  0  0  0  0  0  0  0  0  0
    1.4770    0.0557    1.2164 O   0  0  0  0  0  0  0  0  0  0  0  0
   -0.5063    0.5670    2.1119 N   0  0  0  0  0  0  0  0  0  0  0  0
   -1.4268    0.1574    2.2466 H   0  0  0  0  0  0  0  0  0  0  0  0
    0.0983    1.2056    3.2806 C   0  0  0  0  0  0  0  0  0  0  0  0
    0.8119    1.9782    2.9737 H   0  0  0  0  0  0  0  0  0  0  0  0
   -0.6711    1.6774    3.8996 H   0  0  0  0  0  0  0  0  0  0  0  0
    0.6283    0.4659    3.8914 H   0  0  0  0  0  0  0  0  0  0  0  0
  1  2  1  0  0  0  0
  2  3  1  0  0  0  0
  2  4  1  0  0  0  0
  2  5  1  0  0  0  0
  5  6  2  0  0  0  0
  5  7  1  0  0  0  0
  7  8  1  0  0  0  0
  7  9  1  0  0  0  0
  9 10  1  0  0  0  0
  9 11  1  0  0  0  0
  9 23  1  0  0  0  0
 11 12  1  0  0  0  0
 11 13  1  0  0  0  0
 11 14  1  0  0  0  0
 14 15  1  0  0  0  0
 14 21  2  0  0  0  0
 15 16  1  0  0  0  0
 15 17  2  0  0  0  0
 17 18  1  0  0  0  0
 17 19  1  0  0  0  0
 19 20  1  0  0  0  0
 19 21  1  0  0  0  0
 21 22  1  0  0  0  0
 23 24  2  0  0  0  0
 23 25  1  0  0  0  0
 25 26  1  0  0  0  0
 25 27  1  0  0  0  0
 27 28  1  0  0  0  0
 27 29  1  0  0  0  0
 27 30  1  0  0  0  0
M  CHG  1  15   1
M  END
$$$$

  -OEChem-04042216003D

 30 30  0     1  0  0  0  0  0999 V2000
   -3.1120   -4.1344    1.2019 H   0  0  0  0  0  0  0  0  0  0  0  0
   -3.1367   -3.2515    0.5561 C   0  0  0  0  0  0  0  0  0  0  0  0
   -3.9927   -2.6348    0.8392 H   0  0  0  0  0  0  0  0  0  0  0  0
   -3.2564   -3.5805   -0.4788 H   0  0  0  0  0  0  0  0  0  0  0  0
   -1.8505   -2.4625    0.7073 C   0  0  0  0  0  0  0  0  0  0  0  0
   -1.0040   -2.8213    1.5037 O   0  0  0  0  0  0  0  0  0  0  0  0
   -1.6426   -1.3134   -0.0354 N   0  0  0  0  0  0  0  0  0  0  0  0
   -2.3424   -1.1125   -0.7437 H   0  0  0  0  0  0  0  0  0  0  0  0
   -0.3310   -0.6363   -0.1259 C   0  0  1  0  0  0  0  0  0  0  0  0
    0.3723   -1.4322   -0.4031 H   0  0  0  0  0  0  0  0  0  0  0  0
   -0.2427    0.3694   -1.2956 C   0  0  0  0  0  0  0  0  0  0  0  0
    0.7759    0.7751   -1.3209 H   0  0  0  0  0  0  0  0  0  0  0  0
   -0.3755   -0.2074   -2.2162 H   0  0  0  0  0  0  0  0  0  0  0  0
   -1.2124    1.5351   -1.3287 C   0  0  0  0  0  0  0  0  0  0  0  0
   -1.6554    2.1207   -2.5191 N   0  3  0  0  0  0  0  0  0  0  0  0
   -1.3359    1.8134   -3.4420 H   0  0  0  0  0  0  0  0  0  0  0  0
   -2.4500    3.1336   -2.2733 C   0  0  0  0  0  0  0  0  0  0  0  0
   -2.9200    3.7860   -3.0126 H   0  0  0  0  0  0  0  0  0  0  0  0
   -2.5668    3.2338   -0.8910 N   0  0  0  0  0  0  0  0  0  0  0  0
   -3.0971    3.9513   -0.3863 H   0  0  0  0  0  0  0  0  0  0  0  0
   -1.7895    2.2440   -0.3021 C   0  0  0  0  0  0  0  0  0  0  0  0
   -1.6417    2.0963    0.7640 H   0  0  0  0  0  0  0  0  0  0  0  0
    0.2742   -0.1336    1.2045 C   0  0  0  0  0  0  0  0  0  0  0  0
    1.4816    0.0523    1.2285 O   0  0  0  0  0  0  0  0  0  0  0  0
   -0.5025    0.5326    2.1369 N   0  0  0  0  0  0  0  0  0  0  0  0
   -1.4421    0.1536    2.2245 H   0  0  0  0  0  0  0  0  0  0  0  0
    0.0930    1.0943    3.3490 C   0  0  0  0  0  0  0  0  0  0  0  0
    0.8262    1.8688    3.0980 H   0  0  0  0  0  0  0  0  0  0  0  0
   -0.6781    1.5451    3.9815 H   0  0  0  0  0  0  0  0  0  0  0  0
    0.5986    0.3113    3.9256 H   0  0  0  0  0  0  0  0  0  0  0  0
  1  2  1  0  0  0  0
  2  3  1  0  0  0  0
  2  4  1  0  0  0  0
  2  5  1  0  0  0  0
  5  6  2  0  0  0  0
  5  7  1  0  0  0  0
  7  8  1  0  0  0  0
  7  9  1  0  0  0  0
  9 10  1  0  0  0  0
  9 11  1  0  0  0  0
  9 23  1  0  0  0  0
 11 12  1  0  0  0  0
 11 13  1  0  0  0  0
 11 14  1  0  0  0  0
 14 15  1  0  0  0  0
 14 21  2  0  0  0  0
 15 16  1  0  0  0  0
 15 17  2  0  0  0  0
 17 18  1  0  0  0  0
 17 19  1  0  0  0  0
 19 20  1  0  0  0  0
 19 21  1  0  0  0  0
 21 22  1  0  0  0  0
 23 24  2  0  0  0  0
 23 25  1  0  0  0  0
 25 26  1  0  0  0  0
 25 27  1  0  0  0  0
 27 28  1  0  0  0  0
 27 29  1  0  0  0  0
 27 30  1  0  0  0  0
M  CHG  1  15   1
M  END
$$$$

  -OEChem-04042216003D

 30 30  0     1  0  0  0  0  0999 V2000
   -3.1148   -4.0935    1.2771 H   0  0  0  0  0  0  0  0  0  0  0  0
   -3.1279   -3.2318    0.6029 C   0  0  0  0  0  0  0  0  0  0  0  0
   -3.9617   -2.5829    0.8804 H   0  0  0  0  0  0  0  0  0  0  0  0
   -3.2749   -3.5910   -0.4184 H   0  0  0  0  0  0  0  0  0  0  0  0
   -1.8185   -2.4737    0.7057 C   0  0  0  0  0  0  0  0  0  0  0  0
   -0.9604   -2.8407    1.4855 O   0  0  0  0  0  0  0  0  0  0  0  0
   -1.6002   -1.3464   -0.0672 N   0  0  0  0  0  0  0  0  0  0  0  0
   -2.3182   -1.1264   -0.7502 H   0  0  0  0  0  0  0  0  0  0  0  0
   -0.2920   -0.6623   -0.1598 C   0  0  1  0  0  0  0  0  0  0  0  0
    0.4303   -1.4478   -0.4181 H   0  0  0  0  0  0  0  0  0  0  0  0
   -0.2187    0.3431   -1.3310 C   0  0  0  0  0  0  0  0  0  0  0  0
    0.7930    0.7666   -1.3510 H   0  0  0  0  0  0  0  0  0  0  0  0
   -0.3394   -0.2233   -2.2599 H   0  0  0  0  0  0  0  0  0  0  0  0
   -1.2097    1.4890   -1.3277 C   0  0  0  0  0  0  0  0  0  0  0  0
   -1.9409    1.9137   -2.4418 N   0  3  0  0  0  0  0  0  0  0  0  0
   -1.8966    1.4434   -3.3502 H   0  0  0  0  0  0  0  0  0  0  0  0
   -2.6111    3.0070   -2.1669 C   0  0  0  0  0  0  0  0  0  0  0  0
   -3.2537    3.5658   -2.8509 H   0  0  0  0  0  0  0  0  0  0  0  0
   -2.3282    3.3399   -0.8458 N   0  0  0  0  0  0  0  0  0  0  0  0
   -2.6661    4.1723   -0.3522 H   0  0  0  0  0  0  0  0  0  0  0  0
   -1.4308    2.4121   -0.3339 C   0  0  0  0  0  0  0  0  0  0  0  0
   -0.9469    2.4499    0.6413 H   0  0  0  0  0  0  0  0  0  0  0  0
    0.2591   -0.1264    1.1804 C   0  0  0  0  0  0  0  0  0  0  0  0
    1.4603    0.0837    1.2495 O   0  0  0  0  0  0  0  0  0  0  0  0
   -0.5661    0.5490    2.0643 N   0  0  0  0  0  0  0  0  0  0  0  0
   -1.5207    0.1991    2.0822 H   0  0  0  0  0  0  0  0  0  0  0  0
   -0.0422    1.1048    3.3115 C   0  0  0  0  0  0  0  0  0  0  0  0
    0.7076    1.8772    3.1082 H   0  0  0  0  0  0  0  0  0  0  0  0
   -0.8485    1.5557    3.8984 H   0  0  0  0  0  0  0  0  0  0  0  0
    0.4249    0.3178    3.9143 H   0  0  0  0  0  0  0  0  0  0  0  0
  1  2  1  0  0  0  0
  2  3  1  0  0  0  0
  2  4  1  0  0  0  0
  2  5  1  0  0  0  0
  5  6  2  0  0  0  0
  5  7  1  0  0  0  0
  7  8  1  0  0  0  0
  7  9  1  0  0  0  0
  9 10  1  0  0  0  0
  9 11  1  0  0  0  0
  9 23  1  0  0  0  0
 11 12  1  0  0  0  0
 11 13  1  0  0  0  0
 11 14  1  0  0  0  0
 14 15  1  0  0  0  0
 14 21  2  0  0  0  0
 15 16  1  0  0  0  0
 15 17  2  0  0  0  0
 17 18  1  0  0  0  0
 17 19  1  0  0  0  0
 19 20  1  0  0  0  0
 19 21  1  0  0  0  0
 21 22  1  0  0  0  0
 23 24  2  0  0  0  0
 23 25  1  0  0  0  0
 25 26  1  0  0  0  0
 25 27  1  0  0  0  0
 27 28  1  0  0  0  0
 27 29  1  0  0  0  0
 27 30  1  0  0  0  0
M  CHG  1  15   1
M  END
$$$$

  -OEChem-04042216003D

 30 30  0     1  0  0  0  0  0999 V2000
   -3.1225   -4.0731    1.3083 H   0  0  0  0  0  0  0  0  0  0  0  0
   -3.1256   -3.2307    0.6099 C   0  0  0  0  0  0  0  0  0  0  0  0
   -3.9740   -2.5841    0.8454 H   0  0  0  0  0  0  0  0  0  0  0  0
   -3.2396   -3.6204   -0.4043 H   0  0  0  0  0  0  0  0  0  0  0  0
   -1.8277   -2.4550    0.7278 C   0  0  0  0  0  0  0  0  0  0  0  0
   -0.9966   -2.7812    1.5536 O   0  0  0  0  0  0  0  0  0  0  0  0
   -1.5882   -1.3642   -0.0906 N   0  0  0  0  0  0  0  0  0  0  0  0
   -2.2750   -1.1986   -0.8188 H   0  0  0  0  0  0  0  0  0  0  0  0
   -0.2706   -0.6967   -0.1867 C   0  0  1  0  0  0  0  0  0  0  0  0
    0.4548   -1.4860   -0.4223 H   0  0  0  0  0  0  0  0  0  0  0  0
   -0.1879    0.3123   -1.3534 C   0  0  0  0  0  0  0  0  0  0  0  0
    0.8256    0.7315   -1.3682 H   0  0  0  0  0  0  0  0  0  0  0  0
   -0.3135   -0.2335   -2.2936 H   0  0  0  0  0  0  0  0  0  0  0  0
   -1.1766    1.4561   -1.3055 C   0  0  0  0  0  0  0  0  0  0  0  0
   -2.1508    1.7553   -2.2623 N   0  3  0  0  0  0  0  0  0  0  0  0
   -2.3106    1.1827   -3.0956 H   0  0  0  0  0  0  0  0  0  0  0  0
   -2.7431    2.8901   -1.9735 C   0  0  0  0  0  0  0  0  0  0  0  0
   -3.5305    3.3787   -2.5517 H   0  0  0  0  0  0  0  0  0  0  0  0
   -2.1617    3.3732   -0.8041 N   0  0  0  0  0  0  0  0  0  0  0  0
   -2.3871    4.2610   -0.3439 H   0  0  0  0  0  0  0  0  0  0  0  0
   -1.1638    2.4938   -0.4062 C   0  0  0  0  0  0  0  0  0  0  0  0
   -0.4737    2.6128    0.4317 H   0  0  0  0  0  0  0  0  0  0  0  0
    0.2503   -0.1118    1.1459 C   0  0  0  0  0  0  0  0  0  0  0  0
    1.4506    0.0925    1.2434 O   0  0  0  0  0  0  0  0  0  0  0  0
   -0.5948    0.6055    1.9767 N   0  0  0  0  0  0  0  0  0  0  0  0
   -1.5599    0.2865    1.9578 H   0  0  0  0  0  0  0  0  0  0  0  0
   -0.1116    1.1861    3.2288 C   0  0  0  0  0  0  0  0  0  0  0  0
    0.6767    1.9223    3.0379 H   0  0  0  0  0  0  0  0  0  0  0  0
   -0.9279    1.6873    3.7582 H   0  0  0  0  0  0  0  0  0  0  0  0
    0.2945    0.4044    3.8807 H   0  0  0  0  0  0  0  0  0  0  0  0
  1  2  1  0  0  0  0
  2  3  1  0  0  0  0
  2  4  1  0  0  0  0
  2  5  1  0  0  0  0
  5  6  2  0  0  0  0
  5  7  1  0  0  0  0
  7  8  1  0  0  0  0
  7  9  1  0  0  0  0
  9 10  1  0  0  0  0
  9 11  1  0  0  0  0
  9 23  1  0  0  0  0
 11 12  1  0  0  0  0
 11 13  1  0  0  0  0
 11 14  1  0  0  0  0
 14 15  1  0  0  0  0
 14 21  2  0  0  0  0
 15 16  1  0  0  0  0
 15 17  2  0  0  0  0
 17 18  1  0  0  0  0
 17 19  1  0  0  0  0
 19 20  1  0  0  0  0
 19 21  1  0  0  0  0
 21 22  1  0  0  0  0
 23 24  2  0  0  0  0
 23 25  1  0  0  0  0
 25 26  1  0  0  0  0
 25 27  1  0  0  0  0
 27 28  1  0  0  0  0
 27 29  1  0  0  0  0
 27 30  1  0  0  0  0
M  CHG  1  15   1
M  END
$$$$

  -OEChem-04042216003D

 30 30  0     1  0  0  0  0  0999 V2000
   -3.1290   -4.0608    1.3303 H   0  0  0  0  0  0  0  0  0  0  0  0
   -3.1255   -3.2381    0.6087 C   0  0  0  0  0  0  0  0  0  0  0  0
   -3.9916   -2.6008    0.8012 H   0  0  0  0  0  0  0  0  0  0  0  0
   -3.2026   -3.6578   -0.3970 H   0  0  0  0  0  0  0  0  0  0  0  0
   -1.8454   -2.4362    0.7438 C   0  0  0  0  0  0  0  0  0  0  0  0
   -1.0455   -2.7138    1.6166 O   0  0  0  0  0  0  0  0  0  0  0  0
   -1.5908   -1.3752   -0.1094 N   0  0  0  0  0  0  0  0  0  0  0  0
   -2.2315   -1.2858   -0.8902 H   0  0  0  0  0  0  0  0  0  0  0  0
   -0.2641   -0.7245   -0.2063 C   0  0  1  0  0  0  0  0  0  0  0  0
    0.4592   -1.5204   -0.4251 H   0  0  0  0  0  0  0  0  0  0  0  0
   -0.1650    0.2891   -1.3667 C   0  0  0  0  0  0  0  0  0  0  0  0
    0.8537    0.6961   -1.3765 H   0  0  0  0  0  0  0  0  0  0  0  0
   -0.2980   -0.2407   -2.3149 H   0  0  0  0  0  0  0  0  0  0  0  0
   -1.1434    1.4393   -1.2923 C   0  0  0  0  0  0  0  0  0  0  0  0
   -2.3023    1.6293   -2.0495 N   0  3  0  0  0  0  0  0  0  0  0  0
   -2.6145    0.9742   -2.7706 H   0  0  0  0  0  0  0  0  0  0  0  0
   -2.8444    2.7907   -1.7667 C   0  0  0  0  0  0  0  0  0  0  0  0
   -3.7422    3.2171   -2.2196 H   0  0  0  0  0  0  0  0  0  0  0  0
   -2.0480    3.3945   -0.7961 N   0  0  0  0  0  0  0  0  0  0  0  0
   -2.2012    4.3201   -0.3832 H   0  0  0  0  0  0  0  0  0  0  0  0
   -0.9749    2.5593   -0.5171 C   0  0  0  0  0  0  0  0  0  0  0  0
   -0.1491    2.7424    0.1747 H   0  0  0  0  0  0  0  0  0  0  0  0
    0.2431   -0.1018    1.1157 C   0  0  0  0  0  0  0  0  0  0  0  0
    1.4443    0.0920    1.2274 O   0  0  0  0  0  0  0  0  0  0  0  0
   -0.6080    0.6511    1.9078 N   0  0  0  0  0  0  0  0  0  0  0  0
   -1.5771    0.3459    1.8789 H   0  0  0  0  0  0  0  0  0  0  0  0
   -0.1417    1.2715    3.1467 C   0  0  0  0  0  0  0  0  0  0  0  0
    0.6448    2.0059    2.9418 H   0  0  0  0  0  0  0  0  0  0  0  0
   -0.9667    1.7840    3.6511 H   0  0  0  0  0  0  0  0  0  0  0  0
    0.2607    0.5122    3.8267 H   0  0  0  0  0  0  0  0  0  0  0  0
  1  2  1  0  0  0  0
  2  3  1  0  0  0  0
  2  4  1  0  0  0  0
  2  5  1  0  0  0  0
  5  6  2  0  0  0  0
  5  7  1  0  0  0  0
  7  8  1  0  0  0  0
  7  9  1  0  0  0  0
  9 10  1  0  0  0  0
  9 11  1  0  0  0  0
  9 23  1  0  0  0  0
 11 12  1  0  0  0  0
 11 13  1  0  0  0  0
 11 14  1  0  0  0  0
 14 15  1  0  0  0  0
 14 21  2  0  0  0  0
 15 16  1  0  0  0  0
 15 17  2  0  0  0  0
 17 18  1  0  0  0  0
 17 19  1  0  0  0  0
 19 20  1  0  0  0  0
 19 21  1  0  0  0  0
 21 22  1  0  0  0  0
 23 24  2  0  0  0  0
 23 25  1  0  0  0  0
 25 26  1  0  0  0  0
 25 27  1  0  0  0  0
 27 28  1  0  0  0  0
 27 29  1  0  0  0  0
 27 30  1  0  0  0  0
M  CHG  1  15   1
M  END
$$$$

  -OEChem-04042216003D

 30 30  0     1  0  0  0  0  0999 V2000
   -3.1411   -4.0477    1.3555 H   0  0  0  0  0  0  0  0  0  0  0  0
   -3.1165   -3.2634    0.5928 C   0  0  0  0  0  0  0  0  0  0  0  0
   -4.0088   -2.6427    0.7014 H   0  0  0  0  0  0  0  0  0  0  0  0
   -3.1231   -3.7365   -0.3919 H   0  0  0  0  0  0  0  0  0  0  0  0
   -1.8676   -2.4188    0.7591 C   0  0  0  0  0  0  0  0  0  0  0  0
   -1.1062   -2.6398    1.6809 O   0  0  0  0  0  0  0  0  0  0  0  0
   -1.6029   -1.3839   -0.1235 N   0  0  0  0  0  0  0  0  0  0  0  0
   -2.1828   -1.3910   -0.9549 H   0  0  0  0  0  0  0  0  0  0  0  0
   -0.2675   -0.7485   -0.2198 C   0  0  1  0  0  0  0  0  0  0  0  0
    0.4542   -1.5492   -0.4261 H   0  0  0  0  0  0  0  0  0  0  0  0
   -0.1578    0.2701   -1.3745 C   0  0  0  0  0  0  0  0  0  0  0  0
    0.8661    0.6636   -1.3865 H   0  0  0  0  0  0  0  0  0  0  0  0
   -0.3031   -0.2472   -2.3278 H   0  0  0  0  0  0  0  0  0  0  0  0
   -1.1263    1.4274   -1.2795 C   0  0  0  0  0  0  0  0  0  0  0  0
   -2.4207    1.5304   -1.7953 N   0  3  0  0  0  0  0  0  0  0  0  0
   -2.8617    0.7968   -2.3543 H   0  0  0  0  0  0  0  0  0  0  0  0
   -2.9191    2.7167   -1.5360 C   0  0  0  0  0  0  0  0  0  0  0  0
   -3.9007    3.0900   -1.8358 H   0  0  0  0  0  0  0  0  0  0  0  0
   -1.9555    3.4243   -0.8210 N   0  0  0  0  0  0  0  0  0  0  0  0
   -2.0473    4.3856   -0.4772 H   0  0  0  0  0  0  0  0  0  0  0  0
   -0.8319    2.6230   -0.6730 C   0  0  0  0  0  0  0  0  0  0  0  0
    0.1030    2.8722   -0.1660 H   0  0  0  0  0  0  0  0  0  0  0  0
    0.2326   -0.0941    1.0903 C   0  0  0  0  0  0  0  0  0  0  0  0
    1.4355    0.0834    1.2123 O   0  0  0  0  0  0  0  0  0  0  0  0
   -0.6185    0.6900    1.8514 N   0  0  0  0  0  0  0  0  0  0  0  0
   -1.5896    0.3916    1.8260 H   0  0  0  0  0  0  0  0  0  0  0  0
   -0.1556    1.3523    3.0693 C   0  0  0  0  0  0  0  0  0  0  0  0
    0.6437    2.0664    2.8431 H   0  0  0  0  0  0  0  0  0  0  0  0
   -0.9775    1.8968    3.5443 H   0  0  0  0  0  0  0  0  0  0  0  0
    0.2289    0.6147    3.7828 H   0  0  0  0  0  0  0  0  0  0  0  0
  1  2  1  0  0  0  0
  2  3  1  0  0  0  0
  2  4  1  0  0  0  0
  2  5  1  0  0  0  0
  5  6  2  0  0  0  0
  5  7  1  0  0  0  0
  7  8  1  0  0  0  0
  7  9  1  0  0  0  0
  9 10  1  0  0  0  0
  9 11  1  0  0  0  0
  9 23  1  0  0  0  0
 11 12  1  0  0  0  0
 11 13  1  0  0  0  0
 11 14  1  0  0  0  0
 14 15  1  0  0  0  0
 14 21  2  0  0  0  0
 15 16  1  0  0  0  0
 15 17  2  0  0  0  0
 17 18  1  0  0  0  0
 17 19  1  0  0  0  0
 19 20  1  0  0  0  0
 19 21  1  0  0  0  0
 21 22  1  0  0  0  0
 23 24  2  0  0  0  0
 23 25  1  0  0  0  0
 25 26  1  0  0  0  0
 25 27  1  0  0  0  0
 27 28  1  0  0  0  0
 27 29  1  0  0  0  0
 27 30  1  0  0  0  0
M  CHG  1  15   1
M  END
$$$$

  -OEChem-04042216003D

 30 30  0     1  0  0  0  0  0999 V2000
   -3.1103   -4.0879    1.3285 H   0  0  0  0  0  0  0  0  0  0  0  0
   -3.0958   -3.3057    0.5633 C   0  0  0  0  0  0  0  0  0  0  0  0
   -4.0218   -2.7305    0.6341 H   0  0  0  0  0  0  0  0  0  0  0  0
   -3.0407   -3.7822   -0.4183 H   0  0  0  0  0  0  0  0  0  0  0  0
   -1.8989   -2.3984    0.7737 C   0  0  0  0  0  0  0  0  0  0  0  0
   -1.1920   -2.5492    1.7510 O   0  0  0  0  0  0  0  0  0  0  0  0
   -1.6254   -1.3864   -0.1329 N   0  0  0  0  0  0  0  0  0  0  0  0
   -2.1391   -1.4883   -1.0013 H   0  0  0  0  0  0  0  0  0  0  0  0
   -0.2807   -0.7676   -0.2245 C   0  0  1  0  0  0  0  0  0  0  0  0
    0.4374   -1.5735   -0.4215 H   0  0  0  0  0  0  0  0  0  0  0  0
   -0.1646    0.2538   -1.3756 C   0  0  0  0  0  0  0  0  0  0  0  0
    0.8648    0.6325   -1.3975 H   0  0  0  0  0  0  0  0  0  0  0  0
   -0.3285   -0.2579   -2.3290 H   0  0  0  0  0  0  0  0  0  0  0  0
   -1.1227    1.4198   -1.2691 C   0  0  0  0  0  0  0  0  0  0  0  0
   -2.4968    1.4626   -1.5161 N   0  3  0  0  0  0  0  0  0  0  0  0
   -3.0318    0.6580   -1.8471 H   0  0  0  0  0  0  0  0  0  0  0  0
   -2.9604    2.6714   -1.3015 C   0  0  0  0  0  0  0  0  0  0  0  0
   -3.9934    3.0037   -1.4240 H   0  0  0  0  0  0  0  0  0  0  0  0
   -1.8875    3.4599   -0.8935 N   0  0  0  0  0  0  0  0  0  0  0  0
   -1.9319    4.4530   -0.6436 H   0  0  0  0  0  0  0  0  0  0  0  0
   -0.7404    2.6786   -0.8766 C   0  0  0  0  0  0  0  0  0  0  0  0
    0.2676    2.9840   -0.5885 H   0  0  0  0  0  0  0  0  0  0  0  0
    0.2192   -0.0881    1.0738 C   0  0  0  0  0  0  0  0  0  0  0  0
    1.4247    0.0657    1.2033 O   0  0  0  0  0  0  0  0  0  0  0  0
   -0.6246    0.7260    1.8108 N   0  0  0  0  0  0  0  0  0  0  0  0
   -1.5984    0.4373    1.7934 H   0  0  0  0  0  0  0  0  0  0  0  0
   -0.1547    1.4204    3.0078 C   0  0  0  0  0  0  0  0  0  0  0  0
    0.6441    2.1266    2.7575 H   0  0  0  0  0  0  0  0  0  0  0  0
   -0.9732    1.9789    3.4717 H   0  0  0  0  0  0  0  0  0  0  0  0
    0.2324    0.7023    3.7394 H   0  0  0  0  0  0  0  0  0  0  0  0
  1  2  1  0  0  0  0
  2  3  1  0  0  0  0
  2  4  1  0  0  0  0
  2  5  1  0  0  0  0
  5  6  2  0  0  0  0
  5  7  1  0  0  0  0
  7  8  1  0  0  0  0
  7  9  1  0  0  0  0
  9 10  1  0  0  0  0
  9 11  1  0  0  0  0
  9 23  1  0  0  0  0
 11 12  1  0  0  0  0
 11 13  1  0  0  0  0
 11 14  1  0  0  0  0
 14 15  1  0  0  0  0
 14 21  2  0  0  0  0
 15 16  1  0  0  0  0
 15 17  2  0  0  0  0
 17 18  1  0  0  0  0
 17 19  1  0  0  0  0
 19 20  1  0  0  0  0
 19 21  1  0  0  0  0
 21 22  1  0  0  0  0
 23 24  2  0  0  0  0
 23 25  1  0  0  0  0
 25 26  1  0  0  0  0
 25 27  1  0  0  0  0
 27 28  1  0  0  0  0
 27 29  1  0  0  0  0
 27 30  1  0  0  0  0
M  CHG  1  15   1
M  END
$$$$

  -OEChem-04042216003D

 30 30  0     1  0  0  0  0  0999 V2000
   -3.1223   -4.0877    1.3263 H   0  0  0  0  0  0  0  0  0  0  0  0
   -3.0844   -3.3337    0.5338 C   0  0  0  0  0  0  0  0  0  0  0  0
   -4.0252   -2.7787    0.5354 H   0  0  0  0  0  0  0  0  0  0  0  0
   -2.9682   -3.8444   -0.4251 H   0  0  0  0  0  0  0  0  0  0  0  0
   -1.9190   -2.3918    0.7706 C   0  0  0  0  0  0  0  0  0  0  0  0
   -1.2540   -2.4983    1.7821 O   0  0  0  0  0  0  0  0  0  0  0  0
   -1.6400   -1.3859   -0.1420 N   0  0  0  0  0  0  0  0  0  0  0  0
   -2.1075   -1.5414   -1.0299 H   0  0  0  0  0  0  0  0  0  0  0  0
   -0.2886   -0.7769   -0.2255 C   0  0  1  0  0  0  0  0  0  0  0  0
    0.4271   -1.5843   -0.4260 H   0  0  0  0  0  0  0  0  0  0  0  0
   -0.1770    0.2525   -1.3700 C   0  0  0  0  0  0  0  0  0  0  0  0
    0.8544    0.6247   -1.4034 H   0  0  0  0  0  0  0  0  0  0  0  0
   -0.3571   -0.2555   -2.3226 H   0  0  0  0  0  0  0  0  0  0  0  0
   -1.1301    1.4234   -1.2530 C   0  0  0  0  0  0  0  0  0  0  0  0
   -2.5263    1.4282   -1.2148 N   0  3  0  0  0  0  0  0  0  0  0  0
   -3.0872    0.5756   -1.2455 H   0  0  0  0  0  0  0  0  0  0  0  0
   -2.9762    2.6532   -1.0798 C   0  0  0  0  0  0  0  0  0  0  0  0
   -4.0221    2.9587   -1.0087 H   0  0  0  0  0  0  0  0  0  0  0  0
   -1.8692    3.4966   -1.0341 N   0  0  0  0  0  0  0  0  0  0  0  0
   -1.8940    4.5150   -0.9211 H   0  0  0  0  0  0  0  0  0  0  0  0
   -0.7177    2.7279   -1.1383 C   0  0  0  0  0  0  0  0  0  0  0  0
    0.3160    3.0774   -1.1142 H   0  0  0  0  0  0  0  0  0  0  0  0
    0.2163   -0.0933    1.0693 C   0  0  0  0  0  0  0  0  0  0  0  0
    1.4241    0.0393    1.2017 O   0  0  0  0  0  0  0  0  0  0  0  0
   -0.6196    0.7342    1.8006 N   0  0  0  0  0  0  0  0  0  0  0  0
   -1.5915    0.4402    1.8030 H   0  0  0  0  0  0  0  0  0  0  0  0
   -0.1374    1.4460    2.9822 C   0  0  0  0  0  0  0  0  0  0  0  0
    0.6757    2.1305    2.7171 H   0  0  0  0  0  0  0  0  0  0  0  0
   -0.9453    2.0316    3.4314 H   0  0  0  0  0  0  0  0  0  0  0  0
    0.2343    0.7371    3.7306 H   0  0  0  0  0  0  0  0  0  0  0  0
  1  2  1  0  0  0  0
  2  3  1  0  0  0  0
  2  4  1  0  0  0  0
  2  5  1  0  0  0  0
  5  6  2  0  0  0  0
  5  7  1  0  0  0  0
  7  8  1  0  0  0  0
  7  9  1  0  0  0  0
  9 10  1  0  0  0  0
  9 11  1  0  0  0  0
  9 23  1  0  0  0  0
 11 12  1  0  0  0  0
 11 13  1  0  0  0  0
 11 14  1  0  0  0  0
 14 15  1  0  0  0  0
 14 21  2  0  0  0  0
 15 16  1  0  0  0  0
 15 17  2  0  0  0  0
 17 18  1  0  0  0  0
 17 19  1  0  0  0  0
 19 20  1  0  0  0  0
 19 21  1  0  0  0  0
 21 22  1  0  0  0  0
 23 24  2  0  0  0  0
 23 25  1  0  0  0  0
 25 26  1  0  0  0  0
 25 27  1  0  0  0  0
 27 28  1  0  0  0  0
 27 29  1  0  0  0  0
 27 30  1  0  0  0  0
M  CHG  1  15   1
M  END
$$$$

  -OEChem-04042216003D

 30 30  0     1  0  0  0  0  0999 V2000
   -3.1199   -4.1153    1.2864 H   0  0  0  0  0  0  0  0  0  0  0  0
   -3.0816   -3.3580    0.4973 C   0  0  0  0  0  0  0  0  0  0  0  0
   -4.0365   -2.8280    0.4757 H   0  0  0  0  0  0  0  0  0  0  0  0
   -2.9282   -3.8630   -0.4594 H   0  0  0  0  0  0  0  0  0  0  0  0
   -1.9470   -2.3876    0.7660 C   0  0  0  0  0  0  0  0  0  0  0  0
   -1.3181   -2.4659    1.8025 O   0  0  0  0  0  0  0  0  0  0  0  0
   -1.6638   -1.3758   -0.1387 N   0  0  0  0  0  0  0  0  0  0  0  0
   -2.1152   -1.5383   -1.0355 H   0  0  0  0  0  0  0  0  0  0  0  0
   -0.3067   -0.7754   -0.2135 C   0  0  1  0  0  0  0  0  0  0  0  0
    0.4016   -1.5880   -0.4191 H   0  0  0  0  0  0  0  0  0  0  0  0
   -0.1895    0.2538   -1.3581 C   0  0  0  0  0  0  0  0  0  0  0  0
    0.8441    0.6195   -1.3978 H   0  0  0  0  0  0  0  0  0  0  0  0
   -0.3788   -0.2578   -2.3073 H   0  0  0  0  0  0  0  0  0  0  0  0
   -1.1363    1.4303   -1.2484 C   0  0  0  0  0  0  0  0  0  0  0  0
   -2.4965    1.4317   -0.9344 N   0  3  0  0  0  0  0  0  0  0  0  0
   -3.0038    0.5806   -0.6845 H   0  0  0  0  0  0  0  0  0  0  0  0
   -2.9569    2.6592   -0.8932 C   0  0  0  0  0  0  0  0  0  0  0  0
   -3.9755    2.9652   -0.6462 H   0  0  0  0  0  0  0  0  0  0  0  0
   -1.8962    3.5062   -1.2041 N   0  0  0  0  0  0  0  0  0  0  0  0
   -1.9357    4.5299   -1.2379 H   0  0  0  0  0  0  0  0  0  0  0  0
   -0.7579    2.7391   -1.4154 C   0  0  0  0  0  0  0  0  0  0  0  0
    0.2466    3.0963   -1.6476 H   0  0  0  0  0  0  0  0  0  0  0  0
    0.2122   -0.1038    1.0823 C   0  0  0  0  0  0  0  0  0  0  0  0
    1.4223    0.0168    1.2022 O   0  0  0  0  0  0  0  0  0  0  0  0
   -0.6096    0.7282    1.8249 N   0  0  0  0  0  0  0  0  0  0  0  0
   -1.5726    0.4109    1.8756 H   0  0  0  0  0  0  0  0  0  0  0  0
   -0.0968    1.4614    2.9808 C   0  0  0  0  0  0  0  0  0  0  0  0
    0.7169    2.1323    2.6840 H   0  0  0  0  0  0  0  0  0  0  0  0
   -0.8898    2.0651    3.4329 H   0  0  0  0  0  0  0  0  0  0  0  0
    0.2841    0.7662    3.7377 H   0  0  0  0  0  0  0  0  0  0  0  0
  1  2  1  0  0  0  0
  2  3  1  0  0  0  0
  2  4  1  0  0  0  0
  2  5  1  0  0  0  0
  5  6  2  0  0  0  0
  5  7  1  0  0  0  0
  7  8  1  0  0  0  0
  7  9  1  0  0  0  0
  9 10  1  0  0  0  0
  9 11  1  0  0  0  0
  9 23  1  0  0  0  0
 11 12  1  0  0  0  0
 11 13  1  0  0  0  0
 11 14  1  0  0  0  0
 14 15  1  0  0  0  0
 14 21  2  0  0  0  0
 15 16  1  0  0  0  0
 15 17  2  0  0  0  0
 17 18  1  0  0  0  0
 17 19  1  0  0  0  0
 19 20  1  0  0  0  0
 19 21  1  0  0  0  0
 21 22  1  0  0  0  0
 23 24  2  0  0  0  0
 23 25  1  0  0  0  0
 25 26  1  0  0  0  0
 25 27  1  0  0  0  0
 27 28  1  0  0  0  0
 27 29  1  0  0  0  0
 27 30  1  0  0  0  0
M  CHG  1  15   1
M  END
$$$$

  -OEChem-04042216003D

 30 30  0     1  0  0  0  0  0999 V2000
   -3.1382   -4.1264    1.2571 H   0  0  0  0  0  0  0  0  0  0  0  0
   -3.0899   -3.3644    0.4732 C   0  0  0  0  0  0  0  0  0  0  0  0
   -4.0438   -2.8328    0.4439 H   0  0  0  0  0  0  0  0  0  0  0  0
   -2.9260   -3.8634   -0.4851 H   0  0  0  0  0  0  0  0  0  0  0  0
   -1.9581   -2.3964    0.7601 C   0  0  0  0  0  0  0  0  0  0  0  0
   -1.3407   -2.4752    1.8038 O   0  0  0  0  0  0  0  0  0  0  0  0
   -1.6761   -1.3682   -0.1252 N   0  0  0  0  0  0  0  0  0  0  0  0
   -2.1412   -1.4992   -1.0211 H   0  0  0  0  0  0  0  0  0  0  0  0
   -0.3197   -0.7663   -0.1961 C   0  0  1  0  0  0  0  0  0  0  0  0
    0.3839   -1.5811   -0.4094 H   0  0  0  0  0  0  0  0  0  0  0  0
   -0.2007    0.2574   -1.3458 C   0  0  0  0  0  0  0  0  0  0  0  0
    0.8321    0.6248   -1.3870 H   0  0  0  0  0  0  0  0  0  0  0  0
   -0.3885   -0.2645   -2.2896 H   0  0  0  0  0  0  0  0  0  0  0  0
   -1.1478    1.4350   -1.2560 C   0  0  0  0  0  0  0  0  0  0  0  0
   -2.4208    1.4803   -0.6862 N   0  3  0  0  0  0  0  0  0  0  0  0
   -2.8374    0.6725   -0.2172 H   0  0  0  0  0  0  0  0  0  0  0  0
   -2.9067    2.6971   -0.7408 C   0  0  0  0  0  0  0  0  0  0  0  0
   -3.8674    3.0331   -0.3456 H   0  0  0  0  0  0  0  0  0  0  0  0
   -1.9557    3.4896   -1.3790 N   0  0  0  0  0  0  0  0  0  0  0  0
   -2.0357    4.4960   -1.5559 H   0  0  0  0  0  0  0  0  0  0  0  0
   -0.8523    2.7039   -1.6879 C   0  0  0  0  0  0  0  0  0  0  0  0
    0.0771    3.0262   -2.1596 H   0  0  0  0  0  0  0  0  0  0  0  0
    0.2144   -0.1167    1.1040 C   0  0  0  0  0  0  0  0  0  0  0  0
    1.4256    0.0131    1.2003 O   0  0  0  0  0  0  0  0  0  0  0  0
   -0.5985    0.7039    1.8688 N   0  0  0  0  0  0  0  0  0  0  0  0
   -1.5389    0.3393    1.9846 H   0  0  0  0  0  0  0  0  0  0  0  0
   -0.0548    1.4617    2.9945 C   0  0  0  0  0  0  0  0  0  0  0  0
    0.7290    2.1485    2.6566 H   0  0  0  0  0  0  0  0  0  0  0  0
   -0.8419    2.0518    3.4737 H   0  0  0  0  0  0  0  0  0  0  0  0
    0.3743    0.7842    3.7412 H   0  0  0  0  0  0  0  0  0  0  0  0
  1  2  1  0  0  0  0
  2  3  1  0  0  0  0
  2  4  1  0  0  0  0
  2  5  1  0  0  0  0
  5  6  2  0  0  0  0
  5  7  1  0  0  0  0
  7  8  1  0  0  0  0
  7  9  1  0  0  0  0
  9 10  1  0  0  0  0
  9 11  1  0  0  0  0
  9 23  1  0  0  0  0
 11 12  1  0  0  0  0
 11 13  1  0  0  0  0
 11 14  1  0  0  0  0
 14 15  1  0  0  0  0
 14 21  2  0  0  0  0
 15 16  1  0  0  0  0
 15 17  2  0  0  0  0
 17 18  1  0  0  0  0
 17 19  1  0  0  0  0
 19 20  1  0  0  0  0
 19 21  1  0  0  0  0
 21 22  1  0  0  0  0
 23 24  2  0  0  0  0
 23 25  1  0  0  0  0
 25 26  1  0  0  0  0
 25 27  1  0  0  0  0
 27 28  1  0  0  0  0
 27 29  1  0  0  0  0
 27 30  1  0  0  0  0
M  CHG  1  15   1
M  END
$$$$

  -OEChem-04042216003D

 30 30  0     1  0  0  0  0  0999 V2000
   -3.1432   -4.1470    1.2199 H   0  0  0  0  0  0  0  0  0  0  0  0
   -3.1055   -3.3596    0.4608 C   0  0  0  0  0  0  0  0  0  0  0  0
   -4.0523   -2.8148    0.4745 H   0  0  0  0  0  0  0  0  0  0  0  0
   -2.9742   -3.8278   -0.5178 H   0  0  0  0  0  0  0  0  0  0  0  0
   -1.9532   -2.4167    0.7489 C   0  0  0  0  0  0  0  0  0  0  0  0
   -1.3133   -2.5316    1.7760 O   0  0  0  0  0  0  0  0  0  0  0  0
   -1.6792   -1.3612   -0.1052 N   0  0  0  0  0  0  0  0  0  0  0  0
   -2.1812   -1.4304   -0.9882 H   0  0  0  0  0  0  0  0  0  0  0  0
   -0.3281   -0.7505   -0.1767 C   0  0  1  0  0  0  0  0  0  0  0  0
    0.3720   -1.5648   -0.4035 H   0  0  0  0  0  0  0  0  0  0  0  0
   -0.2096    0.2697   -1.3305 C   0  0  0  0  0  0  0  0  0  0  0  0
    0.8208    0.6447   -1.3638 H   0  0  0  0  0  0  0  0  0  0  0  0
   -0.3846   -0.2597   -2.2728 H   0  0  0  0  0  0  0  0  0  0  0  0
   -1.1585    1.4462   -1.2621 C   0  0  0  0  0  0  0  0  0  0  0  0
   -2.2991    1.5881   -0.4722 N   0  3  0  0  0  0  0  0  0  0  0  0
   -2.5887    0.8709    0.1973 H   0  0  0  0  0  0  0  0  0  0  0  0
   -2.8265    2.7776   -0.6321 C   0  0  0  0  0  0  0  0  0  0  0  0
   -3.7017    3.1766   -0.1155 H   0  0  0  0  0  0  0  0  0  0  0  0
   -2.0443    3.4484   -1.5689 N   0  0  0  0  0  0  0  0  0  0  0  0
   -2.1889    4.4107   -1.8906 H   0  0  0  0  0  0  0  0  0  0  0  0
   -0.9951    2.6215   -1.9521 C   0  0  0  0  0  0  0  0  0  0  0  0
   -0.1860    2.8587   -2.6443 H   0  0  0  0  0  0  0  0  0  0  0  0
    0.2201   -0.1375    1.1349 C   0  0  0  0  0  0  0  0  0  0  0  0
    1.4292    0.0268    1.1983 O   0  0  0  0  0  0  0  0  0  0  0  0
   -0.5927    0.6533    1.9315 N   0  0  0  0  0  0  0  0  0  0  0  0
   -1.4836    0.2073    2.1323 H   0  0  0  0  0  0  0  0  0  0  0  0
   -0.0229    1.4448    3.0218 C   0  0  0  0  0  0  0  0  0  0  0  0
    0.7079    2.1650    2.6376 H   0  0  0  0  0  0  0  0  0  0  0  0
   -0.8092    2.0006    3.5417 H   0  0  0  0  0  0  0  0  0  0  0  0
    0.4787    0.7939    3.7469 H   0  0  0  0  0  0  0  0  0  0  0  0
  1  2  1  0  0  0  0
  2  3  1  0  0  0  0
  2  4  1  0  0  0  0
  2  5  1  0  0  0  0
  5  6  2  0  0  0  0
  5  7  1  0  0  0  0
  7  8  1  0  0  0  0
  7  9  1  0  0  0  0
  9 10  1  0  0  0  0
  9 11  1  0  0  0  0
  9 23  1  0  0  0  0
 11 12  1  0  0  0  0
 11 13  1  0  0  0  0
 11 14  1  0  0  0  0
 14 15  1  0  0  0  0
 14 21  2  0  0  0  0
 15 16  1  0  0  0  0
 15 17  2  0  0  0  0
 17 18  1  0  0  0  0
 17 19  1  0  0  0  0
 19 20  1  0  0  0  0
 19 21  1  0  0  0  0
 21 22  1  0  0  0  0
 23 24  2  0  0  0  0
 23 25  1  0  0  0  0
 25 26  1  0  0  0  0
 25 27  1  0  0  0  0
 27 28  1  0  0  0  0
 27 29  1  0  0  0  0
 27 30  1  0  0  0  0
M  CHG  1  15   1
M  END
$$$$

  -OEChem-04042216003D

 30 30  0     1  0  0  0  0  0999 V2000
   -3.1471   -4.1514    1.1806 H   0  0  0  0  0  0  0  0  0  0  0  0
   -3.1241   -3.3284    0.4598 C   0  0  0  0  0  0  0  0  0  0  0  0
   -4.0528   -2.7599    0.5475 H   0  0  0  0  0  0  0  0  0  0  0  0
   -3.0539   -3.7498   -0.5460 H   0  0  0  0  0  0  0  0  0  0  0  0
   -1.9320   -2.4321    0.7343 C   0  0  0  0  0  0  0  0  0  0  0  0
   -1.2449   -2.6140    1.7209 O   0  0  0  0  0  0  0  0  0  0  0  0
   -1.6628   -1.3508   -0.0874 N   0  0  0  0  0  0  0  0  0  0  0  0
   -2.2192   -1.3395   -0.9394 H   0  0  0  0  0  0  0  0  0  0  0  0
   -0.3170   -0.7339   -0.1680 C   0  0  1  0  0  0  0  0  0  0  0  0
    0.3802   -1.5451   -0.4137 H   0  0  0  0  0  0  0  0  0  0  0  0
   -0.2065    0.2925   -1.3182 C   0  0  0  0  0  0  0  0  0  0  0  0
    0.8226    0.6718   -1.3431 H   0  0  0  0  0  0  0  0  0  0  0  0
   -0.3727   -0.2329   -2.2642 H   0  0  0  0  0  0  0  0  0  0  0  0
   -1.1492    1.4734   -1.2551 C   0  0  0  0  0  0  0  0  0  0  0  0
   -2.1103    1.7598   -0.2870 N   0  3  0  0  0  0  0  0  0  0  0  0
   -2.1827    1.2180    0.5788 H   0  0  0  0  0  0  0  0  0  0  0  0
   -2.7114    2.8934   -0.5548 C   0  0  0  0  0  0  0  0  0  0  0  0
   -3.4652    3.3900    0.0594 H   0  0  0  0  0  0  0  0  0  0  0  0
   -2.1825    3.3628   -1.7546 N   0  0  0  0  0  0  0  0  0  0  0  0
   -2.4388    4.2398   -2.2189 H   0  0  0  0  0  0  0  0  0  0  0  0
   -1.1990    2.4806   -2.1860 C   0  0  0  0  0  0  0  0  0  0  0  0
   -0.5748    2.5707   -3.0761 H   0  0  0  0  0  0  0  0  0  0  0  0
    0.2346   -0.1654    1.1610 C   0  0  0  0  0  0  0  0  0  0  0  0
    1.4374    0.0411    1.2084 O   0  0  0  0  0  0  0  0  0  0  0  0
   -0.5919    0.5877    1.9824 N   0  0  0  0  0  0  0  0  0  0  0  0
   -1.4338    0.0696    2.2288 H   0  0  0  0  0  0  0  0  0  0  0  0
   -0.0210    1.3921    3.0638 C   0  0  0  0  0  0  0  0  0  0  0  0
    0.6613    2.1509    2.6649 H   0  0  0  0  0  0  0  0  0  0  0  0
   -0.8130    1.9035    3.6197 H   0  0  0  0  0  0  0  0  0  0  0  0
    0.5366    0.7569    3.7616 H   0  0  0  0  0  0  0  0  0  0  0  0
  1  2  1  0  0  0  0
  2  3  1  0  0  0  0
  2  4  1  0  0  0  0
  2  5  1  0  0  0  0
  5  6  2  0  0  0  0
  5  7  1  0  0  0  0
  7  8  1  0  0  0  0
  7  9  1  0  0  0  0
  9 10  1  0  0  0  0
  9 11  1  0  0  0  0
  9 23  1  0  0  0  0
 11 12  1  0  0  0  0
 11 13  1  0  0  0  0
 11 14  1  0  0  0  0
 14 15  1  0  0  0  0
 14 21  2  0  0  0  0
 15 16  1  0  0  0  0
 15 17  2  0  0  0  0
 17 18  1  0  0  0  0
 17 19  1  0  0  0  0
 19 20  1  0  0  0  0
 19 21  1  0  0  0  0
 21 22  1  0  0  0  0
 23 24  2  0  0  0  0
 23 25  1  0  0  0  0
 25 26  1  0  0  0  0
 25 27  1  0  0  0  0
 27 28  1  0  0  0  0
 27 29  1  0  0  0  0
 27 30  1  0  0  0  0
M  CHG  1  15   1
M  END
$$$$

  -OEChem-04042216003D

 30 30  0     1  0  0  0  0  0999 V2000
   -3.1588   -4.1211    1.1807 H   0  0  0  0  0  0  0  0  0  0  0  0
   -3.1448   -3.2765    0.4850 C   0  0  0  0  0  0  0  0  0  0  0  0
   -4.0462   -2.6795    0.6411 H   0  0  0  0  0  0  0  0  0  0  0  0
   -3.1443   -3.6670   -0.5356 H   0  0  0  0  0  0  0  0  0  0  0  0
   -1.9089   -2.4305    0.7223 C   0  0  0  0  0  0  0  0  0  0  0  0
   -1.1762   -2.6694    1.6633 O   0  0  0  0  0  0  0  0  0  0  0  0
   -1.6412   -1.3370   -0.0831 N   0  0  0  0  0  0  0  0  0  0  0  0
   -2.2396   -1.2642   -0.9024 H   0  0  0  0  0  0  0  0  0  0  0  0
   -0.2998   -0.7144   -0.1683 C   0  0  1  0  0  0  0  0  0  0  0  0
    0.3976   -1.5238   -0.4202 H   0  0  0  0  0  0  0  0  0  0  0  0
   -0.1934    0.3084   -1.3224 C   0  0  0  0  0  0  0  0  0  0  0  0
    0.8330    0.6951   -1.3337 H   0  0  0  0  0  0  0  0  0  0  0  0
   -0.3416   -0.2212   -2.2691 H   0  0  0  0  0  0  0  0  0  0  0  0
   -1.1366    1.4903   -1.2733 C   0  0  0  0  0  0  0  0  0  0  0  0
   -1.8925    1.9439   -0.1935 N   0  3  0  0  0  0  0  0  0  0  0  0
   -1.7583    1.5737    0.7538 H   0  0  0  0  0  0  0  0  0  0  0  0
   -2.5831    3.0066   -0.5270 C   0  0  0  0  0  0  0  0  0  0  0  0
   -3.2128    3.6046    0.1345 H   0  0  0  0  0  0  0  0  0  0  0  0
   -2.3351    3.2489   -1.8755 N   0  0  0  0  0  0  0  0  0  0  0  0
   -2.7209    4.0234   -2.4250 H   0  0  0  0  0  0  0  0  0  0  0  0
   -1.4263    2.3052   -2.3397 C   0  0  0  0  0  0  0  0  0  0  0  0
   -1.0096    2.2292   -3.3449 H   0  0  0  0  0  0  0  0  0  0  0  0
    0.2517   -0.1655    1.1684 C   0  0  0  0  0  0  0  0  0  0  0  0
    1.4514    0.0560    1.2171 O   0  0  0  0  0  0  0  0  0  0  0  0
   -0.5788    0.5692    2.0039 N   0  0  0  0  0  0  0  0  0  0  0  0
   -1.4363    0.0564    2.2091 H   0  0  0  0  0  0  0  0  0  0  0  0
   -0.0158    1.3183    3.1291 C   0  0  0  0  0  0  0  0  0  0  0  0
    0.6795    2.0876    2.7748 H   0  0  0  0  0  0  0  0  0  0  0  0
   -0.8103    1.8112    3.6979 H   0  0  0  0  0  0  0  0  0  0  0  0
    0.5267    0.6467    3.8046 H   0  0  0  0  0  0  0  0  0  0  0  0
  1  2  1  0  0  0  0
  2  3  1  0  0  0  0
  2  4  1  0  0  0  0
  2  5  1  0  0  0  0
  5  6  2  0  0  0  0
  5  7  1  0  0  0  0
  7  8  1  0  0  0  0
  7  9  1  0  0  0  0
  9 10  1  0  0  0  0
  9 11  1  0  0  0  0
  9 23  1  0  0  0  0
 11 12  1  0  0  0  0
 11 13  1  0  0  0  0
 11 14  1  0  0  0  0
 14 15  1  0  0  0  0
 14 21  2  0  0  0  0
 15 16  1  0  0  0  0
 15 17  2  0  0  0  0
 17 18  1  0  0  0  0
 17 19  1  0  0  0  0
 19 20  1  0  0  0  0
 19 21  1  0  0  0  0
 21 22  1  0  0  0  0
 23 24  2  0  0  0  0
 23 25  1  0  0  0  0
 25 26  1  0  0  0  0
 25 27  1  0  0  0  0
 27 28  1  0  0  0  0
 27 29  1  0  0  0  0
 27 30  1  0  0  0  0
M  CHG  1  15   1
M  END
$$$$

  -OEChem-04042216003D

 30 30  0     1  0  0  0  0  0999 V2000
   -3.1685   -4.0853    1.2160 H   0  0  0  0  0  0  0  0  0  0  0  0
   -3.1532   -3.2419    0.5190 C   0  0  0  0  0  0  0  0  0  0  0  0
   -4.0384   -2.6260    0.6944 H   0  0  0  0  0  0  0  0  0  0  0  0
   -3.1836   -3.6336   -0.5007 H   0  0  0  0  0  0  0  0  0  0  0  0
   -1.8951   -2.4207    0.7258 C   0  0  0  0  0  0  0  0  0  0  0  0
   -1.1362   -2.6854    1.6388 O   0  0  0  0  0  0  0  0  0  0  0  0
   -1.6284   -1.3293   -0.0828 N   0  0  0  0  0  0  0  0  0  0  0  0
   -2.2489   -1.2299   -0.8823 H   0  0  0  0  0  0  0  0  0  0  0  0
   -0.2900   -0.7031   -0.1732 C   0  0  1  0  0  0  0  0  0  0  0  0
    0.4091   -1.5129   -0.4194 H   0  0  0  0  0  0  0  0  0  0  0  0
   -0.1865    0.3085   -1.3372 C   0  0  0  0  0  0  0  0  0  0  0  0
    0.8379    0.7002   -1.3486 H   0  0  0  0  0  0  0  0  0  0  0  0
   -0.3270   -0.2315   -2.2790 H   0  0  0  0  0  0  0  0  0  0  0  0
   -1.1353    1.4871   -1.2992 C   0  0  0  0  0  0  0  0  0  0  0  0
   -1.6682    2.1184   -0.1757 N   0  3  0  0  0  0  0  0  0  0  0  0
   -1.3685    1.8786    0.7774 H   0  0  0  0  0  0  0  0  0  0  0  0
   -2.4358    3.1205   -0.5279 C   0  0  0  0  0  0  0  0  0  0  0  0
   -2.9420    3.8171    0.1434 H   0  0  0  0  0  0  0  0  0  0  0  0
   -2.4610    3.1458   -1.9201 N   0  0  0  0  0  0  0  0  0  0  0  0
   -2.9630    3.8289   -2.4966 H   0  0  0  0  0  0  0  0  0  0  0  0
   -1.6446    2.1284   -2.4016 C   0  0  0  0  0  0  0  0  0  0  0  0
   -1.4310    1.8923   -3.4448 H   0  0  0  0  0  0  0  0  0  0  0  0
    0.2599   -0.1481    1.1616 C   0  0  0  0  0  0  0  0  0  0  0  0
    1.4591    0.0730    1.2174 O   0  0  0  0  0  0  0  0  0  0  0  0
   -0.5686    0.5872    1.9983 N   0  0  0  0  0  0  0  0  0  0  0  0
   -1.4656    0.1223    2.1384 H   0  0  0  0  0  0  0  0  0  0  0  0
   -0.0175    1.2662    3.1727 C   0  0  0  0  0  0  0  0  0  0  0  0
    0.7055    2.0339    2.8753 H   0  0  0  0  0  0  0  0  0  0  0  0
   -0.8145    1.7501    3.7460 H   0  0  0  0  0  0  0  0  0  0  0  0
    0.4904    0.5482    3.8271 H   0  0  0  0  0  0  0  0  0  0  0  0
  1  2  1  0  0  0  0
  2  3  1  0  0  0  0
  2  4  1  0  0  0  0
  2  5  1  0  0  0  0
  5  6  2  0  0  0  0
  5  7  1  0  0  0  0
  7  8  1  0  0  0  0
  7  9  1  0  0  0  0
  9 10  1  0  0  0  0
  9 11  1  0  0  0  0
  9 23  1  0  0  0  0
 11 12  1  0  0  0  0
 11 13  1  0  0  0  0
 11 14  1  0  0  0  0
 14 15  1  0  0  0  0
 14 21  2  0  0  0  0
 15 16  1  0  0  0  0
 15 17  2  0  0  0  0
 17 18  1  0  0  0  0
 17 19  1  0  0  0  0
 19 20  1  0  0  0  0
 19 21  1  0  0  0  0
 21 22  1  0  0  0  0
 23 24  2  0  0  0  0
 23 25  1  0  0  0  0
 25 26  1  0  0  0  0
 25 27  1  0  0  0  0
 27 28  1  0  0  0  0
 27 29  1  0  0  0  0
 27 30  1  0  0  0  0
M  CHG  1  15   1
M  END
$$$$

  -OEChem-04042216003D

 30 30  0     1  0  0  0  0  0999 V2000
   -3.1689   -4.0530    1.2681 H   0  0  0  0  0  0  0  0  0  0  0  0
   -3.1514   -3.2218    0.5568 C   0  0  0  0  0  0  0  0  0  0  0  0
   -4.0258   -2.5912    0.7331 H   0  0  0  0  0  0  0  0  0  0  0  0
   -3.1998   -3.6295   -0.4558 H   0  0  0  0  0  0  0  0  0  0  0  0
   -1.8797   -2.4150    0.7343 C   0  0  0  0  0  0  0  0  0  0  0  0
   -1.1035   -2.6879    1.6303 O   0  0  0  0  0  0  0  0  0  0  0  0
   -1.6143   -1.3346   -0.0892 N   0  0  0  0  0  0  0  0  0  0  0  0
   -2.2494   -1.2256   -0.8753 H   0  0  0  0  0  0  0  0  0  0  0  0
   -0.2794   -0.7030   -0.1845 C   0  0  1  0  0  0  0  0  0  0  0  0
    0.4253   -1.5113   -0.4194 H   0  0  0  0  0  0  0  0  0  0  0  0
   -0.1790    0.2984   -1.3569 C   0  0  0  0  0  0  0  0  0  0  0  0
    0.8426    0.6970   -1.3760 H   0  0  0  0  0  0  0  0  0  0  0  0
   -0.3200   -0.2498   -2.2939 H   0  0  0  0  0  0  0  0  0  0  0  0
   -1.1395    1.4664   -1.3161 C   0  0  0  0  0  0  0  0  0  0  0  0
   -1.4404    2.2631   -0.2119 N   0  3  0  0  0  0  0  0  0  0  0  0
   -0.9999    2.1159    0.7058 H   0  0  0  0  0  0  0  0  0  0  0  0
   -2.2768    3.2159   -0.5424 C   0  0  0  0  0  0  0  0  0  0  0  0
   -2.6622    3.9974    0.1156 H   0  0  0  0  0  0  0  0  0  0  0  0
   -2.5668    3.0528   -1.8950 N   0  0  0  0  0  0  0  0  0  0  0  0
   -3.1751    3.6610   -2.4526 H   0  0  0  0  0  0  0  0  0  0  0  0
   -1.8518    1.9629   -2.3800 C   0  0  0  0  0  0  0  0  0  0  0  0
   -1.8350    1.5888   -3.4042 H   0  0  0  0  0  0  0  0  0  0  0  0
    0.2607   -0.1254    1.1447 C   0  0  0  0  0  0  0  0  0  0  0  0
    1.4583    0.1016    1.2083 O   0  0  0  0  0  0  0  0  0  0  0  0
   -0.5716    0.6184    1.9692 N   0  0  0  0  0  0  0  0  0  0  0  0
   -1.4972    0.1995    2.0558 H   0  0  0  0  0  0  0  0  0  0  0  0
   -0.0421    1.2553    3.1766 C   0  0  0  0  0  0  0  0  0  0  0  0
    0.7089    2.0114    2.9218 H   0  0  0  0  0  0  0  0  0  0  0  0
   -0.8453    1.7447    3.7363 H   0  0  0  0  0  0  0  0  0  0  0  0
    0.4264    0.5094    3.8292 H   0  0  0  0  0  0  0  0  0  0  0  0
  1  2  1  0  0  0  0
  2  3  1  0  0  0  0
  2  4  1  0  0  0  0
  2  5  1  0  0  0  0
  5  6  2  0  0  0  0
  5  7  1  0  0  0  0
  7  8  1  0  0  0  0
  7  9  1  0  0  0  0
  9 10  1  0  0  0  0
  9 11  1  0  0  0  0
  9 23  1  0  0  0  0
 11 12  1  0  0  0  0
 11 13  1  0  0  0  0
 11 14  1  0  0  0  0
 14 15  1  0  0  0  0
 14 21  2  0  0  0  0
 15 16  1  0  0  0  0
 15 17  2  0  0  0  0
 17 18  1  0  0  0  0
 17 19  1  0  0  0  0
 19 20  1  0  0  0  0
 19 21  1  0  0  0  0
 21 22  1  0  0  0  0
 23 24  2  0  0  0  0
 23 25  1  0  0  0  0
 25 26  1  0  0  0  0
 25 27  1  0  0  0  0
 27 28  1  0  0  0  0
 27 29  1  0  0  0  0
 27 30  1  0  0  0  0
M  CHG  1  15   1
M  END
$$$$

  -OEChem-04042216003D

 30 30  0     1  0  0  0  0  0999 V2000
   -3.1656   -4.0318    1.3201 H   0  0  0  0  0  0  0  0  0  0  0  0
   -3.1434   -3.2171    0.5899 C   0  0  0  0  0  0  0  0  0  0  0  0
   -4.0136   -2.5770    0.7525 H   0  0  0  0  0  0  0  0  0  0  0  0
   -3.1957   -3.6473   -0.4132 H   0  0  0  0  0  0  0  0  0  0  0  0
   -1.8664   -2.4143    0.7463 C   0  0  0  0  0  0  0  0  0  0  0  0
   -1.0830   -2.6804    1.6379 O   0  0  0  0  0  0  0  0  0  0  0  0
   -1.6003   -1.3511   -0.0991 N   0  0  0  0  0  0  0  0  0  0  0  0
   -2.2412   -1.2478   -0.8807 H   0  0  0  0  0  0  0  0  0  0  0  0
   -0.2684   -0.7144   -0.2010 C   0  0  1  0  0  0  0  0  0  0  0  0
    0.4435   -1.5195   -0.4241 H   0  0  0  0  0  0  0  0  0  0  0  0
   -0.1727    0.2837   -1.3749 C   0  0  0  0  0  0  0  0  0  0  0  0
    0.8471    0.6856   -1.4080 H   0  0  0  0  0  0  0  0  0  0  0  0
   -0.3238   -0.2660   -2.3095 H   0  0  0  0  0  0  0  0  0  0  0  0
   -1.1438    1.4398   -1.3150 C   0  0  0  0  0  0  0  0  0  0  0  0
   -1.2148    2.3867   -0.2937 N   0  3  0  0  0  0  0  0  0  0  0  0
   -0.6372    2.3218    0.5549 H   0  0  0  0  0  0  0  0  0  0  0  0
   -2.1110    3.3004   -0.5727 C   0  0  0  0  0  0  0  0  0  0  0  0
   -2.3742    4.1597    0.0476 H   0  0  0  0  0  0  0  0  0  0  0  0
   -2.6576    2.9703   -1.8113 N   0  0  0  0  0  0  0  0  0  0  0  0
   -3.3671    3.5133   -2.3134 H   0  0  0  0  0  0  0  0  0  0  0  0
   -2.0475    1.8109   -2.2798 C   0  0  0  0  0  0  0  0  0  0  0  0
   -2.2243    1.3112   -3.2330 H   0  0  0  0  0  0  0  0  0  0  0  0
    0.2578   -0.1051    1.1197 C   0  0  0  0  0  0  0  0  0  0  0  0
    1.4525    0.1358    1.1897 O   0  0  0  0  0  0  0  0  0  0  0  0
   -0.5831    0.6518    1.9221 N   0  0  0  0  0  0  0  0  0  0  0  0
   -1.5285    0.2740    1.9625 H   0  0  0  0  0  0  0  0  0  0  0  0
   -0.0833    1.2745    3.1491 C   0  0  0  0  0  0  0  0  0  0  0  0
    0.6939    2.0138    2.9251 H   0  0  0  0  0  0  0  0  0  0  0  0
   -0.8958    1.7810    3.6796 H   0  0  0  0  0  0  0  0  0  0  0  0
    0.3432    0.5163    3.8161 H   0  0  0  0  0  0  0  0  0  0  0  0
  1  2  1  0  0  0  0
  2  3  1  0  0  0  0
  2  4  1  0  0  0  0
  2  5  1  0  0  0  0
  5  6  2  0  0  0  0
  5  7  1  0  0  0  0
  7  8  1  0  0  0  0
  7  9  1  0  0  0  0
  9 10  1  0  0  0  0
  9 11  1  0  0  0  0
  9 23  1  0  0  0  0
 11 12  1  0  0  0  0
 11 13  1  0  0  0  0
 11 14  1  0  0  0  0
 14 15  1  0  0  0  0
 14 21  2  0  0  0  0
 15 16  1  0  0  0  0
 15 17  2  0  0  0  0
 17 18  1  0  0  0  0
 17 19  1  0  0  0  0
 19 20  1  0  0  0  0
 19 21  1  0  0  0  0
 21 22  1  0  0  0  0
 23 24  2  0  0  0  0
 23 25  1  0  0  0  0
 25 26  1  0  0  0  0
 25 27  1  0  0  0  0
 27 28  1  0  0  0  0
 27 29  1  0  0  0  0
 27 30  1  0  0  0  0
M  CHG  1  15   1
M  END
$$$$

  -OEChem-04042216003D

 30 30  0     1  0  0  0  0  0999 V2000
   -3.1546   -4.0185    1.3656 H   0  0  0  0  0  0  0  0  0  0  0  0
   -3.1313   -3.2208    0.6168 C   0  0  0  0  0  0  0  0  0  0  0  0
   -4.0000   -2.5755    0.7657 H   0  0  0  0  0  0  0  0  0  0  0  0
   -3.1850   -3.6741   -0.3760 H   0  0  0  0  0  0  0  0  0  0  0  0
   -1.8525   -2.4175    0.7545 C   0  0  0  0  0  0  0  0  0  0  0  0
   -1.0643   -2.6738    1.6447 O   0  0  0  0  0  0  0  0  0  0  0  0
   -1.5871   -1.3717   -0.1127 N   0  0  0  0  0  0  0  0  0  0  0  0
   -2.2252   -1.2870   -0.8982 H   0  0  0  0  0  0  0  0  0  0  0  0
   -0.2572   -0.7313   -0.2200 C   0  0  1  0  0  0  0  0  0  0  0  0
    0.4626   -1.5315   -0.4348 H   0  0  0  0  0  0  0  0  0  0  0  0
   -0.1660    0.2725   -1.3871 C   0  0  0  0  0  0  0  0  0  0  0  0
    0.8535    0.6739   -1.4354 H   0  0  0  0  0  0  0  0  0  0  0  0
   -0.3348   -0.2705   -2.3226 H   0  0  0  0  0  0  0  0  0  0  0  0
   -1.1446    1.4185   -1.2954 C   0  0  0  0  0  0  0  0  0  0  0  0
   -1.0125    2.4981   -0.4219 N   0  3  0  0  0  0  0  0  0  0  0  0
   -0.2903    2.5276    0.3086 H   0  0  0  0  0  0  0  0  0  0  0  0
   -1.9625    3.3756   -0.6304 C   0  0  0  0  0  0  0  0  0  0  0  0
   -2.1122    4.3087   -0.0833 H   0  0  0  0  0  0  0  0  0  0  0  0
   -2.7410    2.8933   -1.6811 N   0  0  0  0  0  0  0  0  0  0  0  0
   -3.5451    3.3748   -2.0962 H   0  0  0  0  0  0  0  0  0  0  0  0
   -2.2230    1.6735   -2.1057 C   0  0  0  0  0  0  0  0  0  0  0  0
   -2.5767    1.0587   -2.9337 H   0  0  0  0  0  0  0  0  0  0  0  0
    0.2527   -0.0925    1.0932 C   0  0  0  0  0  0  0  0  0  0  0  0
    1.4452    0.1592    1.1722 O   0  0  0  0  0  0  0  0  0  0  0  0
   -0.6010    0.6757    1.8695 N   0  0  0  0  0  0  0  0  0  0  0  0
   -1.5572    0.3265    1.8743 H   0  0  0  0  0  0  0  0  0  0  0  0
   -0.1312    1.3075    3.1026 C   0  0  0  0  0  0  0  0  0  0  0  0
    0.6593    2.0365    2.8928 H   0  0  0  0  0  0  0  0  0  0  0  0
   -0.9541    1.8281    3.6025 H   0  0  0  0  0  0  0  0  0  0  0  0
    0.2676    0.5528    3.7904 H   0  0  0  0  0  0  0  0  0  0  0  0
  1  2  1  0  0  0  0
  2  3  1  0  0  0  0
  2  4  1  0  0  0  0
  2  5  1  0  0  0  0
  5  6  2  0  0  0  0
  5  7  1  0  0  0  0
  7  8  1  0  0  0  0
  7  9  1  0  0  0  0
  9 10  1  0  0  0  0
  9 11  1  0  0  0  0
  9 23  1  0  0  0  0
 11 12  1  0  0  0  0
 11 13  1  0  0  0  0
 11 14  1  0  0  0  0
 14 15  1  0  0  0  0
 14 21  2  0  0  0  0
 15 16  1  0  0  0  0
 15 17  2  0  0  0  0
 17 18  1  0  0  0  0
 17 19  1  0  0  0  0
 19 20  1  0  0  0  0
 19 21  1  0  0  0  0
 21 22  1  0  0  0  0
 23 24  2  0  0  0  0
 23 25  1  0  0  0  0
 25 26  1  0  0  0  0
 25 27  1  0  0  0  0
 27 28  1  0  0  0  0
 27 29  1  0  0  0  0
 27 30  1  0  0  0  0
M  CHG  1  15   1
M  END
$$$$

  -OEChem-04042216003D

 30 30  0     1  0  0  0  0  0999 V2000
   -3.1351   -4.0335    1.3830 H   0  0  0  0  0  0  0  0  0  0  0  0
   -3.1186   -3.2438    0.6259 C   0  0  0  0  0  0  0  0  0  0  0  0
   -3.9972   -2.6093    0.7623 H   0  0  0  0  0  0  0  0  0  0  0  0
   -3.1602   -3.7088   -0.3619 H   0  0  0  0  0  0  0  0  0  0  0  0
   -1.8522   -2.4209    0.7641 C   0  0  0  0  0  0  0  0  0  0  0  0
   -1.0723   -2.6526    1.6683 O   0  0  0  0  0  0  0  0  0  0  0  0
   -1.5882   -1.3901   -0.1219 N   0  0  0  0  0  0  0  0  0  0  0  0
   -2.2078   -1.3462   -0.9247 H   0  0  0  0  0  0  0  0  0  0  0  0
   -0.2573   -0.7504   -0.2337 C   0  0  1  0  0  0  0  0  0  0  0  0
    0.4661   -1.5481   -0.4449 H   0  0  0  0  0  0  0  0  0  0  0  0
   -0.1650    0.2662   -1.3879 C   0  0  0  0  0  0  0  0  0  0  0  0
    0.8567    0.6600   -1.4479 H   0  0  0  0  0  0  0  0  0  0  0  0
   -0.3526   -0.2635   -2.3274 H   0  0  0  0  0  0  0  0  0  0  0  0
   -1.1417    1.4094   -1.2637 C   0  0  0  0  0  0  0  0  0  0  0  0
   -0.8528    2.6010   -0.5980 N   0  3  0  0  0  0  0  0  0  0  0  0
   -0.0024    2.7253   -0.0366 H   0  0  0  0  0  0  0  0  0  0  0  0
   -1.8433    3.4485   -0.7275 C   0  0  0  0  0  0  0  0  0  0  0  0
   -1.8992    4.4485   -0.2927 H   0  0  0  0  0  0  0  0  0  0  0  0
   -2.8079    2.8324   -1.5231 N   0  0  0  0  0  0  0  0  0  0  0  0
   -3.6892    3.2587   -1.8267 H   0  0  0  0  0  0  0  0  0  0  0  0
   -2.3630    1.5607   -1.8718 C   0  0  0  0  0  0  0  0  0  0  0  0
   -2.8625    0.8421   -2.5212 H   0  0  0  0  0  0  0  0  0  0  0  0
    0.2445   -0.0887    1.0718 C   0  0  0  0  0  0  0  0  0  0  0  0
    1.4388    0.1553    1.1602 O   0  0  0  0  0  0  0  0  0  0  0  0
   -0.6156    0.6915    1.8277 N   0  0  0  0  0  0  0  0  0  0  0  0
   -1.5772    0.3600    1.8165 H   0  0  0  0  0  0  0  0  0  0  0  0
   -0.1613    1.3507    3.0514 C   0  0  0  0  0  0  0  0  0  0  0  0
    0.6245    2.0816    2.8325 H   0  0  0  0  0  0  0  0  0  0  0  0
   -0.9926    1.8743    3.5338 H   0  0  0  0  0  0  0  0  0  0  0  0
    0.2372    0.6129    3.7572 H   0  0  0  0  0  0  0  0  0  0  0  0
  1  2  1  0  0  0  0
  2  3  1  0  0  0  0
  2  4  1  0  0  0  0
  2  5  1  0  0  0  0
  5  6  2  0  0  0  0
  5  7  1  0  0  0  0
  7  8  1  0  0  0  0
  7  9  1  0  0  0  0
  9 10  1  0  0  0  0
  9 11  1  0  0  0  0
  9 23  1  0  0  0  0
 11 12  1  0  0  0  0
 11 13  1  0  0  0  0
 11 14  1  0  0  0  0
 14 15  1  0  0  0  0
 14 21  2  0  0  0  0
 15 16  1  0  0  0  0
 15 17  2  0  0  0  0
 17 18  1  0  0  0  0
 17 19  1  0  0  0  0
 19 20  1  0  0  0  0
 19 21  1  0  0  0  0
 21 22  1  0  0  0  0
 23 24  2  0  0  0  0
 23 25  1  0  0  0  0
 25 26  1  0  0  0  0
 25 27  1  0  0  0  0
 27 28  1  0  0  0  0
 27 29  1  0  0  0  0
 27 30  1  0  0  0  0
M  CHG  1  15   1
M  END
$$$$

  -OEChem-04042216003D

 30 30  0     1  0  0  0  0  0999 V2000
   -3.1329   -4.0443    1.3838 H   0  0  0  0  0  0  0  0  0  0  0  0
   -3.1111   -3.2685    0.6123 C   0  0  0  0  0  0  0  0  0  0  0  0
   -4.0061   -2.6503    0.7138 H   0  0  0  0  0  0  0  0  0  0  0  0
   -3.1157   -3.7522   -0.3674 H   0  0  0  0  0  0  0  0  0  0  0  0
   -1.8655   -2.4173    0.7697 C   0  0  0  0  0  0  0  0  0  0  0  0
   -1.1106   -2.6147    1.7026 O   0  0  0  0  0  0  0  0  0  0  0  0
   -1.5983   -1.3978   -0.1291 N   0  0  0  0  0  0  0  0  0  0  0  0
   -2.1761   -1.4173   -0.9629 H   0  0  0  0  0  0  0  0  0  0  0  0
   -0.2631   -0.7654   -0.2379 C   0  0  1  0  0  0  0  0  0  0  0  0
    0.4598   -1.5637   -0.4482 H   0  0  0  0  0  0  0  0  0  0  0  0
   -0.1659    0.2642   -1.3812 C   0  0  0  0  0  0  0  0  0  0  0  0
    0.8596    0.6476   -1.4416 H   0  0  0  0  0  0  0  0  0  0  0  0
   -0.3636   -0.2515   -2.3264 H   0  0  0  0  0  0  0  0  0  0  0  0
   -1.1350    1.4144   -1.2414 C   0  0  0  0  0  0  0  0  0  0  0  0
   -0.7521    2.6939   -0.8370 N   0  3  0  0  0  0  0  0  0  0  0  0
    0.1897    2.9044   -0.4898 H   0  0  0  0  0  0  0  0  0  0  0  0
   -1.7760    3.5103   -0.8716 C   0  0  0  0  0  0  0  0  0  0  0  0
   -1.7738    4.5628   -0.5798 H   0  0  0  0  0  0  0  0  0  0  0  0
   -2.8650    2.7818   -1.3461 N   0  0  0  0  0  0  0  0  0  0  0  0
   -3.8059    3.1549   -1.5066 H   0  0  0  0  0  0  0  0  0  0  0  0
   -2.4616    1.4731   -1.5915 C   0  0  0  0  0  0  0  0  0  0  0  0
   -3.0657    0.6645   -2.0003 H   0  0  0  0  0  0  0  0  0  0  0  0
    0.2384   -0.0900    1.0610 C   0  0  0  0  0  0  0  0  0  0  0  0
    1.4384    0.1204    1.1630 O   0  0  0  0  0  0  0  0  0  0  0  0
   -0.6169    0.7057    1.8053 N   0  0  0  0  0  0  0  0  0  0  0  0
   -1.5846    0.3944    1.7879 H   0  0  0  0  0  0  0  0  0  0  0  0
   -0.1598    1.3856    3.0158 C   0  0  0  0  0  0  0  0  0  0  0  0
    0.6346    2.1026    2.7825 H   0  0  0  0  0  0  0  0  0  0  0  0
   -0.9861    1.9295    3.4837 H   0  0  0  0  0  0  0  0  0  0  0  0
    0.2288    0.6590    3.7385 H   0  0  0  0  0  0  0  0  0  0  0  0
  1  2  1  0  0  0  0
  2  3  1  0  0  0  0
  2  4  1  0  0  0  0
  2  5  1  0  0  0  0
  5  6  2  0  0  0  0
  5  7  1  0  0  0  0
  7  8  1  0  0  0  0
  7  9  1  0  0  0  0
  9 10  1  0  0  0  0
  9 11  1  0  0  0  0
  9 23  1  0  0  0  0
 11 12  1  0  0  0  0
 11 13  1  0  0  0  0
 11 14  1  0  0  0  0
 14 15  1  0  0  0  0
 14 21  2  0  0  0  0
 15 16  1  0  0  0  0
 15 17  2  0  0  0  0
 17 18  1  0  0  0  0
 17 19  1  0  0  0  0
 19 20  1  0  0  0  0
 19 21  1  0  0  0  0
 21 22  1  0  0  0  0
 23 24  2  0  0  0  0
 23 25  1  0  0  0  0
 25 26  1  0  0  0  0
 25 27  1  0  0  0  0
 27 28  1  0  0  0  0
 27 29  1  0  0  0  0
 27 30  1  0  0  0  0
M  CHG  1  15   1
M  END
$$$$

  -OEChem-04042216003D

 30 30  0     1  0  0  0  0  0999 V2000
   -3.1175   -4.0768    1.3652 H   0  0  0  0  0  0  0  0  0  0  0  0
   -3.0944   -3.3092    0.5857 C   0  0  0  0  0  0  0  0  0  0  0  0
   -4.0095   -2.7162    0.6522 H   0  0  0  0  0  0  0  0  0  0  0  0
   -3.0548   -3.8041   -0.3878 H   0  0  0  0  0  0  0  0  0  0  0  0
   -1.8796   -2.4200    0.7706 C   0  0  0  0  0  0  0  0  0  0  0  0
   -1.1491   -2.5858    1.7284 O   0  0  0  0  0  0  0  0  0  0  0  0
   -1.6153   -1.4038   -0.1334 N   0  0  0  0  0  0  0  0  0  0  0  0
   -2.1546   -1.4761   -0.9905 H   0  0  0  0  0  0  0  0  0  0  0  0
   -0.2776   -0.7737   -0.2368 C   0  0  1  0  0  0  0  0  0  0  0  0
    0.4446   -1.5726   -0.4465 H   0  0  0  0  0  0  0  0  0  0  0  0
   -0.1753    0.2635   -1.3746 C   0  0  0  0  0  0  0  0  0  0  0  0
    0.8544    0.6383   -1.4180 H   0  0  0  0  0  0  0  0  0  0  0  0
   -0.3632   -0.2439   -2.3262 H   0  0  0  0  0  0  0  0  0  0  0  0
   -1.1328    1.4294   -1.2517 C   0  0  0  0  0  0  0  0  0  0  0  0
   -0.7097    2.7562   -1.1521 N   0  3  0  0  0  0  0  0  0  0  0  0
    0.2785    3.0181   -1.0801 H   0  0  0  0  0  0  0  0  0  0  0  0
   -1.7393    3.5620   -1.0677 C   0  0  0  0  0  0  0  0  0  0  0  0
   -1.7035    4.6473   -0.9524 H   0  0  0  0  0  0  0  0  0  0  0  0
   -2.8844    2.7730   -1.1419 N   0  0  0  0  0  0  0  0  0  0  0  0
   -3.8487    3.1190   -1.1110 H   0  0  0  0  0  0  0  0  0  0  0  0
   -2.5068    1.4395   -1.2590 C   0  0  0  0  0  0  0  0  0  0  0  0
   -3.1661    0.5777   -1.3419 H   0  0  0  0  0  0  0  0  0  0  0  0
    0.2255   -0.0934    1.0588 C   0  0  0  0  0  0  0  0  0  0  0  0
    1.4290    0.0901    1.1709 O   0  0  0  0  0  0  0  0  0  0  0  0
   -0.6253    0.7096    1.7998 N   0  0  0  0  0  0  0  0  0  0  0  0
   -1.5945    0.4051    1.7875 H   0  0  0  0  0  0  0  0  0  0  0  0
   -0.1614    1.4079    2.9965 C   0  0  0  0  0  0  0  0  0  0  0  0
    0.6386    2.1136    2.7483 H   0  0  0  0  0  0  0  0  0  0  0  0
   -0.9824    1.9683    3.4540 H   0  0  0  0  0  0  0  0  0  0  0  0
    0.2219    0.6921    3.7325 H   0  0  0  0  0  0  0  0  0  0  0  0
  1  2  1  0  0  0  0
  2  3  1  0  0  0  0
  2  4  1  0  0  0  0
  2  5  1  0  0  0  0
  5  6  2  0  0  0  0
  5  7  1  0  0  0  0
  7  8  1  0  0  0  0
  7  9  1  0  0  0  0
  9 10  1  0  0  0  0
  9 11  1  0  0  0  0
  9 23  1  0  0  0  0
 11 12  1  0  0  0  0
 11 13  1  0  0  0  0
 11 14  1  0  0  0  0
 14 15  1  0  0  0  0
 14 21  2  0  0  0  0
 15 16  1  0  0  0  0
 15 17  2  0  0  0  0
 17 18  1  0  0  0  0
 17 19  1  0  0  0  0
 19 20  1  0  0  0  0
 19 21  1  0  0  0  0
 21 22  1  0  0  0  0
 23 24  2  0  0  0  0
 23 25  1  0  0  0  0
 25 26  1  0  0  0  0
 25 27  1  0  0  0  0
 27 28  1  0  0  0  0
 27 29  1  0  0  0  0
 27 30  1  0  0  0  0
M  CHG  1  15   1
M  END
$$$$

  -OEChem-04042216003D

 30 30  0     1  0  0  0  0  0999 V2000
   -3.0815   -4.1473    1.3073 H   0  0  0  0  0  0  0  0  0  0  0  0
   -3.0769   -3.3572    0.5501 C   0  0  0  0  0  0  0  0  0  0  0  0
   -4.0097   -2.7939    0.6270 H   0  0  0  0  0  0  0  0  0  0  0  0
   -3.0177   -3.8232   -0.4365 H   0  0  0  0  0  0  0  0  0  0  0  0
   -1.8899   -2.4380    0.7671 C   0  0  0  0  0  0  0  0  0  0  0  0
   -1.1786   -2.5866    1.7418 O   0  0  0  0  0  0  0  0  0  0  0  0
   -1.6324   -1.4105   -0.1258 N   0  0  0  0  0  0  0  0  0  0  0  0
   -2.1596   -1.4899   -0.9911 H   0  0  0  0  0  0  0  0  0  0  0  0
   -0.2978   -0.7723   -0.2221 C   0  0  1  0  0  0  0  0  0  0  0  0
    0.4259   -1.5685   -0.4367 H   0  0  0  0  0  0  0  0  0  0  0  0
   -0.2002    0.2654   -1.3617 C   0  0  0  0  0  0  0  0  0  0  0  0
    0.8287    0.6441   -1.3820 H   0  0  0  0  0  0  0  0  0  0  0  0
   -0.3648   -0.2446   -2.3163 H   0  0  0  0  0  0  0  0  0  0  0  0
   -1.1551    1.4403   -1.2741 C   0  0  0  0  0  0  0  0  0  0  0  0
   -0.7545    2.7596   -1.4987 N   0  3  0  0  0  0  0  0  0  0  0  0
    0.2128    3.0154   -1.7186 H   0  0  0  0  0  0  0  0  0  0  0  0
   -1.7541    3.5857   -1.3124 C   0  0  0  0  0  0  0  0  0  0  0  0
   -1.7205    4.6738   -1.3997 H   0  0  0  0  0  0  0  0  0  0  0  0
   -2.8617    2.8167   -0.9679 N   0  0  0  0  0  0  0  0  0  0  0  0
   -3.7947    3.1803   -0.7497 H   0  0  0  0  0  0  0  0  0  0  0  0
   -2.4868    1.4783   -0.9329 C   0  0  0  0  0  0  0  0  0  0  0  0
   -3.1183    0.6324   -0.6699 H   0  0  0  0  0  0  0  0  0  0  0  0
    0.2136   -0.1003    1.0750 C   0  0  0  0  0  0  0  0  0  0  0  0
    1.4194    0.0711    1.1817 O   0  0  0  0  0  0  0  0  0  0  0  0
   -0.6296    0.6958    1.8319 N   0  0  0  0  0  0  0  0  0  0  0  0
   -1.5935    0.3766    1.8486 H   0  0  0  0  0  0  0  0  0  0  0  0
   -0.1453    1.4128    3.0096 C   0  0  0  0  0  0  0  0  0  0  0  0
    0.6490    2.1157    2.7358 H   0  0  0  0  0  0  0  0  0  0  0  0
   -0.9587    1.9795    3.4727 H   0  0  0  0  0  0  0  0  0  0  0  0
    0.2523    0.7091    3.7494 H   0  0  0  0  0  0  0  0  0  0  0  0
  1  2  1  0  0  0  0
  2  3  1  0  0  0  0
  2  4  1  0  0  0  0
  2  5  1  0  0  0  0
  5  6  2  0  0  0  0
  5  7  1  0  0  0  0
  7  8  1  0  0  0  0
  7  9  1  0  0  0  0
  9 10  1  0  0  0  0
  9 11  1  0  0  0  0
  9 23  1  0  0  0  0
 11 12  1  0  0  0  0
 11 13  1  0  0  0  0
 11 14  1  0  0  0  0
 14 15  1  0  0  0  0
 14 21  2  0  0  0  0
 15 16  1  0  0  0  0
 15 17  2  0  0  0  0
 17 18  1  0  0  0  0
 17 19  1  0  0  0  0
 19 20  1  0  0  0  0
 19 21  1  0  0  0  0
 21 22  1  0  0  0  0
 23 24  2  0  0  0  0
 23 25  1  0  0  0  0
 25 26  1  0  0  0  0
 25 27  1  0  0  0  0
 27 28  1  0  0  0  0
 27 29  1  0  0  0  0
 27 30  1  0  0  0  0
M  CHG  1  15   1
M  END
$$$$

  -OEChem-04042216003D

 30 30  0     1  0  0  0  0  0999 V2000
   -3.0750   -4.1731    1.2751 H   0  0  0  0  0  0  0  0  0  0  0  0
   -3.0795   -3.3652    0.5371 C   0  0  0  0  0  0  0  0  0  0  0  0
   -4.0083   -2.7999    0.6431 H   0  0  0  0  0  0  0  0  0  0  0  0
   -3.0388   -3.8070   -0.4614 H   0  0  0  0  0  0  0  0  0  0  0  0
   -1.8847   -2.4572    0.7565 C   0  0  0  0  0  0  0  0  0  0  0  0
   -1.1592   -2.6306    1.7166 O   0  0  0  0  0  0  0  0  0  0  0  0
   -1.6389   -1.4048   -0.1097 N   0  0  0  0  0  0  0  0  0  0  0  0
   -2.1888   -1.4432   -0.9641 H   0  0  0  0  0  0  0  0  0  0  0  0
   -0.3095   -0.7554   -0.2010 C   0  0  1  0  0  0  0  0  0  0  0  0
    0.4137   -1.5488   -0.4288 H   0  0  0  0  0  0  0  0  0  0  0  0
   -0.2200    0.2801   -1.3437 C   0  0  0  0  0  0  0  0  0  0  0  0
    0.8051    0.6695   -1.3536 H   0  0  0  0  0  0  0  0  0  0  0  0
   -0.3693   -0.2382   -2.2964 H   0  0  0  0  0  0  0  0  0  0  0  0
   -1.1792    1.4542   -1.2840 C   0  0  0  0  0  0  0  0  0  0  0  0
   -0.8706    2.7115   -1.8103 N   0  3  0  0  0  0  0  0  0  0  0  0
    0.0223    2.9173   -2.2680 H   0  0  0  0  0  0  0  0  0  0  0  0
   -1.8367    3.5647   -1.5738 C   0  0  0  0  0  0  0  0  0  0  0  0
   -1.8538    4.6197   -1.8558 H   0  0  0  0  0  0  0  0  0  0  0  0
   -2.8282    2.8772   -0.8806 N   0  0  0  0  0  0  0  0  0  0  0  0
   -3.7041    3.2824   -0.5357 H   0  0  0  0  0  0  0  0  0  0  0  0
   -2.4141    1.5643   -0.6882 C   0  0  0  0  0  0  0  0  0  0  0  0
   -2.9495    0.7854   -0.1488 H   0  0  0  0  0  0  0  0  0  0  0  0
    0.2182   -0.1119    1.1035 C   0  0  0  0  0  0  0  0  0  0  0  0
    1.4252    0.0588    1.1946 O   0  0  0  0  0  0  0  0  0  0  0  0
   -0.6148    0.6620    1.8936 N   0  0  0  0  0  0  0  0  0  0  0  0
   -1.5665    0.3130    1.9489 H   0  0  0  0  0  0  0  0  0  0  0  0
   -0.1038    1.3759    3.0620 C   0  0  0  0  0  0  0  0  0  0  0  0
    0.6504    2.1129    2.7654 H   0  0  0  0  0  0  0  0  0  0  0  0
   -0.9158    1.9032    3.5723 H   0  0  0  0  0  0  0  0  0  0  0  0
    0.3533    0.6751    3.7699 H   0  0  0  0  0  0  0  0  0  0  0  0
  1  2  1  0  0  0  0
  2  3  1  0  0  0  0
  2  4  1  0  0  0  0
  2  5  1  0  0  0  0
  5  6  2  0  0  0  0
  5  7  1  0  0  0  0
  7  8  1  0  0  0  0
  7  9  1  0  0  0  0
  9 10  1  0  0  0  0
  9 11  1  0  0  0  0
  9 23  1  0  0  0  0
 11 12  1  0  0  0  0
 11 13  1  0  0  0  0
 11 14  1  0  0  0  0
 14 15  1  0  0  0  0
 14 21  2  0  0  0  0
 15 16  1  0  0  0  0
 15 17  2  0  0  0  0
 17 18  1  0  0  0  0
 17 19  1  0  0  0  0
 19 20  1  0  0  0  0
 19 21  1  0  0  0  0
 21 22  1  0  0  0  0
 23 24  2  0  0  0  0
 23 25  1  0  0  0  0
 25 26  1  0  0  0  0
 25 27  1  0  0  0  0
 27 28  1  0  0  0  0
 27 29  1  0  0  0  0
 27 30  1  0  0  0  0
M  CHG  1  15   1
M  END
$$$$

  -OEChem-04042216003D

 30 30  0     1  0  0  0  0  0999 V2000
   -3.0899   -4.1797    1.2350 H   0  0  0  0  0  0  0  0  0  0  0  0
   -3.0957   -3.3520    0.5192 C   0  0  0  0  0  0  0  0  0  0  0  0
   -4.0172   -2.7807    0.6525 H   0  0  0  0  0  0  0  0  0  0  0  0
   -3.0721   -3.7668   -0.4914 H   0  0  0  0  0  0  0  0  0  0  0  0
   -1.8892   -2.4614    0.7465 C   0  0  0  0  0  0  0  0  0  0  0  0
   -1.1497   -2.6670    1.6895 O   0  0  0  0  0  0  0  0  0  0  0  0
   -1.6484   -1.3836   -0.0888 N   0  0  0  0  0  0  0  0  0  0  0  0
   -2.2241   -1.3720   -0.9269 H   0  0  0  0  0  0  0  0  0  0  0  0
   -0.3206   -0.7314   -0.1742 C   0  0  1  0  0  0  0  0  0  0  0  0
    0.3952   -1.5275   -0.4152 H   0  0  0  0  0  0  0  0  0  0  0  0
   -0.2282    0.2986   -1.3221 C   0  0  0  0  0  0  0  0  0  0  0  0
    0.7952    0.6928   -1.3305 H   0  0  0  0  0  0  0  0  0  0  0  0
   -0.3712   -0.2311   -2.2695 H   0  0  0  0  0  0  0  0  0  0  0  0
   -1.1900    1.4708   -1.2822 C   0  0  0  0  0  0  0  0  0  0  0  0
   -1.0268    2.6185   -2.0625 N   0  3  0  0  0  0  0  0  0  0  0  0
   -0.2383    2.7467   -2.7032 H   0  0  0  0  0  0  0  0  0  0  0  0
   -1.9662    3.4946   -1.8014 C   0  0  0  0  0  0  0  0  0  0  0  0
   -2.0715    4.4858   -2.2477 H   0  0  0  0  0  0  0  0  0  0  0  0
   -2.7958    2.9305   -0.8370 N   0  0  0  0  0  0  0  0  0  0  0  0
   -3.6103    3.3839   -0.4110 H   0  0  0  0  0  0  0  0  0  0  0  0
   -2.3083    1.6714   -0.5080 C   0  0  0  0  0  0  0  0  0  0  0  0
   -2.7146    0.9867    0.2340 H   0  0  0  0  0  0  0  0  0  0  0  0
    0.2310   -0.1225    1.1375 C   0  0  0  0  0  0  0  0  0  0  0  0
    1.4394    0.0503    1.2022 O   0  0  0  0  0  0  0  0  0  0  0  0
   -0.5825    0.6319    1.9664 N   0  0  0  0  0  0  0  0  0  0  0  0
   -1.5168    0.2484    2.0712 H   0  0  0  0  0  0  0  0  0  0  0  0
   -0.0339    1.3395    3.1221 C   0  0  0  0  0  0  0  0  0  0  0  0
    0.7006    2.0877    2.8044 H   0  0  0  0  0  0  0  0  0  0  0  0
   -0.8302    1.8531    3.6694 H   0  0  0  0  0  0  0  0  0  0  0  0
    0.4576    0.6370    3.8045 H   0  0  0  0  0  0  0  0  0  0  0  0
  1  2  1  0  0  0  0
  2  3  1  0  0  0  0
  2  4  1  0  0  0  0
  2  5  1  0  0  0  0
  5  6  2  0  0  0  0
  5  7  1  0  0  0  0
  7  8  1  0  0  0  0
  7  9  1  0  0  0  0
  9 10  1  0  0  0  0
  9 11  1  0  0  0  0
  9 23  1  0  0  0  0
 11 12  1  0  0  0  0
 11 13  1  0  0  0  0
 11 14  1  0  0  0  0
 14 15  1  0  0  0  0
 14 21  2  0  0  0  0
 15 16  1  0  0  0  0
 15 17  2  0  0  0  0
 17 18  1  0  0  0  0
 17 19  1  0  0  0  0
 19 20  1  0  0  0  0
 19 21  1  0  0  0  0
 21 22  1  0  0  0  0
 23 24  2  0  0  0  0
 23 25  1  0  0  0  0
 25 26  1  0  0  0  0
 25 27  1  0  0  0  0
 27 28  1  0  0  0  0
 27 29  1  0  0  0  0
 27 30  1  0  0  0  0
M  CHG  1  15   1
M  END
$$$$

  -OEChem-04042216003D

 30 30  0     1  0  0  0  0  0999 V2000
   -3.1576   -4.1361    1.1246 H   0  0  0  0  0  0  0  0  0  0  0  0
   -3.1631   -3.2534    0.4778 C   0  0  0  0  0  0  0  0  0  0  0  0
   -4.0392   -2.6473    0.7199 H   0  0  0  0  0  0  0  0  0  0  0  0
   -3.2303   -3.5838   -0.5616 H   0  0  0  0  0  0  0  0  0  0  0  0
   -1.8951   -2.4487    0.6890 C   0  0  0  0  0  0  0  0  0  0  0  0
   -1.0842   -2.7939    1.5275 O   0  0  0  0  0  0  0  0  0  0  0  0
   -1.6663   -1.2949   -0.0402 N   0  0  0  0  0  0  0  0  0  0  0  0
   -2.3260   -1.1191   -0.7934 H   0  0  0  0  0  0  0  0  0  0  0  0
   -0.3444   -0.6340   -0.0997 C   0  0  1  0  0  0  0  0  0  0  0  0
    0.3423   -1.4472   -0.3693 H   0  0  0  0  0  0  0  0  0  0  0  0
   -0.2070    0.3653   -1.2697 C   0  0  0  0  0  0  0  0  0  0  0  0
    0.8641    0.5647   -1.3948 H   0  0  0  0  0  0  0  0  0  0  0  0
   -0.5475   -0.1336   -2.1828 H   0  0  0  0  0  0  0  0  0  0  0  0
   -0.9061    1.7062   -1.1645 C   0  0  0  0  0  0  0  0  0  0  0  0
   -0.8346    2.6722   -2.1726 N   0  3  0  0  0  0  0  0  0  0  0  0
   -0.2527    2.5601   -3.0077 H   0  0  0  0  0  0  0  0  0  0  0  0
   -1.5294    3.7352   -1.8493 C   0  0  0  0  0  0  0  0  0  0  0  0
   -1.6224    4.6530   -2.4335 H   0  0  0  0  0  0  0  0  0  0  0  0
   -2.1172    3.4782   -0.6152 N   0  0  0  0  0  0  0  0  0  0  0  0
   -2.7126    4.1262   -0.0901 H   0  0  0  0  0  0  0  0  0  0  0  0
   -1.7387    2.2094   -0.1938 C   0  0  0  0  0  0  0  0  0  0  0  0
   -2.0449    1.7168    0.7253 H   0  0  0  0  0  0  0  0  0  0  0  0
    0.2672   -0.1429    1.2338 C   0  0  0  0  0  0  0  0  0  0  0  0
    1.4762    0.0368    1.2472 O   0  0  0  0  0  0  0  0  0  0  0  0
   -0.4969    0.5339    2.1697 N   0  0  0  0  0  0  0  0  0  0  0  0
   -1.4265    0.1394    2.2893 H   0  0  0  0  0  0  0  0  0  0  0  0
    0.1170    1.1270    3.3575 C   0  0  0  0  0  0  0  0  0  0  0  0
    0.8372    1.9026    3.0749 H   0  0  0  0  0  0  0  0  0  0  0  0
   -0.6459    1.5849    3.9945 H   0  0  0  0  0  0  0  0  0  0  0  0
    0.6414    0.3621    3.9413 H   0  0  0  0  0  0  0  0  0  0  0  0
  1  2  1  0  0  0  0
  2  3  1  0  0  0  0
  2  4  1  0  0  0  0
  2  5  1  0  0  0  0
  5  6  2  0  0  0  0
  5  7  1  0  0  0  0
  7  8  1  0  0  0  0
  7  9  1  0  0  0  0
  9 10  1  0  0  0  0
  9 11  1  0  0  0  0
  9 23  1  0  0  0  0
 11 12  1  0  0  0  0
 11 13  1  0  0  0  0
 11 14  1  0  0  0  0
 14 15  1  0  0  0  0
 14 21  2  0  0  0  0
 15 16  1  0  0  0  0
 15 17  2  0  0  0  0
 17 18  1  0  0  0  0
 17 19  1  0  0  0  0
 19 20  1  0  0  0  0
 19 21  1  0  0  0  0
 21 22  1  0  0  0  0
 23 24  2  0  0  0  0
 23 25  1  0  0  0  0
 25 26  1  0  0  0  0
 25 27  1  0  0  0  0
 27 28  1  0  0  0  0
 27 29  1  0  0  0  0
 27 30  1  0  0  0  0
M  CHG  1  15   1
M  END
$$$$

  -OEChem-04042216003D

 30 30  0     1  0  0  0  0  0999 V2000
   -3.1404   -4.1278    1.1174 H   0  0  0  0  0  0  0  0  0  0  0  0
   -3.1576   -3.2263    0.4974 C   0  0  0  0  0  0  0  0  0  0  0  0
   -4.0022   -2.6056    0.8055 H   0  0  0  0  0  0  0  0  0  0  0  0
   -3.2904   -3.5233   -0.5456 H   0  0  0  0  0  0  0  0  0  0  0  0
   -1.8592   -2.4599    0.6608 C   0  0  0  0  0  0  0  0  0  0  0  0
   -1.0021   -2.8644    1.4235 O   0  0  0  0  0  0  0  0  0  0  0  0
   -1.6520   -1.2771   -0.0272 N   0  0  0  0  0  0  0  0  0  0  0  0
   -2.3647   -1.0289   -0.7077 H   0  0  0  0  0  0  0  0  0  0  0  0
   -0.3411   -0.5966   -0.0931 C   0  0  1  0  0  0  0  0  0  0  0  0
    0.3477   -1.4000   -0.3858 H   0  0  0  0  0  0  0  0  0  0  0  0
   -0.2234    0.4062   -1.2634 C   0  0  0  0  0  0  0  0  0  0  0  0
    0.8446    0.6129   -1.4033 H   0  0  0  0  0  0  0  0  0  0  0  0
   -0.5679   -0.1090   -2.1657 H   0  0  0  0  0  0  0  0  0  0  0  0
   -0.9299    1.7467   -1.1845 C   0  0  0  0  0  0  0  0  0  0  0  0
   -1.1134    2.5518   -2.3135 N   0  3  0  0  0  0  0  0  0  0  0  0
   -0.7449    2.3047   -3.2362 H   0  0  0  0  0  0  0  0  0  0  0  0
   -1.7337    3.6632   -2.0015 C   0  0  0  0  0  0  0  0  0  0  0  0
   -1.9809    4.4829   -2.6796 H   0  0  0  0  0  0  0  0  0  0  0  0
   -2.0050    3.6077   -0.6391 N   0  0  0  0  0  0  0  0  0  0  0  0
   -2.4642    4.3413   -0.0900 H   0  0  0  0  0  0  0  0  0  0  0  0
   -1.5081    2.4142   -0.1307 C   0  0  0  0  0  0  0  0  0  0  0  0
   -1.5574    2.0975    0.9060 H   0  0  0  0  0  0  0  0  0  0  0  0
    0.2846   -0.1514    1.2482 C   0  0  0  0  0  0  0  0  0  0  0  0
    1.4912    0.0418    1.2569 O   0  0  0  0  0  0  0  0  0  0  0  0
   -0.4753    0.4746    2.2214 N   0  0  0  0  0  0  0  0  0  0  0  0
   -1.4156    0.0960    2.3069 H   0  0  0  0  0  0  0  0  0  0  0  0
    0.1405    0.9823    3.4470 C   0  0  0  0  0  0  0  0  0  0  0  0
    0.8535    1.7822    3.2193 H   0  0  0  0  0  0  0  0  0  0  0  0
   -0.6228    1.3844    4.1203 H   0  0  0  0  0  0  0  0  0  0  0  0
    0.6737    0.1796    3.9693 H   0  0  0  0  0  0  0  0  0  0  0  0
  1  2  1  0  0  0  0
  2  3  1  0  0  0  0
  2  4  1  0  0  0  0
  2  5  1  0  0  0  0
  5  6  2  0  0  0  0
  5  7  1  0  0  0  0
  7  8  1  0  0  0  0
  7  9  1  0  0  0  0
  9 10  1  0  0  0  0
  9 11  1  0  0  0  0
  9 23  1  0  0  0  0
 11 12  1  0  0  0  0
 11 13  1  0  0  0  0
 11 14  1  0  0  0  0
 14 15  1  0  0  0  0
 14 21  2  0  0  0  0
 15 16  1  0  0  0  0
 15 17  2  0  0  0  0
 17 18  1  0  0  0  0
 17 19  1  0  0  0  0
 19 20  1  0  0  0  0
 19 21  1  0  0  0  0
 21 22  1  0  0  0  0
 23 24  2  0  0  0  0
 23 25  1  0  0  0  0
 25 26  1  0  0  0  0
 25 27  1  0  0  0  0
 27 28  1  0  0  0  0
 27 29  1  0  0  0  0
 27 30  1  0  0  0  0
M  CHG  1  15   1
M  END
$$$$

  -OEChem-04042216003D

 30 30  0     1  0  0  0  0  0999 V2000
   -3.1373   -4.0935    1.1966 H   0  0  0  0  0  0  0  0  0  0  0  0
   -3.1508   -3.2062    0.5564 C   0  0  0  0  0  0  0  0  0  0  0  0
   -3.9725   -2.5594    0.8726 H   0  0  0  0  0  0  0  0  0  0  0  0
   -3.3187   -3.5234   -0.4756 H   0  0  0  0  0  0  0  0  0  0  0  0
   -1.8305   -2.4679    0.6660 C   0  0  0  0  0  0  0  0  0  0  0  0
   -0.9540   -2.8892    1.3968 O   0  0  0  0  0  0  0  0  0  0  0  0
   -1.6206   -1.2979   -0.0430 N   0  0  0  0  0  0  0  0  0  0  0  0
   -2.3621   -1.0176   -0.6783 H   0  0  0  0  0  0  0  0  0  0  0  0
   -0.3131   -0.6109   -0.1173 C   0  0  1  0  0  0  0  0  0  0  0  0
    0.3912   -1.4040   -0.4008 H   0  0  0  0  0  0  0  0  0  0  0  0
   -0.2200    0.3916   -1.2923 C   0  0  0  0  0  0  0  0  0  0  0  0
    0.8434    0.6089   -1.4501 H   0  0  0  0  0  0  0  0  0  0  0  0
   -0.5707   -0.1299   -2.1884 H   0  0  0  0  0  0  0  0  0  0  0  0
   -0.9373    1.7258   -1.2016 C   0  0  0  0  0  0  0  0  0  0  0  0
   -1.4317    2.4011   -2.3229 N   0  3  0  0  0  0  0  0  0  0  0  0
   -1.3698    2.0216   -3.2715 H   0  0  0  0  0  0  0  0  0  0  0  0
   -1.9089    3.5758   -1.9902 C   0  0  0  0  0  0  0  0  0  0  0  0
   -2.3422    4.3178   -2.6644 H   0  0  0  0  0  0  0  0  0  0  0  0
   -1.7353    3.7115   -0.6175 N   0  0  0  0  0  0  0  0  0  0  0  0
   -1.9657    4.5431   -0.0642 H   0  0  0  0  0  0  0  0  0  0  0  0
   -1.1056    2.5731   -0.1317 C   0  0  0  0  0  0  0  0  0  0  0  0
   -0.7541    2.4265    0.8864 H   0  0  0  0  0  0  0  0  0  0  0  0
    0.2674   -0.1513    1.2378 C   0  0  0  0  0  0  0  0  0  0  0  0
    1.4690    0.0627    1.2889 O   0  0  0  0  0  0  0  0  0  0  0  0
   -0.5367    0.4741    2.1762 N   0  0  0  0  0  0  0  0  0  0  0  0
   -1.4960    0.1359    2.1862 H   0  0  0  0  0  0  0  0  0  0  0  0
    0.0120    0.9431    3.4483 C   0  0  0  0  0  0  0  0  0  0  0  0
    0.7564    1.7300    3.2848 H   0  0  0  0  0  0  0  0  0  0  0  0
   -0.7834    1.3494    4.0809 H   0  0  0  0  0  0  0  0  0  0  0  0
    0.4923    0.1172    3.9854 H   0  0  0  0  0  0  0  0  0  0  0  0
  1  2  1  0  0  0  0
  2  3  1  0  0  0  0
  2  4  1  0  0  0  0
  2  5  1  0  0  0  0
  5  6  2  0  0  0  0
  5  7  1  0  0  0  0
  7  8  1  0  0  0  0
  7  9  1  0  0  0  0
  9 10  1  0  0  0  0
  9 11  1  0  0  0  0
  9 23  1  0  0  0  0
 11 12  1  0  0  0  0
 11 13  1  0  0  0  0
 11 14  1  0  0  0  0
 14 15  1  0  0  0  0
 14 21  2  0  0  0  0
 15 16  1  0  0  0  0
 15 17  2  0  0  0  0
 17 18  1  0  0  0  0
 17 19  1  0  0  0  0
 19 20  1  0  0  0  0
 19 21  1  0  0  0  0
 21 22  1  0  0  0  0
 23 24  2  0  0  0  0
 23 25  1  0  0  0  0
 25 26  1  0  0  0  0
 25 27  1  0  0  0  0
 27 28  1  0  0  0  0
 27 29  1  0  0  0  0
 27 30  1  0  0  0  0
M  CHG  1  15   1
M  END
$$$$

  -OEChem-04042216003D

 30 30  0     1  0  0  0  0  0999 V2000
   -3.1378   -4.0730    1.2519 H   0  0  0  0  0  0  0  0  0  0  0  0
   -3.1407   -3.2080    0.5817 C   0  0  0  0  0  0  0  0  0  0  0  0
   -3.9683   -2.5519    0.8609 H   0  0  0  0  0  0  0  0  0  0  0  0
   -3.2900   -3.5608   -0.4414 H   0  0  0  0  0  0  0  0  0  0  0  0
   -1.8240   -2.4633    0.6897 C   0  0  0  0  0  0  0  0  0  0  0  0
   -0.9652   -2.8502    1.4595 O   0  0  0  0  0  0  0  0  0  0  0  0
   -1.5960   -1.3304   -0.0723 N   0  0  0  0  0  0  0  0  0  0  0  0
   -2.3195   -1.0884   -0.7422 H   0  0  0  0  0  0  0  0  0  0  0  0
   -0.2838   -0.6519   -0.1535 C   0  0  1  0  0  0  0  0  0  0  0  0
    0.4315   -1.4434   -0.4122 H   0  0  0  0  0  0  0  0  0  0  0  0
   -0.1988    0.3522   -1.3273 C   0  0  0  0  0  0  0  0  0  0  0  0
    0.8624    0.5792   -1.4852 H   0  0  0  0  0  0  0  0  0  0  0  0
   -0.5494   -0.1515   -2.2334 H   0  0  0  0  0  0  0  0  0  0  0  0
   -0.9240    1.6737   -1.1782 C   0  0  0  0  0  0  0  0  0  0  0  0
   -1.7224    2.2717   -2.1583 N   0  3  0  0  0  0  0  0  0  0  0  0
   -1.9456    1.8184   -3.0484 H   0  0  0  0  0  0  0  0  0  0  0  0
   -2.0764    3.4809   -1.7938 C   0  0  0  0  0  0  0  0  0  0  0  0
   -2.6914    4.1791   -2.3656 H   0  0  0  0  0  0  0  0  0  0  0  0
   -1.4976    3.7208   -0.5515 N   0  0  0  0  0  0  0  0  0  0  0  0
   -1.5523    4.5971   -0.0228 H   0  0  0  0  0  0  0  0  0  0  0  0
   -0.7492    2.6100   -0.1874 C   0  0  0  0  0  0  0  0  0  0  0  0
   -0.0978    2.5191    0.6837 H   0  0  0  0  0  0  0  0  0  0  0  0
    0.2538   -0.1344    1.1992 C   0  0  0  0  0  0  0  0  0  0  0  0
    1.4503    0.0996    1.2780 O   0  0  0  0  0  0  0  0  0  0  0  0
   -0.5848    0.5327    2.0776 N   0  0  0  0  0  0  0  0  0  0  0  0
   -1.5496    0.2126    2.0513 H   0  0  0  0  0  0  0  0  0  0  0  0
   -0.0911    1.0441    3.3556 C   0  0  0  0  0  0  0  0  0  0  0  0
    0.6799    1.8064    3.1992 H   0  0  0  0  0  0  0  0  0  0  0  0
   -0.9080    1.4952    3.9276 H   0  0  0  0  0  0  0  0  0  0  0  0
    0.3401    0.2316    3.9513 H   0  0  0  0  0  0  0  0  0  0  0  0
  1  2  1  0  0  0  0
  2  3  1  0  0  0  0
  2  4  1  0  0  0  0
  2  5  1  0  0  0  0
  5  6  2  0  0  0  0
  5  7  1  0  0  0  0
  7  8  1  0  0  0  0
  7  9  1  0  0  0  0
  9 10  1  0  0  0  0
  9 11  1  0  0  0  0
  9 23  1  0  0  0  0
 11 12  1  0  0  0  0
 11 13  1  0  0  0  0
 11 14  1  0  0  0  0
 14 15  1  0  0  0  0
 14 21  2  0  0  0  0
 15 16  1  0  0  0  0
 15 17  2  0  0  0  0
 17 18  1  0  0  0  0
 17 19  1  0  0  0  0
 19 20  1  0  0  0  0
 19 21  1  0  0  0  0
 21 22  1  0  0  0  0
 23 24  2  0  0  0  0
 23 25  1  0  0  0  0
 25 26  1  0  0  0  0
 25 27  1  0  0  0  0
 27 28  1  0  0  0  0
 27 29  1  0  0  0  0
 27 30  1  0  0  0  0
M  CHG  1  15   1
M  END
$$$$

  -OEChem-04042216003D

 30 30  0     1  0  0  0  0  0999 V2000
   -3.1549   -4.0510    1.2817 H   0  0  0  0  0  0  0  0  0  0  0  0
   -3.1441   -3.2089    0.5830 C   0  0  0  0  0  0  0  0  0  0  0  0
   -3.9861   -2.5525    0.8140 H   0  0  0  0  0  0  0  0  0  0  0  0
   -3.2573   -3.5972   -0.4320 H   0  0  0  0  0  0  0  0  0  0  0  0
   -1.8380   -2.4481    0.7074 C   0  0  0  0  0  0  0  0  0  0  0  0
   -1.0069   -2.7939    1.5255 O   0  0  0  0  0  0  0  0  0  0  0  0
   -1.5911   -1.3464   -0.0942 N   0  0  0  0  0  0  0  0  0  0  0  0
   -2.2750   -1.1687   -0.8227 H   0  0  0  0  0  0  0  0  0  0  0  0
   -0.2699   -0.6844   -0.1772 C   0  0  1  0  0  0  0  0  0  0  0  0
    0.4449   -1.4822   -0.4169 H   0  0  0  0  0  0  0  0  0  0  0  0
   -0.1730    0.3206   -1.3476 C   0  0  0  0  0  0  0  0  0  0  0  0
    0.8902    0.5428   -1.4999 H   0  0  0  0  0  0  0  0  0  0  0  0
   -0.5255   -0.1634   -2.2634 H   0  0  0  0  0  0  0  0  0  0  0  0
   -0.8919    1.6384   -1.1560 C   0  0  0  0  0  0  0  0  0  0  0  0
   -1.9226    2.1563   -1.9452 N   0  3  0  0  0  0  0  0  0  0  0  0
   -2.3377    1.6455   -2.7285 H   0  0  0  0  0  0  0  0  0  0  0  0
   -2.2125    3.3814   -1.5747 C   0  0  0  0  0  0  0  0  0  0  0  0
   -2.9667    4.0341   -2.0193 H   0  0  0  0  0  0  0  0  0  0  0  0
   -1.3613    3.7070   -0.5221 N   0  0  0  0  0  0  0  0  0  0  0  0
   -1.3242    4.6082   -0.0352 H   0  0  0  0  0  0  0  0  0  0  0  0
   -0.5178    2.6310   -0.2832 C   0  0  0  0  0  0  0  0  0  0  0  0
    0.3024    2.5769    0.4373 H   0  0  0  0  0  0  0  0  0  0  0  0
    0.2517   -0.1221    1.1647 C   0  0  0  0  0  0  0  0  0  0  0  0
    1.4484    0.1105    1.2522 O   0  0  0  0  0  0  0  0  0  0  0  0
   -0.5959    0.5863    2.0007 N   0  0  0  0  0  0  0  0  0  0  0  0
   -1.5634    0.2755    1.9697 H   0  0  0  0  0  0  0  0  0  0  0  0
   -0.1212    1.1587    3.2593 C   0  0  0  0  0  0  0  0  0  0  0  0
    0.6460    1.9184    3.0761 H   0  0  0  0  0  0  0  0  0  0  0  0
   -0.9480    1.6297    3.8000 H   0  0  0  0  0  0  0  0  0  0  0  0
    0.3082    0.3777    3.8972 H   0  0  0  0  0  0  0  0  0  0  0  0
  1  2  1  0  0  0  0
  2  3  1  0  0  0  0
  2  4  1  0  0  0  0
  2  5  1  0  0  0  0
  5  6  2  0  0  0  0
  5  7  1  0  0  0  0
  7  8  1  0  0  0  0
  7  9  1  0  0  0  0
  9 10  1  0  0  0  0
  9 11  1  0  0  0  0
  9 23  1  0  0  0  0
 11 12  1  0  0  0  0
 11 13  1  0  0  0  0
 11 14  1  0  0  0  0
 14 15  1  0  0  0  0
 14 21  2  0  0  0  0
 15 16  1  0  0  0  0
 15 17  2  0  0  0  0
 17 18  1  0  0  0  0
 17 19  1  0  0  0  0
 19 20  1  0  0  0  0
 19 21  1  0  0  0  0
 21 22  1  0  0  0  0
 23 24  2  0  0  0  0
 23 25  1  0  0  0  0
 25 26  1  0  0  0  0
 25 27  1  0  0  0  0
 27 28  1  0  0  0  0
 27 29  1  0  0  0  0
 27 30  1  0  0  0  0
M  CHG  1  15   1
M  END
$$$$

  -OEChem-04042216003D

 30 30  0     1  0  0  0  0  0999 V2000
   -3.1573   -4.0442    1.2939 H   0  0  0  0  0  0  0  0  0  0  0  0
   -3.1368   -3.2264    0.5670 C   0  0  0  0  0  0  0  0  0  0  0  0
   -4.0098   -2.5906    0.7310 H   0  0  0  0  0  0  0  0  0  0  0  0
   -3.1857   -3.6532   -0.4377 H   0  0  0  0  0  0  0  0  0  0  0  0
   -1.8631   -2.4195    0.7304 C   0  0  0  0  0  0  0  0  0  0  0  0
   -1.0714   -2.7045    1.6085 O   0  0  0  0  0  0  0  0  0  0  0  0
   -1.6029   -1.3479   -0.1073 N   0  0  0  0  0  0  0  0  0  0  0  0
   -2.2309   -1.2632   -0.8998 H   0  0  0  0  0  0  0  0  0  0  0  0
   -0.2716   -0.7058   -0.1941 C   0  0  1  0  0  0  0  0  0  0  0  0
    0.4380   -1.5128   -0.4171 H   0  0  0  0  0  0  0  0  0  0  0  0
   -0.1624    0.2955   -1.3647 C   0  0  0  0  0  0  0  0  0  0  0  0
    0.9029    0.5054   -1.5186 H   0  0  0  0  0  0  0  0  0  0  0  0
   -0.5250   -0.1740   -2.2841 H   0  0  0  0  0  0  0  0  0  0  0  0
   -0.8693    1.6139   -1.1445 C   0  0  0  0  0  0  0  0  0  0  0  0
   -2.0731    2.0518   -1.7016 N   0  3  0  0  0  0  0  0  0  0  0  0
   -2.6366    1.4825   -2.3373 H   0  0  0  0  0  0  0  0  0  0  0  0
   -2.3176    3.2897   -1.3401 C   0  0  0  0  0  0  0  0  0  0  0  0
   -3.1783    3.8946   -1.6328 H   0  0  0  0  0  0  0  0  0  0  0  0
   -1.2646    3.6997   -0.5255 N   0  0  0  0  0  0  0  0  0  0  0  0
   -1.1615    4.6239   -0.0946 H   0  0  0  0  0  0  0  0  0  0  0  0
   -0.3510    2.6603   -0.4220 C   0  0  0  0  0  0  0  0  0  0  0  0
    0.5950    2.6536    0.1260 H   0  0  0  0  0  0  0  0  0  0  0  0
    0.2474   -0.1044    1.1333 C   0  0  0  0  0  0  0  0  0  0  0  0
    1.4478    0.1089    1.2244 O   0  0  0  0  0  0  0  0  0  0  0  0
   -0.5964    0.6446    1.9371 N   0  0  0  0  0  0  0  0  0  0  0  0
   -1.5671    0.3441    1.9114 H   0  0  0  0  0  0  0  0  0  0  0  0
   -0.1229    1.2605    3.1752 C   0  0  0  0  0  0  0  0  0  0  0  0
    0.6725    1.9851    2.9701 H   0  0  0  0  0  0  0  0  0  0  0  0
   -0.9420    1.7841    3.6783 H   0  0  0  0  0  0  0  0  0  0  0  0
    0.2692    0.4968    3.8562 H   0  0  0  0  0  0  0  0  0  0  0  0
  1  2  1  0  0  0  0
  2  3  1  0  0  0  0
  2  4  1  0  0  0  0
  2  5  1  0  0  0  0
  5  6  2  0  0  0  0
  5  7  1  0  0  0  0
  7  8  1  0  0  0  0
  7  9  1  0  0  0  0
  9 10  1  0  0  0  0
  9 11  1  0  0  0  0
  9 23  1  0  0  0  0
 11 12  1  0  0  0  0
 11 13  1  0  0  0  0
 11 14  1  0  0  0  0
 14 15  1  0  0  0  0
 14 21  2  0  0  0  0
 15 16  1  0  0  0  0
 15 17  2  0  0  0  0
 17 18  1  0  0  0  0
 17 19  1  0  0  0  0
 19 20  1  0  0  0  0
 19 21  1  0  0  0  0
 21 22  1  0  0  0  0
 23 24  2  0  0  0  0
 23 25  1  0  0  0  0
 25 26  1  0  0  0  0
 25 27  1  0  0  0  0
 27 28  1  0  0  0  0
 27 29  1  0  0  0  0
 27 30  1  0  0  0  0
M  CHG  1  15   1
M  END
$$$$

  -OEChem-04042216003D

 30 30  0     1  0  0  0  0  0999 V2000
   -3.1707   -4.0247    1.3109 H   0  0  0  0  0  0  0  0  0  0  0  0
   -3.1304   -3.2415    0.5478 C   0  0  0  0  0  0  0  0  0  0  0  0
   -4.0265   -2.6226    0.6345 H   0  0  0  0  0  0  0  0  0  0  0  0
   -3.1130   -3.7159   -0.4363 H   0  0  0  0  0  0  0  0  0  0  0  0
   -1.8877   -2.3938    0.7412 C   0  0  0  0  0  0  0  0  0  0  0  0
   -1.1371   -2.6217    1.6704 O   0  0  0  0  0  0  0  0  0  0  0  0
   -1.6164   -1.3464   -0.1240 N   0  0  0  0  0  0  0  0  0  0  0  0
   -2.1881   -1.3482   -0.9625 H   0  0  0  0  0  0  0  0  0  0  0  0
   -0.2760   -0.7213   -0.2094 C   0  0  1  0  0  0  0  0  0  0  0  0
    0.4296   -1.5350   -0.4195 H   0  0  0  0  0  0  0  0  0  0  0  0
   -0.1575    0.2777   -1.3800 C   0  0  0  0  0  0  0  0  0  0  0  0
    0.9096    0.4766   -1.5381 H   0  0  0  0  0  0  0  0  0  0  0  0
   -0.5303   -0.1808   -2.3011 H   0  0  0  0  0  0  0  0  0  0  0  0
   -0.8560    1.5969   -1.1391 C   0  0  0  0  0  0  0  0  0  0  0  0
   -2.1724    1.9561   -1.4364 N   0  3  0  0  0  0  0  0  0  0  0  0
   -2.8390    1.3235   -1.8836 H   0  0  0  0  0  0  0  0  0  0  0  0
   -2.3900    3.2044   -1.0948 C   0  0  0  0  0  0  0  0  0  0  0  0
   -3.3232    3.7586   -1.2145 H   0  0  0  0  0  0  0  0  0  0  0  0
   -1.2043    3.7000   -0.5571 N   0  0  0  0  0  0  0  0  0  0  0  0
   -1.0582    4.6472   -0.1942 H   0  0  0  0  0  0  0  0  0  0  0  0
   -0.2438    2.6989   -0.5954 C   0  0  0  0  0  0  0  0  0  0  0  0
    0.7895    2.7508   -0.2443 H   0  0  0  0  0  0  0  0  0  0  0  0
    0.2431   -0.0900    1.1052 C   0  0  0  0  0  0  0  0  0  0  0  0
    1.4475    0.0988    1.2005 O   0  0  0  0  0  0  0  0  0  0  0  0
   -0.5936    0.6924    1.8841 N   0  0  0  0  0  0  0  0  0  0  0  0
   -1.5655    0.3961    1.8709 H   0  0  0  0  0  0  0  0  0  0  0  0
   -0.1130    1.3441    3.1007 C   0  0  0  0  0  0  0  0  0  0  0  0
    0.7082    2.0326    2.8751 H   0  0  0  0  0  0  0  0  0  0  0  0
   -0.9189    1.9155    3.5712 H   0  0  0  0  0  0  0  0  0  0  0  0
    0.2463    0.5973    3.8175 H   0  0  0  0  0  0  0  0  0  0  0  0
  1  2  1  0  0  0  0
  2  3  1  0  0  0  0
  2  4  1  0  0  0  0
  2  5  1  0  0  0  0
  5  6  2  0  0  0  0
  5  7  1  0  0  0  0
  7  8  1  0  0  0  0
  7  9  1  0  0  0  0
  9 10  1  0  0  0  0
  9 11  1  0  0  0  0
  9 23  1  0  0  0  0
 11 12  1  0  0  0  0
 11 13  1  0  0  0  0
 11 14  1  0  0  0  0
 14 15  1  0  0  0  0
 14 21  2  0  0  0  0
 15 16  1  0  0  0  0
 15 17  2  0  0  0  0
 17 18  1  0  0  0  0
 17 19  1  0  0  0  0
 19 20  1  0  0  0  0
 19 21  1  0  0  0  0
 21 22  1  0  0  0  0
 23 24  2  0  0  0  0
 23 25  1  0  0  0  0
 25 26  1  0  0  0  0
 25 27  1  0  0  0  0
 27 28  1  0  0  0  0
 27 29  1  0  0  0  0
 27 30  1  0  0  0  0
M  CHG  1  15   1
M  END
$$$$

  -OEChem-04042216003D

 30 30  0     1  0  0  0  0  0999 V2000
   -3.1714   -4.0338    1.2935 H   0  0  0  0  0  0  0  0  0  0  0  0
   -3.1272   -3.2578    0.5232 C   0  0  0  0  0  0  0  0  0  0  0  0
   -4.0404   -2.6607    0.5762 H   0  0  0  0  0  0  0  0  0  0  0  0
   -3.0693   -3.7422   -0.4546 H   0  0  0  0  0  0  0  0  0  0  0  0
   -1.9116   -2.3780    0.7437 C   0  0  0  0  0  0  0  0  0  0  0  0
   -1.1953   -2.5647    1.7082 O   0  0  0  0  0  0  0  0  0  0  0  0
   -1.6323   -1.3430   -0.1342 N   0  0  0  0  0  0  0  0  0  0  0  0
   -2.1646   -1.3973   -0.9972 H   0  0  0  0  0  0  0  0  0  0  0  0
   -0.2849   -0.7303   -0.2139 C   0  0  1  0  0  0  0  0  0  0  0  0
    0.4164   -1.5494   -0.4181 H   0  0  0  0  0  0  0  0  0  0  0  0
   -0.1601    0.2673   -1.3835 C   0  0  0  0  0  0  0  0  0  0  0  0
    0.9076    0.4567   -1.5479 H   0  0  0  0  0  0  0  0  0  0  0  0
   -0.5449   -0.1852   -2.3026 H   0  0  0  0  0  0  0  0  0  0  0  0
   -0.8522    1.5879   -1.1335 C   0  0  0  0  0  0  0  0  0  0  0  0
   -2.2179    1.8774   -1.1568 N   0  3  0  0  0  0  0  0  0  0  0  0
   -2.9344    1.1801   -1.3673 H   0  0  0  0  0  0  0  0  0  0  0  0
   -2.4187    3.1420   -0.8692 C   0  0  0  0  0  0  0  0  0  0  0  0
   -3.3828    3.6511   -0.8115 H   0  0  0  0  0  0  0  0  0  0  0  0
   -1.1706    3.7198   -0.6479 N   0  0  0  0  0  0  0  0  0  0  0  0
   -0.9973    4.6966   -0.3903 H   0  0  0  0  0  0  0  0  0  0  0  0
   -0.1928    2.7486   -0.8139 C   0  0  0  0  0  0  0  0  0  0  0  0
    0.8858    2.8625   -0.6894 H   0  0  0  0  0  0  0  0  0  0  0  0
    0.2380   -0.0858    1.0934 C   0  0  0  0  0  0  0  0  0  0  0  0
    1.4453    0.0807    1.1921 O   0  0  0  0  0  0  0  0  0  0  0  0
   -0.5913    0.7170    1.8594 N   0  0  0  0  0  0  0  0  0  0  0  0
   -1.5608    0.4134    1.8695 H   0  0  0  0  0  0  0  0  0  0  0  0
   -0.0974    1.4002    3.0529 C   0  0  0  0  0  0  0  0  0  0  0  0
    0.7054    2.0996    2.7953 H   0  0  0  0  0  0  0  0  0  0  0  0
   -0.9040    1.9652    3.5302 H   0  0  0  0  0  0  0  0  0  0  0  0
    0.2921    0.6745    3.7758 H   0  0  0  0  0  0  0  0  0  0  0  0
  1  2  1  0  0  0  0
  2  3  1  0  0  0  0
  2  4  1  0  0  0  0
  2  5  1  0  0  0  0
  5  6  2  0  0  0  0
  5  7  1  0  0  0  0
  7  8  1  0  0  0  0
  7  9  1  0  0  0  0
  9 10  1  0  0  0  0
  9 11  1  0  0  0  0
  9 23  1  0  0  0  0
 11 12  1  0  0  0  0
 11 13  1  0  0  0  0
 11 14  1  0  0  0  0
 14 15  1  0  0  0  0
 14 21  2  0  0  0  0
 15 16  1  0  0  0  0
 15 17  2  0  0  0  0
 17 18  1  0  0  0  0
 17 19  1  0  0  0  0
 19 20  1  0  0  0  0
 19 21  1  0  0  0  0
 21 22  1  0  0  0  0
 23 24  2  0  0  0  0
 23 25  1  0  0  0  0
 25 26  1  0  0  0  0
 25 27  1  0  0  0  0
 27 28  1  0  0  0  0
 27 29  1  0  0  0  0
 27 30  1  0  0  0  0
M  CHG  1  15   1
M  END
$$$$

  -OEChem-04042216003D

 30 30  0     1  0  0  0  0  0999 V2000
   -3.1671   -4.0569    1.2535 H   0  0  0  0  0  0  0  0  0  0  0  0
   -3.1281   -3.2741    0.4896 C   0  0  0  0  0  0  0  0  0  0  0  0
   -4.0579   -2.7019    0.5282 H   0  0  0  0  0  0  0  0  0  0  0  0
   -3.0382   -3.7498   -0.4899 H   0  0  0  0  0  0  0  0  0  0  0  0
   -1.9411   -2.3641    0.7412 C   0  0  0  0  0  0  0  0  0  0  0  0
   -1.2649   -2.5127    1.7404 O   0  0  0  0  0  0  0  0  0  0  0  0
   -1.6520   -1.3331   -0.1384 N   0  0  0  0  0  0  0  0  0  0  0  0
   -2.1502   -1.4214   -1.0199 H   0  0  0  0  0  0  0  0  0  0  0  0
   -0.2970   -0.7331   -0.2068 C   0  0  1  0  0  0  0  0  0  0  0  0
    0.3977   -1.5580   -0.4098 H   0  0  0  0  0  0  0  0  0  0  0  0
   -0.1661    0.2624   -1.3770 C   0  0  0  0  0  0  0  0  0  0  0  0
    0.9017    0.4436   -1.5491 H   0  0  0  0  0  0  0  0  0  0  0  0
   -0.5618   -0.1904   -2.2915 H   0  0  0  0  0  0  0  0  0  0  0  0
   -0.8527    1.5864   -1.1292 C   0  0  0  0  0  0  0  0  0  0  0  0
   -2.2047    1.8231   -0.8753 N   0  3  0  0  0  0  0  0  0  0  0  0
   -2.8981    1.0752   -0.8150 H   0  0  0  0  0  0  0  0  0  0  0  0
   -2.4114    3.1014   -0.6647 C   0  0  0  0  0  0  0  0  0  0  0  0
   -3.3651    3.5758   -0.4253 H   0  0  0  0  0  0  0  0  0  0  0  0
   -1.1822    3.7445   -0.7900 N   0  0  0  0  0  0  0  0  0  0  0  0
   -1.0139    4.7475   -0.6636 H   0  0  0  0  0  0  0  0  0  0  0  0
   -0.2078    2.7966   -1.0732 C   0  0  0  0  0  0  0  0  0  0  0  0
    0.8632    2.9639   -1.1993 H   0  0  0  0  0  0  0  0  0  0  0  0
    0.2339   -0.0888    1.0976 C   0  0  0  0  0  0  0  0  0  0  0  0
    1.4440    0.0531    1.1963 O   0  0  0  0  0  0  0  0  0  0  0  0
   -0.5827    0.7284    1.8624 N   0  0  0  0  0  0  0  0  0  0  0  0
   -1.5471    0.4131    1.9061 H   0  0  0  0  0  0  0  0  0  0  0  0
   -0.0655    1.4313    3.0346 C   0  0  0  0  0  0  0  0  0  0  0  0
    0.7264    2.1315    2.7479 H   0  0  0  0  0  0  0  0  0  0  0  0
   -0.8638    1.9984    3.5230 H   0  0  0  0  0  0  0  0  0  0  0  0
    0.3454    0.7183    3.7582 H   0  0  0  0  0  0  0  0  0  0  0  0
  1  2  1  0  0  0  0
  2  3  1  0  0  0  0
  2  4  1  0  0  0  0
  2  5  1  0  0  0  0
  5  6  2  0  0  0  0
  5  7  1  0  0  0  0
  7  8  1  0  0  0  0
  7  9  1  0  0  0  0
  9 10  1  0  0  0  0
  9 11  1  0  0  0  0
  9 23  1  0  0  0  0
 11 12  1  0  0  0  0
 11 13  1  0  0  0  0
 11 14  1  0  0  0  0
 14 15  1  0  0  0  0
 14 21  2  0  0  0  0
 15 16  1  0  0  0  0
 15 17  2  0  0  0  0
 17 18  1  0  0  0  0
 17 19  1  0  0  0  0
 19 20  1  0  0  0  0
 19 21  1  0  0  0  0
 21 22  1  0  0  0  0
 23 24  2  0  0  0  0
 23 25  1  0  0  0  0
 25 26  1  0  0  0  0
 25 27  1  0  0  0  0
 27 28  1  0  0  0  0
 27 29  1  0  0  0  0
 27 30  1  0  0  0  0
M  CHG  1  15   1
M  END
$$$$

  -OEChem-04042216003D

 30 30  0     1  0  0  0  0  0999 V2000
   -3.1735   -4.0795    1.2157 H   0  0  0  0  0  0  0  0  0  0  0  0
   -3.1312   -3.2906    0.4583 C   0  0  0  0  0  0  0  0  0  0  0  0
   -4.0676   -2.7291    0.4861 H   0  0  0  0  0  0  0  0  0  0  0  0
   -3.0210   -3.7577   -0.5234 H   0  0  0  0  0  0  0  0  0  0  0  0
   -1.9587   -2.3690    0.7346 C   0  0  0  0  0  0  0  0  0  0  0  0
   -1.2996   -2.5098    1.7464 O   0  0  0  0  0  0  0  0  0  0  0  0
   -1.6711   -1.3243   -0.1290 N   0  0  0  0  0  0  0  0  0  0  0  0
   -2.1670   -1.4014   -1.0139 H   0  0  0  0  0  0  0  0  0  0  0  0
   -0.3156   -0.7242   -0.1889 C   0  0  1  0  0  0  0  0  0  0  0  0
    0.3740   -1.5526   -0.3967 H   0  0  0  0  0  0  0  0  0  0  0  0
   -0.1765    0.2661   -1.3629 C   0  0  0  0  0  0  0  0  0  0  0  0
    0.8918    0.4447   -1.5348 H   0  0  0  0  0  0  0  0  0  0  0  0
   -0.5722   -0.1951   -2.2733 H   0  0  0  0  0  0  0  0  0  0  0  0
   -0.8639    1.5933   -1.1370 C   0  0  0  0  0  0  0  0  0  0  0  0
   -2.1427    1.8153   -0.6243 N   0  3  0  0  0  0  0  0  0  0  0  0
   -2.7543    1.0545   -0.3204 H   0  0  0  0  0  0  0  0  0  0  0  0
   -2.3712    3.1015   -0.5080 C   0  0  0  0  0  0  0  0  0  0  0  0
   -3.2756    3.5686   -0.1134 H   0  0  0  0  0  0  0  0  0  0  0  0
   -1.2345    3.7644   -0.9644 N   0  0  0  0  0  0  0  0  0  0  0  0
   -1.0977    4.7800   -0.9783 H   0  0  0  0  0  0  0  0  0  0  0  0
   -0.2889    2.8215   -1.3469 C   0  0  0  0  0  0  0  0  0  0  0  0
    0.7212    3.0089   -1.7141 H   0  0  0  0  0  0  0  0  0  0  0  0
    0.2303   -0.0977    1.1179 C   0  0  0  0  0  0  0  0  0  0  0  0
    1.4417    0.0440    1.1962 O   0  0  0  0  0  0  0  0  0  0  0  0
   -0.5729    0.7129    1.9037 N   0  0  0  0  0  0  0  0  0  0  0  0
   -1.5186    0.3574    2.0077 H   0  0  0  0  0  0  0  0  0  0  0  0
   -0.0206    1.4363    3.0480 C   0  0  0  0  0  0  0  0  0  0  0  0
    0.7594    2.1346    2.7254 H   0  0  0  0  0  0  0  0  0  0  0  0
   -0.8046    2.0090    3.5529 H   0  0  0  0  0  0  0  0  0  0  0  0
    0.4160    0.7365    3.7695 H   0  0  0  0  0  0  0  0  0  0  0  0
  1  2  1  0  0  0  0
  2  3  1  0  0  0  0
  2  4  1  0  0  0  0
  2  5  1  0  0  0  0
  5  6  2  0  0  0  0
  5  7  1  0  0  0  0
  7  8  1  0  0  0  0
  7  9  1  0  0  0  0
  9 10  1  0  0  0  0
  9 11  1  0  0  0  0
  9 23  1  0  0  0  0
 11 12  1  0  0  0  0
 11 13  1  0  0  0  0
 11 14  1  0  0  0  0
 14 15  1  0  0  0  0
 14 21  2  0  0  0  0
 15 16  1  0  0  0  0
 15 17  2  0  0  0  0
 17 18  1  0  0  0  0
 17 19  1  0  0  0  0
 19 20  1  0  0  0  0
 19 21  1  0  0  0  0
 21 22  1  0  0  0  0
 23 24  2  0  0  0  0
 23 25  1  0  0  0  0
 25 26  1  0  0  0  0
 25 27  1  0  0  0  0
 27 28  1  0  0  0  0
 27 29  1  0  0  0  0
 27 30  1  0  0  0  0
M  CHG  1  15   1
M  END
$$$$

  -OEChem-04042216003D

 30 30  0     1  0  0  0  0  0999 V2000
   -3.1719   -4.1065    1.1863 H   0  0  0  0  0  0  0  0  0  0  0  0
   -3.1316   -3.3045    0.4428 C   0  0  0  0  0  0  0  0  0  0  0  0
   -4.0651   -2.7388    0.4873 H   0  0  0  0  0  0  0  0  0  0  0  0
   -3.0307   -3.7550   -0.5477 H   0  0  0  0  0  0  0  0  0  0  0  0
   -1.9522   -2.3939    0.7262 C   0  0  0  0  0  0  0  0  0  0  0  0
   -1.2808   -2.5580    1.7266 O   0  0  0  0  0  0  0  0  0  0  0  0
   -1.6775   -1.3216   -0.1064 N   0  0  0  0  0  0  0  0  0  0  0  0
   -2.2011   -1.3506   -0.9785 H   0  0  0  0  0  0  0  0  0  0  0  0
   -0.3285   -0.7090   -0.1677 C   0  0  1  0  0  0  0  0  0  0  0  0
    0.3601   -1.5342   -0.3902 H   0  0  0  0  0  0  0  0  0  0  0  0
   -0.1926    0.2813   -1.3433 C   0  0  0  0  0  0  0  0  0  0  0  0
    0.8754    0.4633   -1.5147 H   0  0  0  0  0  0  0  0  0  0  0  0
   -0.5845   -0.1909   -2.2499 H   0  0  0  0  0  0  0  0  0  0  0  0
   -0.8828    1.6118   -1.1460 C   0  0  0  0  0  0  0  0  0  0  0  0
   -2.0305    1.8795   -0.3997 N   0  3  0  0  0  0  0  0  0  0  0  0
   -2.5118    1.1577    0.1415 H   0  0  0  0  0  0  0  0  0  0  0  0
   -2.2868    3.1655   -0.3970 C   0  0  0  0  0  0  0  0  0  0  0  0
   -3.0990    3.6656    0.1342 H   0  0  0  0  0  0  0  0  0  0  0  0
   -1.3116    3.7798   -1.1790 N   0  0  0  0  0  0  0  0  0  0  0  0
   -1.2285    4.7867   -1.3513 H   0  0  0  0  0  0  0  0  0  0  0  0
   -0.4268    2.8104   -1.6349 C   0  0  0  0  0  0  0  0  0  0  0  0
    0.4685    2.9640   -2.2388 H   0  0  0  0  0  0  0  0  0  0  0  0
    0.2311   -0.1179    1.1492 C   0  0  0  0  0  0  0  0  0  0  0  0
    1.4399    0.0544    1.1995 O   0  0  0  0  0  0  0  0  0  0  0  0
   -0.5726    0.6603    1.9677 N   0  0  0  0  0  0  0  0  0  0  0  0
   -1.4778    0.2307    2.1406 H   0  0  0  0  0  0  0  0  0  0  0  0
    0.0025    1.4049    3.0875 C   0  0  0  0  0  0  0  0  0  0  0  0
    0.7343    2.1376    2.7304 H   0  0  0  0  0  0  0  0  0  0  0  0
   -0.7804    1.9411    3.6327 H   0  0  0  0  0  0  0  0  0  0  0  0
    0.5042    0.7233    3.7838 H   0  0  0  0  0  0  0  0  0  0  0  0
  1  2  1  0  0  0  0
  2  3  1  0  0  0  0
  2  4  1  0  0  0  0
  2  5  1  0  0  0  0
  5  6  2  0  0  0  0
  5  7  1  0  0  0  0
  7  8  1  0  0  0  0
  7  9  1  0  0  0  0
  9 10  1  0  0  0  0
  9 11  1  0  0  0  0
  9 23  1  0  0  0  0
 11 12  1  0  0  0  0
 11 13  1  0  0  0  0
 11 14  1  0  0  0  0
 14 15  1  0  0  0  0
 14 21  2  0  0  0  0
 15 16  1  0  0  0  0
 15 17  2  0  0  0  0
 17 18  1  0  0  0  0
 17 19  1  0  0  0  0
 19 20  1  0  0  0  0
 19 21  1  0  0  0  0
 21 22  1  0  0  0  0
 23 24  2  0  0  0  0
 23 25  1  0  0  0  0
 25 26  1  0  0  0  0
 25 27  1  0  0  0  0
 27 28  1  0  0  0  0
 27 29  1  0  0  0  0
 27 30  1  0  0  0  0
M  CHG  1  15   1
M  END
$$$$

  -OEChem-04042216003D

 30 30  0     1  0  0  0  0  0999 V2000
   -3.1461   -4.1441    1.1395 H   0  0  0  0  0  0  0  0  0  0  0  0
   -3.1352   -3.2988    0.4448 C   0  0  0  0  0  0  0  0  0  0  0  0
   -4.0540   -2.7231    0.5791 H   0  0  0  0  0  0  0  0  0  0  0  0
   -3.1013   -3.6884   -0.5755 H   0  0  0  0  0  0  0  0  0  0  0  0
   -1.9251   -2.4244    0.7114 C   0  0  0  0  0  0  0  0  0  0  0  0
   -1.2102   -2.6454    1.6703 O   0  0  0  0  0  0  0  0  0  0  0  0
   -1.6663   -1.3214   -0.0845 N   0  0  0  0  0  0  0  0  0  0  0  0
   -2.2406   -1.2766   -0.9234 H   0  0  0  0  0  0  0  0  0  0  0  0
   -0.3261   -0.6937   -0.1541 C   0  0  1  0  0  0  0  0  0  0  0  0
    0.3630   -1.5115   -0.4012 H   0  0  0  0  0  0  0  0  0  0  0  0
   -0.2012    0.3103   -1.3216 C   0  0  0  0  0  0  0  0  0  0  0  0
    0.8666    0.4976   -1.4886 H   0  0  0  0  0  0  0  0  0  0  0  0
   -0.5865   -0.1628   -2.2304 H   0  0  0  0  0  0  0  0  0  0  0  0
   -0.8878    1.6461   -1.1412 C   0  0  0  0  0  0  0  0  0  0  0  0
   -1.8510    2.0078   -0.2003 N   0  3  0  0  0  0  0  0  0  0  0  0
   -2.1167    1.3882    0.5694 H   0  0  0  0  0  0  0  0  0  0  0  0
   -2.1668    3.2737   -0.3269 C   0  0  0  0  0  0  0  0  0  0  0  0
   -2.8506    3.8392    0.3091 H   0  0  0  0  0  0  0  0  0  0  0  0
   -1.4383    3.7719   -1.4037 N   0  0  0  0  0  0  0  0  0  0  0  0
   -1.4540    4.7397   -1.7405 H   0  0  0  0  0  0  0  0  0  0  0  0
   -0.6293    2.7585   -1.9031 C   0  0  0  0  0  0  0  0  0  0  0  0
    0.0855    2.8288   -2.7238 H   0  0  0  0  0  0  0  0  0  0  0  0
    0.2388   -0.1491    1.1789 C   0  0  0  0  0  0  0  0  0  0  0  0
    1.4409    0.0649    1.2132 O   0  0  0  0  0  0  0  0  0  0  0  0
   -0.5771    0.5833    2.0290 N   0  0  0  0  0  0  0  0  0  0  0  0
   -1.4387    0.0828    2.2403 H   0  0  0  0  0  0  0  0  0  0  0  0
    0.0024    1.3306    3.1459 C   0  0  0  0  0  0  0  0  0  0  0  0
    0.6849    2.1060    2.7809 H   0  0  0  0  0  0  0  0  0  0  0  0
   -0.7844    1.8152    3.7322 H   0  0  0  0  0  0  0  0  0  0  0  0
    0.5623    0.6595    3.8076 H   0  0  0  0  0  0  0  0  0  0  0  0
  1  2  1  0  0  0  0
  2  3  1  0  0  0  0
  2  4  1  0  0  0  0
  2  5  1  0  0  0  0
  5  6  2  0  0  0  0
  5  7  1  0  0  0  0
  7  8  1  0  0  0  0
  7  9  1  0  0  0  0
  9 10  1  0  0  0  0
  9 11  1  0  0  0  0
  9 23  1  0  0  0  0
 11 12  1  0  0  0  0
 11 13  1  0  0  0  0
 11 14  1  0  0  0  0
 14 15  1  0  0  0  0
 14 21  2  0  0  0  0
 15 16  1  0  0  0  0
 15 17  2  0  0  0  0
 17 18  1  0  0  0  0
 17 19  1  0  0  0  0
 19 20  1  0  0  0  0
 19 21  1  0  0  0  0
 21 22  1  0  0  0  0
 23 24  2  0  0  0  0
 23 25  1  0  0  0  0
 25 26  1  0  0  0  0
 25 27  1  0  0  0  0
 27 28  1  0  0  0  0
 27 29  1  0  0  0  0
 27 30  1  0  0  0  0
M  CHG  1  15   1
M  END
$$$$

  -OEChem-04042216003D

 30 30  0     1  0  0  0  0  0999 V2000
   -3.1643   -4.1181    1.1425 H   0  0  0  0  0  0  0  0  0  0  0  0
   -3.1472   -3.2636    0.4593 C   0  0  0  0  0  0  0  0  0  0  0  0
   -4.0422   -2.6607    0.6296 H   0  0  0  0  0  0  0  0  0  0  0  0
   -3.1566   -3.6387   -0.5669 H   0  0  0  0  0  0  0  0  0  0  0  0
   -1.9019   -2.4321    0.6996 C   0  0  0  0  0  0  0  0  0  0  0  0
   -1.1453   -2.7112    1.6104 O   0  0  0  0  0  0  0  0  0  0  0  0
   -1.6474   -1.3112   -0.0714 N   0  0  0  0  0  0  0  0  0  0  0  0
   -2.2654   -1.2017   -0.8720 H   0  0  0  0  0  0  0  0  0  0  0  0
   -0.3118   -0.6774   -0.1481 C   0  0  1  0  0  0  0  0  0  0  0  0
    0.3766   -1.4906   -0.4123 H   0  0  0  0  0  0  0  0  0  0  0  0
   -0.1996    0.3346   -1.3115 C   0  0  0  0  0  0  0  0  0  0  0  0
    0.8683    0.5286   -1.4695 H   0  0  0  0  0  0  0  0  0  0  0  0
   -0.5734   -0.1405   -2.2244 H   0  0  0  0  0  0  0  0  0  0  0  0
   -0.8812    1.6758   -1.1437 C   0  0  0  0  0  0  0  0  0  0  0  0
   -1.6189    2.1581   -0.0632 N   0  3  0  0  0  0  0  0  0  0  0  0
   -1.6453    1.6670    0.8366 H   0  0  0  0  0  0  0  0  0  0  0  0
   -2.0265    3.3828   -0.2910 C   0  0  0  0  0  0  0  0  0  0  0  0
   -2.5661    4.0269    0.4060 H   0  0  0  0  0  0  0  0  0  0  0  0
   -1.6075    3.7215   -1.5744 N   0  0  0  0  0  0  0  0  0  0  0  0
   -1.7604    4.6241   -2.0353 H   0  0  0  0  0  0  0  0  0  0  0  0
   -0.8837    2.6591   -2.1022 C   0  0  0  0  0  0  0  0  0  0  0  0
   -0.3976    2.6128   -3.0775 H   0  0  0  0  0  0  0  0  0  0  0  0
    0.2583   -0.1652    1.1947 C   0  0  0  0  0  0  0  0  0  0  0  0
    1.4568    0.0660    1.2288 O   0  0  0  0  0  0  0  0  0  0  0  0
   -0.5610    0.5396    2.0661 N   0  0  0  0  0  0  0  0  0  0  0  0
   -1.4283    0.0342    2.2470 H   0  0  0  0  0  0  0  0  0  0  0  0
    0.0126    1.2333    3.2209 C   0  0  0  0  0  0  0  0  0  0  0  0
    0.7090    2.0154    2.8985 H   0  0  0  0  0  0  0  0  0  0  0  0
   -0.7766    1.7019    3.8174 H   0  0  0  0  0  0  0  0  0  0  0  0
    0.5561    0.5287    3.8612 H   0  0  0  0  0  0  0  0  0  0  0  0
  1  2  1  0  0  0  0
  2  3  1  0  0  0  0
  2  4  1  0  0  0  0
  2  5  1  0  0  0  0
  5  6  2  0  0  0  0
  5  7  1  0  0  0  0
  7  8  1  0  0  0  0
  7  9  1  0  0  0  0
  9 10  1  0  0  0  0
  9 11  1  0  0  0  0
  9 23  1  0  0  0  0
 11 12  1  0  0  0  0
 11 13  1  0  0  0  0
 11 14  1  0  0  0  0
 14 15  1  0  0  0  0
 14 21  2  0  0  0  0
 15 16  1  0  0  0  0
 15 17  2  0  0  0  0
 17 18  1  0  0  0  0
 17 19  1  0  0  0  0
 19 20  1  0  0  0  0
 19 21  1  0  0  0  0
 21 22  1  0  0  0  0
 23 24  2  0  0  0  0
 23 25  1  0  0  0  0
 25 26  1  0  0  0  0
 25 27  1  0  0  0  0
 27 28  1  0  0  0  0
 27 29  1  0  0  0  0
 27 30  1  0  0  0  0
M  CHG  1  15   1
M  END
$$$$

  -OEChem-04042216003D

 30 30  0     1  0  0  0  0  0999 V2000
   -3.1694   -4.0926    1.1571 H   0  0  0  0  0  0  0  0  0  0  0  0
   -3.1603   -3.2262    0.4889 C   0  0  0  0  0  0  0  0  0  0  0  0
   -4.0375   -2.6107    0.7012 H   0  0  0  0  0  0  0  0  0  0  0  0
   -3.2121   -3.5826   -0.5428 H   0  0  0  0  0  0  0  0  0  0  0  0
   -1.8924   -2.4215    0.7003 C   0  0  0  0  0  0  0  0  0  0  0  0
   -1.1086   -2.7343    1.5766 O   0  0  0  0  0  0  0  0  0  0  0  0
   -1.6384   -1.2963   -0.0649 N   0  0  0  0  0  0  0  0  0  0  0  0
   -2.2825   -1.1487   -0.8380 H   0  0  0  0  0  0  0  0  0  0  0  0
   -0.3037   -0.6628   -0.1467 C   0  0  1  0  0  0  0  0  0  0  0  0
    0.3827   -1.4770   -0.4129 H   0  0  0  0  0  0  0  0  0  0  0  0
   -0.1930    0.3441   -1.3156 C   0  0  0  0  0  0  0  0  0  0  0  0
    0.8759    0.5387   -1.4665 H   0  0  0  0  0  0  0  0  0  0  0  0
   -0.5568   -0.1386   -2.2283 H   0  0  0  0  0  0  0  0  0  0  0  0
   -0.8708    1.6904   -1.1643 C   0  0  0  0  0  0  0  0  0  0  0  0
   -1.3633    2.3056   -0.0132 N   0  3  0  0  0  0  0  0  0  0  0  0
   -1.1950    1.9221    0.9243 H   0  0  0  0  0  0  0  0  0  0  0  0
   -1.8656    3.4830   -0.2936 C   0  0  0  0  0  0  0  0  0  0  0  0
   -2.2687    4.2032    0.4211 H   0  0  0  0  0  0  0  0  0  0  0  0
   -1.7590    3.6546   -1.6706 N   0  0  0  0  0  0  0  0  0  0  0  0
   -2.0514    4.4858   -2.1942 H   0  0  0  0  0  0  0  0  0  0  0  0
   -1.1330    2.5385   -2.2124 C   0  0  0  0  0  0  0  0  0  0  0  0
   -0.8809    2.3697   -3.2599 H   0  0  0  0  0  0  0  0  0  0  0  0
    0.2695   -0.1599    1.1981 C   0  0  0  0  0  0  0  0  0  0  0  0
    1.4672    0.0725    1.2361 O   0  0  0  0  0  0  0  0  0  0  0  0
   -0.5437    0.5393    2.0797 N   0  0  0  0  0  0  0  0  0  0  0  0
   -1.4496    0.0855    2.1978 H   0  0  0  0  0  0  0  0  0  0  0  0
    0.0240    1.1454    3.2856 C   0  0  0  0  0  0  0  0  0  0  0  0
    0.7460    1.9279    3.0264 H   0  0  0  0  0  0  0  0  0  0  0  0
   -0.7647    1.5955    3.8970 H   0  0  0  0  0  0  0  0  0  0  0  0
    0.5375    0.3882    3.8895 H   0  0  0  0  0  0  0  0  0  0  0  0
  1  2  1  0  0  0  0
  2  3  1  0  0  0  0
  2  4  1  0  0  0  0
  2  5  1  0  0  0  0
  5  6  2  0  0  0  0
  5  7  1  0  0  0  0
  7  8  1  0  0  0  0
  7  9  1  0  0  0  0
  9 10  1  0  0  0  0
  9 11  1  0  0  0  0
  9 23  1  0  0  0  0
 11 12  1  0  0  0  0
 11 13  1  0  0  0  0
 11 14  1  0  0  0  0
 14 15  1  0  0  0  0
 14 21  2  0  0  0  0
 15 16  1  0  0  0  0
 15 17  2  0  0  0  0
 17 18  1  0  0  0  0
 17 19  1  0  0  0  0
 19 20  1  0  0  0  0
 19 21  1  0  0  0  0
 21 22  1  0  0  0  0
 23 24  2  0  0  0  0
 23 25  1  0  0  0  0
 25 26  1  0  0  0  0
 25 27  1  0  0  0  0
 27 28  1  0  0  0  0
 27 29  1  0  0  0  0
 27 30  1  0  0  0  0
M  CHG  1  15   1
M  END
$$$$

  -OEChem-04042216003D

 30 30  0     1  0  0  0  0  0999 V2000
   -3.1827   -4.0534    1.2038 H   0  0  0  0  0  0  0  0  0  0  0  0
   -3.1679   -3.1957    0.5244 C   0  0  0  0  0  0  0  0  0  0  0  0
   -4.0298   -2.5610    0.7424 H   0  0  0  0  0  0  0  0  0  0  0  0
   -3.2425   -3.5637   -0.5017 H   0  0  0  0  0  0  0  0  0  0  0  0
   -1.8817   -2.4129    0.7058 C   0  0  0  0  0  0  0  0  0  0  0  0
   -1.0836   -2.7387    1.5643 O   0  0  0  0  0  0  0  0  0  0  0  0
   -1.6241   -1.2956   -0.0698 N   0  0  0  0  0  0  0  0  0  0  0  0
   -2.2824   -1.1319   -0.8273 H   0  0  0  0  0  0  0  0  0  0  0  0
   -0.2900   -0.6624   -0.1568 C   0  0  1  0  0  0  0  0  0  0  0  0
    0.3985   -1.4777   -0.4149 H   0  0  0  0  0  0  0  0  0  0  0  0
   -0.1808    0.3357   -1.3340 C   0  0  0  0  0  0  0  0  0  0  0  0
    0.8875    0.5331   -1.4844 H   0  0  0  0  0  0  0  0  0  0  0  0
   -0.5411   -0.1544   -2.2442 H   0  0  0  0  0  0  0  0  0  0  0  0
   -0.8622    1.6809   -1.1862 C   0  0  0  0  0  0  0  0  0  0  0  0
   -1.0928    2.4116   -0.0207 N   0  3  0  0  0  0  0  0  0  0  0  0
   -0.7453    2.1022    0.8962 H   0  0  0  0  0  0  0  0  0  0  0  0
   -1.6865    3.5475   -0.2910 C   0  0  0  0  0  0  0  0  0  0  0  0
   -1.9503    4.3273    0.4261 H   0  0  0  0  0  0  0  0  0  0  0  0
   -1.8957    3.5794   -1.6669 N   0  0  0  0  0  0  0  0  0  0  0  0
   -2.3254    4.3501   -2.1883 H   0  0  0  0  0  0  0  0  0  0  0  0
   -1.3778    2.4163   -2.2257 C   0  0  0  0  0  0  0  0  0  0  0  0
   -1.3622    2.1443   -3.2816 H   0  0  0  0  0  0  0  0  0  0  0  0
    0.2760   -0.1469    1.1862 C   0  0  0  0  0  0  0  0  0  0  0  0
    1.4706    0.0992    1.2278 O   0  0  0  0  0  0  0  0  0  0  0  0
   -0.5390    0.5597    2.0595 N   0  0  0  0  0  0  0  0  0  0  0  0
   -1.4727    0.1551    2.1282 H   0  0  0  0  0  0  0  0  0  0  0  0
    0.0071    1.1232    3.2958 C   0  0  0  0  0  0  0  0  0  0  0  0
    0.7628    1.8862    3.0786 H   0  0  0  0  0  0  0  0  0  0  0  0
   -0.7879    1.5863    3.8891 H   0  0  0  0  0  0  0  0  0  0  0  0
    0.4737    0.3370    3.9007 H   0  0  0  0  0  0  0  0  0  0  0  0
  1  2  1  0  0  0  0
  2  3  1  0  0  0  0
  2  4  1  0  0  0  0
  2  5  1  0  0  0  0
  5  6  2  0  0  0  0
  5  7  1  0  0  0  0
  7  8  1  0  0  0  0
  7  9  1  0  0  0  0
  9 10  1  0  0  0  0
  9 11  1  0  0  0  0
  9 23  1  0  0  0  0
 11 12  1  0  0  0  0
 11 13  1  0  0  0  0
 11 14  1  0  0  0  0
 14 15  1  0  0  0  0
 14 21  2  0  0  0  0
 15 16  1  0  0  0  0
 15 17  2  0  0  0  0
 17 18  1  0  0  0  0
 17 19  1  0  0  0  0
 19 20  1  0  0  0  0
 19 21  1  0  0  0  0
 21 22  1  0  0  0  0
 23 24  2  0  0  0  0
 23 25  1  0  0  0  0
 25 26  1  0  0  0  0
 25 27  1  0  0  0  0
 27 28  1  0  0  0  0
 27 29  1  0  0  0  0
 27 30  1  0  0  0  0
M  CHG  1  15   1
M  END
$$$$

  -OEChem-04042216003D

 30 30  0     1  0  0  0  0  0999 V2000
   -3.1798   -4.0286    1.2613 H   0  0  0  0  0  0  0  0  0  0  0  0
   -3.1631   -3.1864    0.5630 C   0  0  0  0  0  0  0  0  0  0  0  0
   -4.0173   -2.5390    0.7746 H   0  0  0  0  0  0  0  0  0  0  0  0
   -3.2500   -3.5762   -0.4541 H   0  0  0  0  0  0  0  0  0  0  0  0
   -1.8686   -2.4113    0.7164 C   0  0  0  0  0  0  0  0  0  0  0  0
   -1.0605   -2.7331    1.5673 O   0  0  0  0  0  0  0  0  0  0  0  0
   -1.6119   -1.3087   -0.0801 N   0  0  0  0  0  0  0  0  0  0  0  0
   -2.2789   -1.1464   -0.8298 H   0  0  0  0  0  0  0  0  0  0  0  0
   -0.2806   -0.6707   -0.1741 C   0  0  1  0  0  0  0  0  0  0  0  0
    0.4139   -1.4848   -0.4192 H   0  0  0  0  0  0  0  0  0  0  0  0
   -0.1730    0.3205   -1.3567 C   0  0  0  0  0  0  0  0  0  0  0  0
    0.8934    0.5226   -1.5134 H   0  0  0  0  0  0  0  0  0  0  0  0
   -0.5356   -0.1728   -2.2641 H   0  0  0  0  0  0  0  0  0  0  0  0
   -0.8635    1.6587   -1.1974 C   0  0  0  0  0  0  0  0  0  0  0  0
   -0.8327    2.4927   -0.0796 N   0  3  0  0  0  0  0  0  0  0  0  0
   -0.3303    2.2361    0.7812 H   0  0  0  0  0  0  0  0  0  0  0  0
   -1.5023    3.5960   -0.3030 C   0  0  0  0  0  0  0  0  0  0  0  0
   -1.6330    4.4263    0.3938 H   0  0  0  0  0  0  0  0  0  0  0  0
   -2.0059    3.5103   -1.5986 N   0  0  0  0  0  0  0  0  0  0  0  0
   -2.5552    4.2333   -2.0742 H   0  0  0  0  0  0  0  0  0  0  0  0
   -1.6036    2.3023   -2.1590 C   0  0  0  0  0  0  0  0  0  0  0  0
   -1.8099    1.9437   -3.1680 H   0  0  0  0  0  0  0  0  0  0  0  0
    0.2728   -0.1266    1.1630 C   0  0  0  0  0  0  0  0  0  0  0  0
    1.4621    0.1457    1.2038 O   0  0  0  0  0  0  0  0  0  0  0  0
   -0.5495    0.5920    2.0178 N   0  0  0  0  0  0  0  0  0  0  0  0
   -1.4989    0.2229    2.0508 H   0  0  0  0  0  0  0  0  0  0  0  0
   -0.0283    1.1431    3.2699 C   0  0  0  0  0  0  0  0  0  0  0  0
    0.7462    1.8934    3.0764 H   0  0  0  0  0  0  0  0  0  0  0  0
   -0.8312    1.6188    3.8419 H   0  0  0  0  0  0  0  0  0  0  0  0
    0.4071    0.3474    3.8854 H   0  0  0  0  0  0  0  0  0  0  0  0
  1  2  1  0  0  0  0
  2  3  1  0  0  0  0
  2  4  1  0  0  0  0
  2  5  1  0  0  0  0
  5  6  2  0  0  0  0
  5  7  1  0  0  0  0
  7  8  1  0  0  0  0
  7  9  1  0  0  0  0
  9 10  1  0  0  0  0
  9 11  1  0  0  0  0
  9 23  1  0  0  0  0
 11 12  1  0  0  0  0
 11 13  1  0  0  0  0
 11 14  1  0  0  0  0
 14 15  1  0  0  0  0
 14 21  2  0  0  0  0
 15 16  1  0  0  0  0
 15 17  2  0  0  0  0
 17 18  1  0  0  0  0
 17 19  1  0  0  0  0
 19 20  1  0  0  0  0
 19 21  1  0  0  0  0
 21 22  1  0  0  0  0
 23 24  2  0  0  0  0
 23 25  1  0  0  0  0
 25 26  1  0  0  0  0
 25 27  1  0  0  0  0
 27 28  1  0  0  0  0
 27 29  1  0  0  0  0
 27 30  1  0  0  0  0
M  CHG  1  15   1
M  END
$$$$

  -OEChem-04042216003D

 30 30  0     1  0  0  0  0  0999 V2000
   -3.1633   -4.0182    1.3163 H   0  0  0  0  0  0  0  0  0  0  0  0
   -3.1476   -3.1924    0.5986 C   0  0  0  0  0  0  0  0  0  0  0  0
   -4.0012   -2.5401    0.7968 H   0  0  0  0  0  0  0  0  0  0  0  0
   -3.2367   -3.6052   -0.4091 H   0  0  0  0  0  0  0  0  0  0  0  0
   -1.8524   -2.4144    0.7304 C   0  0  0  0  0  0  0  0  0  0  0  0
   -1.0367   -2.7243    1.5783 O   0  0  0  0  0  0  0  0  0  0  0  0
   -1.5993   -1.3303   -0.0924 N   0  0  0  0  0  0  0  0  0  0  0  0
   -2.2707   -1.1816   -0.8407 H   0  0  0  0  0  0  0  0  0  0  0  0
   -0.2718   -0.6862   -0.1984 C   0  0  1  0  0  0  0  0  0  0  0  0
    0.4315   -1.4960   -0.4313 H   0  0  0  0  0  0  0  0  0  0  0  0
   -0.1685    0.3030   -1.3816 C   0  0  0  0  0  0  0  0  0  0  0  0
    0.8949    0.5059   -1.5560 H   0  0  0  0  0  0  0  0  0  0  0  0
   -0.5474   -0.1864   -2.2844 H   0  0  0  0  0  0  0  0  0  0  0  0
   -0.8659    1.6307   -1.1952 C   0  0  0  0  0  0  0  0  0  0  0  0
   -0.5807    2.5535   -0.1888 N   0  3  0  0  0  0  0  0  0  0  0  0
    0.0888    2.3498    0.5657 H   0  0  0  0  0  0  0  0  0  0  0  0
   -1.3082    3.6329   -0.3320 C   0  0  0  0  0  0  0  0  0  0  0  0
   -1.2953    4.5116    0.3160 H   0  0  0  0  0  0  0  0  0  0  0  0
   -2.0960    3.4451   -1.4661 N   0  0  0  0  0  0  0  0  0  0  0  0
   -2.7550    4.1279   -1.8531 H   0  0  0  0  0  0  0  0  0  0  0  0
   -1.8155    2.1953   -2.0102 C   0  0  0  0  0  0  0  0  0  0  0  0
   -2.2401    1.7591   -2.9145 H   0  0  0  0  0  0  0  0  0  0  0  0
    0.2628   -0.1086    1.1334 C   0  0  0  0  0  0  0  0  0  0  0  0
    1.4431    0.2049    1.1703 O   0  0  0  0  0  0  0  0  0  0  0  0
   -0.5772    0.6205    1.9610 N   0  0  0  0  0  0  0  0  0  0  0  0
   -1.5328    0.2683    1.9682 H   0  0  0  0  0  0  0  0  0  0  0  0
   -0.0896    1.1960    3.2152 C   0  0  0  0  0  0  0  0  0  0  0  0
    0.6839    1.9487    3.0286 H   0  0  0  0  0  0  0  0  0  0  0  0
   -0.9099    1.6753    3.7589 H   0  0  0  0  0  0  0  0  0  0  0  0
    0.3358    0.4137    3.8543 H   0  0  0  0  0  0  0  0  0  0  0  0
  1  2  1  0  0  0  0
  2  3  1  0  0  0  0
  2  4  1  0  0  0  0
  2  5  1  0  0  0  0
  5  6  2  0  0  0  0
  5  7  1  0  0  0  0
  7  8  1  0  0  0  0
  7  9  1  0  0  0  0
  9 10  1  0  0  0  0
  9 11  1  0  0  0  0
  9 23  1  0  0  0  0
 11 12  1  0  0  0  0
 11 13  1  0  0  0  0
 11 14  1  0  0  0  0
 14 15  1  0  0  0  0
 14 21  2  0  0  0  0
 15 16  1  0  0  0  0
 15 17  2  0  0  0  0
 17 18  1  0  0  0  0
 17 19  1  0  0  0  0
 19 20  1  0  0  0  0
 19 21  1  0  0  0  0
 21 22  1  0  0  0  0
 23 24  2  0  0  0  0
 23 25  1  0  0  0  0
 25 26  1  0  0  0  0
 25 27  1  0  0  0  0
 27 28  1  0  0  0  0
 27 29  1  0  0  0  0
 27 30  1  0  0  0  0
M  CHG  1  15   1
M  END
$$$$

  -OEChem-04042216003D

 30 30  0     1  0  0  0  0  0999 V2000
   -3.1463   -4.0214    1.3543 H   0  0  0  0  0  0  0  0  0  0  0  0
   -3.1342   -3.2128    0.6171 C   0  0  0  0  0  0  0  0  0  0  0  0
   -3.9951   -2.5643    0.7948 H   0  0  0  0  0  0  0  0  0  0  0  0
   -3.2133   -3.6507   -0.3808 H   0  0  0  0  0  0  0  0  0  0  0  0
   -1.8467   -2.4202    0.7383 C   0  0  0  0  0  0  0  0  0  0  0  0
   -1.0334   -2.7053    1.5972 O   0  0  0  0  0  0  0  0  0  0  0  0
   -1.5960   -1.3547   -0.1095 N   0  0  0  0  0  0  0  0  0  0  0  0
   -2.2575   -1.2379   -0.8716 H   0  0  0  0  0  0  0  0  0  0  0  0
   -0.2705   -0.7064   -0.2216 C   0  0  1  0  0  0  0  0  0  0  0  0
    0.4395   -1.5127   -0.4452 H   0  0  0  0  0  0  0  0  0  0  0  0
   -0.1652    0.2890   -1.3963 C   0  0  0  0  0  0  0  0  0  0  0  0
    0.8955    0.4918   -1.5855 H   0  0  0  0  0  0  0  0  0  0  0  0
   -0.5613   -0.1873   -2.2988 H   0  0  0  0  0  0  0  0  0  0  0  0
   -0.8683    1.6041   -1.1675 C   0  0  0  0  0  0  0  0  0  0  0  0
   -0.3750    2.6075   -0.3330 N   0  3  0  0  0  0  0  0  0  0  0  0
    0.4381    2.4587    0.2792 H   0  0  0  0  0  0  0  0  0  0  0  0
   -1.1487    3.6631   -0.3805 C   0  0  0  0  0  0  0  0  0  0  0  0
   -1.0178    4.5860    0.1880 H   0  0  0  0  0  0  0  0  0  0  0  0
   -2.1685    3.3818   -1.2885 N   0  0  0  0  0  0  0  0  0  0  0  0
   -2.9171    4.0264   -1.5607 H   0  0  0  0  0  0  0  0  0  0  0  0
   -1.9882    2.0957   -1.7895 C   0  0  0  0  0  0  0  0  0  0  0  0
   -2.5926    1.5884   -2.5414 H   0  0  0  0  0  0  0  0  0  0  0  0
    0.2506   -0.0948    1.1011 C   0  0  0  0  0  0  0  0  0  0  0  0
    1.4278    0.2354    1.1355 O   0  0  0  0  0  0  0  0  0  0  0  0
   -0.6034    0.6481    1.9006 N   0  0  0  0  0  0  0  0  0  0  0  0
   -1.5592    0.2984    1.9016 H   0  0  0  0  0  0  0  0  0  0  0  0
   -0.1360    1.2736    3.1374 C   0  0  0  0  0  0  0  0  0  0  0  0
    0.6211    2.0373    2.9296 H   0  0  0  0  0  0  0  0  0  0  0  0
   -0.9705    1.7512    3.6604 H   0  0  0  0  0  0  0  0  0  0  0  0
    0.3029    0.5218    3.8033 H   0  0  0  0  0  0  0  0  0  0  0  0
  1  2  1  0  0  0  0
  2  3  1  0  0  0  0
  2  4  1  0  0  0  0
  2  5  1  0  0  0  0
  5  6  2  0  0  0  0
  5  7  1  0  0  0  0
  7  8  1  0  0  0  0
  7  9  1  0  0  0  0
  9 10  1  0  0  0  0
  9 11  1  0  0  0  0
  9 23  1  0  0  0  0
 11 12  1  0  0  0  0
 11 13  1  0  0  0  0
 11 14  1  0  0  0  0
 14 15  1  0  0  0  0
 14 21  2  0  0  0  0
 15 16  1  0  0  0  0
 15 17  2  0  0  0  0
 17 18  1  0  0  0  0
 17 19  1  0  0  0  0
 19 20  1  0  0  0  0
 19 21  1  0  0  0  0
 21 22  1  0  0  0  0
 23 24  2  0  0  0  0
 23 25  1  0  0  0  0
 25 26  1  0  0  0  0
 25 27  1  0  0  0  0
 27 28  1  0  0  0  0
 27 29  1  0  0  0  0
 27 30  1  0  0  0  0
M  CHG  1  15   1
M  END
$$$$

  -OEChem-04042216003D

 30 30  0     1  0  0  0  0  0999 V2000
   -3.1488   -4.0272    1.3485 H   0  0  0  0  0  0  0  0  0  0  0  0
   -3.1299   -3.2298    0.5994 C   0  0  0  0  0  0  0  0  0  0  0  0
   -4.0059   -2.5933    0.7433 H   0  0  0  0  0  0  0  0  0  0  0  0
   -3.1739   -3.6841   -0.3933 H   0  0  0  0  0  0  0  0  0  0  0  0
   -1.8602   -2.4130    0.7433 C   0  0  0  0  0  0  0  0  0  0  0  0
   -1.0696   -2.6663    1.6326 O   0  0  0  0  0  0  0  0  0  0  0  0
   -1.6027   -1.3634   -0.1220 N   0  0  0  0  0  0  0  0  0  0  0  0
   -2.2309   -1.2997   -0.9175 H   0  0  0  0  0  0  0  0  0  0  0  0
   -0.2732   -0.7220   -0.2298 C   0  0  1  0  0  0  0  0  0  0  0  0
    0.4368   -1.5302   -0.4461 H   0  0  0  0  0  0  0  0  0  0  0  0
   -0.1632    0.2795   -1.3964 C   0  0  0  0  0  0  0  0  0  0  0  0
    0.8960    0.4788   -1.5974 H   0  0  0  0  0  0  0  0  0  0  0  0
   -0.5746   -0.1827   -2.2993 H   0  0  0  0  0  0  0  0  0  0  0  0
   -0.8676    1.5863   -1.1317 C   0  0  0  0  0  0  0  0  0  0  0  0
   -0.2413    2.6779   -0.5291 N   0  3  0  0  0  0  0  0  0  0  0  0
    0.6871    2.6070   -0.0951 H   0  0  0  0  0  0  0  0  0  0  0  0
   -1.0576    3.7010   -0.4816 C   0  0  0  0  0  0  0  0  0  0  0  0
   -0.8478    4.6735   -0.0321 H   0  0  0  0  0  0  0  0  0  0  0  0
   -2.2426    3.3093   -1.1030 N   0  0  0  0  0  0  0  0  0  0  0  0
   -3.0657    3.9036   -1.2418 H   0  0  0  0  0  0  0  0  0  0  0  0
   -2.1211    1.9870   -1.5199 C   0  0  0  0  0  0  0  0  0  0  0  0
   -2.8575    1.3950   -2.0622 H   0  0  0  0  0  0  0  0  0  0  0  0
    0.2474   -0.0857    1.0819 C   0  0  0  0  0  0  0  0  0  0  0  0
    1.4346    0.2075    1.1262 O   0  0  0  0  0  0  0  0  0  0  0  0
   -0.6034    0.6798    1.8628 N   0  0  0  0  0  0  0  0  0  0  0  0
   -1.5649    0.3477    1.8624 H   0  0  0  0  0  0  0  0  0  0  0  0
   -0.1347    1.3395    3.0806 C   0  0  0  0  0  0  0  0  0  0  0  0
    0.6288    2.0896    2.8493 H   0  0  0  0  0  0  0  0  0  0  0  0
   -0.9662    1.8409    3.5858 H   0  0  0  0  0  0  0  0  0  0  0  0
    0.2965    0.6062    3.7714 H   0  0  0  0  0  0  0  0  0  0  0  0
  1  2  1  0  0  0  0
  2  3  1  0  0  0  0
  2  4  1  0  0  0  0
  2  5  1  0  0  0  0
  5  6  2  0  0  0  0
  5  7  1  0  0  0  0
  7  8  1  0  0  0  0
  7  9  1  0  0  0  0
  9 10  1  0  0  0  0
  9 11  1  0  0  0  0
  9 23  1  0  0  0  0
 11 12  1  0  0  0  0
 11 13  1  0  0  0  0
 11 14  1  0  0  0  0
 14 15  1  0  0  0  0
 14 21  2  0  0  0  0
 15 16  1  0  0  0  0
 15 17  2  0  0  0  0
 17 18  1  0  0  0  0
 17 19  1  0  0  0  0
 19 20  1  0  0  0  0
 19 21  1  0  0  0  0
 21 22  1  0  0  0  0
 23 24  2  0  0  0  0
 23 25  1  0  0  0  0
 25 26  1  0  0  0  0
 25 27  1  0  0  0  0
 27 28  1  0  0  0  0
 27 29  1  0  0  0  0
 27 30  1  0  0  0  0
M  CHG  1  15   1
M  END
$$$$

  -OEChem-04042216003D

 30 30  0     1  0  0  0  0  0999 V2000
   -3.1660   -4.0292    1.3245 H   0  0  0  0  0  0  0  0  0  0  0  0
   -3.1377   -3.2390    0.5680 C   0  0  0  0  0  0  0  0  0  0  0  0
   -4.0263   -2.6137    0.6816 H   0  0  0  0  0  0  0  0  0  0  0  0
   -3.1485   -3.7039   -0.4207 H   0  0  0  0  0  0  0  0  0  0  0  0
   -1.8840   -2.4028    0.7390 C   0  0  0  0  0  0  0  0  0  0  0  0
   -1.1207   -2.6325    1.6580 O   0  0  0  0  0  0  0  0  0  0  0  0
   -1.6152   -1.3603   -0.1321 N   0  0  0  0  0  0  0  0  0  0  0  0
   -2.2052   -1.3416   -0.9585 H   0  0  0  0  0  0  0  0  0  0  0  0
   -0.2779   -0.7317   -0.2262 C   0  0  1  0  0  0  0  0  0  0  0  0
    0.4274   -1.5448   -0.4401 H   0  0  0  0  0  0  0  0  0  0  0  0
   -0.1570    0.2756   -1.3860 C   0  0  0  0  0  0  0  0  0  0  0  0
    0.9047    0.4669   -1.5809 H   0  0  0  0  0  0  0  0  0  0  0  0
   -0.5691   -0.1750   -2.2943 H   0  0  0  0  0  0  0  0  0  0  0  0
   -0.8554    1.5856   -1.1120 C   0  0  0  0  0  0  0  0  0  0  0  0
   -0.1821    2.7632   -0.7849 N   0  3  0  0  0  0  0  0  0  0  0  0
    0.8228    2.7855   -0.5803 H   0  0  0  0  0  0  0  0  0  0  0  0
   -1.0328    3.7492   -0.6425 C   0  0  0  0  0  0  0  0  0  0  0  0
   -0.7917    4.7730   -0.3499 H   0  0  0  0  0  0  0  0  0  0  0  0
   -2.3002    3.2418   -0.9218 N   0  0  0  0  0  0  0  0  0  0  0  0
   -3.1724    3.7798   -0.9088 H   0  0  0  0  0  0  0  0  0  0  0  0
   -2.1897    1.8878   -1.2222 C   0  0  0  0  0  0  0  0  0  0  0  0
   -2.9923    1.2058   -1.4988 H   0  0  0  0  0  0  0  0  0  0  0  0
    0.2476   -0.0888    1.0801 C   0  0  0  0  0  0  0  0  0  0  0  0
    1.4470    0.1443    1.1445 O   0  0  0  0  0  0  0  0  0  0  0  0
   -0.5911    0.6965    1.8539 N   0  0  0  0  0  0  0  0  0  0  0  0
   -1.5584    0.3838    1.8577 H   0  0  0  0  0  0  0  0  0  0  0  0
   -0.1083    1.3785    3.0529 C   0  0  0  0  0  0  0  0  0  0  0  0
    0.6604    2.1155    2.7978 H   0  0  0  0  0  0  0  0  0  0  0  0
   -0.9311    1.8995    3.5521 H   0  0  0  0  0  0  0  0  0  0  0  0
    0.3212    0.6571    3.7571 H   0  0  0  0  0  0  0  0  0  0  0  0
  1  2  1  0  0  0  0
  2  3  1  0  0  0  0
  2  4  1  0  0  0  0
  2  5  1  0  0  0  0
  5  6  2  0  0  0  0
  5  7  1  0  0  0  0
  7  8  1  0  0  0  0
  7  9  1  0  0  0  0
  9 10  1  0  0  0  0
  9 11  1  0  0  0  0
  9 23  1  0  0  0  0
 11 12  1  0  0  0  0
 11 13  1  0  0  0  0
 11 14  1  0  0  0  0
 14 15  1  0  0  0  0
 14 21  2  0  0  0  0
 15 16  1  0  0  0  0
 15 17  2  0  0  0  0
 17 18  1  0  0  0  0
 17 19  1  0  0  0  0
 19 20  1  0  0  0  0
 19 21  1  0  0  0  0
 21 22  1  0  0  0  0
 23 24  2  0  0  0  0
 23 25  1  0  0  0  0
 25 26  1  0  0  0  0
 25 27  1  0  0  0  0
 27 28  1  0  0  0  0
 27 29  1  0  0  0  0
 27 30  1  0  0  0  0
M  CHG  1  15   1
M  END
$$$$

  -OEChem-04042216003D

 30 30  0     1  0  0  0  0  0999 V2000
   -3.1765   -4.0391    1.2896 H   0  0  0  0  0  0  0  0  0  0  0  0
   -3.1405   -3.2518    0.5303 C   0  0  0  0  0  0  0  0  0  0  0  0
   -4.0432   -2.6424    0.6155 H   0  0  0  0  0  0  0  0  0  0  0  0
   -3.1146   -3.7214   -0.4561 H   0  0  0  0  0  0  0  0  0  0  0  0
   -1.9072   -2.3928    0.7332 C   0  0  0  0  0  0  0  0  0  0  0  0
   -1.1716   -2.6009    1.6791 O   0  0  0  0  0  0  0  0  0  0  0  0
   -1.6294   -1.3513   -0.1366 N   0  0  0  0  0  0  0  0  0  0  0  0
   -2.1868   -1.3648   -0.9860 H   0  0  0  0  0  0  0  0  0  0  0  0
   -0.2866   -0.7307   -0.2159 C   0  0  1  0  0  0  0  0  0  0  0  0
    0.4150   -1.5482   -0.4245 H   0  0  0  0  0  0  0  0  0  0  0  0
   -0.1579    0.2726   -1.3789 C   0  0  0  0  0  0  0  0  0  0  0  0
    0.9086    0.4589   -1.5511 H   0  0  0  0  0  0  0  0  0  0  0  0
   -0.5523   -0.1790   -2.2946 H   0  0  0  0  0  0  0  0  0  0  0  0
   -0.8522    1.5921   -1.1294 C   0  0  0  0  0  0  0  0  0  0  0  0
   -0.2000    2.8259   -1.1100 N   0  3  0  0  0  0  0  0  0  0  0  0
    0.8174    2.9162   -1.1924 H   0  0  0  0  0  0  0  0  0  0  0  0
   -1.0513    3.7886   -0.8542 C   0  0  0  0  0  0  0  0  0  0  0  0
   -0.8144    4.8490   -0.7458 H   0  0  0  0  0  0  0  0  0  0  0  0
   -2.3092    3.2031   -0.7301 N   0  0  0  0  0  0  0  0  0  0  0  0
   -3.1808    3.7024   -0.5276 H   0  0  0  0  0  0  0  0  0  0  0  0
   -2.1853    1.8282   -0.8989 C   0  0  0  0  0  0  0  0  0  0  0  0
   -2.9785    1.0840   -0.8492 H   0  0  0  0  0  0  0  0  0  0  0  0
    0.2418   -0.0885    1.0895 C   0  0  0  0  0  0  0  0  0  0  0  0
    1.4480    0.0964    1.1716 O   0  0  0  0  0  0  0  0  0  0  0  0
   -0.5857    0.7079    1.8639 N   0  0  0  0  0  0  0  0  0  0  0  0
   -1.5546    0.4025    1.8782 H   0  0  0  0  0  0  0  0  0  0  0  0
   -0.0871    1.3930    3.0544 C   0  0  0  0  0  0  0  0  0  0  0  0
    0.6959    2.1112    2.7889 H   0  0  0  0  0  0  0  0  0  0  0  0
   -0.8976    1.9368    3.5494 H   0  0  0  0  0  0  0  0  0  0  0  0
    0.3292    0.6708    3.7656 H   0  0  0  0  0  0  0  0  0  0  0  0
  1  2  1  0  0  0  0
  2  3  1  0  0  0  0
  2  4  1  0  0  0  0
  2  5  1  0  0  0  0
  5  6  2  0  0  0  0
  5  7  1  0  0  0  0
  7  8  1  0  0  0  0
  7  9  1  0  0  0  0
  9 10  1  0  0  0  0
  9 11  1  0  0  0  0
  9 23  1  0  0  0  0
 11 12  1  0  0  0  0
 11 13  1  0  0  0  0
 11 14  1  0  0  0  0
 14 15  1  0  0  0  0
 14 21  2  0  0  0  0
 15 16  1  0  0  0  0
 15 17  2  0  0  0  0
 17 18  1  0  0  0  0
 17 19  1  0  0  0  0
 19 20  1  0  0  0  0
 19 21  1  0  0  0  0
 21 22  1  0  0  0  0
 23 24  2  0  0  0  0
 23 25  1  0  0  0  0
 25 26  1  0  0  0  0
 25 27  1  0  0  0  0
 27 28  1  0  0  0  0
 27 29  1  0  0  0  0
 27 30  1  0  0  0  0
M  CHG  1  15   1
M  END
$$$$

  -OEChem-04042216003D

 30 30  0     1  0  0  0  0  0999 V2000
   -3.1603   -4.0887    1.2346 H   0  0  0  0  0  0  0  0  0  0  0  0
   -3.1379   -3.2772    0.5011 C   0  0  0  0  0  0  0  0  0  0  0  0
   -4.0482   -2.6832    0.6090 H   0  0  0  0  0  0  0  0  0  0  0  0
   -3.1090   -3.7143   -0.5000 H   0  0  0  0  0  0  0  0  0  0  0  0
   -1.9158   -2.4082    0.7277 C   0  0  0  0  0  0  0  0  0  0  0  0
   -1.1862   -2.6193    1.6775 O   0  0  0  0  0  0  0  0  0  0  0  0
   -1.6450   -1.3481   -0.1211 N   0  0  0  0  0  0  0  0  0  0  0  0
   -2.2036   -1.3466   -0.9706 H   0  0  0  0  0  0  0  0  0  0  0  0
   -0.3051   -0.7199   -0.1914 C   0  0  1  0  0  0  0  0  0  0  0  0
    0.3953   -1.5367   -0.4079 H   0  0  0  0  0  0  0  0  0  0  0  0
   -0.1744    0.2820   -1.3567 C   0  0  0  0  0  0  0  0  0  0  0  0
    0.8951    0.4721   -1.5038 H   0  0  0  0  0  0  0  0  0  0  0  0
   -0.5450   -0.1773   -2.2787 H   0  0  0  0  0  0  0  0  0  0  0  0
   -0.8707    1.6086   -1.1439 C   0  0  0  0  0  0  0  0  0  0  0  0
   -0.2960    2.8481   -1.4320 N   0  3  0  0  0  0  0  0  0  0  0  0
    0.6647    2.9487   -1.7726 H   0  0  0  0  0  0  0  0  0  0  0  0
   -1.1147    3.8197   -1.1112 C   0  0  0  0  0  0  0  0  0  0  0  0
   -0.9159    4.8897   -1.2009 H   0  0  0  0  0  0  0  0  0  0  0  0
   -2.2770    3.2317   -0.6190 N   0  0  0  0  0  0  0  0  0  0  0  0
   -3.0998    3.7358   -0.2743 H   0  0  0  0  0  0  0  0  0  0  0  0
   -2.1231    1.8500   -0.6335 C   0  0  0  0  0  0  0  0  0  0  0  0
   -2.8388    1.1041   -0.2917 H   0  0  0  0  0  0  0  0  0  0  0  0
    0.2361   -0.0984    1.1190 C   0  0  0  0  0  0  0  0  0  0  0  0
    1.4445    0.0744    1.1918 O   0  0  0  0  0  0  0  0  0  0  0  0
   -0.5795    0.6837    1.9199 N   0  0  0  0  0  0  0  0  0  0  0  0
   -1.5384    0.3528    1.9724 H   0  0  0  0  0  0  0  0  0  0  0  0
   -0.0529    1.3732    3.0962 C   0  0  0  0  0  0  0  0  0  0  0  0
    0.7139    2.1003    2.8075 H   0  0  0  0  0  0  0  0  0  0  0  0
   -0.8539    1.9082    3.6156 H   0  0  0  0  0  0  0  0  0  0  0  0
    0.3928    0.6549    3.7937 H   0  0  0  0  0  0  0  0  0  0  0  0
  1  2  1  0  0  0  0
  2  3  1  0  0  0  0
  2  4  1  0  0  0  0
  2  5  1  0  0  0  0
  5  6  2  0  0  0  0
  5  7  1  0  0  0  0
  7  8  1  0  0  0  0
  7  9  1  0  0  0  0
  9 10  1  0  0  0  0
  9 11  1  0  0  0  0
  9 23  1  0  0  0  0
 11 12  1  0  0  0  0
 11 13  1  0  0  0  0
 11 14  1  0  0  0  0
 14 15  1  0  0  0  0
 14 21  2  0  0  0  0
 15 16  1  0  0  0  0
 15 17  2  0  0  0  0
 17 18  1  0  0  0  0
 17 19  1  0  0  0  0
 19 20  1  0  0  0  0
 19 21  1  0  0  0  0
 21 22  1  0  0  0  0
 23 24  2  0  0  0  0
 23 25  1  0  0  0  0
 25 26  1  0  0  0  0
 25 27  1  0  0  0  0
 27 28  1  0  0  0  0
 27 29  1  0  0  0  0
 27 30  1  0  0  0  0
M  CHG  1  15   1
M  END
$$$$

  -OEChem-04042216003D

 30 30  0     1  0  0  0  0  0999 V2000
   -3.1572   -4.1108    1.2018 H   0  0  0  0  0  0  0  0  0  0  0  0
   -3.1383   -3.2831    0.4864 C   0  0  0  0  0  0  0  0  0  0  0  0
   -4.0433   -2.6858    0.6189 H   0  0  0  0  0  0  0  0  0  0  0  0
   -3.1250   -3.6980   -0.5244 H   0  0  0  0  0  0  0  0  0  0  0  0
   -1.9079   -2.4268    0.7164 C   0  0  0  0  0  0  0  0  0  0  0  0
   -1.1604   -2.6700    1.6444 O   0  0  0  0  0  0  0  0  0  0  0  0
   -1.6513   -1.3371   -0.0981 N   0  0  0  0  0  0  0  0  0  0  0  0
   -2.2355   -1.2891   -0.9290 H   0  0  0  0  0  0  0  0  0  0  0  0
   -0.3175   -0.6967   -0.1636 C   0  0  1  0  0  0  0  0  0  0  0  0
    0.3805   -1.5114   -0.3959 H   0  0  0  0  0  0  0  0  0  0  0  0
   -0.1891    0.3042   -1.3310 C   0  0  0  0  0  0  0  0  0  0  0  0
    0.8812    0.5019   -1.4633 H   0  0  0  0  0  0  0  0  0  0  0  0
   -0.5426   -0.1672   -2.2536 H   0  0  0  0  0  0  0  0  0  0  0  0
   -0.8909    1.6343   -1.1520 C   0  0  0  0  0  0  0  0  0  0  0  0
   -0.4513    2.8313   -1.7219 N   0  3  0  0  0  0  0  0  0  0  0  0
    0.4070    2.9004   -2.2762 H   0  0  0  0  0  0  0  0  0  0  0  0
   -1.2343    3.8230   -1.3729 C   0  0  0  0  0  0  0  0  0  0  0  0
   -1.1133    4.8726   -1.6488 H   0  0  0  0  0  0  0  0  0  0  0  0
   -2.2399    3.2896   -0.5716 N   0  0  0  0  0  0  0  0  0  0  0  0
   -2.9955    3.8217   -0.1288 H   0  0  0  0  0  0  0  0  0  0  0  0
   -2.0249    1.9237   -0.4326 C   0  0  0  0  0  0  0  0  0  0  0  0
   -2.6196    1.2194    0.1465 H   0  0  0  0  0  0  0  0  0  0  0  0
    0.2437   -0.1122    1.1548 C   0  0  0  0  0  0  0  0  0  0  0  0
    1.4529    0.0604    1.2095 O   0  0  0  0  0  0  0  0  0  0  0  0
   -0.5582    0.6401    1.9970 N   0  0  0  0  0  0  0  0  0  0  0  0
   -1.5026    0.2767    2.0870 H   0  0  0  0  0  0  0  0  0  0  0  0
   -0.0016    1.3145    3.1686 C   0  0  0  0  0  0  0  0  0  0  0  0
    0.7435    2.0593    2.8687 H   0  0  0  0  0  0  0  0  0  0  0  0
   -0.7921    1.8265    3.7259 H   0  0  0  0  0  0  0  0  0  0  0  0
    0.4790    0.5902    3.8360 H   0  0  0  0  0  0  0  0  0  0  0  0
  1  2  1  0  0  0  0
  2  3  1  0  0  0  0
  2  4  1  0  0  0  0
  2  5  1  0  0  0  0
  5  6  2  0  0  0  0
  5  7  1  0  0  0  0
  7  8  1  0  0  0  0
  7  9  1  0  0  0  0
  9 10  1  0  0  0  0
  9 11  1  0  0  0  0
  9 23  1  0  0  0  0
 11 12  1  0  0  0  0
 11 13  1  0  0  0  0
 11 14  1  0  0  0  0
 14 15  1  0  0  0  0
 14 21  2  0  0  0  0
 15 16  1  0  0  0  0
 15 17  2  0  0  0  0
 17 18  1  0  0  0  0
 17 19  1  0  0  0  0
 19 20  1  0  0  0  0
 19 21  1  0  0  0  0
 21 22  1  0  0  0  0
 23 24  2  0  0  0  0
 23 25  1  0  0  0  0
 25 26  1  0  0  0  0
 25 27  1  0  0  0  0
 27 28  1  0  0  0  0
 27 29  1  0  0  0  0
 27 30  1  0  0  0  0
M  CHG  1  15   1
M  END
$$$$

  -OEChem-04042216003D

 30 30  0     1  0  0  0  0  0999 V2000
   -3.1353   -4.1474    1.1479 H   0  0  0  0  0  0  0  0  0  0  0  0
   -3.1384   -3.2868    0.4720 C   0  0  0  0  0  0  0  0  0  0  0  0
   -4.0390   -2.6974    0.6594 H   0  0  0  0  0  0  0  0  0  0  0  0
   -3.1559   -3.6533   -0.5571 H   0  0  0  0  0  0  0  0  0  0  0  0
   -1.9007   -2.4415    0.7040 C   0  0  0  0  0  0  0  0  0  0  0  0
   -1.1259   -2.7267    1.5972 O   0  0  0  0  0  0  0  0  0  0  0  0
   -1.6621   -1.3182   -0.0691 N   0  0  0  0  0  0  0  0  0  0  0  0
   -2.2782   -1.2159   -0.8715 H   0  0  0  0  0  0  0  0  0  0  0  0
   -0.3347   -0.6660   -0.1322 C   0  0  1  0  0  0  0  0  0  0  0  0
    0.3582   -1.4792   -0.3847 H   0  0  0  0  0  0  0  0  0  0  0  0
   -0.2042    0.3367   -1.2990 C   0  0  0  0  0  0  0  0  0  0  0  0
    0.8665    0.5386   -1.4241 H   0  0  0  0  0  0  0  0  0  0  0  0
   -0.5482   -0.1457   -2.2194 H   0  0  0  0  0  0  0  0  0  0  0  0
   -0.9067    1.6709   -1.1518 C   0  0  0  0  0  0  0  0  0  0  0  0
   -0.6369    2.7758   -1.9635 N   0  3  0  0  0  0  0  0  0  0  0  0
    0.0942    2.7726   -2.6803 H   0  0  0  0  0  0  0  0  0  0  0  0
   -1.3805    3.7980   -1.6165 C   0  0  0  0  0  0  0  0  0  0  0  0
   -1.3594    4.7961   -2.0592 H   0  0  0  0  0  0  0  0  0  0  0  0
   -2.1939    3.3755   -0.5693 N   0  0  0  0  0  0  0  0  0  0  0  0
   -2.8766    3.9554   -0.0714 H   0  0  0  0  0  0  0  0  0  0  0  0
   -1.9024    2.0473   -0.2835 C   0  0  0  0  0  0  0  0  0  0  0  0
   -2.3620    1.4266    0.4830 H   0  0  0  0  0  0  0  0  0  0  0  0
    0.2539   -0.1274    1.1933 C   0  0  0  0  0  0  0  0  0  0  0  0
    1.4628    0.0523    1.2219 O   0  0  0  0  0  0  0  0  0  0  0  0
   -0.5285    0.5876    2.0845 N   0  0  0  0  0  0  0  0  0  0  0  0
   -1.4575    0.1937    2.2071 H   0  0  0  0  0  0  0  0  0  0  0  0
    0.0639    1.2352    3.2540 C   0  0  0  0  0  0  0  0  0  0  0  0
    0.7873    1.9987    2.9474 H   0  0  0  0  0  0  0  0  0  0  0  0
   -0.7105    1.7197    3.8567 H   0  0  0  0  0  0  0  0  0  0  0  0
    0.5797    0.4985    3.8804 H   0  0  0  0  0  0  0  0  0  0  0  0
  1  2  1  0  0  0  0
  2  3  1  0  0  0  0
  2  4  1  0  0  0  0
  2  5  1  0  0  0  0
  5  6  2  0  0  0  0
  5  7  1  0  0  0  0
  7  8  1  0  0  0  0
  7  9  1  0  0  0  0
  9 10  1  0  0  0  0
  9 11  1  0  0  0  0
  9 23  1  0  0  0  0
 11 12  1  0  0  0  0
 11 13  1  0  0  0  0
 11 14  1  0  0  0  0
 14 15  1  0  0  0  0
 14 21  2  0  0  0  0
 15 16  1  0  0  0  0
 15 17  2  0  0  0  0
 17 18  1  0  0  0  0
 17 19  1  0  0  0  0
 19 20  1  0  0  0  0
 19 21  1  0  0  0  0
 21 22  1  0  0  0  0
 23 24  2  0  0  0  0
 23 25  1  0  0  0  0
 25 26  1  0  0  0  0
 25 27  1  0  0  0  0
 27 28  1  0  0  0  0
 27 29  1  0  0  0  0
 27 30  1  0  0  0  0
M  CHG  1  15   1
M  END
$$$$

  -OEChem-04042216003D

 30 30  0     1  0  0  0  0  0999 V2000
   -3.1731   -4.1147    1.0479 H   0  0  0  0  0  0  0  0  0  0  0  0
   -3.1767   -3.2036    0.4420 C   0  0  0  0  0  0  0  0  0  0  0  0
   -4.0190   -2.5807    0.7518 H   0  0  0  0  0  0  0  0  0  0  0  0
   -3.3029   -3.4829   -0.6068 H   0  0  0  0  0  0  0  0  0  0  0  0
   -1.8724   -2.4522    0.6277 C   0  0  0  0  0  0  0  0  0  0  0  0
   -1.0189   -2.8826    1.3805 O   0  0  0  0  0  0  0  0  0  0  0  0
   -1.6510   -1.2577   -0.0352 N   0  0  0  0  0  0  0  0  0  0  0  0
   -2.3666   -0.9780   -0.7006 H   0  0  0  0  0  0  0  0  0  0  0  0
   -0.3367   -0.5810   -0.0735 C   0  0  1  0  0  0  0  0  0  0  0  0
    0.3427   -1.3959   -0.3572 H   0  0  0  0  0  0  0  0  0  0  0  0
   -0.1763    0.4101   -1.2510 C   0  0  0  0  0  0  0  0  0  0  0  0
    0.8907    0.4120   -1.5032 H   0  0  0  0  0  0  0  0  0  0  0  0
   -0.7063   -0.0021   -2.1154 H   0  0  0  0  0  0  0  0  0  0  0  0
   -0.5762    1.8653   -1.0892 C   0  0  0  0  0  0  0  0  0  0  0  0
   -0.4398    2.7839   -2.1355 N   0  3  0  0  0  0  0  0  0  0  0  0
   -0.0113    2.5415   -3.0331 H   0  0  0  0  0  0  0  0  0  0  0  0
   -0.8469    3.9749   -1.7708 C   0  0  0  0  0  0  0  0  0  0  0  0
   -0.8223    4.8847   -2.3743 H   0  0  0  0  0  0  0  0  0  0  0  0
   -1.3050    3.8641   -0.4631 N   0  0  0  0  0  0  0  0  0  0  0  0
   -1.6746    4.6305    0.1079 H   0  0  0  0  0  0  0  0  0  0  0  0
   -1.1461    2.5500   -0.0415 C   0  0  0  0  0  0  0  0  0  0  0  0
   -1.4216    2.1593    0.9328 H   0  0  0  0  0  0  0  0  0  0  0  0
    0.2794   -0.1610    1.2799 C   0  0  0  0  0  0  0  0  0  0  0  0
    1.4858    0.0338    1.3008 O   0  0  0  0  0  0  0  0  0  0  0  0
   -0.4890    0.4514    2.2555 N   0  0  0  0  0  0  0  0  0  0  0  0
   -1.4349    0.0824    2.3190 H   0  0  0  0  0  0  0  0  0  0  0  0
    0.1116    0.9346    3.4984 C   0  0  0  0  0  0  0  0  0  0  0  0
    0.8461    1.7212    3.2943 H   0  0  0  0  0  0  0  0  0  0  0  0
   -0.6571    1.3468    4.1596 H   0  0  0  0  0  0  0  0  0  0  0  0
    0.6163    0.1159    4.0238 H   0  0  0  0  0  0  0  0  0  0  0  0
  1  2  1  0  0  0  0
  2  3  1  0  0  0  0
  2  4  1  0  0  0  0
  2  5  1  0  0  0  0
  5  6  2  0  0  0  0
  5  7  1  0  0  0  0
  7  8  1  0  0  0  0
  7  9  1  0  0  0  0
  9 10  1  0  0  0  0
  9 11  1  0  0  0  0
  9 23  1  0  0  0  0
 11 12  1  0  0  0  0
 11 13  1  0  0  0  0
 11 14  1  0  0  0  0
 14 15  1  0  0  0  0
 14 21  2  0  0  0  0
 15 16  1  0  0  0  0
 15 17  2  0  0  0  0
 17 18  1  0  0  0  0
 17 19  1  0  0  0  0
 19 20  1  0  0  0  0
 19 21  1  0  0  0  0
 21 22  1  0  0  0  0
 23 24  2  0  0  0  0
 23 25  1  0  0  0  0
 25 26  1  0  0  0  0
 25 27  1  0  0  0  0
 27 28  1  0  0  0  0
 27 29  1  0  0  0  0
 27 30  1  0  0  0  0
M  CHG  1  15   1
M  END
$$$$

  -OEChem-04042216003D

 30 30  0     1  0  0  0  0  0999 V2000
   -3.1943   -4.0670    1.0997 H   0  0  0  0  0  0  0  0  0  0  0  0
   -3.1877   -3.1593    0.4889 C   0  0  0  0  0  0  0  0  0  0  0  0
   -3.9938   -2.5042    0.8272 H   0  0  0  0  0  0  0  0  0  0  0  0
   -3.3638   -3.4381   -0.5526 H   0  0  0  0  0  0  0  0  0  0  0  0
   -1.8514   -2.4549    0.6196 C   0  0  0  0  0  0  0  0  0  0  0  0
   -0.9789   -2.9223    1.3271 O   0  0  0  0  0  0  0  0  0  0  0  0
   -1.6235   -1.2606   -0.0412 N   0  0  0  0  0  0  0  0  0  0  0  0
   -2.3694   -0.9312   -0.6476 H   0  0  0  0  0  0  0  0  0  0  0  0
   -0.3103   -0.5820   -0.0812 C   0  0  1  0  0  0  0  0  0  0  0  0
    0.3792   -1.3866   -0.3697 H   0  0  0  0  0  0  0  0  0  0  0  0
   -0.1757    0.4189   -1.2566 C   0  0  0  0  0  0  0  0  0  0  0  0
    0.8839    0.4223   -1.5388 H   0  0  0  0  0  0  0  0  0  0  0  0
   -0.7261   -0.0012   -2.1044 H   0  0  0  0  0  0  0  0  0  0  0  0
   -0.5751    1.8775   -1.1058 C   0  0  0  0  0  0  0  0  0  0  0  0
   -0.7518    2.7038   -2.2216 N   0  3  0  0  0  0  0  0  0  0  0  0
   -0.6275    2.3722   -3.1821 H   0  0  0  0  0  0  0  0  0  0  0  0
   -1.0291    3.9325   -1.8600 C   0  0  0  0  0  0  0  0  0  0  0  0
   -1.1960    4.7848   -2.5220 H   0  0  0  0  0  0  0  0  0  0  0  0
   -1.0504    3.9508   -0.4708 N   0  0  0  0  0  0  0  0  0  0  0  0
   -1.2039    4.7779    0.1147 H   0  0  0  0  0  0  0  0  0  0  0  0
   -0.7533    2.6783   -0.0011 C   0  0  0  0  0  0  0  0  0  0  0  0
   -0.6358    2.4075    1.0429 H   0  0  0  0  0  0  0  0  0  0  0  0
    0.2703   -0.1775    1.2908 C   0  0  0  0  0  0  0  0  0  0  0  0
    1.4730    0.0289    1.3512 O   0  0  0  0  0  0  0  0  0  0  0  0
   -0.5319    0.4194    2.2495 N   0  0  0  0  0  0  0  0  0  0  0  0
   -1.4956    0.0934    2.2416 H   0  0  0  0  0  0  0  0  0  0  0  0
    0.0151    0.8344    3.5411 C   0  0  0  0  0  0  0  0  0  0  0  0
    0.7731    1.6143    3.4102 H   0  0  0  0  0  0  0  0  0  0  0  0
   -0.7783    1.2312    4.1820 H   0  0  0  0  0  0  0  0  0  0  0  0
    0.4779   -0.0174    4.0525 H   0  0  0  0  0  0  0  0  0  0  0  0
  1  2  1  0  0  0  0
  2  3  1  0  0  0  0
  2  4  1  0  0  0  0
  2  5  1  0  0  0  0
  5  6  2  0  0  0  0
  5  7  1  0  0  0  0
  7  8  1  0  0  0  0
  7  9  1  0  0  0  0
  9 10  1  0  0  0  0
  9 11  1  0  0  0  0
  9 23  1  0  0  0  0
 11 12  1  0  0  0  0
 11 13  1  0  0  0  0
 11 14  1  0  0  0  0
 14 15  1  0  0  0  0
 14 21  2  0  0  0  0
 15 16  1  0  0  0  0
 15 17  2  0  0  0  0
 17 18  1  0  0  0  0
 17 19  1  0  0  0  0
 19 20  1  0  0  0  0
 19 21  1  0  0  0  0
 21 22  1  0  0  0  0
 23 24  2  0  0  0  0
 23 25  1  0  0  0  0
 25 26  1  0  0  0  0
 25 27  1  0  0  0  0
 27 28  1  0  0  0  0
 27 29  1  0  0  0  0
 27 30  1  0  0  0  0
M  CHG  1  15   1
M  END
$$$$

  -OEChem-04042216003D

 30 30  0     1  0  0  0  0  0999 V2000
   -3.1756   -4.0458    1.1901 H   0  0  0  0  0  0  0  0  0  0  0  0
   -3.1664   -3.1632    0.5436 C   0  0  0  0  0  0  0  0  0  0  0  0
   -3.9728   -2.4945    0.8533 H   0  0  0  0  0  0  0  0  0  0  0  0
   -3.3399   -3.4835   -0.4865 H   0  0  0  0  0  0  0  0  0  0  0  0
   -1.8291   -2.4561    0.6507 C   0  0  0  0  0  0  0  0  0  0  0  0
   -0.9622   -2.8954    1.3826 O   0  0  0  0  0  0  0  0  0  0  0  0
   -1.5901   -1.2979   -0.0687 N   0  0  0  0  0  0  0  0  0  0  0  0
   -2.3297   -0.9959   -0.6964 H   0  0  0  0  0  0  0  0  0  0  0  0
   -0.2737   -0.6245   -0.1251 C   0  0  1  0  0  0  0  0  0  0  0  0
    0.4319   -1.4208   -0.3959 H   0  0  0  0  0  0  0  0  0  0  0  0
   -0.1767    0.3853   -1.2985 C   0  0  0  0  0  0  0  0  0  0  0  0
    0.8744    0.4041   -1.6100 H   0  0  0  0  0  0  0  0  0  0  0  0
   -0.7440   -0.0243   -2.1397 H   0  0  0  0  0  0  0  0  0  0  0  0
   -0.5831    1.8343   -1.0899 C   0  0  0  0  0  0  0  0  0  0  0  0
   -1.1108    2.6418   -2.1038 N   0  3  0  0  0  0  0  0  0  0  0  0
   -1.3293    2.2880   -3.0389 H   0  0  0  0  0  0  0  0  0  0  0  0
   -1.2335    3.8832   -1.6997 C   0  0  0  0  0  0  0  0  0  0  0  0
   -1.6117    4.7245   -2.2842 H   0  0  0  0  0  0  0  0  0  0  0  0
   -0.7649    3.9344   -0.3919 N   0  0  0  0  0  0  0  0  0  0  0  0
   -0.6812    4.7788    0.1830 H   0  0  0  0  0  0  0  0  0  0  0  0
   -0.3249    2.6698   -0.0272 C   0  0  0  0  0  0  0  0  0  0  0  0
    0.1958    2.4155    0.8958 H   0  0  0  0  0  0  0  0  0  0  0  0
    0.2579   -0.1632    1.2485 C   0  0  0  0  0  0  0  0  0  0  0  0
    1.4546    0.0645    1.3465 O   0  0  0  0  0  0  0  0  0  0  0  0
   -0.5869    0.4732    2.1439 N   0  0  0  0  0  0  0  0  0  0  0  0
   -1.5569    0.1735    2.0840 H   0  0  0  0  0  0  0  0  0  0  0  0
   -0.1109    0.9164    3.4535 C   0  0  0  0  0  0  0  0  0  0  0  0
    0.6976    1.6478    3.3492 H   0  0  0  0  0  0  0  0  0  0  0  0
   -0.9247    1.3841    4.0165 H   0  0  0  0  0  0  0  0  0  0  0  0
    0.2643    0.0643    4.0311 H   0  0  0  0  0  0  0  0  0  0  0  0
  1  2  1  0  0  0  0
  2  3  1  0  0  0  0
  2  4  1  0  0  0  0
  2  5  1  0  0  0  0
  5  6  2  0  0  0  0
  5  7  1  0  0  0  0
  7  8  1  0  0  0  0
  7  9  1  0  0  0  0
  9 10  1  0  0  0  0
  9 11  1  0  0  0  0
  9 23  1  0  0  0  0
 11 12  1  0  0  0  0
 11 13  1  0  0  0  0
 11 14  1  0  0  0  0
 14 15  1  0  0  0  0
 14 21  2  0  0  0  0
 15 16  1  0  0  0  0
 15 17  2  0  0  0  0
 17 18  1  0  0  0  0
 17 19  1  0  0  0  0
 19 20  1  0  0  0  0
 19 21  1  0  0  0  0
 21 22  1  0  0  0  0
 23 24  2  0  0  0  0
 23 25  1  0  0  0  0
 25 26  1  0  0  0  0
 25 27  1  0  0  0  0
 27 28  1  0  0  0  0
 27 29  1  0  0  0  0
 27 30  1  0  0  0  0
M  CHG  1  15   1
M  END
$$$$

  -OEChem-04042216003D

 30 30  0     1  0  0  0  0  0999 V2000
   -3.1932   -4.0275    1.2122 H   0  0  0  0  0  0  0  0  0  0  0  0
   -3.1696   -3.1633    0.5416 C   0  0  0  0  0  0  0  0  0  0  0  0
   -3.9935   -2.4953    0.8029 H   0  0  0  0  0  0  0  0  0  0  0  0
   -3.3023   -3.5144   -0.4845 H   0  0  0  0  0  0  0  0  0  0  0  0
   -1.8446   -2.4379    0.6770 C   0  0  0  0  0  0  0  0  0  0  0  0
   -1.0072   -2.8368    1.4641 O   0  0  0  0  0  0  0  0  0  0  0  0
   -1.5848   -1.3103   -0.0829 N   0  0  0  0  0  0  0  0  0  0  0  0
   -2.2865   -1.0698   -0.7764 H   0  0  0  0  0  0  0  0  0  0  0  0
   -0.2592   -0.6551   -0.1433 C   0  0  1  0  0  0  0  0  0  0  0  0
    0.4439   -1.4594   -0.3960 H   0  0  0  0  0  0  0  0  0  0  0  0
   -0.1614    0.3485   -1.3213 C   0  0  0  0  0  0  0  0  0  0  0  0
    0.8895    0.3688   -1.6334 H   0  0  0  0  0  0  0  0  0  0  0  0
   -0.7299   -0.0480   -2.1677 H   0  0  0  0  0  0  0  0  0  0  0  0
   -0.5641    1.7900   -1.0687 C   0  0  0  0  0  0  0  0  0  0  0  0
   -1.3685    2.5612   -1.9137 N   0  3  0  0  0  0  0  0  0  0  0  0
   -1.8170    2.1846   -2.7526 H   0  0  0  0  0  0  0  0  0  0  0  0
   -1.4184    3.8052   -1.5007 C   0  0  0  0  0  0  0  0  0  0  0  0
   -1.9669    4.6250   -1.9690 H   0  0  0  0  0  0  0  0  0  0  0  0
   -0.6205    3.8928   -0.3646 N   0  0  0  0  0  0  0  0  0  0  0  0
   -0.4280    4.7453    0.1707 H   0  0  0  0  0  0  0  0  0  0  0  0
   -0.0604    2.6475   -0.1178 C   0  0  0  0  0  0  0  0  0  0  0  0
    0.6716    2.4029    0.6553 H   0  0  0  0  0  0  0  0  0  0  0  0
    0.2655   -0.1453    1.2168 C   0  0  0  0  0  0  0  0  0  0  0  0
    1.4666    0.0574    1.3238 O   0  0  0  0  0  0  0  0  0  0  0  0
   -0.5787    0.5388    2.0761 N   0  0  0  0  0  0  0  0  0  0  0  0
   -1.5541    0.2588    2.0121 H   0  0  0  0  0  0  0  0  0  0  0  0
   -0.1131    1.0342    3.3704 C   0  0  0  0  0  0  0  0  0  0  0  0
    0.7141    1.7410    3.2443 H   0  0  0  0  0  0  0  0  0  0  0  0
   -0.9246    1.5474    3.8959 H   0  0  0  0  0  0  0  0  0  0  0  0
    0.2330    0.2031    3.9951 H   0  0  0  0  0  0  0  0  0  0  0  0
  1  2  1  0  0  0  0
  2  3  1  0  0  0  0
  2  4  1  0  0  0  0
  2  5  1  0  0  0  0
  5  6  2  0  0  0  0
  5  7  1  0  0  0  0
  7  8  1  0  0  0  0
  7  9  1  0  0  0  0
  9 10  1  0  0  0  0
  9 11  1  0  0  0  0
  9 23  1  0  0  0  0
 11 12  1  0  0  0  0
 11 13  1  0  0  0  0
 11 14  1  0  0  0  0
 14 15  1  0  0  0  0
 14 21  2  0  0  0  0
 15 16  1  0  0  0  0
 15 17  2  0  0  0  0
 17 18  1  0  0  0  0
 17 19  1  0  0  0  0
 19 20  1  0  0  0  0
 19 21  1  0  0  0  0
 21 22  1  0  0  0  0
 23 24  2  0  0  0  0
 23 25  1  0  0  0  0
 25 26  1  0  0  0  0
 25 27  1  0  0  0  0
 27 28  1  0  0  0  0
 27 29  1  0  0  0  0
 27 30  1  0  0  0  0
M  CHG  1  15   1
M  END
$$$$

  -OEChem-04042216003D

 30 30  0     1  0  0  0  0  0999 V2000
   -3.1960   -4.0128    1.2471 H   0  0  0  0  0  0  0  0  0  0  0  0
   -3.1652   -3.1713    0.5484 C   0  0  0  0  0  0  0  0  0  0  0  0
   -4.0053   -2.5071    0.7641 H   0  0  0  0  0  0  0  0  0  0  0  0
   -3.2640   -3.5591   -0.4682 H   0  0  0  0  0  0  0  0  0  0  0  0
   -1.8547   -2.4224    0.6959 C   0  0  0  0  0  0  0  0  0  0  0  0
   -1.0396   -2.7775    1.5262 O   0  0  0  0  0  0  0  0  0  0  0  0
   -1.5850   -1.3226   -0.1008 N   0  0  0  0  0  0  0  0  0  0  0  0
   -2.2532   -1.1452   -0.8443 H   0  0  0  0  0  0  0  0  0  0  0  0
   -0.2536   -0.6794   -0.1679 C   0  0  1  0  0  0  0  0  0  0  0  0
    0.4493   -1.4889   -0.4037 H   0  0  0  0  0  0  0  0  0  0  0  0
   -0.1489    0.3184   -1.3482 C   0  0  0  0  0  0  0  0  0  0  0  0
    0.9027    0.3360   -1.6586 H   0  0  0  0  0  0  0  0  0  0  0  0
   -0.7183   -0.0622   -2.2012 H   0  0  0  0  0  0  0  0  0  0  0  0
   -0.5458    1.7513   -1.0557 C   0  0  0  0  0  0  0  0  0  0  0  0
   -1.5652    2.4818   -1.6720 N   0  3  0  0  0  0  0  0  0  0  0  0
   -2.2014    2.0793   -2.3643 H   0  0  0  0  0  0  0  0  0  0  0  0
   -1.5513    3.7277   -1.2605 C   0  0  0  0  0  0  0  0  0  0  0  0
   -2.2303    4.5237   -1.5725 H   0  0  0  0  0  0  0  0  0  0  0  0
   -0.4956    3.8541   -0.3619 N   0  0  0  0  0  0  0  0  0  0  0  0
   -0.2137    4.7139    0.1193 H   0  0  0  0  0  0  0  0  0  0  0  0
    0.1487    2.6299   -0.2584 C   0  0  0  0  0  0  0  0  0  0  0  0
    1.0402    2.3986    0.3306 H   0  0  0  0  0  0  0  0  0  0  0  0
    0.2628   -0.1271    1.1805 C   0  0  0  0  0  0  0  0  0  0  0  0
    1.4653    0.0670    1.2935 O   0  0  0  0  0  0  0  0  0  0  0  0
   -0.5847    0.5926    2.0067 N   0  0  0  0  0  0  0  0  0  0  0  0
   -1.5608    0.3150    1.9480 H   0  0  0  0  0  0  0  0  0  0  0  0
   -0.1247    1.1520    3.2761 C   0  0  0  0  0  0  0  0  0  0  0  0
    0.6594    1.8982    3.1111 H   0  0  0  0  0  0  0  0  0  0  0  0
   -0.9537    1.6366    3.8012 H   0  0  0  0  0  0  0  0  0  0  0  0
    0.2769    0.3613    3.9201 H   0  0  0  0  0  0  0  0  0  0  0  0
  1  2  1  0  0  0  0
  2  3  1  0  0  0  0
  2  4  1  0  0  0  0
  2  5  1  0  0  0  0
  5  6  2  0  0  0  0
  5  7  1  0  0  0  0
  7  8  1  0  0  0  0
  7  9  1  0  0  0  0
  9 10  1  0  0  0  0
  9 11  1  0  0  0  0
  9 23  1  0  0  0  0
 11 12  1  0  0  0  0
 11 13  1  0  0  0  0
 11 14  1  0  0  0  0
 14 15  1  0  0  0  0
 14 21  2  0  0  0  0
 15 16  1  0  0  0  0
 15 17  2  0  0  0  0
 17 18  1  0  0  0  0
 17 19  1  0  0  0  0
 19 20  1  0  0  0  0
 19 21  1  0  0  0  0
 21 22  1  0  0  0  0
 23 24  2  0  0  0  0
 23 25  1  0  0  0  0
 25 26  1  0  0  0  0
 25 27  1  0  0  0  0
 27 28  1  0  0  0  0
 27 29  1  0  0  0  0
 27 30  1  0  0  0  0
M  CHG  1  15   1
M  END
$$$$

  -OEChem-04042216003D

 30 30  0     1  0  0  0  0  0999 V2000
   -3.1917   -4.0080    1.2728 H   0  0  0  0  0  0  0  0  0  0  0  0
   -3.1559   -3.1918    0.5447 C   0  0  0  0  0  0  0  0  0  0  0  0
   -4.0203   -2.5432    0.7041 H   0  0  0  0  0  0  0  0  0  0  0  0
   -3.2062   -3.6189   -0.4597 H   0  0  0  0  0  0  0  0  0  0  0  0
   -1.8715   -2.4031    0.7131 C   0  0  0  0  0  0  0  0  0  0  0  0
   -1.0823   -2.7057    1.5878 O   0  0  0  0  0  0  0  0  0  0  0  0
   -1.6000   -1.3249   -0.1125 N   0  0  0  0  0  0  0  0  0  0  0  0
   -2.2288   -1.2222   -0.9030 H   0  0  0  0  0  0  0  0  0  0  0  0
   -0.2638   -0.6915   -0.1880 C   0  0  1  0  0  0  0  0  0  0  0  0
    0.4354   -1.5081   -0.4103 H   0  0  0  0  0  0  0  0  0  0  0  0
   -0.1464    0.2991   -1.3706 C   0  0  0  0  0  0  0  0  0  0  0  0
    0.9060    0.3077   -1.6784 H   0  0  0  0  0  0  0  0  0  0  0  0
   -0.7188   -0.0688   -2.2275 H   0  0  0  0  0  0  0  0  0  0  0  0
   -0.5338    1.7280   -1.0553 C   0  0  0  0  0  0  0  0  0  0  0  0
   -1.7005    2.4041   -1.4200 N   0  3  0  0  0  0  0  0  0  0  0  0
   -2.4623    1.9657   -1.9427 H   0  0  0  0  0  0  0  0  0  0  0  0
   -1.6455    3.6538   -1.0222 C   0  0  0  0  0  0  0  0  0  0  0  0
   -2.4114    4.4177   -1.1704 H   0  0  0  0  0  0  0  0  0  0  0  0
   -0.4209    3.8320   -0.3828 N   0  0  0  0  0  0  0  0  0  0  0  0
   -0.0819    4.7031    0.0373 H   0  0  0  0  0  0  0  0  0  0  0  0
    0.2792    2.6348   -0.4193 C   0  0  0  0  0  0  0  0  0  0  0  0
    1.2728    2.4302   -0.0119 H   0  0  0  0  0  0  0  0  0  0  0  0
    0.2590   -0.1057    1.1449 C   0  0  0  0  0  0  0  0  0  0  0  0
    1.4631    0.0885    1.2444 O   0  0  0  0  0  0  0  0  0  0  0  0
   -0.5820    0.6428    1.9517 N   0  0  0  0  0  0  0  0  0  0  0  0
   -1.5559    0.3537    1.9179 H   0  0  0  0  0  0  0  0  0  0  0  0
   -0.1086    1.2477    3.1948 C   0  0  0  0  0  0  0  0  0  0  0  0
    0.6833    1.9772    2.9948 H   0  0  0  0  0  0  0  0  0  0  0  0
   -0.9286    1.7628    3.7046 H   0  0  0  0  0  0  0  0  0  0  0  0
    0.2879    0.4788    3.8675 H   0  0  0  0  0  0  0  0  0  0  0  0
  1  2  1  0  0  0  0
  2  3  1  0  0  0  0
  2  4  1  0  0  0  0
  2  5  1  0  0  0  0
  5  6  2  0  0  0  0
  5  7  1  0  0  0  0
  7  8  1  0  0  0  0
  7  9  1  0  0  0  0
  9 10  1  0  0  0  0
  9 11  1  0  0  0  0
  9 23  1  0  0  0  0
 11 12  1  0  0  0  0
 11 13  1  0  0  0  0
 11 14  1  0  0  0  0
 14 15  1  0  0  0  0
 14 21  2  0  0  0  0
 15 16  1  0  0  0  0
 15 17  2  0  0  0  0
 17 18  1  0  0  0  0
 17 19  1  0  0  0  0
 19 20  1  0  0  0  0
 19 21  1  0  0  0  0
 21 22  1  0  0  0  0
 23 24  2  0  0  0  0
 23 25  1  0  0  0  0
 25 26  1  0  0  0  0
 25 27  1  0  0  0  0
 27 28  1  0  0  0  0
 27 29  1  0  0  0  0
 27 30  1  0  0  0  0
M  CHG  1  15   1
M  END
$$$$

  -OEChem-04042216003D

 30 30  0     1  0  0  0  0  0999 V2000
   -3.1875   -4.0095    1.2736 H   0  0  0  0  0  0  0  0  0  0  0  0
   -3.1500   -3.2074    0.5301 C   0  0  0  0  0  0  0  0  0  0  0  0
   -4.0362   -2.5795    0.6480 H   0  0  0  0  0  0  0  0  0  0  0  0
   -3.1560   -3.6564   -0.4661 H   0  0  0  0  0  0  0  0  0  0  0  0
   -1.8931   -2.3809    0.7229 C   0  0  0  0  0  0  0  0  0  0  0  0
   -1.1315   -2.6375    1.6360 O   0  0  0  0  0  0  0  0  0  0  0  0
   -1.6171   -1.3205   -0.1242 N   0  0  0  0  0  0  0  0  0  0  0  0
   -2.2075   -1.2815   -0.9497 H   0  0  0  0  0  0  0  0  0  0  0  0
   -0.2751   -0.6992   -0.2028 C   0  0  1  0  0  0  0  0  0  0  0  0
    0.4184   -1.5232   -0.4140 H   0  0  0  0  0  0  0  0  0  0  0  0
   -0.1489    0.2827   -1.3896 C   0  0  0  0  0  0  0  0  0  0  0  0
    0.9027    0.2808   -1.7005 H   0  0  0  0  0  0  0  0  0  0  0  0
   -0.7290   -0.0763   -2.2450 H   0  0  0  0  0  0  0  0  0  0  0  0
   -0.5283    1.7089   -1.0595 C   0  0  0  0  0  0  0  0  0  0  0  0
   -1.7810    2.3180   -1.1536 N   0  3  0  0  0  0  0  0  0  0  0  0
   -2.6183    1.8305   -1.4793 H   0  0  0  0  0  0  0  0  0  0  0  0
   -1.7041    3.5729   -0.7777 C   0  0  0  0  0  0  0  0  0  0  0  0
   -2.5234    4.2939   -0.7470 H   0  0  0  0  0  0  0  0  0  0  0  0
   -0.3792    3.8199   -0.4248 N   0  0  0  0  0  0  0  0  0  0  0  0
   -0.0050    4.7076   -0.0755 H   0  0  0  0  0  0  0  0  0  0  0  0
    0.3556    2.6568   -0.6063 C   0  0  0  0  0  0  0  0  0  0  0  0
    1.4166    2.4979   -0.3996 H   0  0  0  0  0  0  0  0  0  0  0  0
    0.2572   -0.0890    1.1165 C   0  0  0  0  0  0  0  0  0  0  0  0
    1.4634    0.0978    1.2039 O   0  0  0  0  0  0  0  0  0  0  0  0
   -0.5741    0.6859    1.9086 N   0  0  0  0  0  0  0  0  0  0  0  0
   -1.5454    0.3870    1.9026 H   0  0  0  0  0  0  0  0  0  0  0  0
   -0.0846    1.3316    3.1245 C   0  0  0  0  0  0  0  0  0  0  0  0
    0.7109    2.0471    2.8910 H   0  0  0  0  0  0  0  0  0  0  0  0
   -0.8958    1.8716    3.6222 H   0  0  0  0  0  0  0  0  0  0  0  0
    0.3119    0.5848    3.8213 H   0  0  0  0  0  0  0  0  0  0  0  0
  1  2  1  0  0  0  0
  2  3  1  0  0  0  0
  2  4  1  0  0  0  0
  2  5  1  0  0  0  0
  5  6  2  0  0  0  0
  5  7  1  0  0  0  0
  7  8  1  0  0  0  0
  7  9  1  0  0  0  0
  9 10  1  0  0  0  0
  9 11  1  0  0  0  0
  9 23  1  0  0  0  0
 11 12  1  0  0  0  0
 11 13  1  0  0  0  0
 11 14  1  0  0  0  0
 14 15  1  0  0  0  0
 14 21  2  0  0  0  0
 15 16  1  0  0  0  0
 15 17  2  0  0  0  0
 17 18  1  0  0  0  0
 17 19  1  0  0  0  0
 19 20  1  0  0  0  0
 19 21  1  0  0  0  0
 21 22  1  0  0  0  0
 23 24  2  0  0  0  0
 23 25  1  0  0  0  0
 25 26  1  0  0  0  0
 25 27  1  0  0  0  0
 27 28  1  0  0  0  0
 27 29  1  0  0  0  0
 27 30  1  0  0  0  0
M  CHG  1  15   1
M  END
$$$$

  -OEChem-04042216003D

 30 30  0     1  0  0  0  0  0999 V2000
   -3.1895   -4.0173    1.2583 H   0  0  0  0  0  0  0  0  0  0  0  0
   -3.1501   -3.2204    0.5096 C   0  0  0  0  0  0  0  0  0  0  0  0
   -4.0505   -2.6090    0.6023 H   0  0  0  0  0  0  0  0  0  0  0  0
   -3.1255   -3.6771   -0.4827 H   0  0  0  0  0  0  0  0  0  0  0  0
   -1.9138   -2.3684    0.7240 C   0  0  0  0  0  0  0  0  0  0  0  0
   -1.1772   -2.5921    1.6656 O   0  0  0  0  0  0  0  0  0  0  0  0
   -1.6336   -1.3153   -0.1312 N   0  0  0  0  0  0  0  0  0  0  0  0
   -2.1969   -1.3139   -0.9767 H   0  0  0  0  0  0  0  0  0  0  0  0
   -0.2871   -0.7017   -0.2069 C   0  0  1  0  0  0  0  0  0  0  0  0
    0.4021   -1.5307   -0.4127 H   0  0  0  0  0  0  0  0  0  0  0  0
   -0.1533    0.2747   -1.3963 C   0  0  0  0  0  0  0  0  0  0  0  0
    0.8974    0.2652   -1.7101 H   0  0  0  0  0  0  0  0  0  0  0  0
   -0.7395   -0.0800   -2.2495 H   0  0  0  0  0  0  0  0  0  0  0  0
   -0.5290    1.7002   -1.0625 C   0  0  0  0  0  0  0  0  0  0  0  0
   -1.8048    2.2373   -0.8823 N   0  3  0  0  0  0  0  0  0  0  0  0
   -2.6609    1.6865   -0.9737 H   0  0  0  0  0  0  0  0  0  0  0  0
   -1.7211    3.5059   -0.5578 C   0  0  0  0  0  0  0  0  0  0  0  0
   -2.5538    4.1796   -0.3474 H   0  0  0  0  0  0  0  0  0  0  0  0
   -0.3680    3.8358   -0.5224 N   0  0  0  0  0  0  0  0  0  0  0  0
    0.0211    4.7511   -0.2758 H   0  0  0  0  0  0  0  0  0  0  0  0
    0.3763    2.7063   -0.8347 C   0  0  0  0  0  0  0  0  0  0  0  0
    1.4636    2.6111   -0.8572 H   0  0  0  0  0  0  0  0  0  0  0  0
    0.2526   -0.0821    1.1056 C   0  0  0  0  0  0  0  0  0  0  0  0
    1.4609    0.0922    1.1856 O   0  0  0  0  0  0  0  0  0  0  0  0
   -0.5693    0.7073    1.8937 N   0  0  0  0  0  0  0  0  0  0  0  0
   -1.5342    0.3903    1.9230 H   0  0  0  0  0  0  0  0  0  0  0  0
   -0.0582    1.3828    3.0844 C   0  0  0  0  0  0  0  0  0  0  0  0
    0.7309    2.0942    2.8180 H   0  0  0  0  0  0  0  0  0  0  0  0
   -0.8608    1.9331    3.5849 H   0  0  0  0  0  0  0  0  0  0  0  0
    0.3542    0.6534    3.7908 H   0  0  0  0  0  0  0  0  0  0  0  0
  1  2  1  0  0  0  0
  2  3  1  0  0  0  0
  2  4  1  0  0  0  0
  2  5  1  0  0  0  0
  5  6  2  0  0  0  0
  5  7  1  0  0  0  0
  7  8  1  0  0  0  0
  7  9  1  0  0  0  0
  9 10  1  0  0  0  0
  9 11  1  0  0  0  0
  9 23  1  0  0  0  0
 11 12  1  0  0  0  0
 11 13  1  0  0  0  0
 11 14  1  0  0  0  0
 14 15  1  0  0  0  0
 14 21  2  0  0  0  0
 15 16  1  0  0  0  0
 15 17  2  0  0  0  0
 17 18  1  0  0  0  0
 17 19  1  0  0  0  0
 19 20  1  0  0  0  0
 19 21  1  0  0  0  0
 21 22  1  0  0  0  0
 23 24  2  0  0  0  0
 23 25  1  0  0  0  0
 25 26  1  0  0  0  0
 25 27  1  0  0  0  0
 27 28  1  0  0  0  0
 27 29  1  0  0  0  0
 27 30  1  0  0  0  0
M  CHG  1  15   1
M  END
$$$$

  -OEChem-04042216003D

 30 30  0     1  0  0  0  0  0999 V2000
   -3.1794   -4.0517    1.2131 H   0  0  0  0  0  0  0  0  0  0  0  0
   -3.1507   -3.2383    0.4818 C   0  0  0  0  0  0  0  0  0  0  0  0
   -4.0624   -2.6449    0.5820 H   0  0  0  0  0  0  0  0  0  0  0  0
   -3.1125   -3.6736   -0.5196 H   0  0  0  0  0  0  0  0  0  0  0  0
   -1.9319   -2.3680    0.7210 C   0  0  0  0  0  0  0  0  0  0  0  0
   -1.2147   -2.5753    1.6811 O   0  0  0  0  0  0  0  0  0  0  0  0
   -1.6525   -1.3072   -0.1248 N   0  0  0  0  0  0  0  0  0  0  0  0
   -2.2042   -1.3128   -0.9787 H   0  0  0  0  0  0  0  0  0  0  0  0
   -0.3045   -0.6956   -0.1941 C   0  0  1  0  0  0  0  0  0  0  0  0
    0.3797   -1.5284   -0.4021 H   0  0  0  0  0  0  0  0  0  0  0  0
   -0.1616    0.2757   -1.3857 C   0  0  0  0  0  0  0  0  0  0  0  0
    0.8883    0.2582   -1.7017 H   0  0  0  0  0  0  0  0  0  0  0  0
   -0.7534   -0.0822   -2.2337 H   0  0  0  0  0  0  0  0  0  0  0  0
   -0.5361    1.7052   -1.0680 C   0  0  0  0  0  0  0  0  0  0  0  0
   -1.7684    2.1895   -0.6257 N   0  3  0  0  0  0  0  0  0  0  0  0
   -2.5770    1.5861   -0.4641 H   0  0  0  0  0  0  0  0  0  0  0  0
   -1.6928    3.4776   -0.3897 C   0  0  0  0  0  0  0  0  0  0  0  0
   -2.4934    4.1185   -0.0158 H   0  0  0  0  0  0  0  0  0  0  0  0
   -0.3920    3.8762   -0.6882 N   0  0  0  0  0  0  0  0  0  0  0  0
   -0.0146    4.8225   -0.5789 H   0  0  0  0  0  0  0  0  0  0  0  0
    0.3330    2.7667   -1.1022 C   0  0  0  0  0  0  0  0  0  0  0  0
    1.3910    2.7277   -1.3666 H   0  0  0  0  0  0  0  0  0  0  0  0
    0.2460   -0.0874    1.1190 C   0  0  0  0  0  0  0  0  0  0  0  0
    1.4552    0.0826    1.1865 O   0  0  0  0  0  0  0  0  0  0  0  0
   -0.5661    0.6996    1.9202 N   0  0  0  0  0  0  0  0  0  0  0  0
   -1.5163    0.3473    1.9976 H   0  0  0  0  0  0  0  0  0  0  0  0
   -0.0278    1.3938    3.0886 C   0  0  0  0  0  0  0  0  0  0  0  0
    0.7336    2.1223    2.7893 H   0  0  0  0  0  0  0  0  0  0  0  0
   -0.8244    1.9272    3.6165 H   0  0  0  0  0  0  0  0  0  0  0  0
    0.4286    0.6791    3.7831 H   0  0  0  0  0  0  0  0  0  0  0  0
  1  2  1  0  0  0  0
  2  3  1  0  0  0  0
  2  4  1  0  0  0  0
  2  5  1  0  0  0  0
  5  6  2  0  0  0  0
  5  7  1  0  0  0  0
  7  8  1  0  0  0  0
  7  9  1  0  0  0  0
  9 10  1  0  0  0  0
  9 11  1  0  0  0  0
  9 23  1  0  0  0  0
 11 12  1  0  0  0  0
 11 13  1  0  0  0  0
 11 14  1  0  0  0  0
 14 15  1  0  0  0  0
 14 21  2  0  0  0  0
 15 16  1  0  0  0  0
 15 17  2  0  0  0  0
 17 18  1  0  0  0  0
 17 19  1  0  0  0  0
 19 20  1  0  0  0  0
 19 21  1  0  0  0  0
 21 22  1  0  0  0  0
 23 24  2  0  0  0  0
 23 25  1  0  0  0  0
 25 26  1  0  0  0  0
 25 27  1  0  0  0  0
 27 28  1  0  0  0  0
 27 29  1  0  0  0  0
 27 30  1  0  0  0  0
M  CHG  1  15   1
M  END
$$$$

  -OEChem-04042216003D

 30 30  0     1  0  0  0  0  0999 V2000
   -3.1678   -4.0890    1.1679 H   0  0  0  0  0  0  0  0  0  0  0  0
   -3.1477   -3.2586    0.4554 C   0  0  0  0  0  0  0  0  0  0  0  0
   -4.0649   -2.6762    0.5703 H   0  0  0  0  0  0  0  0  0  0  0  0
   -3.1072   -3.6698   -0.5562 H   0  0  0  0  0  0  0  0  0  0  0  0
   -1.9356   -2.3841    0.7128 C   0  0  0  0  0  0  0  0  0  0  0  0
   -1.2178   -2.6018    1.6701 O   0  0  0  0  0  0  0  0  0  0  0  0
   -1.6649   -1.3014   -0.1073 N   0  0  0  0  0  0  0  0  0  0  0  0
   -2.2257   -1.2823   -0.9556 H   0  0  0  0  0  0  0  0  0  0  0  0
   -0.3206   -0.6816   -0.1715 C   0  0  1  0  0  0  0  0  0  0  0  0
    0.3620   -1.5131   -0.3898 H   0  0  0  0  0  0  0  0  0  0  0  0
   -0.1749    0.2894   -1.3635 C   0  0  0  0  0  0  0  0  0  0  0  0
    0.8752    0.2709   -1.6790 H   0  0  0  0  0  0  0  0  0  0  0  0
   -0.7658   -0.0783   -2.2082 H   0  0  0  0  0  0  0  0  0  0  0  0
   -0.5535    1.7244   -1.0749 C   0  0  0  0  0  0  0  0  0  0  0  0
   -1.6751    2.1967   -0.3914 N   0  3  0  0  0  0  0  0  0  0  0  0
   -2.3696    1.5739    0.0259 H   0  0  0  0  0  0  0  0  0  0  0  0
   -1.6200    3.5012   -0.2687 C   0  0  0  0  0  0  0  0  0  0  0  0
   -2.3411    4.1366    0.2490 H   0  0  0  0  0  0  0  0  0  0  0  0
   -0.4542    3.9253   -0.9012 N   0  0  0  0  0  0  0  0  0  0  0  0
   -0.1184    4.8921   -0.9535 H   0  0  0  0  0  0  0  0  0  0  0  0
    0.2182    2.8138   -1.3927 C   0  0  0  0  0  0  0  0  0  0  0  0
    1.1829    2.7968   -1.9015 H   0  0  0  0  0  0  0  0  0  0  0  0
    0.2412   -0.1024    1.1494 C   0  0  0  0  0  0  0  0  0  0  0  0
    1.4489    0.0805    1.1998 O   0  0  0  0  0  0  0  0  0  0  0  0
   -0.5664    0.6613    1.9778 N   0  0  0  0  0  0  0  0  0  0  0  0
   -1.4891    0.2542    2.1079 H   0  0  0  0  0  0  0  0  0  0  0  0
   -0.0041    1.3641    3.1303 C   0  0  0  0  0  0  0  0  0  0  0  0
    0.7345    2.1065    2.8089 H   0  0  0  0  0  0  0  0  0  0  0  0
   -0.7923    1.8829    3.6843 H   0  0  0  0  0  0  0  0  0  0  0  0
    0.4867    0.6571    3.8087 H   0  0  0  0  0  0  0  0  0  0  0  0
  1  2  1  0  0  0  0
  2  3  1  0  0  0  0
  2  4  1  0  0  0  0
  2  5  1  0  0  0  0
  5  6  2  0  0  0  0
  5  7  1  0  0  0  0
  7  8  1  0  0  0  0
  7  9  1  0  0  0  0
  9 10  1  0  0  0  0
  9 11  1  0  0  0  0
  9 23  1  0  0  0  0
 11 12  1  0  0  0  0
 11 13  1  0  0  0  0
 11 14  1  0  0  0  0
 14 15  1  0  0  0  0
 14 21  2  0  0  0  0
 15 16  1  0  0  0  0
 15 17  2  0  0  0  0
 17 18  1  0  0  0  0
 17 19  1  0  0  0  0
 19 20  1  0  0  0  0
 19 21  1  0  0  0  0
 21 22  1  0  0  0  0
 23 24  2  0  0  0  0
 23 25  1  0  0  0  0
 25 26  1  0  0  0  0
 25 27  1  0  0  0  0
 27 28  1  0  0  0  0
 27 29  1  0  0  0  0
 27 30  1  0  0  0  0
M  CHG  1  15   1
M  END
$$$$

  -OEChem-04042216003D

 30 30  0     1  0  0  0  0  0999 V2000
   -3.1583   -4.1172    1.1290 H   0  0  0  0  0  0  0  0  0  0  0  0
   -3.1466   -3.2628    0.4453 C   0  0  0  0  0  0  0  0  0  0  0  0
   -4.0529   -2.6737    0.6050 H   0  0  0  0  0  0  0  0  0  0  0  0
   -3.1385   -3.6388   -0.5806 H   0  0  0  0  0  0  0  0  0  0  0  0
   -1.9175   -2.4115    0.6996 C   0  0  0  0  0  0  0  0  0  0  0  0
   -1.1793   -2.6656    1.6324 O   0  0  0  0  0  0  0  0  0  0  0  0
   -1.6581   -1.3017   -0.0865 N   0  0  0  0  0  0  0  0  0  0  0  0
   -2.2517   -1.2280   -0.9093 H   0  0  0  0  0  0  0  0  0  0  0  0
   -0.3203   -0.6693   -0.1529 C   0  0  1  0  0  0  0  0  0  0  0  0
    0.3636   -1.4939   -0.3926 H   0  0  0  0  0  0  0  0  0  0  0  0
   -0.1831    0.3165   -1.3366 C   0  0  0  0  0  0  0  0  0  0  0  0
    0.8655    0.2994   -1.6567 H   0  0  0  0  0  0  0  0  0  0  0  0
   -0.7768   -0.0558   -2.1772 H   0  0  0  0  0  0  0  0  0  0  0  0
   -0.5601    1.7586   -1.0724 C   0  0  0  0  0  0  0  0  0  0  0  0
   -1.5033    2.2626   -0.1765 N   0  3  0  0  0  0  0  0  0  0  0  0
   -1.9843    1.6665    0.5013 H   0  0  0  0  0  0  0  0  0  0  0  0
   -1.4953    3.5734   -0.1882 C   0  0  0  0  0  0  0  0  0  0  0  0
   -2.0869    4.2316    0.4507 H   0  0  0  0  0  0  0  0  0  0  0  0
   -0.5620    3.9703   -1.1416 N   0  0  0  0  0  0  0  0  0  0  0  0
   -0.3099    4.9378   -1.3669 H   0  0  0  0  0  0  0  0  0  0  0  0
    0.0331    2.8370   -1.6815 C   0  0  0  0  0  0  0  0  0  0  0  0
    0.8307    2.8019   -2.4246 H   0  0  0  0  0  0  0  0  0  0  0  0
    0.2432   -0.1332    1.1837 C   0  0  0  0  0  0  0  0  0  0  0  0
    1.4447    0.0855    1.2240 O   0  0  0  0  0  0  0  0  0  0  0  0
   -0.5772    0.5896    2.0378 N   0  0  0  0  0  0  0  0  0  0  0  0
   -1.4664    0.1192    2.1967 H   0  0  0  0  0  0  0  0  0  0  0  0
   -0.0135    1.2869    3.1940 C   0  0  0  0  0  0  0  0  0  0  0  0
    0.6936    2.0599    2.8736 H   0  0  0  0  0  0  0  0  0  0  0  0
   -0.8067    1.7672    3.7753 H   0  0  0  0  0  0  0  0  0  0  0  0
    0.5150    0.5828    3.8472 H   0  0  0  0  0  0  0  0  0  0  0  0
  1  2  1  0  0  0  0
  2  3  1  0  0  0  0
  2  4  1  0  0  0  0
  2  5  1  0  0  0  0
  5  6  2  0  0  0  0
  5  7  1  0  0  0  0
  7  8  1  0  0  0  0
  7  9  1  0  0  0  0
  9 10  1  0  0  0  0
  9 11  1  0  0  0  0
  9 23  1  0  0  0  0
 11 12  1  0  0  0  0
 11 13  1  0  0  0  0
 11 14  1  0  0  0  0
 14 15  1  0  0  0  0
 14 21  2  0  0  0  0
 15 16  1  0  0  0  0
 15 17  2  0  0  0  0
 17 18  1  0  0  0  0
 17 19  1  0  0  0  0
 19 20  1  0  0  0  0
 19 21  1  0  0  0  0
 21 22  1  0  0  0  0
 23 24  2  0  0  0  0
 23 25  1  0  0  0  0
 25 26  1  0  0  0  0
 25 27  1  0  0  0  0
 27 28  1  0  0  0  0
 27 29  1  0  0  0  0
 27 30  1  0  0  0  0
M  CHG  1  15   1
M  END
$$$$

  -OEChem-04042216003D

 30 30  0     1  0  0  0  0  0999 V2000
   -3.1630   -4.1090    1.1168 H   0  0  0  0  0  0  0  0  0  0  0  0
   -3.1511   -3.2414    0.4503 C   0  0  0  0  0  0  0  0  0  0  0  0
   -4.0374   -2.6347    0.6493 H   0  0  0  0  0  0  0  0  0  0  0  0
   -3.1830   -3.5962   -0.5828 H   0  0  0  0  0  0  0  0  0  0  0  0
   -1.8945   -2.4250    0.6837 C   0  0  0  0  0  0  0  0  0  0  0  0
   -1.1220   -2.7305    1.5724 O   0  0  0  0  0  0  0  0  0  0  0  0
   -1.6409   -1.2947   -0.0741 N   0  0  0  0  0  0  0  0  0  0  0  0
   -2.2737   -1.1580   -0.8588 H   0  0  0  0  0  0  0  0  0  0  0  0
   -0.3079   -0.6541   -0.1416 C   0  0  1  0  0  0  0  0  0  0  0  0
    0.3782   -1.4712   -0.4006 H   0  0  0  0  0  0  0  0  0  0  0  0
   -0.1828    0.3465   -1.3164 C   0  0  0  0  0  0  0  0  0  0  0  0
    0.8668    0.3368   -1.6336 H   0  0  0  0  0  0  0  0  0  0  0  0
   -0.7710   -0.0286   -2.1599 H   0  0  0  0  0  0  0  0  0  0  0  0
   -0.5572    1.7932   -1.0687 C   0  0  0  0  0  0  0  0  0  0  0  0
   -1.2713    2.3585   -0.0121 N   0  3  0  0  0  0  0  0  0  0  0  0
   -1.5019    1.8255    0.8328 H   0  0  0  0  0  0  0  0  0  0  0  0
   -1.3435    3.6603   -0.1468 C   0  0  0  0  0  0  0  0  0  0  0  0
   -1.7826    4.3628    0.5640 H   0  0  0  0  0  0  0  0  0  0  0  0
   -0.7171    3.9838   -1.3463 N   0  0  0  0  0  0  0  0  0  0  0  0
   -0.5943    4.9293   -1.7219 H   0  0  0  0  0  0  0  0  0  0  0  0
   -0.2143    2.8200   -1.9138 C   0  0  0  0  0  0  0  0  0  0  0  0
    0.3566    2.7322   -2.8388 H   0  0  0  0  0  0  0  0  0  0  0  0
    0.2533   -0.1549    1.2094 C   0  0  0  0  0  0  0  0  0  0  0  0
    1.4502    0.0827    1.2561 O   0  0  0  0  0  0  0  0  0  0  0  0
   -0.5754    0.5355    2.0838 N   0  0  0  0  0  0  0  0  0  0  0  0
   -1.4653    0.0550    2.2149 H   0  0  0  0  0  0  0  0  0  0  0  0
   -0.0190    1.1714    3.2793 C   0  0  0  0  0  0  0  0  0  0  0  0
    0.6897    1.9612    3.0063 H   0  0  0  0  0  0  0  0  0  0  0  0
   -0.8155    1.6187    3.8821 H   0  0  0  0  0  0  0  0  0  0  0  0
    0.5065    0.4335    3.8962 H   0  0  0  0  0  0  0  0  0  0  0  0
  1  2  1  0  0  0  0
  2  3  1  0  0  0  0
  2  4  1  0  0  0  0
  2  5  1  0  0  0  0
  5  6  2  0  0  0  0
  5  7  1  0  0  0  0
  7  8  1  0  0  0  0
  7  9  1  0  0  0  0
  9 10  1  0  0  0  0
  9 11  1  0  0  0  0
  9 23  1  0  0  0  0
 11 12  1  0  0  0  0
 11 13  1  0  0  0  0
 11 14  1  0  0  0  0
 14 15  1  0  0  0  0
 14 21  2  0  0  0  0
 15 16  1  0  0  0  0
 15 17  2  0  0  0  0
 17 18  1  0  0  0  0
 17 19  1  0  0  0  0
 19 20  1  0  0  0  0
 19 21  1  0  0  0  0
 21 22  1  0  0  0  0
 23 24  2  0  0  0  0
 23 25  1  0  0  0  0
 25 26  1  0  0  0  0
 25 27  1  0  0  0  0
 27 28  1  0  0  0  0
 27 29  1  0  0  0  0
 27 30  1  0  0  0  0
M  CHG  1  15   1
M  END
$$$$

  -OEChem-04042216003D

 30 30  0     1  0  0  0  0  0999 V2000
   -3.1841   -4.0811    1.1198 H   0  0  0  0  0  0  0  0  0  0  0  0
   -3.1690   -3.2041    0.4659 C   0  0  0  0  0  0  0  0  0  0  0  0
   -4.0343   -2.5791    0.6982 H   0  0  0  0  0  0  0  0  0  0  0  0
   -3.2377   -3.5419   -0.5710 H   0  0  0  0  0  0  0  0  0  0  0  0
   -1.8865   -2.4223    0.6755 C   0  0  0  0  0  0  0  0  0  0  0  0
   -1.0895   -2.7698    1.5265 O   0  0  0  0  0  0  0  0  0  0  0  0
   -1.6312   -1.2808   -0.0648 N   0  0  0  0  0  0  0  0  0  0  0  0
   -2.2898   -1.0981   -0.8181 H   0  0  0  0  0  0  0  0  0  0  0  0
   -0.2983   -0.6415   -0.1332 C   0  0  1  0  0  0  0  0  0  0  0  0
    0.3833   -1.4590   -0.4024 H   0  0  0  0  0  0  0  0  0  0  0  0
   -0.1751    0.3626   -1.3069 C   0  0  0  0  0  0  0  0  0  0  0  0
    0.8786    0.3557   -1.6108 H   0  0  0  0  0  0  0  0  0  0  0  0
   -0.7496   -0.0184   -2.1573 H   0  0  0  0  0  0  0  0  0  0  0  0
   -0.5435    1.8156   -1.0767 C   0  0  0  0  0  0  0  0  0  0  0  0
   -1.0012    2.4541    0.0766 N   0  3  0  0  0  0  0  0  0  0  0  0
   -1.0153    1.9852    0.9895 H   0  0  0  0  0  0  0  0  0  0  0  0
   -1.1764    3.7348   -0.1379 C   0  0  0  0  0  0  0  0  0  0  0  0
   -1.4684    4.4820    0.6025 H   0  0  0  0  0  0  0  0  0  0  0  0
   -0.8849    3.9681   -1.4781 N   0  0  0  0  0  0  0  0  0  0  0  0
   -0.9110    4.8793   -1.9466 H   0  0  0  0  0  0  0  0  0  0  0  0
   -0.4819    2.7727   -2.0606 C   0  0  0  0  0  0  0  0  0  0  0  0
   -0.1612    2.6196   -3.0916 H   0  0  0  0  0  0  0  0  0  0  0  0
    0.2690   -0.1660    1.2230 C   0  0  0  0  0  0  0  0  0  0  0  0
    1.4640    0.0787    1.2702 O   0  0  0  0  0  0  0  0  0  0  0  0
   -0.5532    0.5104    2.1140 N   0  0  0  0  0  0  0  0  0  0  0  0
   -1.4708    0.0717    2.1936 H   0  0  0  0  0  0  0  0  0  0  0  0
   -0.0039    1.0662    3.3523 C   0  0  0  0  0  0  0  0  0  0  0  0
    0.7347    1.8463    3.1369 H   0  0  0  0  0  0  0  0  0  0  0  0
   -0.8004    1.5063    3.9609 H   0  0  0  0  0  0  0  0  0  0  0  0
    0.4847    0.2809    3.9409 H   0  0  0  0  0  0  0  0  0  0  0  0
  1  2  1  0  0  0  0
  2  3  1  0  0  0  0
  2  4  1  0  0  0  0
  2  5  1  0  0  0  0
  5  6  2  0  0  0  0
  5  7  1  0  0  0  0
  7  8  1  0  0  0  0
  7  9  1  0  0  0  0
  9 10  1  0  0  0  0
  9 11  1  0  0  0  0
  9 23  1  0  0  0  0
 11 12  1  0  0  0  0
 11 13  1  0  0  0  0
 11 14  1  0  0  0  0
 14 15  1  0  0  0  0
 14 21  2  0  0  0  0
 15 16  1  0  0  0  0
 15 17  2  0  0  0  0
 17 18  1  0  0  0  0
 17 19  1  0  0  0  0
 19 20  1  0  0  0  0
 19 21  1  0  0  0  0
 21 22  1  0  0  0  0
 23 24  2  0  0  0  0
 23 25  1  0  0  0  0
 25 26  1  0  0  0  0
 25 27  1  0  0  0  0
 27 28  1  0  0  0  0
 27 29  1  0  0  0  0
 27 30  1  0  0  0  0
M  CHG  1  15   1
M  END
$$$$

  -OEChem-04042216003D

 30 30  0     1  0  0  0  0  0999 V2000
   -3.2104   -4.0359    1.1553 H   0  0  0  0  0  0  0  0  0  0  0  0
   -3.1852   -3.1652    0.4931 C   0  0  0  0  0  0  0  0  0  0  0  0
   -4.0328   -2.5188    0.7321 H   0  0  0  0  0  0  0  0  0  0  0  0
   -3.2764   -3.5107   -0.5394 H   0  0  0  0  0  0  0  0  0  0  0  0
   -1.8824   -2.4110    0.6771 C   0  0  0  0  0  0  0  0  0  0  0  0
   -1.0704   -2.7827    1.5036 O   0  0  0  0  0  0  0  0  0  0  0  0
   -1.6197   -1.2728   -0.0657 N   0  0  0  0  0  0  0  0  0  0  0  0
   -2.2949   -1.0616   -0.7961 H   0  0  0  0  0  0  0  0  0  0  0  0
   -0.2844   -0.6398   -0.1367 C   0  0  1  0  0  0  0  0  0  0  0  0
    0.3949   -1.4603   -0.4029 H   0  0  0  0  0  0  0  0  0  0  0  0
   -0.1604    0.3599   -1.3148 C   0  0  0  0  0  0  0  0  0  0  0  0
    0.8960    0.3532   -1.6086 H   0  0  0  0  0  0  0  0  0  0  0  0
   -0.7253   -0.0266   -2.1690 H   0  0  0  0  0  0  0  0  0  0  0  0
   -0.5228    1.8164   -1.0930 C   0  0  0  0  0  0  0  0  0  0  0  0
   -0.7042    2.5182    0.0998 N   0  3  0  0  0  0  0  0  0  0  0  0
   -0.5113    2.0961    1.0169 H   0  0  0  0  0  0  0  0  0  0  0  0
   -0.9896    3.7749   -0.1345 C   0  0  0  0  0  0  0  0  0  0  0  0
   -1.1348    4.5564    0.6138 H   0  0  0  0  0  0  0  0  0  0  0  0
   -1.0460    3.9282   -1.5163 N   0  0  0  0  0  0  0  0  0  0  0  0
   -1.2330    4.8045   -2.0137 H   0  0  0  0  0  0  0  0  0  0  0  0
   -0.7508    2.7082   -2.1134 C   0  0  0  0  0  0  0  0  0  0  0  0
   -0.6921    2.4975   -3.1817 H   0  0  0  0  0  0  0  0  0  0  0  0
    0.2797   -0.1652    1.2211 C   0  0  0  0  0  0  0  0  0  0  0  0
    1.4716    0.0928    1.2713 O   0  0  0  0  0  0  0  0  0  0  0  0
   -0.5397    0.5158    2.1104 N   0  0  0  0  0  0  0  0  0  0  0  0
   -1.4836    0.1306    2.1423 H   0  0  0  0  0  0  0  0  0  0  0  0
   -0.0080    1.0153    3.3800 C   0  0  0  0  0  0  0  0  0  0  0  0
    0.7622    1.7760    3.2110 H   0  0  0  0  0  0  0  0  0  0  0  0
   -0.8069    1.4632    3.9794 H   0  0  0  0  0  0  0  0  0  0  0  0
    0.4363    0.1958    3.9570 H   0  0  0  0  0  0  0  0  0  0  0  0
  1  2  1  0  0  0  0
  2  3  1  0  0  0  0
  2  4  1  0  0  0  0
  2  5  1  0  0  0  0
  5  6  2  0  0  0  0
  5  7  1  0  0  0  0
  7  8  1  0  0  0  0
  7  9  1  0  0  0  0
  9 10  1  0  0  0  0
  9 11  1  0  0  0  0
  9 23  1  0  0  0  0
 11 12  1  0  0  0  0
 11 13  1  0  0  0  0
 11 14  1  0  0  0  0
 14 15  1  0  0  0  0
 14 21  2  0  0  0  0
 15 16  1  0  0  0  0
 15 17  2  0  0  0  0
 17 18  1  0  0  0  0
 17 19  1  0  0  0  0
 19 20  1  0  0  0  0
 19 21  1  0  0  0  0
 21 22  1  0  0  0  0
 23 24  2  0  0  0  0
 23 25  1  0  0  0  0
 25 26  1  0  0  0  0
 25 27  1  0  0  0  0
 27 28  1  0  0  0  0
 27 29  1  0  0  0  0
 27 30  1  0  0  0  0
M  CHG  1  15   1
M  END
$$$$

  -OEChem-04042216003D

 30 30  0     1  0  0  0  0  0999 V2000
   -3.2105   -4.0102    1.2031 H   0  0  0  0  0  0  0  0  0  0  0  0
   -3.1828   -3.1490    0.5286 C   0  0  0  0  0  0  0  0  0  0  0  0
   -4.0231   -2.4921    0.7647 H   0  0  0  0  0  0  0  0  0  0  0  0
   -3.2843   -3.5078   -0.4985 H   0  0  0  0  0  0  0  0  0  0  0  0
   -1.8729   -2.4027    0.6923 C   0  0  0  0  0  0  0  0  0  0  0  0
   -1.0556   -2.7720    1.5150 O   0  0  0  0  0  0  0  0  0  0  0  0
   -1.6068   -1.2791   -0.0712 N   0  0  0  0  0  0  0  0  0  0  0  0
   -2.2897   -1.0665   -0.7939 H   0  0  0  0  0  0  0  0  0  0  0  0
   -0.2709   -0.6492   -0.1536 C   0  0  1  0  0  0  0  0  0  0  0  0
    0.4107   -1.4704   -0.4111 H   0  0  0  0  0  0  0  0  0  0  0  0
   -0.1523    0.3443   -1.3388 C   0  0  0  0  0  0  0  0  0  0  0  0
    0.9024    0.3376   -1.6383 H   0  0  0  0  0  0  0  0  0  0  0  0
   -0.7213   -0.0449   -2.1891 H   0  0  0  0  0  0  0  0  0  0  0  0
   -0.5122    1.8002   -1.1115 C   0  0  0  0  0  0  0  0  0  0  0  0
   -0.4029    2.5466    0.0624 N   0  3  0  0  0  0  0  0  0  0  0  0
   -0.0100    2.1492    0.9272 H   0  0  0  0  0  0  0  0  0  0  0  0
   -0.7853    3.7838   -0.1310 C   0  0  0  0  0  0  0  0  0  0  0  0
   -0.7753    4.5867    0.6085 H   0  0  0  0  0  0  0  0  0  0  0  0
   -1.1888    3.8801   -1.4597 N   0  0  0  0  0  0  0  0  0  0  0  0
   -1.5266    4.7308   -1.9206 H   0  0  0  0  0  0  0  0  0  0  0  0
   -1.0168    2.6433   -2.0718 C   0  0  0  0  0  0  0  0  0  0  0  0
   -1.2219    2.3913   -3.1126 H   0  0  0  0  0  0  0  0  0  0  0  0
    0.2828   -0.1531    1.2016 C   0  0  0  0  0  0  0  0  0  0  0  0
    1.4661    0.1450    1.2459 O   0  0  0  0  0  0  0  0  0  0  0  0
   -0.5424    0.5416    2.0736 N   0  0  0  0  0  0  0  0  0  0  0  0
   -1.5011    0.1955    2.0707 H   0  0  0  0  0  0  0  0  0  0  0  0
   -0.0382    1.0301    3.3585 C   0  0  0  0  0  0  0  0  0  0  0  0
    0.7563    1.7705    3.2150 H   0  0  0  0  0  0  0  0  0  0  0  0
   -0.8445    1.4999    3.9310 H   0  0  0  0  0  0  0  0  0  0  0  0
    0.3654    0.2002    3.9500 H   0  0  0  0  0  0  0  0  0  0  0  0
  1  2  1  0  0  0  0
  2  3  1  0  0  0  0
  2  4  1  0  0  0  0
  2  5  1  0  0  0  0
  5  6  2  0  0  0  0
  5  7  1  0  0  0  0
  7  8  1  0  0  0  0
  7  9  1  0  0  0  0
  9 10  1  0  0  0  0
  9 11  1  0  0  0  0
  9 23  1  0  0  0  0
 11 12  1  0  0  0  0
 11 13  1  0  0  0  0
 11 14  1  0  0  0  0
 14 15  1  0  0  0  0
 14 21  2  0  0  0  0
 15 16  1  0  0  0  0
 15 17  2  0  0  0  0
 17 18  1  0  0  0  0
 17 19  1  0  0  0  0
 19 20  1  0  0  0  0
 19 21  1  0  0  0  0
 21 22  1  0  0  0  0
 23 24  2  0  0  0  0
 23 25  1  0  0  0  0
 25 26  1  0  0  0  0
 25 27  1  0  0  0  0
 27 28  1  0  0  0  0
 27 29  1  0  0  0  0
 27 30  1  0  0  0  0
M  CHG  1  15   1
M  END
$$$$

  -OEChem-04042216003D

 30 30  0     1  0  0  0  0  0999 V2000
   -3.2000   -3.9848    1.2787 H   0  0  0  0  0  0  0  0  0  0  0  0
   -3.1736   -3.1425    0.5808 C   0  0  0  0  0  0  0  0  0  0  0  0
   -4.0009   -2.4682    0.8147 H   0  0  0  0  0  0  0  0  0  0  0  0
   -3.2994   -3.5271   -0.4341 H   0  0  0  0  0  0  0  0  0  0  0  0
   -1.8511   -2.4097    0.7003 C   0  0  0  0  0  0  0  0  0  0  0  0
   -1.0191   -2.7757    1.5095 O   0  0  0  0  0  0  0  0  0  0  0  0
   -1.5889   -1.3022   -0.0880 N   0  0  0  0  0  0  0  0  0  0  0  0
   -2.2833   -1.0906   -0.7997 H   0  0  0  0  0  0  0  0  0  0  0  0
   -0.2568   -0.6656   -0.1839 C   0  0  1  0  0  0  0  0  0  0  0  0
    0.4333   -1.4830   -0.4297 H   0  0  0  0  0  0  0  0  0  0  0  0
   -0.1442    0.3256   -1.3718 C   0  0  0  0  0  0  0  0  0  0  0  0
    0.9062    0.3212   -1.6859 H   0  0  0  0  0  0  0  0  0  0  0  0
   -0.7249   -0.0599   -2.2159 H   0  0  0  0  0  0  0  0  0  0  0  0
   -0.5088    1.7745   -1.1217 C   0  0  0  0  0  0  0  0  0  0  0  0
   -0.1187    2.5505   -0.0295 N   0  3  0  0  0  0  0  0  0  0  0  0
    0.4637    2.1674    0.7300 H   0  0  0  0  0  0  0  0  0  0  0  0
   -0.5770    3.7718   -0.1375 C   0  0  0  0  0  0  0  0  0  0  0  0
   -0.4137    4.5871    0.5697 H   0  0  0  0  0  0  0  0  0  0  0  0
   -1.3008    3.8294   -1.3262 N   0  0  0  0  0  0  0  0  0  0  0  0
   -1.7679    4.6615   -1.6997 H   0  0  0  0  0  0  0  0  0  0  0  0
   -1.2558    2.5828   -1.9430 C   0  0  0  0  0  0  0  0  0  0  0  0
   -1.7048    2.3033   -2.8962 H   0  0  0  0  0  0  0  0  0  0  0  0
    0.2767   -0.1402    1.1695 C   0  0  0  0  0  0  0  0  0  0  0  0
    1.4468    0.2134    1.2076 O   0  0  0  0  0  0  0  0  0  0  0  0
   -0.5697    0.5611    2.0140 N   0  0  0  0  0  0  0  0  0  0  0  0
   -1.5288    0.2186    1.9948 H   0  0  0  0  0  0  0  0  0  0  0  0
   -0.0987    1.0936    3.2933 C   0  0  0  0  0  0  0  0  0  0  0  0
    0.6564    1.8721    3.1420 H   0  0  0  0  0  0  0  0  0  0  0  0
   -0.9322    1.5291    3.8535 H   0  0  0  0  0  0  0  0  0  0  0  0
    0.3430    0.2951    3.9005 H   0  0  0  0  0  0  0  0  0  0  0  0
  1  2  1  0  0  0  0
  2  3  1  0  0  0  0
  2  4  1  0  0  0  0
  2  5  1  0  0  0  0
  5  6  2  0  0  0  0
  5  7  1  0  0  0  0
  7  8  1  0  0  0  0
  7  9  1  0  0  0  0
  9 10  1  0  0  0  0
  9 11  1  0  0  0  0
  9 23  1  0  0  0  0
 11 12  1  0  0  0  0
 11 13  1  0  0  0  0
 11 14  1  0  0  0  0
 14 15  1  0  0  0  0
 14 21  2  0  0  0  0
 15 16  1  0  0  0  0
 15 17  2  0  0  0  0
 17 18  1  0  0  0  0
 17 19  1  0  0  0  0
 19 20  1  0  0  0  0
 19 21  1  0  0  0  0
 21 22  1  0  0  0  0
 23 24  2  0  0  0  0
 23 25  1  0  0  0  0
 25 26  1  0  0  0  0
 25 27  1  0  0  0  0
 27 28  1  0  0  0  0
 27 29  1  0  0  0  0
 27 30  1  0  0  0  0
M  CHG  1  15   1
M  END
$$$$

  -OEChem-04042216003D

 30 30  0     1  0  0  0  0  0999 V2000
   -3.1730   -3.9935    1.3136 H   0  0  0  0  0  0  0  0  0  0  0  0
   -3.1528   -3.1660    0.5980 C   0  0  0  0  0  0  0  0  0  0  0  0
   -3.9938   -2.5009    0.8076 H   0  0  0  0  0  0  0  0  0  0  0  0
   -3.2601   -3.5746   -0.4098 H   0  0  0  0  0  0  0  0  0  0  0  0
   -1.8444   -2.4089    0.7169 C   0  0  0  0  0  0  0  0  0  0  0  0
   -1.0158   -2.7445    1.5427 O   0  0  0  0  0  0  0  0  0  0  0  0
   -1.5890   -1.3200   -0.0987 N   0  0  0  0  0  0  0  0  0  0  0  0
   -2.2744   -1.1452   -0.8287 H   0  0  0  0  0  0  0  0  0  0  0  0
   -0.2600   -0.6785   -0.2042 C   0  0  1  0  0  0  0  0  0  0  0  0
    0.4365   -1.4934   -0.4389 H   0  0  0  0  0  0  0  0  0  0  0  0
   -0.1540    0.3087   -1.3935 C   0  0  0  0  0  0  0  0  0  0  0  0
    0.8903    0.3082   -1.7275 H   0  0  0  0  0  0  0  0  0  0  0  0
   -0.7508   -0.0704   -2.2289 H   0  0  0  0  0  0  0  0  0  0  0  0
   -0.5283    1.7460   -1.1081 C   0  0  0  0  0  0  0  0  0  0  0  0
    0.1069    2.5575   -0.1665 N   0  3  0  0  0  0  0  0  0  0  0  0
    0.8297    2.1885    0.4701 H   0  0  0  0  0  0  0  0  0  0  0  0
   -0.4025    3.7633   -0.1775 C   0  0  0  0  0  0  0  0  0  0  0  0
   -0.1067    4.5941    0.4659 H   0  0  0  0  0  0  0  0  0  0  0  0
   -1.3903    3.7779   -1.1607 N   0  0  0  0  0  0  0  0  0  0  0  0
   -1.9563    4.5907   -1.4232 H   0  0  0  0  0  0  0  0  0  0  0  0
   -1.4669    2.5174   -1.7466 C   0  0  0  0  0  0  0  0  0  0  0  0
   -2.1215    2.2063   -2.5608 H   0  0  0  0  0  0  0  0  0  0  0  0
    0.2687   -0.1147    1.1366 C   0  0  0  0  0  0  0  0  0  0  0  0
    1.4411    0.2382    1.1693 O   0  0  0  0  0  0  0  0  0  0  0  0
   -0.5847    0.6043    1.9582 N   0  0  0  0  0  0  0  0  0  0  0  0
   -1.5465    0.2720    1.9333 H   0  0  0  0  0  0  0  0  0  0  0  0
   -0.1258    1.1805    3.2222 C   0  0  0  0  0  0  0  0  0  0  0  0
    0.6394    1.9451    3.0516 H   0  0  0  0  0  0  0  0  0  0  0  0
   -0.9624    1.6466    3.7525 H   0  0  0  0  0  0  0  0  0  0  0  0
    0.2982    0.4014    3.8662 H   0  0  0  0  0  0  0  0  0  0  0  0
  1  2  1  0  0  0  0
  2  3  1  0  0  0  0
  2  4  1  0  0  0  0
  2  5  1  0  0  0  0
  5  6  2  0  0  0  0
  5  7  1  0  0  0  0
  7  8  1  0  0  0  0
  7  9  1  0  0  0  0
  9 10  1  0  0  0  0
  9 11  1  0  0  0  0
  9 23  1  0  0  0  0
 11 12  1  0  0  0  0
 11 13  1  0  0  0  0
 11 14  1  0  0  0  0
 14 15  1  0  0  0  0
 14 21  2  0  0  0  0
 15 16  1  0  0  0  0
 15 17  2  0  0  0  0
 17 18  1  0  0  0  0
 17 19  1  0  0  0  0
 19 20  1  0  0  0  0
 19 21  1  0  0  0  0
 21 22  1  0  0  0  0
 23 24  2  0  0  0  0
 23 25  1  0  0  0  0
 25 26  1  0  0  0  0
 25 27  1  0  0  0  0
 27 28  1  0  0  0  0
 27 29  1  0  0  0  0
 27 30  1  0  0  0  0
M  CHG  1  15   1
M  END
$$$$

  -OEChem-04042216003D

 30 30  0     1  0  0  0  0  0999 V2000
   -3.1606   -4.0041    1.3317 H   0  0  0  0  0  0  0  0  0  0  0  0
   -3.1428   -3.1919    0.5987 C   0  0  0  0  0  0  0  0  0  0  0  0
   -3.9955   -2.5347    0.7836 H   0  0  0  0  0  0  0  0  0  0  0  0
   -3.2315   -3.6231   -0.4013 H   0  0  0  0  0  0  0  0  0  0  0  0
   -1.8468   -2.4135    0.7183 C   0  0  0  0  0  0  0  0  0  0  0  0
   -1.0239   -2.7210    1.5607 O   0  0  0  0  0  0  0  0  0  0  0  0
   -1.5966   -1.3369   -0.1152 N   0  0  0  0  0  0  0  0  0  0  0  0
   -2.2663   -1.1994   -0.8671 H   0  0  0  0  0  0  0  0  0  0  0  0
   -0.2706   -0.6895   -0.2205 C   0  0  1  0  0  0  0  0  0  0  0  0
    0.4303   -1.5032   -0.4466 H   0  0  0  0  0  0  0  0  0  0  0  0
   -0.1586    0.2980   -1.4050 C   0  0  0  0  0  0  0  0  0  0  0  0
    0.8821    0.3039   -1.7494 H   0  0  0  0  0  0  0  0  0  0  0  0
   -0.7648   -0.0685   -2.2392 H   0  0  0  0  0  0  0  0  0  0  0  0
   -0.5457    1.7196   -1.0741 C   0  0  0  0  0  0  0  0  0  0  0  0
    0.2652    2.5805   -0.3326 N   0  3  0  0  0  0  0  0  0  0  0  0
    1.0939    2.2411    0.1773 H   0  0  0  0  0  0  0  0  0  0  0  0
   -0.2871    3.7643   -0.2451 C   0  0  0  0  0  0  0  0  0  0  0  0
    0.1029    4.6171    0.3137 H   0  0  0  0  0  0  0  0  0  0  0  0
   -1.4681    3.7198   -0.9850 N   0  0  0  0  0  0  0  0  0  0  0  0
   -2.1119    4.5045   -1.1242 H   0  0  0  0  0  0  0  0  0  0  0  0
   -1.6290    2.4403   -1.5093 C   0  0  0  0  0  0  0  0  0  0  0  0
   -2.4359    2.0843   -2.1497 H   0  0  0  0  0  0  0  0  0  0  0  0
    0.2618   -0.0940    1.1059 C   0  0  0  0  0  0  0  0  0  0  0  0
    1.4407    0.2414    1.1311 O   0  0  0  0  0  0  0  0  0  0  0  0
   -0.5889    0.6418    1.9151 N   0  0  0  0  0  0  0  0  0  0  0  0
   -1.5510    0.3106    1.9054 H   0  0  0  0  0  0  0  0  0  0  0  0
   -0.1216    1.2703    3.1499 C   0  0  0  0  0  0  0  0  0  0  0  0
    0.6371    2.0312    2.9396 H   0  0  0  0  0  0  0  0  0  0  0  0
   -0.9553    1.7531    3.6695 H   0  0  0  0  0  0  0  0  0  0  0  0
    0.3138    0.5201    3.8197 H   0  0  0  0  0  0  0  0  0  0  0  0
  1  2  1  0  0  0  0
  2  3  1  0  0  0  0
  2  4  1  0  0  0  0
  2  5  1  0  0  0  0
  5  6  2  0  0  0  0
  5  7  1  0  0  0  0
  7  8  1  0  0  0  0
  7  9  1  0  0  0  0
  9 10  1  0  0  0  0
  9 11  1  0  0  0  0
  9 23  1  0  0  0  0
 11 12  1  0  0  0  0
 11 13  1  0  0  0  0
 11 14  1  0  0  0  0
 14 15  1  0  0  0  0
 14 21  2  0  0  0  0
 15 16  1  0  0  0  0
 15 17  2  0  0  0  0
 17 18  1  0  0  0  0
 17 19  1  0  0  0  0
 19 20  1  0  0  0  0
 19 21  1  0  0  0  0
 21 22  1  0  0  0  0
 23 24  2  0  0  0  0
 23 25  1  0  0  0  0
 25 26  1  0  0  0  0
 25 27  1  0  0  0  0
 27 28  1  0  0  0  0
 27 29  1  0  0  0  0
 27 30  1  0  0  0  0
M  CHG  1  15   1
M  END
$$$$

  -OEChem-04042216003D

 30 30  0     1  0  0  0  0  0999 V2000
   -3.1681   -4.0147    1.3117 H   0  0  0  0  0  0  0  0  0  0  0  0
   -3.1471   -3.2049    0.5763 C   0  0  0  0  0  0  0  0  0  0  0  0
   -4.0114   -2.5578    0.7431 H   0  0  0  0  0  0  0  0  0  0  0  0
   -3.2118   -3.6407   -0.4235 H   0  0  0  0  0  0  0  0  0  0  0  0
   -1.8634   -2.4097    0.7168 C   0  0  0  0  0  0  0  0  0  0  0  0
   -1.0587   -2.6944    1.5843 O   0  0  0  0  0  0  0  0  0  0  0  0
   -1.6081   -1.3408   -0.1250 N   0  0  0  0  0  0  0  0  0  0  0  0
   -2.2541   -1.2371   -0.9023 H   0  0  0  0  0  0  0  0  0  0  0  0
   -0.2797   -0.6974   -0.2232 C   0  0  1  0  0  0  0  0  0  0  0  0
    0.4191   -1.5143   -0.4438 H   0  0  0  0  0  0  0  0  0  0  0  0
   -0.1555    0.2904   -1.4027 C   0  0  0  0  0  0  0  0  0  0  0  0
    0.8839    0.2947   -1.7506 H   0  0  0  0  0  0  0  0  0  0  0  0
   -0.7671   -0.0636   -2.2385 H   0  0  0  0  0  0  0  0  0  0  0  0
   -0.5460    1.7021   -1.0411 C   0  0  0  0  0  0  0  0  0  0  0  0
    0.3633    2.6383   -0.5477 N   0  3  0  0  0  0  0  0  0  0  0  0
    1.2989    2.3681   -0.2185 H   0  0  0  0  0  0  0  0  0  0  0  0
   -0.2270    3.7941   -0.3726 C   0  0  0  0  0  0  0  0  0  0  0  0
    0.2268    4.6909    0.0532 H   0  0  0  0  0  0  0  0  0  0  0  0
   -1.5431    3.6537   -0.8107 N   0  0  0  0  0  0  0  0  0  0  0  0
   -2.2503    4.3951   -0.8161 H   0  0  0  0  0  0  0  0  0  0  0  0
   -1.7430    2.3433   -1.2351 C   0  0  0  0  0  0  0  0  0  0  0  0
   -2.6543    1.9143   -1.6502 H   0  0  0  0  0  0  0  0  0  0  0  0
    0.2606   -0.0857    1.0927 C   0  0  0  0  0  0  0  0  0  0  0  0
    1.4495    0.2119    1.1183 O   0  0  0  0  0  0  0  0  0  0  0  0
   -0.5800    0.6673    1.8962 N   0  0  0  0  0  0  0  0  0  0  0  0
   -1.5428    0.3394    1.9044 H   0  0  0  0  0  0  0  0  0  0  0  0
   -0.0963    1.3300    3.1057 C   0  0  0  0  0  0  0  0  0  0  0  0
    0.6468    2.0954    2.8596 H   0  0  0  0  0  0  0  0  0  0  0  0
   -0.9256    1.8134    3.6318 H   0  0  0  0  0  0  0  0  0  0  0  0
    0.3641    0.6021    3.7833 H   0  0  0  0  0  0  0  0  0  0  0  0
  1  2  1  0  0  0  0
  2  3  1  0  0  0  0
  2  4  1  0  0  0  0
  2  5  1  0  0  0  0
  5  6  2  0  0  0  0
  5  7  1  0  0  0  0
  7  8  1  0  0  0  0
  7  9  1  0  0  0  0
  9 10  1  0  0  0  0
  9 11  1  0  0  0  0
  9 23  1  0  0  0  0
 11 12  1  0  0  0  0
 11 13  1  0  0  0  0
 11 14  1  0  0  0  0
 14 15  1  0  0  0  0
 14 21  2  0  0  0  0
 15 16  1  0  0  0  0
 15 17  2  0  0  0  0
 17 18  1  0  0  0  0
 17 19  1  0  0  0  0
 19 20  1  0  0  0  0
 19 21  1  0  0  0  0
 21 22  1  0  0  0  0
 23 24  2  0  0  0  0
 23 25  1  0  0  0  0
 25 26  1  0  0  0  0
 25 27  1  0  0  0  0
 27 28  1  0  0  0  0
 27 29  1  0  0  0  0
 27 30  1  0  0  0  0
M  CHG  1  15   1
M  END
$$$$

  -OEChem-04042216003D

 30 30  0     1  0  0  0  0  0999 V2000
   -3.1908   -4.0144    1.2798 H   0  0  0  0  0  0  0  0  0  0  0  0
   -3.1605   -3.2070    0.5420 C   0  0  0  0  0  0  0  0  0  0  0  0
   -4.0382   -2.5719    0.6827 H   0  0  0  0  0  0  0  0  0  0  0  0
   -3.1918   -3.6477   -0.4574 H   0  0  0  0  0  0  0  0  0  0  0  0
   -1.8921   -2.3936    0.7147 C   0  0  0  0  0  0  0  0  0  0  0  0
   -1.1136   -2.6606    1.6109 O   0  0  0  0  0  0  0  0  0  0  0  0
   -1.6223   -1.3300   -0.1296 N   0  0  0  0  0  0  0  0  0  0  0  0
   -2.2357   -1.2607   -0.9367 H   0  0  0  0  0  0  0  0  0  0  0  0
   -0.2852   -0.7009   -0.2140 C   0  0  1  0  0  0  0  0  0  0  0  0
    0.4068   -1.5253   -0.4281 H   0  0  0  0  0  0  0  0  0  0  0  0
   -0.1464    0.2837   -1.3937 C   0  0  0  0  0  0  0  0  0  0  0  0
    0.8958    0.2777   -1.7323 H   0  0  0  0  0  0  0  0  0  0  0  0
   -0.7545   -0.0646   -2.2346 H   0  0  0  0  0  0  0  0  0  0  0  0
   -0.5301    1.6989   -1.0348 C   0  0  0  0  0  0  0  0  0  0  0  0
    0.3915    2.7251   -0.8249 N   0  3  0  0  0  0  0  0  0  0  0  0
    1.3995    2.5519   -0.7496 H   0  0  0  0  0  0  0  0  0  0  0  0
   -0.2311    3.8453   -0.5533 C   0  0  0  0  0  0  0  0  0  0  0  0
    0.2366    4.7971   -0.2946 H   0  0  0  0  0  0  0  0  0  0  0  0
   -1.5980    3.5864   -0.6348 N   0  0  0  0  0  0  0  0  0  0  0  0
   -2.3437    4.2718   -0.4798 H   0  0  0  0  0  0  0  0  0  0  0  0
   -1.7866    2.2422   -0.9395 C   0  0  0  0  0  0  0  0  0  0  0  0
   -2.7337    1.7219   -1.0768 H   0  0  0  0  0  0  0  0  0  0  0  0
    0.2613   -0.0863    1.0977 C   0  0  0  0  0  0  0  0  0  0  0  0
    1.4625    0.1493    1.1407 O   0  0  0  0  0  0  0  0  0  0  0  0
   -0.5635    0.6859    1.8990 N   0  0  0  0  0  0  0  0  0  0  0  0
   -1.5311    0.3743    1.9165 H   0  0  0  0  0  0  0  0  0  0  0  0
   -0.0587    1.3558    3.0953 C   0  0  0  0  0  0  0  0  0  0  0  0
    0.7005    2.0996    2.8320 H   0  0  0  0  0  0  0  0  0  0  0  0
   -0.8733    1.8672    3.6174 H   0  0  0  0  0  0  0  0  0  0  0  0
    0.3890    0.6281    3.7816 H   0  0  0  0  0  0  0  0  0  0  0  0
  1  2  1  0  0  0  0
  2  3  1  0  0  0  0
  2  4  1  0  0  0  0
  2  5  1  0  0  0  0
  5  6  2  0  0  0  0
  5  7  1  0  0  0  0
  7  8  1  0  0  0  0
  7  9  1  0  0  0  0
  9 10  1  0  0  0  0
  9 11  1  0  0  0  0
  9 23  1  0  0  0  0
 11 12  1  0  0  0  0
 11 13  1  0  0  0  0
 11 14  1  0  0  0  0
 14 15  1  0  0  0  0
 14 21  2  0  0  0  0
 15 16  1  0  0  0  0
 15 17  2  0  0  0  0
 17 18  1  0  0  0  0
 17 19  1  0  0  0  0
 19 20  1  0  0  0  0
 19 21  1  0  0  0  0
 21 22  1  0  0  0  0
 23 24  2  0  0  0  0
 23 25  1  0  0  0  0
 25 26  1  0  0  0  0
 25 27  1  0  0  0  0
 27 28  1  0  0  0  0
 27 29  1  0  0  0  0
 27 30  1  0  0  0  0
M  CHG  1  15   1
M  END
$$$$

  -OEChem-04042216003D

 30 30  0     1  0  0  0  0  0999 V2000
   -3.2034   -4.0262    1.2379 H   0  0  0  0  0  0  0  0  0  0  0  0
   -3.1679   -3.2124    0.5071 C   0  0  0  0  0  0  0  0  0  0  0  0
   -4.0549   -2.5877    0.6356 H   0  0  0  0  0  0  0  0  0  0  0  0
   -3.1753   -3.6451   -0.4962 H   0  0  0  0  0  0  0  0  0  0  0  0
   -1.9118   -2.3873    0.7103 C   0  0  0  0  0  0  0  0  0  0  0  0
   -1.1520   -2.6481    1.6239 O   0  0  0  0  0  0  0  0  0  0  0  0
   -1.6359   -1.3165   -0.1230 N   0  0  0  0  0  0  0  0  0  0  0  0
   -2.2309   -1.2575   -0.9450 H   0  0  0  0  0  0  0  0  0  0  0  0
   -0.2949   -0.6933   -0.1937 C   0  0  1  0  0  0  0  0  0  0  0  0
    0.3909   -1.5233   -0.4063 H   0  0  0  0  0  0  0  0  0  0  0  0
   -0.1454    0.2839   -1.3785 C   0  0  0  0  0  0  0  0  0  0  0  0
    0.9050    0.2709   -1.6906 H   0  0  0  0  0  0  0  0  0  0  0  0
   -0.7342   -0.0708   -2.2303 H   0  0  0  0  0  0  0  0  0  0  0  0
   -0.5270    1.7091   -1.0523 C   0  0  0  0  0  0  0  0  0  0  0  0
    0.3359    2.8023   -1.1417 N   0  3  0  0  0  0  0  0  0  0  0  0
    1.3351    2.7040   -1.3454 H   0  0  0  0  0  0  0  0  0  0  0  0
   -0.2828    3.9011   -0.7854 C   0  0  0  0  0  0  0  0  0  0  0  0
    0.1578    4.8977   -0.7171 H   0  0  0  0  0  0  0  0  0  0  0  0
   -1.5996    3.5551   -0.4906 N   0  0  0  0  0  0  0  0  0  0  0  0
   -2.3287    4.2020   -0.1750 H   0  0  0  0  0  0  0  0  0  0  0  0
   -1.7533    2.1831   -0.6572 C   0  0  0  0  0  0  0  0  0  0  0  0
   -2.6546    1.5938   -0.4955 H   0  0  0  0  0  0  0  0  0  0  0  0
    0.2588   -0.0918    1.1203 C   0  0  0  0  0  0  0  0  0  0  0  0
    1.4659    0.1025    1.1741 O   0  0  0  0  0  0  0  0  0  0  0  0
   -0.5531    0.6816    1.9333 N   0  0  0  0  0  0  0  0  0  0  0  0
   -1.5170    0.3622    1.9722 H   0  0  0  0  0  0  0  0  0  0  0  0
   -0.0277    1.3482    3.1227 C   0  0  0  0  0  0  0  0  0  0  0  0
    0.7472    2.0729    2.8505 H   0  0  0  0  0  0  0  0  0  0  0  0
   -0.8274    1.8816    3.6459 H   0  0  0  0  0  0  0  0  0  0  0  0
    0.4073    0.6154    3.8115 H   0  0  0  0  0  0  0  0  0  0  0  0
  1  2  1  0  0  0  0
  2  3  1  0  0  0  0
  2  4  1  0  0  0  0
  2  5  1  0  0  0  0
  5  6  2  0  0  0  0
  5  7  1  0  0  0  0
  7  8  1  0  0  0  0
  7  9  1  0  0  0  0
  9 10  1  0  0  0  0
  9 11  1  0  0  0  0
  9 23  1  0  0  0  0
 11 12  1  0  0  0  0
 11 13  1  0  0  0  0
 11 14  1  0  0  0  0
 14 15  1  0  0  0  0
 14 21  2  0  0  0  0
 15 16  1  0  0  0  0
 15 17  2  0  0  0  0
 17 18  1  0  0  0  0
 17 19  1  0  0  0  0
 19 20  1  0  0  0  0
 19 21  1  0  0  0  0
 21 22  1  0  0  0  0
 23 24  2  0  0  0  0
 23 25  1  0  0  0  0
 25 26  1  0  0  0  0
 25 27  1  0  0  0  0
 27 28  1  0  0  0  0
 27 29  1  0  0  0  0
 27 30  1  0  0  0  0
M  CHG  1  15   1
M  END
$$$$

  -OEChem-04042216003D

 30 30  0     1  0  0  0  0  0999 V2000
   -3.1982   -4.0579    1.1886 H   0  0  0  0  0  0  0  0  0  0  0  0
   -3.1690   -3.2237    0.4812 C   0  0  0  0  0  0  0  0  0  0  0  0
   -4.0555   -2.6037    0.6344 H   0  0  0  0  0  0  0  0  0  0  0  0
   -3.1836   -3.6282   -0.5337 H   0  0  0  0  0  0  0  0  0  0  0  0
   -1.9124   -2.4027    0.6986 C   0  0  0  0  0  0  0  0  0  0  0  0
   -1.1472   -2.6844    1.6014 O   0  0  0  0  0  0  0  0  0  0  0  0
   -1.6440   -1.3078   -0.1050 N   0  0  0  0  0  0  0  0  0  0  0  0
   -2.2490   -1.2192   -0.9173 H   0  0  0  0  0  0  0  0  0  0  0  0
   -0.3073   -0.6751   -0.1643 C   0  0  1  0  0  0  0  0  0  0  0  0
    0.3775   -1.5041   -0.3854 H   0  0  0  0  0  0  0  0  0  0  0  0
   -0.1524    0.3000   -1.3513 C   0  0  0  0  0  0  0  0  0  0  0  0
    0.9064    0.2897   -1.6338 H   0  0  0  0  0  0  0  0  0  0  0  0
   -0.7154   -0.0695   -2.2143 H   0  0  0  0  0  0  0  0  0  0  0  0
   -0.5404    1.7344   -1.0686 C   0  0  0  0  0  0  0  0  0  0  0  0
    0.2081    2.8496   -1.4503 N   0  3  0  0  0  0  0  0  0  0  0  0
    1.1266    2.7756   -1.8970 H   0  0  0  0  0  0  0  0  0  0  0  0
   -0.3764    3.9523   -1.0498 C   0  0  0  0  0  0  0  0  0  0  0  0
    0.0027    4.9685   -1.1756 H   0  0  0  0  0  0  0  0  0  0  0  0
   -1.5614    3.5837   -0.4179 N   0  0  0  0  0  0  0  0  0  0  0  0
   -2.2313    4.2262    0.0158 H   0  0  0  0  0  0  0  0  0  0  0  0
   -1.6649    2.1977   -0.4315 C   0  0  0  0  0  0  0  0  0  0  0  0
   -2.4622    1.5901   -0.0061 H   0  0  0  0  0  0  0  0  0  0  0  0
    0.2571   -0.1042    1.1585 C   0  0  0  0  0  0  0  0  0  0  0  0
    1.4656    0.0778    1.2087 O   0  0  0  0  0  0  0  0  0  0  0  0
   -0.5451    0.6452    2.0029 N   0  0  0  0  0  0  0  0  0  0  0  0
   -1.4983    0.2991    2.0692 H   0  0  0  0  0  0  0  0  0  0  0  0
    0.0033    1.2965    3.1908 C   0  0  0  0  0  0  0  0  0  0  0  0
    0.7635    2.0343    2.9124 H   0  0  0  0  0  0  0  0  0  0  0  0
   -0.7883    1.8124    3.7428 H   0  0  0  0  0  0  0  0  0  0  0  0
    0.4633    0.5563    3.8552 H   0  0  0  0  0  0  0  0  0  0  0  0
  1  2  1  0  0  0  0
  2  3  1  0  0  0  0
  2  4  1  0  0  0  0
  2  5  1  0  0  0  0
  5  6  2  0  0  0  0
  5  7  1  0  0  0  0
  7  8  1  0  0  0  0
  7  9  1  0  0  0  0
  9 10  1  0  0  0  0
  9 11  1  0  0  0  0
  9 23  1  0  0  0  0
 11 12  1  0  0  0  0
 11 13  1  0  0  0  0
 11 14  1  0  0  0  0
 14 15  1  0  0  0  0
 14 21  2  0  0  0  0
 15 16  1  0  0  0  0
 15 17  2  0  0  0  0
 17 18  1  0  0  0  0
 17 19  1  0  0  0  0
 19 20  1  0  0  0  0
 19 21  1  0  0  0  0
 21 22  1  0  0  0  0
 23 24  2  0  0  0  0
 23 25  1  0  0  0  0
 25 26  1  0  0  0  0
 25 27  1  0  0  0  0
 27 28  1  0  0  0  0
 27 29  1  0  0  0  0
 27 30  1  0  0  0  0
M  CHG  1  15   1
M  END
$$$$

  -OEChem-04042216003D

 30 30  0     1  0  0  0  0  0999 V2000
   -3.1779   -4.1024    1.1257 H   0  0  0  0  0  0  0  0  0  0  0  0
   -3.1651   -3.2377    0.4554 C   0  0  0  0  0  0  0  0  0  0  0  0
   -4.0487   -2.6271    0.6547 H   0  0  0  0  0  0  0  0  0  0  0  0
   -3.2013   -3.5967   -0.5759 H   0  0  0  0  0  0  0  0  0  0  0  0
   -1.9049   -2.4244    0.6812 C   0  0  0  0  0  0  0  0  0  0  0  0
   -1.1212   -2.7414    1.5561 O   0  0  0  0  0  0  0  0  0  0  0  0
   -1.6523   -1.2962   -0.0800 N   0  0  0  0  0  0  0  0  0  0  0  0
   -2.2823   -1.1585   -0.8660 H   0  0  0  0  0  0  0  0  0  0  0  0
   -0.3230   -0.6482   -0.1302 C   0  0  1  0  0  0  0  0  0  0  0  0
    0.3606   -1.4735   -0.3685 H   0  0  0  0  0  0  0  0  0  0  0  0
   -0.1641    0.3297   -1.3160 C   0  0  0  0  0  0  0  0  0  0  0  0
    0.9008    0.3261   -1.5753 H   0  0  0  0  0  0  0  0  0  0  0  0
   -0.7047   -0.0557   -2.1862 H   0  0  0  0  0  0  0  0  0  0  0  0
   -0.5593    1.7720   -1.0762 C   0  0  0  0  0  0  0  0  0  0  0  0
    0.0282    2.8606   -1.7253 N   0  3  0  0  0  0  0  0  0  0  0  0
    0.8180    2.7628   -2.3695 H   0  0  0  0  0  0  0  0  0  0  0  0
   -0.5056    3.9855   -1.3157 C   0  0  0  0  0  0  0  0  0  0  0  0
   -0.2168    4.9916   -1.6263 H   0  0  0  0  0  0  0  0  0  0  0  0
   -1.4992    3.6574   -0.3981 N   0  0  0  0  0  0  0  0  0  0  0  0
   -2.0859    4.3252    0.1116 H   0  0  0  0  0  0  0  0  0  0  0  0
   -1.5366    2.2761   -0.2534 C   0  0  0  0  0  0  0  0  0  0  0  0
   -2.1963    1.7012    0.3943 H   0  0  0  0  0  0  0  0  0  0  0  0
    0.2579   -0.1216    1.2033 C   0  0  0  0  0  0  0  0  0  0  0  0
    1.4659    0.0649    1.2390 O   0  0  0  0  0  0  0  0  0  0  0  0
   -0.5325    0.5883    2.0922 N   0  0  0  0  0  0  0  0  0  0  0  0
   -1.4721    0.2112    2.1848 H   0  0  0  0  0  0  0  0  0  0  0  0
    0.0430    1.2105    3.2835 C   0  0  0  0  0  0  0  0  0  0  0  0
    0.7848    1.9668    3.0048 H   0  0  0  0  0  0  0  0  0  0  0  0
   -0.7378    1.6987    3.8748 H   0  0  0  0  0  0  0  0  0  0  0  0
    0.5327    0.4574    3.9113 H   0  0  0  0  0  0  0  0  0  0  0  0
  1  2  1  0  0  0  0
  2  3  1  0  0  0  0
  2  4  1  0  0  0  0
  2  5  1  0  0  0  0
  5  6  2  0  0  0  0
  5  7  1  0  0  0  0
  7  8  1  0  0  0  0
  7  9  1  0  0  0  0
  9 10  1  0  0  0  0
  9 11  1  0  0  0  0
  9 23  1  0  0  0  0
 11 12  1  0  0  0  0
 11 13  1  0  0  0  0
 11 14  1  0  0  0  0
 14 15  1  0  0  0  0
 14 21  2  0  0  0  0
 15 16  1  0  0  0  0
 15 17  2  0  0  0  0
 17 18  1  0  0  0  0
 17 19  1  0  0  0  0
 19 20  1  0  0  0  0
 19 21  1  0  0  0  0
 21 22  1  0  0  0  0
 23 24  2  0  0  0  0
 23 25  1  0  0  0  0
 25 26  1  0  0  0  0
 25 27  1  0  0  0  0
 27 28  1  0  0  0  0
 27 29  1  0  0  0  0
 27 30  1  0  0  0  0
M  CHG  1  15   1
M  END
$$$$

  -OEChem-04042216003D

 30 30  0     1  0  0  0  0  0999 V2000
   -3.1799   -4.1145    1.0765 H   0  0  0  0  0  0  0  0  0  0  0  0
   -3.1749   -3.2254    0.4387 C   0  0  0  0  0  0  0  0  0  0  0  0
   -4.0435   -2.6116    0.6876 H   0  0  0  0  0  0  0  0  0  0  0  0
   -3.2474   -3.5443   -0.6039 H   0  0  0  0  0  0  0  0  0  0  0  0
   -1.8971   -2.4379    0.6568 C   0  0  0  0  0  0  0  0  0  0  0  0
   -1.0855   -2.8058    1.4851 O   0  0  0  0  0  0  0  0  0  0  0  0
   -1.6583   -1.2756   -0.0556 N   0  0  0  0  0  0  0  0  0  0  0  0
   -2.3240   -1.0732   -0.7968 H   0  0  0  0  0  0  0  0  0  0  0  0
   -0.3350   -0.6163   -0.0974 C   0  0  1  0  0  0  0  0  0  0  0  0
    0.3437   -1.4395   -0.3575 H   0  0  0  0  0  0  0  0  0  0  0  0
   -0.1681    0.3678   -1.2787 C   0  0  0  0  0  0  0  0  0  0  0  0
    0.9000    0.3652   -1.5269 H   0  0  0  0  0  0  0  0  0  0  0  0
   -0.6982   -0.0285   -2.1504 H   0  0  0  0  0  0  0  0  0  0  0  0
   -0.5634    1.8176   -1.0771 C   0  0  0  0  0  0  0  0  0  0  0  0
   -0.1760    2.8383   -1.9503 N   0  3  0  0  0  0  0  0  0  0  0  0
    0.4586    2.6825   -2.7385 H   0  0  0  0  0  0  0  0  0  0  0  0
   -0.6586    3.9927   -1.5602 C   0  0  0  0  0  0  0  0  0  0  0  0
   -0.4873    4.9619   -2.0332 H   0  0  0  0  0  0  0  0  0  0  0  0
   -1.4215    3.7522   -0.4223 N   0  0  0  0  0  0  0  0  0  0  0  0
   -1.9187    4.4614    0.1252 H   0  0  0  0  0  0  0  0  0  0  0  0
   -1.3736    2.3951   -0.1292 C   0  0  0  0  0  0  0  0  0  0  0  0
   -1.8814    1.8921    0.6903 H   0  0  0  0  0  0  0  0  0  0  0  0
    0.2675   -0.1429    1.2457 C   0  0  0  0  0  0  0  0  0  0  0  0
    1.4758    0.0424    1.2697 O   0  0  0  0  0  0  0  0  0  0  0  0
   -0.5068    0.5229    2.1813 N   0  0  0  0  0  0  0  0  0  0  0  0
   -1.4456    0.1419    2.2712 H   0  0  0  0  0  0  0  0  0  0  0  0
    0.0900    1.0826    3.3933 C   0  0  0  0  0  0  0  0  0  0  0  0
    0.8214    1.8584    3.1420 H   0  0  0  0  0  0  0  0  0  0  0  0
   -0.6811    1.5311    4.0273 H   0  0  0  0  0  0  0  0  0  0  0  0
    0.5969    0.2989    3.9677 H   0  0  0  0  0  0  0  0  0  0  0  0
  1  2  1  0  0  0  0
  2  3  1  0  0  0  0
  2  4  1  0  0  0  0
  2  5  1  0  0  0  0
  5  6  2  0  0  0  0
  5  7  1  0  0  0  0
  7  8  1  0  0  0  0
  7  9  1  0  0  0  0
  9 10  1  0  0  0  0
  9 11  1  0  0  0  0
  9 23  1  0  0  0  0
 11 12  1  0  0  0  0
 11 13  1  0  0  0  0
 11 14  1  0  0  0  0
 14 15  1  0  0  0  0
 14 21  2  0  0  0  0
 15 16  1  0  0  0  0
 15 17  2  0  0  0  0
 17 18  1  0  0  0  0
 17 19  1  0  0  0  0
 19 20  1  0  0  0  0
 19 21  1  0  0  0  0
 21 22  1  0  0  0  0
 23 24  2  0  0  0  0
 23 25  1  0  0  0  0
 25 26  1  0  0  0  0
 25 27  1  0  0  0  0
 27 28  1  0  0  0  0
 27 29  1  0  0  0  0
 27 30  1  0  0  0  0
M  CHG  1  15   1
M  END
$$$$

  -OEChem-04042216003D

 30 30  0     1  0  0  0  0  0999 V2000
   -3.2323   -4.0383    1.0519 H   0  0  0  0  0  0  0  0  0  0  0  0
   -3.2100   -3.1256    0.4488 C   0  0  0  0  0  0  0  0  0  0  0  0
   -4.0084   -2.4621    0.7890 H   0  0  0  0  0  0  0  0  0  0  0  0
   -3.3854   -3.3933   -0.5958 H   0  0  0  0  0  0  0  0  0  0  0  0
   -1.8638   -2.4419    0.5920 C   0  0  0  0  0  0  0  0  0  0  0  0
   -1.0035   -2.9272    1.3026 O   0  0  0  0  0  0  0  0  0  0  0  0
   -1.6109   -1.2485   -0.0620 N   0  0  0  0  0  0  0  0  0  0  0  0
   -2.3494   -0.8997   -0.6673 H   0  0  0  0  0  0  0  0  0  0  0  0
   -0.2902   -0.5814   -0.0748 C   0  0  1  0  0  0  0  0  0  0  0  0
    0.3958   -1.3957   -0.3436 H   0  0  0  0  0  0  0  0  0  0  0  0
   -0.1185    0.4155   -1.2540 C   0  0  0  0  0  0  0  0  0  0  0  0
    0.8744    0.2127   -1.6720 H   0  0  0  0  0  0  0  0  0  0  0  0
   -0.8449    0.1459   -2.0269 H   0  0  0  0  0  0  0  0  0  0  0  0
   -0.1777    1.9237   -1.0586 C   0  0  0  0  0  0  0  0  0  0  0  0
   -0.0185    2.7920   -2.1451 N   0  3  0  0  0  0  0  0  0  0  0  0
    0.1535    2.4601   -3.0980 H   0  0  0  0  0  0  0  0  0  0  0  0
   -0.0511    4.0441   -1.7602 C   0  0  0  0  0  0  0  0  0  0  0  0
    0.0713    4.9244   -2.3944 H   0  0  0  0  0  0  0  0  0  0  0  0
   -0.2530    4.0397   -0.3861 N   0  0  0  0  0  0  0  0  0  0  0  0
   -0.2918    4.8678    0.2164 H   0  0  0  0  0  0  0  0  0  0  0  0
   -0.3235    2.7242    0.0521 C   0  0  0  0  0  0  0  0  0  0  0  0
   -0.4344    2.4180    1.0865 H   0  0  0  0  0  0  0  0  0  0  0  0
    0.2571   -0.1882    1.3138 C   0  0  0  0  0  0  0  0  0  0  0  0
    1.4587    0.0126    1.4103 O   0  0  0  0  0  0  0  0  0  0  0  0
   -0.5705    0.4110    2.2494 N   0  0  0  0  0  0  0  0  0  0  0  0
   -1.5383    0.1003    2.2057 H   0  0  0  0  0  0  0  0  0  0  0  0
   -0.0640    0.8162    3.5601 C   0  0  0  0  0  0  0  0  0  0  0  0
    0.7132    1.5813    3.4581 H   0  0  0  0  0  0  0  0  0  0  0  0
   -0.8729    1.2292    4.1711 H   0  0  0  0  0  0  0  0  0  0  0  0
    0.3626   -0.0446    4.0874 H   0  0  0  0  0  0  0  0  0  0  0  0
  1  2  1  0  0  0  0
  2  3  1  0  0  0  0
  2  4  1  0  0  0  0
  2  5  1  0  0  0  0
  5  6  2  0  0  0  0
  5  7  1  0  0  0  0
  7  8  1  0  0  0  0
  7  9  1  0  0  0  0
  9 10  1  0  0  0  0
  9 11  1  0  0  0  0
  9 23  1  0  0  0  0
 11 12  1  0  0  0  0
 11 13  1  0  0  0  0
 11 14  1  0  0  0  0
 14 15  1  0  0  0  0
 14 21  2  0  0  0  0
 15 16  1  0  0  0  0
 15 17  2  0  0  0  0
 17 18  1  0  0  0  0
 17 19  1  0  0  0  0
 19 20  1  0  0  0  0
 19 21  1  0  0  0  0
 21 22  1  0  0  0  0
 23 24  2  0  0  0  0
 23 25  1  0  0  0  0
 25 26  1  0  0  0  0
 25 27  1  0  0  0  0
 27 28  1  0  0  0  0
 27 29  1  0  0  0  0
 27 30  1  0  0  0  0
M  CHG  1  15   1
M  END
$$$$

  -OEChem-04042216003D

 30 30  0     1  0  0  0  0  0999 V2000
   -3.2232   -4.0016    1.1329 H   0  0  0  0  0  0  0  0  0  0  0  0
   -3.1937   -3.1065    0.5045 C   0  0  0  0  0  0  0  0  0  0  0  0
   -3.9847   -2.4259    0.8277 H   0  0  0  0  0  0  0  0  0  0  0  0
   -3.3739   -3.4017   -0.5319 H   0  0  0  0  0  0  0  0  0  0  0  0
   -1.8406   -2.4327    0.6256 C   0  0  0  0  0  0  0  0  0  0  0  0
   -0.9843   -2.9074    1.3478 O   0  0  0  0  0  0  0  0  0  0  0  0
   -1.5722   -1.2692   -0.0753 N   0  0  0  0  0  0  0  0  0  0  0  0
   -2.3085   -0.9310   -0.6887 H   0  0  0  0  0  0  0  0  0  0  0  0
   -0.2442   -0.6154   -0.1064 C   0  0  1  0  0  0  0  0  0  0  0  0
    0.4541   -1.4195   -0.3732 H   0  0  0  0  0  0  0  0  0  0  0  0
   -0.1255    0.4022   -1.2777 C   0  0  0  0  0  0  0  0  0  0  0  0
    0.8429    0.2092   -1.7540 H   0  0  0  0  0  0  0  0  0  0  0  0
   -0.8909    0.1453   -2.0161 H   0  0  0  0  0  0  0  0  0  0  0  0
   -0.1787    1.9073   -1.0473 C   0  0  0  0  0  0  0  0  0  0  0  0
   -0.3854    2.8044   -2.1022 N   0  3  0  0  0  0  0  0  0  0  0  0
   -0.5568    2.4990   -3.0637 H   0  0  0  0  0  0  0  0  0  0  0  0
   -0.2859    4.0465   -1.6956 C   0  0  0  0  0  0  0  0  0  0  0  0
   -0.3921    4.9442   -2.3084 H   0  0  0  0  0  0  0  0  0  0  0  0
    0.0050    4.0066   -0.3380 N   0  0  0  0  0  0  0  0  0  0  0  0
    0.1900    4.8179    0.2602 H   0  0  0  0  0  0  0  0  0  0  0  0
    0.1010    2.6803    0.0587 C   0  0  0  0  0  0  0  0  0  0  0  0
    0.4127    2.3415    1.0448 H   0  0  0  0  0  0  0  0  0  0  0  0
    0.2613   -0.1858    1.2864 C   0  0  0  0  0  0  0  0  0  0  0  0
    1.4611   -0.0033    1.4332 O   0  0  0  0  0  0  0  0  0  0  0  0
   -0.5989    0.4475    2.1695 N   0  0  0  0  0  0  0  0  0  0  0  0
   -1.5760    0.1881    2.0585 H   0  0  0  0  0  0  0  0  0  0  0  0
   -0.1637    0.8309    3.5118 C   0  0  0  0  0  0  0  0  0  0  0  0
    0.6720    1.5373    3.4663 H   0  0  0  0  0  0  0  0  0  0  0  0
   -0.9846    1.3073    4.0569 H   0  0  0  0  0  0  0  0  0  0  0  0
    0.1587   -0.0520    4.0753 H   0  0  0  0  0  0  0  0  0  0  0  0
  1  2  1  0  0  0  0
  2  3  1  0  0  0  0
  2  4  1  0  0  0  0
  2  5  1  0  0  0  0
  5  6  2  0  0  0  0
  5  7  1  0  0  0  0
  7  8  1  0  0  0  0
  7  9  1  0  0  0  0
  9 10  1  0  0  0  0
  9 11  1  0  0  0  0
  9 23  1  0  0  0  0
 11 12  1  0  0  0  0
 11 13  1  0  0  0  0
 11 14  1  0  0  0  0
 14 15  1  0  0  0  0
 14 21  2  0  0  0  0
 15 16  1  0  0  0  0
 15 17  2  0  0  0  0
 17 18  1  0  0  0  0
 17 19  1  0  0  0  0
 19 20  1  0  0  0  0
 19 21  1  0  0  0  0
 21 22  1  0  0  0  0
 23 24  2  0  0  0  0
 23 25  1  0  0  0  0
 25 26  1  0  0  0  0
 25 27  1  0  0  0  0
 27 28  1  0  0  0  0
 27 29  1  0  0  0  0
 27 30  1  0  0  0  0
M  CHG  1  15   1
M  END
$$$$

  -OEChem-04042216003D

 30 30  0     1  0  0  0  0  0999 V2000
   -3.2483   -3.9679    1.1710 H   0  0  0  0  0  0  0  0  0  0  0  0
   -3.2024   -3.0931    0.5156 C   0  0  0  0  0  0  0  0  0  0  0  0
   -3.9971   -2.4001    0.8012 H   0  0  0  0  0  0  0  0  0  0  0  0
   -3.3630   -3.4204   -0.5145 H   0  0  0  0  0  0  0  0  0  0  0  0
   -1.8496   -2.4199    0.6444 C   0  0  0  0  0  0  0  0  0  0  0  0
   -1.0127   -2.8719    1.4030 O   0  0  0  0  0  0  0  0  0  0  0  0
   -1.5620   -1.2810   -0.0883 N   0  0  0  0  0  0  0  0  0  0  0  0
   -2.2748   -0.9779   -0.7457 H   0  0  0  0  0  0  0  0  0  0  0  0
   -0.2257   -0.6441   -0.1210 C   0  0  1  0  0  0  0  0  0  0  0  0
    0.4707   -1.4538   -0.3756 H   0  0  0  0  0  0  0  0  0  0  0  0
   -0.1156    0.3685   -1.2977 C   0  0  0  0  0  0  0  0  0  0  0  0
    0.8488    0.1797   -1.7831 H   0  0  0  0  0  0  0  0  0  0  0  0
   -0.8848    0.1172   -2.0338 H   0  0  0  0  0  0  0  0  0  0  0  0
   -0.1649    1.8685   -1.0369 C   0  0  0  0  0  0  0  0  0  0  0  0
   -0.6731    2.7860   -1.9641 N   0  3  0  0  0  0  0  0  0  0  0  0
   -1.0865    2.5032   -2.8564 H   0  0  0  0  0  0  0  0  0  0  0  0
   -0.5068    4.0182   -1.5476 C   0  0  0  0  0  0  0  0  0  0  0  0
   -0.8023    4.9290   -2.0727 H   0  0  0  0  0  0  0  0  0  0  0  0
    0.1373    3.9494   -0.3181 N   0  0  0  0  0  0  0  0  0  0  0  0
    0.4402    4.7484    0.2477 H   0  0  0  0  0  0  0  0  0  0  0  0
    0.3765    2.6172   -0.0145 C   0  0  0  0  0  0  0  0  0  0  0  0
    0.9336    2.2517    0.8489 H   0  0  0  0  0  0  0  0  0  0  0  0
    0.2769   -0.1756    1.2604 C   0  0  0  0  0  0  0  0  0  0  0  0
    1.4819   -0.0501    1.4277 O   0  0  0  0  0  0  0  0  0  0  0  0
   -0.5752    0.4996    2.1185 N   0  0  0  0  0  0  0  0  0  0  0  0
   -1.5590    0.2713    2.0005 H   0  0  0  0  0  0  0  0  0  0  0  0
   -0.1430    0.9178    3.4507 C   0  0  0  0  0  0  0  0  0  0  0  0
    0.6991    1.6151    3.3874 H   0  0  0  0  0  0  0  0  0  0  0  0
   -0.9619    1.4171    3.9782 H   0  0  0  0  0  0  0  0  0  0  0  0
    0.1692    0.0487    4.0407 H   0  0  0  0  0  0  0  0  0  0  0  0
  1  2  1  0  0  0  0
  2  3  1  0  0  0  0
  2  4  1  0  0  0  0
  2  5  1  0  0  0  0
  5  6  2  0  0  0  0
  5  7  1  0  0  0  0
  7  8  1  0  0  0  0
  7  9  1  0  0  0  0
  9 10  1  0  0  0  0
  9 11  1  0  0  0  0
  9 23  1  0  0  0  0
 11 12  1  0  0  0  0
 11 13  1  0  0  0  0
 11 14  1  0  0  0  0
 14 15  1  0  0  0  0
 14 21  2  0  0  0  0
 15 16  1  0  0  0  0
 15 17  2  0  0  0  0
 17 18  1  0  0  0  0
 17 19  1  0  0  0  0
 19 20  1  0  0  0  0
 19 21  1  0  0  0  0
 21 22  1  0  0  0  0
 23 24  2  0  0  0  0
 23 25  1  0  0  0  0
 25 26  1  0  0  0  0
 25 27  1  0  0  0  0
 27 28  1  0  0  0  0
 27 29  1  0  0  0  0
 27 30  1  0  0  0  0
M  CHG  1  15   1
M  END
$$$$

  -OEChem-04042216003D

 30 30  0     1  0  0  0  0  0999 V2000
   -3.2405   -3.9572    1.2218 H   0  0  0  0  0  0  0  0  0  0  0  0
   -3.1885   -3.1107    0.5305 C   0  0  0  0  0  0  0  0  0  0  0  0
   -4.0031   -2.4203    0.7610 H   0  0  0  0  0  0  0  0  0  0  0  0
   -3.3111   -3.4853   -0.4885 H   0  0  0  0  0  0  0  0  0  0  0  0
   -1.8516   -2.4088    0.6711 C   0  0  0  0  0  0  0  0  0  0  0  0
   -1.0314   -2.8168    1.4715 O   0  0  0  0  0  0  0  0  0  0  0  0
   -1.5594   -1.2973   -0.1014 N   0  0  0  0  0  0  0  0  0  0  0  0
   -2.2417   -1.0611   -0.8156 H   0  0  0  0  0  0  0  0  0  0  0  0
   -0.2203   -0.6667   -0.1438 C   0  0  1  0  0  0  0  0  0  0  0  0
    0.4798   -1.4778   -0.3830 H   0  0  0  0  0  0  0  0  0  0  0  0
   -0.1211    0.3391   -1.3262 C   0  0  0  0  0  0  0  0  0  0  0  0
    0.8451    0.1587   -1.8115 H   0  0  0  0  0  0  0  0  0  0  0  0
   -0.8872    0.0949   -2.0681 H   0  0  0  0  0  0  0  0  0  0  0  0
   -0.1709    1.8285   -1.0220 C   0  0  0  0  0  0  0  0  0  0  0  0
   -0.9340    2.7645   -1.7282 N   0  3  0  0  0  0  0  0  0  0  0  0
   -1.5861    2.5044   -2.4722 H   0  0  0  0  0  0  0  0  0  0  0  0
   -0.6756    3.9832   -1.3172 C   0  0  0  0  0  0  0  0  0  0  0  0
   -1.1263    4.9058   -1.6887 H   0  0  0  0  0  0  0  0  0  0  0  0
    0.2967    3.8848   -0.3281 N   0  0  0  0  0  0  0  0  0  0  0  0
    0.7291    4.6679    0.1718 H   0  0  0  0  0  0  0  0  0  0  0  0
    0.6343    2.5491   -0.1681 C   0  0  0  0  0  0  0  0  0  0  0  0
    1.4127    2.1529    0.4874 H   0  0  0  0  0  0  0  0  0  0  0  0
    0.2737   -0.1500    1.2254 C   0  0  0  0  0  0  0  0  0  0  0  0
    1.4791   -0.0554    1.4117 O   0  0  0  0  0  0  0  0  0  0  0  0
   -0.5799    0.5600    2.0527 N   0  0  0  0  0  0  0  0  0  0  0  0
   -1.5654    0.3420    1.9316 H   0  0  0  0  0  0  0  0  0  0  0  0
   -0.1541    1.0331    3.3680 C   0  0  0  0  0  0  0  0  0  0  0  0
    0.6990    1.7139    3.2795 H   0  0  0  0  0  0  0  0  0  0  0  0
   -0.9699    1.5694    3.8627 H   0  0  0  0  0  0  0  0  0  0  0  0
    0.1388    0.1882    4.0015 H   0  0  0  0  0  0  0  0  0  0  0  0
  1  2  1  0  0  0  0
  2  3  1  0  0  0  0
  2  4  1  0  0  0  0
  2  5  1  0  0  0  0
  5  6  2  0  0  0  0
  5  7  1  0  0  0  0
  7  8  1  0  0  0  0
  7  9  1  0  0  0  0
  9 10  1  0  0  0  0
  9 11  1  0  0  0  0
  9 23  1  0  0  0  0
 11 12  1  0  0  0  0
 11 13  1  0  0  0  0
 11 14  1  0  0  0  0
 14 15  1  0  0  0  0
 14 21  2  0  0  0  0
 15 16  1  0  0  0  0
 15 17  2  0  0  0  0
 17 18  1  0  0  0  0
 17 19  1  0  0  0  0
 19 20  1  0  0  0  0
 19 21  1  0  0  0  0
 21 22  1  0  0  0  0
 23 24  2  0  0  0  0
 23 25  1  0  0  0  0
 25 26  1  0  0  0  0
 25 27  1  0  0  0  0
 27 28  1  0  0  0  0
 27 29  1  0  0  0  0
 27 30  1  0  0  0  0
M  CHG  1  15   1
M  END
$$$$

  -OEChem-04042216003D

 30 30  0     1  0  0  0  0  0999 V2000
   -3.2342   -3.9637    1.2368 H   0  0  0  0  0  0  0  0  0  0  0  0
   -3.1818   -3.1277    0.5329 C   0  0  0  0  0  0  0  0  0  0  0  0
   -4.0128   -2.4479    0.7346 H   0  0  0  0  0  0  0  0  0  0  0  0
   -3.2764   -3.5209   -0.4821 H   0  0  0  0  0  0  0  0  0  0  0  0
   -1.8610   -2.3989    0.6899 C   0  0  0  0  0  0  0  0  0  0  0  0
   -1.0610   -2.7617    1.5314 O   0  0  0  0  0  0  0  0  0  0  0  0
   -1.5652   -1.3098   -0.1125 N   0  0  0  0  0  0  0  0  0  0  0  0
   -2.2185   -1.1363   -0.8705 H   0  0  0  0  0  0  0  0  0  0  0  0
   -0.2241   -0.6840   -0.1657 C   0  0  1  0  0  0  0  0  0  0  0  0
    0.4752   -1.4997   -0.3900 H   0  0  0  0  0  0  0  0  0  0  0  0
   -0.1223    0.3111   -1.3546 C   0  0  0  0  0  0  0  0  0  0  0  0
    0.8455    0.1302   -1.8365 H   0  0  0  0  0  0  0  0  0  0  0  0
   -0.8863    0.0780   -2.1018 H   0  0  0  0  0  0  0  0  0  0  0  0
   -0.1681    1.7895   -1.0151 C   0  0  0  0  0  0  0  0  0  0  0  0
   -1.1124    2.7188   -1.4608 N   0  3  0  0  0  0  0  0  0  0  0  0
   -1.9247    2.4626   -2.0271 H   0  0  0  0  0  0  0  0  0  0  0  0
   -0.7957    3.9268   -1.0580 C   0  0  0  0  0  0  0  0  0  0  0  0
   -1.3543    4.8448   -1.2516 H   0  0  0  0  0  0  0  0  0  0  0  0
    0.3953    3.8249   -0.3450 N   0  0  0  0  0  0  0  0  0  0  0  0
    0.9054    4.5995    0.0909 H   0  0  0  0  0  0  0  0  0  0  0  0
    0.8001    2.4983   -0.3426 C   0  0  0  0  0  0  0  0  0  0  0  0
    1.7091    2.0877    0.1042 H   0  0  0  0  0  0  0  0  0  0  0  0
    0.2748   -0.1275    1.1880 C   0  0  0  0  0  0  0  0  0  0  0  0
    1.4815   -0.0133    1.3584 O   0  0  0  0  0  0  0  0  0  0  0  0
   -0.5770    0.6101    1.9926 N   0  0  0  0  0  0  0  0  0  0  0  0
   -1.5602    0.3702    1.8981 H   0  0  0  0  0  0  0  0  0  0  0  0
   -0.1392    1.1557    3.2751 C   0  0  0  0  0  0  0  0  0  0  0  0
    0.6735    1.8758    3.1332 H   0  0  0  0  0  0  0  0  0  0  0  0
   -0.9679    1.6679    3.7741 H   0  0  0  0  0  0  0  0  0  0  0  0
    0.2164    0.3531    3.9312 H   0  0  0  0  0  0  0  0  0  0  0  0
  1  2  1  0  0  0  0
  2  3  1  0  0  0  0
  2  4  1  0  0  0  0
  2  5  1  0  0  0  0
  5  6  2  0  0  0  0
  5  7  1  0  0  0  0
  7  8  1  0  0  0  0
  7  9  1  0  0  0  0
  9 10  1  0  0  0  0
  9 11  1  0  0  0  0
  9 23  1  0  0  0  0
 11 12  1  0  0  0  0
 11 13  1  0  0  0  0
 11 14  1  0  0  0  0
 14 15  1  0  0  0  0
 14 21  2  0  0  0  0
 15 16  1  0  0  0  0
 15 17  2  0  0  0  0
 17 18  1  0  0  0  0
 17 19  1  0  0  0  0
 19 20  1  0  0  0  0
 19 21  1  0  0  0  0
 21 22  1  0  0  0  0
 23 24  2  0  0  0  0
 23 25  1  0  0  0  0
 25 26  1  0  0  0  0
 25 27  1  0  0  0  0
 27 28  1  0  0  0  0
 27 29  1  0  0  0  0
 27 30  1  0  0  0  0
M  CHG  1  15   1
M  END
$$$$

  -OEChem-04042216003D

 30 30  0     1  0  0  0  0  0999 V2000
   -3.2128   -3.9768    1.2499 H   0  0  0  0  0  0  0  0  0  0  0  0
   -3.1677   -3.1559    0.5278 C   0  0  0  0  0  0  0  0  0  0  0  0
   -4.0278   -2.5018    0.6881 H   0  0  0  0  0  0  0  0  0  0  0  0
   -3.2172   -3.5755   -0.4799 H   0  0  0  0  0  0  0  0  0  0  0  0
   -1.8781   -2.3780    0.7069 C   0  0  0  0  0  0  0  0  0  0  0  0
   -1.0976   -2.6880    1.5870 O   0  0  0  0  0  0  0  0  0  0  0  0
   -1.5885   -1.3049   -0.1192 N   0  0  0  0  0  0  0  0  0  0  0  0
   -2.2131   -1.1938   -0.9125 H   0  0  0  0  0  0  0  0  0  0  0  0
   -0.2450   -0.6858   -0.1863 C   0  0  1  0  0  0  0  0  0  0  0  0
    0.4476   -1.5097   -0.4010 H   0  0  0  0  0  0  0  0  0  0  0  0
   -0.1317    0.2941   -1.3838 C   0  0  0  0  0  0  0  0  0  0  0  0
    0.8357    0.1033   -1.8626 H   0  0  0  0  0  0  0  0  0  0  0  0
   -0.8965    0.0703   -2.1332 H   0  0  0  0  0  0  0  0  0  0  0  0
   -0.1678    1.7661   -1.0264 C   0  0  0  0  0  0  0  0  0  0  0  0
   -1.2258    2.6609   -1.2028 N   0  3  0  0  0  0  0  0  0  0  0  0
   -2.1343    2.3858   -1.5829 H   0  0  0  0  0  0  0  0  0  0  0  0
   -0.8753    3.8639   -0.8124 C   0  0  0  0  0  0  0  0  0  0  0  0
   -1.4985    4.7601   -0.8273 H   0  0  0  0  0  0  0  0  0  0  0  0
    0.4451    3.7897   -0.3757 N   0  0  0  0  0  0  0  0  0  0  0  0
    1.0003    4.5649   -0.0000 H   0  0  0  0  0  0  0  0  0  0  0  0
    0.8902    2.4840   -0.5230 C   0  0  0  0  0  0  0  0  0  0  0  0
    1.8734    2.0835   -0.2640 H   0  0  0  0  0  0  0  0  0  0  0  0
    0.2738   -0.1018    1.1495 C   0  0  0  0  0  0  0  0  0  0  0  0
    1.4832    0.0303    1.2870 O   0  0  0  0  0  0  0  0  0  0  0  0
   -0.5649    0.6588    1.9468 N   0  0  0  0  0  0  0  0  0  0  0  0
   -1.5452    0.3963    1.8910 H   0  0  0  0  0  0  0  0  0  0  0  0
   -0.1011    1.2471    3.2010 C   0  0  0  0  0  0  0  0  0  0  0  0
    0.7171    1.9521    3.0203 H   0  0  0  0  0  0  0  0  0  0  0  0
   -0.9160    1.7871    3.6928 H   0  0  0  0  0  0  0  0  0  0  0  0
    0.2558    0.4655    3.8811 H   0  0  0  0  0  0  0  0  0  0  0  0
  1  2  1  0  0  0  0
  2  3  1  0  0  0  0
  2  4  1  0  0  0  0
  2  5  1  0  0  0  0
  5  6  2  0  0  0  0
  5  7  1  0  0  0  0
  7  8  1  0  0  0  0
  7  9  1  0  0  0  0
  9 10  1  0  0  0  0
  9 11  1  0  0  0  0
  9 23  1  0  0  0  0
 11 12  1  0  0  0  0
 11 13  1  0  0  0  0
 11 14  1  0  0  0  0
 14 15  1  0  0  0  0
 14 21  2  0  0  0  0
 15 16  1  0  0  0  0
 15 17  2  0  0  0  0
 17 18  1  0  0  0  0
 17 19  1  0  0  0  0
 19 20  1  0  0  0  0
 19 21  1  0  0  0  0
 21 22  1  0  0  0  0
 23 24  2  0  0  0  0
 23 25  1  0  0  0  0
 25 26  1  0  0  0  0
 25 27  1  0  0  0  0
 27 28  1  0  0  0  0
 27 29  1  0  0  0  0
 27 30  1  0  0  0  0
M  CHG  1  15   1
M  END
$$$$

  -OEChem-04042216003D

 30 30  0     1  0  0  0  0  0999 V2000
   -3.2050   -3.9778    1.2621 H   0  0  0  0  0  0  0  0  0  0  0  0
   -3.1601   -3.1700    0.5254 C   0  0  0  0  0  0  0  0  0  0  0  0
   -4.0330   -2.5266    0.6579 H   0  0  0  0  0  0  0  0  0  0  0  0
   -3.1850   -3.6094   -0.4747 H   0  0  0  0  0  0  0  0  0  0  0  0
   -1.8865   -2.3681    0.7116 C   0  0  0  0  0  0  0  0  0  0  0  0
   -1.1166   -2.6466    1.6113 O   0  0  0  0  0  0  0  0  0  0  0  0
   -1.6034   -1.3039   -0.1281 N   0  0  0  0  0  0  0  0  0  0  0  0
   -2.2122   -1.2311   -0.9385 H   0  0  0  0  0  0  0  0  0  0  0  0
   -0.2599   -0.6859   -0.2049 C   0  0  1  0  0  0  0  0  0  0  0  0
    0.4297   -1.5138   -0.4140 H   0  0  0  0  0  0  0  0  0  0  0  0
   -0.1403    0.2845   -1.4072 C   0  0  0  0  0  0  0  0  0  0  0  0
    0.8265    0.0876   -1.8852 H   0  0  0  0  0  0  0  0  0  0  0  0
   -0.9078    0.0679   -2.1559 H   0  0  0  0  0  0  0  0  0  0  0  0
   -0.1728    1.7519   -1.0386 C   0  0  0  0  0  0  0  0  0  0  0  0
   -1.2854    2.5892   -0.9357 N   0  3  0  0  0  0  0  0  0  0  0  0
   -2.2420    2.2722   -1.1070 H   0  0  0  0  0  0  0  0  0  0  0  0
   -0.9143    3.7938   -0.5708 C   0  0  0  0  0  0  0  0  0  0  0  0
   -1.5673    4.6520   -0.4012 H   0  0  0  0  0  0  0  0  0  0  0  0
    0.4717    3.7767   -0.4324 N   0  0  0  0  0  0  0  0  0  0  0  0
    1.0562    4.5630   -0.1325 H   0  0  0  0  0  0  0  0  0  0  0  0
    0.9342    2.5019   -0.7270 C   0  0  0  0  0  0  0  0  0  0  0  0
    1.9629    2.1386   -0.6757 H   0  0  0  0  0  0  0  0  0  0  0  0
    0.2723   -0.0850    1.1189 C   0  0  0  0  0  0  0  0  0  0  0  0
    1.4822    0.0668    1.2297 O   0  0  0  0  0  0  0  0  0  0  0  0
   -0.5607    0.6871    1.9121 N   0  0  0  0  0  0  0  0  0  0  0  0
   -1.5336    0.3933    1.8963 H   0  0  0  0  0  0  0  0  0  0  0  0
   -0.0760    1.3165    3.1381 C   0  0  0  0  0  0  0  0  0  0  0  0
    0.7276    2.0269    2.9172 H   0  0  0  0  0  0  0  0  0  0  0  0
   -0.8868    1.8591    3.6339 H   0  0  0  0  0  0  0  0  0  0  0  0
    0.3083    0.5598    3.8314 H   0  0  0  0  0  0  0  0  0  0  0  0
  1  2  1  0  0  0  0
  2  3  1  0  0  0  0
  2  4  1  0  0  0  0
  2  5  1  0  0  0  0
  5  6  2  0  0  0  0
  5  7  1  0  0  0  0
  7  8  1  0  0  0  0
  7  9  1  0  0  0  0
  9 10  1  0  0  0  0
  9 11  1  0  0  0  0
  9 23  1  0  0  0  0
 11 12  1  0  0  0  0
 11 13  1  0  0  0  0
 11 14  1  0  0  0  0
 14 15  1  0  0  0  0
 14 21  2  0  0  0  0
 15 16  1  0  0  0  0
 15 17  2  0  0  0  0
 17 18  1  0  0  0  0
 17 19  1  0  0  0  0
 19 20  1  0  0  0  0
 19 21  1  0  0  0  0
 21 22  1  0  0  0  0
 23 24  2  0  0  0  0
 23 25  1  0  0  0  0
 25 26  1  0  0  0  0
 25 27  1  0  0  0  0
 27 28  1  0  0  0  0
 27 29  1  0  0  0  0
 27 30  1  0  0  0  0
M  CHG  1  15   1
M  END
$$$$

  -OEChem-04042216003D

 30 30  0     1  0  0  0  0  0999 V2000
   -3.2020   -3.9841    1.2618 H   0  0  0  0  0  0  0  0  0  0  0  0
   -3.1581   -3.1841    0.5164 C   0  0  0  0  0  0  0  0  0  0  0  0
   -4.0408   -2.5510    0.6309 H   0  0  0  0  0  0  0  0  0  0  0  0
   -3.1654   -3.6349   -0.4790 H   0  0  0  0  0  0  0  0  0  0  0  0
   -1.8970   -2.3638    0.7097 C   0  0  0  0  0  0  0  0  0  0  0  0
   -1.1369   -2.6218    1.6237 O   0  0  0  0  0  0  0  0  0  0  0  0
   -1.6184   -1.2991   -0.1312 N   0  0  0  0  0  0  0  0  0  0  0  0
   -2.2155   -1.2463   -0.9522 H   0  0  0  0  0  0  0  0  0  0  0  0
   -0.2750   -0.6803   -0.2101 C   0  0  1  0  0  0  0  0  0  0  0  0
    0.4131   -1.5105   -0.4162 H   0  0  0  0  0  0  0  0  0  0  0  0
   -0.1484    0.2839   -1.4156 C   0  0  0  0  0  0  0  0  0  0  0  0
    0.8163    0.0798   -1.8946 H   0  0  0  0  0  0  0  0  0  0  0  0
   -0.9196    0.0697   -2.1618 H   0  0  0  0  0  0  0  0  0  0  0  0
   -0.1803    1.7512   -1.0492 C   0  0  0  0  0  0  0  0  0  0  0  0
   -1.2848    2.5188   -0.6752 N   0  3  0  0  0  0  0  0  0  0  0  0
   -2.2315    2.1394   -0.6101 H   0  0  0  0  0  0  0  0  0  0  0  0
   -0.9076    3.7370   -0.3671 C   0  0  0  0  0  0  0  0  0  0  0  0
   -1.5498    4.5480   -0.0188 H   0  0  0  0  0  0  0  0  0  0  0  0
    0.4715    3.8021   -0.5507 N   0  0  0  0  0  0  0  0  0  0  0  0
    1.0650    4.6151   -0.3597 H   0  0  0  0  0  0  0  0  0  0  0  0
    0.9260    2.5600   -0.9715 C   0  0  0  0  0  0  0  0  0  0  0  0
    1.9588    2.2601   -1.1565 H   0  0  0  0  0  0  0  0  0  0  0  0
    0.2651   -0.0780    1.1103 C   0  0  0  0  0  0  0  0  0  0  0  0
    1.4741    0.0882    1.2014 O   0  0  0  0  0  0  0  0  0  0  0  0
   -0.5627    0.6951    1.9087 N   0  0  0  0  0  0  0  0  0  0  0  0
   -1.5230    0.3630    1.9370 H   0  0  0  0  0  0  0  0  0  0  0  0
   -0.0551    1.3453    3.1149 C   0  0  0  0  0  0  0  0  0  0  0  0
    0.7373    2.0592    2.8660 H   0  0  0  0  0  0  0  0  0  0  0  0
   -0.8582    1.8879    3.6228 H   0  0  0  0  0  0  0  0  0  0  0  0
    0.3517    0.6008    3.8085 H   0  0  0  0  0  0  0  0  0  0  0  0
  1  2  1  0  0  0  0
  2  3  1  0  0  0  0
  2  4  1  0  0  0  0
  2  5  1  0  0  0  0
  5  6  2  0  0  0  0
  5  7  1  0  0  0  0
  7  8  1  0  0  0  0
  7  9  1  0  0  0  0
  9 10  1  0  0  0  0
  9 11  1  0  0  0  0
  9 23  1  0  0  0  0
 11 12  1  0  0  0  0
 11 13  1  0  0  0  0
 11 14  1  0  0  0  0
 14 15  1  0  0  0  0
 14 21  2  0  0  0  0
 15 16  1  0  0  0  0
 15 17  2  0  0  0  0
 17 18  1  0  0  0  0
 17 19  1  0  0  0  0
 19 20  1  0  0  0  0
 19 21  1  0  0  0  0
 21 22  1  0  0  0  0
 23 24  2  0  0  0  0
 23 25  1  0  0  0  0
 25 26  1  0  0  0  0
 25 27  1  0  0  0  0
 27 28  1  0  0  0  0
 27 29  1  0  0  0  0
 27 30  1  0  0  0  0
M  CHG  1  15   1
M  END
$$$$

  -OEChem-04042216003D

 30 30  0     1  0  0  0  0  0999 V2000
   -3.1878   -4.0226    1.2172 H   0  0  0  0  0  0  0  0  0  0  0  0
   -3.1566   -3.2025    0.4936 C   0  0  0  0  0  0  0  0  0  0  0  0
   -4.0465   -2.5833    0.6277 H   0  0  0  0  0  0  0  0  0  0  0  0
   -3.1619   -3.6268   -0.5133 H   0  0  0  0  0  0  0  0  0  0  0  0
   -1.9052   -2.3721    0.7046 C   0  0  0  0  0  0  0  0  0  0  0  0
   -1.1490   -2.6307    1.6217 O   0  0  0  0  0  0  0  0  0  0  0  0
   -1.6336   -1.2929   -0.1196 N   0  0  0  0  0  0  0  0  0  0  0  0
   -2.2306   -1.2339   -0.9408 H   0  0  0  0  0  0  0  0  0  0  0  0
   -0.2925   -0.6688   -0.1947 C   0  0  1  0  0  0  0  0  0  0  0  0
    0.3932   -1.4997   -0.4055 H   0  0  0  0  0  0  0  0  0  0  0  0
   -0.1561    0.2933   -1.4003 C   0  0  0  0  0  0  0  0  0  0  0  0
    0.8071    0.0820   -1.8789 H   0  0  0  0  0  0  0  0  0  0  0  0
   -0.9297    0.0758   -2.1430 H   0  0  0  0  0  0  0  0  0  0  0  0
   -0.1905    1.7664   -1.0567 C   0  0  0  0  0  0  0  0  0  0  0  0
   -1.2172    2.4803   -0.4359 N   0  3  0  0  0  0  0  0  0  0  0  0
   -2.0830    2.0418   -0.1160 H   0  0  0  0  0  0  0  0  0  0  0  0
   -0.8490    3.7219   -0.2294 C   0  0  0  0  0  0  0  0  0  0  0  0
   -1.4328    4.4985    0.2678 H   0  0  0  0  0  0  0  0  0  0  0  0
    0.4387    3.8614   -0.7402 N   0  0  0  0  0  0  0  0  0  0  0  0
    1.0121    4.7095   -0.6971 H   0  0  0  0  0  0  0  0  0  0  0  0
    0.8540    2.6368   -1.2464 C   0  0  0  0  0  0  0  0  0  0  0  0
    1.8289    2.3937   -1.6707 H   0  0  0  0  0  0  0  0  0  0  0  0
    0.2558   -0.0858    1.1304 C   0  0  0  0  0  0  0  0  0  0  0  0
    1.4633    0.0939    1.2064 O   0  0  0  0  0  0  0  0  0  0  0  0
   -0.5690    0.6722    1.9472 N   0  0  0  0  0  0  0  0  0  0  0  0
   -1.5128    0.2988    2.0142 H   0  0  0  0  0  0  0  0  0  0  0  0
   -0.0417    1.3277    3.1429 C   0  0  0  0  0  0  0  0  0  0  0  0
    0.7248    2.0630    2.8758 H   0  0  0  0  0  0  0  0  0  0  0  0
   -0.8424    1.8463    3.6792 H   0  0  0  0  0  0  0  0  0  0  0  0
    0.4049    0.5898    3.8190 H   0  0  0  0  0  0  0  0  0  0  0  0
  1  2  1  0  0  0  0
  2  3  1  0  0  0  0
  2  4  1  0  0  0  0
  2  5  1  0  0  0  0
  5  6  2  0  0  0  0
  5  7  1  0  0  0  0
  7  8  1  0  0  0  0
  7  9  1  0  0  0  0
  9 10  1  0  0  0  0
  9 11  1  0  0  0  0
  9 23  1  0  0  0  0
 11 12  1  0  0  0  0
 11 13  1  0  0  0  0
 11 14  1  0  0  0  0
 14 15  1  0  0  0  0
 14 21  2  0  0  0  0
 15 16  1  0  0  0  0
 15 17  2  0  0  0  0
 17 18  1  0  0  0  0
 17 19  1  0  0  0  0
 19 20  1  0  0  0  0
 19 21  1  0  0  0  0
 21 22  1  0  0  0  0
 23 24  2  0  0  0  0
 23 25  1  0  0  0  0
 25 26  1  0  0  0  0
 25 27  1  0  0  0  0
 27 28  1  0  0  0  0
 27 29  1  0  0  0  0
 27 30  1  0  0  0  0
M  CHG  1  15   1
M  END
$$$$

  -OEChem-04042216003D

 30 30  0     1  0  0  0  0  0999 V2000
   -3.1740   -4.0653    1.1579 H   0  0  0  0  0  0  0  0  0  0  0  0
   -3.1556   -3.2149    0.4697 C   0  0  0  0  0  0  0  0  0  0  0  0
   -4.0447   -2.6043    0.6434 H   0  0  0  0  0  0  0  0  0  0  0  0
   -3.1759   -3.5961   -0.5541 H   0  0  0  0  0  0  0  0  0  0  0  0
   -1.9023   -2.3914    0.6956 C   0  0  0  0  0  0  0  0  0  0  0  0
   -1.1435   -2.6697    1.6047 O   0  0  0  0  0  0  0  0  0  0  0  0
   -1.6338   -1.2909   -0.1007 N   0  0  0  0  0  0  0  0  0  0  0  0
   -2.2459   -1.1961   -0.9075 H   0  0  0  0  0  0  0  0  0  0  0  0
   -0.2954   -0.6597   -0.1700 C   0  0  1  0  0  0  0  0  0  0  0  0
    0.3907   -1.4867   -0.3944 H   0  0  0  0  0  0  0  0  0  0  0  0
   -0.1576    0.3147   -1.3677 C   0  0  0  0  0  0  0  0  0  0  0  0
    0.8017    0.0997   -1.8522 H   0  0  0  0  0  0  0  0  0  0  0  0
   -0.9368    0.0949   -2.1039 H   0  0  0  0  0  0  0  0  0  0  0  0
   -0.1916    1.7960   -1.0512 C   0  0  0  0  0  0  0  0  0  0  0  0
   -1.0636    2.4868   -0.2080 N   0  3  0  0  0  0  0  0  0  0  0  0
   -1.7415    2.0083    0.3897 H   0  0  0  0  0  0  0  0  0  0  0  0
   -0.7285    3.7523   -0.1381 C   0  0  0  0  0  0  0  0  0  0  0  0
   -1.1957    4.5137    0.4888 H   0  0  0  0  0  0  0  0  0  0  0  0
    0.3615    3.9368   -0.9836 N   0  0  0  0  0  0  0  0  0  0  0  0
    0.8696    4.8158   -1.1224 H   0  0  0  0  0  0  0  0  0  0  0  0
    0.7060    2.7125   -1.5411 C   0  0  0  0  0  0  0  0  0  0  0  0
    1.5408    2.5061   -2.2118 H   0  0  0  0  0  0  0  0  0  0  0  0
    0.2482   -0.1127    1.1706 C   0  0  0  0  0  0  0  0  0  0  0  0
    1.4506    0.0954    1.2428 O   0  0  0  0  0  0  0  0  0  0  0  0
   -0.5893    0.6148    2.0037 N   0  0  0  0  0  0  0  0  0  0  0  0
   -1.5077    0.1848    2.0978 H   0  0  0  0  0  0  0  0  0  0  0  0
   -0.0606    1.2661    3.2019 C   0  0  0  0  0  0  0  0  0  0  0  0
    0.6791    2.0287    2.9347 H   0  0  0  0  0  0  0  0  0  0  0  0
   -0.8668    1.7507    3.7615 H   0  0  0  0  0  0  0  0  0  0  0  0
    0.4200    0.5305    3.8572 H   0  0  0  0  0  0  0  0  0  0  0  0
  1  2  1  0  0  0  0
  2  3  1  0  0  0  0
  2  4  1  0  0  0  0
  2  5  1  0  0  0  0
  5  6  2  0  0  0  0
  5  7  1  0  0  0  0
  7  8  1  0  0  0  0
  7  9  1  0  0  0  0
  9 10  1  0  0  0  0
  9 11  1  0  0  0  0
  9 23  1  0  0  0  0
 11 12  1  0  0  0  0
 11 13  1  0  0  0  0
 11 14  1  0  0  0  0
 14 15  1  0  0  0  0
 14 21  2  0  0  0  0
 15 16  1  0  0  0  0
 15 17  2  0  0  0  0
 17 18  1  0  0  0  0
 17 19  1  0  0  0  0
 19 20  1  0  0  0  0
 19 21  1  0  0  0  0
 21 22  1  0  0  0  0
 23 24  2  0  0  0  0
 23 25  1  0  0  0  0
 25 26  1  0  0  0  0
 25 27  1  0  0  0  0
 27 28  1  0  0  0  0
 27 29  1  0  0  0  0
 27 30  1  0  0  0  0
M  CHG  1  15   1
M  END
$$$$

  -OEChem-04042216003D

 30 30  0     1  0  0  0  0  0999 V2000
   -3.1746   -4.0663    1.1370 H   0  0  0  0  0  0  0  0  0  0  0  0
   -3.1545   -3.2040    0.4638 C   0  0  0  0  0  0  0  0  0  0  0  0
   -4.0316   -2.5835    0.6621 H   0  0  0  0  0  0  0  0  0  0  0  0
   -3.1960   -3.5662   -0.5663 H   0  0  0  0  0  0  0  0  0  0  0  0
   -1.8854   -2.4036    0.6839 C   0  0  0  0  0  0  0  0  0  0  0  0
   -1.1086   -2.7187    1.5656 O   0  0  0  0  0  0  0  0  0  0  0  0
   -1.6191   -1.2853   -0.0876 N   0  0  0  0  0  0  0  0  0  0  0  0
   -2.2567   -1.1418   -0.8671 H   0  0  0  0  0  0  0  0  0  0  0  0
   -0.2838   -0.6479   -0.1530 C   0  0  1  0  0  0  0  0  0  0  0  0
    0.4061   -1.4677   -0.3927 H   0  0  0  0  0  0  0  0  0  0  0  0
   -0.1553    0.3410   -1.3420 C   0  0  0  0  0  0  0  0  0  0  0  0
    0.8013    0.1296   -1.8336 H   0  0  0  0  0  0  0  0  0  0  0  0
   -0.9381    0.1167   -2.0733 H   0  0  0  0  0  0  0  0  0  0  0  0
   -0.1901    1.8287   -1.0485 C   0  0  0  0  0  0  0  0  0  0  0  0
   -0.8437    2.5194   -0.0266 N   0  3  0  0  0  0  0  0  0  0  0  0
   -1.2750    2.0340    0.7665 H   0  0  0  0  0  0  0  0  0  0  0  0
   -0.5713    3.8000   -0.0867 C   0  0  0  0  0  0  0  0  0  0  0  0
   -0.8863    4.5639    0.6263 H   0  0  0  0  0  0  0  0  0  0  0  0
    0.2339    3.9969   -1.2038 N   0  0  0  0  0  0  0  0  0  0  0  0
    0.6329    4.8918   -1.5040 H   0  0  0  0  0  0  0  0  0  0  0  0
    0.4855    2.7647   -1.7929 C   0  0  0  0  0  0  0  0  0  0  0  0
    1.1132    2.5680   -2.6625 H   0  0  0  0  0  0  0  0  0  0  0  0
    0.2498   -0.1348    1.2043 C   0  0  0  0  0  0  0  0  0  0  0  0
    1.4470    0.0933    1.2873 O   0  0  0  0  0  0  0  0  0  0  0  0
   -0.6005    0.5643    2.0509 N   0  0  0  0  0  0  0  0  0  0  0  0
   -1.5174    0.1234    2.1181 H   0  0  0  0  0  0  0  0  0  0  0  0
   -0.0879    1.1580    3.2864 C   0  0  0  0  0  0  0  0  0  0  0  0
    0.6579    1.9301    3.0677 H   0  0  0  0  0  0  0  0  0  0  0  0
   -0.9012    1.6176    3.8568 H   0  0  0  0  0  0  0  0  0  0  0  0
    0.3815    0.3911    3.9132 H   0  0  0  0  0  0  0  0  0  0  0  0
  1  2  1  0  0  0  0
  2  3  1  0  0  0  0
  2  4  1  0  0  0  0
  2  5  1  0  0  0  0
  5  6  2  0  0  0  0
  5  7  1  0  0  0  0
  7  8  1  0  0  0  0
  7  9  1  0  0  0  0
  9 10  1  0  0  0  0
  9 11  1  0  0  0  0
  9 23  1  0  0  0  0
 11 12  1  0  0  0  0
 11 13  1  0  0  0  0
 11 14  1  0  0  0  0
 14 15  1  0  0  0  0
 14 21  2  0  0  0  0
 15 16  1  0  0  0  0
 15 17  2  0  0  0  0
 17 18  1  0  0  0  0
 17 19  1  0  0  0  0
 19 20  1  0  0  0  0
 19 21  1  0  0  0  0
 21 22  1  0  0  0  0
 23 24  2  0  0  0  0
 23 25  1  0  0  0  0
 25 26  1  0  0  0  0
 25 27  1  0  0  0  0
 27 28  1  0  0  0  0
 27 29  1  0  0  0  0
 27 30  1  0  0  0  0
M  CHG  1  15   1
M  END
$$$$

  -OEChem-04042216003D

 30 30  0     1  0  0  0  0  0999 V2000
   -3.1929   -4.0498    1.1251 H   0  0  0  0  0  0  0  0  0  0  0  0
   -3.1665   -3.1789    0.4633 C   0  0  0  0  0  0  0  0  0  0  0  0
   -4.0257   -2.5424    0.6876 H   0  0  0  0  0  0  0  0  0  0  0  0
   -3.2360   -3.5248   -0.5708 H   0  0  0  0  0  0  0  0  0  0  0  0
   -1.8766   -2.4088    0.6700 C   0  0  0  0  0  0  0  0  0  0  0  0
   -1.0814   -2.7626    1.5200 O   0  0  0  0  0  0  0  0  0  0  0  0
   -1.6097   -1.2752   -0.0782 N   0  0  0  0  0  0  0  0  0  0  0  0
   -2.2684   -1.0880   -0.8303 H   0  0  0  0  0  0  0  0  0  0  0  0
   -0.2755   -0.6362   -0.1371 C   0  0  1  0  0  0  0  0  0  0  0  0
    0.4116   -1.4548   -0.3882 H   0  0  0  0  0  0  0  0  0  0  0  0
   -0.1474    0.3610   -1.3213 C   0  0  0  0  0  0  0  0  0  0  0  0
    0.8147    0.1529   -1.8037 H   0  0  0  0  0  0  0  0  0  0  0  0
   -0.9223    0.1298   -2.0587 H   0  0  0  0  0  0  0  0  0  0  0  0
   -0.1820    1.8546   -1.0489 C   0  0  0  0  0  0  0  0  0  0  0  0
   -0.5859    2.5576    0.0880 N   0  3  0  0  0  0  0  0  0  0  0  0
   -0.8050    2.0840    0.9717 H   0  0  0  0  0  0  0  0  0  0  0  0
   -0.4037    3.8453   -0.0705 C   0  0  0  0  0  0  0  0  0  0  0  0
   -0.5710    4.6205    0.6795 H   0  0  0  0  0  0  0  0  0  0  0  0
    0.0816    4.0338   -1.3602 N   0  0  0  0  0  0  0  0  0  0  0  0
    0.3431    4.9335   -1.7755 H   0  0  0  0  0  0  0  0  0  0  0  0
    0.2329    2.7920   -1.9642 C   0  0  0  0  0  0  0  0  0  0  0  0
    0.6237    2.5913   -2.9622 H   0  0  0  0  0  0  0  0  0  0  0  0
    0.2602   -0.1522    1.2290 C   0  0  0  0  0  0  0  0  0  0  0  0
    1.4541    0.0895    1.3136 O   0  0  0  0  0  0  0  0  0  0  0  0
   -0.5875    0.5281    2.0931 N   0  0  0  0  0  0  0  0  0  0  0  0
   -1.5217    0.1192    2.1168 H   0  0  0  0  0  0  0  0  0  0  0  0
   -0.0855    1.0465    3.3668 C   0  0  0  0  0  0  0  0  0  0  0  0
    0.6862    1.8070    3.2039 H   0  0  0  0  0  0  0  0  0  0  0  0
   -0.8986    1.5007    3.9421 H   0  0  0  0  0  0  0  0  0  0  0  0
    0.3485    0.2366    3.9646 H   0  0  0  0  0  0  0  0  0  0  0  0
  1  2  1  0  0  0  0
  2  3  1  0  0  0  0
  2  4  1  0  0  0  0
  2  5  1  0  0  0  0
  5  6  2  0  0  0  0
  5  7  1  0  0  0  0
  7  8  1  0  0  0  0
  7  9  1  0  0  0  0
  9 10  1  0  0  0  0
  9 11  1  0  0  0  0
  9 23  1  0  0  0  0
 11 12  1  0  0  0  0
 11 13  1  0  0  0  0
 11 14  1  0  0  0  0
 14 15  1  0  0  0  0
 14 21  2  0  0  0  0
 15 16  1  0  0  0  0
 15 17  2  0  0  0  0
 17 18  1  0  0  0  0
 17 19  1  0  0  0  0
 19 20  1  0  0  0  0
 19 21  1  0  0  0  0
 21 22  1  0  0  0  0
 23 24  2  0  0  0  0
 23 25  1  0  0  0  0
 25 26  1  0  0  0  0
 25 27  1  0  0  0  0
 27 28  1  0  0  0  0
 27 29  1  0  0  0  0
 27 30  1  0  0  0  0
M  CHG  1  15   1
M  END
$$$$

  -OEChem-04042216003D

 30 30  0     1  0  0  0  0  0999 V2000
   -3.2323   -4.0042    1.1450 H   0  0  0  0  0  0  0  0  0  0  0  0
   -3.1912   -3.1367    0.4794 C   0  0  0  0  0  0  0  0  0  0  0  0
   -4.0282   -2.4750    0.7147 H   0  0  0  0  0  0  0  0  0  0  0  0
   -3.2869   -3.4844   -0.5521 H   0  0  0  0  0  0  0  0  0  0  0  0
   -1.8764   -2.4033    0.6626 C   0  0  0  0  0  0  0  0  0  0  0  0
   -1.0670   -2.7927    1.4836 O   0  0  0  0  0  0  0  0  0  0  0  0
   -1.5981   -1.2672   -0.0782 N   0  0  0  0  0  0  0  0  0  0  0  0
   -2.2739   -1.0398   -0.8034 H   0  0  0  0  0  0  0  0  0  0  0  0
   -0.2591   -0.6379   -0.1347 C   0  0  1  0  0  0  0  0  0  0  0  0
    0.4235   -1.4586   -0.3911 H   0  0  0  0  0  0  0  0  0  0  0  0
   -0.1291    0.3656   -1.3156 C   0  0  0  0  0  0  0  0  0  0  0  0
    0.8392    0.1591   -1.7865 H   0  0  0  0  0  0  0  0  0  0  0  0
   -0.8937    0.1320   -2.0631 H   0  0  0  0  0  0  0  0  0  0  0  0
   -0.1526    1.8620   -1.0510 C   0  0  0  0  0  0  0  0  0  0  0  0
   -0.2765    2.5705    0.1461 N   0  3  0  0  0  0  0  0  0  0  0  0
   -0.2630    2.1021    1.0607 H   0  0  0  0  0  0  0  0  0  0  0  0
   -0.2136    3.8618   -0.0632 C   0  0  0  0  0  0  0  0  0  0  0  0
   -0.2276    4.6425    0.6996 H   0  0  0  0  0  0  0  0  0  0  0  0
   -0.0924    4.0456   -1.4365 N   0  0  0  0  0  0  0  0  0  0  0  0
   -0.0015    4.9481   -1.9132 H   0  0  0  0  0  0  0  0  0  0  0  0
   -0.0460    2.7996   -2.0504 C   0  0  0  0  0  0  0  0  0  0  0  0
    0.0718    2.5971   -3.1153 H   0  0  0  0  0  0  0  0  0  0  0  0
    0.2734   -0.1688    1.2376 C   0  0  0  0  0  0  0  0  0  0  0  0
    1.4633    0.0895    1.3256 O   0  0  0  0  0  0  0  0  0  0  0  0
   -0.5700    0.5104    2.1057 N   0  0  0  0  0  0  0  0  0  0  0  0
   -1.5253    0.1543    2.0835 H   0  0  0  0  0  0  0  0  0  0  0  0
   -0.0866    0.9709    3.4090 C   0  0  0  0  0  0  0  0  0  0  0  0
    0.7173    1.7064    3.2941 H   0  0  0  0  0  0  0  0  0  0  0  0
   -0.8995    1.4372    3.9750 H   0  0  0  0  0  0  0  0  0  0  0  0
    0.2986    0.1268    3.9928 H   0  0  0  0  0  0  0  0  0  0  0  0
  1  2  1  0  0  0  0
  2  3  1  0  0  0  0
  2  4  1  0  0  0  0
  2  5  1  0  0  0  0
  5  6  2  0  0  0  0
  5  7  1  0  0  0  0
  7  8  1  0  0  0  0
  7  9  1  0  0  0  0
  9 10  1  0  0  0  0
  9 11  1  0  0  0  0
  9 23  1  0  0  0  0
 11 12  1  0  0  0  0
 11 13  1  0  0  0  0
 11 14  1  0  0  0  0
 14 15  1  0  0  0  0
 14 21  2  0  0  0  0
 15 16  1  0  0  0  0
 15 17  2  0  0  0  0
 17 18  1  0  0  0  0
 17 19  1  0  0  0  0
 19 20  1  0  0  0  0
 19 21  1  0  0  0  0
 21 22  1  0  0  0  0
 23 24  2  0  0  0  0
 23 25  1  0  0  0  0
 25 26  1  0  0  0  0
 25 27  1  0  0  0  0
 27 28  1  0  0  0  0
 27 29  1  0  0  0  0
 27 30  1  0  0  0  0
M  CHG  1  15   1
M  END
$$$$

  -OEChem-04042216003D

 30 30  0     1  0  0  0  0  0999 V2000
   -3.2485   -3.9679    1.1794 H   0  0  0  0  0  0  0  0  0  0  0  0
   -3.2013   -3.1053    0.5081 C   0  0  0  0  0  0  0  0  0  0  0  0
   -4.0246   -2.4286    0.7489 H   0  0  0  0  0  0  0  0  0  0  0  0
   -3.3144   -3.4576   -0.5201 H   0  0  0  0  0  0  0  0  0  0  0  0
   -1.8727   -2.3926    0.6714 C   0  0  0  0  0  0  0  0  0  0  0  0
   -1.0577   -2.7940    1.4812 O   0  0  0  0  0  0  0  0  0  0  0  0
   -1.5828   -1.2683   -0.0827 N   0  0  0  0  0  0  0  0  0  0  0  0
   -2.2658   -1.0269   -0.7963 H   0  0  0  0  0  0  0  0  0  0  0  0
   -0.2383   -0.6520   -0.1463 C   0  0  1  0  0  0  0  0  0  0  0  0
    0.4415   -1.4759   -0.3994 H   0  0  0  0  0  0  0  0  0  0  0  0
   -0.1141    0.3523   -1.3287 C   0  0  0  0  0  0  0  0  0  0  0  0
    0.8547    0.1442   -1.7974 H   0  0  0  0  0  0  0  0  0  0  0  0
   -0.8765    0.1188   -2.0785 H   0  0  0  0  0  0  0  0  0  0  0  0
   -0.1238    1.8494   -1.0632 C   0  0  0  0  0  0  0  0  0  0  0  0
    0.0517    2.5442    0.1354 N   0  3  0  0  0  0  0  0  0  0  0  0
    0.3087    2.0636    1.0092 H   0  0  0  0  0  0  0  0  0  0  0  0
   -0.0067    3.8379   -0.0561 C   0  0  0  0  0  0  0  0  0  0  0  0
    0.1433    4.6105    0.7003 H   0  0  0  0  0  0  0  0  0  0  0  0
   -0.2707    4.0352   -1.4077 N   0  0  0  0  0  0  0  0  0  0  0  0
   -0.3600    4.9443   -1.8719 H   0  0  0  0  0  0  0  0  0  0  0  0
   -0.3396    2.7965   -2.0357 C   0  0  0  0  0  0  0  0  0  0  0  0
   -0.5142    2.6072   -3.0951 H   0  0  0  0  0  0  0  0  0  0  0  0
    0.2844   -0.1754    1.2278 C   0  0  0  0  0  0  0  0  0  0  0  0
    1.4677    0.1150    1.3167 O   0  0  0  0  0  0  0  0  0  0  0  0
   -0.5620    0.5170    2.0805 N   0  0  0  0  0  0  0  0  0  0  0  0
   -1.5297    0.2028    2.0242 H   0  0  0  0  0  0  0  0  0  0  0  0
   -0.1063    0.9688    3.3965 C   0  0  0  0  0  0  0  0  0  0  0  0
    0.7022    1.7019    3.3047 H   0  0  0  0  0  0  0  0  0  0  0  0
   -0.9307    1.4358    3.9449 H   0  0  0  0  0  0  0  0  0  0  0  0
    0.2613    0.1206    3.9858 H   0  0  0  0  0  0  0  0  0  0  0  0
  1  2  1  0  0  0  0
  2  3  1  0  0  0  0
  2  4  1  0  0  0  0
  2  5  1  0  0  0  0
  5  6  2  0  0  0  0
  5  7  1  0  0  0  0
  7  8  1  0  0  0  0
  7  9  1  0  0  0  0
  9 10  1  0  0  0  0
  9 11  1  0  0  0  0
  9 23  1  0  0  0  0
 11 12  1  0  0  0  0
 11 13  1  0  0  0  0
 11 14  1  0  0  0  0
 14 15  1  0  0  0  0
 14 21  2  0  0  0  0
 15 16  1  0  0  0  0
 15 17  2  0  0  0  0
 17 18  1  0  0  0  0
 17 19  1  0  0  0  0
 19 20  1  0  0  0  0
 19 21  1  0  0  0  0
 21 22  1  0  0  0  0
 23 24  2  0  0  0  0
 23 25  1  0  0  0  0
 25 26  1  0  0  0  0
 25 27  1  0  0  0  0
 27 28  1  0  0  0  0
 27 29  1  0  0  0  0
 27 30  1  0  0  0  0
M  CHG  1  15   1
M  END
$$$$

  -OEChem-04042216003D

 30 30  0     1  0  0  0  0  0999 V2000
   -3.2485   -3.9376    1.2418 H   0  0  0  0  0  0  0  0  0  0  0  0
   -3.1979   -3.0916    0.5500 C   0  0  0  0  0  0  0  0  0  0  0  0
   -4.0092   -2.3986    0.7847 H   0  0  0  0  0  0  0  0  0  0  0  0
   -3.3281   -3.4667   -0.4680 H   0  0  0  0  0  0  0  0  0  0  0  0
   -1.8580   -2.3930    0.6806 C   0  0  0  0  0  0  0  0  0  0  0  0
   -1.0343   -2.7943    1.4817 O   0  0  0  0  0  0  0  0  0  0  0  0
   -1.5670   -1.2828   -0.0942 N   0  0  0  0  0  0  0  0  0  0  0  0
   -2.2566   -1.0432   -0.8019 H   0  0  0  0  0  0  0  0  0  0  0  0
   -0.2222   -0.6681   -0.1695 C   0  0  1  0  0  0  0  0  0  0  0  0
    0.4611   -1.4907   -0.4176 H   0  0  0  0  0  0  0  0  0  0  0  0
   -0.1097    0.3362   -1.3544 C   0  0  0  0  0  0  0  0  0  0  0  0
    0.8544    0.1306   -1.8335 H   0  0  0  0  0  0  0  0  0  0  0  0
   -0.8791    0.1039   -2.0973 H   0  0  0  0  0  0  0  0  0  0  0  0
   -0.1168    1.8310   -1.0758 C   0  0  0  0  0  0  0  0  0  0  0  0
    0.3475    2.5051    0.0562 N   0  3  0  0  0  0  0  0  0  0  0  0
    0.8099    2.0068    0.8327 H   0  0  0  0  0  0  0  0  0  0  0  0
    0.1875    3.7983   -0.0659 C   0  0  0  0  0  0  0  0  0  0  0  0
    0.4882    4.5571    0.6590 H   0  0  0  0  0  0  0  0  0  0  0  0
   -0.4216    4.0149   -1.2986 N   0  0  0  0  0  0  0  0  0  0  0  0
   -0.6658    4.9297   -1.6904 H   0  0  0  0  0  0  0  0  0  0  0  0
   -0.6099    2.7889   -1.9288 C   0  0  0  0  0  0  0  0  0  0  0  0
   -1.0491    2.6169   -2.9118 H   0  0  0  0  0  0  0  0  0  0  0  0
    0.2902   -0.1698    1.2015 C   0  0  0  0  0  0  0  0  0  0  0  0
    1.4730    0.1304    1.2942 O   0  0  0  0  0  0  0  0  0  0  0  0
   -0.5647    0.5342    2.0342 N   0  0  0  0  0  0  0  0  0  0  0  0
   -1.5373    0.2423    1.9581 H   0  0  0  0  0  0  0  0  0  0  0  0
   -0.1311    1.0169    3.3458 C   0  0  0  0  0  0  0  0  0  0  0  0
    0.6903    1.7348    3.2513 H   0  0  0  0  0  0  0  0  0  0  0  0
   -0.9600    1.5128    3.8607 H   0  0  0  0  0  0  0  0  0  0  0  0
    0.2090    0.1803    3.9668 H   0  0  0  0  0  0  0  0  0  0  0  0
  1  2  1  0  0  0  0
  2  3  1  0  0  0  0
  2  4  1  0  0  0  0
  2  5  1  0  0  0  0
  5  6  2  0  0  0  0
  5  7  1  0  0  0  0
  7  8  1  0  0  0  0
  7  9  1  0  0  0  0
  9 10  1  0  0  0  0
  9 11  1  0  0  0  0
  9 23  1  0  0  0  0
 11 12  1  0  0  0  0
 11 13  1  0  0  0  0
 11 14  1  0  0  0  0
 14 15  1  0  0  0  0
 14 21  2  0  0  0  0
 15 16  1  0  0  0  0
 15 17  2  0  0  0  0
 17 18  1  0  0  0  0
 17 19  1  0  0  0  0
 19 20  1  0  0  0  0
 19 21  1  0  0  0  0
 21 22  1  0  0  0  0
 23 24  2  0  0  0  0
 23 25  1  0  0  0  0
 25 26  1  0  0  0  0
 25 27  1  0  0  0  0
 27 28  1  0  0  0  0
 27 29  1  0  0  0  0
 27 30  1  0  0  0  0
M  CHG  1  15   1
M  END
$$$$

  -OEChem-04042216003D

 30 30  0     1  0  0  0  0  0999 V2000
   -3.2314   -3.9390    1.2746 H   0  0  0  0  0  0  0  0  0  0  0  0
   -3.1883   -3.1015    0.5717 C   0  0  0  0  0  0  0  0  0  0  0  0
   -4.0020   -2.4096    0.8015 H   0  0  0  0  0  0  0  0  0  0  0  0
   -3.3213   -3.4890   -0.4412 H   0  0  0  0  0  0  0  0  0  0  0  0
   -1.8512   -2.3956    0.6881 C   0  0  0  0  0  0  0  0  0  0  0  0
   -1.0233   -2.7827    1.4919 O   0  0  0  0  0  0  0  0  0  0  0  0
   -1.5660   -1.2976   -0.1056 N   0  0  0  0  0  0  0  0  0  0  0  0
   -2.2570   -1.0712   -0.8162 H   0  0  0  0  0  0  0  0  0  0  0  0
   -0.2242   -0.6781   -0.1877 C   0  0  1  0  0  0  0  0  0  0  0  0
    0.4633   -1.4995   -0.4280 H   0  0  0  0  0  0  0  0  0  0  0  0
   -0.1177    0.3186   -1.3781 C   0  0  0  0  0  0  0  0  0  0  0  0
    0.8428    0.1185   -1.8669 H   0  0  0  0  0  0  0  0  0  0  0  0
   -0.8932    0.0874   -2.1150 H   0  0  0  0  0  0  0  0  0  0  0  0
   -0.1338    1.8073   -1.0754 C   0  0  0  0  0  0  0  0  0  0  0  0
    0.5817    2.4673   -0.0727 N   0  3  0  0  0  0  0  0  0  0  0  0
    1.1803    1.9552    0.5955 H   0  0  0  0  0  0  0  0  0  0  0  0
    0.3518    3.7552   -0.1028 C   0  0  0  0  0  0  0  0  0  0  0  0
    0.7775    4.5022    0.5696 H   0  0  0  0  0  0  0  0  0  0  0  0
   -0.5342    3.9831   -1.1526 N   0  0  0  0  0  0  0  0  0  0  0  0
   -0.8950    4.8982   -1.4392 H   0  0  0  0  0  0  0  0  0  0  0  0
   -0.8370    2.7682   -1.7602 C   0  0  0  0  0  0  0  0  0  0  0  0
   -1.4913    2.6072   -2.6169 H   0  0  0  0  0  0  0  0  0  0  0  0
    0.2893   -0.1513    1.1727 C   0  0  0  0  0  0  0  0  0  0  0  0
    1.4795    0.1261    1.2665 O   0  0  0  0  0  0  0  0  0  0  0  0
   -0.5667    0.5660    1.9917 N   0  0  0  0  0  0  0  0  0  0  0  0
   -1.5409    0.2799    1.9201 H   0  0  0  0  0  0  0  0  0  0  0  0
   -0.1316    1.1016    3.2808 C   0  0  0  0  0  0  0  0  0  0  0  0
    0.6508    1.8560    3.1488 H   0  0  0  0  0  0  0  0  0  0  0  0
   -0.9734    1.5696    3.8010 H   0  0  0  0  0  0  0  0  0  0  0  0
    0.2617    0.2992    3.9155 H   0  0  0  0  0  0  0  0  0  0  0  0
  1  2  1  0  0  0  0
  2  3  1  0  0  0  0
  2  4  1  0  0  0  0
  2  5  1  0  0  0  0
  5  6  2  0  0  0  0
  5  7  1  0  0  0  0
  7  8  1  0  0  0  0
  7  9  1  0  0  0  0
  9 10  1  0  0  0  0
  9 11  1  0  0  0  0
  9 23  1  0  0  0  0
 11 12  1  0  0  0  0
 11 13  1  0  0  0  0
 11 14  1  0  0  0  0
 14 15  1  0  0  0  0
 14 21  2  0  0  0  0
 15 16  1  0  0  0  0
 15 17  2  0  0  0  0
 17 18  1  0  0  0  0
 17 19  1  0  0  0  0
 19 20  1  0  0  0  0
 19 21  1  0  0  0  0
 21 22  1  0  0  0  0
 23 24  2  0  0  0  0
 23 25  1  0  0  0  0
 25 26  1  0  0  0  0
 25 27  1  0  0  0  0
 27 28  1  0  0  0  0
 27 29  1  0  0  0  0
 27 30  1  0  0  0  0
M  CHG  1  15   1
M  END
$$$$

  -OEChem-04042216003D

 30 30  0     1  0  0  0  0  0999 V2000
   -3.2063   -3.9598    1.2871 H   0  0  0  0  0  0  0  0  0  0  0  0
   -3.1713   -3.1311    0.5734 C   0  0  0  0  0  0  0  0  0  0  0  0
   -4.0023   -2.4536    0.7829 H   0  0  0  0  0  0  0  0  0  0  0  0
   -3.2828   -3.5352   -0.4357 H   0  0  0  0  0  0  0  0  0  0  0  0
   -1.8510   -2.3952    0.6979 C   0  0  0  0  0  0  0  0  0  0  0  0
   -1.0279   -2.7506    1.5210 O   0  0  0  0  0  0  0  0  0  0  0  0
   -1.5759   -1.3069   -0.1123 N   0  0  0  0  0  0  0  0  0  0  0  0
   -2.2559   -1.1177   -0.8437 H   0  0  0  0  0  0  0  0  0  0  0  0
   -0.2393   -0.6779   -0.1993 C   0  0  1  0  0  0  0  0  0  0  0  0
    0.4525   -1.4983   -0.4298 H   0  0  0  0  0  0  0  0  0  0  0  0
   -0.1356    0.3081   -1.3953 C   0  0  0  0  0  0  0  0  0  0  0  0
    0.8208    0.1160   -1.8948 H   0  0  0  0  0  0  0  0  0  0  0  0
   -0.9191    0.0801   -2.1245 H   0  0  0  0  0  0  0  0  0  0  0  0
   -0.1671    1.7864   -1.0601 C   0  0  0  0  0  0  0  0  0  0  0  0
    0.7518    2.4484   -0.2418 N   0  3  0  0  0  0  0  0  0  0  0  0
    1.4508    1.9332    0.3170 H   0  0  0  0  0  0  0  0  0  0  0  0
    0.4772    3.7264   -0.1775 C   0  0  0  0  0  0  0  0  0  0  0  0
    1.0085    4.4700    0.4195 H   0  0  0  0  0  0  0  0  0  0  0  0
   -0.6255    3.9470   -1.0002 N   0  0  0  0  0  0  0  0  0  0  0  0
   -1.0682    4.8552   -1.1702 H   0  0  0  0  0  0  0  0  0  0  0  0
   -1.0293    2.7349   -1.5523 C   0  0  0  0  0  0  0  0  0  0  0  0
   -1.8531    2.5690   -2.2465 H   0  0  0  0  0  0  0  0  0  0  0  0
    0.2868   -0.1193    1.1439 C   0  0  0  0  0  0  0  0  0  0  0  0
    1.4838    0.1383    1.2244 O   0  0  0  0  0  0  0  0  0  0  0  0
   -0.5606    0.6120    1.9585 N   0  0  0  0  0  0  0  0  0  0  0  0
   -1.5366    0.3297    1.9017 H   0  0  0  0  0  0  0  0  0  0  0  0
   -0.1090    1.1793    3.2276 C   0  0  0  0  0  0  0  0  0  0  0  0
    0.6822    1.9187    3.0668 H   0  0  0  0  0  0  0  0  0  0  0  0
   -0.9402    1.6741    3.7398 H   0  0  0  0  0  0  0  0  0  0  0  0
    0.2786    0.3906    3.8823 H   0  0  0  0  0  0  0  0  0  0  0  0
  1  2  1  0  0  0  0
  2  3  1  0  0  0  0
  2  4  1  0  0  0  0
  2  5  1  0  0  0  0
  5  6  2  0  0  0  0
  5  7  1  0  0  0  0
  7  8  1  0  0  0  0
  7  9  1  0  0  0  0
  9 10  1  0  0  0  0
  9 11  1  0  0  0  0
  9 23  1  0  0  0  0
 11 12  1  0  0  0  0
 11 13  1  0  0  0  0
 11 14  1  0  0  0  0
 14 15  1  0  0  0  0
 14 21  2  0  0  0  0
 15 16  1  0  0  0  0
 15 17  2  0  0  0  0
 17 18  1  0  0  0  0
 17 19  1  0  0  0  0
 19 20  1  0  0  0  0
 19 21  1  0  0  0  0
 21 22  1  0  0  0  0
 23 24  2  0  0  0  0
 23 25  1  0  0  0  0
 25 26  1  0  0  0  0
 25 27  1  0  0  0  0
 27 28  1  0  0  0  0
 27 29  1  0  0  0  0
 27 30  1  0  0  0  0
M  CHG  1  15   1
M  END
$$$$

  -OEChem-04042216003D

 30 30  0     1  0  0  0  0  0999 V2000
   -3.1877   -3.9814    1.2931 H   0  0  0  0  0  0  0  0  0  0  0  0
   -3.1625   -3.1588    0.5720 C   0  0  0  0  0  0  0  0  0  0  0  0
   -4.0037   -2.4913    0.7728 H   0  0  0  0  0  0  0  0  0  0  0  0
   -3.2645   -3.5736   -0.4336 H   0  0  0  0  0  0  0  0  0  0  0  0
   -1.8536   -2.4026    0.6940 C   0  0  0  0  0  0  0  0  0  0  0  0
   -1.0287   -2.7372    1.5240 O   0  0  0  0  0  0  0  0  0  0  0  0
   -1.5911   -1.3176   -0.1247 N   0  0  0  0  0  0  0  0  0  0  0  0
   -2.2661   -1.1506   -0.8660 H   0  0  0  0  0  0  0  0  0  0  0  0
   -0.2603   -0.6779   -0.2126 C   0  0  1  0  0  0  0  0  0  0  0  0
    0.4334   -1.4983   -0.4368 H   0  0  0  0  0  0  0  0  0  0  0  0
   -0.1447    0.3015   -1.4085 C   0  0  0  0  0  0  0  0  0  0  0  0
    0.8110    0.1153   -1.9114 H   0  0  0  0  0  0  0  0  0  0  0  0
   -0.9306    0.0829   -2.1378 H   0  0  0  0  0  0  0  0  0  0  0  0
   -0.1890    1.7665   -1.0328 C   0  0  0  0  0  0  0  0  0  0  0  0
    0.8712    2.4514   -0.4355 N   0  3  0  0  0  0  0  0  0  0  0  0
    1.6627    1.9507   -0.0051 H   0  0  0  0  0  0  0  0  0  0  0  0
    0.5643    3.7134   -0.2720 C   0  0  0  0  0  0  0  0  0  0  0  0
    1.1771    4.4644    0.2302 H   0  0  0  0  0  0  0  0  0  0  0  0
   -0.6982    3.9034   -0.8309 N   0  0  0  0  0  0  0  0  0  0  0  0
   -1.2023    4.7944   -0.8721 H   0  0  0  0  0  0  0  0  0  0  0  0
   -1.1709    2.6848   -1.3084 C   0  0  0  0  0  0  0  0  0  0  0  0
   -2.1186    2.4955   -1.8121 H   0  0  0  0  0  0  0  0  0  0  0  0
    0.2805   -0.0971    1.1163 C   0  0  0  0  0  0  0  0  0  0  0  0
    1.4810    0.1524    1.1768 O   0  0  0  0  0  0  0  0  0  0  0  0
   -0.5577    0.6420    1.9333 N   0  0  0  0  0  0  0  0  0  0  0  0
   -1.5320    0.3511    1.9040 H   0  0  0  0  0  0  0  0  0  0  0  0
   -0.0833    1.2567    3.1712 C   0  0  0  0  0  0  0  0  0  0  0  0
    0.6812    2.0122    2.9628 H   0  0  0  0  0  0  0  0  0  0  0  0
   -0.9116    1.7432    3.6960 H   0  0  0  0  0  0  0  0  0  0  0  0
    0.3470    0.4980    3.8347 H   0  0  0  0  0  0  0  0  0  0  0  0
  1  2  1  0  0  0  0
  2  3  1  0  0  0  0
  2  4  1  0  0  0  0
  2  5  1  0  0  0  0
  5  6  2  0  0  0  0
  5  7  1  0  0  0  0
  7  8  1  0  0  0  0
  7  9  1  0  0  0  0
  9 10  1  0  0  0  0
  9 11  1  0  0  0  0
  9 23  1  0  0  0  0
 11 12  1  0  0  0  0
 11 13  1  0  0  0  0
 11 14  1  0  0  0  0
 14 15  1  0  0  0  0
 14 21  2  0  0  0  0
 15 16  1  0  0  0  0
 15 17  2  0  0  0  0
 17 18  1  0  0  0  0
 17 19  1  0  0  0  0
 19 20  1  0  0  0  0
 19 21  1  0  0  0  0
 21 22  1  0  0  0  0
 23 24  2  0  0  0  0
 23 25  1  0  0  0  0
 25 26  1  0  0  0  0
 25 27  1  0  0  0  0
 27 28  1  0  0  0  0
 27 29  1  0  0  0  0
 27 30  1  0  0  0  0
M  CHG  1  15   1
M  END
$$$$

  -OEChem-04042216003D

 30 30  0     1  0  0  0  0  0999 V2000
   -3.1907   -3.9884    1.2824 H   0  0  0  0  0  0  0  0  0  0  0  0
   -3.1636   -3.1709    0.5556 C   0  0  0  0  0  0  0  0  0  0  0  0
   -4.0184   -2.5146    0.7348 H   0  0  0  0  0  0  0  0  0  0  0  0
   -3.2405   -3.5948   -0.4486 H   0  0  0  0  0  0  0  0  0  0  0  0
   -1.8686   -2.3943    0.6964 C   0  0  0  0  0  0  0  0  0  0  0  0
   -1.0584   -2.7057    1.5495 O   0  0  0  0  0  0  0  0  0  0  0  0
   -1.6053   -1.3158   -0.1301 N   0  0  0  0  0  0  0  0  0  0  0  0
   -2.2601   -1.1831   -0.8960 H   0  0  0  0  0  0  0  0  0  0  0  0
   -0.2732   -0.6784   -0.2170 C   0  0  1  0  0  0  0  0  0  0  0  0
    0.4177   -1.5030   -0.4340 H   0  0  0  0  0  0  0  0  0  0  0  0
   -0.1437    0.2944   -1.4139 C   0  0  0  0  0  0  0  0  0  0  0  0
    0.8094    0.1043   -1.9201 H   0  0  0  0  0  0  0  0  0  0  0  0
   -0.9338    0.0872   -2.1421 H   0  0  0  0  0  0  0  0  0  0  0  0
   -0.1884    1.7508   -1.0136 C   0  0  0  0  0  0  0  0  0  0  0  0
    0.9413    2.4979   -0.6770 N   0  3  0  0  0  0  0  0  0  0  0  0
    1.8397    2.0521   -0.4537 H   0  0  0  0  0  0  0  0  0  0  0  0
    0.6024    3.7349   -0.4122 C   0  0  0  0  0  0  0  0  0  0  0  0
    1.2672    4.5206   -0.0486 H   0  0  0  0  0  0  0  0  0  0  0  0
   -0.7665    3.8465   -0.6486 N   0  0  0  0  0  0  0  0  0  0  0  0
   -1.3214    4.7006   -0.5388 H   0  0  0  0  0  0  0  0  0  0  0  0
   -1.2631    2.6035   -1.0276 C   0  0  0  0  0  0  0  0  0  0  0  0
   -2.2909    2.3534   -1.2883 H   0  0  0  0  0  0  0  0  0  0  0  0
    0.2787   -0.0835    1.1015 C   0  0  0  0  0  0  0  0  0  0  0  0
    1.4826    0.1487    1.1503 O   0  0  0  0  0  0  0  0  0  0  0  0
   -0.5489    0.6691    1.9173 N   0  0  0  0  0  0  0  0  0  0  0  0
   -1.5218    0.3728    1.9101 H   0  0  0  0  0  0  0  0  0  0  0  0
   -0.0545    1.3029    3.1371 C   0  0  0  0  0  0  0  0  0  0  0  0
    0.7207    2.0407    2.9053 H   0  0  0  0  0  0  0  0  0  0  0  0
   -0.8702    1.8146    3.6574 H   0  0  0  0  0  0  0  0  0  0  0  0
    0.3691    0.5520    3.8136 H   0  0  0  0  0  0  0  0  0  0  0  0
  1  2  1  0  0  0  0
  2  3  1  0  0  0  0
  2  4  1  0  0  0  0
  2  5  1  0  0  0  0
  5  6  2  0  0  0  0
  5  7  1  0  0  0  0
  7  8  1  0  0  0  0
  7  9  1  0  0  0  0
  9 10  1  0  0  0  0
  9 11  1  0  0  0  0
  9 23  1  0  0  0  0
 11 12  1  0  0  0  0
 11 13  1  0  0  0  0
 11 14  1  0  0  0  0
 14 15  1  0  0  0  0
 14 21  2  0  0  0  0
 15 16  1  0  0  0  0
 15 17  2  0  0  0  0
 17 18  1  0  0  0  0
 17 19  1  0  0  0  0
 19 20  1  0  0  0  0
 19 21  1  0  0  0  0
 21 22  1  0  0  0  0
 23 24  2  0  0  0  0
 23 25  1  0  0  0  0
 25 26  1  0  0  0  0
 25 27  1  0  0  0  0
 27 28  1  0  0  0  0
 27 29  1  0  0  0  0
 27 30  1  0  0  0  0
M  CHG  1  15   1
M  END
$$$$

  -OEChem-04042216003D

 30 30  0     1  0  0  0  0  0999 V2000
   -3.2088   -3.9934    1.2520 H   0  0  0  0  0  0  0  0  0  0  0  0
   -3.1761   -3.1702    0.5319 C   0  0  0  0  0  0  0  0  0  0  0  0
   -4.0355   -2.5186    0.7062 H   0  0  0  0  0  0  0  0  0  0  0  0
   -3.2391   -3.5869   -0.4763 H   0  0  0  0  0  0  0  0  0  0  0  0
   -1.8865   -2.3888    0.6942 C   0  0  0  0  0  0  0  0  0  0  0  0
   -1.0908   -2.6956    1.5623 O   0  0  0  0  0  0  0  0  0  0  0  0
   -1.6143   -1.3094   -0.1286 N   0  0  0  0  0  0  0  0  0  0  0  0
   -2.2569   -1.1846   -0.9062 H   0  0  0  0  0  0  0  0  0  0  0  0
   -0.2780   -0.6791   -0.2074 C   0  0  1  0  0  0  0  0  0  0  0  0
    0.4074   -1.5096   -0.4204 H   0  0  0  0  0  0  0  0  0  0  0  0
   -0.1332    0.2890   -1.4053 C   0  0  0  0  0  0  0  0  0  0  0  0
    0.8231    0.0883   -1.9009 H   0  0  0  0  0  0  0  0  0  0  0  0
   -0.9176    0.0863   -2.1410 H   0  0  0  0  0  0  0  0  0  0  0  0
   -0.1725    1.7477   -1.0133 C   0  0  0  0  0  0  0  0  0  0  0  0
    0.9450    2.5812   -0.9593 N   0  3  0  0  0  0  0  0  0  0  0  0
    1.9029    2.2206   -1.0151 H   0  0  0  0  0  0  0  0  0  0  0  0
    0.5905    3.7924   -0.6077 C   0  0  0  0  0  0  0  0  0  0  0  0
    1.2622    4.6333   -0.4244 H   0  0  0  0  0  0  0  0  0  0  0  0
   -0.7973    3.7963   -0.4848 N   0  0  0  0  0  0  0  0  0  0  0  0
   -1.3695    4.6041   -0.2208 H   0  0  0  0  0  0  0  0  0  0  0  0
   -1.2766    2.5163   -0.7418 C   0  0  0  0  0  0  0  0  0  0  0  0
   -2.3132    2.1822   -0.7258 H   0  0  0  0  0  0  0  0  0  0  0  0
    0.2759   -0.0893    1.1123 C   0  0  0  0  0  0  0  0  0  0  0  0
    1.4825    0.1178    1.1672 O   0  0  0  0  0  0  0  0  0  0  0  0
   -0.5449    0.6683    1.9312 N   0  0  0  0  0  0  0  0  0  0  0  0
   -1.5141    0.3614    1.9443 H   0  0  0  0  0  0  0  0  0  0  0  0
   -0.0352    1.3160    3.1375 C   0  0  0  0  0  0  0  0  0  0  0  0
    0.7236    2.0636    2.8838 H   0  0  0  0  0  0  0  0  0  0  0  0
   -0.8470    1.8192    3.6720 H   0  0  0  0  0  0  0  0  0  0  0  0
    0.4145    0.5759    3.8091 H   0  0  0  0  0  0  0  0  0  0  0  0
  1  2  1  0  0  0  0
  2  3  1  0  0  0  0
  2  4  1  0  0  0  0
  2  5  1  0  0  0  0
  5  6  2  0  0  0  0
  5  7  1  0  0  0  0
  7  8  1  0  0  0  0
  7  9  1  0  0  0  0
  9 10  1  0  0  0  0
  9 11  1  0  0  0  0
  9 23  1  0  0  0  0
 11 12  1  0  0  0  0
 11 13  1  0  0  0  0
 11 14  1  0  0  0  0
 14 15  1  0  0  0  0
 14 21  2  0  0  0  0
 15 16  1  0  0  0  0
 15 17  2  0  0  0  0
 17 18  1  0  0  0  0
 17 19  1  0  0  0  0
 19 20  1  0  0  0  0
 19 21  1  0  0  0  0
 21 22  1  0  0  0  0
 23 24  2  0  0  0  0
 23 25  1  0  0  0  0
 25 26  1  0  0  0  0
 25 27  1  0  0  0  0
 27 28  1  0  0  0  0
 27 29  1  0  0  0  0
 27 30  1  0  0  0  0
M  CHG  1  15   1
M  END
$$$$

  -OEChem-04042216003D

 30 30  0     1  0  0  0  0  0999 V2000
   -3.2141   -4.0099    1.2089 H   0  0  0  0  0  0  0  0  0  0  0  0
   -3.1835   -3.1722    0.5057 C   0  0  0  0  0  0  0  0  0  0  0  0
   -4.0474   -2.5291    0.6896 H   0  0  0  0  0  0  0  0  0  0  0  0
   -3.2401   -3.5688   -0.5110 H   0  0  0  0  0  0  0  0  0  0  0  0
   -1.8987   -2.3877    0.6896 C   0  0  0  0  0  0  0  0  0  0  0  0
   -1.1128   -2.6984    1.5650 O   0  0  0  0  0  0  0  0  0  0  0  0
   -1.6230   -1.2974   -0.1174 N   0  0  0  0  0  0  0  0  0  0  0  0
   -2.2561   -1.1706   -0.9025 H   0  0  0  0  0  0  0  0  0  0  0  0
   -0.2853   -0.6682   -0.1837 C   0  0  1  0  0  0  0  0  0  0  0  0
    0.3965   -1.5022   -0.3946 H   0  0  0  0  0  0  0  0  0  0  0  0
   -0.1269    0.2925   -1.3866 C   0  0  0  0  0  0  0  0  0  0  0  0
    0.8418    0.0826   -1.8535 H   0  0  0  0  0  0  0  0  0  0  0  0
   -0.8919    0.0773   -2.1391 H   0  0  0  0  0  0  0  0  0  0  0  0
   -0.1676    1.7625   -1.0331 C   0  0  0  0  0  0  0  0  0  0  0  0
    0.8663    2.6704   -1.2669 N   0  3  0  0  0  0  0  0  0  0  0  0
    1.7921    2.3822   -1.5965 H   0  0  0  0  0  0  0  0  0  0  0  0
    0.5274    3.8650   -0.8480 C   0  0  0  0  0  0  0  0  0  0  0  0
    1.1585    4.7559   -0.8546 H   0  0  0  0  0  0  0  0  0  0  0  0
   -0.7786    3.7792   -0.3717 N   0  0  0  0  0  0  0  0  0  0  0  0
   -1.3167    4.5502    0.0350 H   0  0  0  0  0  0  0  0  0  0  0  0
   -1.2155    2.4652   -0.4921 C   0  0  0  0  0  0  0  0  0  0  0  0
   -2.1835    2.0610   -0.1999 H   0  0  0  0  0  0  0  0  0  0  0  0
    0.2707   -0.0965    1.1422 C   0  0  0  0  0  0  0  0  0  0  0  0
    1.4792    0.0895    1.2048 O   0  0  0  0  0  0  0  0  0  0  0  0
   -0.5437    0.6528    1.9751 N   0  0  0  0  0  0  0  0  0  0  0  0
   -1.5074    0.3301    2.0049 H   0  0  0  0  0  0  0  0  0  0  0  0
   -0.0187    1.2846    3.1835 C   0  0  0  0  0  0  0  0  0  0  0  0
    0.7418    2.0309    2.9303 H   0  0  0  0  0  0  0  0  0  0  0  0
   -0.8222    1.7858    3.7322 H   0  0  0  0  0  0  0  0  0  0  0  0
    0.4344    0.5350    3.8421 H   0  0  0  0  0  0  0  0  0  0  0  0
  1  2  1  0  0  0  0
  2  3  1  0  0  0  0
  2  4  1  0  0  0  0
  2  5  1  0  0  0  0
  5  6  2  0  0  0  0
  5  7  1  0  0  0  0
  7  8  1  0  0  0  0
  7  9  1  0  0  0  0
  9 10  1  0  0  0  0
  9 11  1  0  0  0  0
  9 23  1  0  0  0  0
 11 12  1  0  0  0  0
 11 13  1  0  0  0  0
 11 14  1  0  0  0  0
 14 15  1  0  0  0  0
 14 21  2  0  0  0  0
 15 16  1  0  0  0  0
 15 17  2  0  0  0  0
 17 18  1  0  0  0  0
 17 19  1  0  0  0  0
 19 20  1  0  0  0  0
 19 21  1  0  0  0  0
 21 22  1  0  0  0  0
 23 24  2  0  0  0  0
 23 25  1  0  0  0  0
 25 26  1  0  0  0  0
 25 27  1  0  0  0  0
 27 28  1  0  0  0  0
 27 29  1  0  0  0  0
 27 30  1  0  0  0  0
M  CHG  1  15   1
M  END
$$$$

  -OEChem-04042216003D

 30 30  0     1  0  0  0  0  0999 V2000
   -3.2100   -4.0428    1.1524 H   0  0  0  0  0  0  0  0  0  0  0  0
   -3.1841   -3.1848    0.4739 C   0  0  0  0  0  0  0  0  0  0  0  0
   -4.0465   -2.5474    0.6825 H   0  0  0  0  0  0  0  0  0  0  0  0
   -3.2478   -3.5515   -0.5534 H   0  0  0  0  0  0  0  0  0  0  0  0
   -1.8981   -2.4057    0.6717 C   0  0  0  0  0  0  0  0  0  0  0  0
   -1.1046   -2.7433    1.5301 O   0  0  0  0  0  0  0  0  0  0  0  0
   -1.6301   -1.2874   -0.0988 N   0  0  0  0  0  0  0  0  0  0  0  0
   -2.2773   -1.1219   -0.8651 H   0  0  0  0  0  0  0  0  0  0  0  0
   -0.2975   -0.6463   -0.1492 C   0  0  1  0  0  0  0  0  0  0  0  0
    0.3829   -1.4793   -0.3690 H   0  0  0  0  0  0  0  0  0  0  0  0
   -0.1262    0.3139   -1.3519 C   0  0  0  0  0  0  0  0  0  0  0  0
    0.8597    0.1043   -1.7818 H   0  0  0  0  0  0  0  0  0  0  0  0
   -0.8632    0.0781   -2.1259 H   0  0  0  0  0  0  0  0  0  0  0  0
   -0.1773    1.7961   -1.0458 C   0  0  0  0  0  0  0  0  0  0  0  0
    0.7180    2.7397   -1.5548 N   0  3  0  0  0  0  0  0  0  0  0  0
    1.5386    2.4827   -2.1104 H   0  0  0  0  0  0  0  0  0  0  0  0
    0.4227    3.9382   -1.1143 C   0  0  0  0  0  0  0  0  0  0  0  0
    0.9776    4.8570   -1.3148 H   0  0  0  0  0  0  0  0  0  0  0  0
   -0.7200    3.8167   -0.3286 N   0  0  0  0  0  0  0  0  0  0  0  0
   -1.1857    4.5810    0.1700 H   0  0  0  0  0  0  0  0  0  0  0  0
   -1.0988    2.4804   -0.2917 C   0  0  0  0  0  0  0  0  0  0  0  0
   -1.9439    2.0502    0.2437 H   0  0  0  0  0  0  0  0  0  0  0  0
    0.2653   -0.1122    1.1887 C   0  0  0  0  0  0  0  0  0  0  0  0
    1.4737    0.0698    1.2486 O   0  0  0  0  0  0  0  0  0  0  0  0
   -0.5431    0.6058    2.0549 N   0  0  0  0  0  0  0  0  0  0  0  0
   -1.4977    0.2582    2.1030 H   0  0  0  0  0  0  0  0  0  0  0  0
    0.0001    1.2097    3.2701 C   0  0  0  0  0  0  0  0  0  0  0  0
    0.7631    1.9560    3.0237 H   0  0  0  0  0  0  0  0  0  0  0  0
   -0.7933    1.7053    3.8381 H   0  0  0  0  0  0  0  0  0  0  0  0
    0.4555    0.4439    3.9082 H   0  0  0  0  0  0  0  0  0  0  0  0
  1  2  1  0  0  0  0
  2  3  1  0  0  0  0
  2  4  1  0  0  0  0
  2  5  1  0  0  0  0
  5  6  2  0  0  0  0
  5  7  1  0  0  0  0
  7  8  1  0  0  0  0
  7  9  1  0  0  0  0
  9 10  1  0  0  0  0
  9 11  1  0  0  0  0
  9 23  1  0  0  0  0
 11 12  1  0  0  0  0
 11 13  1  0  0  0  0
 11 14  1  0  0  0  0
 14 15  1  0  0  0  0
 14 21  2  0  0  0  0
 15 16  1  0  0  0  0
 15 17  2  0  0  0  0
 17 18  1  0  0  0  0
 17 19  1  0  0  0  0
 19 20  1  0  0  0  0
 19 21  1  0  0  0  0
 21 22  1  0  0  0  0
 23 24  2  0  0  0  0
 23 25  1  0  0  0  0
 25 26  1  0  0  0  0
 25 27  1  0  0  0  0
 27 28  1  0  0  0  0
 27 29  1  0  0  0  0
 27 30  1  0  0  0  0
M  CHG  1  15   1
M  END
$$$$

  -OEChem-04042216003D

 30 30  0     1  0  0  0  0  0999 V2000
   -3.2047   -4.0691    1.0877 H   0  0  0  0  0  0  0  0  0  0  0  0
   -3.1866   -3.1837    0.4452 C   0  0  0  0  0  0  0  0  0  0  0  0
   -4.0384   -2.5488    0.7005 H   0  0  0  0  0  0  0  0  0  0  0  0
   -3.2774   -3.5064   -0.5947 H   0  0  0  0  0  0  0  0  0  0  0  0
   -1.8888   -2.4244    0.6445 C   0  0  0  0  0  0  0  0  0  0  0  0
   -1.0741   -2.8086    1.4627 O   0  0  0  0  0  0  0  0  0  0  0  0
   -1.6319   -1.2722   -0.0782 N   0  0  0  0  0  0  0  0  0  0  0  0
   -2.3055   -1.0497   -0.8063 H   0  0  0  0  0  0  0  0  0  0  0  0
   -0.3063   -0.6169   -0.1120 C   0  0  1  0  0  0  0  0  0  0  0  0
    0.3731   -1.4470   -0.3471 H   0  0  0  0  0  0  0  0  0  0  0  0
   -0.1225    0.3466   -1.3118 C   0  0  0  0  0  0  0  0  0  0  0  0
    0.8767    0.1409   -1.7121 H   0  0  0  0  0  0  0  0  0  0  0  0
   -0.8368    0.0912   -2.1005 H   0  0  0  0  0  0  0  0  0  0  0  0
   -0.1840    1.8394   -1.0523 C   0  0  0  0  0  0  0  0  0  0  0  0
    0.5211    2.7816   -1.8063 N   0  3  0  0  0  0  0  0  0  0  0  0
    1.1911    2.5199   -2.5345 H   0  0  0  0  0  0  0  0  0  0  0  0
    0.2817    3.9954   -1.3738 C   0  0  0  0  0  0  0  0  0  0  0  0
    0.7283    4.9182   -1.7492 H   0  0  0  0  0  0  0  0  0  0  0  0
   -0.6376    3.8856   -0.3358 N   0  0  0  0  0  0  0  0  0  0  0  0
   -1.0115    4.6632    0.2168 H   0  0  0  0  0  0  0  0  0  0  0  0
   -0.9372    2.5430   -0.1437 C   0  0  0  0  0  0  0  0  0  0  0  0
   -1.6293    2.1295    0.5871 H   0  0  0  0  0  0  0  0  0  0  0  0
    0.2663   -0.1326    1.2400 C   0  0  0  0  0  0  0  0  0  0  0  0
    1.4738    0.0528    1.2958 O   0  0  0  0  0  0  0  0  0  0  0  0
   -0.5348    0.5418    2.1468 N   0  0  0  0  0  0  0  0  0  0  0  0
   -1.4854    0.1823    2.1934 H   0  0  0  0  0  0  0  0  0  0  0  0
    0.0208    1.0918    3.3823 C   0  0  0  0  0  0  0  0  0  0  0  0
    0.7669    1.8628    3.1619 H   0  0  0  0  0  0  0  0  0  0  0  0
   -0.7700    1.5433    3.9894 H   0  0  0  0  0  0  0  0  0  0  0  0
    0.5006    0.3023    3.9719 H   0  0  0  0  0  0  0  0  0  0  0  0
  1  2  1  0  0  0  0
  2  3  1  0  0  0  0
  2  4  1  0  0  0  0
  2  5  1  0  0  0  0
  5  6  2  0  0  0  0
  5  7  1  0  0  0  0
  7  8  1  0  0  0  0
  7  9  1  0  0  0  0
  9 10  1  0  0  0  0
  9 11  1  0  0  0  0
  9 23  1  0  0  0  0
 11 12  1  0  0  0  0
 11 13  1  0  0  0  0
 11 14  1  0  0  0  0
 14 15  1  0  0  0  0
 14 21  2  0  0  0  0
 15 16  1  0  0  0  0
 15 17  2  0  0  0  0
 17 18  1  0  0  0  0
 17 19  1  0  0  0  0
 19 20  1  0  0  0  0
 19 21  1  0  0  0  0
 21 22  1  0  0  0  0
 23 24  2  0  0  0  0
 23 25  1  0  0  0  0
 25 26  1  0  0  0  0
 25 27  1  0  0  0  0
 27 28  1  0  0  0  0
 27 29  1  0  0  0  0
 27 30  1  0  0  0  0
M  CHG  1  15   1
M  END
$$$$

  -OEChem-04042216003D

 30 30  0     1  0  0  0  0  0999 V2000
   -3.2104   -4.0725    1.0376 H   0  0  0  0  0  0  0  0  0  0  0  0
   -3.1952   -3.1658    0.4253 C   0  0  0  0  0  0  0  0  0  0  0  0
   -4.0269   -2.5254    0.7281 H   0  0  0  0  0  0  0  0  0  0  0  0
   -3.3232   -3.4503   -0.6218 H   0  0  0  0  0  0  0  0  0  0  0  0
   -1.8781   -2.4368    0.6108 C   0  0  0  0  0  0  0  0  0  0  0  0
   -1.0379   -2.8757    1.3737 O   0  0  0  0  0  0  0  0  0  0  0  0
   -1.6303   -1.2524   -0.0610 N   0  0  0  0  0  0  0  0  0  0  0  0
   -2.3391   -0.9602   -0.7285 H   0  0  0  0  0  0  0  0  0  0  0  0
   -0.3102   -0.5855   -0.0782 C   0  0  1  0  0  0  0  0  0  0  0  0
    0.3680   -1.4112   -0.3314 H   0  0  0  0  0  0  0  0  0  0  0  0
   -0.1159    0.3865   -1.2715 C   0  0  0  0  0  0  0  0  0  0  0  0
    0.8897    0.1824   -1.6573 H   0  0  0  0  0  0  0  0  0  0  0  0
   -0.8189    0.1162   -2.0655 H   0  0  0  0  0  0  0  0  0  0  0  0
   -0.1819    1.8885   -1.0563 C   0  0  0  0  0  0  0  0  0  0  0  0
    0.2868    2.7943   -2.0137 N   0  3  0  0  0  0  0  0  0  0  0  0
    0.7585    2.4980   -2.8725 H   0  0  0  0  0  0  0  0  0  0  0  0
    0.1208    4.0304   -1.6114 C   0  0  0  0  0  0  0  0  0  0  0  0
    0.4278    4.9345   -2.1415 H   0  0  0  0  0  0  0  0  0  0  0  0
   -0.5105    3.9735   -0.3744 N   0  0  0  0  0  0  0  0  0  0  0  0
   -0.7655    4.7794    0.2049 H   0  0  0  0  0  0  0  0  0  0  0  0
   -0.7100    2.6420   -0.0340 C   0  0  0  0  0  0  0  0  0  0  0  0
   -1.1964    2.2821    0.8677 H   0  0  0  0  0  0  0  0  0  0  0  0
    0.2681   -0.1573    1.2892 C   0  0  0  0  0  0  0  0  0  0  0  0
    1.4746    0.0310    1.3491 O   0  0  0  0  0  0  0  0  0  0  0  0
   -0.5303    0.4688    2.2320 N   0  0  0  0  0  0  0  0  0  0  0  0
   -1.4876    0.1246    2.2505 H   0  0  0  0  0  0  0  0  0  0  0  0
    0.0242    0.9412    3.4999 C   0  0  0  0  0  0  0  0  0  0  0  0
    0.7755    1.7198    3.3291 H   0  0  0  0  0  0  0  0  0  0  0  0
   -0.7666    1.3600    4.1301 H   0  0  0  0  0  0  0  0  0  0  0  0
    0.4971    0.1149    4.0428 H   0  0  0  0  0  0  0  0  0  0  0  0
  1  2  1  0  0  0  0
  2  3  1  0  0  0  0
  2  4  1  0  0  0  0
  2  5  1  0  0  0  0
  5  6  2  0  0  0  0
  5  7  1  0  0  0  0
  7  8  1  0  0  0  0
  7  9  1  0  0  0  0
  9 10  1  0  0  0  0
  9 11  1  0  0  0  0
  9 23  1  0  0  0  0
 11 12  1  0  0  0  0
 11 13  1  0  0  0  0
 11 14  1  0  0  0  0
 14 15  1  0  0  0  0
 14 21  2  0  0  0  0
 15 16  1  0  0  0  0
 15 17  2  0  0  0  0
 17 18  1  0  0  0  0
 17 19  1  0  0  0  0
 19 20  1  0  0  0  0
 19 21  1  0  0  0  0
 21 22  1  0  0  0  0
 23 24  2  0  0  0  0
 23 25  1  0  0  0  0
 25 26  1  0  0  0  0
 25 27  1  0  0  0  0
 27 28  1  0  0  0  0
 27 29  1  0  0  0  0
 27 30  1  0  0  0  0
M  CHG  1  15   1
M  END
$$$$

  -OEChem-04042216003D

 30 30  0     1  0  0  0  0  0999 V2000
   -3.2684   -3.9484    1.1119 H   0  0  0  0  0  0  0  0  0  0  0  0
   -3.2099   -3.0601    0.4758 C   0  0  0  0  0  0  0  0  0  0  0  0
   -3.9948   -2.3622    0.7762 H   0  0  0  0  0  0  0  0  0  0  0  0
   -3.3747   -3.3626   -0.5611 H   0  0  0  0  0  0  0  0  0  0  0  0
   -1.8476   -2.4094    0.6184 C   0  0  0  0  0  0  0  0  0  0  0  0
   -1.0162   -2.8912    1.3647 O   0  0  0  0  0  0  0  0  0  0  0  0
   -1.5417   -1.2626   -0.0947 N   0  0  0  0  0  0  0  0  0  0  0  0
   -2.2543   -0.9295   -0.7381 H   0  0  0  0  0  0  0  0  0  0  0  0
   -0.2015   -0.6312   -0.1033 C   0  0  1  0  0  0  0  0  0  0  0  0
    0.5005   -1.4393   -0.3475 H   0  0  0  0  0  0  0  0  0  0  0  0
   -0.0670    0.3908   -1.2739 C   0  0  0  0  0  0  0  0  0  0  0  0
    0.7390    0.0119   -1.9122 H   0  0  0  0  0  0  0  0  0  0  0  0
   -0.9842    0.3376   -1.8683 H   0  0  0  0  0  0  0  0  0  0  0  0
    0.2311    1.8717   -1.0523 C   0  0  0  0  0  0  0  0  0  0  0  0
    0.3396    2.7448   -2.1420 N   0  3  0  0  0  0  0  0  0  0  0  0
    0.2102    2.4400   -3.1102 H   0  0  0  0  0  0  0  0  0  0  0  0
    0.6701    3.9524   -1.7551 C   0  0  0  0  0  0  0  0  0  0  0  0
    0.8368    4.8202   -2.3965 H   0  0  0  0  0  0  0  0  0  0  0  0
    0.7882    3.9159   -0.3724 N   0  0  0  0  0  0  0  0  0  0  0  0
    1.0742    4.6965    0.2265 H   0  0  0  0  0  0  0  0  0  0  0  0
    0.5331    2.6238    0.0637 C   0  0  0  0  0  0  0  0  0  0  0  0
    0.6169    2.2891    1.0947 H   0  0  0  0  0  0  0  0  0  0  0  0
    0.2612   -0.1923    1.3015 C   0  0  0  0  0  0  0  0  0  0  0  0
    1.4594   -0.0655    1.5093 O   0  0  0  0  0  0  0  0  0  0  0  0
   -0.6190    0.4662    2.1455 N   0  0  0  0  0  0  0  0  0  0  0  0
   -1.5988    0.2461    1.9851 H   0  0  0  0  0  0  0  0  0  0  0  0
   -0.2354    0.8383    3.5066 C   0  0  0  0  0  0  0  0  0  0  0  0
    0.6217    1.5199    3.5000 H   0  0  0  0  0  0  0  0  0  0  0  0
   -1.0662    1.3397    4.0132 H   0  0  0  0  0  0  0  0  0  0  0  0
    0.0346   -0.0531    4.0842 H   0  0  0  0  0  0  0  0  0  0  0  0
  1  2  1  0  0  0  0
  2  3  1  0  0  0  0
  2  4  1  0  0  0  0
  2  5  1  0  0  0  0
  5  6  2  0  0  0  0
  5  7  1  0  0  0  0
  7  8  1  0  0  0  0
  7  9  1  0  0  0  0
  9 10  1  0  0  0  0
  9 11  1  0  0  0  0
  9 23  1  0  0  0  0
 11 12  1  0  0  0  0
 11 13  1  0  0  0  0
 11 14  1  0  0  0  0
 14 15  1  0  0  0  0
 14 21  2  0  0  0  0
 15 16  1  0  0  0  0
 15 17  2  0  0  0  0
 17 18  1  0  0  0  0
 17 19  1  0  0  0  0
 19 20  1  0  0  0  0
 19 21  1  0  0  0  0
 21 22  1  0  0  0  0
 23 24  2  0  0  0  0
 23 25  1  0  0  0  0
 25 26  1  0  0  0  0
 25 27  1  0  0  0  0
 27 28  1  0  0  0  0
 27 29  1  0  0  0  0
 27 30  1  0  0  0  0
M  CHG  1  15   1
M  END
$$$$

  -OEChem-04042216003D

 30 30  0     1  0  0  0  0  0999 V2000
   -3.3042   -3.9065    1.1424 H   0  0  0  0  0  0  0  0  0  0  0  0
   -3.2264   -3.0333    0.4878 C   0  0  0  0  0  0  0  0  0  0  0  0
   -4.0041   -2.3181    0.7651 H   0  0  0  0  0  0  0  0  0  0  0  0
   -3.3854   -3.3559   -0.5439 H   0  0  0  0  0  0  0  0  0  0  0  0
   -1.8562   -2.3987    0.6304 C   0  0  0  0  0  0  0  0  0  0  0  0
   -1.0397   -2.8763    1.3954 O   0  0  0  0  0  0  0  0  0  0  0  0
   -1.5286   -1.2703   -0.1023 N   0  0  0  0  0  0  0  0  0  0  0  0
   -2.2274   -0.9478   -0.7656 H   0  0  0  0  0  0  0  0  0  0  0  0
   -0.1787   -0.6590   -0.1109 C   0  0  1  0  0  0  0  0  0  0  0  0
    0.5192   -1.4713   -0.3530 H   0  0  0  0  0  0  0  0  0  0  0  0
   -0.0565    0.3659   -1.2817 C   0  0  0  0  0  0  0  0  0  0  0  0
    0.7356   -0.0094   -1.9394 H   0  0  0  0  0  0  0  0  0  0  0  0
   -0.9842    0.3208   -1.8597 H   0  0  0  0  0  0  0  0  0  0  0  0
    0.2517    1.8433   -1.0459 C   0  0  0  0  0  0  0  0  0  0  0  0
    0.0514    2.7932   -2.0555 N   0  3  0  0  0  0  0  0  0  0  0  0
   -0.3192    2.5515   -2.9781 H   0  0  0  0  0  0  0  0  0  0  0  0
    0.4356    3.9859   -1.6706 C   0  0  0  0  0  0  0  0  0  0  0  0
    0.4028    4.9043   -2.2605 H   0  0  0  0  0  0  0  0  0  0  0  0
    0.9101    3.8595   -0.3718 N   0  0  0  0  0  0  0  0  0  0  0  0
    1.3122    4.6109    0.1973 H   0  0  0  0  0  0  0  0  0  0  0  0
    0.8125    2.5299    0.0118 C   0  0  0  0  0  0  0  0  0  0  0  0
    1.1621    2.1285    0.9617 H   0  0  0  0  0  0  0  0  0  0  0  0
    0.2830   -0.1988    1.2867 C   0  0  0  0  0  0  0  0  0  0  0  0
    1.4816   -0.1554    1.5266 O   0  0  0  0  0  0  0  0  0  0  0  0
   -0.5848    0.4926    2.1150 N   0  0  0  0  0  0  0  0  0  0  0  0
   -1.5704    0.3158    1.9392 H   0  0  0  0  0  0  0  0  0  0  0  0
   -0.2053    0.8755    3.4733 C   0  0  0  0  0  0  0  0  0  0  0  0
    0.6640    1.5414    3.4628 H   0  0  0  0  0  0  0  0  0  0  0  0
   -1.0309    1.3988    3.9660 H   0  0  0  0  0  0  0  0  0  0  0  0
    0.0438   -0.0125    4.0652 H   0  0  0  0  0  0  0  0  0  0  0  0
  1  2  1  0  0  0  0
  2  3  1  0  0  0  0
  2  4  1  0  0  0  0
  2  5  1  0  0  0  0
  5  6  2  0  0  0  0
  5  7  1  0  0  0  0
  7  8  1  0  0  0  0
  7  9  1  0  0  0  0
  9 10  1  0  0  0  0
  9 11  1  0  0  0  0
  9 23  1  0  0  0  0
 11 12  1  0  0  0  0
 11 13  1  0  0  0  0
 11 14  1  0  0  0  0
 14 15  1  0  0  0  0
 14 21  2  0  0  0  0
 15 16  1  0  0  0  0
 15 17  2  0  0  0  0
 17 18  1  0  0  0  0
 17 19  1  0  0  0  0
 19 20  1  0  0  0  0
 19 21  1  0  0  0  0
 21 22  1  0  0  0  0
 23 24  2  0  0  0  0
 23 25  1  0  0  0  0
 25 26  1  0  0  0  0
 25 27  1  0  0  0  0
 27 28  1  0  0  0  0
 27 29  1  0  0  0  0
 27 30  1  0  0  0  0
M  CHG  1  15   1
M  END
$$$$

  -OEChem-04042216003D

 30 30  0     1  0  0  0  0  0999 V2000
   -3.2978   -3.8840    1.2036 H   0  0  0  0  0  0  0  0  0  0  0  0
   -3.2128   -3.0370    0.5163 C   0  0  0  0  0  0  0  0  0  0  0  0
   -4.0011   -2.3175    0.7491 H   0  0  0  0  0  0  0  0  0  0  0  0
   -3.3476   -3.4016   -0.5048 H   0  0  0  0  0  0  0  0  0  0  0  0
   -1.8507   -2.3865    0.6614 C   0  0  0  0  0  0  0  0  0  0  0  0
   -1.0451   -2.8332    1.4557 O   0  0  0  0  0  0  0  0  0  0  0  0
   -1.5173   -1.2845   -0.1085 N   0  0  0  0  0  0  0  0  0  0  0  0
   -2.1959   -1.0134   -0.8141 H   0  0  0  0  0  0  0  0  0  0  0  0
   -0.1645   -0.6795   -0.1299 C   0  0  1  0  0  0  0  0  0  0  0  0
    0.5389   -1.4895   -0.3621 H   0  0  0  0  0  0  0  0  0  0  0  0
   -0.0686    0.3423   -1.3059 C   0  0  0  0  0  0  0  0  0  0  0  0
    0.7130   -0.0239   -1.9809 H   0  0  0  0  0  0  0  0  0  0  0  0
   -1.0044    0.2997   -1.8706 H   0  0  0  0  0  0  0  0  0  0  0  0
    0.2414    1.8126   -1.0432 C   0  0  0  0  0  0  0  0  0  0  0  0
   -0.2342    2.8449   -1.8612 N   0  3  0  0  0  0  0  0  0  0  0  0
   -0.8595    2.6818   -2.6543 H   0  0  0  0  0  0  0  0  0  0  0  0
    0.2429    4.0061   -1.4829 C   0  0  0  0  0  0  0  0  0  0  0  0
    0.0370    4.9764   -1.9398 H   0  0  0  0  0  0  0  0  0  0  0  0
    1.0765    3.7693   -0.3970 N   0  0  0  0  0  0  0  0  0  0  0  0
    1.6225    4.4747    0.1078 H   0  0  0  0  0  0  0  0  0  0  0  0
    1.0987    2.4063   -0.1407 C   0  0  0  0  0  0  0  0  0  0  0  0
    1.7171    1.9148    0.6105 H   0  0  0  0  0  0  0  0  0  0  0  0
    0.2851   -0.1761    1.2587 C   0  0  0  0  0  0  0  0  0  0  0  0
    1.4756   -0.1963    1.5401 O   0  0  0  0  0  0  0  0  0  0  0  0
   -0.5839    0.5457    2.0583 N   0  0  0  0  0  0  0  0  0  0  0  0
   -1.5702    0.3962    1.8636 H   0  0  0  0  0  0  0  0  0  0  0  0
   -0.2190    0.9579    3.4114 C   0  0  0  0  0  0  0  0  0  0  0  0
    0.6746    1.5907    3.3973 H   0  0  0  0  0  0  0  0  0  0  0  0
   -1.0339    1.5273    3.8693 H   0  0  0  0  0  0  0  0  0  0  0  0
   -0.0151    0.0808    4.0359 H   0  0  0  0  0  0  0  0  0  0  0  0
  1  2  1  0  0  0  0
  2  3  1  0  0  0  0
  2  4  1  0  0  0  0
  2  5  1  0  0  0  0
  5  6  2  0  0  0  0
  5  7  1  0  0  0  0
  7  8  1  0  0  0  0
  7  9  1  0  0  0  0
  9 10  1  0  0  0  0
  9 11  1  0  0  0  0
  9 23  1  0  0  0  0
 11 12  1  0  0  0  0
 11 13  1  0  0  0  0
 11 14  1  0  0  0  0
 14 15  1  0  0  0  0
 14 21  2  0  0  0  0
 15 16  1  0  0  0  0
 15 17  2  0  0  0  0
 17 18  1  0  0  0  0
 17 19  1  0  0  0  0
 19 20  1  0  0  0  0
 19 21  1  0  0  0  0
 21 22  1  0  0  0  0
 23 24  2  0  0  0  0
 23 25  1  0  0  0  0
 25 26  1  0  0  0  0
 25 27  1  0  0  0  0
 27 28  1  0  0  0  0
 27 29  1  0  0  0  0
 27 30  1  0  0  0  0
M  CHG  1  15   1
M  END
$$$$

  -OEChem-04042216003D

 30 30  0     1  0  0  0  0  0999 V2000
   -3.2689   -3.9020    1.2383 H   0  0  0  0  0  0  0  0  0  0  0  0
   -3.1910   -3.0704    0.5313 C   0  0  0  0  0  0  0  0  0  0  0  0
   -4.0035   -2.3670    0.7276 H   0  0  0  0  0  0  0  0  0  0  0  0
   -3.2930   -3.4646   -0.4827 H   0  0  0  0  0  0  0  0  0  0  0  0
   -1.8508   -2.3784    0.6896 C   0  0  0  0  0  0  0  0  0  0  0  0
   -1.0568   -2.7732    1.5221 O   0  0  0  0  0  0  0  0  0  0  0  0
   -1.5252   -1.2984   -0.1139 N   0  0  0  0  0  0  0  0  0  0  0  0
   -2.1796   -1.0980   -0.8645 H   0  0  0  0  0  0  0  0  0  0  0  0
   -0.1744   -0.6901   -0.1537 C   0  0  1  0  0  0  0  0  0  0  0  0
    0.5332   -1.4995   -0.3743 H   0  0  0  0  0  0  0  0  0  0  0  0
   -0.0918    0.3204   -1.3384 C   0  0  0  0  0  0  0  0  0  0  0  0
    0.6928   -0.0390   -2.0135 H   0  0  0  0  0  0  0  0  0  0  0  0
   -1.0257    0.2807   -1.9061 H   0  0  0  0  0  0  0  0  0  0  0  0
    0.2201    1.7784   -1.0355 C   0  0  0  0  0  0  0  0  0  0  0  0
   -0.4515    2.8743   -1.5874 N   0  3  0  0  0  0  0  0  0  0  0  0
   -1.2723    2.7791   -2.1901 H   0  0  0  0  0  0  0  0  0  0  0  0
    0.1150    4.0002   -1.2240 C   0  0  0  0  0  0  0  0  0  0  0  0
   -0.2029    5.0080   -1.4982 H   0  0  0  0  0  0  0  0  0  0  0  0
    1.2093    3.6716   -0.4312 N   0  0  0  0  0  0  0  0  0  0  0  0
    1.8658    4.3334   -0.0050 H   0  0  0  0  0  0  0  0  0  0  0  0
    1.2938    2.2902   -0.3412 C   0  0  0  0  0  0  0  0  0  0  0  0
    2.0757    1.7214    0.1662 H   0  0  0  0  0  0  0  0  0  0  0  0
    0.2807   -0.1419    1.2192 C   0  0  0  0  0  0  0  0  0  0  0  0
    1.4742   -0.1389    1.4901 O   0  0  0  0  0  0  0  0  0  0  0  0
   -0.5881    0.6019    1.9986 N   0  0  0  0  0  0  0  0  0  0  0  0
   -1.5739    0.4279    1.8243 H   0  0  0  0  0  0  0  0  0  0  0  0
   -0.2120    1.0746    3.3285 C   0  0  0  0  0  0  0  0  0  0  0  0
    0.6720    1.7189    3.2761 H   0  0  0  0  0  0  0  0  0  0  0  0
   -1.0288    1.6510    3.7739 H   0  0  0  0  0  0  0  0  0  0  0  0
    0.0128    0.2267    3.9855 H   0  0  0  0  0  0  0  0  0  0  0  0
  1  2  1  0  0  0  0
  2  3  1  0  0  0  0
  2  4  1  0  0  0  0
  2  5  1  0  0  0  0
  5  6  2  0  0  0  0
  5  7  1  0  0  0  0
  7  8  1  0  0  0  0
  7  9  1  0  0  0  0
  9 10  1  0  0  0  0
  9 11  1  0  0  0  0
  9 23  1  0  0  0  0
 11 12  1  0  0  0  0
 11 13  1  0  0  0  0
 11 14  1  0  0  0  0
 14 15  1  0  0  0  0
 14 21  2  0  0  0  0
 15 16  1  0  0  0  0
 15 17  2  0  0  0  0
 17 18  1  0  0  0  0
 17 19  1  0  0  0  0
 19 20  1  0  0  0  0
 19 21  1  0  0  0  0
 21 22  1  0  0  0  0
 23 24  2  0  0  0  0
 23 25  1  0  0  0  0
 25 26  1  0  0  0  0
 25 27  1  0  0  0  0
 27 28  1  0  0  0  0
 27 29  1  0  0  0  0
 27 30  1  0  0  0  0
M  CHG  1  15   1
M  END
$$$$

  -OEChem-04042216003D

 30 30  0     1  0  0  0  0  0999 V2000
   -3.2457   -3.9120    1.2701 H   0  0  0  0  0  0  0  0  0  0  0  0
   -3.1762   -3.0981    0.5421 C   0  0  0  0  0  0  0  0  0  0  0  0
   -4.0083   -2.4097    0.7071 H   0  0  0  0  0  0  0  0  0  0  0  0
   -3.2534   -3.5216   -0.4622 H   0  0  0  0  0  0  0  0  0  0  0  0
   -1.8548   -2.3709    0.7015 C   0  0  0  0  0  0  0  0  0  0  0  0
   -1.0669   -2.7230    1.5588 O   0  0  0  0  0  0  0  0  0  0  0  0
   -1.5416   -1.3037   -0.1239 N   0  0  0  0  0  0  0  0  0  0  0  0
   -2.1814   -1.1519   -0.8984 H   0  0  0  0  0  0  0  0  0  0  0  0
   -0.1932   -0.6925   -0.1811 C   0  0  1  0  0  0  0  0  0  0  0  0
    0.5120   -1.5066   -0.3930 H   0  0  0  0  0  0  0  0  0  0  0  0
   -0.1070    0.3021   -1.3762 C   0  0  0  0  0  0  0  0  0  0  0  0
    0.6863   -0.0579   -2.0411 H   0  0  0  0  0  0  0  0  0  0  0  0
   -1.0336    0.2659   -1.9560 H   0  0  0  0  0  0  0  0  0  0  0  0
    0.2098    1.7493   -1.0449 C   0  0  0  0  0  0  0  0  0  0  0  0
   -0.5909    2.8619   -1.3179 N   0  3  0  0  0  0  0  0  0  0  0  0
   -1.5257    2.7909   -1.7268 H   0  0  0  0  0  0  0  0  0  0  0  0
    0.0202    3.9673   -0.9618 C   0  0  0  0  0  0  0  0  0  0  0  0
   -0.3710    4.9833   -1.0446 H   0  0  0  0  0  0  0  0  0  0  0  0
    1.2673    3.6059   -0.4603 N   0  0  0  0  0  0  0  0  0  0  0  0
    1.9793    4.2459   -0.0950 H   0  0  0  0  0  0  0  0  0  0  0  0
    1.3937    2.2266   -0.5333 C   0  0  0  0  0  0  0  0  0  0  0  0
    2.2549    1.6269   -0.2285 H   0  0  0  0  0  0  0  0  0  0  0  0
    0.2828   -0.1150    1.1737 C   0  0  0  0  0  0  0  0  0  0  0  0
    1.4845   -0.0708    1.4048 O   0  0  0  0  0  0  0  0  0  0  0  0
   -0.5781    0.6438    1.9478 N   0  0  0  0  0  0  0  0  0  0  0  0
   -1.5633    0.4316    1.8168 H   0  0  0  0  0  0  0  0  0  0  0  0
   -0.1718    1.1745    3.2465 C   0  0  0  0  0  0  0  0  0  0  0  0
    0.6944    1.8364    3.1416 H   0  0  0  0  0  0  0  0  0  0  0  0
   -0.9882    1.7479    3.6963 H   0  0  0  0  0  0  0  0  0  0  0  0
    0.0935    0.3575    3.9268 H   0  0  0  0  0  0  0  0  0  0  0  0
  1  2  1  0  0  0  0
  2  3  1  0  0  0  0
  2  4  1  0  0  0  0
  2  5  1  0  0  0  0
  5  6  2  0  0  0  0
  5  7  1  0  0  0  0
  7  8  1  0  0  0  0
  7  9  1  0  0  0  0
  9 10  1  0  0  0  0
  9 11  1  0  0  0  0
  9 23  1  0  0  0  0
 11 12  1  0  0  0  0
 11 13  1  0  0  0  0
 11 14  1  0  0  0  0
 14 15  1  0  0  0  0
 14 21  2  0  0  0  0
 15 16  1  0  0  0  0
 15 17  2  0  0  0  0
 17 18  1  0  0  0  0
 17 19  1  0  0  0  0
 19 20  1  0  0  0  0
 19 21  1  0  0  0  0
 21 22  1  0  0  0  0
 23 24  2  0  0  0  0
 23 25  1  0  0  0  0
 25 26  1  0  0  0  0
 25 27  1  0  0  0  0
 27 28  1  0  0  0  0
 27 29  1  0  0  0  0
 27 30  1  0  0  0  0
M  CHG  1  15   1
M  END
$$$$

  -OEChem-04042216003D

 30 30  0     1  0  0  0  0  0999 V2000
   -3.2245   -3.9211    1.2883 H   0  0  0  0  0  0  0  0  0  0  0  0
   -3.1635   -3.1186    0.5471 C   0  0  0  0  0  0  0  0  0  0  0  0
   -4.0102   -2.4436    0.6917 H   0  0  0  0  0  0  0  0  0  0  0  0
   -3.2220   -3.5602   -0.4506 H   0  0  0  0  0  0  0  0  0  0  0  0
   -1.8585   -2.3625    0.7076 C   0  0  0  0  0  0  0  0  0  0  0  0
   -1.0737   -2.6803    1.5811 O   0  0  0  0  0  0  0  0  0  0  0  0
   -1.5588   -1.3038   -0.1333 N   0  0  0  0  0  0  0  0  0  0  0  0
   -2.1897   -1.1894   -0.9218 H   0  0  0  0  0  0  0  0  0  0  0  0
   -0.2125   -0.6903   -0.2071 C   0  0  1  0  0  0  0  0  0  0  0  0
    0.4894   -1.5081   -0.4144 H   0  0  0  0  0  0  0  0  0  0  0  0
   -0.1240    0.2902   -1.4111 C   0  0  0  0  0  0  0  0  0  0  0  0
    0.6710   -0.0749   -2.0709 H   0  0  0  0  0  0  0  0  0  0  0  0
   -1.0488    0.2594   -1.9945 H   0  0  0  0  0  0  0  0  0  0  0  0
    0.1970    1.7299   -1.0627 C   0  0  0  0  0  0  0  0  0  0  0  0
   -0.6785    2.8180   -1.0495 N   0  3  0  0  0  0  0  0  0  0  0  0
   -1.6758    2.7361   -1.2595 H   0  0  0  0  0  0  0  0  0  0  0  0
   -0.0408    3.9121   -0.7049 C   0  0  0  0  0  0  0  0  0  0  0  0
   -0.4713    4.9091   -0.5959 H   0  0  0  0  0  0  0  0  0  0  0  0
    1.2923    3.5669   -0.4982 N   0  0  0  0  0  0  0  0  0  0  0  0
    2.0384    4.1995   -0.1930 H   0  0  0  0  0  0  0  0  0  0  0  0
    1.4419    2.2077   -0.7323 C   0  0  0  0  0  0  0  0  0  0  0  0
    2.3523    1.6131   -0.6279 H   0  0  0  0  0  0  0  0  0  0  0  0
    0.2866   -0.0922    1.1313 C   0  0  0  0  0  0  0  0  0  0  0  0
    1.4938   -0.0125    1.3214 O   0  0  0  0  0  0  0  0  0  0  0  0
   -0.5646    0.6777    1.9058 N   0  0  0  0  0  0  0  0  0  0  0  0
   -1.5468    0.4311    1.8191 H   0  0  0  0  0  0  0  0  0  0  0  0
   -0.1292    1.2543    3.1753 C   0  0  0  0  0  0  0  0  0  0  0  0
    0.7236    1.9248    3.0248 H   0  0  0  0  0  0  0  0  0  0  0  0
   -0.9408    1.8298    3.6313 H   0  0  0  0  0  0  0  0  0  0  0  0
    0.1685    0.4630    3.8723 H   0  0  0  0  0  0  0  0  0  0  0  0
  1  2  1  0  0  0  0
  2  3  1  0  0  0  0
  2  4  1  0  0  0  0
  2  5  1  0  0  0  0
  5  6  2  0  0  0  0
  5  7  1  0  0  0  0
  7  8  1  0  0  0  0
  7  9  1  0  0  0  0
  9 10  1  0  0  0  0
  9 11  1  0  0  0  0
  9 23  1  0  0  0  0
 11 12  1  0  0  0  0
 11 13  1  0  0  0  0
 11 14  1  0  0  0  0
 14 15  1  0  0  0  0
 14 21  2  0  0  0  0
 15 16  1  0  0  0  0
 15 17  2  0  0  0  0
 17 18  1  0  0  0  0
 17 19  1  0  0  0  0
 19 20  1  0  0  0  0
 19 21  1  0  0  0  0
 21 22  1  0  0  0  0
 23 24  2  0  0  0  0
 23 25  1  0  0  0  0
 25 26  1  0  0  0  0
 25 27  1  0  0  0  0
 27 28  1  0  0  0  0
 27 29  1  0  0  0  0
 27 30  1  0  0  0  0
M  CHG  1  15   1
M  END
$$$$

  -OEChem-04042216003D

 30 30  0     1  0  0  0  0  0999 V2000
   -3.2105   -3.9252    1.3006 H   0  0  0  0  0  0  0  0  0  0  0  0
   -3.1546   -3.1305    0.5505 C   0  0  0  0  0  0  0  0  0  0  0  0
   -4.0106   -2.4644    0.6823 H   0  0  0  0  0  0  0  0  0  0  0  0
   -3.2016   -3.5849   -0.4421 H   0  0  0  0  0  0  0  0  0  0  0  0
   -1.8595   -2.3572    0.7086 C   0  0  0  0  0  0  0  0  0  0  0  0
   -1.0757   -2.6539    1.5903 O   0  0  0  0  0  0  0  0  0  0  0  0
   -1.5701   -1.3014   -0.1394 N   0  0  0  0  0  0  0  0  0  0  0  0
   -2.1973   -1.2075   -0.9337 H   0  0  0  0  0  0  0  0  0  0  0  0
   -0.2266   -0.6841   -0.2259 C   0  0  1  0  0  0  0  0  0  0  0  0
    0.4744   -1.5031   -0.4320 H   0  0  0  0  0  0  0  0  0  0  0  0
   -0.1387    0.2883   -1.4345 C   0  0  0  0  0  0  0  0  0  0  0  0
    0.6544   -0.0800   -2.0947 H   0  0  0  0  0  0  0  0  0  0  0  0
   -1.0649    0.2618   -2.0161 H   0  0  0  0  0  0  0  0  0  0  0  0
    0.1839    1.7231   -1.0758 C   0  0  0  0  0  0  0  0  0  0  0  0
   -0.7101    2.7531   -0.7757 N   0  3  0  0  0  0  0  0  0  0  0  0
   -1.7240    2.6247   -0.7540 H   0  0  0  0  0  0  0  0  0  0  0  0
   -0.0549    3.8477   -0.4694 C   0  0  0  0  0  0  0  0  0  0  0  0
   -0.4894    4.8027   -0.1685 H   0  0  0  0  0  0  0  0  0  0  0  0
    1.3037    3.5634   -0.5842 N   0  0  0  0  0  0  0  0  0  0  0  0
    2.0725    4.2064   -0.3712 H   0  0  0  0  0  0  0  0  0  0  0  0
    1.4521    2.2367   -0.9637 C   0  0  0  0  0  0  0  0  0  0  0  0
    2.3846    1.6845   -1.0913 H   0  0  0  0  0  0  0  0  0  0  0  0
    0.2853   -0.0768    1.1042 C   0  0  0  0  0  0  0  0  0  0  0  0
    1.4940    0.0412    1.2611 O   0  0  0  0  0  0  0  0  0  0  0  0
   -0.5642    0.6943    1.8808 N   0  0  0  0  0  0  0  0  0  0  0  0
   -1.5375    0.4040    1.8370 H   0  0  0  0  0  0  0  0  0  0  0  0
   -0.1087    1.3004    3.1297 C   0  0  0  0  0  0  0  0  0  0  0  0
    0.7257    1.9856    2.9462 H   0  0  0  0  0  0  0  0  0  0  0  0
   -0.9205    1.8660    3.5977 H   0  0  0  0  0  0  0  0  0  0  0  0
    0.2235    0.5267    3.8311 H   0  0  0  0  0  0  0  0  0  0  0  0
  1  2  1  0  0  0  0
  2  3  1  0  0  0  0
  2  4  1  0  0  0  0
  2  5  1  0  0  0  0
  5  6  2  0  0  0  0
  5  7  1  0  0  0  0
  7  8  1  0  0  0  0
  7  9  1  0  0  0  0
  9 10  1  0  0  0  0
  9 11  1  0  0  0  0
  9 23  1  0  0  0  0
 11 12  1  0  0  0  0
 11 13  1  0  0  0  0
 11 14  1  0  0  0  0
 14 15  1  0  0  0  0
 14 21  2  0  0  0  0
 15 16  1  0  0  0  0
 15 17  2  0  0  0  0
 17 18  1  0  0  0  0
 17 19  1  0  0  0  0
 19 20  1  0  0  0  0
 19 21  1  0  0  0  0
 21 22  1  0  0  0  0
 23 24  2  0  0  0  0
 23 25  1  0  0  0  0
 25 26  1  0  0  0  0
 25 27  1  0  0  0  0
 27 28  1  0  0  0  0
 27 29  1  0  0  0  0
 27 30  1  0  0  0  0
M  CHG  1  15   1
M  END
$$$$

  -OEChem-04042216003D

 30 30  0     1  0  0  0  0  0999 V2000
   -3.1933   -3.9520    1.2814 H   0  0  0  0  0  0  0  0  0  0  0  0
   -3.1496   -3.1485    0.5400 C   0  0  0  0  0  0  0  0  0  0  0  0
   -4.0155   -2.4971    0.6784 H   0  0  0  0  0  0  0  0  0  0  0  0
   -3.1897   -3.5926   -0.4576 H   0  0  0  0  0  0  0  0  0  0  0  0
   -1.8668   -2.3569    0.7079 C   0  0  0  0  0  0  0  0  0  0  0  0
   -1.0873   -2.6400    1.5979 O   0  0  0  0  0  0  0  0  0  0  0  0
   -1.5865   -1.2946   -0.1351 N   0  0  0  0  0  0  0  0  0  0  0  0
   -2.2113   -1.2081   -0.9325 H   0  0  0  0  0  0  0  0  0  0  0  0
   -0.2455   -0.6723   -0.2255 C   0  0  1  0  0  0  0  0  0  0  0  0
    0.4546   -1.4920   -0.4315 H   0  0  0  0  0  0  0  0  0  0  0  0
   -0.1485    0.2952   -1.4365 C   0  0  0  0  0  0  0  0  0  0  0  0
    0.6421   -0.0807   -2.0956 H   0  0  0  0  0  0  0  0  0  0  0  0
   -1.0757    0.2712   -2.0168 H   0  0  0  0  0  0  0  0  0  0  0  0
    0.1737    1.7319   -1.0855 C   0  0  0  0  0  0  0  0  0  0  0  0
   -0.6730    2.6905   -0.5247 N   0  3  0  0  0  0  0  0  0  0  0  0
   -1.6394    2.4919   -0.2577 H   0  0  0  0  0  0  0  0  0  0  0  0
   -0.0127    3.7998   -0.2929 C   0  0  0  0  0  0  0  0  0  0  0  0
   -0.4061    4.7046    0.1738 H   0  0  0  0  0  0  0  0  0  0  0  0
    1.2946    3.6023   -0.7300 N   0  0  0  0  0  0  0  0  0  0  0  0
    2.0638    4.2733   -0.6431 H   0  0  0  0  0  0  0  0  0  0  0  0
    1.4120    2.3087   -1.2193 C   0  0  0  0  0  0  0  0  0  0  0  0
    2.3157    1.8211   -1.5868 H   0  0  0  0  0  0  0  0  0  0  0  0
    0.2737   -0.0721    1.1046 C   0  0  0  0  0  0  0  0  0  0  0  0
    1.4813    0.0782    1.2361 O   0  0  0  0  0  0  0  0  0  0  0  0
   -0.5755    0.6903    1.8913 N   0  0  0  0  0  0  0  0  0  0  0  0
   -1.5363    0.3565    1.8867 H   0  0  0  0  0  0  0  0  0  0  0  0
   -0.1003    1.3059    3.1286 C   0  0  0  0  0  0  0  0  0  0  0  0
    0.7069    2.0169    2.9228 H   0  0  0  0  0  0  0  0  0  0  0  0
   -0.9136    1.8444    3.6250 H   0  0  0  0  0  0  0  0  0  0  0  0
    0.2775    0.5400    3.8155 H   0  0  0  0  0  0  0  0  0  0  0  0
  1  2  1  0  0  0  0
  2  3  1  0  0  0  0
  2  4  1  0  0  0  0
  2  5  1  0  0  0  0
  5  6  2  0  0  0  0
  5  7  1  0  0  0  0
  7  8  1  0  0  0  0
  7  9  1  0  0  0  0
  9 10  1  0  0  0  0
  9 11  1  0  0  0  0
  9 23  1  0  0  0  0
 11 12  1  0  0  0  0
 11 13  1  0  0  0  0
 11 14  1  0  0  0  0
 14 15  1  0  0  0  0
 14 21  2  0  0  0  0
 15 16  1  0  0  0  0
 15 17  2  0  0  0  0
 17 18  1  0  0  0  0
 17 19  1  0  0  0  0
 19 20  1  0  0  0  0
 19 21  1  0  0  0  0
 21 22  1  0  0  0  0
 23 24  2  0  0  0  0
 23 25  1  0  0  0  0
 25 26  1  0  0  0  0
 25 27  1  0  0  0  0
 27 28  1  0  0  0  0
 27 29  1  0  0  0  0
 27 30  1  0  0  0  0
M  CHG  1  15   1
M  END
$$$$

  -OEChem-04042216003D

 30 30  0     1  0  0  0  0  0999 V2000
   -3.1863   -3.9902    1.2276 H   0  0  0  0  0  0  0  0  0  0  0  0
   -3.1521   -3.1595    0.5163 C   0  0  0  0  0  0  0  0  0  0  0  0
   -4.0210   -2.5189    0.6835 H   0  0  0  0  0  0  0  0  0  0  0  0
   -3.1964   -3.5672   -0.4965 H   0  0  0  0  0  0  0  0  0  0  0  0
   -1.8728   -2.3667    0.7046 C   0  0  0  0  0  0  0  0  0  0  0  0
   -1.1005   -2.6561    1.5989 O   0  0  0  0  0  0  0  0  0  0  0  0
   -1.5898   -1.2918   -0.1213 N   0  0  0  0  0  0  0  0  0  0  0  0
   -2.2171   -1.1885   -0.9152 H   0  0  0  0  0  0  0  0  0  0  0  0
   -0.2487   -0.6674   -0.2048 C   0  0  1  0  0  0  0  0  0  0  0  0
    0.4514   -1.4860   -0.4158 H   0  0  0  0  0  0  0  0  0  0  0  0
   -0.1443    0.3073   -1.4102 C   0  0  0  0  0  0  0  0  0  0  0  0
    0.6375   -0.0751   -2.0759 H   0  0  0  0  0  0  0  0  0  0  0  0
   -1.0775    0.2865   -1.9812 H   0  0  0  0  0  0  0  0  0  0  0  0
    0.1778    1.7512   -1.0811 C   0  0  0  0  0  0  0  0  0  0  0  0
   -0.5484    2.6415   -0.2872 N   0  3  0  0  0  0  0  0  0  0  0  0
   -1.3652    2.3533    0.2566 H   0  0  0  0  0  0  0  0  0  0  0  0
    0.0905    3.7812   -0.1772 C   0  0  0  0  0  0  0  0  0  0  0  0
   -0.2083    4.6371    0.4305 H   0  0  0  0  0  0  0  0  0  0  0  0
    1.2447    3.6834   -0.9487 N   0  0  0  0  0  0  0  0  0  0  0  0
    1.9702    4.4018   -1.0340 H   0  0  0  0  0  0  0  0  0  0  0  0
    1.3050    2.4120   -1.5033 C   0  0  0  0  0  0  0  0  0  0  0  0
    2.1053    2.0001   -2.1189 H   0  0  0  0  0  0  0  0  0  0  0  0
    0.2630   -0.0902    1.1374 C   0  0  0  0  0  0  0  0  0  0  0  0
    1.4662    0.0907    1.2629 O   0  0  0  0  0  0  0  0  0  0  0  0
   -0.5976    0.6549    1.9303 N   0  0  0  0  0  0  0  0  0  0  0  0
   -1.5423    0.2756    1.9481 H   0  0  0  0  0  0  0  0  0  0  0  0
   -0.1232    1.2715    3.1684 C   0  0  0  0  0  0  0  0  0  0  0  0
    0.6617    2.0065    2.9600 H   0  0  0  0  0  0  0  0  0  0  0  0
   -0.9447    1.7817    3.6808 H   0  0  0  0  0  0  0  0  0  0  0  0
    0.2845    0.5102    3.8432 H   0  0  0  0  0  0  0  0  0  0  0  0
  1  2  1  0  0  0  0
  2  3  1  0  0  0  0
  2  4  1  0  0  0  0
  2  5  1  0  0  0  0
  5  6  2  0  0  0  0
  5  7  1  0  0  0  0
  7  8  1  0  0  0  0
  7  9  1  0  0  0  0
  9 10  1  0  0  0  0
  9 11  1  0  0  0  0
  9 23  1  0  0  0  0
 11 12  1  0  0  0  0
 11 13  1  0  0  0  0
 11 14  1  0  0  0  0
 14 15  1  0  0  0  0
 14 21  2  0  0  0  0
 15 16  1  0  0  0  0
 15 17  2  0  0  0  0
 17 18  1  0  0  0  0
 17 19  1  0  0  0  0
 19 20  1  0  0  0  0
 19 21  1  0  0  0  0
 21 22  1  0  0  0  0
 23 24  2  0  0  0  0
 23 25  1  0  0  0  0
 25 26  1  0  0  0  0
 25 27  1  0  0  0  0
 27 28  1  0  0  0  0
 27 29  1  0  0  0  0
 27 30  1  0  0  0  0
M  CHG  1  15   1
M  END
$$$$

  -OEChem-04042216003D

 30 30  0     1  0  0  0  0  0999 V2000
   -3.1990   -3.9778    1.2258 H   0  0  0  0  0  0  0  0  0  0  0  0
   -3.1519   -3.1492    0.5127 C   0  0  0  0  0  0  0  0  0  0  0  0
   -4.0094   -2.4935    0.6809 H   0  0  0  0  0  0  0  0  0  0  0  0
   -3.2052   -3.5576   -0.4993 H   0  0  0  0  0  0  0  0  0  0  0  0
   -1.8592   -2.3776    0.6965 C   0  0  0  0  0  0  0  0  0  0  0  0
   -1.0790   -2.6922    1.5752 O   0  0  0  0  0  0  0  0  0  0  0  0
   -1.5744   -1.2897   -0.1115 N   0  0  0  0  0  0  0  0  0  0  0  0
   -2.2130   -1.1576   -0.8921 H   0  0  0  0  0  0  0  0  0  0  0  0
   -0.2350   -0.6602   -0.1868 C   0  0  1  0  0  0  0  0  0  0  0  0
    0.4700   -1.4729   -0.4050 H   0  0  0  0  0  0  0  0  0  0  0  0
   -0.1317    0.3274   -1.3843 C   0  0  0  0  0  0  0  0  0  0  0  0
    0.6412   -0.0560   -2.0597 H   0  0  0  0  0  0  0  0  0  0  0  0
   -1.0719    0.3059   -1.9438 H   0  0  0  0  0  0  0  0  0  0  0  0
    0.1859    1.7808   -1.0816 C   0  0  0  0  0  0  0  0  0  0  0  0
   -0.3511    2.6138   -0.0976 N   0  3  0  0  0  0  0  0  0  0  0  0
   -0.9411    2.2508    0.6579 H   0  0  0  0  0  0  0  0  0  0  0  0
    0.2379    3.7845   -0.1138 C   0  0  0  0  0  0  0  0  0  0  0  0
    0.0759    4.6007    0.5925 H   0  0  0  0  0  0  0  0  0  0  0  0
    1.1446    3.7747   -1.1687 N   0  0  0  0  0  0  0  0  0  0  0  0
    1.7804    4.5386   -1.4176 H   0  0  0  0  0  0  0  0  0  0  0  0
    1.1238    2.5190   -1.7617 C   0  0  0  0  0  0  0  0  0  0  0  0
    1.7479    2.1719   -2.5856 H   0  0  0  0  0  0  0  0  0  0  0  0
    0.2583   -0.1086    1.1719 C   0  0  0  0  0  0  0  0  0  0  0  0
    1.4552    0.0962    1.3109 O   0  0  0  0  0  0  0  0  0  0  0  0
   -0.6194    0.6149    1.9684 N   0  0  0  0  0  0  0  0  0  0  0  0
   -1.5615    0.2261    1.9586 H   0  0  0  0  0  0  0  0  0  0  0  0
   -0.1702    1.1776    3.2422 C   0  0  0  0  0  0  0  0  0  0  0  0
    0.6276    1.9117    3.0855 H   0  0  0  0  0  0  0  0  0  0  0  0
   -0.9995    1.6756    3.7543 H   0  0  0  0  0  0  0  0  0  0  0  0
    0.2122    0.3855    3.8963 H   0  0  0  0  0  0  0  0  0  0  0  0
  1  2  1  0  0  0  0
  2  3  1  0  0  0  0
  2  4  1  0  0  0  0
  2  5  1  0  0  0  0
  5  6  2  0  0  0  0
  5  7  1  0  0  0  0
  7  8  1  0  0  0  0
  7  9  1  0  0  0  0
  9 10  1  0  0  0  0
  9 11  1  0  0  0  0
  9 23  1  0  0  0  0
 11 12  1  0  0  0  0
 11 13  1  0  0  0  0
 11 14  1  0  0  0  0
 14 15  1  0  0  0  0
 14 21  2  0  0  0  0
 15 16  1  0  0  0  0
 15 17  2  0  0  0  0
 17 18  1  0  0  0  0
 17 19  1  0  0  0  0
 19 20  1  0  0  0  0
 19 21  1  0  0  0  0
 21 22  1  0  0  0  0
 23 24  2  0  0  0  0
 23 25  1  0  0  0  0
 25 26  1  0  0  0  0
 25 27  1  0  0  0  0
 27 28  1  0  0  0  0
 27 29  1  0  0  0  0
 27 30  1  0  0  0  0
M  CHG  1  15   1
M  END
$$$$

  -OEChem-04042216003D

 30 30  0     1  0  0  0  0  0999 V2000
   -3.2022   -3.9875    1.1890 H   0  0  0  0  0  0  0  0  0  0  0  0
   -3.1588   -3.1405    0.4979 C   0  0  0  0  0  0  0  0  0  0  0  0
   -4.0085   -2.4829    0.6962 H   0  0  0  0  0  0  0  0  0  0  0  0
   -3.2295   -3.5209   -0.5239 H   0  0  0  0  0  0  0  0  0  0  0  0
   -1.8572   -2.3847    0.6846 C   0  0  0  0  0  0  0  0  0  0  0  0
   -1.0687   -2.7282    1.5450 O   0  0  0  0  0  0  0  0  0  0  0  0
   -1.5693   -1.2819   -0.1016 N   0  0  0  0  0  0  0  0  0  0  0  0
   -2.2185   -1.1154   -0.8668 H   0  0  0  0  0  0  0  0  0  0  0  0
   -0.2297   -0.6518   -0.1643 C   0  0  1  0  0  0  0  0  0  0  0  0
    0.4745   -1.4627   -0.3911 H   0  0  0  0  0  0  0  0  0  0  0  0
   -0.1220    0.3458   -1.3558 C   0  0  0  0  0  0  0  0  0  0  0  0
    0.6509   -0.0379   -2.0314 H   0  0  0  0  0  0  0  0  0  0  0  0
   -1.0626    0.3199   -1.9146 H   0  0  0  0  0  0  0  0  0  0  0  0
    0.1915    1.8077   -1.0773 C   0  0  0  0  0  0  0  0  0  0  0  0
   -0.1111    2.5987    0.0344 N   0  3  0  0  0  0  0  0  0  0  0  0
   -0.4995    2.1988    0.8965 H   0  0  0  0  0  0  0  0  0  0  0  0
    0.4051    3.7961   -0.0909 C   0  0  0  0  0  0  0  0  0  0  0  0
    0.3853    4.5909    0.6569 H   0  0  0  0  0  0  0  0  0  0  0  0
    1.0222    3.8470   -1.3361 N   0  0  0  0  0  0  0  0  0  0  0  0
    1.5400    4.6461   -1.7145 H   0  0  0  0  0  0  0  0  0  0  0  0
    0.9034    2.6031   -1.9429 C   0  0  0  0  0  0  0  0  0  0  0  0
    1.3142    2.3028   -2.9074 H   0  0  0  0  0  0  0  0  0  0  0  0
    0.2585   -0.1279    1.2062 C   0  0  0  0  0  0  0  0  0  0  0  0
    1.4514    0.0925    1.3497 O   0  0  0  0  0  0  0  0  0  0  0  0
   -0.6198    0.5797    2.0161 N   0  0  0  0  0  0  0  0  0  0  0  0
   -1.5718    0.2169    1.9705 H   0  0  0  0  0  0  0  0  0  0  0  0
   -0.1854    1.0814    3.3210 C   0  0  0  0  0  0  0  0  0  0  0  0
    0.6277    1.8076    3.2117 H   0  0  0  0  0  0  0  0  0  0  0  0
   -1.0162    1.5716    3.8385 H   0  0  0  0  0  0  0  0  0  0  0  0
    0.1706    0.2554    3.9479 H   0  0  0  0  0  0  0  0  0  0  0  0
  1  2  1  0  0  0  0
  2  3  1  0  0  0  0
  2  4  1  0  0  0  0
  2  5  1  0  0  0  0
  5  6  2  0  0  0  0
  5  7  1  0  0  0  0
  7  8  1  0  0  0  0
  7  9  1  0  0  0  0
  9 10  1  0  0  0  0
  9 11  1  0  0  0  0
  9 23  1  0  0  0  0
 11 12  1  0  0  0  0
 11 13  1  0  0  0  0
 11 14  1  0  0  0  0
 14 15  1  0  0  0  0
 14 21  2  0  0  0  0
 15 16  1  0  0  0  0
 15 17  2  0  0  0  0
 17 18  1  0  0  0  0
 17 19  1  0  0  0  0
 19 20  1  0  0  0  0
 19 21  1  0  0  0  0
 21 22  1  0  0  0  0
 23 24  2  0  0  0  0
 23 25  1  0  0  0  0
 25 26  1  0  0  0  0
 25 27  1  0  0  0  0
 27 28  1  0  0  0  0
 27 29  1  0  0  0  0
 27 30  1  0  0  0  0
M  CHG  1  15   1
M  END
$$$$

  -OEChem-04042216003D

 30 30  0     1  0  0  0  0  0999 V2000
   -3.2367   -3.9624    1.1771 H   0  0  0  0  0  0  0  0  0  0  0  0
   -3.1780   -3.1133    0.4897 C   0  0  0  0  0  0  0  0  0  0  0  0
   -4.0143   -2.4401    0.6925 H   0  0  0  0  0  0  0  0  0  0  0  0
   -3.2577   -3.4874   -0.5338 H   0  0  0  0  0  0  0  0  0  0  0  0
   -1.8613   -2.3844    0.6760 C   0  0  0  0  0  0  0  0  0  0  0  0
   -1.0676   -2.7607    1.5182 O   0  0  0  0  0  0  0  0  0  0  0  0
   -1.5602   -1.2755   -0.0966 N   0  0  0  0  0  0  0  0  0  0  0  0
   -2.2196   -1.0728   -0.8440 H   0  0  0  0  0  0  0  0  0  0  0  0
   -0.2147   -0.6573   -0.1501 C   0  0  1  0  0  0  0  0  0  0  0  0
    0.4847   -1.4696   -0.3863 H   0  0  0  0  0  0  0  0  0  0  0  0
   -0.1060    0.3544   -1.3323 C   0  0  0  0  0  0  0  0  0  0  0  0
    0.6685   -0.0280   -2.0068 H   0  0  0  0  0  0  0  0  0  0  0  0
   -1.0447    0.3301   -1.8944 H   0  0  0  0  0  0  0  0  0  0  0  0
    0.2163    1.8188   -1.0654 C   0  0  0  0  0  0  0  0  0  0  0  0
    0.1878    2.5600    0.1196 N   0  3  0  0  0  0  0  0  0  0  0  0
    0.0361    2.1167    1.0343 H   0  0  0  0  0  0  0  0  0  0  0  0
    0.5993    3.7865   -0.0824 C   0  0  0  0  0  0  0  0  0  0  0  0
    0.7386    4.5554    0.6797 H   0  0  0  0  0  0  0  0  0  0  0  0
    0.8616    3.9087   -1.4423 N   0  0  0  0  0  0  0  0  0  0  0  0
    1.2186    4.7482   -1.9087 H   0  0  0  0  0  0  0  0  0  0  0  0
    0.6363    2.6800   -2.0514 C   0  0  0  0  0  0  0  0  0  0  0  0
    0.7817    2.4351   -3.1039 H   0  0  0  0  0  0  0  0  0  0  0  0
    0.2681   -0.1562    1.2300 C   0  0  0  0  0  0  0  0  0  0  0  0
    1.4581    0.0733    1.3819 O   0  0  0  0  0  0  0  0  0  0  0  0
   -0.6072    0.5483    2.0441 N   0  0  0  0  0  0  0  0  0  0  0  0
   -1.5727    0.2325    1.9568 H   0  0  0  0  0  0  0  0  0  0  0  0
   -0.1965    1.0060    3.3725 C   0  0  0  0  0  0  0  0  0  0  0  0
    0.6479    1.7007    3.3074 H   0  0  0  0  0  0  0  0  0  0  0  0
   -1.0248    1.5199    3.8708 H   0  0  0  0  0  0  0  0  0  0  0  0
    0.1039    0.1543    3.9938 H   0  0  0  0  0  0  0  0  0  0  0  0
  1  2  1  0  0  0  0
  2  3  1  0  0  0  0
  2  4  1  0  0  0  0
  2  5  1  0  0  0  0
  5  6  2  0  0  0  0
  5  7  1  0  0  0  0
  7  8  1  0  0  0  0
  7  9  1  0  0  0  0
  9 10  1  0  0  0  0
  9 11  1  0  0  0  0
  9 23  1  0  0  0  0
 11 12  1  0  0  0  0
 11 13  1  0  0  0  0
 11 14  1  0  0  0  0
 14 15  1  0  0  0  0
 14 21  2  0  0  0  0
 15 16  1  0  0  0  0
 15 17  2  0  0  0  0
 17 18  1  0  0  0  0
 17 19  1  0  0  0  0
 19 20  1  0  0  0  0
 19 21  1  0  0  0  0
 21 22  1  0  0  0  0
 23 24  2  0  0  0  0
 23 25  1  0  0  0  0
 25 26  1  0  0  0  0
 25 27  1  0  0  0  0
 27 28  1  0  0  0  0
 27 29  1  0  0  0  0
 27 30  1  0  0  0  0
M  CHG  1  15   1
M  END
$$$$

  -OEChem-04042216003D

 30 30  0     1  0  0  0  0  0999 V2000
   -3.2770   -3.9133    1.2027 H   0  0  0  0  0  0  0  0  0  0  0  0
   -3.2018   -3.0707    0.5087 C   0  0  0  0  0  0  0  0  0  0  0  0
   -4.0148   -2.3717    0.7187 H   0  0  0  0  0  0  0  0  0  0  0  0
   -3.3070   -3.4490   -0.5110 H   0  0  0  0  0  0  0  0  0  0  0  0
   -1.8612   -2.3806    0.6726 C   0  0  0  0  0  0  0  0  0  0  0  0
   -1.0619   -2.7859    1.4960 O   0  0  0  0  0  0  0  0  0  0  0  0
   -1.5415   -1.2776   -0.1016 N   0  0  0  0  0  0  0  0  0  0  0  0
   -2.2087   -1.0456   -0.8332 H   0  0  0  0  0  0  0  0  0  0  0  0
   -0.1878   -0.6767   -0.1527 C   0  0  1  0  0  0  0  0  0  0  0  0
    0.5061   -1.4927   -0.3916 H   0  0  0  0  0  0  0  0  0  0  0  0
   -0.0796    0.3461   -1.3279 C   0  0  0  0  0  0  0  0  0  0  0  0
    0.6996   -0.0347   -1.9978 H   0  0  0  0  0  0  0  0  0  0  0  0
   -1.0133    0.3238   -1.8981 H   0  0  0  0  0  0  0  0  0  0  0  0
    0.2587    1.8088   -1.0633 C   0  0  0  0  0  0  0  0  0  0  0  0
    0.5195    2.4845    0.1327 N   0  3  0  0  0  0  0  0  0  0  0  0
    0.6400    1.9804    1.0230 H   0  0  0  0  0  0  0  0  0  0  0  0
    0.7929    3.7457   -0.0855 C   0  0  0  0  0  0  0  0  0  0  0  0
    1.0911    4.4808    0.6642 H   0  0  0  0  0  0  0  0  0  0  0  0
    0.6650    3.9564   -1.4540 N   0  0  0  0  0  0  0  0  0  0  0  0
    0.8296    4.8435   -1.9395 H   0  0  0  0  0  0  0  0  0  0  0  0
    0.3408    2.7495   -2.0629 C   0  0  0  0  0  0  0  0  0  0  0  0
    0.1929    2.5741   -3.1287 H   0  0  0  0  0  0  0  0  0  0  0  0
    0.2828   -0.1827    1.2342 C   0  0  0  0  0  0  0  0  0  0  0  0
    1.4705    0.0560    1.3995 O   0  0  0  0  0  0  0  0  0  0  0  0
   -0.5933    0.5299    2.0372 N   0  0  0  0  0  0  0  0  0  0  0  0
   -1.5680    0.2617    1.9112 H   0  0  0  0  0  0  0  0  0  0  0  0
   -0.2102    0.9749    3.3777 C   0  0  0  0  0  0  0  0  0  0  0  0
    0.6421    1.6614    3.3386 H   0  0  0  0  0  0  0  0  0  0  0  0
   -1.0451    1.4950    3.8583 H   0  0  0  0  0  0  0  0  0  0  0  0
    0.0649    0.1157    4.0003 H   0  0  0  0  0  0  0  0  0  0  0  0
  1  2  1  0  0  0  0
  2  3  1  0  0  0  0
  2  4  1  0  0  0  0
  2  5  1  0  0  0  0
  5  6  2  0  0  0  0
  5  7  1  0  0  0  0
  7  8  1  0  0  0  0
  7  9  1  0  0  0  0
  9 10  1  0  0  0  0
  9 11  1  0  0  0  0
  9 23  1  0  0  0  0
 11 12  1  0  0  0  0
 11 13  1  0  0  0  0
 11 14  1  0  0  0  0
 14 15  1  0  0  0  0
 14 21  2  0  0  0  0
 15 16  1  0  0  0  0
 15 17  2  0  0  0  0
 17 18  1  0  0  0  0
 17 19  1  0  0  0  0
 19 20  1  0  0  0  0
 19 21  1  0  0  0  0
 21 22  1  0  0  0  0
 23 24  2  0  0  0  0
 23 25  1  0  0  0  0
 25 26  1  0  0  0  0
 25 27  1  0  0  0  0
 27 28  1  0  0  0  0
 27 29  1  0  0  0  0
 27 30  1  0  0  0  0
M  CHG  1  15   1
M  END
$$$$

  -OEChem-04042216003D

 30 30  0     1  0  0  0  0  0999 V2000
   -3.2968   -3.8853    1.2230 H   0  0  0  0  0  0  0  0  0  0  0  0
   -3.2171   -3.0433    0.5287 C   0  0  0  0  0  0  0  0  0  0  0  0
   -4.0141   -2.3298    0.7514 H   0  0  0  0  0  0  0  0  0  0  0  0
   -3.3449   -3.4181   -0.4896 H   0  0  0  0  0  0  0  0  0  0  0  0
   -1.8620   -2.3776    0.6734 C   0  0  0  0  0  0  0  0  0  0  0  0
   -1.0584   -2.7975    1.4851 O   0  0  0  0  0  0  0  0  0  0  0  0
   -1.5331   -1.2819   -0.1072 N   0  0  0  0  0  0  0  0  0  0  0  0
   -2.2074   -1.0335   -0.8266 H   0  0  0  0  0  0  0  0  0  0  0  0
   -0.1758   -0.6903   -0.1612 C   0  0  1  0  0  0  0  0  0  0  0  0
    0.5143   -1.5102   -0.3985 H   0  0  0  0  0  0  0  0  0  0  0  0
   -0.0698    0.3308   -1.3385 C   0  0  0  0  0  0  0  0  0  0  0  0
    0.7152   -0.0504   -2.0015 H   0  0  0  0  0  0  0  0  0  0  0  0
   -0.9988    0.3040   -1.9163 H   0  0  0  0  0  0  0  0  0  0  0  0
    0.2762    1.7921   -1.0743 C   0  0  0  0  0  0  0  0  0  0  0  0
    0.8115    2.4006    0.0654 N   0  3  0  0  0  0  0  0  0  0  0  0
    1.1337    1.8475    0.8750 H   0  0  0  0  0  0  0  0  0  0  0  0
    0.9700    3.6872   -0.1135 C   0  0  0  0  0  0  0  0  0  0  0  0
    1.4081    4.3888    0.5988 H   0  0  0  0  0  0  0  0  0  0  0  0
    0.4966    3.9782   -1.3886 N   0  0  0  0  0  0  0  0  0  0  0  0
    0.4955    4.9040   -1.8277 H   0  0  0  0  0  0  0  0  0  0  0  0
    0.0682    2.7986   -1.9876 C   0  0  0  0  0  0  0  0  0  0  0  0
   -0.3428    2.6864   -2.9910 H   0  0  0  0  0  0  0  0  0  0  0  0
    0.2925   -0.1917    1.2255 C   0  0  0  0  0  0  0  0  0  0  0  0
    1.4859    0.0191    1.4024 O   0  0  0  0  0  0  0  0  0  0  0  0
   -0.5801    0.5305    2.0220 N   0  0  0  0  0  0  0  0  0  0  0  0
   -1.5597    0.2901    1.8846 H   0  0  0  0  0  0  0  0  0  0  0  0
   -0.1994    0.9968    3.3549 C   0  0  0  0  0  0  0  0  0  0  0  0
    0.6024    1.7399    3.2969 H   0  0  0  0  0  0  0  0  0  0  0  0
   -1.0572    1.4577    3.8551 H   0  0  0  0  0  0  0  0  0  0  0  0
    0.1463    0.1577    3.9695 H   0  0  0  0  0  0  0  0  0  0  0  0
  1  2  1  0  0  0  0
  2  3  1  0  0  0  0
  2  4  1  0  0  0  0
  2  5  1  0  0  0  0
  5  6  2  0  0  0  0
  5  7  1  0  0  0  0
  7  8  1  0  0  0  0
  7  9  1  0  0  0  0
  9 10  1  0  0  0  0
  9 11  1  0  0  0  0
  9 23  1  0  0  0  0
 11 12  1  0  0  0  0
 11 13  1  0  0  0  0
 11 14  1  0  0  0  0
 14 15  1  0  0  0  0
 14 21  2  0  0  0  0
 15 16  1  0  0  0  0
 15 17  2  0  0  0  0
 17 18  1  0  0  0  0
 17 19  1  0  0  0  0
 19 20  1  0  0  0  0
 19 21  1  0  0  0  0
 21 22  1  0  0  0  0
 23 24  2  0  0  0  0
 23 25  1  0  0  0  0
 25 26  1  0  0  0  0
 25 27  1  0  0  0  0
 27 28  1  0  0  0  0
 27 29  1  0  0  0  0
 27 30  1  0  0  0  0
M  CHG  1  15   1
M  END
$$$$

  -OEChem-04042216003D

 30 30  0     1  0  0  0  0  0999 V2000
   -3.2857   -3.8828    1.2485 H   0  0  0  0  0  0  0  0  0  0  0  0
   -3.2105   -3.0477    0.5457 C   0  0  0  0  0  0  0  0  0  0  0  0
   -4.0094   -2.3348    0.7626 H   0  0  0  0  0  0  0  0  0  0  0  0
   -3.3383   -3.4334   -0.4685 H   0  0  0  0  0  0  0  0  0  0  0  0
   -1.8579   -2.3755    0.6807 C   0  0  0  0  0  0  0  0  0  0  0  0
   -1.0485   -2.7879    1.4904 O   0  0  0  0  0  0  0  0  0  0  0  0
   -1.5352   -1.2877   -0.1132 N   0  0  0  0  0  0  0  0  0  0  0  0
   -2.2125   -1.0477   -0.8324 H   0  0  0  0  0  0  0  0  0  0  0  0
   -0.1795   -0.6949   -0.1745 C   0  0  1  0  0  0  0  0  0  0  0  0
    0.5106   -1.5158   -0.4082 H   0  0  0  0  0  0  0  0  0  0  0  0
   -0.0808    0.3170   -1.3592 C   0  0  0  0  0  0  0  0  0  0  0  0
    0.7061   -0.0618   -2.0211 H   0  0  0  0  0  0  0  0  0  0  0  0
   -1.0096    0.2850   -1.9371 H   0  0  0  0  0  0  0  0  0  0  0  0
    0.2621    1.7763   -1.0861 C   0  0  0  0  0  0  0  0  0  0  0  0
    1.0454    2.3192   -0.0624 N   0  3  0  0  0  0  0  0  0  0  0  0
    1.5022    1.7254    0.6489 H   0  0  0  0  0  0  0  0  0  0  0  0
    1.1176    3.6218   -0.1605 C   0  0  0  0  0  0  0  0  0  0  0  0
    1.6715    4.2887    0.5028 H   0  0  0  0  0  0  0  0  0  0  0  0
    0.3611    3.9846   -1.2705 N   0  0  0  0  0  0  0  0  0  0  0  0
    0.2314    4.9403   -1.6167 H   0  0  0  0  0  0  0  0  0  0  0  0
   -0.1726    2.8359   -1.8462 C   0  0  0  0  0  0  0  0  0  0  0  0
   -0.8037    2.7808   -2.7333 H   0  0  0  0  0  0  0  0  0  0  0  0
    0.2984   -0.1772    1.2022 C   0  0  0  0  0  0  0  0  0  0  0  0
    1.4997   -0.0095    1.3813 O   0  0  0  0  0  0  0  0  0  0  0  0
   -0.5654    0.5563    1.9965 N   0  0  0  0  0  0  0  0  0  0  0  0
   -1.5491    0.3330    1.8622 H   0  0  0  0  0  0  0  0  0  0  0  0
   -0.1717    1.0510    3.3146 C   0  0  0  0  0  0  0  0  0  0  0  0
    0.6616    1.7568    3.2354 H   0  0  0  0  0  0  0  0  0  0  0  0
   -1.0109    1.5657    3.7932 H   0  0  0  0  0  0  0  0  0  0  0  0
    0.1349    0.2193    3.9591 H   0  0  0  0  0  0  0  0  0  0  0  0
  1  2  1  0  0  0  0
  2  3  1  0  0  0  0
  2  4  1  0  0  0  0
  2  5  1  0  0  0  0
  5  6  2  0  0  0  0
  5  7  1  0  0  0  0
  7  8  1  0  0  0  0
  7  9  1  0  0  0  0
  9 10  1  0  0  0  0
  9 11  1  0  0  0  0
  9 23  1  0  0  0  0
 11 12  1  0  0  0  0
 11 13  1  0  0  0  0
 11 14  1  0  0  0  0
 14 15  1  0  0  0  0
 14 21  2  0  0  0  0
 15 16  1  0  0  0  0
 15 17  2  0  0  0  0
 17 18  1  0  0  0  0
 17 19  1  0  0  0  0
 19 20  1  0  0  0  0
 19 21  1  0  0  0  0
 21 22  1  0  0  0  0
 23 24  2  0  0  0  0
 23 25  1  0  0  0  0
 25 26  1  0  0  0  0
 25 27  1  0  0  0  0
 27 28  1  0  0  0  0
 27 29  1  0  0  0  0
 27 30  1  0  0  0  0
M  CHG  1  15   1
M  END
$$$$

  -OEChem-04042216003D

 30 30  0     1  0  0  0  0  0999 V2000
   -3.2670   -3.8920    1.2734 H   0  0  0  0  0  0  0  0  0  0  0  0
   -3.2012   -3.0640    0.5611 C   0  0  0  0  0  0  0  0  0  0  0  0
   -4.0024   -2.3531    0.7762 H   0  0  0  0  0  0  0  0  0  0  0  0
   -3.3338   -3.4613   -0.4481 H   0  0  0  0  0  0  0  0  0  0  0  0
   -1.8516   -2.3826    0.6802 C   0  0  0  0  0  0  0  0  0  0  0  0
   -1.0358   -2.7799    1.4911 O   0  0  0  0  0  0  0  0  0  0  0  0
   -1.5405   -1.2994   -0.1241 N   0  0  0  0  0  0  0  0  0  0  0  0
   -2.2183   -1.0764   -0.8482 H   0  0  0  0  0  0  0  0  0  0  0  0
   -0.1907   -0.6945   -0.1905 C   0  0  1  0  0  0  0  0  0  0  0  0
    0.5027   -1.5141   -0.4183 H   0  0  0  0  0  0  0  0  0  0  0  0
   -0.0968    0.3063   -1.3825 C   0  0  0  0  0  0  0  0  0  0  0  0
    0.6925   -0.0651   -2.0457 H   0  0  0  0  0  0  0  0  0  0  0  0
   -1.0263    0.2705   -1.9588 H   0  0  0  0  0  0  0  0  0  0  0  0
    0.2336    1.7612   -1.0851 C   0  0  0  0  0  0  0  0  0  0  0  0
    1.2235    2.2509   -0.2274 N   0  3  0  0  0  0  0  0  0  0  0  0
    1.7743    1.6251    0.3831 H   0  0  0  0  0  0  0  0  0  0  0  0
    1.2400    3.5594   -0.2282 C   0  0  0  0  0  0  0  0  0  0  0  0
    1.8946    4.1957    0.3706 H   0  0  0  0  0  0  0  0  0  0  0  0
    0.2591    3.9759   -1.1242 N   0  0  0  0  0  0  0  0  0  0  0  0
    0.0359    4.9495   -1.3529 H   0  0  0  0  0  0  0  0  0  0  0  0
   -0.3710    2.8550   -1.6561 C   0  0  0  0  0  0  0  0  0  0  0  0
   -1.1775    2.8420   -2.3893 H   0  0  0  0  0  0  0  0  0  0  0  0
    0.3013   -0.1529    1.1722 C   0  0  0  0  0  0  0  0  0  0  0  0
    1.5079   -0.0045    1.3406 O   0  0  0  0  0  0  0  0  0  0  0  0
   -0.5549    0.5874    1.9676 N   0  0  0  0  0  0  0  0  0  0  0  0
   -1.5404    0.3645    1.8492 H   0  0  0  0  0  0  0  0  0  0  0  0
   -0.1417    1.1209    3.2635 C   0  0  0  0  0  0  0  0  0  0  0  0
    0.6621    1.8545    3.1443 H   0  0  0  0  0  0  0  0  0  0  0  0
   -0.9847    1.6142    3.7576 H   0  0  0  0  0  0  0  0  0  0  0  0
    0.2146    0.3141    3.9141 H   0  0  0  0  0  0  0  0  0  0  0  0
  1  2  1  0  0  0  0
  2  3  1  0  0  0  0
  2  4  1  0  0  0  0
  2  5  1  0  0  0  0
  5  6  2  0  0  0  0
  5  7  1  0  0  0  0
  7  8  1  0  0  0  0
  7  9  1  0  0  0  0
  9 10  1  0  0  0  0
  9 11  1  0  0  0  0
  9 23  1  0  0  0  0
 11 12  1  0  0  0  0
 11 13  1  0  0  0  0
 11 14  1  0  0  0  0
 14 15  1  0  0  0  0
 14 21  2  0  0  0  0
 15 16  1  0  0  0  0
 15 17  2  0  0  0  0
 17 18  1  0  0  0  0
 17 19  1  0  0  0  0
 19 20  1  0  0  0  0
 19 21  1  0  0  0  0
 21 22  1  0  0  0  0
 23 24  2  0  0  0  0
 23 25  1  0  0  0  0
 25 26  1  0  0  0  0
 25 27  1  0  0  0  0
 27 28  1  0  0  0  0
 27 29  1  0  0  0  0
 27 30  1  0  0  0  0
M  CHG  1  15   1
M  END
$$$$

  -OEChem-04042216003D

 30 30  0     1  0  0  0  0  0999 V2000
   -3.2270   -3.9270    1.2781 H   0  0  0  0  0  0  0  0  0  0  0  0
   -3.1801   -3.1015    0.5617 C   0  0  0  0  0  0  0  0  0  0  0  0
   -4.0028   -2.4127    0.7671 H   0  0  0  0  0  0  0  0  0  0  0  0
   -3.2946   -3.5079   -0.4461 H   0  0  0  0  0  0  0  0  0  0  0  0
   -1.8509   -2.3818    0.6863 C   0  0  0  0  0  0  0  0  0  0  0  0
   -1.0330   -2.7471    1.5104 O   0  0  0  0  0  0  0  0  0  0  0  0
   -1.5593   -1.3017   -0.1291 N   0  0  0  0  0  0  0  0  0  0  0  0
   -2.2352   -1.1064   -0.8630 H   0  0  0  0  0  0  0  0  0  0  0  0
   -0.2173   -0.6823   -0.2044 C   0  0  1  0  0  0  0  0  0  0  0  0
    0.4780   -1.5021   -0.4260 H   0  0  0  0  0  0  0  0  0  0  0  0
   -0.1209    0.3020   -1.4064 C   0  0  0  0  0  0  0  0  0  0  0  0
    0.6693   -0.0630   -2.0721 H   0  0  0  0  0  0  0  0  0  0  0  0
   -1.0515    0.2677   -1.9809 H   0  0  0  0  0  0  0  0  0  0  0  0
    0.1976    1.7489   -1.0766 C   0  0  0  0  0  0  0  0  0  0  0  0
    1.3481    2.2056   -0.4278 N   0  3  0  0  0  0  0  0  0  0  0  0
    1.9775    1.5596    0.0741 H   0  0  0  0  0  0  0  0  0  0  0  0
    1.3308    3.5101   -0.3221 C   0  0  0  0  0  0  0  0  0  0  0  0
    2.0694    4.1227    0.1985 H   0  0  0  0  0  0  0  0  0  0  0  0
    0.1802    3.9565   -0.9676 N   0  0  0  0  0  0  0  0  0  0  0  0
   -0.1064    4.9354   -1.0637 H   0  0  0  0  0  0  0  0  0  0  0  0
   -0.5310    2.8561   -1.4356 C   0  0  0  0  0  0  0  0  0  0  0  0
   -1.4718    2.8659   -1.9857 H   0  0  0  0  0  0  0  0  0  0  0  0
    0.2975   -0.1158    1.1405 C   0  0  0  0  0  0  0  0  0  0  0  0
    1.5091    0.0267    1.2818 O   0  0  0  0  0  0  0  0  0  0  0  0
   -0.5442    0.6312    1.9450 N   0  0  0  0  0  0  0  0  0  0  0  0
   -1.5314    0.4041    1.8521 H   0  0  0  0  0  0  0  0  0  0  0  0
   -0.1015    1.1852    3.2224 C   0  0  0  0  0  0  0  0  0  0  0  0
    0.7203    1.8935    3.0756 H   0  0  0  0  0  0  0  0  0  0  0  0
   -0.9250    1.7135    3.7131 H   0  0  0  0  0  0  0  0  0  0  0  0
    0.2411    0.3852    3.8885 H   0  0  0  0  0  0  0  0  0  0  0  0
  1  2  1  0  0  0  0
  2  3  1  0  0  0  0
  2  4  1  0  0  0  0
  2  5  1  0  0  0  0
  5  6  2  0  0  0  0
  5  7  1  0  0  0  0
  7  8  1  0  0  0  0
  7  9  1  0  0  0  0
  9 10  1  0  0  0  0
  9 11  1  0  0  0  0
  9 23  1  0  0  0  0
 11 12  1  0  0  0  0
 11 13  1  0  0  0  0
 11 14  1  0  0  0  0
 14 15  1  0  0  0  0
 14 21  2  0  0  0  0
 15 16  1  0  0  0  0
 15 17  2  0  0  0  0
 17 18  1  0  0  0  0
 17 19  1  0  0  0  0
 19 20  1  0  0  0  0
 19 21  1  0  0  0  0
 21 22  1  0  0  0  0
 23 24  2  0  0  0  0
 23 25  1  0  0  0  0
 25 26  1  0  0  0  0
 25 27  1  0  0  0  0
 27 28  1  0  0  0  0
 27 29  1  0  0  0  0
 27 30  1  0  0  0  0
M  CHG  1  15   1
M  END
$$$$

  -OEChem-04042216003D

 30 30  0     1  0  0  0  0  0999 V2000
   -3.2051   -3.9466    1.2826 H   0  0  0  0  0  0  0  0  0  0  0  0
   -3.1690   -3.1247    0.5612 C   0  0  0  0  0  0  0  0  0  0  0  0
   -4.0029   -2.4474    0.7603 H   0  0  0  0  0  0  0  0  0  0  0  0
   -3.2744   -3.5387   -0.4445 H   0  0  0  0  0  0  0  0  0  0  0  0
   -1.8514   -2.3838    0.6848 C   0  0  0  0  0  0  0  0  0  0  0  0
   -1.0314   -2.7286    1.5155 O   0  0  0  0  0  0  0  0  0  0  0  0
   -1.5742   -1.3049   -0.1372 N   0  0  0  0  0  0  0  0  0  0  0  0
   -2.2472   -1.1307   -0.8788 H   0  0  0  0  0  0  0  0  0  0  0  0
   -0.2383   -0.6746   -0.2184 C   0  0  1  0  0  0  0  0  0  0  0  0
    0.4582   -1.4948   -0.4345 H   0  0  0  0  0  0  0  0  0  0  0  0
   -0.1332    0.2979   -1.4252 C   0  0  0  0  0  0  0  0  0  0  0  0
    0.6562   -0.0627   -2.0940 H   0  0  0  0  0  0  0  0  0  0  0  0
   -1.0653    0.2704   -1.9980 H   0  0  0  0  0  0  0  0  0  0  0  0
    0.1774    1.7341   -1.0588 C   0  0  0  0  0  0  0  0  0  0  0  0
    1.4309    2.1976   -0.6534 N   0  3  0  0  0  0  0  0  0  0  0  0
    2.1586    1.5533   -0.3149 H   0  0  0  0  0  0  0  0  0  0  0  0
    1.3888    3.4883   -0.4373 C   0  0  0  0  0  0  0  0  0  0  0  0
    2.1968    4.0974   -0.0280 H   0  0  0  0  0  0  0  0  0  0  0  0
    0.1121    3.9229   -0.7859 N   0  0  0  0  0  0  0  0  0  0  0  0
   -0.2220    4.8900   -0.7345 H   0  0  0  0  0  0  0  0  0  0  0  0
   -0.6487    2.8244   -1.1722 C   0  0  0  0  0  0  0  0  0  0  0  0
   -1.6866    2.8242   -1.5043 H   0  0  0  0  0  0  0  0  0  0  0  0
    0.2945   -0.0908    1.1125 C   0  0  0  0  0  0  0  0  0  0  0  0
    1.5079    0.0598    1.2260 O   0  0  0  0  0  0  0  0  0  0  0  0
   -0.5388    0.6600    1.9225 N   0  0  0  0  0  0  0  0  0  0  0  0
   -1.5238    0.4150    1.8590 H   0  0  0  0  0  0  0  0  0  0  0  0
   -0.0721    1.2433    3.1776 C   0  0  0  0  0  0  0  0  0  0  0  0
    0.7393    1.9559    2.9969 H   0  0  0  0  0  0  0  0  0  0  0  0
   -0.8885    1.7735    3.6777 H   0  0  0  0  0  0  0  0  0  0  0  0
    0.2942    0.4600    3.8508 H   0  0  0  0  0  0  0  0  0  0  0  0
  1  2  1  0  0  0  0
  2  3  1  0  0  0  0
  2  4  1  0  0  0  0
  2  5  1  0  0  0  0
  5  6  2  0  0  0  0
  5  7  1  0  0  0  0
  7  8  1  0  0  0  0
  7  9  1  0  0  0  0
  9 10  1  0  0  0  0
  9 11  1  0  0  0  0
  9 23  1  0  0  0  0
 11 12  1  0  0  0  0
 11 13  1  0  0  0  0
 11 14  1  0  0  0  0
 14 15  1  0  0  0  0
 14 21  2  0  0  0  0
 15 16  1  0  0  0  0
 15 17  2  0  0  0  0
 17 18  1  0  0  0  0
 17 19  1  0  0  0  0
 19 20  1  0  0  0  0
 19 21  1  0  0  0  0
 21 22  1  0  0  0  0
 23 24  2  0  0  0  0
 23 25  1  0  0  0  0
 25 26  1  0  0  0  0
 25 27  1  0  0  0  0
 27 28  1  0  0  0  0
 27 29  1  0  0  0  0
 27 30  1  0  0  0  0
M  CHG  1  15   1
M  END
$$$$

  -OEChem-04042216003D

 30 30  0     1  0  0  0  0  0999 V2000
   -3.2067   -3.9540    1.2748 H   0  0  0  0  0  0  0  0  0  0  0  0
   -3.1713   -3.1327    0.5526 C   0  0  0  0  0  0  0  0  0  0  0  0
   -4.0114   -2.4610    0.7445 H   0  0  0  0  0  0  0  0  0  0  0  0
   -3.2665   -3.5489   -0.4532 H   0  0  0  0  0  0  0  0  0  0  0  0
   -1.8603   -2.3819    0.6842 C   0  0  0  0  0  0  0  0  0  0  0  0
   -1.0450   -2.7169    1.5235 O   0  0  0  0  0  0  0  0  0  0  0  0
   -1.5848   -1.3054   -0.1411 N   0  0  0  0  0  0  0  0  0  0  0  0
   -2.2488   -1.1486   -0.8948 H   0  0  0  0  0  0  0  0  0  0  0  0
   -0.2491   -0.6746   -0.2232 C   0  0  1  0  0  0  0  0  0  0  0  0
    0.4453   -1.4978   -0.4336 H   0  0  0  0  0  0  0  0  0  0  0  0
   -0.1323    0.2925   -1.4314 C   0  0  0  0  0  0  0  0  0  0  0  0
    0.6534   -0.0709   -2.1027 H   0  0  0  0  0  0  0  0  0  0  0  0
   -1.0657    0.2761   -2.0024 H   0  0  0  0  0  0  0  0  0  0  0  0
    0.1802    1.7214   -1.0467 C   0  0  0  0  0  0  0  0  0  0  0  0
    1.4679    2.2424   -0.9121 N   0  3  0  0  0  0  0  0  0  0  0  0
    2.2944    1.6392   -0.8377 H   0  0  0  0  0  0  0  0  0  0  0  0
    1.4103    3.5111   -0.5919 C   0  0  0  0  0  0  0  0  0  0  0  0
    2.2591    4.1506   -0.3422 H   0  0  0  0  0  0  0  0  0  0  0  0
    0.0661    3.8768   -0.5918 N   0  0  0  0  0  0  0  0  0  0  0  0
   -0.2967    4.8111   -0.3802 H   0  0  0  0  0  0  0  0  0  0  0  0
   -0.7059    2.7557   -0.8764 C   0  0  0  0  0  0  0  0  0  0  0  0
   -1.7917    2.7016   -0.9472 H   0  0  0  0  0  0  0  0  0  0  0  0
    0.2915   -0.0837    1.1019 C   0  0  0  0  0  0  0  0  0  0  0  0
    1.5042    0.0741    1.2016 O   0  0  0  0  0  0  0  0  0  0  0  0
   -0.5383    0.6720    1.9118 N   0  0  0  0  0  0  0  0  0  0  0  0
   -1.5193    0.4068    1.8731 H   0  0  0  0  0  0  0  0  0  0  0  0
   -0.0562    1.2819    3.1482 C   0  0  0  0  0  0  0  0  0  0  0  0
    0.7409    2.0032    2.9395 H   0  0  0  0  0  0  0  0  0  0  0  0
   -0.8708    1.8077    3.6560 H   0  0  0  0  0  0  0  0  0  0  0  0
    0.3355    0.5153    3.8263 H   0  0  0  0  0  0  0  0  0  0  0  0
  1  2  1  0  0  0  0
  2  3  1  0  0  0  0
  2  4  1  0  0  0  0
  2  5  1  0  0  0  0
  5  6  2  0  0  0  0
  5  7  1  0  0  0  0
  7  8  1  0  0  0  0
  7  9  1  0  0  0  0
  9 10  1  0  0  0  0
  9 11  1  0  0  0  0
  9 23  1  0  0  0  0
 11 12  1  0  0  0  0
 11 13  1  0  0  0  0
 11 14  1  0  0  0  0
 14 15  1  0  0  0  0
 14 21  2  0  0  0  0
 15 16  1  0  0  0  0
 15 17  2  0  0  0  0
 17 18  1  0  0  0  0
 17 19  1  0  0  0  0
 19 20  1  0  0  0  0
 19 21  1  0  0  0  0
 21 22  1  0  0  0  0
 23 24  2  0  0  0  0
 23 25  1  0  0  0  0
 25 26  1  0  0  0  0
 25 27  1  0  0  0  0
 27 28  1  0  0  0  0
 27 29  1  0  0  0  0
 27 30  1  0  0  0  0
M  CHG  1  15   1
M  END
$$$$

  -OEChem-04042216003D

 30 30  0     1  0  0  0  0  0999 V2000
   -3.2146   -3.9524    1.2679 H   0  0  0  0  0  0  0  0  0  0  0  0
   -3.1753   -3.1336    0.5433 C   0  0  0  0  0  0  0  0  0  0  0  0
   -4.0188   -2.4638    0.7257 H   0  0  0  0  0  0  0  0  0  0  0  0
   -3.2603   -3.5538   -0.4617 H   0  0  0  0  0  0  0  0  0  0  0  0
   -1.8678   -2.3785    0.6846 C   0  0  0  0  0  0  0  0  0  0  0  0
   -1.0600   -2.7093    1.5324 O   0  0  0  0  0  0  0  0  0  0  0  0
   -1.5898   -1.2994   -0.1369 N   0  0  0  0  0  0  0  0  0  0  0  0
   -2.2494   -1.1450   -0.8949 H   0  0  0  0  0  0  0  0  0  0  0  0
   -0.2523   -0.6713   -0.2169 C   0  0  1  0  0  0  0  0  0  0  0  0
    0.4402   -1.4970   -0.4252 H   0  0  0  0  0  0  0  0  0  0  0  0
   -0.1255    0.2927   -1.4262 C   0  0  0  0  0  0  0  0  0  0  0  0
    0.6598   -0.0801   -2.0926 H   0  0  0  0  0  0  0  0  0  0  0  0
   -1.0564    0.2797   -2.0016 H   0  0  0  0  0  0  0  0  0  0  0  0
    0.1910    1.7239   -1.0517 C   0  0  0  0  0  0  0  0  0  0  0  0
    1.4386    2.3317   -1.1990 N   0  3  0  0  0  0  0  0  0  0  0  0
    2.2873    1.8019   -1.4184 H   0  0  0  0  0  0  0  0  0  0  0  0
    1.3869    3.5772   -0.7955 C   0  0  0  0  0  0  0  0  0  0  0  0
    2.2286    4.2692   -0.7301 H   0  0  0  0  0  0  0  0  0  0  0  0
    0.0670    3.8408   -0.4377 N   0  0  0  0  0  0  0  0  0  0  0  0
   -0.2849    4.7309   -0.0727 H   0  0  0  0  0  0  0  0  0  0  0  0
   -0.6836    2.6825   -0.6028 C   0  0  0  0  0  0  0  0  0  0  0  0
   -1.7459    2.5497   -0.4019 H   0  0  0  0  0  0  0  0  0  0  0  0
    0.2868   -0.0878    1.1120 C   0  0  0  0  0  0  0  0  0  0  0  0
    1.4981    0.0683    1.2141 O   0  0  0  0  0  0  0  0  0  0  0  0
   -0.5440    0.6652    1.9248 N   0  0  0  0  0  0  0  0  0  0  0  0
   -1.5195    0.3792    1.9018 H   0  0  0  0  0  0  0  0  0  0  0  0
   -0.0557    1.2724    3.1603 C   0  0  0  0  0  0  0  0  0  0  0  0
    0.7510    1.9828    2.9504 H   0  0  0  0  0  0  0  0  0  0  0  0
   -0.8638    1.8105    3.6658 H   0  0  0  0  0  0  0  0  0  0  0  0
    0.3257    0.5025    3.8407 H   0  0  0  0  0  0  0  0  0  0  0  0
  1  2  1  0  0  0  0
  2  3  1  0  0  0  0
  2  4  1  0  0  0  0
  2  5  1  0  0  0  0
  5  6  2  0  0  0  0
  5  7  1  0  0  0  0
  7  8  1  0  0  0  0
  7  9  1  0  0  0  0
  9 10  1  0  0  0  0
  9 11  1  0  0  0  0
  9 23  1  0  0  0  0
 11 12  1  0  0  0  0
 11 13  1  0  0  0  0
 11 14  1  0  0  0  0
 14 15  1  0  0  0  0
 14 21  2  0  0  0  0
 15 16  1  0  0  0  0
 15 17  2  0  0  0  0
 17 18  1  0  0  0  0
 17 19  1  0  0  0  0
 19 20  1  0  0  0  0
 19 21  1  0  0  0  0
 21 22  1  0  0  0  0
 23 24  2  0  0  0  0
 23 25  1  0  0  0  0
 25 26  1  0  0  0  0
 25 27  1  0  0  0  0
 27 28  1  0  0  0  0
 27 29  1  0  0  0  0
 27 30  1  0  0  0  0
M  CHG  1  15   1
M  END
$$$$

  -OEChem-04042216003D

 30 30  0     1  0  0  0  0  0999 V2000
   -3.2251   -3.9726    1.2175 H   0  0  0  0  0  0  0  0  0  0  0  0
   -3.1863   -3.1320    0.5183 C   0  0  0  0  0  0  0  0  0  0  0  0
   -4.0275   -2.4661    0.7248 H   0  0  0  0  0  0  0  0  0  0  0  0
   -3.2767   -3.5208   -0.4987 H   0  0  0  0  0  0  0  0  0  0  0  0
   -1.8760   -2.3850    0.6770 C   0  0  0  0  0  0  0  0  0  0  0  0
   -1.0727   -2.7326    1.5224 O   0  0  0  0  0  0  0  0  0  0  0  0
   -1.5925   -1.2914   -0.1229 N   0  0  0  0  0  0  0  0  0  0  0  0
   -2.2538   -1.1154   -0.8750 H   0  0  0  0  0  0  0  0  0  0  0  0
   -0.2546   -0.6617   -0.1889 C   0  0  1  0  0  0  0  0  0  0  0  0
    0.4350   -1.4900   -0.3966 H   0  0  0  0  0  0  0  0  0  0  0  0
   -0.1099    0.2982   -1.4003 C   0  0  0  0  0  0  0  0  0  0  0  0
    0.6915   -0.0868   -2.0399 H   0  0  0  0  0  0  0  0  0  0  0  0
   -1.0261    0.2731   -1.9981 H   0  0  0  0  0  0  0  0  0  0  0  0
    0.2021    1.7417   -1.0640 C   0  0  0  0  0  0  0  0  0  0  0  0
    1.3410    2.4330   -1.4824 N   0  3  0  0  0  0  0  0  0  0  0  0
    2.1252    1.9752   -1.9549 H   0  0  0  0  0  0  0  0  0  0  0  0
    1.3164    3.6660   -1.0390 C   0  0  0  0  0  0  0  0  0  0  0  0
    2.1006    4.4150   -1.1651 H   0  0  0  0  0  0  0  0  0  0  0  0
    0.1142    3.8346   -0.3577 N   0  0  0  0  0  0  0  0  0  0  0  0
   -0.1872    4.6905    0.1174 H   0  0  0  0  0  0  0  0  0  0  0  0
   -0.5865    2.6351   -0.3810 C   0  0  0  0  0  0  0  0  0  0  0  0
   -1.5557    2.4287    0.0714 H   0  0  0  0  0  0  0  0  0  0  0  0
    0.2798   -0.1031    1.1519 C   0  0  0  0  0  0  0  0  0  0  0  0
    1.4894    0.0547    1.2583 O   0  0  0  0  0  0  0  0  0  0  0  0
   -0.5529    0.6338    1.9782 N   0  0  0  0  0  0  0  0  0  0  0  0
   -1.5213    0.3233    1.9685 H   0  0  0  0  0  0  0  0  0  0  0  0
   -0.0587    1.2260    3.2194 C   0  0  0  0  0  0  0  0  0  0  0  0
    0.7320    1.9549    3.0128 H   0  0  0  0  0  0  0  0  0  0  0  0
   -0.8689    1.7392    3.7466 H   0  0  0  0  0  0  0  0  0  0  0  0
    0.3461    0.4503    3.8791 H   0  0  0  0  0  0  0  0  0  0  0  0
  1  2  1  0  0  0  0
  2  3  1  0  0  0  0
  2  4  1  0  0  0  0
  2  5  1  0  0  0  0
  5  6  2  0  0  0  0
  5  7  1  0  0  0  0
  7  8  1  0  0  0  0
  7  9  1  0  0  0  0
  9 10  1  0  0  0  0
  9 11  1  0  0  0  0
  9 23  1  0  0  0  0
 11 12  1  0  0  0  0
 11 13  1  0  0  0  0
 11 14  1  0  0  0  0
 14 15  1  0  0  0  0
 14 21  2  0  0  0  0
 15 16  1  0  0  0  0
 15 17  2  0  0  0  0
 17 18  1  0  0  0  0
 17 19  1  0  0  0  0
 19 20  1  0  0  0  0
 19 21  1  0  0  0  0
 21 22  1  0  0  0  0
 23 24  2  0  0  0  0
 23 25  1  0  0  0  0
 25 26  1  0  0  0  0
 25 27  1  0  0  0  0
 27 28  1  0  0  0  0
 27 29  1  0  0  0  0
 27 30  1  0  0  0  0
M  CHG  1  15   1
M  END
$$$$

  -OEChem-04042216003D

 30 30  0     1  0  0  0  0  0999 V2000
   -3.2274   -4.0019    1.1475 H   0  0  0  0  0  0  0  0  0  0  0  0
   -3.1927   -3.1348    0.4811 C   0  0  0  0  0  0  0  0  0  0  0  0
   -4.0294   -2.4749    0.7216 H   0  0  0  0  0  0  0  0  0  0  0  0
   -3.2944   -3.4839   -0.5494 H   0  0  0  0  0  0  0  0  0  0  0  0
   -1.8786   -2.3981    0.6560 C   0  0  0  0  0  0  0  0  0  0  0  0
   -1.0697   -2.7784    1.4816 O   0  0  0  0  0  0  0  0  0  0  0  0
   -1.5975   -1.2764   -0.1050 N   0  0  0  0  0  0  0  0  0  0  0  0
   -2.2706   -1.0579   -0.8350 H   0  0  0  0  0  0  0  0  0  0  0  0
   -0.2634   -0.6371   -0.1479 C   0  0  1  0  0  0  0  0  0  0  0  0
    0.4236   -1.4674   -0.3572 H   0  0  0  0  0  0  0  0  0  0  0  0
   -0.0922    0.3168   -1.3622 C   0  0  0  0  0  0  0  0  0  0  0  0
    0.7368   -0.0774   -1.9598 H   0  0  0  0  0  0  0  0  0  0  0  0
   -0.9832    0.2673   -1.9956 H   0  0  0  0  0  0  0  0  0  0  0  0
    0.2059    1.7760   -1.0744 C   0  0  0  0  0  0  0  0  0  0  0  0
    1.1820    2.5231   -1.7394 N   0  3  0  0  0  0  0  0  0  0  0  0
    1.8395    2.1089   -2.4055 H   0  0  0  0  0  0  0  0  0  0  0  0
    1.2033    3.7558   -1.2948 C   0  0  0  0  0  0  0  0  0  0  0  0
    1.8942    4.5440   -1.6005 H   0  0  0  0  0  0  0  0  0  0  0  0
    0.1907    3.8672   -0.3473 N   0  0  0  0  0  0  0  0  0  0  0  0
   -0.0320    4.7081    0.1938 H   0  0  0  0  0  0  0  0  0  0  0  0
   -0.4403    2.6366   -0.2199 C   0  0  0  0  0  0  0  0  0  0  0  0
   -1.2747    2.3950    0.4365 H   0  0  0  0  0  0  0  0  0  0  0  0
    0.2720   -0.1189    1.2076 C   0  0  0  0  0  0  0  0  0  0  0  0
    1.4806    0.0394    1.3143 O   0  0  0  0  0  0  0  0  0  0  0  0
   -0.5572    0.5871    2.0641 N   0  0  0  0  0  0  0  0  0  0  0  0
   -1.5235    0.2693    2.0533 H   0  0  0  0  0  0  0  0  0  0  0  0
   -0.0549    1.1315    3.3243 C   0  0  0  0  0  0  0  0  0  0  0  0
    0.7354    1.8675    3.1415 H   0  0  0  0  0  0  0  0  0  0  0  0
   -0.8614    1.6248    3.8760 H   0  0  0  0  0  0  0  0  0  0  0  0
    0.3535    0.3308    3.9515 H   0  0  0  0  0  0  0  0  0  0  0  0
  1  2  1  0  0  0  0
  2  3  1  0  0  0  0
  2  4  1  0  0  0  0
  2  5  1  0  0  0  0
  5  6  2  0  0  0  0
  5  7  1  0  0  0  0
  7  8  1  0  0  0  0
  7  9  1  0  0  0  0
  9 10  1  0  0  0  0
  9 11  1  0  0  0  0
  9 23  1  0  0  0  0
 11 12  1  0  0  0  0
 11 13  1  0  0  0  0
 11 14  1  0  0  0  0
 14 15  1  0  0  0  0
 14 21  2  0  0  0  0
 15 16  1  0  0  0  0
 15 17  2  0  0  0  0
 17 18  1  0  0  0  0
 17 19  1  0  0  0  0
 19 20  1  0  0  0  0
 19 21  1  0  0  0  0
 21 22  1  0  0  0  0
 23 24  2  0  0  0  0
 23 25  1  0  0  0  0
 25 26  1  0  0  0  0
 25 27  1  0  0  0  0
 27 28  1  0  0  0  0
 27 29  1  0  0  0  0
 27 30  1  0  0  0  0
M  CHG  1  15   1
M  END
$$$$

  -OEChem-04042216003D

 30 30  0     1  0  0  0  0  0999 V2000
   -3.2394   -4.0080    1.0898 H   0  0  0  0  0  0  0  0  0  0  0  0
   -3.2004   -3.1196    0.4523 C   0  0  0  0  0  0  0  0  0  0  0  0
   -4.0142   -2.4484    0.7367 H   0  0  0  0  0  0  0  0  0  0  0  0
   -3.3366   -3.4295   -0.5867 H   0  0  0  0  0  0  0  0  0  0  0  0
   -1.8648   -2.4202    0.6174 C   0  0  0  0  0  0  0  0  0  0  0  0
   -1.0365   -2.8562    1.3949 O   0  0  0  0  0  0  0  0  0  0  0  0
   -1.5870   -1.2662   -0.0944 N   0  0  0  0  0  0  0  0  0  0  0  0
   -2.2877   -0.9795   -0.7729 H   0  0  0  0  0  0  0  0  0  0  0  0
   -0.2598   -0.6126   -0.1099 C   0  0  1  0  0  0  0  0  0  0  0  0
    0.4304   -1.4381   -0.3288 H   0  0  0  0  0  0  0  0  0  0  0  0
   -0.0710    0.3481   -1.3179 C   0  0  0  0  0  0  0  0  0  0  0  0
    0.7810   -0.0448   -1.8837 H   0  0  0  0  0  0  0  0  0  0  0  0
   -0.9426    0.2725   -1.9753 H   0  0  0  0  0  0  0  0  0  0  0  0
    0.2102    1.8225   -1.0780 C   0  0  0  0  0  0  0  0  0  0  0  0
    0.9659    2.5963   -1.9650 N   0  3  0  0  0  0  0  0  0  0  0  0
    1.4346    2.2006   -2.7841 H   0  0  0  0  0  0  0  0  0  0  0  0
    1.0646    3.8326   -1.5417 C   0  0  0  0  0  0  0  0  0  0  0  0
    1.6294    4.6390   -2.0139 H   0  0  0  0  0  0  0  0  0  0  0  0
    0.3241    3.9209   -0.3688 N   0  0  0  0  0  0  0  0  0  0  0  0
    0.2225    4.7580    0.2130 H   0  0  0  0  0  0  0  0  0  0  0  0
   -0.2207    2.6750   -0.0882 C   0  0  0  0  0  0  0  0  0  0  0  0
   -0.8628    2.4328    0.7545 H   0  0  0  0  0  0  0  0  0  0  0  0
    0.2650   -0.1465    1.2669 C   0  0  0  0  0  0  0  0  0  0  0  0
    1.4699    0.0257    1.3851 O   0  0  0  0  0  0  0  0  0  0  0  0
   -0.5741    0.5135    2.1499 N   0  0  0  0  0  0  0  0  0  0  0  0
   -1.5406    0.1974    2.1143 H   0  0  0  0  0  0  0  0  0  0  0  0
   -0.0855    1.0037    3.4377 C   0  0  0  0  0  0  0  0  0  0  0  0
    0.6851    1.7689    3.2943 H   0  0  0  0  0  0  0  0  0  0  0  0
   -0.9050    1.4450    4.0138 H   0  0  0  0  0  0  0  0  0  0  0  0
    0.3441    0.1821    4.0222 H   0  0  0  0  0  0  0  0  0  0  0  0
  1  2  1  0  0  0  0
  2  3  1  0  0  0  0
  2  4  1  0  0  0  0
  2  5  1  0  0  0  0
  5  6  2  0  0  0  0
  5  7  1  0  0  0  0
  7  8  1  0  0  0  0
  7  9  1  0  0  0  0
  9 10  1  0  0  0  0
  9 11  1  0  0  0  0
  9 23  1  0  0  0  0
 11 12  1  0  0  0  0
 11 13  1  0  0  0  0
 11 14  1  0  0  0  0
 14 15  1  0  0  0  0
 14 21  2  0  0  0  0
 15 16  1  0  0  0  0
 15 17  2  0  0  0  0
 17 18  1  0  0  0  0
 17 19  1  0  0  0  0
 19 20  1  0  0  0  0
 19 21  1  0  0  0  0
 21 22  1  0  0  0  0
 23 24  2  0  0  0  0
 23 25  1  0  0  0  0
 25 26  1  0  0  0  0
 25 27  1  0  0  0  0
 27 28  1  0  0  0  0
 27 29  1  0  0  0  0
 27 30  1  0  0  0  0
M  CHG  1  15   1
M  END
$$$$

  -OEChem-04042216003D

 30 30  0     1  0  0  0  0  0999 V2000
   -3.2504   -3.9862    1.0772 H   0  0  0  0  0  0  0  0  0  0  0  0
   -3.2053   -3.0895    0.4518 C   0  0  0  0  0  0  0  0  0  0  0  0
   -4.0017   -2.4080    0.7598 H   0  0  0  0  0  0  0  0  0  0  0  0
   -3.3646   -3.3815   -0.5891 H   0  0  0  0  0  0  0  0  0  0  0  0
   -1.8538   -2.4182    0.6037 C   0  0  0  0  0  0  0  0  0  0  0  0
   -1.0156   -2.8922    1.3475 O   0  0  0  0  0  0  0  0  0  0  0  0
   -1.5688   -1.2539   -0.0888 N   0  0  0  0  0  0  0  0  0  0  0  0
   -2.2867   -0.9230   -0.7279 H   0  0  0  0  0  0  0  0  0  0  0  0
   -0.2393   -0.6026   -0.0932 C   0  0  1  0  0  0  0  0  0  0  0  0
    0.4589   -1.4170   -0.3272 H   0  0  0  0  0  0  0  0  0  0  0  0
   -0.0675    0.3898   -1.2811 C   0  0  0  0  0  0  0  0  0  0  0  0
    0.7716    0.0009   -1.8686 H   0  0  0  0  0  0  0  0  0  0  0  0
   -0.9534    0.3163   -1.9189 H   0  0  0  0  0  0  0  0  0  0  0  0
    0.2176    1.8725   -1.0730 C   0  0  0  0  0  0  0  0  0  0  0  0
    0.6713    2.6664   -2.1332 N   0  3  0  0  0  0  0  0  0  0  0  0
    0.8427    2.2925   -3.0701 H   0  0  0  0  0  0  0  0  0  0  0  0
    0.9046    3.8947   -1.7413 C   0  0  0  0  0  0  0  0  0  0  0  0
    1.2904    4.7124   -2.3533 H   0  0  0  0  0  0  0  0  0  0  0  0
    0.5845    3.9562   -0.3915 N   0  0  0  0  0  0  0  0  0  0  0  0
    0.6899    4.7770    0.2127 H   0  0  0  0  0  0  0  0  0  0  0  0
    0.1613    2.7018    0.0254 C   0  0  0  0  0  0  0  0  0  0  0  0
   -0.1257    2.4472    1.0402 H   0  0  0  0  0  0  0  0  0  0  0  0
    0.2488   -0.1736    1.3072 C   0  0  0  0  0  0  0  0  0  0  0  0
    1.4482   -0.0016    1.4699 O   0  0  0  0  0  0  0  0  0  0  0  0
   -0.6195    0.4610    2.1810 N   0  0  0  0  0  0  0  0  0  0  0  0
   -1.5926    0.1851    2.0724 H   0  0  0  0  0  0  0  0  0  0  0  0
   -0.1900    0.8612    3.5201 C   0  0  0  0  0  0  0  0  0  0  0  0
    0.6339    1.5810    3.4678 H   0  0  0  0  0  0  0  0  0  0  0  0
   -1.0186    1.3278    4.0621 H   0  0  0  0  0  0  0  0  0  0  0  0
    0.1473   -0.0121    4.0895 H   0  0  0  0  0  0  0  0  0  0  0  0
  1  2  1  0  0  0  0
  2  3  1  0  0  0  0
  2  4  1  0  0  0  0
  2  5  1  0  0  0  0
  5  6  2  0  0  0  0
  5  7  1  0  0  0  0
  7  8  1  0  0  0  0
  7  9  1  0  0  0  0
  9 10  1  0  0  0  0
  9 11  1  0  0  0  0
  9 23  1  0  0  0  0
 11 12  1  0  0  0  0
 11 13  1  0  0  0  0
 11 14  1  0  0  0  0
 14 15  1  0  0  0  0
 14 21  2  0  0  0  0
 15 16  1  0  0  0  0
 15 17  2  0  0  0  0
 17 18  1  0  0  0  0
 17 19  1  0  0  0  0
 19 20  1  0  0  0  0
 19 21  1  0  0  0  0
 21 22  1  0  0  0  0
 23 24  2  0  0  0  0
 23 25  1  0  0  0  0
 25 26  1  0  0  0  0
 25 27  1  0  0  0  0
 27 28  1  0  0  0  0
 27 29  1  0  0  0  0
 27 30  1  0  0  0  0
M  CHG  1  15   1
M  END
$$$$

  -OEChem-04042216003D

 30 30  0     1  0  0  0  0  0999 V2000
   -3.3402   -3.8420    1.1568 H   0  0  0  0  0  0  0  0  0  0  0  0
   -3.2280   -2.9910    0.4783 C   0  0  0  0  0  0  0  0  0  0  0  0
   -4.0010   -2.2548    0.7106 H   0  0  0  0  0  0  0  0  0  0  0  0
   -3.3626   -3.3424   -0.5475 H   0  0  0  0  0  0  0  0  0  0  0  0
   -1.8523   -2.3743    0.6425 C   0  0  0  0  0  0  0  0  0  0  0  0
   -1.0661   -2.8438    1.4432 O   0  0  0  0  0  0  0  0  0  0  0  0
   -1.4854   -1.2766   -0.1179 N   0  0  0  0  0  0  0  0  0  0  0  0
   -2.1488   -0.9893   -0.8319 H   0  0  0  0  0  0  0  0  0  0  0  0
   -0.1242   -0.6895   -0.1116 C   0  0  1  0  0  0  0  0  0  0  0  0
    0.5859   -1.4974   -0.3308 H   0  0  0  0  0  0  0  0  0  0  0  0
   -0.0106    0.3414   -1.2790 C   0  0  0  0  0  0  0  0  0  0  0  0
    0.5334   -0.1656   -2.0834 H   0  0  0  0  0  0  0  0  0  0  0  0
   -1.0221    0.5280   -1.6528 H   0  0  0  0  0  0  0  0  0  0  0  0
    0.6248    1.7219   -1.1101 C   0  0  0  0  0  0  0  0  0  0  0  0
    0.6968    2.6034   -2.1966 N   0  3  0  0  0  0  0  0  0  0  0  0
    0.3373    2.3677   -3.1251 H   0  0  0  0  0  0  0  0  0  0  0  0
    1.3108    3.7147   -1.8714 C   0  0  0  0  0  0  0  0  0  0  0  0
    1.5177    4.5626   -2.5277 H   0  0  0  0  0  0  0  0  0  0  0  0
    1.6619    3.6060   -0.5329 N   0  0  0  0  0  0  0  0  0  0  0  0
    2.1800    4.3030    0.0114 H   0  0  0  0  0  0  0  0  0  0  0  0
    1.2446    2.3703   -0.0600 C   0  0  0  0  0  0  0  0  0  0  0  0
    1.4166    2.0071    0.9514 H   0  0  0  0  0  0  0  0  0  0  0  0
    0.2870   -0.1988    1.2919 C   0  0  0  0  0  0  0  0  0  0  0  0
    1.4670   -0.2336    1.6135 O   0  0  0  0  0  0  0  0  0  0  0  0
   -0.5998    0.5283    2.0671 N   0  0  0  0  0  0  0  0  0  0  0  0
   -1.5799    0.3987    1.8303 H   0  0  0  0  0  0  0  0  0  0  0  0
   -0.2860    0.9067    3.4431 C   0  0  0  0  0  0  0  0  0  0  0  0
    0.6195    1.5213    3.4823 H   0  0  0  0  0  0  0  0  0  0  0  0
   -1.1093    1.4832    3.8765 H   0  0  0  0  0  0  0  0  0  0  0  0
   -0.1273    0.0134    4.0578 H   0  0  0  0  0  0  0  0  0  0  0  0
  1  2  1  0  0  0  0
  2  3  1  0  0  0  0
  2  4  1  0  0  0  0
  2  5  1  0  0  0  0
  5  6  2  0  0  0  0
  5  7  1  0  0  0  0
  7  8  1  0  0  0  0
  7  9  1  0  0  0  0
  9 10  1  0  0  0  0
  9 11  1  0  0  0  0
  9 23  1  0  0  0  0
 11 12  1  0  0  0  0
 11 13  1  0  0  0  0
 11 14  1  0  0  0  0
 14 15  1  0  0  0  0
 14 21  2  0  0  0  0
 15 16  1  0  0  0  0
 15 17  2  0  0  0  0
 17 18  1  0  0  0  0
 17 19  1  0  0  0  0
 19 20  1  0  0  0  0
 19 21  1  0  0  0  0
 21 22  1  0  0  0  0
 23 24  2  0  0  0  0
 23 25  1  0  0  0  0
 25 26  1  0  0  0  0
 25 27  1  0  0  0  0
 27 28  1  0  0  0  0
 27 29  1  0  0  0  0
 27 30  1  0  0  0  0
M  CHG  1  15   1
M  END
$$$$

  -OEChem-04042216003D

 30 30  0     1  0  0  0  0  0999 V2000
   -3.3471   -3.8087    1.2087 H   0  0  0  0  0  0  0  0  0  0  0  0
   -3.2253   -2.9779    0.5073 C   0  0  0  0  0  0  0  0  0  0  0  0
   -3.9974   -2.2323    0.7105 H   0  0  0  0  0  0  0  0  0  0  0  0
   -3.3510   -3.3585   -0.5091 H   0  0  0  0  0  0  0  0  0  0  0  0
   -1.8487   -2.3618    0.6677 C   0  0  0  0  0  0  0  0  0  0  0  0
   -1.0721   -2.8150    1.4866 O   0  0  0  0  0  0  0  0  0  0  0  0
   -1.4708   -1.2869   -0.1200 N   0  0  0  0  0  0  0  0  0  0  0  0
   -2.1220   -1.0294   -0.8561 H   0  0  0  0  0  0  0  0  0  0  0  0
   -0.1044   -0.7100   -0.1256 C   0  0  1  0  0  0  0  0  0  0  0  0
    0.6089   -1.5155   -0.3417 H   0  0  0  0  0  0  0  0  0  0  0  0
   -0.0164    0.3261   -1.2909 C   0  0  0  0  0  0  0  0  0  0  0  0
    0.4982   -0.1700   -2.1211 H   0  0  0  0  0  0  0  0  0  0  0  0
   -1.0383    0.5231   -1.6288 H   0  0  0  0  0  0  0  0  0  0  0  0
    0.6267    1.7001   -1.1114 C   0  0  0  0  0  0  0  0  0  0  0  0
    0.4275    2.7246   -2.0460 N   0  3  0  0  0  0  0  0  0  0  0  0
   -0.1764    2.6183   -2.8651 H   0  0  0  0  0  0  0  0  0  0  0  0
    1.1199    3.7936   -1.7361 C   0  0  0  0  0  0  0  0  0  0  0  0
    1.1520    4.7341   -2.2898 H   0  0  0  0  0  0  0  0  0  0  0  0
    1.8194    3.5001   -0.5732 N   0  0  0  0  0  0  0  0  0  0  0  0
    2.4721    4.1250   -0.0895 H   0  0  0  0  0  0  0  0  0  0  0  0
    1.5320    2.1968   -0.1957 C   0  0  0  0  0  0  0  0  0  0  0  0
    1.9851    1.6816    0.6494 H   0  0  0  0  0  0  0  0  0  0  0  0
    0.2928   -0.1902    1.2737 C   0  0  0  0  0  0  0  0  0  0  0  0
    1.4532   -0.2973    1.6459 O   0  0  0  0  0  0  0  0  0  0  0  0
   -0.5952    0.5596    2.0247 N   0  0  0  0  0  0  0  0  0  0  0  0
   -1.5721    0.4607    1.7633 H   0  0  0  0  0  0  0  0  0  0  0  0
   -0.3004    0.9502    3.4010 C   0  0  0  0  0  0  0  0  0  0  0  0
    0.6192    1.5430    3.4486 H   0  0  0  0  0  0  0  0  0  0  0  0
   -1.1174    1.5533    3.8092 H   0  0  0  0  0  0  0  0  0  0  0  0
   -0.1758    0.0626    4.0315 H   0  0  0  0  0  0  0  0  0  0  0  0
  1  2  1  0  0  0  0
  2  3  1  0  0  0  0
  2  4  1  0  0  0  0
  2  5  1  0  0  0  0
  5  6  2  0  0  0  0
  5  7  1  0  0  0  0
  7  8  1  0  0  0  0
  7  9  1  0  0  0  0
  9 10  1  0  0  0  0
  9 11  1  0  0  0  0
  9 23  1  0  0  0  0
 11 12  1  0  0  0  0
 11 13  1  0  0  0  0
 11 14  1  0  0  0  0
 14 15  1  0  0  0  0
 14 21  2  0  0  0  0
 15 16  1  0  0  0  0
 15 17  2  0  0  0  0
 17 18  1  0  0  0  0
 17 19  1  0  0  0  0
 19 20  1  0  0  0  0
 19 21  1  0  0  0  0
 21 22  1  0  0  0  0
 23 24  2  0  0  0  0
 23 25  1  0  0  0  0
 25 26  1  0  0  0  0
 25 27  1  0  0  0  0
 27 28  1  0  0  0  0
 27 29  1  0  0  0  0
 27 30  1  0  0  0  0
M  CHG  1  15   1
M  END
$$$$

  -OEChem-04042216003D

 30 30  0     1  0  0  0  0  0999 V2000
   -3.3056   -3.8179    1.2803 H   0  0  0  0  0  0  0  0  0  0  0  0
   -3.1953   -3.0093    0.5514 C   0  0  0  0  0  0  0  0  0  0  0  0
   -3.9856   -2.2747    0.7224 H   0  0  0  0  0  0  0  0  0  0  0  0
   -3.3033   -3.4277   -0.4521 H   0  0  0  0  0  0  0  0  0  0  0  0
   -1.8342   -2.3572    0.7009 C   0  0  0  0  0  0  0  0  0  0  0  0
   -1.0551   -2.7658    1.5406 O   0  0  0  0  0  0  0  0  0  0  0  0
   -1.4729   -1.3039   -0.1233 N   0  0  0  0  0  0  0  0  0  0  0  0
   -2.1155   -1.1054   -0.8850 H   0  0  0  0  0  0  0  0  0  0  0  0
   -0.1107   -0.7178   -0.1581 C   0  0  1  0  0  0  0  0  0  0  0  0
    0.6113   -1.5165   -0.3692 H   0  0  0  0  0  0  0  0  0  0  0  0
   -0.0522    0.3137   -1.3283 C   0  0  0  0  0  0  0  0  0  0  0  0
    0.4531   -0.1697   -2.1719 H   0  0  0  0  0  0  0  0  0  0  0  0
   -1.0785    0.5121   -1.6508 H   0  0  0  0  0  0  0  0  0  0  0  0
    0.5972    1.6755   -1.1123 C   0  0  0  0  0  0  0  0  0  0  0  0
    0.2095    2.8391   -1.7870 N   0  3  0  0  0  0  0  0  0  0  0  0
   -0.5920    2.8732   -2.4217 H   0  0  0  0  0  0  0  0  0  0  0  0
    0.9960    3.8436   -1.4833 C   0  0  0  0  0  0  0  0  0  0  0  0
    0.9174    4.8681   -1.8524 H   0  0  0  0  0  0  0  0  0  0  0  0
    1.9605    3.3572   -0.6092 N   0  0  0  0  0  0  0  0  0  0  0  0
    2.7313    3.8959   -0.2015 H   0  0  0  0  0  0  0  0  0  0  0  0
    1.7337    2.0042   -0.4054 C   0  0  0  0  0  0  0  0  0  0  0  0
    2.3647    1.3337    0.1796 H   0  0  0  0  0  0  0  0  0  0  0  0
    0.2885   -0.1540    1.2272 C   0  0  0  0  0  0  0  0  0  0  0  0
    1.4511   -0.2366    1.5996 O   0  0  0  0  0  0  0  0  0  0  0  0
   -0.6057    0.6089    1.9573 N   0  0  0  0  0  0  0  0  0  0  0  0
   -1.5824    0.4841    1.7072 H   0  0  0  0  0  0  0  0  0  0  0  0
   -0.3075    1.0520    3.3165 C   0  0  0  0  0  0  0  0  0  0  0  0
    0.6098    1.6502    3.3373 H   0  0  0  0  0  0  0  0  0  0  0  0
   -1.1255    1.6666    3.7049 H   0  0  0  0  0  0  0  0  0  0  0  0
   -0.1765    0.1890    3.9791 H   0  0  0  0  0  0  0  0  0  0  0  0
  1  2  1  0  0  0  0
  2  3  1  0  0  0  0
  2  4  1  0  0  0  0
  2  5  1  0  0  0  0
  5  6  2  0  0  0  0
  5  7  1  0  0  0  0
  7  8  1  0  0  0  0
  7  9  1  0  0  0  0
  9 10  1  0  0  0  0
  9 11  1  0  0  0  0
  9 23  1  0  0  0  0
 11 12  1  0  0  0  0
 11 13  1  0  0  0  0
 11 14  1  0  0  0  0
 14 15  1  0  0  0  0
 14 21  2  0  0  0  0
 15 16  1  0  0  0  0
 15 17  2  0  0  0  0
 17 18  1  0  0  0  0
 17 19  1  0  0  0  0
 19 20  1  0  0  0  0
 19 21  1  0  0  0  0
 21 22  1  0  0  0  0
 23 24  2  0  0  0  0
 23 25  1  0  0  0  0
 25 26  1  0  0  0  0
 25 27  1  0  0  0  0
 27 28  1  0  0  0  0
 27 29  1  0  0  0  0
 27 30  1  0  0  0  0
M  CHG  1  15   1
M  END
$$$$

  -OEChem-04042216003D

 30 30  0     1  0  0  0  0  0999 V2000
   -3.2673   -3.8532    1.2983 H   0  0  0  0  0  0  0  0  0  0  0  0
   -3.1789   -3.0457    0.5652 C   0  0  0  0  0  0  0  0  0  0  0  0
   -3.9870   -2.3302    0.7336 H   0  0  0  0  0  0  0  0  0  0  0  0
   -3.2788   -3.4714   -0.4361 H   0  0  0  0  0  0  0  0  0  0  0  0
   -1.8339   -2.3594    0.7084 C   0  0  0  0  0  0  0  0  0  0  0  0
   -1.0472   -2.7361    1.5561 O   0  0  0  0  0  0  0  0  0  0  0  0
   -1.4930   -1.3125   -0.1323 N   0  0  0  0  0  0  0  0  0  0  0  0
   -2.1346   -1.1458   -0.9025 H   0  0  0  0  0  0  0  0  0  0  0  0
   -0.1370   -0.7157   -0.1862 C   0  0  1  0  0  0  0  0  0  0  0  0
    0.5843   -1.5164   -0.3928 H   0  0  0  0  0  0  0  0  0  0  0  0
   -0.0808    0.2982   -1.3694 C   0  0  0  0  0  0  0  0  0  0  0  0
    0.4399   -0.1852   -2.2032 H   0  0  0  0  0  0  0  0  0  0  0  0
   -1.1022    0.4922   -1.7094 H   0  0  0  0  0  0  0  0  0  0  0  0
    0.5726    1.6489   -1.1239 C   0  0  0  0  0  0  0  0  0  0  0  0
    0.0644    2.8895   -1.5229 N   0  3  0  0  0  0  0  0  0  0  0  0
   -0.8483    3.0015   -1.9708 H   0  0  0  0  0  0  0  0  0  0  0  0
    0.9050    3.8521   -1.2260 C   0  0  0  0  0  0  0  0  0  0  0  0
    0.7637    4.9194   -1.4072 H   0  0  0  0  0  0  0  0  0  0  0  0
    2.0185    3.2592   -0.6398 N   0  0  0  0  0  0  0  0  0  0  0  0
    2.8496    3.7475   -0.2919 H   0  0  0  0  0  0  0  0  0  0  0  0
    1.8226    1.8869   -0.6011 C   0  0  0  0  0  0  0  0  0  0  0  0
    2.5224    1.1383   -0.2228 H   0  0  0  0  0  0  0  0  0  0  0  0
    0.2887   -0.1265    1.1823 C   0  0  0  0  0  0  0  0  0  0  0  0
    1.4687   -0.1572    1.5072 O   0  0  0  0  0  0  0  0  0  0  0  0
   -0.5954    0.6433    1.9180 N   0  0  0  0  0  0  0  0  0  0  0  0
   -1.5777    0.4808    1.7159 H   0  0  0  0  0  0  0  0  0  0  0  0
   -0.2531    1.1518    3.2438 C   0  0  0  0  0  0  0  0  0  0  0  0
    0.6266    1.8024    3.1942 H   0  0  0  0  0  0  0  0  0  0  0  0
   -1.0846    1.7317    3.6561 H   0  0  0  0  0  0  0  0  0  0  0  0
   -0.0364    0.3235    3.9276 H   0  0  0  0  0  0  0  0  0  0  0  0
  1  2  1  0  0  0  0
  2  3  1  0  0  0  0
  2  4  1  0  0  0  0
  2  5  1  0  0  0  0
  5  6  2  0  0  0  0
  5  7  1  0  0  0  0
  7  8  1  0  0  0  0
  7  9  1  0  0  0  0
  9 10  1  0  0  0  0
  9 11  1  0  0  0  0
  9 23  1  0  0  0  0
 11 12  1  0  0  0  0
 11 13  1  0  0  0  0
 11 14  1  0  0  0  0
 14 15  1  0  0  0  0
 14 21  2  0  0  0  0
 15 16  1  0  0  0  0
 15 17  2  0  0  0  0
 17 18  1  0  0  0  0
 17 19  1  0  0  0  0
 19 20  1  0  0  0  0
 19 21  1  0  0  0  0
 21 22  1  0  0  0  0
 23 24  2  0  0  0  0
 23 25  1  0  0  0  0
 25 26  1  0  0  0  0
 25 27  1  0  0  0  0
 27 28  1  0  0  0  0
 27 29  1  0  0  0  0
 27 30  1  0  0  0  0
M  CHG  1  15   1
M  END
$$$$

  -OEChem-04042216003D

 30 30  0     1  0  0  0  0  0999 V2000
   -3.2386   -3.8588    1.3314 H   0  0  0  0  0  0  0  0  0  0  0  0
   -3.1618   -3.0663    0.5810 C   0  0  0  0  0  0  0  0  0  0  0  0
   -3.9822   -2.3609    0.7322 H   0  0  0  0  0  0  0  0  0  0  0  0
   -3.2514   -3.5154   -0.4110 H   0  0  0  0  0  0  0  0  0  0  0  0
   -1.8293   -2.3545    0.7125 C   0  0  0  0  0  0  0  0  0  0  0  0
   -1.0384   -2.6976    1.5708 O   0  0  0  0  0  0  0  0  0  0  0  0
   -1.5085   -1.3141   -0.1437 N   0  0  0  0  0  0  0  0  0  0  0  0
   -2.1503   -1.1772   -0.9199 H   0  0  0  0  0  0  0  0  0  0  0  0
   -0.1577   -0.7099   -0.2187 C   0  0  1  0  0  0  0  0  0  0  0  0
    0.5615   -1.5128   -0.4231 H   0  0  0  0  0  0  0  0  0  0  0  0
   -0.1065    0.2877   -1.4130 C   0  0  0  0  0  0  0  0  0  0  0  0
    0.4263   -0.1988   -2.2375 H   0  0  0  0  0  0  0  0  0  0  0  0
   -1.1235    0.4801   -1.7673 H   0  0  0  0  0  0  0  0  0  0  0  0
    0.5513    1.6284   -1.1450 C   0  0  0  0  0  0  0  0  0  0  0  0
   -0.0380    2.8909   -1.2533 N   0  3  0  0  0  0  0  0  0  0  0  0
   -1.0223    3.0303   -1.4934 H   0  0  0  0  0  0  0  0  0  0  0  0
    0.8320    3.8290   -0.9621 C   0  0  0  0  0  0  0  0  0  0  0  0
    0.6464    4.9044   -0.9412 H   0  0  0  0  0  0  0  0  0  0  0  0
    2.0402    3.1987   -0.6777 N   0  0  0  0  0  0  0  0  0  0  0  0
    2.9072    3.6605   -0.3857 H   0  0  0  0  0  0  0  0  0  0  0  0
    1.8681    1.8284   -0.8062 C   0  0  0  0  0  0  0  0  0  0  0  0
    2.6135    1.0502   -0.6272 H   0  0  0  0  0  0  0  0  0  0  0  0
    0.2970   -0.0992    1.1310 C   0  0  0  0  0  0  0  0  0  0  0  0
    1.4901   -0.0864    1.4073 O   0  0  0  0  0  0  0  0  0  0  0  0
   -0.5770    0.6777    1.8715 N   0  0  0  0  0  0  0  0  0  0  0  0
   -1.5609    0.4779    1.7138 H   0  0  0  0  0  0  0  0  0  0  0  0
   -0.2011    1.2206    3.1742 C   0  0  0  0  0  0  0  0  0  0  0  0
    0.6672    1.8816    3.0820 H   0  0  0  0  0  0  0  0  0  0  0  0
   -1.0278    1.7981    3.5996 H   0  0  0  0  0  0  0  0  0  0  0  0
    0.0488    0.4104    3.8684 H   0  0  0  0  0  0  0  0  0  0  0  0
  1  2  1  0  0  0  0
  2  3  1  0  0  0  0
  2  4  1  0  0  0  0
  2  5  1  0  0  0  0
  5  6  2  0  0  0  0
  5  7  1  0  0  0  0
  7  8  1  0  0  0  0
  7  9  1  0  0  0  0
  9 10  1  0  0  0  0
  9 11  1  0  0  0  0
  9 23  1  0  0  0  0
 11 12  1  0  0  0  0
 11 13  1  0  0  0  0
 11 14  1  0  0  0  0
 14 15  1  0  0  0  0
 14 21  2  0  0  0  0
 15 16  1  0  0  0  0
 15 17  2  0  0  0  0
 17 18  1  0  0  0  0
 17 19  1  0  0  0  0
 19 20  1  0  0  0  0
 19 21  1  0  0  0  0
 21 22  1  0  0  0  0
 23 24  2  0  0  0  0
 23 25  1  0  0  0  0
 25 26  1  0  0  0  0
 25 27  1  0  0  0  0
 27 28  1  0  0  0  0
 27 29  1  0  0  0  0
 27 30  1  0  0  0  0
M  CHG  1  15   1
M  END
$$$$

  -OEChem-04042216003D

 30 30  0     1  0  0  0  0  0999 V2000
   -3.2088   -3.8816    1.3370 H   0  0  0  0  0  0  0  0  0  0  0  0
   -3.1472   -3.0912    0.5830 C   0  0  0  0  0  0  0  0  0  0  0  0
   -3.9837   -2.4036    0.7279 H   0  0  0  0  0  0  0  0  0  0  0  0
   -3.2239   -3.5473   -0.4069 H   0  0  0  0  0  0  0  0  0  0  0  0
   -1.8310   -2.3494    0.7144 C   0  0  0  0  0  0  0  0  0  0  0  0
   -1.0407   -2.6622    1.5846 O   0  0  0  0  0  0  0  0  0  0  0  0
   -1.5261   -1.3123   -0.1515 N   0  0  0  0  0  0  0  0  0  0  0  0
   -2.1636   -1.2046   -0.9360 H   0  0  0  0  0  0  0  0  0  0  0  0
   -0.1793   -0.7020   -0.2426 C   0  0  1  0  0  0  0  0  0  0  0  0
    0.5390   -1.5054   -0.4483 H   0  0  0  0  0  0  0  0  0  0  0  0
   -0.1332    0.2880   -1.4415 C   0  0  0  0  0  0  0  0  0  0  0  0
    0.4059   -0.1991   -2.2615 H   0  0  0  0  0  0  0  0  0  0  0  0
   -1.1474    0.4817   -1.8034 H   0  0  0  0  0  0  0  0  0  0  0  0
    0.5284    1.6201   -1.1540 C   0  0  0  0  0  0  0  0  0  0  0  0
   -0.0934    2.8562   -0.9633 N   0  3  0  0  0  0  0  0  0  0  0  0
   -1.1083    2.9797   -0.9736 H   0  0  0  0  0  0  0  0  0  0  0  0
    0.8017    3.7803   -0.7058 C   0  0  0  0  0  0  0  0  0  0  0  0
    0.6062    4.8316   -0.4872 H   0  0  0  0  0  0  0  0  0  0  0  0
    2.0521    3.1689   -0.7480 N   0  0  0  0  0  0  0  0  0  0  0  0
    2.9492    3.6202   -0.5442 H   0  0  0  0  0  0  0  0  0  0  0  0
    1.8815    1.8219   -1.0337 C   0  0  0  0  0  0  0  0  0  0  0  0
    2.6560    1.0551   -1.0901 H   0  0  0  0  0  0  0  0  0  0  0  0
    0.2977   -0.0778    1.0936 C   0  0  0  0  0  0  0  0  0  0  0  0
    1.4989   -0.0233    1.3265 O   0  0  0  0  0  0  0  0  0  0  0  0
   -0.5687    0.7029    1.8402 N   0  0  0  0  0  0  0  0  0  0  0  0
   -1.5504    0.4638    1.7283 H   0  0  0  0  0  0  0  0  0  0  0  0
   -0.1623    1.2799    3.1191 C   0  0  0  0  0  0  0  0  0  0  0  0
    0.6907    1.9539    2.9865 H   0  0  0  0  0  0  0  0  0  0  0  0
   -0.9859    1.8510    3.5588 H   0  0  0  0  0  0  0  0  0  0  0  0
    0.1240    0.4890    3.8218 H   0  0  0  0  0  0  0  0  0  0  0  0
  1  2  1  0  0  0  0
  2  3  1  0  0  0  0
  2  4  1  0  0  0  0
  2  5  1  0  0  0  0
  5  6  2  0  0  0  0
  5  7  1  0  0  0  0
  7  8  1  0  0  0  0
  7  9  1  0  0  0  0
  9 10  1  0  0  0  0
  9 11  1  0  0  0  0
  9 23  1  0  0  0  0
 11 12  1  0  0  0  0
 11 13  1  0  0  0  0
 11 14  1  0  0  0  0
 14 15  1  0  0  0  0
 14 21  2  0  0  0  0
 15 16  1  0  0  0  0
 15 17  2  0  0  0  0
 17 18  1  0  0  0  0
 17 19  1  0  0  0  0
 19 20  1  0  0  0  0
 19 21  1  0  0  0  0
 21 22  1  0  0  0  0
 23 24  2  0  0  0  0
 23 25  1  0  0  0  0
 25 26  1  0  0  0  0
 25 27  1  0  0  0  0
 27 28  1  0  0  0  0
 27 29  1  0  0  0  0
 27 30  1  0  0  0  0
M  CHG  1  15   1
M  END
$$$$

  -OEChem-04042216003D

 30 30  0     1  0  0  0  0  0999 V2000
   -3.1890   -3.8932    1.3406 H   0  0  0  0  0  0  0  0  0  0  0  0
   -3.1376   -3.1030    0.5856 C   0  0  0  0  0  0  0  0  0  0  0  0
   -3.9816   -2.4247    0.7311 H   0  0  0  0  0  0  0  0  0  0  0  0
   -3.2113   -3.5611   -0.4037 H   0  0  0  0  0  0  0  0  0  0  0  0
   -1.8298   -2.3460    0.7146 C   0  0  0  0  0  0  0  0  0  0  0  0
   -1.0394   -2.6408    1.5911 O   0  0  0  0  0  0  0  0  0  0  0  0
   -1.5360   -1.3086   -0.1546 N   0  0  0  0  0  0  0  0  0  0  0  0
   -2.1738   -1.2136   -0.9408 H   0  0  0  0  0  0  0  0  0  0  0  0
   -0.1925   -0.6928   -0.2571 C   0  0  1  0  0  0  0  0  0  0  0  0
    0.5267   -1.4953   -0.4640 H   0  0  0  0  0  0  0  0  0  0  0  0
   -0.1498    0.2941   -1.4578 C   0  0  0  0  0  0  0  0  0  0  0  0
    0.3873   -0.1948   -2.2781 H   0  0  0  0  0  0  0  0  0  0  0  0
   -1.1634    0.4924   -1.8188 H   0  0  0  0  0  0  0  0  0  0  0  0
    0.5143    1.6220   -1.1606 C   0  0  0  0  0  0  0  0  0  0  0  0
   -0.0853    2.7896   -0.6831 N   0  3  0  0  0  0  0  0  0  0  0  0
   -1.0763    2.8481   -0.4388 H   0  0  0  0  0  0  0  0  0  0  0  0
    0.8216    3.7160   -0.4840 C   0  0  0  0  0  0  0  0  0  0  0  0
    0.6519    4.7137   -0.0754 H   0  0  0  0  0  0  0  0  0  0  0  0
    2.0498    3.1824   -0.8662 N   0  0  0  0  0  0  0  0  0  0  0  0
    2.9584    3.6478   -0.7805 H   0  0  0  0  0  0  0  0  0  0  0  0
    1.8578    1.8741   -1.2879 C   0  0  0  0  0  0  0  0  0  0  0  0
    2.6229    1.1629   -1.6012 H   0  0  0  0  0  0  0  0  0  0  0  0
    0.2933   -0.0652    1.0748 C   0  0  0  0  0  0  0  0  0  0  0  0
    1.4970    0.0360    1.2750 O   0  0  0  0  0  0  0  0  0  0  0  0
   -0.5755    0.7113    1.8244 N   0  0  0  0  0  0  0  0  0  0  0  0
   -1.5490    0.4268    1.7493 H   0  0  0  0  0  0  0  0  0  0  0  0
   -0.1547    1.3034    3.0924 C   0  0  0  0  0  0  0  0  0  0  0  0
    0.6824    1.9930    2.9400 H   0  0  0  0  0  0  0  0  0  0  0  0
   -0.9801    1.8607    3.5464 H   0  0  0  0  0  0  0  0  0  0  0  0
    0.1612    0.5221    3.7930 H   0  0  0  0  0  0  0  0  0  0  0  0
  1  2  1  0  0  0  0
  2  3  1  0  0  0  0
  2  4  1  0  0  0  0
  2  5  1  0  0  0  0
  5  6  2  0  0  0  0
  5  7  1  0  0  0  0
  7  8  1  0  0  0  0
  7  9  1  0  0  0  0
  9 10  1  0  0  0  0
  9 11  1  0  0  0  0
  9 23  1  0  0  0  0
 11 12  1  0  0  0  0
 11 13  1  0  0  0  0
 11 14  1  0  0  0  0
 14 15  1  0  0  0  0
 14 21  2  0  0  0  0
 15 16  1  0  0  0  0
 15 17  2  0  0  0  0
 17 18  1  0  0  0  0
 17 19  1  0  0  0  0
 19 20  1  0  0  0  0
 19 21  1  0  0  0  0
 21 22  1  0  0  0  0
 23 24  2  0  0  0  0
 23 25  1  0  0  0  0
 25 26  1  0  0  0  0
 25 27  1  0  0  0  0
 27 28  1  0  0  0  0
 27 29  1  0  0  0  0
 27 30  1  0  0  0  0
M  CHG  1  15   1
M  END
$$$$

  -OEChem-04042216003D

 30 30  0     1  0  0  0  0  0999 V2000
   -3.1960   -3.8967    1.3285 H   0  0  0  0  0  0  0  0  0  0  0  0
   -3.1390   -3.1052    0.5753 C   0  0  0  0  0  0  0  0  0  0  0  0
   -3.9850   -2.4281    0.7147 H   0  0  0  0  0  0  0  0  0  0  0  0
   -3.2033   -3.5615   -0.4155 H   0  0  0  0  0  0  0  0  0  0  0  0
   -1.8335   -2.3466    0.7160 C   0  0  0  0  0  0  0  0  0  0  0  0
   -1.0495   -2.6402    1.5987 O   0  0  0  0  0  0  0  0  0  0  0  0
   -1.5373   -1.3049   -0.1471 N   0  0  0  0  0  0  0  0  0  0  0  0
   -2.1707   -1.2110   -0.9374 H   0  0  0  0  0  0  0  0  0  0  0  0
   -0.1933   -0.6897   -0.2475 C   0  0  1  0  0  0  0  0  0  0  0  0
    0.5266   -1.4912   -0.4559 H   0  0  0  0  0  0  0  0  0  0  0  0
   -0.1460    0.3011   -1.4449 C   0  0  0  0  0  0  0  0  0  0  0  0
    0.3818   -0.1909   -2.2690 H   0  0  0  0  0  0  0  0  0  0  0  0
   -1.1614    0.5051   -1.7983 H   0  0  0  0  0  0  0  0  0  0  0  0
    0.5190    1.6316   -1.1571 C   0  0  0  0  0  0  0  0  0  0  0  0
    0.0037    2.7051   -0.4267 N   0  3  0  0  0  0  0  0  0  0  0  0
   -0.8768    2.6486    0.0908 H   0  0  0  0  0  0  0  0  0  0  0  0
    0.8967    3.6605   -0.3325 C   0  0  0  0  0  0  0  0  0  0  0  0
    0.7969    4.5885    0.2327 H   0  0  0  0  0  0  0  0  0  0  0  0
    2.0144    3.2548   -1.0564 N   0  0  0  0  0  0  0  0  0  0  0  0
    2.8951    3.7720   -1.1362 H   0  0  0  0  0  0  0  0  0  0  0  0
    1.7813    1.9841   -1.5653 C   0  0  0  0  0  0  0  0  0  0  0  0
    2.4744    1.3661   -2.1364 H   0  0  0  0  0  0  0  0  0  0  0  0
    0.2853   -0.0727    1.0914 C   0  0  0  0  0  0  0  0  0  0  0  0
    1.4865    0.0638    1.2812 O   0  0  0  0  0  0  0  0  0  0  0  0
   -0.5937    0.6960    1.8397 N   0  0  0  0  0  0  0  0  0  0  0  0
   -1.5575    0.3736    1.7823 H   0  0  0  0  0  0  0  0  0  0  0  0
   -0.1761    1.2869    3.1101 C   0  0  0  0  0  0  0  0  0  0  0  0
    0.6591    1.9798    2.9615 H   0  0  0  0  0  0  0  0  0  0  0  0
   -1.0038    1.8400    3.5647 H   0  0  0  0  0  0  0  0  0  0  0  0
    0.1417    0.5050    3.8093 H   0  0  0  0  0  0  0  0  0  0  0  0
  1  2  1  0  0  0  0
  2  3  1  0  0  0  0
  2  4  1  0  0  0  0
  2  5  1  0  0  0  0
  5  6  2  0  0  0  0
  5  7  1  0  0  0  0
  7  8  1  0  0  0  0
  7  9  1  0  0  0  0
  9 10  1  0  0  0  0
  9 11  1  0  0  0  0
  9 23  1  0  0  0  0
 11 12  1  0  0  0  0
 11 13  1  0  0  0  0
 11 14  1  0  0  0  0
 14 15  1  0  0  0  0
 14 21  2  0  0  0  0
 15 16  1  0  0  0  0
 15 17  2  0  0  0  0
 17 18  1  0  0  0  0
 17 19  1  0  0  0  0
 19 20  1  0  0  0  0
 19 21  1  0  0  0  0
 21 22  1  0  0  0  0
 23 24  2  0  0  0  0
 23 25  1  0  0  0  0
 25 26  1  0  0  0  0
 25 27  1  0  0  0  0
 27 28  1  0  0  0  0
 27 29  1  0  0  0  0
 27 30  1  0  0  0  0
M  CHG  1  15   1
M  END
$$$$

  -OEChem-04042216003D

 30 30  0     1  0  0  0  0  0999 V2000
   -3.2138   -3.8818    1.3276 H   0  0  0  0  0  0  0  0  0  0  0  0
   -3.1420   -3.0966    0.5690 C   0  0  0  0  0  0  0  0  0  0  0  0
   -3.9824   -2.4099    0.6956 H   0  0  0  0  0  0  0  0  0  0  0  0
   -3.2023   -3.5599   -0.4188 H   0  0  0  0  0  0  0  0  0  0  0  0
   -1.8301   -2.3503    0.7159 C   0  0  0  0  0  0  0  0  0  0  0  0
   -1.0498   -2.6555    1.5979 O   0  0  0  0  0  0  0  0  0  0  0  0
   -1.5254   -1.3026   -0.1371 N   0  0  0  0  0  0  0  0  0  0  0  0
   -2.1610   -1.1908   -0.9235 H   0  0  0  0  0  0  0  0  0  0  0  0
   -0.1797   -0.6882   -0.2278 C   0  0  1  0  0  0  0  0  0  0  0  0
    0.5427   -1.4872   -0.4365 H   0  0  0  0  0  0  0  0  0  0  0  0
   -0.1276    0.3104   -1.4205 C   0  0  0  0  0  0  0  0  0  0  0  0
    0.3865   -0.1847   -2.2514 H   0  0  0  0  0  0  0  0  0  0  0  0
   -1.1474    0.5172   -1.7599 H   0  0  0  0  0  0  0  0  0  0  0  0
    0.5328    1.6518   -1.1577 C   0  0  0  0  0  0  0  0  0  0  0  0
    0.1708    2.6267   -0.2239 N   0  3  0  0  0  0  0  0  0  0  0  0
   -0.5179    2.4456    0.5131 H   0  0  0  0  0  0  0  0  0  0  0  0
    1.0226    3.6224   -0.2494 C   0  0  0  0  0  0  0  0  0  0  0  0
    1.0372    4.4798    0.4256 H   0  0  0  0  0  0  0  0  0  0  0  0
    1.9362    3.3580   -1.2652 N   0  0  0  0  0  0  0  0  0  0  0  0
    2.7448    3.9388   -1.5070 H   0  0  0  0  0  0  0  0  0  0  0  0
    1.6377    2.1221   -1.8240 C   0  0  0  0  0  0  0  0  0  0  0  0
    2.1877    1.6076   -2.6120 H   0  0  0  0  0  0  0  0  0  0  0  0
    0.2804   -0.0865    1.1233 C   0  0  0  0  0  0  0  0  0  0  0  0
    1.4761    0.0748    1.3224 O   0  0  0  0  0  0  0  0  0  0  0  0
   -0.6134    0.6721    1.8664 N   0  0  0  0  0  0  0  0  0  0  0  0
   -1.5740    0.3422    1.7863 H   0  0  0  0  0  0  0  0  0  0  0  0
   -0.2241    1.2205    3.1655 C   0  0  0  0  0  0  0  0  0  0  0  0
    0.6313    1.8974    3.0655 H   0  0  0  0  0  0  0  0  0  0  0  0
   -1.0543    1.7801    3.6082 H   0  0  0  0  0  0  0  0  0  0  0  0
    0.0524    0.4127    3.8529 H   0  0  0  0  0  0  0  0  0  0  0  0
  1  2  1  0  0  0  0
  2  3  1  0  0  0  0
  2  4  1  0  0  0  0
  2  5  1  0  0  0  0
  5  6  2  0  0  0  0
  5  7  1  0  0  0  0
  7  8  1  0  0  0  0
  7  9  1  0  0  0  0
  9 10  1  0  0  0  0
  9 11  1  0  0  0  0
  9 23  1  0  0  0  0
 11 12  1  0  0  0  0
 11 13  1  0  0  0  0
 11 14  1  0  0  0  0
 14 15  1  0  0  0  0
 14 21  2  0  0  0  0
 15 16  1  0  0  0  0
 15 17  2  0  0  0  0
 17 18  1  0  0  0  0
 17 19  1  0  0  0  0
 19 20  1  0  0  0  0
 19 21  1  0  0  0  0
 21 22  1  0  0  0  0
 23 24  2  0  0  0  0
 23 25  1  0  0  0  0
 25 26  1  0  0  0  0
 25 27  1  0  0  0  0
 27 28  1  0  0  0  0
 27 29  1  0  0  0  0
 27 30  1  0  0  0  0
M  CHG  1  15   1
M  END
$$$$

  -OEChem-04042216003D

 30 30  0     1  0  0  0  0  0999 V2000
   -3.2203   -3.9033    1.2801 H   0  0  0  0  0  0  0  0  0  0  0  0
   -3.1483   -3.0982    0.5426 C   0  0  0  0  0  0  0  0  0  0  0  0
   -3.9884   -2.4148    0.6872 H   0  0  0  0  0  0  0  0  0  0  0  0
   -3.2091   -3.5352   -0.4571 H   0  0  0  0  0  0  0  0  0  0  0  0
   -1.8358   -2.3569    0.7087 C   0  0  0  0  0  0  0  0  0  0  0  0
   -1.0594   -2.6801    1.5879 O   0  0  0  0  0  0  0  0  0  0  0  0
   -1.5230   -1.2963   -0.1253 N   0  0  0  0  0  0  0  0  0  0  0  0
   -2.1591   -1.1612   -0.9075 H   0  0  0  0  0  0  0  0  0  0  0  0
   -0.1754   -0.6839   -0.1986 C   0  0  1  0  0  0  0  0  0  0  0  0
    0.5459   -1.4833   -0.4103 H   0  0  0  0  0  0  0  0  0  0  0  0
   -0.1117    0.3214   -1.3882 C   0  0  0  0  0  0  0  0  0  0  0  0
    0.3958   -0.1778   -2.2209 H   0  0  0  0  0  0  0  0  0  0  0  0
   -1.1335    0.5271   -1.7222 H   0  0  0  0  0  0  0  0  0  0  0  0
    0.5402    1.6763   -1.1545 C   0  0  0  0  0  0  0  0  0  0  0  0
    0.3831    2.5609   -0.0824 N   0  3  0  0  0  0  0  0  0  0  0  0
   -0.1130    2.2916    0.7751 H   0  0  0  0  0  0  0  0  0  0  0  0
    1.1750    3.5957   -0.2160 C   0  0  0  0  0  0  0  0  0  0  0  0
    1.3197    4.3972    0.5104 H   0  0  0  0  0  0  0  0  0  0  0  0
    1.8323    3.4545   -1.4336 N   0  0  0  0  0  0  0  0  0  0  0  0
    2.5399    4.0940   -1.8077 H   0  0  0  0  0  0  0  0  0  0  0  0
    1.4485    2.2506   -2.0110 C   0  0  0  0  0  0  0  0  0  0  0  0
    1.8141    1.8271   -2.9466 H   0  0  0  0  0  0  0  0  0  0  0  0
    0.2761   -0.1062    1.1639 C   0  0  0  0  0  0  0  0  0  0  0  0
    1.4687    0.0665    1.3688 O   0  0  0  0  0  0  0  0  0  0  0  0
   -0.6194    0.6425    1.9146 N   0  0  0  0  0  0  0  0  0  0  0  0
   -1.5844    0.3322    1.8080 H   0  0  0  0  0  0  0  0  0  0  0  0
   -0.2464    1.1521    3.2347 C   0  0  0  0  0  0  0  0  0  0  0  0
    0.6283    1.8084    3.1711 H   0  0  0  0  0  0  0  0  0  0  0  0
   -1.0722    1.7238    3.6703 H   0  0  0  0  0  0  0  0  0  0  0  0
   -0.0071    0.3223    3.9099 H   0  0  0  0  0  0  0  0  0  0  0  0
  1  2  1  0  0  0  0
  2  3  1  0  0  0  0
  2  4  1  0  0  0  0
  2  5  1  0  0  0  0
  5  6  2  0  0  0  0
  5  7  1  0  0  0  0
  7  8  1  0  0  0  0
  7  9  1  0  0  0  0
  9 10  1  0  0  0  0
  9 11  1  0  0  0  0
  9 23  1  0  0  0  0
 11 12  1  0  0  0  0
 11 13  1  0  0  0  0
 11 14  1  0  0  0  0
 14 15  1  0  0  0  0
 14 21  2  0  0  0  0
 15 16  1  0  0  0  0
 15 17  2  0  0  0  0
 17 18  1  0  0  0  0
 17 19  1  0  0  0  0
 19 20  1  0  0  0  0
 19 21  1  0  0  0  0
 21 22  1  0  0  0  0
 23 24  2  0  0  0  0
 23 25  1  0  0  0  0
 25 26  1  0  0  0  0
 25 27  1  0  0  0  0
 27 28  1  0  0  0  0
 27 29  1  0  0  0  0
 27 30  1  0  0  0  0
M  CHG  1  15   1
M  END
$$$$

  -OEChem-04042216003D

 30 30  0     1  0  0  0  0  0999 V2000
   -3.2499   -3.8840    1.2613 H   0  0  0  0  0  0  0  0  0  0  0  0
   -3.1644   -3.0756    0.5290 C   0  0  0  0  0  0  0  0  0  0  0  0
   -3.9897   -2.3763    0.6820 H   0  0  0  0  0  0  0  0  0  0  0  0
   -3.2374   -3.5042   -0.4734 H   0  0  0  0  0  0  0  0  0  0  0  0
   -1.8363   -2.3627    0.6958 C   0  0  0  0  0  0  0  0  0  0  0  0
   -1.0555   -2.7209    1.5575 O   0  0  0  0  0  0  0  0  0  0  0  0
   -1.5096   -1.2931   -0.1211 N   0  0  0  0  0  0  0  0  0  0  0  0
   -2.1502   -1.1251   -0.8932 H   0  0  0  0  0  0  0  0  0  0  0  0
   -0.1574   -0.6882   -0.1761 C   0  0  1  0  0  0  0  0  0  0  0  0
    0.5629   -1.4873   -0.3929 H   0  0  0  0  0  0  0  0  0  0  0  0
   -0.0875    0.3312   -1.3554 C   0  0  0  0  0  0  0  0  0  0  0  0
    0.4134   -0.1660   -2.1931 H   0  0  0  0  0  0  0  0  0  0  0  0
   -1.1114    0.5392   -1.6819 H   0  0  0  0  0  0  0  0  0  0  0  0
    0.5609    1.6939   -1.1416 C   0  0  0  0  0  0  0  0  0  0  0  0
    0.6530    2.4838    0.0098 N   0  3  0  0  0  0  0  0  0  0  0  0
    0.3831    2.1263    0.9351 H   0  0  0  0  0  0  0  0  0  0  0  0
    1.3566    3.5642   -0.2184 C   0  0  0  0  0  0  0  0  0  0  0  0
    1.6488    4.3127    0.5204 H   0  0  0  0  0  0  0  0  0  0  0  0
    1.6986    3.5509   -1.5661 N   0  0  0  0  0  0  0  0  0  0  0  0
    2.2687    4.2552   -2.0442 H   0  0  0  0  0  0  0  0  0  0  0  0
    1.2169    2.3790   -2.1367 C   0  0  0  0  0  0  0  0  0  0  0  0
    1.3484    2.0520   -3.1683 H   0  0  0  0  0  0  0  0  0  0  0  0
    0.2775   -0.1351    1.2009 C   0  0  0  0  0  0  0  0  0  0  0  0
    1.4656    0.0464    1.4234 O   0  0  0  0  0  0  0  0  0  0  0  0
   -0.6212    0.6060    1.9526 N   0  0  0  0  0  0  0  0  0  0  0  0
   -1.5921    0.3359    1.8016 H   0  0  0  0  0  0  0  0  0  0  0  0
   -0.2796    1.0719    3.2970 C   0  0  0  0  0  0  0  0  0  0  0  0
    0.5960    1.7294    3.2777 H   0  0  0  0  0  0  0  0  0  0  0  0
   -1.1161    1.6293    3.7303 H   0  0  0  0  0  0  0  0  0  0  0  0
   -0.0584    0.2202    3.9503 H   0  0  0  0  0  0  0  0  0  0  0  0
  1  2  1  0  0  0  0
  2  3  1  0  0  0  0
  2  4  1  0  0  0  0
  2  5  1  0  0  0  0
  5  6  2  0  0  0  0
  5  7  1  0  0  0  0
  7  8  1  0  0  0  0
  7  9  1  0  0  0  0
  9 10  1  0  0  0  0
  9 11  1  0  0  0  0
  9 23  1  0  0  0  0
 11 12  1  0  0  0  0
 11 13  1  0  0  0  0
 11 14  1  0  0  0  0
 14 15  1  0  0  0  0
 14 21  2  0  0  0  0
 15 16  1  0  0  0  0
 15 17  2  0  0  0  0
 17 18  1  0  0  0  0
 17 19  1  0  0  0  0
 19 20  1  0  0  0  0
 19 21  1  0  0  0  0
 21 22  1  0  0  0  0
 23 24  2  0  0  0  0
 23 25  1  0  0  0  0
 25 26  1  0  0  0  0
 25 27  1  0  0  0  0
 27 28  1  0  0  0  0
 27 29  1  0  0  0  0
 27 30  1  0  0  0  0
M  CHG  1  15   1
M  END
$$$$

  -OEChem-04042216003D

 30 30  0     1  0  0  0  0  0999 V2000
   -3.2927   -3.8580    1.2446 H   0  0  0  0  0  0  0  0  0  0  0  0
   -3.1935   -3.0390    0.5256 C   0  0  0  0  0  0  0  0  0  0  0  0
   -3.9961   -2.3192    0.7018 H   0  0  0  0  0  0  0  0  0  0  0  0
   -3.2920   -3.4471   -0.4831 H   0  0  0  0  0  0  0  0  0  0  0  0
   -1.8431   -2.3674    0.6867 C   0  0  0  0  0  0  0  0  0  0  0  0
   -1.0605   -2.7652    1.5292 O   0  0  0  0  0  0  0  0  0  0  0  0
   -1.4946   -1.2969   -0.1203 N   0  0  0  0  0  0  0  0  0  0  0  0
   -2.1428   -1.0898   -0.8761 H   0  0  0  0  0  0  0  0  0  0  0  0
   -0.1340   -0.7096   -0.1658 C   0  0  1  0  0  0  0  0  0  0  0  0
    0.5809   -1.5118   -0.3884 H   0  0  0  0  0  0  0  0  0  0  0  0
   -0.0558    0.3281   -1.3315 C   0  0  0  0  0  0  0  0  0  0  0  0
    0.4419   -0.1659   -2.1734 H   0  0  0  0  0  0  0  0  0  0  0  0
   -1.0783    0.5447   -1.6567 H   0  0  0  0  0  0  0  0  0  0  0  0
    0.6057    1.6877   -1.1250 C   0  0  0  0  0  0  0  0  0  0  0  0
    0.9714    2.3664    0.0429 N   0  3  0  0  0  0  0  0  0  0  0  0
    0.9706    1.8987    0.9612 H   0  0  0  0  0  0  0  0  0  0  0  0
    1.5517    3.5063   -0.2354 C   0  0  0  0  0  0  0  0  0  0  0  0
    1.9999    4.1944    0.4836 H   0  0  0  0  0  0  0  0  0  0  0  0
    1.5270    3.6473   -1.6183 N   0  0  0  0  0  0  0  0  0  0  0  0
    1.9189    4.4339   -2.1452 H   0  0  0  0  0  0  0  0  0  0  0  0
    0.9512    2.5097   -2.1718 C   0  0  0  0  0  0  0  0  0  0  0  0
    0.8090    2.2994   -3.2320 H   0  0  0  0  0  0  0  0  0  0  0  0
    0.2820   -0.1776    1.2259 C   0  0  0  0  0  0  0  0  0  0  0  0
    1.4674   -0.0020    1.4732 O   0  0  0  0  0  0  0  0  0  0  0  0
   -0.6202    0.5628    1.9711 N   0  0  0  0  0  0  0  0  0  0  0  0
   -1.5948    0.3333    1.7857 H   0  0  0  0  0  0  0  0  0  0  0  0
   -0.3026    1.0352    3.3187 C   0  0  0  0  0  0  0  0  0  0  0  0
    0.5364    1.7386    3.3019 H   0  0  0  0  0  0  0  0  0  0  0  0
   -1.1675    1.5450    3.7557 H   0  0  0  0  0  0  0  0  0  0  0  0
   -0.0369    0.1921    3.9667 H   0  0  0  0  0  0  0  0  0  0  0  0
  1  2  1  0  0  0  0
  2  3  1  0  0  0  0
  2  4  1  0  0  0  0
  2  5  1  0  0  0  0
  5  6  2  0  0  0  0
  5  7  1  0  0  0  0
  7  8  1  0  0  0  0
  7  9  1  0  0  0  0
  9 10  1  0  0  0  0
  9 11  1  0  0  0  0
  9 23  1  0  0  0  0
 11 12  1  0  0  0  0
 11 13  1  0  0  0  0
 11 14  1  0  0  0  0
 14 15  1  0  0  0  0
 14 21  2  0  0  0  0
 15 16  1  0  0  0  0
 15 17  2  0  0  0  0
 17 18  1  0  0  0  0
 17 19  1  0  0  0  0
 19 20  1  0  0  0  0
 19 21  1  0  0  0  0
 21 22  1  0  0  0  0
 23 24  2  0  0  0  0
 23 25  1  0  0  0  0
 25 26  1  0  0  0  0
 25 27  1  0  0  0  0
 27 28  1  0  0  0  0
 27 29  1  0  0  0  0
 27 30  1  0  0  0  0
M  CHG  1  15   1
M  END
$$$$

  -OEChem-04042216003D

 30 30  0     1  0  0  0  0  0999 V2000
   -3.3215   -3.8326    1.2470 H   0  0  0  0  0  0  0  0  0  0  0  0
   -3.2140   -3.0151    0.5276 C   0  0  0  0  0  0  0  0  0  0  0  0
   -4.0052   -2.2838    0.7086 H   0  0  0  0  0  0  0  0  0  0  0  0
   -3.3235   -3.4217   -0.4807 H   0  0  0  0  0  0  0  0  0  0  0  0
   -1.8531   -2.3638    0.6821 C   0  0  0  0  0  0  0  0  0  0  0  0
   -1.0706   -2.7778    1.5168 O   0  0  0  0  0  0  0  0  0  0  0  0
   -1.4934   -1.2955   -0.1232 N   0  0  0  0  0  0  0  0  0  0  0  0
   -2.1434   -1.0725   -0.8727 H   0  0  0  0  0  0  0  0  0  0  0  0
   -0.1271   -0.7212   -0.1647 C   0  0  1  0  0  0  0  0  0  0  0  0
    0.5799   -1.5303   -0.3878 H   0  0  0  0  0  0  0  0  0  0  0  0
   -0.0414    0.3166   -1.3304 C   0  0  0  0  0  0  0  0  0  0  0  0
    0.4685   -0.1811   -2.1625 H   0  0  0  0  0  0  0  0  0  0  0  0
   -1.0592    0.5303   -1.6716 H   0  0  0  0  0  0  0  0  0  0  0  0
    0.6286    1.6736   -1.1298 C   0  0  0  0  0  0  0  0  0  0  0  0
    1.2464    2.2381   -0.0082 N   0  3  0  0  0  0  0  0  0  0  0  0
    1.4235    1.6908    0.8486 H   0  0  0  0  0  0  0  0  0  0  0  0
    1.7080    3.4339   -0.2702 C   0  0  0  0  0  0  0  0  0  0  0  0
    2.2741    4.0700    0.4128 H   0  0  0  0  0  0  0  0  0  0  0  0
    1.3645    3.7196   -1.5869 N   0  0  0  0  0  0  0  0  0  0  0  0
    1.5953    4.5818   -2.0900 H   0  0  0  0  0  0  0  0  0  0  0  0
    0.7001    2.6223   -2.1234 C   0  0  0  0  0  0  0  0  0  0  0  0
    0.3150    2.5245   -3.1387 H   0  0  0  0  0  0  0  0  0  0  0  0
    0.2913   -0.1946    1.2284 C   0  0  0  0  0  0  0  0  0  0  0  0
    1.4817   -0.0712    1.4908 O   0  0  0  0  0  0  0  0  0  0  0  0
   -0.6006    0.5540    1.9757 N   0  0  0  0  0  0  0  0  0  0  0  0
   -1.5797    0.3586    1.7786 H   0  0  0  0  0  0  0  0  0  0  0  0
   -0.2773    1.0297    3.3198 C   0  0  0  0  0  0  0  0  0  0  0  0
    0.5831    1.7067    3.3004 H   0  0  0  0  0  0  0  0  0  0  0  0
   -1.1278    1.5714    3.7461 H   0  0  0  0  0  0  0  0  0  0  0  0
   -0.0423    0.1851    3.9776 H   0  0  0  0  0  0  0  0  0  0  0  0
  1  2  1  0  0  0  0
  2  3  1  0  0  0  0
  2  4  1  0  0  0  0
  2  5  1  0  0  0  0
  5  6  2  0  0  0  0
  5  7  1  0  0  0  0
  7  8  1  0  0  0  0
  7  9  1  0  0  0  0
  9 10  1  0  0  0  0
  9 11  1  0  0  0  0
  9 23  1  0  0  0  0
 11 12  1  0  0  0  0
 11 13  1  0  0  0  0
 11 14  1  0  0  0  0
 14 15  1  0  0  0  0
 14 21  2  0  0  0  0
 15 16  1  0  0  0  0
 15 17  2  0  0  0  0
 17 18  1  0  0  0  0
 17 19  1  0  0  0  0
 19 20  1  0  0  0  0
 19 21  1  0  0  0  0
 21 22  1  0  0  0  0
 23 24  2  0  0  0  0
 23 25  1  0  0  0  0
 25 26  1  0  0  0  0
 25 27  1  0  0  0  0
 27 28  1  0  0  0  0
 27 29  1  0  0  0  0
 27 30  1  0  0  0  0
M  CHG  1  15   1
M  END
$$$$

  -OEChem-04042216003D

 30 30  0     1  0  0  0  0  0999 V2000
   -3.3289   -3.8229    1.2595 H   0  0  0  0  0  0  0  0  0  0  0  0
   -3.2241   -3.0036    0.5417 C   0  0  0  0  0  0  0  0  0  0  0  0
   -4.0072   -2.2670    0.7354 H   0  0  0  0  0  0  0  0  0  0  0  0
   -3.3501   -3.4052   -0.4666 H   0  0  0  0  0  0  0  0  0  0  0  0
   -1.8561   -2.3634    0.6808 C   0  0  0  0  0  0  0  0  0  0  0  0
   -1.0667   -2.7857    1.5048 O   0  0  0  0  0  0  0  0  0  0  0  0
   -1.4965   -1.2988   -0.1292 N   0  0  0  0  0  0  0  0  0  0  0  0
   -2.1528   -1.0676   -0.8705 H   0  0  0  0  0  0  0  0  0  0  0  0
   -0.1297   -0.7275   -0.1743 C   0  0  1  0  0  0  0  0  0  0  0  0
    0.5730   -1.5408   -0.3955 H   0  0  0  0  0  0  0  0  0  0  0  0
   -0.0428    0.3025   -1.3456 C   0  0  0  0  0  0  0  0  0  0  0  0
    0.4820   -0.1987   -2.1664 H   0  0  0  0  0  0  0  0  0  0  0  0
   -1.0567    0.5075   -1.7032 H   0  0  0  0  0  0  0  0  0  0  0  0
    0.6303    1.6566   -1.1426 C   0  0  0  0  0  0  0  0  0  0  0  0
    1.4772    2.1062   -0.1233 N   0  3  0  0  0  0  0  0  0  0  0  0
    1.7818    1.4907    0.6482 H   0  0  0  0  0  0  0  0  0  0  0  0
    1.8458    3.3458   -0.3220 C   0  0  0  0  0  0  0  0  0  0  0  0
    2.5174    3.9281    0.3117 H   0  0  0  0  0  0  0  0  0  0  0  0
    1.2269    3.7669   -1.4941 N   0  0  0  0  0  0  0  0  0  0  0  0
    1.3258    4.6930   -1.9211 H   0  0  0  0  0  0  0  0  0  0  0  0
    0.4713    2.7166   -2.0043 C   0  0  0  0  0  0  0  0  0  0  0  0
   -0.1271    2.7249   -2.9154 H   0  0  0  0  0  0  0  0  0  0  0  0
    0.2994   -0.1939    1.2128 C   0  0  0  0  0  0  0  0  0  0  0  0
    1.4939   -0.1180    1.4801 O   0  0  0  0  0  0  0  0  0  0  0  0
   -0.5812    0.5629    1.9644 N   0  0  0  0  0  0  0  0  0  0  0  0
   -1.5647    0.3912    1.7693 H   0  0  0  0  0  0  0  0  0  0  0  0
   -0.2393    1.0586    3.2958 C   0  0  0  0  0  0  0  0  0  0  0  0
    0.6011    1.7588    3.2472 H   0  0  0  0  0  0  0  0  0  0  0  0
   -1.0941    1.5805    3.7378 H   0  0  0  0  0  0  0  0  0  0  0  0
    0.0357    0.2273    3.9549 H   0  0  0  0  0  0  0  0  0  0  0  0
  1  2  1  0  0  0  0
  2  3  1  0  0  0  0
  2  4  1  0  0  0  0
  2  5  1  0  0  0  0
  5  6  2  0  0  0  0
  5  7  1  0  0  0  0
  7  8  1  0  0  0  0
  7  9  1  0  0  0  0
  9 10  1  0  0  0  0
  9 11  1  0  0  0  0
  9 23  1  0  0  0  0
 11 12  1  0  0  0  0
 11 13  1  0  0  0  0
 11 14  1  0  0  0  0
 14 15  1  0  0  0  0
 14 21  2  0  0  0  0
 15 16  1  0  0  0  0
 15 17  2  0  0  0  0
 17 18  1  0  0  0  0
 17 19  1  0  0  0  0
 19 20  1  0  0  0  0
 19 21  1  0  0  0  0
 21 22  1  0  0  0  0
 23 24  2  0  0  0  0
 23 25  1  0  0  0  0
 25 26  1  0  0  0  0
 25 27  1  0  0  0  0
 27 28  1  0  0  0  0
 27 29  1  0  0  0  0
 27 30  1  0  0  0  0
M  CHG  1  15   1
M  END
$$$$

  -OEChem-04042216003D

 30 30  0     1  0  0  0  0  0999 V2000
   -3.3052   -3.8344    1.2779 H   0  0  0  0  0  0  0  0  0  0  0  0
   -3.2122   -3.0189    0.5545 C   0  0  0  0  0  0  0  0  0  0  0  0
   -4.0043   -2.2907    0.7443 H   0  0  0  0  0  0  0  0  0  0  0  0
   -3.3347   -3.4292   -0.4508 H   0  0  0  0  0  0  0  0  0  0  0  0
   -1.8526   -2.3603    0.6866 C   0  0  0  0  0  0  0  0  0  0  0  0
   -1.0550   -2.7675    1.5106 O   0  0  0  0  0  0  0  0  0  0  0  0
   -1.5073   -1.2989   -0.1333 N   0  0  0  0  0  0  0  0  0  0  0  0
   -2.1686   -1.0798   -0.8739 H   0  0  0  0  0  0  0  0  0  0  0  0
   -0.1454   -0.7189   -0.1882 C   0  0  1  0  0  0  0  0  0  0  0  0
    0.5559   -1.5347   -0.4050 H   0  0  0  0  0  0  0  0  0  0  0  0
   -0.0635    0.2936   -1.3730 C   0  0  0  0  0  0  0  0  0  0  0  0
    0.4748   -0.2098   -2.1835 H   0  0  0  0  0  0  0  0  0  0  0  0
   -1.0752    0.4870   -1.7433 H   0  0  0  0  0  0  0  0  0  0  0  0
    0.6049    1.6463   -1.1603 C   0  0  0  0  0  0  0  0  0  0  0  0
    1.6474    1.9866   -0.2920 N   0  3  0  0  0  0  0  0  0  0  0  0
    2.0379    1.3123    0.3864 H   0  0  0  0  0  0  0  0  0  0  0  0
    1.9538    3.2545   -0.3940 C   0  0  0  0  0  0  0  0  0  0  0  0
    2.7144    3.7813    0.1856 H   0  0  0  0  0  0  0  0  0  0  0  0
    1.1194    3.7945   -1.3675 N   0  0  0  0  0  0  0  0  0  0  0  0
    1.1233    4.7699   -1.6814 H   0  0  0  0  0  0  0  0  0  0  0  0
    0.2753    2.7950   -1.8403 C   0  0  0  0  0  0  0  0  0  0  0  0
   -0.4933    2.8967   -2.6064 H   0  0  0  0  0  0  0  0  0  0  0  0
    0.3051   -0.1669    1.1853 C   0  0  0  0  0  0  0  0  0  0  0  0
    1.5049   -0.1179    1.4389 O   0  0  0  0  0  0  0  0  0  0  0  0
   -0.5610    0.5964    1.9464 N   0  0  0  0  0  0  0  0  0  0  0  0
   -1.5482    0.4312    1.7665 H   0  0  0  0  0  0  0  0  0  0  0  0
   -0.1944    1.0997    3.2677 C   0  0  0  0  0  0  0  0  0  0  0  0
    0.6720    1.7662    3.2040 H   0  0  0  0  0  0  0  0  0  0  0  0
   -1.0262    1.6609    3.7050 H   0  0  0  0  0  0  0  0  0  0  0  0
    0.0519    0.2689    3.9384 H   0  0  0  0  0  0  0  0  0  0  0  0
  1  2  1  0  0  0  0
  2  3  1  0  0  0  0
  2  4  1  0  0  0  0
  2  5  1  0  0  0  0
  5  6  2  0  0  0  0
  5  7  1  0  0  0  0
  7  8  1  0  0  0  0
  7  9  1  0  0  0  0
  9 10  1  0  0  0  0
  9 11  1  0  0  0  0
  9 23  1  0  0  0  0
 11 12  1  0  0  0  0
 11 13  1  0  0  0  0
 11 14  1  0  0  0  0
 14 15  1  0  0  0  0
 14 21  2  0  0  0  0
 15 16  1  0  0  0  0
 15 17  2  0  0  0  0
 17 18  1  0  0  0  0
 17 19  1  0  0  0  0
 19 20  1  0  0  0  0
 19 21  1  0  0  0  0
 21 22  1  0  0  0  0
 23 24  2  0  0  0  0
 23 25  1  0  0  0  0
 25 26  1  0  0  0  0
 25 27  1  0  0  0  0
 27 28  1  0  0  0  0
 27 29  1  0  0  0  0
 27 30  1  0  0  0  0
M  CHG  1  15   1
M  END
$$$$

  -OEChem-04042216003D

 30 30  0     1  0  0  0  0  0999 V2000
   -3.2685   -3.8599    1.2962 H   0  0  0  0  0  0  0  0  0  0  0  0
   -3.1928   -3.0485    0.5661 C   0  0  0  0  0  0  0  0  0  0  0  0
   -3.9959   -2.3322    0.7549 H   0  0  0  0  0  0  0  0  0  0  0  0
   -3.3132   -3.4684   -0.4353 H   0  0  0  0  0  0  0  0  0  0  0  0
   -1.8437   -2.3664    0.6861 C   0  0  0  0  0  0  0  0  0  0  0  0
   -1.0351   -2.7526    1.5096 O   0  0  0  0  0  0  0  0  0  0  0  0
   -1.5209   -1.3042   -0.1415 N   0  0  0  0  0  0  0  0  0  0  0  0
   -2.1886   -1.1011   -0.8808 H   0  0  0  0  0  0  0  0  0  0  0  0
   -0.1678   -0.7068   -0.2082 C   0  0  1  0  0  0  0  0  0  0  0  0
    0.5362   -1.5204   -0.4246 H   0  0  0  0  0  0  0  0  0  0  0  0
   -0.0928    0.2926   -1.4017 C   0  0  0  0  0  0  0  0  0  0  0  0
    0.4519   -0.2050   -2.2117 H   0  0  0  0  0  0  0  0  0  0  0  0
   -1.1049    0.4807   -1.7738 H   0  0  0  0  0  0  0  0  0  0  0  0
    0.5674    1.6415   -1.1612 C   0  0  0  0  0  0  0  0  0  0  0  0
    1.7684    1.8908   -0.4897 N   0  3  0  0  0  0  0  0  0  0  0  0
    2.2276    1.1680    0.0872 H   0  0  0  0  0  0  0  0  0  0  0  0
    2.0404    3.1710   -0.4817 C   0  0  0  0  0  0  0  0  0  0  0  0
    2.8818    3.6462    0.0261 H   0  0  0  0  0  0  0  0  0  0  0  0
    1.0382    3.8046   -1.2106 N   0  0  0  0  0  0  0  0  0  0  0  0
    0.9784    4.8115   -1.3901 H   0  0  0  0  0  0  0  0  0  0  0  0
    0.1136    2.8521   -1.6268 C   0  0  0  0  0  0  0  0  0  0  0  0
   -0.7889    3.0258   -2.2127 H   0  0  0  0  0  0  0  0  0  0  0  0
    0.3074   -0.1356    1.1495 C   0  0  0  0  0  0  0  0  0  0  0  0
    1.5134   -0.0889    1.3756 O   0  0  0  0  0  0  0  0  0  0  0  0
   -0.5469    0.6282    1.9232 N   0  0  0  0  0  0  0  0  0  0  0  0
   -1.5369    0.4549    1.7682 H   0  0  0  0  0  0  0  0  0  0  0  0
   -0.1509    1.1546    3.2269 C   0  0  0  0  0  0  0  0  0  0  0  0
    0.7218    1.8093    3.1337 H   0  0  0  0  0  0  0  0  0  0  0  0
   -0.9680    1.7354    3.6666 H   0  0  0  0  0  0  0  0  0  0  0  0
    0.0981    0.3348    3.9102 H   0  0  0  0  0  0  0  0  0  0  0  0
  1  2  1  0  0  0  0
  2  3  1  0  0  0  0
  2  4  1  0  0  0  0
  2  5  1  0  0  0  0
  5  6  2  0  0  0  0
  5  7  1  0  0  0  0
  7  8  1  0  0  0  0
  7  9  1  0  0  0  0
  9 10  1  0  0  0  0
  9 11  1  0  0  0  0
  9 23  1  0  0  0  0
 11 12  1  0  0  0  0
 11 13  1  0  0  0  0
 11 14  1  0  0  0  0
 14 15  1  0  0  0  0
 14 21  2  0  0  0  0
 15 16  1  0  0  0  0
 15 17  2  0  0  0  0
 17 18  1  0  0  0  0
 17 19  1  0  0  0  0
 19 20  1  0  0  0  0
 19 21  1  0  0  0  0
 21 22  1  0  0  0  0
 23 24  2  0  0  0  0
 23 25  1  0  0  0  0
 25 26  1  0  0  0  0
 25 27  1  0  0  0  0
 27 28  1  0  0  0  0
 27 29  1  0  0  0  0
 27 30  1  0  0  0  0
M  CHG  1  15   1
M  END
$$$$

  -OEChem-04042216003D

 30 30  0     1  0  0  0  0  0999 V2000
   -3.2329   -3.8940    1.2957 H   0  0  0  0  0  0  0  0  0  0  0  0
   -3.1784   -3.0776    0.5691 C   0  0  0  0  0  0  0  0  0  0  0  0
   -3.9926   -2.3770    0.7684 H   0  0  0  0  0  0  0  0  0  0  0  0
   -3.3003   -3.4946   -0.4335 H   0  0  0  0  0  0  0  0  0  0  0  0
   -1.8410   -2.3710    0.6818 C   0  0  0  0  0  0  0  0  0  0  0  0
   -1.0243   -2.7371    1.5065 O   0  0  0  0  0  0  0  0  0  0  0  0
   -1.5388   -1.3067   -0.1506 N   0  0  0  0  0  0  0  0  0  0  0  0
   -2.2094   -1.1208   -0.8919 H   0  0  0  0  0  0  0  0  0  0  0  0
   -0.1945   -0.6925   -0.2253 C   0  0  1  0  0  0  0  0  0  0  0  0
    0.5114   -1.5054   -0.4376 H   0  0  0  0  0  0  0  0  0  0  0  0
   -0.1163    0.2915   -1.4278 C   0  0  0  0  0  0  0  0  0  0  0  0
    0.4344   -0.2006   -2.2370 H   0  0  0  0  0  0  0  0  0  0  0  0
   -1.1268    0.4796   -1.8038 H   0  0  0  0  0  0  0  0  0  0  0  0
    0.5365    1.6331   -1.1520 C   0  0  0  0  0  0  0  0  0  0  0  0
    1.8479    1.8316   -0.7115 N   0  3  0  0  0  0  0  0  0  0  0  0
    2.3886    1.0714   -0.2742 H   0  0  0  0  0  0  0  0  0  0  0  0
    2.0987    3.1107   -0.5878 C   0  0  0  0  0  0  0  0  0  0  0  0
    3.0092    3.5489   -0.1746 H   0  0  0  0  0  0  0  0  0  0  0  0
    0.9717    3.7963   -1.0333 N   0  0  0  0  0  0  0  0  0  0  0  0
    0.8679    4.8151   -1.0634 H   0  0  0  0  0  0  0  0  0  0  0  0
   -0.0096    2.8729   -1.3775 C   0  0  0  0  0  0  0  0  0  0  0  0
   -1.0098    3.0854   -1.7550 H   0  0  0  0  0  0  0  0  0  0  0  0
    0.3049   -0.1040    1.1166 C   0  0  0  0  0  0  0  0  0  0  0  0
    1.5166   -0.0442    1.3083 O   0  0  0  0  0  0  0  0  0  0  0  0
   -0.5377    0.6601    1.9030 N   0  0  0  0  0  0  0  0  0  0  0  0
   -1.5293    0.4704    1.7812 H   0  0  0  0  0  0  0  0  0  0  0  0
   -0.1080    1.2112    3.1855 C   0  0  0  0  0  0  0  0  0  0  0  0
    0.7273    1.9059    3.0487 H   0  0  0  0  0  0  0  0  0  0  0  0
   -0.9311    1.7540    3.6611 H   0  0  0  0  0  0  0  0  0  0  0  0
    0.2113    0.4083    3.8596 H   0  0  0  0  0  0  0  0  0  0  0  0
  1  2  1  0  0  0  0
  2  3  1  0  0  0  0
  2  4  1  0  0  0  0
  2  5  1  0  0  0  0
  5  6  2  0  0  0  0
  5  7  1  0  0  0  0
  7  8  1  0  0  0  0
  7  9  1  0  0  0  0
  9 10  1  0  0  0  0
  9 11  1  0  0  0  0
  9 23  1  0  0  0  0
 11 12  1  0  0  0  0
 11 13  1  0  0  0  0
 11 14  1  0  0  0  0
 14 15  1  0  0  0  0
 14 21  2  0  0  0  0
 15 16  1  0  0  0  0
 15 17  2  0  0  0  0
 17 18  1  0  0  0  0
 17 19  1  0  0  0  0
 19 20  1  0  0  0  0
 19 21  1  0  0  0  0
 21 22  1  0  0  0  0
 23 24  2  0  0  0  0
 23 25  1  0  0  0  0
 25 26  1  0  0  0  0
 25 27  1  0  0  0  0
 27 28  1  0  0  0  0
 27 29  1  0  0  0  0
 27 30  1  0  0  0  0
M  CHG  1  15   1
M  END
$$$$

  -OEChem-04042216003D

 30 30  0     1  0  0  0  0  0999 V2000
   -3.2110   -3.9018    1.3139 H   0  0  0  0  0  0  0  0  0  0  0  0
   -3.1639   -3.0936    0.5778 C   0  0  0  0  0  0  0  0  0  0  0  0
   -3.9845   -2.3982    0.7690 H   0  0  0  0  0  0  0  0  0  0  0  0
   -3.2816   -3.5233   -0.4198 H   0  0  0  0  0  0  0  0  0  0  0  0
   -1.8335   -2.3731    0.6820 C   0  0  0  0  0  0  0  0  0  0  0  0
   -1.0111   -2.7241    1.5076 O   0  0  0  0  0  0  0  0  0  0  0  0
   -1.5451   -1.3117   -0.1586 N   0  0  0  0  0  0  0  0  0  0  0  0
   -2.2209   -1.1366   -0.8978 H   0  0  0  0  0  0  0  0  0  0  0  0
   -0.2066   -0.6867   -0.2445 C   0  0  1  0  0  0  0  0  0  0  0  0
    0.5027   -1.4974   -0.4538 H   0  0  0  0  0  0  0  0  0  0  0  0
   -0.1308    0.2905   -1.4506 C   0  0  0  0  0  0  0  0  0  0  0  0
    0.4124   -0.1943   -2.2689 H   0  0  0  0  0  0  0  0  0  0  0  0
   -1.1435    0.4864   -1.8165 H   0  0  0  0  0  0  0  0  0  0  0  0
    0.5211    1.6226   -1.1437 C   0  0  0  0  0  0  0  0  0  0  0  0
    1.8923    1.8258   -0.9732 N   0  3  0  0  0  0  0  0  0  0  0  0
    2.5378    1.0481   -0.7949 H   0  0  0  0  0  0  0  0  0  0  0  0
    2.1342    3.0883   -0.7227 C   0  0  0  0  0  0  0  0  0  0  0  0
    3.1020    3.5161   -0.4543 H   0  0  0  0  0  0  0  0  0  0  0  0
    0.9221    3.7679   -0.8139 N   0  0  0  0  0  0  0  0  0  0  0  0
    0.7906    4.7731   -0.6667 H   0  0  0  0  0  0  0  0  0  0  0  0
   -0.0899    2.8501   -1.0722 C   0  0  0  0  0  0  0  0  0  0  0  0
   -1.1534    3.0567   -1.1888 H   0  0  0  0  0  0  0  0  0  0  0  0
    0.3035   -0.0829    1.0872 C   0  0  0  0  0  0  0  0  0  0  0  0
    1.5162    0.0010    1.2566 O   0  0  0  0  0  0  0  0  0  0  0  0
   -0.5395    0.6815    1.8740 N   0  0  0  0  0  0  0  0  0  0  0  0
   -1.5280    0.4643    1.7771 H   0  0  0  0  0  0  0  0  0  0  0  0
   -0.0976    1.2588    3.1407 C   0  0  0  0  0  0  0  0  0  0  0  0
    0.7409    1.9450    2.9831 H   0  0  0  0  0  0  0  0  0  0  0  0
   -0.9138    1.8176    3.6093 H   0  0  0  0  0  0  0  0  0  0  0  0
    0.2213    0.4696    3.8306 H   0  0  0  0  0  0  0  0  0  0  0  0
  1  2  1  0  0  0  0
  2  3  1  0  0  0  0
  2  4  1  0  0  0  0
  2  5  1  0  0  0  0
  5  6  2  0  0  0  0
  5  7  1  0  0  0  0
  7  8  1  0  0  0  0
  7  9  1  0  0  0  0
  9 10  1  0  0  0  0
  9 11  1  0  0  0  0
  9 23  1  0  0  0  0
 11 12  1  0  0  0  0
 11 13  1  0  0  0  0
 11 14  1  0  0  0  0
 14 15  1  0  0  0  0
 14 21  2  0  0  0  0
 15 16  1  0  0  0  0
 15 17  2  0  0  0  0
 17 18  1  0  0  0  0
 17 19  1  0  0  0  0
 19 20  1  0  0  0  0
 19 21  1  0  0  0  0
 21 22  1  0  0  0  0
 23 24  2  0  0  0  0
 23 25  1  0  0  0  0
 25 26  1  0  0  0  0
 25 27  1  0  0  0  0
 27 28  1  0  0  0  0
 27 29  1  0  0  0  0
 27 30  1  0  0  0  0
M  CHG  1  15   1
M  END
$$$$

  -OEChem-04042216003D

 30 30  0     1  0  0  0  0  0999 V2000
   -3.2051   -3.9038    1.3163 H   0  0  0  0  0  0  0  0  0  0  0  0
   -3.1596   -3.0983    0.5774 C   0  0  0  0  0  0  0  0  0  0  0  0
   -3.9875   -2.4091    0.7596 H   0  0  0  0  0  0  0  0  0  0  0  0
   -3.2663   -3.5332   -0.4193 H   0  0  0  0  0  0  0  0  0  0  0  0
   -1.8357   -2.3669    0.6875 C   0  0  0  0  0  0  0  0  0  0  0  0
   -1.0173   -2.7064    1.5216 O   0  0  0  0  0  0  0  0  0  0  0  0
   -1.5497   -1.3091   -0.1582 N   0  0  0  0  0  0  0  0  0  0  0  0
   -2.2197   -1.1499   -0.9061 H   0  0  0  0  0  0  0  0  0  0  0  0
   -0.2114   -0.6843   -0.2498 C   0  0  1  0  0  0  0  0  0  0  0  0
    0.4987   -1.4951   -0.4559 H   0  0  0  0  0  0  0  0  0  0  0  0
   -0.1345    0.2894   -1.4577 C   0  0  0  0  0  0  0  0  0  0  0  0
    0.3979   -0.1962   -2.2825 H   0  0  0  0  0  0  0  0  0  0  0  0
   -1.1487    0.4951   -1.8141 H   0  0  0  0  0  0  0  0  0  0  0  0
    0.5219    1.6157   -1.1420 C   0  0  0  0  0  0  0  0  0  0  0  0
    1.8871    1.8841   -1.2555 N   0  3  0  0  0  0  0  0  0  0  0  0
    2.5835    1.1458   -1.3927 H   0  0  0  0  0  0  0  0  0  0  0  0
    2.1361    3.1199   -0.8987 C   0  0  0  0  0  0  0  0  0  0  0  0
    3.1225    3.5788   -0.8108 H   0  0  0  0  0  0  0  0  0  0  0  0
    0.9132    3.7230   -0.6155 N   0  0  0  0  0  0  0  0  0  0  0  0
    0.7847    4.6878   -0.2964 H   0  0  0  0  0  0  0  0  0  0  0  0
   -0.0984    2.7821   -0.7677 C   0  0  0  0  0  0  0  0  0  0  0  0
   -1.1653    2.9275   -0.6030 H   0  0  0  0  0  0  0  0  0  0  0  0
    0.2998   -0.0755    1.0800 C   0  0  0  0  0  0  0  0  0  0  0  0
    1.5110    0.0269    1.2420 O   0  0  0  0  0  0  0  0  0  0  0  0
   -0.5470    0.6905    1.8627 N   0  0  0  0  0  0  0  0  0  0  0  0
   -1.5309    0.4465    1.7836 H   0  0  0  0  0  0  0  0  0  0  0  0
   -0.1013    1.2793    3.1230 C   0  0  0  0  0  0  0  0  0  0  0  0
    0.7436    1.9562    2.9581 H   0  0  0  0  0  0  0  0  0  0  0  0
   -0.9126    1.8507    3.5848 H   0  0  0  0  0  0  0  0  0  0  0  0
    0.2114    0.4953    3.8219 H   0  0  0  0  0  0  0  0  0  0  0  0
  1  2  1  0  0  0  0
  2  3  1  0  0  0  0
  2  4  1  0  0  0  0
  2  5  1  0  0  0  0
  5  6  2  0  0  0  0
  5  7  1  0  0  0  0
  7  8  1  0  0  0  0
  7  9  1  0  0  0  0
  9 10  1  0  0  0  0
  9 11  1  0  0  0  0
  9 23  1  0  0  0  0
 11 12  1  0  0  0  0
 11 13  1  0  0  0  0
 11 14  1  0  0  0  0
 14 15  1  0  0  0  0
 14 21  2  0  0  0  0
 15 16  1  0  0  0  0
 15 17  2  0  0  0  0
 17 18  1  0  0  0  0
 17 19  1  0  0  0  0
 19 20  1  0  0  0  0
 19 21  1  0  0  0  0
 21 22  1  0  0  0  0
 23 24  2  0  0  0  0
 23 25  1  0  0  0  0
 25 26  1  0  0  0  0
 25 27  1  0  0  0  0
 27 28  1  0  0  0  0
 27 29  1  0  0  0  0
 27 30  1  0  0  0  0
M  CHG  1  15   1
M  END
$$$$

  -OEChem-04042216003D

 30 30  0     1  0  0  0  0  0999 V2000
   -3.2133   -3.9152    1.2925 H   0  0  0  0  0  0  0  0  0  0  0  0
   -3.1682   -3.0985    0.5657 C   0  0  0  0  0  0  0  0  0  0  0  0
   -3.9961   -2.4122    0.7588 H   0  0  0  0  0  0  0  0  0  0  0  0
   -3.2759   -3.5183   -0.4373 H   0  0  0  0  0  0  0  0  0  0  0  0
   -1.8439   -2.3690    0.6868 C   0  0  0  0  0  0  0  0  0  0  0  0
   -1.0305   -2.7150    1.5230 O   0  0  0  0  0  0  0  0  0  0  0  0
   -1.5528   -1.3044   -0.1491 N   0  0  0  0  0  0  0  0  0  0  0  0
   -2.2227   -1.1348   -0.8950 H   0  0  0  0  0  0  0  0  0  0  0  0
   -0.2126   -0.6811   -0.2347 C   0  0  1  0  0  0  0  0  0  0  0  0
    0.4967   -1.4928   -0.4390 H   0  0  0  0  0  0  0  0  0  0  0  0
   -0.1225    0.2917   -1.4431 C   0  0  0  0  0  0  0  0  0  0  0  0
    0.4099   -0.2037   -2.2618 H   0  0  0  0  0  0  0  0  0  0  0  0
   -1.1339    0.4999   -1.8059 H   0  0  0  0  0  0  0  0  0  0  0  0
    0.5343    1.6229   -1.1435 C   0  0  0  0  0  0  0  0  0  0  0  0
    1.8254    1.9891   -1.5281 N   0  3  0  0  0  0  0  0  0  0  0  0
    2.4921    1.3256   -1.9316 H   0  0  0  0  0  0  0  0  0  0  0  0
    2.0967    3.2024   -1.1136 C   0  0  0  0  0  0  0  0  0  0  0  0
    3.0525    3.7203   -1.2109 H   0  0  0  0  0  0  0  0  0  0  0  0
    0.9484    3.6952   -0.4996 N   0  0  0  0  0  0  0  0  0  0  0  0
    0.8570    4.6137   -0.0554 H   0  0  0  0  0  0  0  0  0  0  0  0
   -0.0317    2.7107   -0.5246 C   0  0  0  0  0  0  0  0  0  0  0  0
   -1.0374    2.7703   -0.1097 H   0  0  0  0  0  0  0  0  0  0  0  0
    0.2930   -0.0864    1.1033 C   0  0  0  0  0  0  0  0  0  0  0  0
    1.5019    0.0312    1.2643 O   0  0  0  0  0  0  0  0  0  0  0  0
   -0.5587    0.6716    1.8898 N   0  0  0  0  0  0  0  0  0  0  0  0
   -1.5373    0.4029    1.8243 H   0  0  0  0  0  0  0  0  0  0  0  0
   -0.1099    1.2558    3.1514 C   0  0  0  0  0  0  0  0  0  0  0  0
    0.7270    1.9425    2.9850 H   0  0  0  0  0  0  0  0  0  0  0  0
   -0.9232    1.8159    3.6235 H   0  0  0  0  0  0  0  0  0  0  0  0
    0.2159    0.4698    3.8421 H   0  0  0  0  0  0  0  0  0  0  0  0
  1  2  1  0  0  0  0
  2  3  1  0  0  0  0
  2  4  1  0  0  0  0
  2  5  1  0  0  0  0
  5  6  2  0  0  0  0
  5  7  1  0  0  0  0
  7  8  1  0  0  0  0
  7  9  1  0  0  0  0
  9 10  1  0  0  0  0
  9 11  1  0  0  0  0
  9 23  1  0  0  0  0
 11 12  1  0  0  0  0
 11 13  1  0  0  0  0
 11 14  1  0  0  0  0
 14 15  1  0  0  0  0
 14 21  2  0  0  0  0
 15 16  1  0  0  0  0
 15 17  2  0  0  0  0
 17 18  1  0  0  0  0
 17 19  1  0  0  0  0
 19 20  1  0  0  0  0
 19 21  1  0  0  0  0
 21 22  1  0  0  0  0
 23 24  2  0  0  0  0
 23 25  1  0  0  0  0
 25 26  1  0  0  0  0
 25 27  1  0  0  0  0
 27 28  1  0  0  0  0
 27 29  1  0  0  0  0
 27 30  1  0  0  0  0
M  CHG  1  15   1
M  END
$$$$

  -OEChem-04042216003D

 30 30  0     1  0  0  0  0  0999 V2000
   -3.2292   -3.9166    1.2647 H   0  0  0  0  0  0  0  0  0  0  0  0
   -3.1787   -3.0873    0.5527 C   0  0  0  0  0  0  0  0  0  0  0  0
   -3.9965   -2.3944    0.7642 H   0  0  0  0  0  0  0  0  0  0  0  0
   -3.2982   -3.4873   -0.4570 H   0  0  0  0  0  0  0  0  0  0  0  0
   -1.8446   -2.3767    0.6774 C   0  0  0  0  0  0  0  0  0  0  0  0
   -1.0296   -2.7486    1.5008 O   0  0  0  0  0  0  0  0  0  0  0  0
   -1.5487   -1.2966   -0.1367 N   0  0  0  0  0  0  0  0  0  0  0  0
   -2.2239   -1.0982   -0.8707 H   0  0  0  0  0  0  0  0  0  0  0  0
   -0.2082   -0.6718   -0.2073 C   0  0  1  0  0  0  0  0  0  0  0  0
    0.4995   -1.4857   -0.4101 H   0  0  0  0  0  0  0  0  0  0  0  0
   -0.0972    0.2992   -1.4171 C   0  0  0  0  0  0  0  0  0  0  0  0
    0.4495   -0.2112   -2.2170 H   0  0  0  0  0  0  0  0  0  0  0  0
   -1.1018    0.4993   -1.8030 H   0  0  0  0  0  0  0  0  0  0  0  0
    0.5531    1.6433   -1.1479 C   0  0  0  0  0  0  0  0  0  0  0  0
    1.7086    2.1097   -1.7797 N   0  3  0  0  0  0  0  0  0  0  0  0
    2.2797    1.5238   -2.3944 H   0  0  0  0  0  0  0  0  0  0  0  0
    2.0174    3.3079   -1.3472 C   0  0  0  0  0  0  0  0  0  0  0  0
    2.8999    3.8889   -1.6214 H   0  0  0  0  0  0  0  0  0  0  0  0
    1.0215    3.6922   -0.4547 N   0  0  0  0  0  0  0  0  0  0  0  0
    0.9961    4.5714    0.0702 H   0  0  0  0  0  0  0  0  0  0  0  0
    0.0991    2.6603   -0.3421 C   0  0  0  0  0  0  0  0  0  0  0  0
   -0.7937    2.6438    0.2818 H   0  0  0  0  0  0  0  0  0  0  0  0
    0.2862   -0.1055    1.1458 C   0  0  0  0  0  0  0  0  0  0  0  0
    1.4920    0.0179    1.3175 O   0  0  0  0  0  0  0  0  0  0  0  0
   -0.5738    0.6337    1.9417 N   0  0  0  0  0  0  0  0  0  0  0  0
   -1.5496    0.3567    1.8662 H   0  0  0  0  0  0  0  0  0  0  0  0
   -0.1361    1.1841    3.2224 C   0  0  0  0  0  0  0  0  0  0  0  0
    0.6846    1.8950    3.0791 H   0  0  0  0  0  0  0  0  0  0  0  0
   -0.9614    1.7078    3.7149 H   0  0  0  0  0  0  0  0  0  0  0  0
    0.2093    0.3824    3.8848 H   0  0  0  0  0  0  0  0  0  0  0  0
  1  2  1  0  0  0  0
  2  3  1  0  0  0  0
  2  4  1  0  0  0  0
  2  5  1  0  0  0  0
  5  6  2  0  0  0  0
  5  7  1  0  0  0  0
  7  8  1  0  0  0  0
  7  9  1  0  0  0  0
  9 10  1  0  0  0  0
  9 11  1  0  0  0  0
  9 23  1  0  0  0  0
 11 12  1  0  0  0  0
 11 13  1  0  0  0  0
 11 14  1  0  0  0  0
 14 15  1  0  0  0  0
 14 21  2  0  0  0  0
 15 16  1  0  0  0  0
 15 17  2  0  0  0  0
 17 18  1  0  0  0  0
 17 19  1  0  0  0  0
 19 20  1  0  0  0  0
 19 21  1  0  0  0  0
 21 22  1  0  0  0  0
 23 24  2  0  0  0  0
 23 25  1  0  0  0  0
 25 26  1  0  0  0  0
 25 27  1  0  0  0  0
 27 28  1  0  0  0  0
 27 29  1  0  0  0  0
 27 30  1  0  0  0  0
M  CHG  1  15   1
M  END
$$$$

  -OEChem-04042216003D

 30 30  0     1  0  0  0  0  0999 V2000
   -3.2443   -3.9371    1.1897 H   0  0  0  0  0  0  0  0  0  0  0  0
   -3.1892   -3.0816    0.5097 C   0  0  0  0  0  0  0  0  0  0  0  0
   -4.0012   -2.3912    0.7492 H   0  0  0  0  0  0  0  0  0  0  0  0
   -3.3139   -3.4414   -0.5145 H   0  0  0  0  0  0  0  0  0  0  0  0
   -1.8498   -2.3858    0.6580 C   0  0  0  0  0  0  0  0  0  0  0  0
   -1.0377   -2.7898    1.4690 O   0  0  0  0  0  0  0  0  0  0  0  0
   -1.5456   -1.2819   -0.1202 N   0  0  0  0  0  0  0  0  0  0  0  0
   -2.2286   -1.0385   -0.8330 H   0  0  0  0  0  0  0  0  0  0  0  0
   -0.2058   -0.6530   -0.1615 C   0  0  1  0  0  0  0  0  0  0  0  0
    0.5001   -1.4697   -0.3608 H   0  0  0  0  0  0  0  0  0  0  0  0
   -0.0638    0.3121   -1.3743 C   0  0  0  0  0  0  0  0  0  0  0  0
    0.5145   -0.2158   -2.1397 H   0  0  0  0  0  0  0  0  0  0  0  0
   -1.0559    0.4904   -1.8007 H   0  0  0  0  0  0  0  0  0  0  0  0
    0.5712    1.6753   -1.1508 C   0  0  0  0  0  0  0  0  0  0  0  0
    1.5363    2.2246   -2.0008 N   0  3  0  0  0  0  0  0  0  0  0  0
    1.9518    1.7041   -2.7776 H   0  0  0  0  0  0  0  0  0  0  0  0
    1.8992    3.4144   -1.5876 C   0  0  0  0  0  0  0  0  0  0  0  0
    2.6682    4.0501   -2.0307 H   0  0  0  0  0  0  0  0  0  0  0  0
    1.1303    3.7097   -0.4675 N   0  0  0  0  0  0  0  0  0  0  0  0
    1.1973    4.5619    0.0971 H   0  0  0  0  0  0  0  0  0  0  0  0
    0.2894    2.6362   -0.2071 C   0  0  0  0  0  0  0  0  0  0  0  0
   -0.4416    2.5698    0.5961 H   0  0  0  0  0  0  0  0  0  0  0  0
    0.2756   -0.1262    1.2103 C   0  0  0  0  0  0  0  0  0  0  0  0
    1.4788    0.0021    1.3913 O   0  0  0  0  0  0  0  0  0  0  0  0
   -0.5899    0.5872    2.0236 N   0  0  0  0  0  0  0  0  0  0  0  0
   -1.5657    0.3152    1.9295 H   0  0  0  0  0  0  0  0  0  0  0  0
   -0.1633    1.0862    3.3295 C   0  0  0  0  0  0  0  0  0  0  0  0
    0.6751    1.7834    3.2250 H   0  0  0  0  0  0  0  0  0  0  0  0
   -0.9860    1.6110    3.8250 H   0  0  0  0  0  0  0  0  0  0  0  0
    0.1530    0.2556    3.9706 H   0  0  0  0  0  0  0  0  0  0  0  0
  1  2  1  0  0  0  0
  2  3  1  0  0  0  0
  2  4  1  0  0  0  0
  2  5  1  0  0  0  0
  5  6  2  0  0  0  0
  5  7  1  0  0  0  0
  7  8  1  0  0  0  0
  7  9  1  0  0  0  0
  9 10  1  0  0  0  0
  9 11  1  0  0  0  0
  9 23  1  0  0  0  0
 11 12  1  0  0  0  0
 11 13  1  0  0  0  0
 11 14  1  0  0  0  0
 14 15  1  0  0  0  0
 14 21  2  0  0  0  0
 15 16  1  0  0  0  0
 15 17  2  0  0  0  0
 17 18  1  0  0  0  0
 17 19  1  0  0  0  0
 19 20  1  0  0  0  0
 19 21  1  0  0  0  0
 21 22  1  0  0  0  0
 23 24  2  0  0  0  0
 23 25  1  0  0  0  0
 25 26  1  0  0  0  0
 25 27  1  0  0  0  0
 27 28  1  0  0  0  0
 27 29  1  0  0  0  0
 27 30  1  0  0  0  0
M  CHG  1  15   1
M  END
$$$$

  -OEChem-04042216003D

 30 30  0     1  0  0  0  0  0999 V2000
   -3.2541   -3.9178    1.1713 H   0  0  0  0  0  0  0  0  0  0  0  0
   -3.1857   -3.0594    0.4963 C   0  0  0  0  0  0  0  0  0  0  0  0
   -3.9810   -2.3533    0.7465 H   0  0  0  0  0  0  0  0  0  0  0  0
   -3.3253   -3.4102   -0.5291 H   0  0  0  0  0  0  0  0  0  0  0  0
   -1.8304   -2.3939    0.6398 C   0  0  0  0  0  0  0  0  0  0  0  0
   -1.0131   -2.8370    1.4247 O   0  0  0  0  0  0  0  0  0  0  0  0
   -1.5163   -1.2765   -0.1153 N   0  0  0  0  0  0  0  0  0  0  0  0
   -2.2100   -0.9902   -0.8012 H   0  0  0  0  0  0  0  0  0  0  0  0
   -0.1771   -0.6432   -0.1319 C   0  0  1  0  0  0  0  0  0  0  0  0
    0.5403   -1.4482   -0.3367 H   0  0  0  0  0  0  0  0  0  0  0  0
   -0.0400    0.3482   -1.3269 C   0  0  0  0  0  0  0  0  0  0  0  0
    0.5478   -0.1768   -2.0875 H   0  0  0  0  0  0  0  0  0  0  0  0
   -1.0330    0.5097   -1.7574 H   0  0  0  0  0  0  0  0  0  0  0  0
    0.5789    1.7305   -1.1470 C   0  0  0  0  0  0  0  0  0  0  0  0
    1.2641    2.3605   -2.1928 N   0  3  0  0  0  0  0  0  0  0  0  0
    1.4042    1.9219   -3.1065 H   0  0  0  0  0  0  0  0  0  0  0  0
    1.7452    3.5192   -1.8144 C   0  0  0  0  0  0  0  0  0  0  0  0
    2.3441    4.2045   -2.4176 H   0  0  0  0  0  0  0  0  0  0  0  0
    1.3616    3.7052   -0.4926 N   0  0  0  0  0  0  0  0  0  0  0  0
    1.6132    4.5034    0.0984 H   0  0  0  0  0  0  0  0  0  0  0  0
    0.6339    2.5986   -0.0783 C   0  0  0  0  0  0  0  0  0  0  0  0
    0.2178    2.4559    0.9152 H   0  0  0  0  0  0  0  0  0  0  0  0
    0.2569   -0.1495    1.2664 C   0  0  0  0  0  0  0  0  0  0  0  0
    1.4508   -0.0177    1.4966 O   0  0  0  0  0  0  0  0  0  0  0  0
   -0.6418    0.5367    2.0679 N   0  0  0  0  0  0  0  0  0  0  0  0
   -1.6159    0.2924    1.9061 H   0  0  0  0  0  0  0  0  0  0  0  0
   -0.2817    0.9663    3.4184 C   0  0  0  0  0  0  0  0  0  0  0  0
    0.5749    1.6484    3.3969 H   0  0  0  0  0  0  0  0  0  0  0  0
   -1.1215    1.4870    3.8894 H   0  0  0  0  0  0  0  0  0  0  0  0
   -0.0210    0.1004    4.0373 H   0  0  0  0  0  0  0  0  0  0  0  0
  1  2  1  0  0  0  0
  2  3  1  0  0  0  0
  2  4  1  0  0  0  0
  2  5  1  0  0  0  0
  5  6  2  0  0  0  0
  5  7  1  0  0  0  0
  7  8  1  0  0  0  0
  7  9  1  0  0  0  0
  9 10  1  0  0  0  0
  9 11  1  0  0  0  0
  9 23  1  0  0  0  0
 11 12  1  0  0  0  0
 11 13  1  0  0  0  0
 11 14  1  0  0  0  0
 14 15  1  0  0  0  0
 14 21  2  0  0  0  0
 15 16  1  0  0  0  0
 15 17  2  0  0  0  0
 17 18  1  0  0  0  0
 17 19  1  0  0  0  0
 19 20  1  0  0  0  0
 19 21  1  0  0  0  0
 21 22  1  0  0  0  0
 23 24  2  0  0  0  0
 23 25  1  0  0  0  0
 25 26  1  0  0  0  0
 25 27  1  0  0  0  0
 27 28  1  0  0  0  0
 27 29  1  0  0  0  0
 27 30  1  0  0  0  0
M  CHG  1  15   1
M  END
$$$$

  -OEChem-04042216003D

 30 30  0     1  0  0  0  0  0999 V2000
   -3.2938   -3.8885    1.1503 H   0  0  0  0  0  0  0  0  0  0  0  0
   -3.2047   -3.0277    0.4807 C   0  0  0  0  0  0  0  0  0  0  0  0
   -3.9904   -2.3098    0.7275 H   0  0  0  0  0  0  0  0  0  0  0  0
   -3.3403   -3.3706   -0.5479 H   0  0  0  0  0  0  0  0  0  0  0  0
   -1.8402   -2.3853    0.6399 C   0  0  0  0  0  0  0  0  0  0  0  0
   -1.0397   -2.8437    1.4330 O   0  0  0  0  0  0  0  0  0  0  0  0
   -1.4982   -1.2759   -0.1151 N   0  0  0  0  0  0  0  0  0  0  0  0
   -2.1769   -0.9844   -0.8132 H   0  0  0  0  0  0  0  0  0  0  0  0
   -0.1476   -0.6656   -0.1168 C   0  0  1  0  0  0  0  0  0  0  0  0
    0.5689   -1.4692   -0.3313 H   0  0  0  0  0  0  0  0  0  0  0  0
   -0.0262    0.3540   -1.2918 C   0  0  0  0  0  0  0  0  0  0  0  0
    0.5399   -0.1596   -2.0764 H   0  0  0  0  0  0  0  0  0  0  0  0
   -1.0299    0.5272   -1.6917 H   0  0  0  0  0  0  0  0  0  0  0  0
    0.5995    1.7380   -1.1204 C   0  0  0  0  0  0  0  0  0  0  0  0
    0.9717    2.4914   -2.2412 N   0  3  0  0  0  0  0  0  0  0  0  0
    0.8447    2.1566   -3.1996 H   0  0  0  0  0  0  0  0  0  0  0  0
    1.5335    3.6226   -1.8916 C   0  0  0  0  0  0  0  0  0  0  0  0
    1.9334    4.3872   -2.5608 H   0  0  0  0  0  0  0  0  0  0  0  0
    1.5385    3.6598   -0.5039 N   0  0  0  0  0  0  0  0  0  0  0  0
    1.9436    4.4013    0.0759 H   0  0  0  0  0  0  0  0  0  0  0  0
    0.9649    2.4916   -0.0236 C   0  0  0  0  0  0  0  0  0  0  0  0
    0.8674    2.2353    1.0292 H   0  0  0  0  0  0  0  0  0  0  0  0
    0.2659   -0.1790    1.2881 C   0  0  0  0  0  0  0  0  0  0  0  0
    1.4553   -0.1128    1.5664 O   0  0  0  0  0  0  0  0  0  0  0  0
   -0.6343    0.5239    2.0722 N   0  0  0  0  0  0  0  0  0  0  0  0
   -1.6121    0.3372    1.8639 H   0  0  0  0  0  0  0  0  0  0  0  0
   -0.3082    0.9212    3.4407 C   0  0  0  0  0  0  0  0  0  0  0  0
    0.5712    1.5736    3.4604 H   0  0  0  0  0  0  0  0  0  0  0  0
   -1.1462    1.4638    3.8897 H   0  0  0  0  0  0  0  0  0  0  0  0
   -0.0990    0.0377    4.0544 H   0  0  0  0  0  0  0  0  0  0  0  0
  1  2  1  0  0  0  0
  2  3  1  0  0  0  0
  2  4  1  0  0  0  0
  2  5  1  0  0  0  0
  5  6  2  0  0  0  0
  5  7  1  0  0  0  0
  7  8  1  0  0  0  0
  7  9  1  0  0  0  0
  9 10  1  0  0  0  0
  9 11  1  0  0  0  0
  9 23  1  0  0  0  0
 11 12  1  0  0  0  0
 11 13  1  0  0  0  0
 11 14  1  0  0  0  0
 14 15  1  0  0  0  0
 14 21  2  0  0  0  0
 15 16  1  0  0  0  0
 15 17  2  0  0  0  0
 17 18  1  0  0  0  0
 17 19  1  0  0  0  0
 19 20  1  0  0  0  0
 19 21  1  0  0  0  0
 21 22  1  0  0  0  0
 23 24  2  0  0  0  0
 23 25  1  0  0  0  0
 25 26  1  0  0  0  0
 25 27  1  0  0  0  0
 27 28  1  0  0  0  0
 27 29  1  0  0  0  0
 27 30  1  0  0  0  0
M  CHG  1  15   1
M  END
$$$$

  -OEChem-04042216003D

 30 30  0     1  0  0  0  0  0999 V2000
   -3.3716   -3.7552    1.2271 H   0  0  0  0  0  0  0  0  0  0  0  0
   -3.2237   -2.9433    0.5087 C   0  0  0  0  0  0  0  0  0  0  0  0
   -3.9861   -2.1803    0.6816 H   0  0  0  0  0  0  0  0  0  0  0  0
   -3.3393   -3.3455   -0.5005 H   0  0  0  0  0  0  0  0  0  0  0  0
   -1.8395   -2.3468    0.6781 C   0  0  0  0  0  0  0  0  0  0  0  0
   -1.0846   -2.7942    1.5201 O   0  0  0  0  0  0  0  0  0  0  0  0
   -1.4292   -1.3009   -0.1324 N   0  0  0  0  0  0  0  0  0  0  0  0
   -2.0606   -1.0575   -0.8905 H   0  0  0  0  0  0  0  0  0  0  0  0
   -0.0565   -0.7393   -0.1238 C   0  0  1  0  0  0  0  0  0  0  0  0
    0.6667   -1.5407   -0.3197 H   0  0  0  0  0  0  0  0  0  0  0  0
    0.0221    0.2939   -1.2873 C   0  0  0  0  0  0  0  0  0  0  0  0
    0.2660   -0.2691   -2.1947 H   0  0  0  0  0  0  0  0  0  0  0  0
   -0.9842    0.7035   -1.4225 H   0  0  0  0  0  0  0  0  0  0  0  0
    0.9417    1.5124   -1.2317 C   0  0  0  0  0  0  0  0  0  0  0  0
    0.9866    2.4233   -2.2952 N   0  3  0  0  0  0  0  0  0  0  0  0
    0.3989    2.3324   -3.1277 H   0  0  0  0  0  0  0  0  0  0  0  0
    1.8721    3.3654   -2.0804 C   0  0  0  0  0  0  0  0  0  0  0  0
    2.1138    4.1986   -2.7436 H   0  0  0  0  0  0  0  0  0  0  0  0
    2.4563    3.0980   -0.8498 N   0  0  0  0  0  0  0  0  0  0  0  0
    3.2025    3.6432   -0.4066 H   0  0  0  0  0  0  0  0  0  0  0  0
    1.8940    1.9415   -0.3295 C   0  0  0  0  0  0  0  0  0  0  0  0
    2.1974    1.4779    0.6063 H   0  0  0  0  0  0  0  0  0  0  0  0
    0.2992   -0.1847    1.2746 C   0  0  0  0  0  0  0  0  0  0  0  0
    1.4308   -0.3355    1.7140 O   0  0  0  0  0  0  0  0  0  0  0  0
   -0.6058    0.5929    1.9749 N   0  0  0  0  0  0  0  0  0  0  0  0
   -1.5703    0.5243    1.6633 H   0  0  0  0  0  0  0  0  0  0  0  0
   -0.3684    0.9978    3.3581 C   0  0  0  0  0  0  0  0  0  0  0  0
    0.5715    1.5531    3.4448 H   0  0  0  0  0  0  0  0  0  0  0  0
   -1.1796    1.6424    3.7108 H   0  0  0  0  0  0  0  0  0  0  0  0
   -0.3151    0.1183    4.0097 H   0  0  0  0  0  0  0  0  0  0  0  0
  1  2  1  0  0  0  0
  2  3  1  0  0  0  0
  2  4  1  0  0  0  0
  2  5  1  0  0  0  0
  5  6  2  0  0  0  0
  5  7  1  0  0  0  0
  7  8  1  0  0  0  0
  7  9  1  0  0  0  0
  9 10  1  0  0  0  0
  9 11  1  0  0  0  0
  9 23  1  0  0  0  0
 11 12  1  0  0  0  0
 11 13  1  0  0  0  0
 11 14  1  0  0  0  0
 14 15  1  0  0  0  0
 14 21  2  0  0  0  0
 15 16  1  0  0  0  0
 15 17  2  0  0  0  0
 17 18  1  0  0  0  0
 17 19  1  0  0  0  0
 19 20  1  0  0  0  0
 19 21  1  0  0  0  0
 21 22  1  0  0  0  0
 23 24  2  0  0  0  0
 23 25  1  0  0  0  0
 25 26  1  0  0  0  0
 25 27  1  0  0  0  0
 27 28  1  0  0  0  0
 27 29  1  0  0  0  0
 27 30  1  0  0  0  0
M  CHG  1  15   1
M  END
$$$$

  -OEChem-04042216003D

 30 30  0     1  0  0  0  0  0999 V2000
   -3.3350   -3.7624    1.2920 H   0  0  0  0  0  0  0  0  0  0  0  0
   -3.2011   -2.9642    0.5557 C   0  0  0  0  0  0  0  0  0  0  0  0
   -3.9745   -2.2091    0.7138 H   0  0  0  0  0  0  0  0  0  0  0  0
   -3.3127   -3.3898   -0.4443 H   0  0  0  0  0  0  0  0  0  0  0  0
   -1.8258   -2.3431    0.7076 C   0  0  0  0  0  0  0  0  0  0  0  0
   -1.0616   -2.7610    1.5564 O   0  0  0  0  0  0  0  0  0  0  0  0
   -1.4322   -1.3146   -0.1332 N   0  0  0  0  0  0  0  0  0  0  0  0
   -2.0647   -1.1109   -0.9021 H   0  0  0  0  0  0  0  0  0  0  0  0
   -0.0628   -0.7451   -0.1549 C   0  0  1  0  0  0  0  0  0  0  0  0
    0.6673   -1.5396   -0.3537 H   0  0  0  0  0  0  0  0  0  0  0  0
   -0.0145    0.2925   -1.3150 C   0  0  0  0  0  0  0  0  0  0  0  0
    0.2046   -0.2498   -2.2411 H   0  0  0  0  0  0  0  0  0  0  0  0
   -1.0224    0.7080   -1.4157 H   0  0  0  0  0  0  0  0  0  0  0  0
    0.9161    1.4973   -1.2335 C   0  0  0  0  0  0  0  0  0  0  0  0
    0.7891    2.6103   -2.0736 N   0  3  0  0  0  0  0  0  0  0  0  0
    0.0234    2.7162   -2.7437 H   0  0  0  0  0  0  0  0  0  0  0  0
    1.7587    3.4693   -1.8703 C   0  0  0  0  0  0  0  0  0  0  0  0
    1.8996    4.4264   -2.3766 H   0  0  0  0  0  0  0  0  0  0  0  0
    2.5844    2.9270   -0.8935 N   0  0  0  0  0  0  0  0  0  0  0  0
    3.4428    3.3502   -0.5265 H   0  0  0  0  0  0  0  0  0  0  0  0
    2.0807    1.6897   -0.5211 C   0  0  0  0  0  0  0  0  0  0  0  0
    2.5577    1.0008    0.1755 H   0  0  0  0  0  0  0  0  0  0  0  0
    0.2950   -0.1571    1.2335 C   0  0  0  0  0  0  0  0  0  0  0  0
    1.4287   -0.2856    1.6746 O   0  0  0  0  0  0  0  0  0  0  0  0
   -0.6146    0.6275    1.9208 N   0  0  0  0  0  0  0  0  0  0  0  0
   -1.5809    0.5378    1.6207 H   0  0  0  0  0  0  0  0  0  0  0  0
   -0.3694    1.0715    3.2908 C   0  0  0  0  0  0  0  0  0  0  0  0
    0.5572    1.6524    3.3507 H   0  0  0  0  0  0  0  0  0  0  0  0
   -1.1918    1.7034    3.6403 H   0  0  0  0  0  0  0  0  0  0  0  0
   -0.2849    0.2095    3.9620 H   0  0  0  0  0  0  0  0  0  0  0  0
  1  2  1  0  0  0  0
  2  3  1  0  0  0  0
  2  4  1  0  0  0  0
  2  5  1  0  0  0  0
  5  6  2  0  0  0  0
  5  7  1  0  0  0  0
  7  8  1  0  0  0  0
  7  9  1  0  0  0  0
  9 10  1  0  0  0  0
  9 11  1  0  0  0  0
  9 23  1  0  0  0  0
 11 12  1  0  0  0  0
 11 13  1  0  0  0  0
 11 14  1  0  0  0  0
 14 15  1  0  0  0  0
 14 21  2  0  0  0  0
 15 16  1  0  0  0  0
 15 17  2  0  0  0  0
 17 18  1  0  0  0  0
 17 19  1  0  0  0  0
 19 20  1  0  0  0  0
 19 21  1  0  0  0  0
 21 22  1  0  0  0  0
 23 24  2  0  0  0  0
 23 25  1  0  0  0  0
 25 26  1  0  0  0  0
 25 27  1  0  0  0  0
 27 28  1  0  0  0  0
 27 29  1  0  0  0  0
 27 30  1  0  0  0  0
M  CHG  1  15   1
M  END
$$$$

  -OEChem-04042216003D

 30 30  0     1  0  0  0  0  0999 V2000
   -3.2913   -3.7943    1.3283 H   0  0  0  0  0  0  0  0  0  0  0  0
   -3.1806   -3.0029    0.5810 C   0  0  0  0  0  0  0  0  0  0  0  0
   -3.9728   -2.2662    0.7321 H   0  0  0  0  0  0  0  0  0  0  0  0
   -3.2844   -3.4445   -0.4130 H   0  0  0  0  0  0  0  0  0  0  0  0
   -1.8213   -2.3450    0.7196 C   0  0  0  0  0  0  0  0  0  0  0  0
   -1.0459   -2.7283    1.5747 O   0  0  0  0  0  0  0  0  0  0  0  0
   -1.4541   -1.3225   -0.1399 N   0  0  0  0  0  0  0  0  0  0  0  0
   -2.0897   -1.1544   -0.9151 H   0  0  0  0  0  0  0  0  0  0  0  0
   -0.0911   -0.7422   -0.1904 C   0  0  1  0  0  0  0  0  0  0  0  0
    0.6379   -1.5365   -0.3920 H   0  0  0  0  0  0  0  0  0  0  0  0
   -0.0569    0.2848   -1.3588 C   0  0  0  0  0  0  0  0  0  0  0  0
    0.1636   -0.2538   -2.2867 H   0  0  0  0  0  0  0  0  0  0  0  0
   -1.0644    0.7010   -1.4598 H   0  0  0  0  0  0  0  0  0  0  0  0
    0.8853    1.4742   -1.2500 C   0  0  0  0  0  0  0  0  0  0  0  0
    0.6566    2.7303   -1.8223 N   0  3  0  0  0  0  0  0  0  0  0  0
   -0.2087    2.9711   -2.3119 H   0  0  0  0  0  0  0  0  0  0  0  0
    1.6773    3.5284   -1.6172 C   0  0  0  0  0  0  0  0  0  0  0  0
    1.7655    4.5690   -1.9358 H   0  0  0  0  0  0  0  0  0  0  0  0
    2.6336    2.7995   -0.9186 N   0  0  0  0  0  0  0  0  0  0  0  0
    3.5460    3.1454   -0.6052 H   0  0  0  0  0  0  0  0  0  0  0  0
    2.1525    1.5152   -0.7144 C   0  0  0  0  0  0  0  0  0  0  0  0
    2.6841    0.6960   -0.2260 H   0  0  0  0  0  0  0  0  0  0  0  0
    0.2996   -0.1313    1.1804 C   0  0  0  0  0  0  0  0  0  0  0  0
    1.4570   -0.2093    1.5708 O   0  0  0  0  0  0  0  0  0  0  0  0
   -0.5988    0.6575    1.8773 N   0  0  0  0  0  0  0  0  0  0  0  0
   -1.5743    0.5305    1.6238 H   0  0  0  0  0  0  0  0  0  0  0  0
   -0.3074    1.1536    3.2197 C   0  0  0  0  0  0  0  0  0  0  0  0
    0.6073    1.7560    3.2202 H   0  0  0  0  0  0  0  0  0  0  0  0
   -1.1291    1.7790    3.5820 H   0  0  0  0  0  0  0  0  0  0  0  0
   -0.1748    0.3174    3.9153 H   0  0  0  0  0  0  0  0  0  0  0  0
  1  2  1  0  0  0  0
  2  3  1  0  0  0  0
  2  4  1  0  0  0  0
  2  5  1  0  0  0  0
  5  6  2  0  0  0  0
  5  7  1  0  0  0  0
  7  8  1  0  0  0  0
  7  9  1  0  0  0  0
  9 10  1  0  0  0  0
  9 11  1  0  0  0  0
  9 23  1  0  0  0  0
 11 12  1  0  0  0  0
 11 13  1  0  0  0  0
 11 14  1  0  0  0  0
 14 15  1  0  0  0  0
 14 21  2  0  0  0  0
 15 16  1  0  0  0  0
 15 17  2  0  0  0  0
 17 18  1  0  0  0  0
 17 19  1  0  0  0  0
 19 20  1  0  0  0  0
 19 21  1  0  0  0  0
 21 22  1  0  0  0  0
 23 24  2  0  0  0  0
 23 25  1  0  0  0  0
 25 26  1  0  0  0  0
 25 27  1  0  0  0  0
 27 28  1  0  0  0  0
 27 29  1  0  0  0  0
 27 30  1  0  0  0  0
M  CHG  1  15   1
M  END
$$$$

  -OEChem-04042216003D

 30 30  0     1  0  0  0  0  0999 V2000
   -3.2554   -3.8210    1.3520 H   0  0  0  0  0  0  0  0  0  0  0  0
   -3.1657   -3.0348    0.5964 C   0  0  0  0  0  0  0  0  0  0  0  0
   -3.9713   -2.3122    0.7461 H   0  0  0  0  0  0  0  0  0  0  0  0
   -3.2686   -3.4884   -0.3922 H   0  0  0  0  0  0  0  0  0  0  0  0
   -1.8182   -2.3491    0.7178 C   0  0  0  0  0  0  0  0  0  0  0  0
   -1.0290   -2.7065    1.5717 O   0  0  0  0  0  0  0  0  0  0  0  0
   -1.4764   -1.3272   -0.1526 N   0  0  0  0  0  0  0  0  0  0  0  0
   -2.1202   -1.1777   -0.9251 H   0  0  0  0  0  0  0  0  0  0  0  0
   -0.1201   -0.7354   -0.2262 C   0  0  1  0  0  0  0  0  0  0  0  0
    0.6069   -1.5306   -0.4314 H   0  0  0  0  0  0  0  0  0  0  0  0
   -0.0945    0.2772   -1.4055 C   0  0  0  0  0  0  0  0  0  0  0  0
    0.1395   -0.2646   -2.3283 H   0  0  0  0  0  0  0  0  0  0  0  0
   -1.1019    0.6891   -1.5217 H   0  0  0  0  0  0  0  0  0  0  0  0
    0.8544    1.4553   -1.2740 C   0  0  0  0  0  0  0  0  0  0  0  0
    0.5596    2.7916   -1.5606 N   0  3  0  0  0  0  0  0  0  0  0  0
   -0.3666    3.1085   -1.8569 H   0  0  0  0  0  0  0  0  0  0  0  0
    1.6103    3.5496   -1.3537 C   0  0  0  0  0  0  0  0  0  0  0  0
    1.6652    4.6333   -1.4732 H   0  0  0  0  0  0  0  0  0  0  0  0
    2.6466    2.7151   -0.9461 N   0  0  0  0  0  0  0  0  0  0  0  0
    3.5905    3.0114   -0.6791 H   0  0  0  0  0  0  0  0  0  0  0  0
    2.1798    1.4099   -0.9118 C   0  0  0  0  0  0  0  0  0  0  0  0
    2.7404    0.5207   -0.6151 H   0  0  0  0  0  0  0  0  0  0  0  0
    0.3080   -0.1085    1.1264 C   0  0  0  0  0  0  0  0  0  0  0  0
    1.4860   -0.1424    1.4593 O   0  0  0  0  0  0  0  0  0  0  0  0
   -0.5749    0.6831    1.8401 N   0  0  0  0  0  0  0  0  0  0  0  0
   -1.5577    0.5206    1.6398 H   0  0  0  0  0  0  0  0  0  0  0  0
   -0.2330    1.2229    3.1538 C   0  0  0  0  0  0  0  0  0  0  0  0
    0.6572    1.8581    3.0920 H   0  0  0  0  0  0  0  0  0  0  0  0
   -1.0579    1.8267    3.5448 H   0  0  0  0  0  0  0  0  0  0  0  0
   -0.0331    0.4101    3.8611 H   0  0  0  0  0  0  0  0  0  0  0  0
  1  2  1  0  0  0  0
  2  3  1  0  0  0  0
  2  4  1  0  0  0  0
  2  5  1  0  0  0  0
  5  6  2  0  0  0  0
  5  7  1  0  0  0  0
  7  8  1  0  0  0  0
  7  9  1  0  0  0  0
  9 10  1  0  0  0  0
  9 11  1  0  0  0  0
  9 23  1  0  0  0  0
 11 12  1  0  0  0  0
 11 13  1  0  0  0  0
 11 14  1  0  0  0  0
 14 15  1  0  0  0  0
 14 21  2  0  0  0  0
 15 16  1  0  0  0  0
 15 17  2  0  0  0  0
 17 18  1  0  0  0  0
 17 19  1  0  0  0  0
 19 20  1  0  0  0  0
 19 21  1  0  0  0  0
 21 22  1  0  0  0  0
 23 24  2  0  0  0  0
 23 25  1  0  0  0  0
 25 26  1  0  0  0  0
 25 27  1  0  0  0  0
 27 28  1  0  0  0  0
 27 29  1  0  0  0  0
 27 30  1  0  0  0  0
M  CHG  1  15   1
M  END
$$$$

  -OEChem-04042216003D

 30 30  0     1  0  0  0  0  0999 V2000
   -3.2170   -3.8282    1.3869 H   0  0  0  0  0  0  0  0  0  0  0  0
   -3.1438   -3.0545    0.6168 C   0  0  0  0  0  0  0  0  0  0  0  0
   -3.9585   -2.3408    0.7597 H   0  0  0  0  0  0  0  0  0  0  0  0
   -3.2471   -3.5266   -0.3631 H   0  0  0  0  0  0  0  0  0  0  0  0
   -1.8057   -2.3482    0.7165 C   0  0  0  0  0  0  0  0  0  0  0  0
   -1.0043   -2.6805    1.5693 O   0  0  0  0  0  0  0  0  0  0  0  0
   -1.4901   -1.3274   -0.1647 N   0  0  0  0  0  0  0  0  0  0  0  0
   -2.1405   -1.2013   -0.9360 H   0  0  0  0  0  0  0  0  0  0  0  0
   -0.1413   -0.7234   -0.2621 C   0  0  1  0  0  0  0  0  0  0  0  0
    0.5866   -1.5165   -0.4728 H   0  0  0  0  0  0  0  0  0  0  0  0
   -0.1309    0.2816   -1.4459 C   0  0  0  0  0  0  0  0  0  0  0  0
    0.1105   -0.2615   -2.3661 H   0  0  0  0  0  0  0  0  0  0  0  0
   -1.1380    0.6920   -1.5694 H   0  0  0  0  0  0  0  0  0  0  0  0
    0.8230    1.4500   -1.2929 C   0  0  0  0  0  0  0  0  0  0  0  0
    0.4970    2.8086   -1.2739 N   0  3  0  0  0  0  0  0  0  0  0  0
   -0.4626    3.1550   -1.3437 H   0  0  0  0  0  0  0  0  0  0  0  0
    1.5740    3.5338   -1.0861 C   0  0  0  0  0  0  0  0  0  0  0  0
    1.6189    4.6207   -0.9975 H   0  0  0  0  0  0  0  0  0  0  0  0
    2.6533    2.6585   -1.0043 N   0  0  0  0  0  0  0  0  0  0  0  0
    3.6249    2.9185   -0.8090 H   0  0  0  0  0  0  0  0  0  0  0  0
    2.1853    1.3595   -1.1400 C   0  0  0  0  0  0  0  0  0  0  0  0
    2.7683    0.4394   -1.0726 H   0  0  0  0  0  0  0  0  0  0  0  0
    0.3138   -0.0830    1.0747 C   0  0  0  0  0  0  0  0  0  0  0  0
    1.5048   -0.0737    1.3601 O   0  0  0  0  0  0  0  0  0  0  0  0
   -0.5619    0.7069    1.7993 N   0  0  0  0  0  0  0  0  0  0  0  0
   -1.5458    0.5089    1.6391 H   0  0  0  0  0  0  0  0  0  0  0  0
   -0.1912    1.2672    3.0962 C   0  0  0  0  0  0  0  0  0  0  0  0
    0.6838    1.9188    3.0009 H   0  0  0  0  0  0  0  0  0  0  0  0
   -1.0159    1.8586    3.5060 H   0  0  0  0  0  0  0  0  0  0  0  0
    0.0461    0.4660    3.8052 H   0  0  0  0  0  0  0  0  0  0  0  0
  1  2  1  0  0  0  0
  2  3  1  0  0  0  0
  2  4  1  0  0  0  0
  2  5  1  0  0  0  0
  5  6  2  0  0  0  0
  5  7  1  0  0  0  0
  7  8  1  0  0  0  0
  7  9  1  0  0  0  0
  9 10  1  0  0  0  0
  9 11  1  0  0  0  0
  9 23  1  0  0  0  0
 11 12  1  0  0  0  0
 11 13  1  0  0  0  0
 11 14  1  0  0  0  0
 14 15  1  0  0  0  0
 14 21  2  0  0  0  0
 15 16  1  0  0  0  0
 15 17  2  0  0  0  0
 17 18  1  0  0  0  0
 17 19  1  0  0  0  0
 19 20  1  0  0  0  0
 19 21  1  0  0  0  0
 21 22  1  0  0  0  0
 23 24  2  0  0  0  0
 23 25  1  0  0  0  0
 25 26  1  0  0  0  0
 25 27  1  0  0  0  0
 27 28  1  0  0  0  0
 27 29  1  0  0  0  0
 27 30  1  0  0  0  0
M  CHG  1  15   1
M  END
$$$$

  -OEChem-04042216003D

 30 30  0     1  0  0  0  0  0999 V2000
   -3.1910   -3.8400    1.3978 H   0  0  0  0  0  0  0  0  0  0  0  0
   -3.1282   -3.0724    0.6206 C   0  0  0  0  0  0  0  0  0  0  0  0
   -3.9524   -2.3685    0.7572 H   0  0  0  0  0  0  0  0  0  0  0  0
   -3.2255   -3.5548   -0.3550 H   0  0  0  0  0  0  0  0  0  0  0  0
   -1.7997   -2.3470    0.7141 C   0  0  0  0  0  0  0  0  0  0  0  0
   -0.9929   -2.6613    1.5687 O   0  0  0  0  0  0  0  0  0  0  0  0
   -1.5005   -1.3247   -0.1709 N   0  0  0  0  0  0  0  0  0  0  0  0
   -2.1535   -1.2130   -0.9423 H   0  0  0  0  0  0  0  0  0  0  0  0
   -0.1575   -0.7107   -0.2817 C   0  0  1  0  0  0  0  0  0  0  0  0
    0.5728   -1.5004   -0.4965 H   0  0  0  0  0  0  0  0  0  0  0  0
   -0.1568    0.2921   -1.4658 C   0  0  0  0  0  0  0  0  0  0  0  0
    0.0953   -0.2511   -2.3831 H   0  0  0  0  0  0  0  0  0  0  0  0
   -1.1629    0.7011   -1.6004 H   0  0  0  0  0  0  0  0  0  0  0  0
    0.7999    1.4519   -1.2917 C   0  0  0  0  0  0  0  0  0  0  0  0
    0.4822    2.7730   -0.9685 N   0  3  0  0  0  0  0  0  0  0  0  0
   -0.4712    3.0872   -0.7738 H   0  0  0  0  0  0  0  0  0  0  0  0
    1.5768    3.4840   -0.8396 C   0  0  0  0  0  0  0  0  0  0  0  0
    1.6389    4.5346   -0.5499 H   0  0  0  0  0  0  0  0  0  0  0  0
    2.6518    2.6431   -1.1161 N   0  0  0  0  0  0  0  0  0  0  0  0
    3.6425    2.8947   -1.0468 H   0  0  0  0  0  0  0  0  0  0  0  0
    2.1666    1.3738   -1.3991 C   0  0  0  0  0  0  0  0  0  0  0  0
    2.7500    0.4757   -1.6046 H   0  0  0  0  0  0  0  0  0  0  0  0
    0.3132   -0.0633    1.0469 C   0  0  0  0  0  0  0  0  0  0  0  0
    1.5119   -0.0036    1.2913 O   0  0  0  0  0  0  0  0  0  0  0  0
   -0.5618    0.7223    1.7780 N   0  0  0  0  0  0  0  0  0  0  0  0
   -1.5422    0.4835    1.6537 H   0  0  0  0  0  0  0  0  0  0  0  0
   -0.1744    1.2993    3.0631 C   0  0  0  0  0  0  0  0  0  0  0  0
    0.6978    1.9520    2.9495 H   0  0  0  0  0  0  0  0  0  0  0  0
   -0.9950    1.8934    3.4772 H   0  0  0  0  0  0  0  0  0  0  0  0
    0.0742    0.5069    3.7780 H   0  0  0  0  0  0  0  0  0  0  0  0
  1  2  1  0  0  0  0
  2  3  1  0  0  0  0
  2  4  1  0  0  0  0
  2  5  1  0  0  0  0
  5  6  2  0  0  0  0
  5  7  1  0  0  0  0
  7  8  1  0  0  0  0
  7  9  1  0  0  0  0
  9 10  1  0  0  0  0
  9 11  1  0  0  0  0
  9 23  1  0  0  0  0
 11 12  1  0  0  0  0
 11 13  1  0  0  0  0
 11 14  1  0  0  0  0
 14 15  1  0  0  0  0
 14 21  2  0  0  0  0
 15 16  1  0  0  0  0
 15 17  2  0  0  0  0
 17 18  1  0  0  0  0
 17 19  1  0  0  0  0
 19 20  1  0  0  0  0
 19 21  1  0  0  0  0
 21 22  1  0  0  0  0
 23 24  2  0  0  0  0
 23 25  1  0  0  0  0
 25 26  1  0  0  0  0
 25 27  1  0  0  0  0
 27 28  1  0  0  0  0
 27 29  1  0  0  0  0
 27 30  1  0  0  0  0
M  CHG  1  15   1
M  END
$$$$

  -OEChem-04042216003D

 30 30  0     1  0  0  0  0  0999 V2000
   -3.1785   -3.8550    1.3847 H   0  0  0  0  0  0  0  0  0  0  0  0
   -3.1238   -3.0785    0.6160 C   0  0  0  0  0  0  0  0  0  0  0  0
   -3.9563   -2.3854    0.7586 H   0  0  0  0  0  0  0  0  0  0  0  0
   -3.2142   -3.5520   -0.3646 H   0  0  0  0  0  0  0  0  0  0  0  0
   -1.8038   -2.3392    0.7186 C   0  0  0  0  0  0  0  0  0  0  0  0
   -1.0049   -2.6366    1.5866 O   0  0  0  0  0  0  0  0  0  0  0  0
   -1.5054   -1.3196   -0.1694 N   0  0  0  0  0  0  0  0  0  0  0  0
   -2.1543   -1.2178   -0.9459 H   0  0  0  0  0  0  0  0  0  0  0  0
   -0.1621   -0.7070   -0.2842 C   0  0  1  0  0  0  0  0  0  0  0  0
    0.5692   -1.4955   -0.5003 H   0  0  0  0  0  0  0  0  0  0  0  0
   -0.1645    0.2980   -1.4664 C   0  0  0  0  0  0  0  0  0  0  0  0
    0.0842   -0.2457   -2.3843 H   0  0  0  0  0  0  0  0  0  0  0  0
   -1.1687    0.7126   -1.5997 H   0  0  0  0  0  0  0  0  0  0  0  0
    0.7969    1.4524   -1.2866 C   0  0  0  0  0  0  0  0  0  0  0  0
    0.5316    2.6836   -0.6827 N   0  3  0  0  0  0  0  0  0  0  0  0
   -0.3544    2.8944   -0.2173 H   0  0  0  0  0  0  0  0  0  0  0  0
    1.6225    3.4093   -0.6380 C   0  0  0  0  0  0  0  0  0  0  0  0
    1.7317    4.3878   -0.1673 H   0  0  0  0  0  0  0  0  0  0  0  0
    2.6289    2.6841   -1.2709 N   0  0  0  0  0  0  0  0  0  0  0  0
    3.6093    2.9696   -1.3532 H   0  0  0  0  0  0  0  0  0  0  0  0
    2.1138    1.4590   -1.6737 C   0  0  0  0  0  0  0  0  0  0  0  0
    2.6542    0.6428   -2.1534 H   0  0  0  0  0  0  0  0  0  0  0  0
    0.3084   -0.0577    1.0434 C   0  0  0  0  0  0  0  0  0  0  0  0
    1.5078    0.0371    1.2709 O   0  0  0  0  0  0  0  0  0  0  0  0
   -0.5712    0.7285    1.7702 N   0  0  0  0  0  0  0  0  0  0  0  0
   -1.5466    0.4582    1.6670 H   0  0  0  0  0  0  0  0  0  0  0  0
   -0.1793    1.3104    3.0523 C   0  0  0  0  0  0  0  0  0  0  0  0
    0.6839    1.9735    2.9316 H   0  0  0  0  0  0  0  0  0  0  0  0
   -1.0033    1.8940    3.4750 H   0  0  0  0  0  0  0  0  0  0  0  0
    0.0860    0.5205    3.7644 H   0  0  0  0  0  0  0  0  0  0  0  0
  1  2  1  0  0  0  0
  2  3  1  0  0  0  0
  2  4  1  0  0  0  0
  2  5  1  0  0  0  0
  5  6  2  0  0  0  0
  5  7  1  0  0  0  0
  7  8  1  0  0  0  0
  7  9  1  0  0  0  0
  9 10  1  0  0  0  0
  9 11  1  0  0  0  0
  9 23  1  0  0  0  0
 11 12  1  0  0  0  0
 11 13  1  0  0  0  0
 11 14  1  0  0  0  0
 14 15  1  0  0  0  0
 14 21  2  0  0  0  0
 15 16  1  0  0  0  0
 15 17  2  0  0  0  0
 17 18  1  0  0  0  0
 17 19  1  0  0  0  0
 19 20  1  0  0  0  0
 19 21  1  0  0  0  0
 21 22  1  0  0  0  0
 23 24  2  0  0  0  0
 23 25  1  0  0  0  0
 25 26  1  0  0  0  0
 25 27  1  0  0  0  0
 27 28  1  0  0  0  0
 27 29  1  0  0  0  0
 27 30  1  0  0  0  0
M  CHG  1  15   1
M  END
$$$$

  -OEChem-04042216003D

 30 30  0     1  0  0  0  0  0999 V2000
   -3.1976   -3.8416    1.3849 H   0  0  0  0  0  0  0  0  0  0  0  0
   -3.1299   -3.0698    0.6123 C   0  0  0  0  0  0  0  0  0  0  0  0
   -3.9602   -2.3716    0.7416 H   0  0  0  0  0  0  0  0  0  0  0  0
   -3.2124   -3.5484   -0.3664 H   0  0  0  0  0  0  0  0  0  0  0  0
   -1.8070   -2.3366    0.7250 C   0  0  0  0  0  0  0  0  0  0  0  0
   -1.0173   -2.6352    1.6009 O   0  0  0  0  0  0  0  0  0  0  0  0
   -1.4974   -1.3170   -0.1599 N   0  0  0  0  0  0  0  0  0  0  0  0
   -2.1390   -1.2149   -0.9426 H   0  0  0  0  0  0  0  0  0  0  0  0
   -0.1502   -0.7100   -0.2671 C   0  0  1  0  0  0  0  0  0  0  0  0
    0.5818   -1.4985   -0.4809 H   0  0  0  0  0  0  0  0  0  0  0  0
   -0.1469    0.3006   -1.4462 C   0  0  0  0  0  0  0  0  0  0  0  0
    0.0898   -0.2444   -2.3663 H   0  0  0  0  0  0  0  0  0  0  0  0
   -1.1504    0.7204   -1.5706 H   0  0  0  0  0  0  0  0  0  0  0  0
    0.8131    1.4613   -1.2818 C   0  0  0  0  0  0  0  0  0  0  0  0
    0.6620    2.5733   -0.4485 N   0  3  0  0  0  0  0  0  0  0  0  0
   -0.0747    2.6312    0.2606 H   0  0  0  0  0  0  0  0  0  0  0  0
    1.7225    3.3403   -0.5203 C   0  0  0  0  0  0  0  0  0  0  0  0
    1.9199    4.2298    0.0803 H   0  0  0  0  0  0  0  0  0  0  0  0
    2.5730    2.7829   -1.4711 N   0  0  0  0  0  0  0  0  0  0  0  0
    3.5012    3.1366   -1.7214 H   0  0  0  0  0  0  0  0  0  0  0  0
    2.0083    1.6041   -1.9414 C   0  0  0  0  0  0  0  0  0  0  0  0
    2.4406    0.9086   -2.6609 H   0  0  0  0  0  0  0  0  0  0  0  0
    0.3047   -0.0682    1.0686 C   0  0  0  0  0  0  0  0  0  0  0  0
    1.4998    0.0537    1.3018 O   0  0  0  0  0  0  0  0  0  0  0  0
   -0.5881    0.7157    1.7830 N   0  0  0  0  0  0  0  0  0  0  0  0
   -1.5588    0.4312    1.6671 H   0  0  0  0  0  0  0  0  0  0  0  0
   -0.2223    1.2776    3.0823 C   0  0  0  0  0  0  0  0  0  0  0  0
    0.6405    1.9460    2.9911 H   0  0  0  0  0  0  0  0  0  0  0  0
   -1.0573    1.8500    3.4990 H   0  0  0  0  0  0  0  0  0  0  0  0
    0.0322    0.4769    3.7861 H   0  0  0  0  0  0  0  0  0  0  0  0
  1  2  1  0  0  0  0
  2  3  1  0  0  0  0
  2  4  1  0  0  0  0
  2  5  1  0  0  0  0
  5  6  2  0  0  0  0
  5  7  1  0  0  0  0
  7  8  1  0  0  0  0
  7  9  1  0  0  0  0
  9 10  1  0  0  0  0
  9 11  1  0  0  0  0
  9 23  1  0  0  0  0
 11 12  1  0  0  0  0
 11 13  1  0  0  0  0
 11 14  1  0  0  0  0
 14 15  1  0  0  0  0
 14 21  2  0  0  0  0
 15 16  1  0  0  0  0
 15 17  2  0  0  0  0
 17 18  1  0  0  0  0
 17 19  1  0  0  0  0
 19 20  1  0  0  0  0
 19 21  1  0  0  0  0
 21 22  1  0  0  0  0
 23 24  2  0  0  0  0
 23 25  1  0  0  0  0
 25 26  1  0  0  0  0
 25 27  1  0  0  0  0
 27 28  1  0  0  0  0
 27 29  1  0  0  0  0
 27 30  1  0  0  0  0
M  CHG  1  15   1
M  END
$$$$

  -OEChem-04042216003D

 30 30  0     1  0  0  0  0  0999 V2000
   -3.2326   -3.8334    1.3558 H   0  0  0  0  0  0  0  0  0  0  0  0
   -3.1438   -3.0627    0.5844 C   0  0  0  0  0  0  0  0  0  0  0  0
   -3.9708   -2.3580    0.6971 H   0  0  0  0  0  0  0  0  0  0  0  0
   -3.2111   -3.5410   -0.3956 H   0  0  0  0  0  0  0  0  0  0  0  0
   -1.8171   -2.3407    0.7217 C   0  0  0  0  0  0  0  0  0  0  0  0
   -1.0401   -2.6545    1.6038 O   0  0  0  0  0  0  0  0  0  0  0  0
   -1.4881   -1.3149   -0.1486 N   0  0  0  0  0  0  0  0  0  0  0  0
   -2.1231   -1.1930   -0.9339 H   0  0  0  0  0  0  0  0  0  0  0  0
   -0.1359   -0.7154   -0.2323 C   0  0  1  0  0  0  0  0  0  0  0  0
    0.5944   -1.5067   -0.4420 H   0  0  0  0  0  0  0  0  0  0  0  0
   -0.1177    0.2957   -1.4135 C   0  0  0  0  0  0  0  0  0  0  0  0
    0.1121   -0.2553   -2.3316 H   0  0  0  0  0  0  0  0  0  0  0  0
   -1.1224    0.7143   -1.5338 H   0  0  0  0  0  0  0  0  0  0  0  0
    0.8302    1.4750   -1.2803 C   0  0  0  0  0  0  0  0  0  0  0  0
    0.8401    2.4615   -0.2888 N   0  3  0  0  0  0  0  0  0  0  0  0
    0.2840    2.3757    0.5690 H   0  0  0  0  0  0  0  0  0  0  0  0
    1.8429    3.2841   -0.4720 C   0  0  0  0  0  0  0  0  0  0  0  0
    2.1465    4.0912    0.1969 H   0  0  0  0  0  0  0  0  0  0  0  0
    2.4782    2.9036   -1.6503 N   0  0  0  0  0  0  0  0  0  0  0  0
    3.3164    3.3419   -2.0438 H   0  0  0  0  0  0  0  0  0  0  0  0
    1.8536    1.7668   -2.1488 C   0  0  0  0  0  0  0  0  0  0  0  0
    2.1336    1.1999   -3.0367 H   0  0  0  0  0  0  0  0  0  0  0  0
    0.3027   -0.0905    1.1149 C   0  0  0  0  0  0  0  0  0  0  0  0
    1.4940    0.0404    1.3588 O   0  0  0  0  0  0  0  0  0  0  0  0
   -0.5933    0.6923    1.8263 N   0  0  0  0  0  0  0  0  0  0  0  0
   -1.5658    0.4230    1.6870 H   0  0  0  0  0  0  0  0  0  0  0  0
   -0.2491    1.2289    3.1429 C   0  0  0  0  0  0  0  0  0  0  0  0
    0.6427    1.8625    3.0898 H   0  0  0  0  0  0  0  0  0  0  0  0
   -1.0739    1.8322    3.5360 H   0  0  0  0  0  0  0  0  0  0  0  0
   -0.0526    0.4124    3.8472 H   0  0  0  0  0  0  0  0  0  0  0  0
  1  2  1  0  0  0  0
  2  3  1  0  0  0  0
  2  4  1  0  0  0  0
  2  5  1  0  0  0  0
  5  6  2  0  0  0  0
  5  7  1  0  0  0  0
  7  8  1  0  0  0  0
  7  9  1  0  0  0  0
  9 10  1  0  0  0  0
  9 11  1  0  0  0  0
  9 23  1  0  0  0  0
 11 12  1  0  0  0  0
 11 13  1  0  0  0  0
 11 14  1  0  0  0  0
 14 15  1  0  0  0  0
 14 21  2  0  0  0  0
 15 16  1  0  0  0  0
 15 17  2  0  0  0  0
 17 18  1  0  0  0  0
 17 19  1  0  0  0  0
 19 20  1  0  0  0  0
 19 21  1  0  0  0  0
 21 22  1  0  0  0  0
 23 24  2  0  0  0  0
 23 25  1  0  0  0  0
 25 26  1  0  0  0  0
 25 27  1  0  0  0  0
 27 28  1  0  0  0  0
 27 29  1  0  0  0  0
 27 30  1  0  0  0  0
M  CHG  1  15   1
M  END
$$$$

  -OEChem-04042216003D

 30 30  0     1  0  0  0  0  0999 V2000
   -3.2627   -3.8214    1.3329 H   0  0  0  0  0  0  0  0  0  0  0  0
   -3.1584   -3.0459    0.5682 C   0  0  0  0  0  0  0  0  0  0  0  0
   -3.9709   -2.3257    0.6880 H   0  0  0  0  0  0  0  0  0  0  0  0
   -3.2358   -3.5144   -0.4158 H   0  0  0  0  0  0  0  0  0  0  0  0
   -1.8177   -2.3514    0.7112 C   0  0  0  0  0  0  0  0  0  0  0  0
   -1.0410   -2.6989    1.5810 O   0  0  0  0  0  0  0  0  0  0  0  0
   -1.4730   -1.3160   -0.1421 N   0  0  0  0  0  0  0  0  0  0  0  0
   -2.1095   -1.1629   -0.9206 H   0  0  0  0  0  0  0  0  0  0  0  0
   -0.1166   -0.7219   -0.2042 C   0  0  1  0  0  0  0  0  0  0  0  0
    0.6149   -1.5126   -0.4127 H   0  0  0  0  0  0  0  0  0  0  0  0
   -0.0832    0.3013   -1.3774 C   0  0  0  0  0  0  0  0  0  0  0  0
    0.1340   -0.2474   -2.3001 H   0  0  0  0  0  0  0  0  0  0  0  0
   -1.0879    0.7229   -1.4860 H   0  0  0  0  0  0  0  0  0  0  0  0
    0.8558    1.4950   -1.2678 C   0  0  0  0  0  0  0  0  0  0  0  0
    1.0852    2.3484   -0.1825 N   0  3  0  0  0  0  0  0  0  0  0  0
    0.7489    2.1241    0.7624 H   0  0  0  0  0  0  0  0  0  0  0  0
    2.0122    3.2269   -0.4714 C   0  0  0  0  0  0  0  0  0  0  0  0
    2.4505    3.9517    0.2170 H   0  0  0  0  0  0  0  0  0  0  0  0
    2.3682    3.0252   -1.8007 N   0  0  0  0  0  0  0  0  0  0  0  0
    3.0867    3.5471   -2.3115 H   0  0  0  0  0  0  0  0  0  0  0  0
    1.6582    1.9365   -2.2925 C   0  0  0  0  0  0  0  0  0  0  0  0
    1.7339    1.5018   -3.2894 H   0  0  0  0  0  0  0  0  0  0  0  0
    0.2952   -0.1211    1.1612 C   0  0  0  0  0  0  0  0  0  0  0  0
    1.4801    0.0179    1.4307 O   0  0  0  0  0  0  0  0  0  0  0  0
   -0.6115    0.6511    1.8680 N   0  0  0  0  0  0  0  0  0  0  0  0
   -1.5845    0.4109    1.6866 H   0  0  0  0  0  0  0  0  0  0  0  0
   -0.3024    1.1647    3.2024 C   0  0  0  0  0  0  0  0  0  0  0  0
    0.5816    1.8108    3.1820 H   0  0  0  0  0  0  0  0  0  0  0  0
   -1.1435    1.7497    3.5887 H   0  0  0  0  0  0  0  0  0  0  0  0
   -0.1112    0.3366    3.8945 H   0  0  0  0  0  0  0  0  0  0  0  0
  1  2  1  0  0  0  0
  2  3  1  0  0  0  0
  2  4  1  0  0  0  0
  2  5  1  0  0  0  0
  5  6  2  0  0  0  0
  5  7  1  0  0  0  0
  7  8  1  0  0  0  0
  7  9  1  0  0  0  0
  9 10  1  0  0  0  0
  9 11  1  0  0  0  0
  9 23  1  0  0  0  0
 11 12  1  0  0  0  0
 11 13  1  0  0  0  0
 11 14  1  0  0  0  0
 14 15  1  0  0  0  0
 14 21  2  0  0  0  0
 15 16  1  0  0  0  0
 15 17  2  0  0  0  0
 17 18  1  0  0  0  0
 17 19  1  0  0  0  0
 19 20  1  0  0  0  0
 19 21  1  0  0  0  0
 21 22  1  0  0  0  0
 23 24  2  0  0  0  0
 23 25  1  0  0  0  0
 25 26  1  0  0  0  0
 25 27  1  0  0  0  0
 27 28  1  0  0  0  0
 27 29  1  0  0  0  0
 27 30  1  0  0  0  0
M  CHG  1  15   1
M  END
$$$$

  -OEChem-04042216003D

 30 30  0     1  0  0  0  0  0999 V2000
   -3.3000   -3.7984    1.3157 H   0  0  0  0  0  0  0  0  0  0  0  0
   -3.1809   -3.0175    0.5587 C   0  0  0  0  0  0  0  0  0  0  0  0
   -3.9758   -2.2796    0.6901 H   0  0  0  0  0  0  0  0  0  0  0  0
   -3.2737   -3.4734   -0.4301 H   0  0  0  0  0  0  0  0  0  0  0  0
   -1.8236   -2.3565    0.7035 C   0  0  0  0  0  0  0  0  0  0  0  0
   -1.0500   -2.7357    1.5628 O   0  0  0  0  0  0  0  0  0  0  0  0
   -1.4586   -1.3186   -0.1385 N   0  0  0  0  0  0  0  0  0  0  0  0
   -2.0955   -1.1371   -0.9105 H   0  0  0  0  0  0  0  0  0  0  0  0
   -0.0949   -0.7389   -0.1861 C   0  0  1  0  0  0  0  0  0  0  0  0
    0.6331   -1.5325   -0.3955 H   0  0  0  0  0  0  0  0  0  0  0  0
   -0.0464    0.3001   -1.3471 C   0  0  0  0  0  0  0  0  0  0  0  0
    0.1594   -0.2427   -2.2759 H   0  0  0  0  0  0  0  0  0  0  0  0
   -1.0487    0.7301   -1.4447 H   0  0  0  0  0  0  0  0  0  0  0  0
    0.8965    1.4959   -1.2516 C   0  0  0  0  0  0  0  0  0  0  0  0
    1.3693    2.1968   -0.1360 N   0  3  0  0  0  0  0  0  0  0  0  0
    1.2691    1.8215    0.8186 H   0  0  0  0  0  0  0  0  0  0  0  0
    2.1912    3.1506   -0.4937 C   0  0  0  0  0  0  0  0  0  0  0  0
    2.7653    3.7916    0.1780 H   0  0  0  0  0  0  0  0  0  0  0  0
    2.2306    3.1544   -1.8834 N   0  0  0  0  0  0  0  0  0  0  0  0
    2.7967    3.7820   -2.4625 H   0  0  0  0  0  0  0  0  0  0  0  0
    1.4377    2.1144   -2.3543 C   0  0  0  0  0  0  0  0  0  0  0  0
    1.2791    1.8343   -3.3957 H   0  0  0  0  0  0  0  0  0  0  0  0
    0.2906   -0.1595    1.1966 C   0  0  0  0  0  0  0  0  0  0  0  0
    1.4707   -0.0329    1.4967 O   0  0  0  0  0  0  0  0  0  0  0  0
   -0.6239    0.6087    1.8955 N   0  0  0  0  0  0  0  0  0  0  0  0
   -1.5964    0.4026    1.6771 H   0  0  0  0  0  0  0  0  0  0  0  0
   -0.3429    1.1177    3.2371 C   0  0  0  0  0  0  0  0  0  0  0  0
    0.5298    1.7788    3.2327 H   0  0  0  0  0  0  0  0  0  0  0  0
   -1.1990    1.6863    3.6142 H   0  0  0  0  0  0  0  0  0  0  0  0
   -0.1489    0.2885    3.9270 H   0  0  0  0  0  0  0  0  0  0  0  0
  1  2  1  0  0  0  0
  2  3  1  0  0  0  0
  2  4  1  0  0  0  0
  2  5  1  0  0  0  0
  5  6  2  0  0  0  0
  5  7  1  0  0  0  0
  7  8  1  0  0  0  0
  7  9  1  0  0  0  0
  9 10  1  0  0  0  0
  9 11  1  0  0  0  0
  9 23  1  0  0  0  0
 11 12  1  0  0  0  0
 11 13  1  0  0  0  0
 11 14  1  0  0  0  0
 14 15  1  0  0  0  0
 14 21  2  0  0  0  0
 15 16  1  0  0  0  0
 15 17  2  0  0  0  0
 17 18  1  0  0  0  0
 17 19  1  0  0  0  0
 19 20  1  0  0  0  0
 19 21  1  0  0  0  0
 21 22  1  0  0  0  0
 23 24  2  0  0  0  0
 23 25  1  0  0  0  0
 25 26  1  0  0  0  0
 25 27  1  0  0  0  0
 27 28  1  0  0  0  0
 27 29  1  0  0  0  0
 27 30  1  0  0  0  0
M  CHG  1  15   1
M  END
$$$$

  -OEChem-04042216003D

 30 30  0     1  0  0  0  0  0999 V2000
   -3.3257   -3.7988    1.2759 H   0  0  0  0  0  0  0  0  0  0  0  0
   -3.2028   -2.9988    0.5396 C   0  0  0  0  0  0  0  0  0  0  0  0
   -3.9894   -2.2566    0.6949 H   0  0  0  0  0  0  0  0  0  0  0  0
   -3.3049   -3.4269   -0.4604 H   0  0  0  0  0  0  0  0  0  0  0  0
   -1.8380   -2.3556    0.6947 C   0  0  0  0  0  0  0  0  0  0  0  0
   -1.0678   -2.7578    1.5465 O   0  0  0  0  0  0  0  0  0  0  0  0
   -1.4594   -1.3144   -0.1369 N   0  0  0  0  0  0  0  0  0  0  0  0
   -2.0965   -1.1112   -0.9033 H   0  0  0  0  0  0  0  0  0  0  0  0
   -0.0909   -0.7460   -0.1735 C   0  0  1  0  0  0  0  0  0  0  0  0
    0.6305   -1.5454   -0.3839 H   0  0  0  0  0  0  0  0  0  0  0  0
   -0.0297    0.2950   -1.3321 C   0  0  0  0  0  0  0  0  0  0  0  0
    0.1814   -0.2501   -2.2585 H   0  0  0  0  0  0  0  0  0  0  0  0
   -1.0309    0.7264   -1.4362 H   0  0  0  0  0  0  0  0  0  0  0  0
    0.9152    1.4901   -1.2454 C   0  0  0  0  0  0  0  0  0  0  0  0
    1.6146    2.0372   -0.1635 N   0  3  0  0  0  0  0  0  0  0  0  0
    1.6609    1.5635    0.7522 H   0  0  0  0  0  0  0  0  0  0  0  0
    2.3422    3.0591   -0.5365 C   0  0  0  0  0  0  0  0  0  0  0  0
    3.0253    3.6290    0.0962 H   0  0  0  0  0  0  0  0  0  0  0  0
    2.1038    3.2520   -1.8924 N   0  0  0  0  0  0  0  0  0  0  0  0
    2.5362    3.9733   -2.4775 H   0  0  0  0  0  0  0  0  0  0  0  0
    1.2254    2.2696   -2.3351 C   0  0  0  0  0  0  0  0  0  0  0  0
    0.8560    2.1343   -3.3517 H   0  0  0  0  0  0  0  0  0  0  0  0
    0.2927   -0.1805    1.2157 C   0  0  0  0  0  0  0  0  0  0  0  0
    1.4736   -0.1039    1.5343 O   0  0  0  0  0  0  0  0  0  0  0  0
   -0.6140    0.5905    1.9205 N   0  0  0  0  0  0  0  0  0  0  0  0
   -1.5894    0.4180    1.6884 H   0  0  0  0  0  0  0  0  0  0  0  0
   -0.3276    1.0976    3.2611 C   0  0  0  0  0  0  0  0  0  0  0  0
    0.5403    1.7651    3.2502 H   0  0  0  0  0  0  0  0  0  0  0  0
   -1.1850    1.6593    3.6455 H   0  0  0  0  0  0  0  0  0  0  0  0
   -0.1222    0.2684    3.9477 H   0  0  0  0  0  0  0  0  0  0  0  0
  1  2  1  0  0  0  0
  2  3  1  0  0  0  0
  2  4  1  0  0  0  0
  2  5  1  0  0  0  0
  5  6  2  0  0  0  0
  5  7  1  0  0  0  0
  7  8  1  0  0  0  0
  7  9  1  0  0  0  0
  9 10  1  0  0  0  0
  9 11  1  0  0  0  0
  9 23  1  0  0  0  0
 11 12  1  0  0  0  0
 11 13  1  0  0  0  0
 11 14  1  0  0  0  0
 14 15  1  0  0  0  0
 14 21  2  0  0  0  0
 15 16  1  0  0  0  0
 15 17  2  0  0  0  0
 17 18  1  0  0  0  0
 17 19  1  0  0  0  0
 19 20  1  0  0  0  0
 19 21  1  0  0  0  0
 21 22  1  0  0  0  0
 23 24  2  0  0  0  0
 23 25  1  0  0  0  0
 25 26  1  0  0  0  0
 25 27  1  0  0  0  0
 27 28  1  0  0  0  0
 27 29  1  0  0  0  0
 27 30  1  0  0  0  0
M  CHG  1  15   1
M  END
$$$$

  -OEChem-04042216003D

 30 30  0     1  0  0  0  0  0999 V2000
   -3.3401   -3.7836    1.2837 H   0  0  0  0  0  0  0  0  0  0  0  0
   -3.2155   -2.9854    0.5460 C   0  0  0  0  0  0  0  0  0  0  0  0
   -3.9950   -2.2366    0.7051 H   0  0  0  0  0  0  0  0  0  0  0  0
   -3.3272   -3.4134   -0.4531 H   0  0  0  0  0  0  0  0  0  0  0  0
   -1.8446   -2.3537    0.6914 C   0  0  0  0  0  0  0  0  0  0  0  0
   -1.0700   -2.7662    1.5342 O   0  0  0  0  0  0  0  0  0  0  0  0
   -1.4637   -1.3134   -0.1403 N   0  0  0  0  0  0  0  0  0  0  0  0
   -2.1065   -1.0974   -0.8980 H   0  0  0  0  0  0  0  0  0  0  0  0
   -0.0931   -0.7512   -0.1784 C   0  0  1  0  0  0  0  0  0  0  0  0
    0.6216   -1.5563   -0.3891 H   0  0  0  0  0  0  0  0  0  0  0  0
   -0.0267    0.2842   -1.3416 C   0  0  0  0  0  0  0  0  0  0  0  0
    0.1991   -0.2680   -2.2604 H   0  0  0  0  0  0  0  0  0  0  0  0
   -1.0274    0.7119   -1.4635 H   0  0  0  0  0  0  0  0  0  0  0  0
    0.9230    1.4751   -1.2566 C   0  0  0  0  0  0  0  0  0  0  0  0
    1.8267    1.8583   -0.2591 N   0  3  0  0  0  0  0  0  0  0  0  0
    1.9853    1.2902    0.5883 H   0  0  0  0  0  0  0  0  0  0  0  0
    2.4660    2.9511   -0.5890 C   0  0  0  0  0  0  0  0  0  0  0  0
    3.2392    3.4478    0.0003 H   0  0  0  0  0  0  0  0  0  0  0  0
    1.9806    3.3426   -1.8318 N   0  0  0  0  0  0  0  0  0  0  0  0
    2.2910    4.1623   -2.3623 H   0  0  0  0  0  0  0  0  0  0  0  0
    1.0246    2.4226   -2.2485 C   0  0  0  0  0  0  0  0  0  0  0  0
    0.4650    2.4411   -3.1839 H   0  0  0  0  0  0  0  0  0  0  0  0
    0.3006   -0.1868    1.2086 C   0  0  0  0  0  0  0  0  0  0  0  0
    1.4822   -0.1631    1.5362 O   0  0  0  0  0  0  0  0  0  0  0  0
   -0.5940    0.5903    1.9213 N   0  0  0  0  0  0  0  0  0  0  0  0
   -1.5726    0.4423    1.6872 H   0  0  0  0  0  0  0  0  0  0  0  0
   -0.2935    1.0986    3.2578 C   0  0  0  0  0  0  0  0  0  0  0  0
    0.5970    1.7355    3.2426 H   0  0  0  0  0  0  0  0  0  0  0  0
   -1.1317    1.6930    3.6350 H   0  0  0  0  0  0  0  0  0  0  0  0
   -0.1183    0.2689    3.9520 H   0  0  0  0  0  0  0  0  0  0  0  0
  1  2  1  0  0  0  0
  2  3  1  0  0  0  0
  2  4  1  0  0  0  0
  2  5  1  0  0  0  0
  5  6  2  0  0  0  0
  5  7  1  0  0  0  0
  7  8  1  0  0  0  0
  7  9  1  0  0  0  0
  9 10  1  0  0  0  0
  9 11  1  0  0  0  0
  9 23  1  0  0  0  0
 11 12  1  0  0  0  0
 11 13  1  0  0  0  0
 11 14  1  0  0  0  0
 14 15  1  0  0  0  0
 14 21  2  0  0  0  0
 15 16  1  0  0  0  0
 15 17  2  0  0  0  0
 17 18  1  0  0  0  0
 17 19  1  0  0  0  0
 19 20  1  0  0  0  0
 19 21  1  0  0  0  0
 21 22  1  0  0  0  0
 23 24  2  0  0  0  0
 23 25  1  0  0  0  0
 25 26  1  0  0  0  0
 25 27  1  0  0  0  0
 27 28  1  0  0  0  0
 27 29  1  0  0  0  0
 27 30  1  0  0  0  0
M  CHG  1  15   1
M  END
$$$$

  -OEChem-04042216003D

 30 30  0     1  0  0  0  0  0999 V2000
   -3.3340   -3.7829    1.3003 H   0  0  0  0  0  0  0  0  0  0  0  0
   -3.2174   -2.9847    0.5610 C   0  0  0  0  0  0  0  0  0  0  0  0
   -3.9935   -2.2347    0.7304 H   0  0  0  0  0  0  0  0  0  0  0  0
   -3.3427   -3.4123   -0.4366 H   0  0  0  0  0  0  0  0  0  0  0  0
   -1.8442   -2.3541    0.6899 C   0  0  0  0  0  0  0  0  0  0  0  0
   -1.0602   -2.7643    1.5253 O   0  0  0  0  0  0  0  0  0  0  0  0
   -1.4723   -1.3155   -0.1476 N   0  0  0  0  0  0  0  0  0  0  0  0
   -2.1210   -1.1021   -0.9010 H   0  0  0  0  0  0  0  0  0  0  0  0
   -0.1043   -0.7494   -0.1935 C   0  0  1  0  0  0  0  0  0  0  0  0
    0.6074   -1.5575   -0.4033 H   0  0  0  0  0  0  0  0  0  0  0  0
   -0.0405    0.2738   -1.3659 C   0  0  0  0  0  0  0  0  0  0  0  0
    0.2049   -0.2866   -2.2745 H   0  0  0  0  0  0  0  0  0  0  0  0
   -1.0424    0.6921   -1.5088 H   0  0  0  0  0  0  0  0  0  0  0  0
    0.9105    1.4611   -1.2742 C   0  0  0  0  0  0  0  0  0  0  0  0
    1.9882    1.6829   -0.4101 N   0  3  0  0  0  0  0  0  0  0  0  0
    2.2276    1.0276    0.3516 H   0  0  0  0  0  0  0  0  0  0  0  0
    2.5627    2.8328   -0.6534 C   0  0  0  0  0  0  0  0  0  0  0  0
    3.4128    3.2543   -0.1139 H   0  0  0  0  0  0  0  0  0  0  0  0
    1.8769    3.4098   -1.7171 N   0  0  0  0  0  0  0  0  0  0  0  0
    2.0942    4.3147   -2.1460 H   0  0  0  0  0  0  0  0  0  0  0  0
    0.8460    2.5584   -2.1005 C   0  0  0  0  0  0  0  0  0  0  0  0
    0.1276    2.7224   -2.9040 H   0  0  0  0  0  0  0  0  0  0  0  0
    0.3092   -0.1745    1.1837 C   0  0  0  0  0  0  0  0  0  0  0  0
    1.4945   -0.1813    1.5015 O   0  0  0  0  0  0  0  0  0  0  0  0
   -0.5712    0.6083    1.9074 N   0  0  0  0  0  0  0  0  0  0  0  0
   -1.5540    0.4741    1.6840 H   0  0  0  0  0  0  0  0  0  0  0  0
   -0.2456    1.1223    3.2353 C   0  0  0  0  0  0  0  0  0  0  0  0
    0.6375    1.7687    3.1967 H   0  0  0  0  0  0  0  0  0  0  0  0
   -1.0810    1.7087    3.6309 H   0  0  0  0  0  0  0  0  0  0  0  0
   -0.0452    0.2965    3.9272 H   0  0  0  0  0  0  0  0  0  0  0  0
  1  2  1  0  0  0  0
  2  3  1  0  0  0  0
  2  4  1  0  0  0  0
  2  5  1  0  0  0  0
  5  6  2  0  0  0  0
  5  7  1  0  0  0  0
  7  8  1  0  0  0  0
  7  9  1  0  0  0  0
  9 10  1  0  0  0  0
  9 11  1  0  0  0  0
  9 23  1  0  0  0  0
 11 12  1  0  0  0  0
 11 13  1  0  0  0  0
 11 14  1  0  0  0  0
 14 15  1  0  0  0  0
 14 21  2  0  0  0  0
 15 16  1  0  0  0  0
 15 17  2  0  0  0  0
 17 18  1  0  0  0  0
 17 19  1  0  0  0  0
 19 20  1  0  0  0  0
 19 21  1  0  0  0  0
 21 22  1  0  0  0  0
 23 24  2  0  0  0  0
 23 25  1  0  0  0  0
 25 26  1  0  0  0  0
 25 27  1  0  0  0  0
 27 28  1  0  0  0  0
 27 29  1  0  0  0  0
 27 30  1  0  0  0  0
M  CHG  1  15   1
M  END
$$$$

  -OEChem-04042216003D

 30 30  0     1  0  0  0  0  0999 V2000
   -3.2929   -3.8124    1.3170 H   0  0  0  0  0  0  0  0  0  0  0  0
   -3.2019   -3.0094    0.5792 C   0  0  0  0  0  0  0  0  0  0  0  0
   -3.9873   -2.2731    0.7650 H   0  0  0  0  0  0  0  0  0  0  0  0
   -3.3365   -3.4349   -0.4181 H   0  0  0  0  0  0  0  0  0  0  0  0
   -1.8368   -2.3576    0.6881 C   0  0  0  0  0  0  0  0  0  0  0  0
   -1.0355   -2.7547    1.5134 O   0  0  0  0  0  0  0  0  0  0  0  0
   -1.4889   -1.3171   -0.1571 N   0  0  0  0  0  0  0  0  0  0  0  0
   -2.1521   -1.1069   -0.8988 H   0  0  0  0  0  0  0  0  0  0  0  0
   -0.1286   -0.7360   -0.2180 C   0  0  1  0  0  0  0  0  0  0  0  0
    0.5830   -1.5443   -0.4281 H   0  0  0  0  0  0  0  0  0  0  0  0
   -0.0704    0.2730   -1.4010 C   0  0  0  0  0  0  0  0  0  0  0  0
    0.1911   -0.2903   -2.3034 H   0  0  0  0  0  0  0  0  0  0  0  0
   -1.0734    0.6826   -1.5590 H   0  0  0  0  0  0  0  0  0  0  0  0
    0.8807    1.4554   -1.2886 C   0  0  0  0  0  0  0  0  0  0  0  0
    2.0974    1.5280   -0.6025 N   0  3  0  0  0  0  0  0  0  0  0  0
    2.3916    0.7966    0.0648 H   0  0  0  0  0  0  0  0  0  0  0  0
    2.6362    2.7137   -0.7295 C   0  0  0  0  0  0  0  0  0  0  0  0
    3.5530    3.0580   -0.2470 H   0  0  0  0  0  0  0  0  0  0  0  0
    1.8017    3.4525   -1.5624 N   0  0  0  0  0  0  0  0  0  0  0  0
    1.9578    4.4224   -1.8537 H   0  0  0  0  0  0  0  0  0  0  0  0
    0.7015    2.6722   -1.9021 C   0  0  0  0  0  0  0  0  0  0  0  0
   -0.1375    2.9625   -2.5344 H   0  0  0  0  0  0  0  0  0  0  0  0
    0.3119   -0.1467    1.1447 C   0  0  0  0  0  0  0  0  0  0  0  0
    1.5043   -0.1607    1.4366 O   0  0  0  0  0  0  0  0  0  0  0  0
   -0.5548    0.6360    1.8847 N   0  0  0  0  0  0  0  0  0  0  0  0
   -1.5426    0.5002    1.6855 H   0  0  0  0  0  0  0  0  0  0  0  0
   -0.1951    1.1653    3.1976 C   0  0  0  0  0  0  0  0  0  0  0  0
    0.6696    1.8330    3.1234 H   0  0  0  0  0  0  0  0  0  0  0  0
   -1.0300    1.7328    3.6208 H   0  0  0  0  0  0  0  0  0  0  0  0
    0.0510    0.3486    3.8855 H   0  0  0  0  0  0  0  0  0  0  0  0
  1  2  1  0  0  0  0
  2  3  1  0  0  0  0
  2  4  1  0  0  0  0
  2  5  1  0  0  0  0
  5  6  2  0  0  0  0
  5  7  1  0  0  0  0
  7  8  1  0  0  0  0
  7  9  1  0  0  0  0
  9 10  1  0  0  0  0
  9 11  1  0  0  0  0
  9 23  1  0  0  0  0
 11 12  1  0  0  0  0
 11 13  1  0  0  0  0
 11 14  1  0  0  0  0
 14 15  1  0  0  0  0
 14 21  2  0  0  0  0
 15 16  1  0  0  0  0
 15 17  2  0  0  0  0
 17 18  1  0  0  0  0
 17 19  1  0  0  0  0
 19 20  1  0  0  0  0
 19 21  1  0  0  0  0
 21 22  1  0  0  0  0
 23 24  2  0  0  0  0
 23 25  1  0  0  0  0
 25 26  1  0  0  0  0
 25 27  1  0  0  0  0
 27 28  1  0  0  0  0
 27 29  1  0  0  0  0
 27 30  1  0  0  0  0
M  CHG  1  15   1
M  END
$$$$

  -OEChem-04042216003D

 30 30  0     1  0  0  0  0  0999 V2000
   -3.2550   -3.8432    1.3231 H   0  0  0  0  0  0  0  0  0  0  0  0
   -3.1842   -3.0381    0.5857 C   0  0  0  0  0  0  0  0  0  0  0  0
   -3.9788   -2.3142    0.7806 H   0  0  0  0  0  0  0  0  0  0  0  0
   -3.3228   -3.4645   -0.4107 H   0  0  0  0  0  0  0  0  0  0  0  0
   -1.8287   -2.3647    0.6814 C   0  0  0  0  0  0  0  0  0  0  0  0
   -1.0135   -2.7455    1.5009 O   0  0  0  0  0  0  0  0  0  0  0  0
   -1.5055   -1.3191   -0.1667 N   0  0  0  0  0  0  0  0  0  0  0  0
   -2.1783   -1.1188   -0.9026 H   0  0  0  0  0  0  0  0  0  0  0  0
   -0.1554   -0.7182   -0.2392 C   0  0  1  0  0  0  0  0  0  0  0  0
    0.5582   -1.5245   -0.4503 H   0  0  0  0  0  0  0  0  0  0  0  0
   -0.1028    0.2760   -1.4317 C   0  0  0  0  0  0  0  0  0  0  0  0
    0.1721   -0.2857   -2.3311 H   0  0  0  0  0  0  0  0  0  0  0  0
   -1.1068    0.6794   -1.5990 H   0  0  0  0  0  0  0  0  0  0  0  0
    0.8443    1.4544   -1.2889 C   0  0  0  0  0  0  0  0  0  0  0  0
    2.1619    1.4194   -0.8228 N   0  3  0  0  0  0  0  0  0  0  0  0
    2.5192    0.6199   -0.2792 H   0  0  0  0  0  0  0  0  0  0  0  0
    2.6823    2.6207   -0.8298 C   0  0  0  0  0  0  0  0  0  0  0  0
    3.6600    2.8987   -0.4311 H   0  0  0  0  0  0  0  0  0  0  0  0
    1.7362    3.4757   -1.3878 N   0  0  0  0  0  0  0  0  0  0  0  0
    1.8537    4.4837   -1.5282 H   0  0  0  0  0  0  0  0  0  0  0  0
    0.5821    2.7501   -1.6622 C   0  0  0  0  0  0  0  0  0  0  0  0
   -0.3459    3.1290   -2.0904 H   0  0  0  0  0  0  0  0  0  0  0  0
    0.3150   -0.1148    1.1067 C   0  0  0  0  0  0  0  0  0  0  0  0
    1.5166   -0.1174    1.3593 O   0  0  0  0  0  0  0  0  0  0  0  0
   -0.5380    0.6649    1.8654 N   0  0  0  0  0  0  0  0  0  0  0  0
   -1.5297    0.5135    1.6991 H   0  0  0  0  0  0  0  0  0  0  0  0
   -0.1433    1.2088    3.1621 C   0  0  0  0  0  0  0  0  0  0  0  0
    0.7206    1.8737    3.0570 H   0  0  0  0  0  0  0  0  0  0  0  0
   -0.9658    1.7830    3.6001 H   0  0  0  0  0  0  0  0  0  0  0  0
    0.1195    0.3997    3.8529 H   0  0  0  0  0  0  0  0  0  0  0  0
  1  2  1  0  0  0  0
  2  3  1  0  0  0  0
  2  4  1  0  0  0  0
  2  5  1  0  0  0  0
  5  6  2  0  0  0  0
  5  7  1  0  0  0  0
  7  8  1  0  0  0  0
  7  9  1  0  0  0  0
  9 10  1  0  0  0  0
  9 11  1  0  0  0  0
  9 23  1  0  0  0  0
 11 12  1  0  0  0  0
 11 13  1  0  0  0  0
 11 14  1  0  0  0  0
 14 15  1  0  0  0  0
 14 21  2  0  0  0  0
 15 16  1  0  0  0  0
 15 17  2  0  0  0  0
 17 18  1  0  0  0  0
 17 19  1  0  0  0  0
 19 20  1  0  0  0  0
 19 21  1  0  0  0  0
 21 22  1  0  0  0  0
 23 24  2  0  0  0  0
 23 25  1  0  0  0  0
 25 26  1  0  0  0  0
 25 27  1  0  0  0  0
 27 28  1  0  0  0  0
 27 29  1  0  0  0  0
 27 30  1  0  0  0  0
M  CHG  1  15   1
M  END
$$$$

  -OEChem-04042216003D

 30 30  0     1  0  0  0  0  0999 V2000
   -3.2197   -3.8628    1.3391 H   0  0  0  0  0  0  0  0  0  0  0  0
   -3.1648   -3.0618    0.5958 C   0  0  0  0  0  0  0  0  0  0  0  0
   -3.9686   -2.3480    0.7907 H   0  0  0  0  0  0  0  0  0  0  0  0
   -3.3031   -3.4970   -0.3968 H   0  0  0  0  0  0  0  0  0  0  0  0
   -1.8184   -2.3688    0.6786 C   0  0  0  0  0  0  0  0  0  0  0  0
   -0.9921   -2.7336    1.4942 O   0  0  0  0  0  0  0  0  0  0  0  0
   -1.5159   -1.3231   -0.1766 N   0  0  0  0  0  0  0  0  0  0  0  0
   -2.1956   -1.1364   -0.9097 H   0  0  0  0  0  0  0  0  0  0  0  0
   -0.1739   -0.7070   -0.2623 C   0  0  1  0  0  0  0  0  0  0  0  0
    0.5431   -1.5099   -0.4734 H   0  0  0  0  0  0  0  0  0  0  0  0
   -0.1305    0.2796   -1.4588 C   0  0  0  0  0  0  0  0  0  0  0  0
    0.1435   -0.2735   -2.3636 H   0  0  0  0  0  0  0  0  0  0  0  0
   -1.1348    0.6845   -1.6203 H   0  0  0  0  0  0  0  0  0  0  0  0
    0.8166    1.4498   -1.2842 C   0  0  0  0  0  0  0  0  0  0  0  0
    2.1964    1.3622   -1.0817 N   0  3  0  0  0  0  0  0  0  0  0  0
    2.6454    0.4894   -0.7808 H   0  0  0  0  0  0  0  0  0  0  0  0
    2.7118    2.5594   -0.9534 C   0  0  0  0  0  0  0  0  0  0  0  0
    3.7457    2.7878   -0.6876 H   0  0  0  0  0  0  0  0  0  0  0  0
    1.6856    3.4767   -1.1633 N   0  0  0  0  0  0  0  0  0  0  0  0
    1.7804    4.4960   -1.1228 H   0  0  0  0  0  0  0  0  0  0  0  0
    0.4968    2.7831   -1.3594 C   0  0  0  0  0  0  0  0  0  0  0  0
   -0.4923    3.2072   -1.5309 H   0  0  0  0  0  0  0  0  0  0  0  0
    0.3153   -0.0878    1.0699 C   0  0  0  0  0  0  0  0  0  0  0  0
    1.5222   -0.0634    1.2911 O   0  0  0  0  0  0  0  0  0  0  0  0
   -0.5331    0.6904    1.8359 N   0  0  0  0  0  0  0  0  0  0  0  0
   -1.5248    0.5135    1.6996 H   0  0  0  0  0  0  0  0  0  0  0  0
   -0.1164    1.2583    3.1152 C   0  0  0  0  0  0  0  0  0  0  0  0
    0.7475    1.9183    2.9834 H   0  0  0  0  0  0  0  0  0  0  0  0
   -0.9304    1.8435    3.5548 H   0  0  0  0  0  0  0  0  0  0  0  0
    0.1554    0.4620    3.8171 H   0  0  0  0  0  0  0  0  0  0  0  0
  1  2  1  0  0  0  0
  2  3  1  0  0  0  0
  2  4  1  0  0  0  0
  2  5  1  0  0  0  0
  5  6  2  0  0  0  0
  5  7  1  0  0  0  0
  7  8  1  0  0  0  0
  7  9  1  0  0  0  0
  9 10  1  0  0  0  0
  9 11  1  0  0  0  0
  9 23  1  0  0  0  0
 11 12  1  0  0  0  0
 11 13  1  0  0  0  0
 11 14  1  0  0  0  0
 14 15  1  0  0  0  0
 14 21  2  0  0  0  0
 15 16  1  0  0  0  0
 15 17  2  0  0  0  0
 17 18  1  0  0  0  0
 17 19  1  0  0  0  0
 19 20  1  0  0  0  0
 19 21  1  0  0  0  0
 21 22  1  0  0  0  0
 23 24  2  0  0  0  0
 23 25  1  0  0  0  0
 25 26  1  0  0  0  0
 25 27  1  0  0  0  0
 27 28  1  0  0  0  0
 27 29  1  0  0  0  0
 27 30  1  0  0  0  0
M  CHG  1  15   1
M  END
$$$$

  -OEChem-04042216003D

 30 30  0     1  0  0  0  0  0999 V2000
   -3.1956   -3.8743    1.3489 H   0  0  0  0  0  0  0  0  0  0  0  0
   -3.1506   -3.0732    0.6052 C   0  0  0  0  0  0  0  0  0  0  0  0
   -3.9629   -2.3690    0.8002 H   0  0  0  0  0  0  0  0  0  0  0  0
   -3.2849   -3.5111   -0.3867 H   0  0  0  0  0  0  0  0  0  0  0  0
   -1.8122   -2.3644    0.6860 C   0  0  0  0  0  0  0  0  0  0  0  0
   -0.9863   -2.7102    1.5102 O   0  0  0  0  0  0  0  0  0  0  0  0
   -1.5182   -1.3250   -0.1799 N   0  0  0  0  0  0  0  0  0  0  0  0
   -2.1986   -1.1548   -0.9162 H   0  0  0  0  0  0  0  0  0  0  0  0
   -0.1794   -0.7034   -0.2789 C   0  0  1  0  0  0  0  0  0  0  0  0
    0.5422   -1.5022   -0.4889 H   0  0  0  0  0  0  0  0  0  0  0  0
   -0.1468    0.2819   -1.4762 C   0  0  0  0  0  0  0  0  0  0  0  0
    0.1109   -0.2621   -2.3911 H   0  0  0  0  0  0  0  0  0  0  0  0
   -1.1507    0.6948   -1.6186 H   0  0  0  0  0  0  0  0  0  0  0  0
    0.8053    1.4427   -1.2841 C   0  0  0  0  0  0  0  0  0  0  0  0
    2.1976    1.3760   -1.3728 N   0  3  0  0  0  0  0  0  0  0  0  0
    2.7054    0.4876   -1.4119 H   0  0  0  0  0  0  0  0  0  0  0  0
    2.7232    2.5478   -1.1134 C   0  0  0  0  0  0  0  0  0  0  0  0
    3.7881    2.7713   -1.0264 H   0  0  0  0  0  0  0  0  0  0  0  0
    1.6716    3.4411   -0.9254 N   0  0  0  0  0  0  0  0  0  0  0  0
    1.7684    4.4325   -0.6865 H   0  0  0  0  0  0  0  0  0  0  0  0
    0.4704    2.7493   -1.0269 C   0  0  0  0  0  0  0  0  0  0  0  0
   -0.5346    3.1512   -0.9011 H   0  0  0  0  0  0  0  0  0  0  0  0
    0.3135   -0.0701    1.0463 C   0  0  0  0  0  0  0  0  0  0  0  0
    1.5212   -0.0124    1.2518 O   0  0  0  0  0  0  0  0  0  0  0  0
   -0.5404    0.7094    1.8061 N   0  0  0  0  0  0  0  0  0  0  0  0
   -1.5288    0.5021    1.6897 H   0  0  0  0  0  0  0  0  0  0  0  0
   -0.1190    1.2973    3.0748 C   0  0  0  0  0  0  0  0  0  0  0  0
    0.7390    1.9620    2.9282 H   0  0  0  0  0  0  0  0  0  0  0  0
   -0.9339    1.8819    3.5132 H   0  0  0  0  0  0  0  0  0  0  0  0
    0.1651    0.5122    3.7845 H   0  0  0  0  0  0  0  0  0  0  0  0
  1  2  1  0  0  0  0
  2  3  1  0  0  0  0
  2  4  1  0  0  0  0
  2  5  1  0  0  0  0
  5  6  2  0  0  0  0
  5  7  1  0  0  0  0
  7  8  1  0  0  0  0
  7  9  1  0  0  0  0
  9 10  1  0  0  0  0
  9 11  1  0  0  0  0
  9 23  1  0  0  0  0
 11 12  1  0  0  0  0
 11 13  1  0  0  0  0
 11 14  1  0  0  0  0
 14 15  1  0  0  0  0
 14 21  2  0  0  0  0
 15 16  1  0  0  0  0
 15 17  2  0  0  0  0
 17 18  1  0  0  0  0
 17 19  1  0  0  0  0
 19 20  1  0  0  0  0
 19 21  1  0  0  0  0
 21 22  1  0  0  0  0
 23 24  2  0  0  0  0
 23 25  1  0  0  0  0
 25 26  1  0  0  0  0
 25 27  1  0  0  0  0
 27 28  1  0  0  0  0
 27 29  1  0  0  0  0
 27 30  1  0  0  0  0
M  CHG  1  15   1
M  END
$$$$

  -OEChem-04042216003D

 30 30  0     1  0  0  0  0  0999 V2000
   -3.1953   -3.8715    1.3531 H   0  0  0  0  0  0  0  0  0  0  0  0
   -3.1491   -3.0729    0.6067 C   0  0  0  0  0  0  0  0  0  0  0  0
   -3.9616   -2.3679    0.7977 H   0  0  0  0  0  0  0  0  0  0  0  0
   -3.2808   -3.5141   -0.3842 H   0  0  0  0  0  0  0  0  0  0  0  0
   -1.8113   -2.3633    0.6878 C   0  0  0  0  0  0  0  0  0  0  0  0
   -0.9850   -2.7101    1.5111 O   0  0  0  0  0  0  0  0  0  0  0  0
   -1.5189   -1.3225   -0.1768 N   0  0  0  0  0  0  0  0  0  0  0  0
   -2.2001   -1.1523   -0.9124 H   0  0  0  0  0  0  0  0  0  0  0  0
   -0.1803   -0.7004   -0.2780 C   0  0  1  0  0  0  0  0  0  0  0  0
    0.5435   -1.4971   -0.4893 H   0  0  0  0  0  0  0  0  0  0  0  0
   -0.1474    0.2866   -1.4741 C   0  0  0  0  0  0  0  0  0  0  0  0
    0.0986   -0.2551   -2.3935 H   0  0  0  0  0  0  0  0  0  0  0  0
   -1.1499    0.7064   -1.6071 H   0  0  0  0  0  0  0  0  0  0  0  0
    0.8068    1.4451   -1.2802 C   0  0  0  0  0  0  0  0  0  0  0  0
    2.1530    1.4605   -1.6495 N   0  3  0  0  0  0  0  0  0  0  0  0
    2.6473    0.6270   -1.9783 H   0  0  0  0  0  0  0  0  0  0  0  0
    2.7029    2.6005   -1.3096 C   0  0  0  0  0  0  0  0  0  0  0  0
    3.7577    2.8642   -1.4076 H   0  0  0  0  0  0  0  0  0  0  0  0
    1.6990    3.3985   -0.7668 N   0  0  0  0  0  0  0  0  0  0  0  0
    1.8279    4.3390   -0.3821 H   0  0  0  0  0  0  0  0  0  0  0  0
    0.5118    2.6771   -0.7495 C   0  0  0  0  0  0  0  0  0  0  0  0
   -0.4519    3.0018   -0.3586 H   0  0  0  0  0  0  0  0  0  0  0  0
    0.3089   -0.0712    1.0510 C   0  0  0  0  0  0  0  0  0  0  0  0
    1.5150    0.0067    1.2543 O   0  0  0  0  0  0  0  0  0  0  0  0
   -0.5517    0.7038    1.8096 N   0  0  0  0  0  0  0  0  0  0  0  0
   -1.5364    0.4739    1.7035 H   0  0  0  0  0  0  0  0  0  0  0  0
   -0.1322    1.2954    3.0777 C   0  0  0  0  0  0  0  0  0  0  0  0
    0.7202    1.9668    2.9288 H   0  0  0  0  0  0  0  0  0  0  0  0
   -0.9506    1.8733    3.5182 H   0  0  0  0  0  0  0  0  0  0  0  0
    0.1598    0.5128    3.7871 H   0  0  0  0  0  0  0  0  0  0  0  0
  1  2  1  0  0  0  0
  2  3  1  0  0  0  0
  2  4  1  0  0  0  0
  2  5  1  0  0  0  0
  5  6  2  0  0  0  0
  5  7  1  0  0  0  0
  7  8  1  0  0  0  0
  7  9  1  0  0  0  0
  9 10  1  0  0  0  0
  9 11  1  0  0  0  0
  9 23  1  0  0  0  0
 11 12  1  0  0  0  0
 11 13  1  0  0  0  0
 11 14  1  0  0  0  0
 14 15  1  0  0  0  0
 14 21  2  0  0  0  0
 15 16  1  0  0  0  0
 15 17  2  0  0  0  0
 17 18  1  0  0  0  0
 17 19  1  0  0  0  0
 19 20  1  0  0  0  0
 19 21  1  0  0  0  0
 21 22  1  0  0  0  0
 23 24  2  0  0  0  0
 23 25  1  0  0  0  0
 25 26  1  0  0  0  0
 25 27  1  0  0  0  0
 27 28  1  0  0  0  0
 27 29  1  0  0  0  0
 27 30  1  0  0  0  0
M  CHG  1  15   1
M  END
$$$$

  -OEChem-04042216003D

 30 30  0     1  0  0  0  0  0999 V2000
   -3.2146   -3.8680    1.3346 H   0  0  0  0  0  0  0  0  0  0  0  0
   -3.1600   -3.0617    0.5971 C   0  0  0  0  0  0  0  0  0  0  0  0
   -3.9679   -2.3527    0.7930 H   0  0  0  0  0  0  0  0  0  0  0  0
   -3.2920   -3.4911   -0.3990 H   0  0  0  0  0  0  0  0  0  0  0  0
   -1.8171   -2.3630    0.6902 C   0  0  0  0  0  0  0  0  0  0  0  0
   -0.9979   -2.7223    1.5151 O   0  0  0  0  0  0  0  0  0  0  0  0
   -1.5139   -1.3167   -0.1643 N   0  0  0  0  0  0  0  0  0  0  0  0
   -2.1939   -1.1316   -0.8975 H   0  0  0  0  0  0  0  0  0  0  0  0
   -0.1717   -0.6997   -0.2556 C   0  0  1  0  0  0  0  0  0  0  0  0
    0.5506   -1.4988   -0.4630 H   0  0  0  0  0  0  0  0  0  0  0  0
   -0.1260    0.2871   -1.4531 C   0  0  0  0  0  0  0  0  0  0  0  0
    0.1183   -0.2631   -2.3675 H   0  0  0  0  0  0  0  0  0  0  0  0
   -1.1265    0.7097   -1.5917 H   0  0  0  0  0  0  0  0  0  0  0  0
    0.8257    1.4527   -1.2788 C   0  0  0  0  0  0  0  0  0  0  0  0
    2.0678    1.5874   -1.9029 N   0  3  0  0  0  0  0  0  0  0  0  0
    2.4938    0.8425   -2.4601 H   0  0  0  0  0  0  0  0  0  0  0  0
    2.6459    2.7037   -1.5316 C   0  0  0  0  0  0  0  0  0  0  0  0
    3.6470    3.0383   -1.8097 H   0  0  0  0  0  0  0  0  0  0  0  0
    1.7565    3.3708   -0.6939 N   0  0  0  0  0  0  0  0  0  0  0  0
    1.9386    4.2577   -0.2148 H   0  0  0  0  0  0  0  0  0  0  0  0
    0.6141    2.5951   -0.5446 C   0  0  0  0  0  0  0  0  0  0  0  0
   -0.2604    2.8198    0.0659 H   0  0  0  0  0  0  0  0  0  0  0  0
    0.3057   -0.0863    1.0843 C   0  0  0  0  0  0  0  0  0  0  0  0
    1.5086   -0.0001    1.2980 O   0  0  0  0  0  0  0  0  0  0  0  0
   -0.5633    0.6821    1.8410 N   0  0  0  0  0  0  0  0  0  0  0  0
   -1.5449    0.4418    1.7282 H   0  0  0  0  0  0  0  0  0  0  0  0
   -0.1576    1.2505    3.1244 C   0  0  0  0  0  0  0  0  0  0  0  0
    0.6916    1.9302    2.9973 H   0  0  0  0  0  0  0  0  0  0  0  0
   -0.9833    1.8137    3.5707 H   0  0  0  0  0  0  0  0  0  0  0  0
    0.1340    0.4550    3.8194 H   0  0  0  0  0  0  0  0  0  0  0  0
  1  2  1  0  0  0  0
  2  3  1  0  0  0  0
  2  4  1  0  0  0  0
  2  5  1  0  0  0  0
  5  6  2  0  0  0  0
  5  7  1  0  0  0  0
  7  8  1  0  0  0  0
  7  9  1  0  0  0  0
  9 10  1  0  0  0  0
  9 11  1  0  0  0  0
  9 23  1  0  0  0  0
 11 12  1  0  0  0  0
 11 13  1  0  0  0  0
 11 14  1  0  0  0  0
 14 15  1  0  0  0  0
 14 21  2  0  0  0  0
 15 16  1  0  0  0  0
 15 17  2  0  0  0  0
 17 18  1  0  0  0  0
 17 19  1  0  0  0  0
 19 20  1  0  0  0  0
 19 21  1  0  0  0  0
 21 22  1  0  0  0  0
 23 24  2  0  0  0  0
 23 25  1  0  0  0  0
 25 26  1  0  0  0  0
 25 27  1  0  0  0  0
 27 28  1  0  0  0  0
 27 29  1  0  0  0  0
 27 30  1  0  0  0  0
M  CHG  1  15   1
M  END
$$$$

  -OEChem-04042216003D

 30 30  0     1  0  0  0  0  0999 V2000
   -3.2408   -3.8610    1.3078 H   0  0  0  0  0  0  0  0  0  0  0  0
   -3.1735   -3.0471    0.5795 C   0  0  0  0  0  0  0  0  0  0  0  0
   -3.9715   -2.3292    0.7824 H   0  0  0  0  0  0  0  0  0  0  0  0
   -3.3100   -3.4623   -0.4219 H   0  0  0  0  0  0  0  0  0  0  0  0
   -1.8213   -2.3684    0.6832 C   0  0  0  0  0  0  0  0  0  0  0  0
   -1.0071   -2.7524    1.5017 O   0  0  0  0  0  0  0  0  0  0  0  0
   -1.5049   -1.3105   -0.1522 N   0  0  0  0  0  0  0  0  0  0  0  0
   -2.1833   -1.1005   -0.8800 H   0  0  0  0  0  0  0  0  0  0  0  0
   -0.1591   -0.6970   -0.2222 C   0  0  1  0  0  0  0  0  0  0  0  0
    0.5629   -1.4980   -0.4237 H   0  0  0  0  0  0  0  0  0  0  0  0
   -0.0898    0.2888   -1.4217 C   0  0  0  0  0  0  0  0  0  0  0  0
    0.1651   -0.2781   -2.3229 H   0  0  0  0  0  0  0  0  0  0  0  0
   -1.0892    0.7067   -1.5812 H   0  0  0  0  0  0  0  0  0  0  0  0
    0.8533    1.4702   -1.2765 C   0  0  0  0  0  0  0  0  0  0  0  0
    1.9355    1.7323   -2.1213 N   0  3  0  0  0  0  0  0  0  0  0  0
    2.2376    1.0861   -2.8547 H   0  0  0  0  0  0  0  0  0  0  0  0
    2.5550    2.8273   -1.7523 C   0  0  0  0  0  0  0  0  0  0  0  0
    3.4623    3.2416   -2.1958 H   0  0  0  0  0  0  0  0  0  0  0  0
    1.8502    3.3551   -0.6754 N   0  0  0  0  0  0  0  0  0  0  0  0
    2.1080    4.1917   -0.1433 H   0  0  0  0  0  0  0  0  0  0  0  0
    0.7780    2.5206   -0.3913 C   0  0  0  0  0  0  0  0  0  0  0  0
    0.0404    2.6525    0.3996 H   0  0  0  0  0  0  0  0  0  0  0  0
    0.2978   -0.1092    1.1346 C   0  0  0  0  0  0  0  0  0  0  0  0
    1.4962   -0.0229    1.3679 O   0  0  0  0  0  0  0  0  0  0  0  0
   -0.5818    0.6470    1.8920 N   0  0  0  0  0  0  0  0  0  0  0  0
   -1.5625    0.4141    1.7551 H   0  0  0  0  0  0  0  0  0  0  0  0
   -0.1980    1.1790    3.1979 C   0  0  0  0  0  0  0  0  0  0  0  0
    0.6576    1.8565    3.1058 H   0  0  0  0  0  0  0  0  0  0  0  0
   -1.0294    1.7349    3.6428 H   0  0  0  0  0  0  0  0  0  0  0  0
    0.0753    0.3636    3.8770 H   0  0  0  0  0  0  0  0  0  0  0  0
  1  2  1  0  0  0  0
  2  3  1  0  0  0  0
  2  4  1  0  0  0  0
  2  5  1  0  0  0  0
  5  6  2  0  0  0  0
  5  7  1  0  0  0  0
  7  8  1  0  0  0  0
  7  9  1  0  0  0  0
  9 10  1  0  0  0  0
  9 11  1  0  0  0  0
  9 23  1  0  0  0  0
 11 12  1  0  0  0  0
 11 13  1  0  0  0  0
 11 14  1  0  0  0  0
 14 15  1  0  0  0  0
 14 21  2  0  0  0  0
 15 16  1  0  0  0  0
 15 17  2  0  0  0  0
 17 18  1  0  0  0  0
 17 19  1  0  0  0  0
 19 20  1  0  0  0  0
 19 21  1  0  0  0  0
 21 22  1  0  0  0  0
 23 24  2  0  0  0  0
 23 25  1  0  0  0  0
 25 26  1  0  0  0  0
 25 27  1  0  0  0  0
 27 28  1  0  0  0  0
 27 29  1  0  0  0  0
 27 30  1  0  0  0  0
M  CHG  1  15   1
M  END
$$$$

  -OEChem-04042216003D

 30 30  0     1  0  0  0  0  0999 V2000
   -3.2653   -3.8532    1.2651 H   0  0  0  0  0  0  0  0  0  0  0  0
   -3.1791   -3.0310    0.5483 C   0  0  0  0  0  0  0  0  0  0  0  0
   -3.9701   -2.3052    0.7509 H   0  0  0  0  0  0  0  0  0  0  0  0
   -3.3088   -3.4324   -0.4597 H   0  0  0  0  0  0  0  0  0  0  0  0
   -1.8196   -2.3715    0.6756 C   0  0  0  0  0  0  0  0  0  0  0  0
   -1.0151   -2.7839    1.4898 O   0  0  0  0  0  0  0  0  0  0  0  0
   -1.4843   -1.3024   -0.1380 N   0  0  0  0  0  0  0  0  0  0  0  0
   -2.1608   -1.0614   -0.8576 H   0  0  0  0  0  0  0  0  0  0  0  0
   -0.1355   -0.6920   -0.1797 C   0  0  1  0  0  0  0  0  0  0  0  0
    0.5900   -1.4916   -0.3759 H   0  0  0  0  0  0  0  0  0  0  0  0
   -0.0502    0.2992   -1.3763 C   0  0  0  0  0  0  0  0  0  0  0  0
    0.2235   -0.2839   -2.2616 H   0  0  0  0  0  0  0  0  0  0  0  0
   -1.0515    0.7026   -1.5589 H   0  0  0  0  0  0  0  0  0  0  0  0
    0.8761    1.5040   -1.2739 C   0  0  0  0  0  0  0  0  0  0  0  0
    1.7312    1.8969   -2.3095 N   0  3  0  0  0  0  0  0  0  0  0  0
    1.8364    1.3622   -3.1754 H   0  0  0  0  0  0  0  0  0  0  0  0
    2.4219    2.9583   -1.9705 C   0  0  0  0  0  0  0  0  0  0  0  0
    3.1904    3.4530   -2.5677 H   0  0  0  0  0  0  0  0  0  0  0  0
    2.0032    3.3285   -0.6981 N   0  0  0  0  0  0  0  0  0  0  0  0
    2.3813    4.1024   -0.1435 H   0  0  0  0  0  0  0  0  0  0  0  0
    1.0317    2.4347   -0.2706 C   0  0  0  0  0  0  0  0  0  0  0  0
    0.5178    2.4583    0.6891 H   0  0  0  0  0  0  0  0  0  0  0  0
    0.2868   -0.1317    1.1980 C   0  0  0  0  0  0  0  0  0  0  0  0
    1.4775   -0.0519    1.4675 O   0  0  0  0  0  0  0  0  0  0  0  0
   -0.6119    0.6097    1.9475 N   0  0  0  0  0  0  0  0  0  0  0  0
   -1.5897    0.3981    1.7646 H   0  0  0  0  0  0  0  0  0  0  0  0
   -0.2737    1.0962    3.2836 C   0  0  0  0  0  0  0  0  0  0  0  0
    0.6063    1.7474    3.2514 H   0  0  0  0  0  0  0  0  0  0  0  0
   -1.1071    1.6686    3.7030 H   0  0  0  0  0  0  0  0  0  0  0  0
   -0.0597    0.2554    3.9531 H   0  0  0  0  0  0  0  0  0  0  0  0
  1  2  1  0  0  0  0
  2  3  1  0  0  0  0
  2  4  1  0  0  0  0
  2  5  1  0  0  0  0
  5  6  2  0  0  0  0
  5  7  1  0  0  0  0
  7  8  1  0  0  0  0
  7  9  1  0  0  0  0
  9 10  1  0  0  0  0
  9 11  1  0  0  0  0
  9 23  1  0  0  0  0
 11 12  1  0  0  0  0
 11 13  1  0  0  0  0
 11 14  1  0  0  0  0
 14 15  1  0  0  0  0
 14 21  2  0  0  0  0
 15 16  1  0  0  0  0
 15 17  2  0  0  0  0
 17 18  1  0  0  0  0
 17 19  1  0  0  0  0
 19 20  1  0  0  0  0
 19 21  1  0  0  0  0
 21 22  1  0  0  0  0
 23 24  2  0  0  0  0
 23 25  1  0  0  0  0
 25 26  1  0  0  0  0
 25 27  1  0  0  0  0
 27 28  1  0  0  0  0
 27 29  1  0  0  0  0
 27 30  1  0  0  0  0
M  CHG  1  15   1
M  END
$$$$

  -OEChem-04042216003D

 30 30  0     1  0  0  0  0  0999 V2000
   -3.3082   -3.8326    1.2161 H   0  0  0  0  0  0  0  0  0  0  0  0
   -3.1988   -3.0014    0.5131 C   0  0  0  0  0  0  0  0  0  0  0  0
   -3.9774   -2.2636    0.7202 H   0  0  0  0  0  0  0  0  0  0  0  0
   -3.3267   -3.3841   -0.5022 H   0  0  0  0  0  0  0  0  0  0  0  0
   -1.8276   -2.3713    0.6640 C   0  0  0  0  0  0  0  0  0  0  0  0
   -1.0435   -2.8069    1.4858 O   0  0  0  0  0  0  0  0  0  0  0  0
   -1.4612   -1.3013   -0.1348 N   0  0  0  0  0  0  0  0  0  0  0  0
   -2.1221   -1.0424   -0.8625 H   0  0  0  0  0  0  0  0  0  0  0  0
   -0.1043   -0.7060   -0.1432 C   0  0  1  0  0  0  0  0  0  0  0  0
    0.6217   -1.5053   -0.3386 H   0  0  0  0  0  0  0  0  0  0  0  0
   -0.0129    0.3029   -1.3264 C   0  0  0  0  0  0  0  0  0  0  0  0
    0.2688   -0.2816   -2.2085 H   0  0  0  0  0  0  0  0  0  0  0  0
   -1.0168    0.6980   -1.5125 H   0  0  0  0  0  0  0  0  0  0  0  0
    0.9019    1.5237   -1.2531 C   0  0  0  0  0  0  0  0  0  0  0  0
    1.4830    2.0715   -2.4034 N   0  3  0  0  0  0  0  0  0  0  0  0
    1.3511    1.6705   -3.3354 H   0  0  0  0  0  0  0  0  0  0  0  0
    2.2439    3.0974   -2.1089 C   0  0  0  0  0  0  0  0  0  0  0  0
    2.8349    3.6933   -2.8074 H   0  0  0  0  0  0  0  0  0  0  0  0
    2.1674    3.2783   -0.7342 N   0  0  0  0  0  0  0  0  0  0  0  0
    2.6751    3.9839   -0.1914 H   0  0  0  0  0  0  0  0  0  0  0  0
    1.3302    2.3082   -0.2025 C   0  0  0  0  0  0  0  0  0  0  0  0
    1.0885    2.1970    0.8535 H   0  0  0  0  0  0  0  0  0  0  0  0
    0.2855   -0.1622    1.2488 C   0  0  0  0  0  0  0  0  0  0  0  0
    1.4654   -0.1356    1.5719 O   0  0  0  0  0  0  0  0  0  0  0  0
   -0.6220    0.5836    1.9822 N   0  0  0  0  0  0  0  0  0  0  0  0
   -1.5977    0.4132    1.7522 H   0  0  0  0  0  0  0  0  0  0  0  0
   -0.3246    1.0378    3.3391 C   0  0  0  0  0  0  0  0  0  0  0  0
    0.5541    1.6913    3.3485 H   0  0  0  0  0  0  0  0  0  0  0  0
   -1.1720    1.5980    3.7472 H   0  0  0  0  0  0  0  0  0  0  0  0
   -0.1288    0.1812    3.9940 H   0  0  0  0  0  0  0  0  0  0  0  0
  1  2  1  0  0  0  0
  2  3  1  0  0  0  0
  2  4  1  0  0  0  0
  2  5  1  0  0  0  0
  5  6  2  0  0  0  0
  5  7  1  0  0  0  0
  7  8  1  0  0  0  0
  7  9  1  0  0  0  0
  9 10  1  0  0  0  0
  9 11  1  0  0  0  0
  9 23  1  0  0  0  0
 11 12  1  0  0  0  0
 11 13  1  0  0  0  0
 11 14  1  0  0  0  0
 14 15  1  0  0  0  0
 14 21  2  0  0  0  0
 15 16  1  0  0  0  0
 15 17  2  0  0  0  0
 17 18  1  0  0  0  0
 17 19  1  0  0  0  0
 19 20  1  0  0  0  0
 19 21  1  0  0  0  0
 21 22  1  0  0  0  0
 23 24  2  0  0  0  0
 23 25  1  0  0  0  0
 25 26  1  0  0  0  0
 25 27  1  0  0  0  0
 27 28  1  0  0  0  0
 27 29  1  0  0  0  0
 27 30  1  0  0  0  0
M  CHG  1  15   1
M  END
$$$$

  -OEChem-04042216003D

 30 30  0     1  0  0  0  0  0999 V2000
   -3.3495   -3.8063    1.1778 H   0  0  0  0  0  0  0  0  0  0  0  0
   -3.2191   -2.9711    0.4832 C   0  0  0  0  0  0  0  0  0  0  0  0
   -3.9933   -2.2263    0.6823 H   0  0  0  0  0  0  0  0  0  0  0  0
   -3.3327   -3.3456   -0.5370 H   0  0  0  0  0  0  0  0  0  0  0  0
   -1.8441   -2.3569    0.6621 C   0  0  0  0  0  0  0  0  0  0  0  0
   -1.0801   -2.8070    1.4946 O   0  0  0  0  0  0  0  0  0  0  0  0
   -1.4495   -1.2926   -0.1310 N   0  0  0  0  0  0  0  0  0  0  0  0
   -2.0939   -1.0281   -0.8710 H   0  0  0  0  0  0  0  0  0  0  0  0
   -0.0835   -0.7178   -0.1178 C   0  0  1  0  0  0  0  0  0  0  0  0
    0.6371   -1.5225   -0.3113 H   0  0  0  0  0  0  0  0  0  0  0  0
    0.0159    0.2990   -1.2942 C   0  0  0  0  0  0  0  0  0  0  0  0
    0.2928   -0.2835   -2.1794 H   0  0  0  0  0  0  0  0  0  0  0  0
   -0.9879    0.6975   -1.4733 H   0  0  0  0  0  0  0  0  0  0  0  0
    0.9304    1.5222   -1.2381 C   0  0  0  0  0  0  0  0  0  0  0  0
    1.2362    2.2341   -2.4051 N   0  3  0  0  0  0  0  0  0  0  0  0
    0.8813    1.9654   -3.3263 H   0  0  0  0  0  0  0  0  0  0  0  0
    2.0515    3.2298   -2.1572 C   0  0  0  0  0  0  0  0  0  0  0  0
    2.4637    3.9325   -2.8841 H   0  0  0  0  0  0  0  0  0  0  0  0
    2.3025    3.2171   -0.7920 N   0  0  0  0  0  0  0  0  0  0  0  0
    2.9214    3.8600   -0.2879 H   0  0  0  0  0  0  0  0  0  0  0  0
    1.6084    2.1615   -0.2192 C   0  0  0  0  0  0  0  0  0  0  0  0
    1.6284    1.9120    0.8401 H   0  0  0  0  0  0  0  0  0  0  0  0
    0.2919   -0.1800    1.2794 C   0  0  0  0  0  0  0  0  0  0  0  0
    1.4537   -0.2529    1.6568 O   0  0  0  0  0  0  0  0  0  0  0  0
   -0.6078    0.5814    2.0044 N   0  0  0  0  0  0  0  0  0  0  0  0
   -1.5813    0.4710    1.7336 H   0  0  0  0  0  0  0  0  0  0  0  0
   -0.3346    0.9919    3.3797 C   0  0  0  0  0  0  0  0  0  0  0  0
    0.5812    1.5900    3.4331 H   0  0  0  0  0  0  0  0  0  0  0  0
   -1.1605    1.5962    3.7681 H   0  0  0  0  0  0  0  0  0  0  0  0
   -0.2150    0.1133    4.0237 H   0  0  0  0  0  0  0  0  0  0  0  0
  1  2  1  0  0  0  0
  2  3  1  0  0  0  0
  2  4  1  0  0  0  0
  2  5  1  0  0  0  0
  5  6  2  0  0  0  0
  5  7  1  0  0  0  0
  7  8  1  0  0  0  0
  7  9  1  0  0  0  0
  9 10  1  0  0  0  0
  9 11  1  0  0  0  0
  9 23  1  0  0  0  0
 11 12  1  0  0  0  0
 11 13  1  0  0  0  0
 11 14  1  0  0  0  0
 14 15  1  0  0  0  0
 14 21  2  0  0  0  0
 15 16  1  0  0  0  0
 15 17  2  0  0  0  0
 17 18  1  0  0  0  0
 17 19  1  0  0  0  0
 19 20  1  0  0  0  0
 19 21  1  0  0  0  0
 21 22  1  0  0  0  0
 23 24  2  0  0  0  0
 23 25  1  0  0  0  0
 25 26  1  0  0  0  0
 25 27  1  0  0  0  0
 27 28  1  0  0  0  0
 27 29  1  0  0  0  0
 27 30  1  0  0  0  0
M  CHG  1  15   1
M  END
$$$$

  -OEChem-04042216003D

 30 30  0     1  0  0  0  0  0999 V2000
   -3.3429   -3.7293    1.3190 H   0  0  0  0  0  0  0  0  0  0  0  0
   -3.2007   -2.9424    0.5721 C   0  0  0  0  0  0  0  0  0  0  0  0
   -3.9590   -2.1716    0.7275 H   0  0  0  0  0  0  0  0  0  0  0  0
   -3.3281   -3.3776   -0.4220 H   0  0  0  0  0  0  0  0  0  0  0  0
   -1.8131   -2.3451    0.7065 C   0  0  0  0  0  0  0  0  0  0  0  0
   -1.0495   -2.7691    1.5529 O   0  0  0  0  0  0  0  0  0  0  0  0
   -1.4043   -1.3338   -0.1476 N   0  0  0  0  0  0  0  0  0  0  0  0
   -2.0421   -1.1095   -0.9065 H   0  0  0  0  0  0  0  0  0  0  0  0
   -0.0347   -0.7671   -0.1595 C   0  0  1  0  0  0  0  0  0  0  0  0
    0.6991   -1.5604   -0.3474 H   0  0  0  0  0  0  0  0  0  0  0  0
    0.0074    0.2670   -1.3155 C   0  0  0  0  0  0  0  0  0  0  0  0
   -0.0259   -0.2902   -2.2577 H   0  0  0  0  0  0  0  0  0  0  0  0
   -0.9106    0.8610   -1.2518 H   0  0  0  0  0  0  0  0  0  0  0  0
    1.1538    1.2679   -1.3976 C   0  0  0  0  0  0  0  0  0  0  0  0
    1.2346    2.2227   -2.4186 N   0  3  0  0  0  0  0  0  0  0  0  0
    0.5008    2.3488   -3.1203 H   0  0  0  0  0  0  0  0  0  0  0  0
    2.3442    2.9158   -2.3325 C   0  0  0  0  0  0  0  0  0  0  0  0
    2.6580    3.7300   -2.9887 H   0  0  0  0  0  0  0  0  0  0  0  0
    3.0545    2.4118   -1.2506 N   0  0  0  0  0  0  0  0  0  0  0  0
    3.9754    2.7307   -0.9331 H   0  0  0  0  0  0  0  0  0  0  0  0
    2.3311    1.3712   -0.6872 C   0  0  0  0  0  0  0  0  0  0  0  0
    2.6754    0.7481    0.1364 H   0  0  0  0  0  0  0  0  0  0  0  0
    0.3016   -0.1524    1.2235 C   0  0  0  0  0  0  0  0  0  0  0  0
    1.4205   -0.2865    1.6982 O   0  0  0  0  0  0  0  0  0  0  0  0
   -0.6194    0.6463    1.8785 N   0  0  0  0  0  0  0  0  0  0  0  0
   -1.5787    0.5644    1.5556 H   0  0  0  0  0  0  0  0  0  0  0  0
   -0.4012    1.1229    3.2420 C   0  0  0  0  0  0  0  0  0  0  0  0
    0.5248    1.7043    3.3065 H   0  0  0  0  0  0  0  0  0  0  0  0
   -1.2295    1.7643    3.5587 H   0  0  0  0  0  0  0  0  0  0  0  0
   -0.3321    0.2776    3.9358 H   0  0  0  0  0  0  0  0  0  0  0  0
  1  2  1  0  0  0  0
  2  3  1  0  0  0  0
  2  4  1  0  0  0  0
  2  5  1  0  0  0  0
  5  6  2  0  0  0  0
  5  7  1  0  0  0  0
  7  8  1  0  0  0  0
  7  9  1  0  0  0  0
  9 10  1  0  0  0  0
  9 11  1  0  0  0  0
  9 23  1  0  0  0  0
 11 12  1  0  0  0  0
 11 13  1  0  0  0  0
 11 14  1  0  0  0  0
 14 15  1  0  0  0  0
 14 21  2  0  0  0  0
 15 16  1  0  0  0  0
 15 17  2  0  0  0  0
 17 18  1  0  0  0  0
 17 19  1  0  0  0  0
 19 20  1  0  0  0  0
 19 21  1  0  0  0  0
 21 22  1  0  0  0  0
 23 24  2  0  0  0  0
 23 25  1  0  0  0  0
 25 26  1  0  0  0  0
 25 27  1  0  0  0  0
 27 28  1  0  0  0  0
 27 29  1  0  0  0  0
 27 30  1  0  0  0  0
M  CHG  1  15   1
M  END
$$$$

  -OEChem-04042216003D

 30 30  0     1  0  0  0  0  0999 V2000
   -3.3093   -3.7594    1.3545 H   0  0  0  0  0  0  0  0  0  0  0  0
   -3.1894   -2.9751    0.6010 C   0  0  0  0  0  0  0  0  0  0  0  0
   -3.9599   -2.2171    0.7597 H   0  0  0  0  0  0  0  0  0  0  0  0
   -3.3200   -3.4194   -0.3886 H   0  0  0  0  0  0  0  0  0  0  0  0
   -1.8114   -2.3519    0.7153 C   0  0  0  0  0  0  0  0  0  0  0  0
   -1.0325   -2.7502    1.5603 O   0  0  0  0  0  0  0  0  0  0  0  0
   -1.4290   -1.3439   -0.1544 N   0  0  0  0  0  0  0  0  0  0  0  0
   -2.0750   -1.1469   -0.9141 H   0  0  0  0  0  0  0  0  0  0  0  0
   -0.0648   -0.7678   -0.1973 C   0  0  1  0  0  0  0  0  0  0  0  0
    0.6666   -1.5605   -0.3954 H   0  0  0  0  0  0  0  0  0  0  0  0
   -0.0374    0.2657   -1.3532 C   0  0  0  0  0  0  0  0  0  0  0  0
   -0.0812   -0.2770   -2.3035 H   0  0  0  0  0  0  0  0  0  0  0  0
   -0.9502    0.8654   -1.2740 H   0  0  0  0  0  0  0  0  0  0  0  0
    1.1247    1.2462   -1.4107 C   0  0  0  0  0  0  0  0  0  0  0  0
    1.1302    2.4063   -2.1931 N   0  3  0  0  0  0  0  0  0  0  0  0
    0.3190    2.7169   -2.7336 H   0  0  0  0  0  0  0  0  0  0  0  0
    2.2825    3.0264   -2.1029 C   0  0  0  0  0  0  0  0  0  0  0  0
    2.5589    3.9637   -2.5898 H   0  0  0  0  0  0  0  0  0  0  0  0
    3.0933    2.2630   -1.2709 N   0  0  0  0  0  0  0  0  0  0  0  0
    4.0581    2.4810   -1.0026 H   0  0  0  0  0  0  0  0  0  0  0  0
    2.3838    1.1436   -0.8626 C   0  0  0  0  0  0  0  0  0  0  0  0
    2.7677    0.3352   -0.2383 H   0  0  0  0  0  0  0  0  0  0  0  0
    0.3062   -0.1371    1.1711 C   0  0  0  0  0  0  0  0  0  0  0  0
    1.4521   -0.2194    1.5921 O   0  0  0  0  0  0  0  0  0  0  0  0
   -0.6029    0.6628    1.8412 N   0  0  0  0  0  0  0  0  0  0  0  0
   -1.5740    0.5467    1.5667 H   0  0  0  0  0  0  0  0  0  0  0  0
   -0.3337    1.1871    3.1779 C   0  0  0  0  0  0  0  0  0  0  0  0
    0.5638    1.8149    3.1740 H   0  0  0  0  0  0  0  0  0  0  0  0
   -1.1748    1.7951    3.5261 H   0  0  0  0  0  0  0  0  0  0  0  0
   -0.1826    0.3659    3.8876 H   0  0  0  0  0  0  0  0  0  0  0  0
  1  2  1  0  0  0  0
  2  3  1  0  0  0  0
  2  4  1  0  0  0  0
  2  5  1  0  0  0  0
  5  6  2  0  0  0  0
  5  7  1  0  0  0  0
  7  8  1  0  0  0  0
  7  9  1  0  0  0  0
  9 10  1  0  0  0  0
  9 11  1  0  0  0  0
  9 23  1  0  0  0  0
 11 12  1  0  0  0  0
 11 13  1  0  0  0  0
 11 14  1  0  0  0  0
 14 15  1  0  0  0  0
 14 21  2  0  0  0  0
 15 16  1  0  0  0  0
 15 17  2  0  0  0  0
 17 18  1  0  0  0  0
 17 19  1  0  0  0  0
 19 20  1  0  0  0  0
 19 21  1  0  0  0  0
 21 22  1  0  0  0  0
 23 24  2  0  0  0  0
 23 25  1  0  0  0  0
 25 26  1  0  0  0  0
 25 27  1  0  0  0  0
 27 28  1  0  0  0  0
 27 29  1  0  0  0  0
 27 30  1  0  0  0  0
M  CHG  1  15   1
M  END
$$$$

  -OEChem-04042216003D

 30 30  0     1  0  0  0  0  0999 V2000
   -3.2805   -3.7760    1.3859 H   0  0  0  0  0  0  0  0  0  0  0  0
   -3.1800   -3.0002    0.6210 C   0  0  0  0  0  0  0  0  0  0  0  0
   -3.9576   -2.2496    0.7803 H   0  0  0  0  0  0  0  0  0  0  0  0
   -3.3180   -3.4586   -0.3611 H   0  0  0  0  0  0  0  0  0  0  0  0
   -1.8087   -2.3590    0.7096 C   0  0  0  0  0  0  0  0  0  0  0  0
   -1.0111   -2.7406    1.5451 O   0  0  0  0  0  0  0  0  0  0  0  0
   -1.4539   -1.3481   -0.1679 N   0  0  0  0  0  0  0  0  0  0  0  0
   -2.1115   -1.1647   -0.9212 H   0  0  0  0  0  0  0  0  0  0  0  0
   -0.0957   -0.7628   -0.2367 C   0  0  1  0  0  0  0  0  0  0  0  0
    0.6303   -1.5578   -0.4447 H   0  0  0  0  0  0  0  0  0  0  0  0
   -0.0796    0.2597   -1.4012 C   0  0  0  0  0  0  0  0  0  0  0  0
   -0.1244   -0.2830   -2.3515 H   0  0  0  0  0  0  0  0  0  0  0  0
   -0.9909    0.8610   -1.3225 H   0  0  0  0  0  0  0  0  0  0  0  0
    1.0925    1.2254   -1.4428 C   0  0  0  0  0  0  0  0  0  0  0  0
    1.0531    2.5242   -1.9598 N   0  3  0  0  0  0  0  0  0  0  0  0
    0.2011    2.9518   -2.3308 H   0  0  0  0  0  0  0  0  0  0  0  0
    2.2289    3.0978   -1.8603 C   0  0  0  0  0  0  0  0  0  0  0  0
    2.4854    4.1146   -2.1638 H   0  0  0  0  0  0  0  0  0  0  0  0
    3.0922    2.1694   -1.2876 N   0  0  0  0  0  0  0  0  0  0  0  0
    4.0772    2.3268   -1.0522 H   0  0  0  0  0  0  0  0  0  0  0  0
    2.3886    1.0000   -1.0412 C   0  0  0  0  0  0  0  0  0  0  0  0
    2.7807    0.0876   -0.5866 H   0  0  0  0  0  0  0  0  0  0  0  0
    0.3191   -0.1244    1.1148 C   0  0  0  0  0  0  0  0  0  0  0  0
    1.4881   -0.1740    1.4751 O   0  0  0  0  0  0  0  0  0  0  0  0
   -0.5701    0.6764    1.8097 N   0  0  0  0  0  0  0  0  0  0  0  0
   -1.5507    0.5386    1.5825 H   0  0  0  0  0  0  0  0  0  0  0  0
   -0.2483    1.2286    3.1230 C   0  0  0  0  0  0  0  0  0  0  0  0
    0.6359    1.8722    3.0653 H   0  0  0  0  0  0  0  0  0  0  0  0
   -1.0835    1.8272    3.4998 H   0  0  0  0  0  0  0  0  0  0  0  0
   -0.0485    0.4234    3.8389 H   0  0  0  0  0  0  0  0  0  0  0  0
  1  2  1  0  0  0  0
  2  3  1  0  0  0  0
  2  4  1  0  0  0  0
  2  5  1  0  0  0  0
  5  6  2  0  0  0  0
  5  7  1  0  0  0  0
  7  8  1  0  0  0  0
  7  9  1  0  0  0  0
  9 10  1  0  0  0  0
  9 11  1  0  0  0  0
  9 23  1  0  0  0  0
 11 12  1  0  0  0  0
 11 13  1  0  0  0  0
 11 14  1  0  0  0  0
 14 15  1  0  0  0  0
 14 21  2  0  0  0  0
 15 16  1  0  0  0  0
 15 17  2  0  0  0  0
 17 18  1  0  0  0  0
 17 19  1  0  0  0  0
 19 20  1  0  0  0  0
 19 21  1  0  0  0  0
 21 22  1  0  0  0  0
 23 24  2  0  0  0  0
 23 25  1  0  0  0  0
 25 26  1  0  0  0  0
 25 27  1  0  0  0  0
 27 28  1  0  0  0  0
 27 29  1  0  0  0  0
 27 30  1  0  0  0  0
M  CHG  1  15   1
M  END
$$$$

  -OEChem-04042216003D

 30 30  0     1  0  0  0  0  0999 V2000
   -3.2359   -3.8093    1.3963 H   0  0  0  0  0  0  0  0  0  0  0  0
   -3.1592   -3.0315    0.6307 C   0  0  0  0  0  0  0  0  0  0  0  0
   -3.9519   -2.2981    0.7964 H   0  0  0  0  0  0  0  0  0  0  0  0
   -3.2959   -3.4933   -0.3500 H   0  0  0  0  0  0  0  0  0  0  0  0
   -1.8012   -2.3604    0.7063 C   0  0  0  0  0  0  0  0  0  0  0  0
   -0.9881   -2.7206    1.5365 O   0  0  0  0  0  0  0  0  0  0  0  0
   -1.4752   -1.3456   -0.1775 N   0  0  0  0  0  0  0  0  0  0  0  0
   -2.1461   -1.1740   -0.9219 H   0  0  0  0  0  0  0  0  0  0  0  0
   -0.1254   -0.7455   -0.2708 C   0  0  1  0  0  0  0  0  0  0  0  0
    0.5999   -1.5394   -0.4859 H   0  0  0  0  0  0  0  0  0  0  0  0
   -0.1236    0.2663   -1.4427 C   0  0  0  0  0  0  0  0  0  0  0  0
   -0.1584   -0.2815   -2.3905 H   0  0  0  0  0  0  0  0  0  0  0  0
   -1.0379    0.8643   -1.3753 H   0  0  0  0  0  0  0  0  0  0  0  0
    1.0543    1.2215   -1.4664 C   0  0  0  0  0  0  0  0  0  0  0  0
    0.9999    2.5995   -1.6928 N   0  3  0  0  0  0  0  0  0  0  0  0
    0.1260    3.1052   -1.8556 H   0  0  0  0  0  0  0  0  0  0  0  0
    2.1980    3.1268   -1.6056 C   0  0  0  0  0  0  0  0  0  0  0  0
    2.4534    4.1829   -1.7110 H   0  0  0  0  0  0  0  0  0  0  0  0
    3.0866    2.0897   -1.3374 N   0  0  0  0  0  0  0  0  0  0  0  0
    4.0920    2.1880   -1.1659 H   0  0  0  0  0  0  0  0  0  0  0  0
    2.3744    0.9021   -1.2547 C   0  0  0  0  0  0  0  0  0  0  0  0
    2.7708   -0.0850   -1.0092 H   0  0  0  0  0  0  0  0  0  0  0  0
    0.3259   -0.0974    1.0633 C   0  0  0  0  0  0  0  0  0  0  0  0
    1.5122   -0.1097    1.3666 O   0  0  0  0  0  0  0  0  0  0  0  0
   -0.5479    0.7004    1.7809 N   0  0  0  0  0  0  0  0  0  0  0  0
   -1.5338    0.5319    1.6012 H   0  0  0  0  0  0  0  0  0  0  0  0
   -0.1849    1.2654    3.0781 C   0  0  0  0  0  0  0  0  0  0  0  0
    0.6995    1.9051    2.9886 H   0  0  0  0  0  0  0  0  0  0  0  0
   -1.0064    1.8708    3.4739 H   0  0  0  0  0  0  0  0  0  0  0  0
    0.0335    0.4665    3.7957 H   0  0  0  0  0  0  0  0  0  0  0  0
  1  2  1  0  0  0  0
  2  3  1  0  0  0  0
  2  4  1  0  0  0  0
  2  5  1  0  0  0  0
  5  6  2  0  0  0  0
  5  7  1  0  0  0  0
  7  8  1  0  0  0  0
  7  9  1  0  0  0  0
  9 10  1  0  0  0  0
  9 11  1  0  0  0  0
  9 23  1  0  0  0  0
 11 12  1  0  0  0  0
 11 13  1  0  0  0  0
 11 14  1  0  0  0  0
 14 15  1  0  0  0  0
 14 21  2  0  0  0  0
 15 16  1  0  0  0  0
 15 17  2  0  0  0  0
 17 18  1  0  0  0  0
 17 19  1  0  0  0  0
 19 20  1  0  0  0  0
 19 21  1  0  0  0  0
 21 22  1  0  0  0  0
 23 24  2  0  0  0  0
 23 25  1  0  0  0  0
 25 26  1  0  0  0  0
 25 27  1  0  0  0  0
 27 28  1  0  0  0  0
 27 29  1  0  0  0  0
 27 30  1  0  0  0  0
M  CHG  1  15   1
M  END
$$$$

  -OEChem-04042216003D

 30 30  0     1  0  0  0  0  0999 V2000
   -3.1825   -3.8464    1.4010 H   0  0  0  0  0  0  0  0  0  0  0  0
   -3.1323   -3.0639    0.6380 C   0  0  0  0  0  0  0  0  0  0  0  0
   -3.9404   -2.3504    0.8148 H   0  0  0  0  0  0  0  0  0  0  0  0
   -3.2686   -3.5245   -0.3433 H   0  0  0  0  0  0  0  0  0  0  0  0
   -1.7898   -2.3611    0.7028 C   0  0  0  0  0  0  0  0  0  0  0  0
   -0.9648   -2.6971    1.5316 O   0  0  0  0  0  0  0  0  0  0  0  0
   -1.4913   -1.3430   -0.1869 N   0  0  0  0  0  0  0  0  0  0  0  0
   -2.1672   -1.1956   -0.9323 H   0  0  0  0  0  0  0  0  0  0  0  0
   -0.1496   -0.7293   -0.3023 C   0  0  1  0  0  0  0  0  0  0  0  0
    0.5783   -1.5173   -0.5294 H   0  0  0  0  0  0  0  0  0  0  0  0
   -0.1684    0.2865   -1.4693 C   0  0  0  0  0  0  0  0  0  0  0  0
   -0.2000   -0.2566   -2.4198 H   0  0  0  0  0  0  0  0  0  0  0  0
   -1.0834    0.8835   -1.4019 H   0  0  0  0  0  0  0  0  0  0  0  0
    1.0163    1.2300   -1.4703 C   0  0  0  0  0  0  0  0  0  0  0  0
    0.9814    2.6236   -1.3797 N   0  3  0  0  0  0  0  0  0  0  0  0
    0.1131    3.1567   -1.2907 H   0  0  0  0  0  0  0  0  0  0  0  0
    2.1997    3.1075   -1.3303 C   0  0  0  0  0  0  0  0  0  0  0  0
    2.4785    4.1573   -1.2219 H   0  0  0  0  0  0  0  0  0  0  0  0
    3.0768    2.0298   -1.4178 N   0  0  0  0  0  0  0  0  0  0  0  0
    4.0976    2.0802   -1.3465 H   0  0  0  0  0  0  0  0  0  0  0  0
    2.3385    0.8579   -1.5047 C   0  0  0  0  0  0  0  0  0  0  0  0
    2.7247   -0.1617   -1.5276 H   0  0  0  0  0  0  0  0  0  0  0  0
    0.3274   -0.0736    1.0189 C   0  0  0  0  0  0  0  0  0  0  0  0
    1.5249   -0.0401    1.2741 O   0  0  0  0  0  0  0  0  0  0  0  0
   -0.5404    0.7181    1.7503 N   0  0  0  0  0  0  0  0  0  0  0  0
   -1.5266    0.5147    1.6111 H   0  0  0  0  0  0  0  0  0  0  0  0
   -0.1482    1.3091    3.0271 C   0  0  0  0  0  0  0  0  0  0  0  0
    0.7245    1.9589    2.9025 H   0  0  0  0  0  0  0  0  0  0  0  0
   -0.9664    1.9099    3.4364 H   0  0  0  0  0  0  0  0  0  0  0  0
    0.1013    0.5246    3.7501 H   0  0  0  0  0  0  0  0  0  0  0  0
  1  2  1  0  0  0  0
  2  3  1  0  0  0  0
  2  4  1  0  0  0  0
  2  5  1  0  0  0  0
  5  6  2  0  0  0  0
  5  7  1  0  0  0  0
  7  8  1  0  0  0  0
  7  9  1  0  0  0  0
  9 10  1  0  0  0  0
  9 11  1  0  0  0  0
  9 23  1  0  0  0  0
 11 12  1  0  0  0  0
 11 13  1  0  0  0  0
 11 14  1  0  0  0  0
 14 15  1  0  0  0  0
 14 21  2  0  0  0  0
 15 16  1  0  0  0  0
 15 17  2  0  0  0  0
 17 18  1  0  0  0  0
 17 19  1  0  0  0  0
 19 20  1  0  0  0  0
 19 21  1  0  0  0  0
 21 22  1  0  0  0  0
 23 24  2  0  0  0  0
 23 25  1  0  0  0  0
 25 26  1  0  0  0  0
 25 27  1  0  0  0  0
 27 28  1  0  0  0  0
 27 29  1  0  0  0  0
 27 30  1  0  0  0  0
M  CHG  1  15   1
M  END
$$$$

  -OEChem-04042216003D

 30 30  0     1  0  0  0  0  0999 V2000
   -3.1561   -3.8462    1.4172 H   0  0  0  0  0  0  0  0  0  0  0  0
   -3.1148   -3.0700    0.6472 C   0  0  0  0  0  0  0  0  0  0  0  0
   -3.9280   -2.3615    0.8209 H   0  0  0  0  0  0  0  0  0  0  0  0
   -3.2503   -3.5399   -0.3298 H   0  0  0  0  0  0  0  0  0  0  0  0
   -1.7781   -2.3559    0.7017 C   0  0  0  0  0  0  0  0  0  0  0  0
   -0.9479   -2.6778    1.5311 O   0  0  0  0  0  0  0  0  0  0  0  0
   -1.4941   -1.3369   -0.1917 N   0  0  0  0  0  0  0  0  0  0  0  0
   -2.1738   -1.2002   -0.9360 H   0  0  0  0  0  0  0  0  0  0  0  0
   -0.1579   -0.7140   -0.3183 C   0  0  1  0  0  0  0  0  0  0  0  0
    0.5755   -1.4955   -0.5499 H   0  0  0  0  0  0  0  0  0  0  0  0
   -0.1879    0.3035   -1.4827 C   0  0  0  0  0  0  0  0  0  0  0  0
   -0.2110   -0.2412   -2.4326 H   0  0  0  0  0  0  0  0  0  0  0  0
   -1.1037    0.9007   -1.4249 H   0  0  0  0  0  0  0  0  0  0  0  0
    1.0015    1.2372   -1.4649 C   0  0  0  0  0  0  0  0  0  0  0  0
    1.0118    2.5775   -1.0729 N   0  3  0  0  0  0  0  0  0  0  0  0
    0.1877    3.0565   -0.7022 H   0  0  0  0  0  0  0  0  0  0  0  0
    2.2361    3.0467   -1.0992 C   0  0  0  0  0  0  0  0  0  0  0  0
    2.5557    4.0433   -0.7899 H   0  0  0  0  0  0  0  0  0  0  0  0
    3.0618    2.0254   -1.5625 N   0  0  0  0  0  0  0  0  0  0  0  0
    4.0823    2.0710   -1.6400 H   0  0  0  0  0  0  0  0  0  0  0  0
    2.2909    0.8925   -1.7874 C   0  0  0  0  0  0  0  0  0  0  0  0
    2.6419   -0.0908   -2.1011 H   0  0  0  0  0  0  0  0  0  0  0  0
    0.3233   -0.0538    0.9997 C   0  0  0  0  0  0  0  0  0  0  0  0
    1.5238    0.0253    1.2289 O   0  0  0  0  0  0  0  0  0  0  0  0
   -0.5501    0.7309    1.7330 N   0  0  0  0  0  0  0  0  0  0  0  0
   -1.5319    0.4946    1.6132 H   0  0  0  0  0  0  0  0  0  0  0  0
   -0.1566    1.3199    3.0110 C   0  0  0  0  0  0  0  0  0  0  0  0
    0.6909    2.0013    2.8808 H   0  0  0  0  0  0  0  0  0  0  0  0
   -0.9884    1.8862    3.4420 H   0  0  0  0  0  0  0  0  0  0  0  0
    0.1319    0.5355    3.7200 H   0  0  0  0  0  0  0  0  0  0  0  0
  1  2  1  0  0  0  0
  2  3  1  0  0  0  0
  2  4  1  0  0  0  0
  2  5  1  0  0  0  0
  5  6  2  0  0  0  0
  5  7  1  0  0  0  0
  7  8  1  0  0  0  0
  7  9  1  0  0  0  0
  9 10  1  0  0  0  0
  9 11  1  0  0  0  0
  9 23  1  0  0  0  0
 11 12  1  0  0  0  0
 11 13  1  0  0  0  0
 11 14  1  0  0  0  0
 14 15  1  0  0  0  0
 14 21  2  0  0  0  0
 15 16  1  0  0  0  0
 15 17  2  0  0  0  0
 17 18  1  0  0  0  0
 17 19  1  0  0  0  0
 19 20  1  0  0  0  0
 19 21  1  0  0  0  0
 21 22  1  0  0  0  0
 23 24  2  0  0  0  0
 23 25  1  0  0  0  0
 25 26  1  0  0  0  0
 25 27  1  0  0  0  0
 27 28  1  0  0  0  0
 27 29  1  0  0  0  0
 27 30  1  0  0  0  0
M  CHG  1  15   1
M  END
$$$$

  -OEChem-04042216003D

 30 30  0     1  0  0  0  0  0999 V2000
   -3.1742   -3.8386    1.4110 H   0  0  0  0  0  0  0  0  0  0  0  0
   -3.1203   -3.0669    0.6373 C   0  0  0  0  0  0  0  0  0  0  0  0
   -3.9379   -2.3587    0.7919 H   0  0  0  0  0  0  0  0  0  0  0  0
   -3.2377   -3.5434   -0.3391 H   0  0  0  0  0  0  0  0  0  0  0  0
   -1.7857   -2.3502    0.7109 C   0  0  0  0  0  0  0  0  0  0  0  0
   -0.9691   -2.6653    1.5561 O   0  0  0  0  0  0  0  0  0  0  0  0
   -1.4895   -1.3349   -0.1827 N   0  0  0  0  0  0  0  0  0  0  0  0
   -2.1606   -1.2024   -0.9355 H   0  0  0  0  0  0  0  0  0  0  0  0
   -0.1494   -0.7183   -0.3030 C   0  0  1  0  0  0  0  0  0  0  0  0
    0.5852   -1.4997   -0.5324 H   0  0  0  0  0  0  0  0  0  0  0  0
   -0.1770    0.3026   -1.4648 C   0  0  0  0  0  0  0  0  0  0  0  0
   -0.2011   -0.2447   -2.4131 H   0  0  0  0  0  0  0  0  0  0  0  0
   -1.0911    0.9027   -1.4105 H   0  0  0  0  0  0  0  0  0  0  0  0
    1.0132    1.2358   -1.4498 C   0  0  0  0  0  0  0  0  0  0  0  0
    1.1006    2.4673   -0.7959 N   0  3  0  0  0  0  0  0  0  0  0  0
    0.3778    2.8068   -0.1562 H   0  0  0  0  0  0  0  0  0  0  0  0
    2.3024    2.9704   -0.9401 C   0  0  0  0  0  0  0  0  0  0  0  0
    2.6817    3.8832   -0.4776 H   0  0  0  0  0  0  0  0  0  0  0  0
    3.0198    2.1022   -1.7589 N   0  0  0  0  0  0  0  0  0  0  0  0
    4.0053    2.2056   -2.0189 H   0  0  0  0  0  0  0  0  0  0  0  0
    2.2152    1.0142   -2.0740 C   0  0  0  0  0  0  0  0  0  0  0  0
    2.4911    0.1390   -2.6621 H   0  0  0  0  0  0  0  0  0  0  0  0
    0.3223   -0.0585    1.0183 C   0  0  0  0  0  0  0  0  0  0  0  0
    1.5207    0.0445    1.2477 O   0  0  0  0  0  0  0  0  0  0  0  0
   -0.5587    0.7296    1.7396 N   0  0  0  0  0  0  0  0  0  0  0  0
   -1.5372    0.4791    1.6179 H   0  0  0  0  0  0  0  0  0  0  0  0
   -0.1799    1.3159    3.0236 C   0  0  0  0  0  0  0  0  0  0  0  0
    0.6828    1.9808    2.9102 H   0  0  0  0  0  0  0  0  0  0  0  0
   -1.0097    1.8990    3.4356 H   0  0  0  0  0  0  0  0  0  0  0  0
    0.0790    0.5287    3.7408 H   0  0  0  0  0  0  0  0  0  0  0  0
  1  2  1  0  0  0  0
  2  3  1  0  0  0  0
  2  4  1  0  0  0  0
  2  5  1  0  0  0  0
  5  6  2  0  0  0  0
  5  7  1  0  0  0  0
  7  8  1  0  0  0  0
  7  9  1  0  0  0  0
  9 10  1  0  0  0  0
  9 11  1  0  0  0  0
  9 23  1  0  0  0  0
 11 12  1  0  0  0  0
 11 13  1  0  0  0  0
 11 14  1  0  0  0  0
 14 15  1  0  0  0  0
 14 21  2  0  0  0  0
 15 16  1  0  0  0  0
 15 17  2  0  0  0  0
 17 18  1  0  0  0  0
 17 19  1  0  0  0  0
 19 20  1  0  0  0  0
 19 21  1  0  0  0  0
 21 22  1  0  0  0  0
 23 24  2  0  0  0  0
 23 25  1  0  0  0  0
 25 26  1  0  0  0  0
 25 27  1  0  0  0  0
 27 28  1  0  0  0  0
 27 29  1  0  0  0  0
 27 30  1  0  0  0  0
M  CHG  1  15   1
M  END
$$$$

  -OEChem-04042216003D

 30 30  0     1  0  0  0  0  0999 V2000
   -3.2141   -3.8024    1.4207 H   0  0  0  0  0  0  0  0  0  0  0  0
   -3.1337   -3.0487    0.6316 C   0  0  0  0  0  0  0  0  0  0  0  0
   -3.9458   -2.3279    0.7524 H   0  0  0  0  0  0  0  0  0  0  0  0
   -3.2347   -3.5453   -0.3365 H   0  0  0  0  0  0  0  0  0  0  0  0
   -1.7929   -2.3455    0.7196 C   0  0  0  0  0  0  0  0  0  0  0  0
   -0.9915   -2.6639    1.5779 O   0  0  0  0  0  0  0  0  0  0  0  0
   -1.4756   -1.3346   -0.1719 N   0  0  0  0  0  0  0  0  0  0  0  0
   -2.1324   -1.2022   -0.9373 H   0  0  0  0  0  0  0  0  0  0  0  0
   -0.1286   -0.7292   -0.2744 C   0  0  1  0  0  0  0  0  0  0  0  0
    0.6058   -1.5139   -0.4934 H   0  0  0  0  0  0  0  0  0  0  0  0
   -0.1422    0.2910   -1.4391 C   0  0  0  0  0  0  0  0  0  0  0  0
   -0.1728   -0.2619   -2.3838 H   0  0  0  0  0  0  0  0  0  0  0  0
   -1.0549    0.8939   -1.3845 H   0  0  0  0  0  0  0  0  0  0  0  0
    1.0419    1.2360   -1.4449 C   0  0  0  0  0  0  0  0  0  0  0  0
    1.2524    2.3258   -0.5947 N   0  3  0  0  0  0  0  0  0  0  0  0
    0.6912    2.4771    0.2493 H   0  0  0  0  0  0  0  0  0  0  0  0
    2.4040    2.8918   -0.8603 C   0  0  0  0  0  0  0  0  0  0  0  0
    2.8686    3.7044   -0.2992 H   0  0  0  0  0  0  0  0  0  0  0  0
    2.9460    2.2314   -1.9594 N   0  0  0  0  0  0  0  0  0  0  0  0
    3.8556    2.4315   -2.3861 H   0  0  0  0  0  0  0  0  0  0  0  0
    2.0982    1.1912   -2.3205 C   0  0  0  0  0  0  0  0  0  0  0  0
    2.2495    0.4661   -3.1202 H   0  0  0  0  0  0  0  0  0  0  0  0
    0.3188   -0.0741    1.0565 C   0  0  0  0  0  0  0  0  0  0  0  0
    1.5114    0.0406    1.3060 O   0  0  0  0  0  0  0  0  0  0  0  0
   -0.5722    0.7187    1.7600 N   0  0  0  0  0  0  0  0  0  0  0  0
   -1.5495    0.4774    1.6096 H   0  0  0  0  0  0  0  0  0  0  0  0
   -0.2266    1.2776    3.0661 C   0  0  0  0  0  0  0  0  0  0  0  0
    0.6596    1.9174    2.9982 H   0  0  0  0  0  0  0  0  0  0  0  0
   -1.0544    1.8801    3.4537 H   0  0  0  0  0  0  0  0  0  0  0  0
   -0.0202    0.4734    3.7815 H   0  0  0  0  0  0  0  0  0  0  0  0
  1  2  1  0  0  0  0
  2  3  1  0  0  0  0
  2  4  1  0  0  0  0
  2  5  1  0  0  0  0
  5  6  2  0  0  0  0
  5  7  1  0  0  0  0
  7  8  1  0  0  0  0
  7  9  1  0  0  0  0
  9 10  1  0  0  0  0
  9 11  1  0  0  0  0
  9 23  1  0  0  0  0
 11 12  1  0  0  0  0
 11 13  1  0  0  0  0
 11 14  1  0  0  0  0
 14 15  1  0  0  0  0
 14 21  2  0  0  0  0
 15 16  1  0  0  0  0
 15 17  2  0  0  0  0
 17 18  1  0  0  0  0
 17 19  1  0  0  0  0
 19 20  1  0  0  0  0
 19 21  1  0  0  0  0
 21 22  1  0  0  0  0
 23 24  2  0  0  0  0
 23 25  1  0  0  0  0
 25 26  1  0  0  0  0
 25 27  1  0  0  0  0
 27 28  1  0  0  0  0
 27 29  1  0  0  0  0
 27 30  1  0  0  0  0
M  CHG  1  15   1
M  END
$$$$

  -OEChem-04042216003D

 30 30  0     1  0  0  0  0  0999 V2000
   -3.2460   -3.7850    1.4087 H   0  0  0  0  0  0  0  0  0  0  0  0
   -3.1485   -3.0320    0.6208 C   0  0  0  0  0  0  0  0  0  0  0  0
   -3.9506   -2.2993    0.7366 H   0  0  0  0  0  0  0  0  0  0  0  0
   -3.2508   -3.5264   -0.3482 H   0  0  0  0  0  0  0  0  0  0  0  0
   -1.7970   -2.3503    0.7187 C   0  0  0  0  0  0  0  0  0  0  0  0
   -1.0033   -2.6914    1.5756 O   0  0  0  0  0  0  0  0  0  0  0  0
   -1.4590   -1.3362   -0.1622 N   0  0  0  0  0  0  0  0  0  0  0  0
   -2.1112   -1.1832   -0.9276 H   0  0  0  0  0  0  0  0  0  0  0  0
   -0.1060   -0.7397   -0.2451 C   0  0  1  0  0  0  0  0  0  0  0  0
    0.6290   -1.5258   -0.4573 H   0  0  0  0  0  0  0  0  0  0  0  0
   -0.1025    0.2854   -1.4088 C   0  0  0  0  0  0  0  0  0  0  0  0
   -0.1471   -0.2654   -2.3542 H   0  0  0  0  0  0  0  0  0  0  0  0
   -1.0128    0.8908   -1.3426 H   0  0  0  0  0  0  0  0  0  0  0  0
    1.0727    1.2478   -1.4409 C   0  0  0  0  0  0  0  0  0  0  0  0
    1.4582    2.1735   -0.4657 N   0  3  0  0  0  0  0  0  0  0  0  0
    1.0972    2.1281    0.4948 H   0  0  0  0  0  0  0  0  0  0  0  0
    2.5433    2.8058   -0.8373 C   0  0  0  0  0  0  0  0  0  0  0  0
    3.1182    3.5083   -0.2314 H   0  0  0  0  0  0  0  0  0  0  0  0
    2.8541    2.3713   -2.1219 N   0  0  0  0  0  0  0  0  0  0  0  0
    3.6621    2.6737   -2.6744 H   0  0  0  0  0  0  0  0  0  0  0  0
    1.9431    1.3900   -2.4944 C   0  0  0  0  0  0  0  0  0  0  0  0
    1.9285    0.8295   -3.4293 H   0  0  0  0  0  0  0  0  0  0  0  0
    0.3096   -0.1016    1.1041 C   0  0  0  0  0  0  0  0  0  0  0  0
    1.4952    0.0237    1.3810 O   0  0  0  0  0  0  0  0  0  0  0  0
   -0.5949    0.6856    1.7957 N   0  0  0  0  0  0  0  0  0  0  0  0
   -1.5702    0.4591    1.6124 H   0  0  0  0  0  0  0  0  0  0  0  0
   -0.2842    1.2368    3.1142 C   0  0  0  0  0  0  0  0  0  0  0  0
    0.6000    1.8814    3.0733 H   0  0  0  0  0  0  0  0  0  0  0  0
   -1.1243    1.8332    3.4845 H   0  0  0  0  0  0  0  0  0  0  0  0
   -0.0930    0.4288    3.8294 H   0  0  0  0  0  0  0  0  0  0  0  0
  1  2  1  0  0  0  0
  2  3  1  0  0  0  0
  2  4  1  0  0  0  0
  2  5  1  0  0  0  0
  5  6  2  0  0  0  0
  5  7  1  0  0  0  0
  7  8  1  0  0  0  0
  7  9  1  0  0  0  0
  9 10  1  0  0  0  0
  9 11  1  0  0  0  0
  9 23  1  0  0  0  0
 11 12  1  0  0  0  0
 11 13  1  0  0  0  0
 11 14  1  0  0  0  0
 14 15  1  0  0  0  0
 14 21  2  0  0  0  0
 15 16  1  0  0  0  0
 15 17  2  0  0  0  0
 17 18  1  0  0  0  0
 17 19  1  0  0  0  0
 19 20  1  0  0  0  0
 19 21  1  0  0  0  0
 21 22  1  0  0  0  0
 23 24  2  0  0  0  0
 23 25  1  0  0  0  0
 25 26  1  0  0  0  0
 25 27  1  0  0  0  0
 27 28  1  0  0  0  0
 27 29  1  0  0  0  0
 27 30  1  0  0  0  0
M  CHG  1  15   1
M  END
$$$$

  -OEChem-04042216003D

 30 30  0     1  0  0  0  0  0999 V2000
   -3.2741   -3.7955    1.3551 H   0  0  0  0  0  0  0  0  0  0  0  0
   -3.1694   -3.0132    0.5973 C   0  0  0  0  0  0  0  0  0  0  0  0
   -3.9586   -2.2727    0.7477 H   0  0  0  0  0  0  0  0  0  0  0  0
   -3.2851   -3.4668   -0.3900 H   0  0  0  0  0  0  0  0  0  0  0  0
   -1.8072   -2.3567    0.7136 C   0  0  0  0  0  0  0  0  0  0  0  0
   -1.0229   -2.7258    1.5676 O   0  0  0  0  0  0  0  0  0  0  0  0
   -1.4462   -1.3390   -0.1539 N   0  0  0  0  0  0  0  0  0  0  0  0
   -2.0944   -1.1597   -0.9170 H   0  0  0  0  0  0  0  0  0  0  0  0
   -0.0861   -0.7554   -0.2169 C   0  0  1  0  0  0  0  0  0  0  0  0
    0.6457   -1.5454   -0.4254 H   0  0  0  0  0  0  0  0  0  0  0  0
   -0.0639    0.2791   -1.3742 C   0  0  0  0  0  0  0  0  0  0  0  0
   -0.1213   -0.2656   -2.3224 H   0  0  0  0  0  0  0  0  0  0  0  0
   -0.9703    0.8889   -1.2956 H   0  0  0  0  0  0  0  0  0  0  0  0
    1.1070    1.2512   -1.4255 C   0  0  0  0  0  0  0  0  0  0  0  0
    1.6960    1.9913   -0.3946 N   0  3  0  0  0  0  0  0  0  0  0  0
    1.5305    1.7598    0.5958 H   0  0  0  0  0  0  0  0  0  0  0  0
    2.6994    2.7010   -0.8462 C   0  0  0  0  0  0  0  0  0  0  0  0
    3.3911    3.2933   -0.2442 H   0  0  0  0  0  0  0  0  0  0  0  0
    2.7483    2.5111   -2.2230 N   0  0  0  0  0  0  0  0  0  0  0  0
    3.4345    2.9294   -2.8587 H   0  0  0  0  0  0  0  0  0  0  0  0
    1.7653    1.5964   -2.5821 C   0  0  0  0  0  0  0  0  0  0  0  0
    1.5581    1.2184   -3.5835 H   0  0  0  0  0  0  0  0  0  0  0  0
    0.3008   -0.1377    1.1512 C   0  0  0  0  0  0  0  0  0  0  0  0
    1.4805   -0.0216    1.4596 O   0  0  0  0  0  0  0  0  0  0  0  0
   -0.6146    0.6453    1.8319 N   0  0  0  0  0  0  0  0  0  0  0  0
   -1.5883    0.4401    1.6195 H   0  0  0  0  0  0  0  0  0  0  0  0
   -0.3272    1.2136    3.1480 C   0  0  0  0  0  0  0  0  0  0  0  0
    0.5085    1.9190    3.0955 H   0  0  0  0  0  0  0  0  0  0  0  0
   -1.2024    1.7496    3.5295 H   0  0  0  0  0  0  0  0  0  0  0  0
   -0.0715    0.4208    3.8602 H   0  0  0  0  0  0  0  0  0  0  0  0
  1  2  1  0  0  0  0
  2  3  1  0  0  0  0
  2  4  1  0  0  0  0
  2  5  1  0  0  0  0
  5  6  2  0  0  0  0
  5  7  1  0  0  0  0
  7  8  1  0  0  0  0
  7  9  1  0  0  0  0
  9 10  1  0  0  0  0
  9 11  1  0  0  0  0
  9 23  1  0  0  0  0
 11 12  1  0  0  0  0
 11 13  1  0  0  0  0
 11 14  1  0  0  0  0
 14 15  1  0  0  0  0
 14 21  2  0  0  0  0
 15 16  1  0  0  0  0
 15 17  2  0  0  0  0
 17 18  1  0  0  0  0
 17 19  1  0  0  0  0
 19 20  1  0  0  0  0
 19 21  1  0  0  0  0
 21 22  1  0  0  0  0
 23 24  2  0  0  0  0
 23 25  1  0  0  0  0
 25 26  1  0  0  0  0
 25 27  1  0  0  0  0
 27 28  1  0  0  0  0
 27 29  1  0  0  0  0
 27 30  1  0  0  0  0
M  CHG  1  15   1
M  END
$$$$

  -OEChem-04042216003D

 30 30  0     1  0  0  0  0  0999 V2000
   -3.3052   -3.7869    1.3232 H   0  0  0  0  0  0  0  0  0  0  0  0
   -3.1872   -2.9969    0.5754 C   0  0  0  0  0  0  0  0  0  0  0  0
   -3.9676   -2.2484    0.7313 H   0  0  0  0  0  0  0  0  0  0  0  0
   -3.3040   -3.4368   -0.4180 H   0  0  0  0  0  0  0  0  0  0  0  0
   -1.8177   -2.3587    0.7045 C   0  0  0  0  0  0  0  0  0  0  0  0
   -1.0399   -2.7491    1.5548 O   0  0  0  0  0  0  0  0  0  0  0  0
   -1.4419   -1.3367   -0.1516 N   0  0  0  0  0  0  0  0  0  0  0  0
   -2.0892   -1.1349   -0.9096 H   0  0  0  0  0  0  0  0  0  0  0  0
   -0.0778   -0.7612   -0.1984 C   0  0  1  0  0  0  0  0  0  0  0  0
    0.6506   -1.5550   -0.4046 H   0  0  0  0  0  0  0  0  0  0  0  0
   -0.0418    0.2741   -1.3557 C   0  0  0  0  0  0  0  0  0  0  0  0
   -0.0985   -0.2716   -2.3036 H   0  0  0  0  0  0  0  0  0  0  0  0
   -0.9485    0.8840   -1.2778 H   0  0  0  0  0  0  0  0  0  0  0  0
    1.1234    1.2546   -1.4192 C   0  0  0  0  0  0  0  0  0  0  0  0
    1.9033    1.8049   -0.3962 N   0  3  0  0  0  0  0  0  0  0  0  0
    1.8540    1.4582    0.5744 H   0  0  0  0  0  0  0  0  0  0  0  0
    2.8300    2.5916   -0.8811 C   0  0  0  0  0  0  0  0  0  0  0  0
    3.6116    3.0944   -0.3086 H   0  0  0  0  0  0  0  0  0  0  0  0
    2.6507    2.6294   -2.2594 N   0  0  0  0  0  0  0  0  0  0  0  0
    3.2285    3.1556   -2.9220 H   0  0  0  0  0  0  0  0  0  0  0  0
    1.5966    1.7875   -2.5954 C   0  0  0  0  0  0  0  0  0  0  0  0
    1.2183    1.5821   -3.5970 H   0  0  0  0  0  0  0  0  0  0  0  0
    0.2994   -0.1571    1.1778 C   0  0  0  0  0  0  0  0  0  0  0  0
    1.4766   -0.0881    1.5121 O   0  0  0  0  0  0  0  0  0  0  0  0
   -0.6137    0.6264    1.8598 N   0  0  0  0  0  0  0  0  0  0  0  0
   -1.5882    0.4507    1.6273 H   0  0  0  0  0  0  0  0  0  0  0  0
   -0.3304    1.1842    3.1806 C   0  0  0  0  0  0  0  0  0  0  0  0
    0.5143    1.8793    3.1372 H   0  0  0  0  0  0  0  0  0  0  0  0
   -1.2017    1.7290    3.5581 H   0  0  0  0  0  0  0  0  0  0  0  0
   -0.0898    0.3843    3.8902 H   0  0  0  0  0  0  0  0  0  0  0  0
  1  2  1  0  0  0  0
  2  3  1  0  0  0  0
  2  4  1  0  0  0  0
  2  5  1  0  0  0  0
  5  6  2  0  0  0  0
  5  7  1  0  0  0  0
  7  8  1  0  0  0  0
  7  9  1  0  0  0  0
  9 10  1  0  0  0  0
  9 11  1  0  0  0  0
  9 23  1  0  0  0  0
 11 12  1  0  0  0  0
 11 13  1  0  0  0  0
 11 14  1  0  0  0  0
 14 15  1  0  0  0  0
 14 21  2  0  0  0  0
 15 16  1  0  0  0  0
 15 17  2  0  0  0  0
 17 18  1  0  0  0  0
 17 19  1  0  0  0  0
 19 20  1  0  0  0  0
 19 21  1  0  0  0  0
 21 22  1  0  0  0  0
 23 24  2  0  0  0  0
 23 25  1  0  0  0  0
 25 26  1  0  0  0  0
 25 27  1  0  0  0  0
 27 28  1  0  0  0  0
 27 29  1  0  0  0  0
 27 30  1  0  0  0  0
M  CHG  1  15   1
M  END
$$$$

  -OEChem-04042216003D

 30 30  0     1  0  0  0  0  0999 V2000
   -3.3268   -3.7732    1.3176 H   0  0  0  0  0  0  0  0  0  0  0  0
   -3.2057   -2.9808    0.5728 C   0  0  0  0  0  0  0  0  0  0  0  0
   -3.9749   -2.2233    0.7401 H   0  0  0  0  0  0  0  0  0  0  0  0
   -3.3378   -3.4139   -0.4217 H   0  0  0  0  0  0  0  0  0  0  0  0
   -1.8263   -2.3617    0.6931 C   0  0  0  0  0  0  0  0  0  0  0  0
   -1.0449   -2.7708    1.5312 O   0  0  0  0  0  0  0  0  0  0  0  0
   -1.4442   -1.3371   -0.1571 N   0  0  0  0  0  0  0  0  0  0  0  0
   -2.0952   -1.1158   -0.9065 H   0  0  0  0  0  0  0  0  0  0  0  0
   -0.0777   -0.7670   -0.1958 C   0  0  1  0  0  0  0  0  0  0  0  0
    0.6453   -1.5660   -0.4009 H   0  0  0  0  0  0  0  0  0  0  0  0
   -0.0308    0.2663   -1.3544 C   0  0  0  0  0  0  0  0  0  0  0  0
   -0.0790   -0.2825   -2.3009 H   0  0  0  0  0  0  0  0  0  0  0  0
   -0.9382    0.8759   -1.2858 H   0  0  0  0  0  0  0  0  0  0  0  0
    1.1340    1.2472   -1.4199 C   0  0  0  0  0  0  0  0  0  0  0  0
    2.0873    1.5972   -0.4572 N   0  3  0  0  0  0  0  0  0  0  0  0
    2.1309    1.1409    0.4677 H   0  0  0  0  0  0  0  0  0  0  0  0
    2.9421    2.4684   -0.9293 C   0  0  0  0  0  0  0  0  0  0  0  0
    3.8002    2.8826   -0.3961 H   0  0  0  0  0  0  0  0  0  0  0  0
    2.5572    2.7446   -2.2366 N   0  0  0  0  0  0  0  0  0  0  0  0
    3.0356    3.3865   -2.8762 H   0  0  0  0  0  0  0  0  0  0  0  0
    1.4374    1.9794   -2.5441 C   0  0  0  0  0  0  0  0  0  0  0  0
    0.9030    1.9570   -3.4939 H   0  0  0  0  0  0  0  0  0  0  0  0
    0.3017   -0.1694    1.1825 C   0  0  0  0  0  0  0  0  0  0  0  0
    1.4771   -0.1502    1.5314 O   0  0  0  0  0  0  0  0  0  0  0  0
   -0.6027    0.6177    1.8714 N   0  0  0  0  0  0  0  0  0  0  0  0
   -1.5794    0.4714    1.6287 H   0  0  0  0  0  0  0  0  0  0  0  0
   -0.3116    1.1677    3.1933 C   0  0  0  0  0  0  0  0  0  0  0  0
    0.5395    1.8551    3.1488 H   0  0  0  0  0  0  0  0  0  0  0  0
   -1.1770    1.7194    3.5746 H   0  0  0  0  0  0  0  0  0  0  0  0
   -0.0765    0.3636    3.8997 H   0  0  0  0  0  0  0  0  0  0  0  0
  1  2  1  0  0  0  0
  2  3  1  0  0  0  0
  2  4  1  0  0  0  0
  2  5  1  0  0  0  0
  5  6  2  0  0  0  0
  5  7  1  0  0  0  0
  7  8  1  0  0  0  0
  7  9  1  0  0  0  0
  9 10  1  0  0  0  0
  9 11  1  0  0  0  0
  9 23  1  0  0  0  0
 11 12  1  0  0  0  0
 11 13  1  0  0  0  0
 11 14  1  0  0  0  0
 14 15  1  0  0  0  0
 14 21  2  0  0  0  0
 15 16  1  0  0  0  0
 15 17  2  0  0  0  0
 17 18  1  0  0  0  0
 17 19  1  0  0  0  0
 19 20  1  0  0  0  0
 19 21  1  0  0  0  0
 21 22  1  0  0  0  0
 23 24  2  0  0  0  0
 23 25  1  0  0  0  0
 25 26  1  0  0  0  0
 25 27  1  0  0  0  0
 27 28  1  0  0  0  0
 27 29  1  0  0  0  0
 27 30  1  0  0  0  0
M  CHG  1  15   1
M  END
$$$$

  -OEChem-04042216003D

 30 30  0     1  0  0  0  0  0999 V2000
   -3.3327   -3.7661    1.3268 H   0  0  0  0  0  0  0  0  0  0  0  0
   -3.2121   -2.9786    0.5767 C   0  0  0  0  0  0  0  0  0  0  0  0
   -3.9802   -2.2192    0.7402 H   0  0  0  0  0  0  0  0  0  0  0  0
   -3.3463   -3.4176   -0.4149 H   0  0  0  0  0  0  0  0  0  0  0  0
   -1.8322   -2.3599    0.6906 C   0  0  0  0  0  0  0  0  0  0  0  0
   -1.0458   -2.7705    1.5236 O   0  0  0  0  0  0  0  0  0  0  0  0
   -1.4541   -1.3353   -0.1611 N   0  0  0  0  0  0  0  0  0  0  0  0
   -2.1094   -1.1112   -0.9057 H   0  0  0  0  0  0  0  0  0  0  0  0
   -0.0879   -0.7664   -0.2044 C   0  0  1  0  0  0  0  0  0  0  0  0
    0.6294   -1.5703   -0.4113 H   0  0  0  0  0  0  0  0  0  0  0  0
   -0.0388    0.2581   -1.3697 C   0  0  0  0  0  0  0  0  0  0  0  0
   -0.0705   -0.3010   -2.3111 H   0  0  0  0  0  0  0  0  0  0  0  0
   -0.9496    0.8645   -1.3199 H   0  0  0  0  0  0  0  0  0  0  0  0
    1.1294    1.2331   -1.4318 C   0  0  0  0  0  0  0  0  0  0  0  0
    2.2290    1.3789   -0.5793 N   0  3  0  0  0  0  0  0  0  0  0  0
    2.3436    0.8132    0.2770 H   0  0  0  0  0  0  0  0  0  0  0  0
    3.0244    2.3333   -0.9900 C   0  0  0  0  0  0  0  0  0  0  0  0
    3.9454    2.6584   -0.5019 H   0  0  0  0  0  0  0  0  0  0  0  0
    2.4680    2.8489   -2.1559 N   0  0  0  0  0  0  0  0  0  0  0  0
    2.8616    3.6089   -2.7192 H   0  0  0  0  0  0  0  0  0  0  0  0
    1.2889    2.1644   -2.4306 C   0  0  0  0  0  0  0  0  0  0  0  0
    0.6197    2.3281   -3.2755 H   0  0  0  0  0  0  0  0  0  0  0  0
    0.3106   -0.1657    1.1669 C   0  0  0  0  0  0  0  0  0  0  0  0
    1.4883   -0.1841    1.5102 O   0  0  0  0  0  0  0  0  0  0  0  0
   -0.5785    0.6274    1.8682 N   0  0  0  0  0  0  0  0  0  0  0  0
   -1.5586    0.5014    1.6293 H   0  0  0  0  0  0  0  0  0  0  0  0
   -0.2685    1.1690    3.1890 C   0  0  0  0  0  0  0  0  0  0  0  0
    0.6183    1.8102    3.1482 H   0  0  0  0  0  0  0  0  0  0  0  0
   -1.1062    1.7682    3.5601 H   0  0  0  0  0  0  0  0  0  0  0  0
   -0.0818    0.3577    3.9015 H   0  0  0  0  0  0  0  0  0  0  0  0
  1  2  1  0  0  0  0
  2  3  1  0  0  0  0
  2  4  1  0  0  0  0
  2  5  1  0  0  0  0
  5  6  2  0  0  0  0
  5  7  1  0  0  0  0
  7  8  1  0  0  0  0
  7  9  1  0  0  0  0
  9 10  1  0  0  0  0
  9 11  1  0  0  0  0
  9 23  1  0  0  0  0
 11 12  1  0  0  0  0
 11 13  1  0  0  0  0
 11 14  1  0  0  0  0
 14 15  1  0  0  0  0
 14 21  2  0  0  0  0
 15 16  1  0  0  0  0
 15 17  2  0  0  0  0
 17 18  1  0  0  0  0
 17 19  1  0  0  0  0
 19 20  1  0  0  0  0
 19 21  1  0  0  0  0
 21 22  1  0  0  0  0
 23 24  2  0  0  0  0
 23 25  1  0  0  0  0
 25 26  1  0  0  0  0
 25 27  1  0  0  0  0
 27 28  1  0  0  0  0
 27 29  1  0  0  0  0
 27 30  1  0  0  0  0
M  CHG  1  15   1
M  END
$$$$

  -OEChem-04042216003D

 30 30  0     1  0  0  0  0  0999 V2000
   -3.3080   -3.7843    1.3397 H   0  0  0  0  0  0  0  0  0  0  0  0
   -3.2059   -2.9949    0.5890 C   0  0  0  0  0  0  0  0  0  0  0  0
   -3.9779   -2.2423    0.7656 H   0  0  0  0  0  0  0  0  0  0  0  0
   -3.3515   -3.4339   -0.4008 H   0  0  0  0  0  0  0  0  0  0  0  0
   -1.8297   -2.3646    0.6828 C   0  0  0  0  0  0  0  0  0  0  0  0
   -1.0274   -2.7698    1.5032 O   0  0  0  0  0  0  0  0  0  0  0  0
   -1.4713   -1.3353   -0.1715 N   0  0  0  0  0  0  0  0  0  0  0  0
   -2.1392   -1.1092   -0.9044 H   0  0  0  0  0  0  0  0  0  0  0  0
   -0.1109   -0.7562   -0.2263 C   0  0  1  0  0  0  0  0  0  0  0  0
    0.6039   -1.5614   -0.4368 H   0  0  0  0  0  0  0  0  0  0  0  0
   -0.0657    0.2571   -1.3996 C   0  0  0  0  0  0  0  0  0  0  0  0
   -0.0782   -0.3115   -2.3358 H   0  0  0  0  0  0  0  0  0  0  0  0
   -0.9812    0.8576   -1.3698 H   0  0  0  0  0  0  0  0  0  0  0  0
    1.1060    1.2261   -1.4462 C   0  0  0  0  0  0  0  0  0  0  0  0
    2.3165    1.1759   -0.7474 N   0  3  0  0  0  0  0  0  0  0  0  0
    2.4748    0.5125    0.0284 H   0  0  0  0  0  0  0  0  0  0  0  0
    3.0789    2.1933   -1.0571 C   0  0  0  0  0  0  0  0  0  0  0  0
    4.0512    2.4247   -0.6178 H   0  0  0  0  0  0  0  0  0  0  0  0
    2.4007    2.9305   -2.0228 N   0  0  0  0  0  0  0  0  0  0  0  0
    2.7428    3.7883   -2.4667 H   0  0  0  0  0  0  0  0  0  0  0  0
    1.1672    2.3327   -2.2593 C   0  0  0  0  0  0  0  0  0  0  0  0
    0.3983    2.6696   -2.9550 H   0  0  0  0  0  0  0  0  0  0  0  0
    0.3160   -0.1495    1.1333 C   0  0  0  0  0  0  0  0  0  0  0  0
    1.5010   -0.1836    1.4509 O   0  0  0  0  0  0  0  0  0  0  0  0
   -0.5565    0.6434    1.8552 N   0  0  0  0  0  0  0  0  0  0  0  0
   -1.5424    0.5208    1.6395 H   0  0  0  0  0  0  0  0  0  0  0  0
   -0.2109    1.1916    3.1642 C   0  0  0  0  0  0  0  0  0  0  0  0
    0.6796    1.8255    3.0961 H   0  0  0  0  0  0  0  0  0  0  0  0
   -1.0342    1.8005    3.5512 H   0  0  0  0  0  0  0  0  0  0  0  0
   -0.0122    0.3840    3.8779 H   0  0  0  0  0  0  0  0  0  0  0  0
  1  2  1  0  0  0  0
  2  3  1  0  0  0  0
  2  4  1  0  0  0  0
  2  5  1  0  0  0  0
  5  6  2  0  0  0  0
  5  7  1  0  0  0  0
  7  8  1  0  0  0  0
  7  9  1  0  0  0  0
  9 10  1  0  0  0  0
  9 11  1  0  0  0  0
  9 23  1  0  0  0  0
 11 12  1  0  0  0  0
 11 13  1  0  0  0  0
 11 14  1  0  0  0  0
 14 15  1  0  0  0  0
 14 21  2  0  0  0  0
 15 16  1  0  0  0  0
 15 17  2  0  0  0  0
 17 18  1  0  0  0  0
 17 19  1  0  0  0  0
 19 20  1  0  0  0  0
 19 21  1  0  0  0  0
 21 22  1  0  0  0  0
 23 24  2  0  0  0  0
 23 25  1  0  0  0  0
 25 26  1  0  0  0  0
 25 27  1  0  0  0  0
 27 28  1  0  0  0  0
 27 29  1  0  0  0  0
 27 30  1  0  0  0  0
M  CHG  1  15   1
M  END
$$$$

  -OEChem-04042216003D

 30 30  0     1  0  0  0  0  0999 V2000
   -3.2698   -3.8140    1.3495 H   0  0  0  0  0  0  0  0  0  0  0  0
   -3.1900   -3.0208    0.6001 C   0  0  0  0  0  0  0  0  0  0  0  0
   -3.9696   -2.2795    0.7911 H   0  0  0  0  0  0  0  0  0  0  0  0
   -3.3445   -3.4591   -0.3888 H   0  0  0  0  0  0  0  0  0  0  0  0
   -1.8216   -2.3715    0.6746 C   0  0  0  0  0  0  0  0  0  0  0  0
   -1.0006   -2.7652    1.4824 O   0  0  0  0  0  0  0  0  0  0  0  0
   -1.4903   -1.3358   -0.1824 N   0  0  0  0  0  0  0  0  0  0  0  0
   -2.1723   -1.1144   -0.9037 H   0  0  0  0  0  0  0  0  0  0  0  0
   -0.1395   -0.7386   -0.2522 C   0  0  1  0  0  0  0  0  0  0  0  0
    0.5746   -1.5432   -0.4663 H   0  0  0  0  0  0  0  0  0  0  0  0
   -0.1013    0.2623   -1.4339 C   0  0  0  0  0  0  0  0  0  0  0  0
   -0.0957   -0.3121   -2.3666 H   0  0  0  0  0  0  0  0  0  0  0  0
   -1.0211    0.8567   -1.4201 H   0  0  0  0  0  0  0  0  0  0  0  0
    1.0728    1.2252   -1.4547 C   0  0  0  0  0  0  0  0  0  0  0  0
    2.3614    1.0108   -0.9553 N   0  3  0  0  0  0  0  0  0  0  0  0
    2.5616    0.2532   -0.2847 H   0  0  0  0  0  0  0  0  0  0  0  0
    3.1098    2.0680   -1.1451 C   0  0  0  0  0  0  0  0  0  0  0  0
    4.1275    2.2081   -0.7755 H   0  0  0  0  0  0  0  0  0  0  0  0
    2.3463    2.9901   -1.8547 N   0  0  0  0  0  0  0  0  0  0  0  0
    2.6592    3.9190   -2.1529 H   0  0  0  0  0  0  0  0  0  0  0  0
    1.0691    2.4705   -2.0348 C   0  0  0  0  0  0  0  0  0  0  0  0
    0.2295    2.9502   -2.5379 H   0  0  0  0  0  0  0  0  0  0  0  0
    0.3211   -0.1218    1.0906 C   0  0  0  0  0  0  0  0  0  0  0  0
    1.5164   -0.1531    1.3684 O   0  0  0  0  0  0  0  0  0  0  0  0
   -0.5347    0.6677    1.8353 N   0  0  0  0  0  0  0  0  0  0  0  0
   -1.5257    0.5391    1.6488 H   0  0  0  0  0  0  0  0  0  0  0  0
   -0.1534    1.2204    3.1321 C   0  0  0  0  0  0  0  0  0  0  0  0
    0.7411    1.8454    3.0392 H   0  0  0  0  0  0  0  0  0  0  0  0
   -0.9618    1.8390    3.5345 H   0  0  0  0  0  0  0  0  0  0  0  0
    0.0545    0.4153    3.8457 H   0  0  0  0  0  0  0  0  0  0  0  0
  1  2  1  0  0  0  0
  2  3  1  0  0  0  0
  2  4  1  0  0  0  0
  2  5  1  0  0  0  0
  5  6  2  0  0  0  0
  5  7  1  0  0  0  0
  7  8  1  0  0  0  0
  7  9  1  0  0  0  0
  9 10  1  0  0  0  0
  9 11  1  0  0  0  0
  9 23  1  0  0  0  0
 11 12  1  0  0  0  0
 11 13  1  0  0  0  0
 11 14  1  0  0  0  0
 14 15  1  0  0  0  0
 14 21  2  0  0  0  0
 15 16  1  0  0  0  0
 15 17  2  0  0  0  0
 17 18  1  0  0  0  0
 17 19  1  0  0  0  0
 19 20  1  0  0  0  0
 19 21  1  0  0  0  0
 21 22  1  0  0  0  0
 23 24  2  0  0  0  0
 23 25  1  0  0  0  0
 25 26  1  0  0  0  0
 25 27  1  0  0  0  0
 27 28  1  0  0  0  0
 27 29  1  0  0  0  0
 27 30  1  0  0  0  0
M  CHG  1  15   1
M  END
$$$$

  -OEChem-04042216003D

 30 30  0     1  0  0  0  0  0999 V2000
   -3.2269   -3.8414    1.3645 H   0  0  0  0  0  0  0  0  0  0  0  0
   -3.1712   -3.0454    0.6159 C   0  0  0  0  0  0  0  0  0  0  0  0
   -3.9560   -2.3144    0.8239 H   0  0  0  0  0  0  0  0  0  0  0  0
   -3.3392   -3.4824   -0.3714 H   0  0  0  0  0  0  0  0  0  0  0  0
   -1.8097   -2.3793    0.6667 C   0  0  0  0  0  0  0  0  0  0  0  0
   -0.9700   -2.7629    1.4600 O   0  0  0  0  0  0  0  0  0  0  0  0
   -1.5047   -1.3401   -0.1955 N   0  0  0  0  0  0  0  0  0  0  0  0
   -2.2017   -1.1222   -0.9034 H   0  0  0  0  0  0  0  0  0  0  0  0
   -0.1637   -0.7243   -0.2812 C   0  0  1  0  0  0  0  0  0  0  0  0
    0.5531   -1.5255   -0.4981 H   0  0  0  0  0  0  0  0  0  0  0  0
   -0.1347    0.2677   -1.4677 C   0  0  0  0  0  0  0  0  0  0  0  0
   -0.1216   -0.3043   -2.4016 H   0  0  0  0  0  0  0  0  0  0  0  0
   -1.0561    0.8595   -1.4581 H   0  0  0  0  0  0  0  0  0  0  0  0
    1.0431    1.2228   -1.4588 C   0  0  0  0  0  0  0  0  0  0  0  0
    2.3789    0.8967   -1.2045 N   0  3  0  0  0  0  0  0  0  0  0  0
    2.6426    0.0183   -0.7418 H   0  0  0  0  0  0  0  0  0  0  0  0
    3.1250    1.9720   -1.2534 C   0  0  0  0  0  0  0  0  0  0  0  0
    4.1839    2.0305   -0.9948 H   0  0  0  0  0  0  0  0  0  0  0  0
    2.3041    3.0292   -1.6353 N   0  0  0  0  0  0  0  0  0  0  0  0
    2.6022    4.0023   -1.7524 H   0  0  0  0  0  0  0  0  0  0  0  0
    0.9988    2.5646   -1.7482 C   0  0  0  0  0  0  0  0  0  0  0  0
    0.1139    3.1459   -2.0072 H   0  0  0  0  0  0  0  0  0  0  0  0
    0.3218   -0.0942    1.0458 C   0  0  0  0  0  0  0  0  0  0  0  0
    1.5244   -0.1074    1.2888 O   0  0  0  0  0  0  0  0  0  0  0  0
   -0.5244    0.6916    1.8059 N   0  0  0  0  0  0  0  0  0  0  0  0
   -1.5184    0.5494    1.6477 H   0  0  0  0  0  0  0  0  0  0  0  0
   -0.1133    1.2611    3.0862 C   0  0  0  0  0  0  0  0  0  0  0  0
    0.7678    1.8995    2.9611 H   0  0  0  0  0  0  0  0  0  0  0  0
   -0.9188    1.8702    3.5082 H   0  0  0  0  0  0  0  0  0  0  0  0
    0.1290    0.4651    3.7993 H   0  0  0  0  0  0  0  0  0  0  0  0
  1  2  1  0  0  0  0
  2  3  1  0  0  0  0
  2  4  1  0  0  0  0
  2  5  1  0  0  0  0
  5  6  2  0  0  0  0
  5  7  1  0  0  0  0
  7  8  1  0  0  0  0
  7  9  1  0  0  0  0
  9 10  1  0  0  0  0
  9 11  1  0  0  0  0
  9 23  1  0  0  0  0
 11 12  1  0  0  0  0
 11 13  1  0  0  0  0
 11 14  1  0  0  0  0
 14 15  1  0  0  0  0
 14 21  2  0  0  0  0
 15 16  1  0  0  0  0
 15 17  2  0  0  0  0
 17 18  1  0  0  0  0
 17 19  1  0  0  0  0
 19 20  1  0  0  0  0
 19 21  1  0  0  0  0
 21 22  1  0  0  0  0
 23 24  2  0  0  0  0
 23 25  1  0  0  0  0
 25 26  1  0  0  0  0
 25 27  1  0  0  0  0
 27 28  1  0  0  0  0
 27 29  1  0  0  0  0
 27 30  1  0  0  0  0
M  CHG  1  15   1
M  END
$$$$

  -OEChem-04042216003D

 30 30  0     1  0  0  0  0  0999 V2000
   -3.1884   -3.8527    1.3857 H   0  0  0  0  0  0  0  0  0  0  0  0
   -3.1485   -3.0585    0.6345 C   0  0  0  0  0  0  0  0  0  0  0  0
   -3.9372   -2.3338    0.8498 H   0  0  0  0  0  0  0  0  0  0  0  0
   -3.3243   -3.4998   -0.3495 H   0  0  0  0  0  0  0  0  0  0  0  0
   -1.7919   -2.3813    0.6671 C   0  0  0  0  0  0  0  0  0  0  0  0
   -0.9403   -2.7538    1.4528 O   0  0  0  0  0  0  0  0  0  0  0  0
   -1.5045   -1.3453   -0.2046 N   0  0  0  0  0  0  0  0  0  0  0  0
   -2.2130   -1.1326   -0.9027 H   0  0  0  0  0  0  0  0  0  0  0  0
   -0.1706   -0.7170   -0.3071 C   0  0  1  0  0  0  0  0  0  0  0  0
    0.5531   -1.5109   -0.5261 H   0  0  0  0  0  0  0  0  0  0  0  0
   -0.1619    0.2751   -1.4923 C   0  0  0  0  0  0  0  0  0  0  0  0
   -0.1600   -0.2842   -2.4339 H   0  0  0  0  0  0  0  0  0  0  0  0
   -1.0817    0.8686   -1.4644 H   0  0  0  0  0  0  0  0  0  0  0  0
    1.0192    1.2211   -1.4635 C   0  0  0  0  0  0  0  0  0  0  0  0
    2.3666    0.8527   -1.4990 N   0  3  0  0  0  0  0  0  0  0  0  0
    2.6761   -0.1163   -1.3811 H   0  0  0  0  0  0  0  0  0  0  0  0
    3.1280    1.9141   -1.3996 C   0  0  0  0  0  0  0  0  0  0  0  0
    4.2159    1.9200   -1.3113 H   0  0  0  0  0  0  0  0  0  0  0  0
    2.2895    3.0254   -1.3767 N   0  0  0  0  0  0  0  0  0  0  0  0
    2.5940    3.9989   -1.2819 H   0  0  0  0  0  0  0  0  0  0  0  0
    0.9691    2.5921   -1.4061 C   0  0  0  0  0  0  0  0  0  0  0  0
    0.0724    3.2100   -1.3652 H   0  0  0  0  0  0  0  0  0  0  0  0
    0.3232   -0.0718    1.0108 C   0  0  0  0  0  0  0  0  0  0  0  0
    1.5289   -0.0438    1.2324 O   0  0  0  0  0  0  0  0  0  0  0  0
   -0.5282    0.7104    1.7697 N   0  0  0  0  0  0  0  0  0  0  0  0
   -1.5201    0.5338    1.6352 H   0  0  0  0  0  0  0  0  0  0  0  0
   -0.1099    1.3048    3.0364 C   0  0  0  0  0  0  0  0  0  0  0  0
    0.7615    1.9521    2.8923 H   0  0  0  0  0  0  0  0  0  0  0  0
   -0.9185    1.9097    3.4584 H   0  0  0  0  0  0  0  0  0  0  0  0
    0.1512    0.5227    3.7580 H   0  0  0  0  0  0  0  0  0  0  0  0
  1  2  1  0  0  0  0
  2  3  1  0  0  0  0
  2  4  1  0  0  0  0
  2  5  1  0  0  0  0
  5  6  2  0  0  0  0
  5  7  1  0  0  0  0
  7  8  1  0  0  0  0
  7  9  1  0  0  0  0
  9 10  1  0  0  0  0
  9 11  1  0  0  0  0
  9 23  1  0  0  0  0
 11 12  1  0  0  0  0
 11 13  1  0  0  0  0
 11 14  1  0  0  0  0
 14 15  1  0  0  0  0
 14 21  2  0  0  0  0
 15 16  1  0  0  0  0
 15 17  2  0  0  0  0
 17 18  1  0  0  0  0
 17 19  1  0  0  0  0
 19 20  1  0  0  0  0
 19 21  1  0  0  0  0
 21 22  1  0  0  0  0
 23 24  2  0  0  0  0
 23 25  1  0  0  0  0
 25 26  1  0  0  0  0
 25 27  1  0  0  0  0
 27 28  1  0  0  0  0
 27 29  1  0  0  0  0
 27 30  1  0  0  0  0
M  CHG  1  15   1
M  END
$$$$

  -OEChem-04042216003D

 30 30  0     1  0  0  0  0  0999 V2000
   -3.1721   -3.8615    1.3883 H   0  0  0  0  0  0  0  0  0  0  0  0
   -3.1392   -3.0634    0.6404 C   0  0  0  0  0  0  0  0  0  0  0  0
   -3.9306   -2.3437    0.8617 H   0  0  0  0  0  0  0  0  0  0  0  0
   -3.3165   -3.5007   -0.3450 H   0  0  0  0  0  0  0  0  0  0  0  0
   -1.7864   -2.3786    0.6712 C   0  0  0  0  0  0  0  0  0  0  0  0
   -0.9348   -2.7421    1.4610 O   0  0  0  0  0  0  0  0  0  0  0  0
   -1.5046   -1.3447   -0.2050 N   0  0  0  0  0  0  0  0  0  0  0  0
   -2.2136   -1.1417   -0.9053 H   0  0  0  0  0  0  0  0  0  0  0  0
   -0.1725   -0.7130   -0.3159 C   0  0  1  0  0  0  0  0  0  0  0  0
    0.5558   -1.5021   -0.5376 H   0  0  0  0  0  0  0  0  0  0  0  0
   -0.1742    0.2832   -1.4981 C   0  0  0  0  0  0  0  0  0  0  0  0
   -0.1885   -0.2644   -2.4463 H   0  0  0  0  0  0  0  0  0  0  0  0
   -1.0899    0.8821   -1.4516 H   0  0  0  0  0  0  0  0  0  0  0  0
    1.0104    1.2227   -1.4616 C   0  0  0  0  0  0  0  0  0  0  0  0
    2.3278    0.8963   -1.7910 N   0  3  0  0  0  0  0  0  0  0  0  0
    2.6288   -0.0599   -1.9958 H   0  0  0  0  0  0  0  0  0  0  0  0
    3.1137    1.9243   -1.5832 C   0  0  0  0  0  0  0  0  0  0  0  0
    4.2005    1.9373   -1.6830 H   0  0  0  0  0  0  0  0  0  0  0  0
    2.3094    2.9843   -1.1729 N   0  0  0  0  0  0  0  0  0  0  0  0
    2.6431    3.9135   -0.8998 H   0  0  0  0  0  0  0  0  0  0  0  0
    0.9935    2.5453   -1.0929 C   0  0  0  0  0  0  0  0  0  0  0  0
    0.1267    3.1175   -0.7630 H   0  0  0  0  0  0  0  0  0  0  0  0
    0.3210   -0.0633    1.0007 C   0  0  0  0  0  0  0  0  0  0  0  0
    1.5268   -0.0045    1.2126 O   0  0  0  0  0  0  0  0  0  0  0  0
   -0.5367    0.7164    1.7562 N   0  0  0  0  0  0  0  0  0  0  0  0
   -1.5256    0.5128    1.6375 H   0  0  0  0  0  0  0  0  0  0  0  0
   -0.1174    1.3251    3.0162 C   0  0  0  0  0  0  0  0  0  0  0  0
    0.7377    1.9913    2.8594 H   0  0  0  0  0  0  0  0  0  0  0  0
   -0.9348    1.9125    3.4464 H   0  0  0  0  0  0  0  0  0  0  0  0
    0.1701    0.5522    3.7378 H   0  0  0  0  0  0  0  0  0  0  0  0
  1  2  1  0  0  0  0
  2  3  1  0  0  0  0
  2  4  1  0  0  0  0
  2  5  1  0  0  0  0
  5  6  2  0  0  0  0
  5  7  1  0  0  0  0
  7  8  1  0  0  0  0
  7  9  1  0  0  0  0
  9 10  1  0  0  0  0
  9 11  1  0  0  0  0
  9 23  1  0  0  0  0
 11 12  1  0  0  0  0
 11 13  1  0  0  0  0
 11 14  1  0  0  0  0
 14 15  1  0  0  0  0
 14 21  2  0  0  0  0
 15 16  1  0  0  0  0
 15 17  2  0  0  0  0
 17 18  1  0  0  0  0
 17 19  1  0  0  0  0
 19 20  1  0  0  0  0
 19 21  1  0  0  0  0
 21 22  1  0  0  0  0
 23 24  2  0  0  0  0
 23 25  1  0  0  0  0
 25 26  1  0  0  0  0
 25 27  1  0  0  0  0
 27 28  1  0  0  0  0
 27 29  1  0  0  0  0
 27 30  1  0  0  0  0
M  CHG  1  15   1
M  END
$$$$

  -OEChem-04042216003D

 30 30  0     1  0  0  0  0  0999 V2000
   -3.1932   -3.8484    1.3815 H   0  0  0  0  0  0  0  0  0  0  0  0
   -3.1464   -3.0520    0.6327 C   0  0  0  0  0  0  0  0  0  0  0  0
   -3.9385   -2.3291    0.8410 H   0  0  0  0  0  0  0  0  0  0  0  0
   -3.3105   -3.4909   -0.3543 H   0  0  0  0  0  0  0  0  0  0  0  0
   -1.7921   -2.3717    0.6817 C   0  0  0  0  0  0  0  0  0  0  0  0
   -0.9545   -2.7337    1.4868 O   0  0  0  0  0  0  0  0  0  0  0  0
   -1.4968   -1.3403   -0.1928 N   0  0  0  0  0  0  0  0  0  0  0  0
   -2.1951   -1.1434   -0.9054 H   0  0  0  0  0  0  0  0  0  0  0  0
   -0.1597   -0.7169   -0.2985 C   0  0  1  0  0  0  0  0  0  0  0  0
    0.5695   -1.5055   -0.5198 H   0  0  0  0  0  0  0  0  0  0  0  0
   -0.1615    0.2845   -1.4772 C   0  0  0  0  0  0  0  0  0  0  0  0
   -0.1914   -0.2588   -2.4273 H   0  0  0  0  0  0  0  0  0  0  0  0
   -1.0732    0.8885   -1.4180 H   0  0  0  0  0  0  0  0  0  0  0  0
    1.0223    1.2263   -1.4535 C   0  0  0  0  0  0  0  0  0  0  0  0
    2.2609    1.0073   -2.0597 N   0  3  0  0  0  0  0  0  0  0  0  0
    2.5090    0.1276   -2.5194 H   0  0  0  0  0  0  0  0  0  0  0  0
    3.0719    2.0062   -1.8081 C   0  0  0  0  0  0  0  0  0  0  0  0
    4.1203    2.0799   -2.1030 H   0  0  0  0  0  0  0  0  0  0  0  0
    2.3564    2.9445   -1.0689 N   0  0  0  0  0  0  0  0  0  0  0  0
    2.7343    3.8160   -0.6855 H   0  0  0  0  0  0  0  0  0  0  0  0
    1.0734    2.4595   -0.8501 C   0  0  0  0  0  0  0  0  0  0  0  0
    0.2784    2.9334   -0.2745 H   0  0  0  0  0  0  0  0  0  0  0  0
    0.3222   -0.0728    1.0250 C   0  0  0  0  0  0  0  0  0  0  0  0
    1.5247   -0.0057    1.2487 O   0  0  0  0  0  0  0  0  0  0  0  0
   -0.5445    0.7078    1.7700 N   0  0  0  0  0  0  0  0  0  0  0  0
   -1.5305    0.4947    1.6425 H   0  0  0  0  0  0  0  0  0  0  0  0
   -0.1429    1.2994    3.0439 C   0  0  0  0  0  0  0  0  0  0  0  0
    0.7203    1.9602    2.9105 H   0  0  0  0  0  0  0  0  0  0  0  0
   -0.9632    1.8890    3.4655 H   0  0  0  0  0  0  0  0  0  0  0  0
    0.1252    0.5160    3.7616 H   0  0  0  0  0  0  0  0  0  0  0  0
  1  2  1  0  0  0  0
  2  3  1  0  0  0  0
  2  4  1  0  0  0  0
  2  5  1  0  0  0  0
  5  6  2  0  0  0  0
  5  7  1  0  0  0  0
  7  8  1  0  0  0  0
  7  9  1  0  0  0  0
  9 10  1  0  0  0  0
  9 11  1  0  0  0  0
  9 23  1  0  0  0  0
 11 12  1  0  0  0  0
 11 13  1  0  0  0  0
 11 14  1  0  0  0  0
 14 15  1  0  0  0  0
 14 21  2  0  0  0  0
 15 16  1  0  0  0  0
 15 17  2  0  0  0  0
 17 18  1  0  0  0  0
 17 19  1  0  0  0  0
 19 20  1  0  0  0  0
 19 21  1  0  0  0  0
 21 22  1  0  0  0  0
 23 24  2  0  0  0  0
 23 25  1  0  0  0  0
 25 26  1  0  0  0  0
 25 27  1  0  0  0  0
 27 28  1  0  0  0  0
 27 29  1  0  0  0  0
 27 30  1  0  0  0  0
M  CHG  1  15   1
M  END
$$$$

  -OEChem-04042216003D

 30 30  0     1  0  0  0  0  0999 V2000
   -3.2225   -3.8356    1.3660 H   0  0  0  0  0  0  0  0  0  0  0  0
   -3.1597   -3.0388    0.6188 C   0  0  0  0  0  0  0  0  0  0  0  0
   -3.9499   -2.3108    0.8165 H   0  0  0  0  0  0  0  0  0  0  0  0
   -3.3127   -3.4757   -0.3708 H   0  0  0  0  0  0  0  0  0  0  0  0
   -1.8016   -2.3675    0.6878 C   0  0  0  0  0  0  0  0  0  0  0  0
   -0.9768   -2.7398    1.5011 O   0  0  0  0  0  0  0  0  0  0  0  0
   -1.4889   -1.3342   -0.1789 N   0  0  0  0  0  0  0  0  0  0  0  0
   -2.1787   -1.1292   -0.8975 H   0  0  0  0  0  0  0  0  0  0  0  0
   -0.1453   -0.7213   -0.2699 C   0  0  1  0  0  0  0  0  0  0  0  0
    0.5822   -1.5132   -0.4852 H   0  0  0  0  0  0  0  0  0  0  0  0
   -0.1328    0.2798   -1.4511 C   0  0  0  0  0  0  0  0  0  0  0  0
   -0.1669   -0.2713   -2.3962 H   0  0  0  0  0  0  0  0  0  0  0  0
   -1.0429    0.8869   -1.3968 H   0  0  0  0  0  0  0  0  0  0  0  0
    1.0470    1.2309   -1.4483 C   0  0  0  0  0  0  0  0  0  0  0  0
    2.1612    1.1554   -2.2877 N   0  3  0  0  0  0  0  0  0  0  0  0
    2.3173    0.3827   -2.9398 H   0  0  0  0  0  0  0  0  0  0  0  0
    2.9999    2.1278   -2.0226 C   0  0  0  0  0  0  0  0  0  0  0  0
    3.9755    2.2876   -2.4854 H   0  0  0  0  0  0  0  0  0  0  0  0
    2.4250    2.9083   -1.0239 N   0  0  0  0  0  0  0  0  0  0  0  0
    2.8599    3.7194   -0.5740 H   0  0  0  0  0  0  0  0  0  0  0  0
    1.1998    2.3568   -0.6744 C   0  0  0  0  0  0  0  0  0  0  0  0
    0.5135    2.7118    0.0949 H   0  0  0  0  0  0  0  0  0  0  0  0
    0.3199   -0.0910    1.0656 C   0  0  0  0  0  0  0  0  0  0  0  0
    1.5179   -0.0309    1.3113 O   0  0  0  0  0  0  0  0  0  0  0  0
   -0.5540    0.6894    1.8033 N   0  0  0  0  0  0  0  0  0  0  0  0
   -1.5387    0.4822    1.6569 H   0  0  0  0  0  0  0  0  0  0  0  0
   -0.1726    1.2543    3.0959 C   0  0  0  0  0  0  0  0  0  0  0  0
    0.7028    1.9043    2.9943 H   0  0  0  0  0  0  0  0  0  0  0  0
   -0.9937    1.8485    3.5092 H   0  0  0  0  0  0  0  0  0  0  0  0
    0.0679    0.4551    3.8061 H   0  0  0  0  0  0  0  0  0  0  0  0
  1  2  1  0  0  0  0
  2  3  1  0  0  0  0
  2  4  1  0  0  0  0
  2  5  1  0  0  0  0
  5  6  2  0  0  0  0
  5  7  1  0  0  0  0
  7  8  1  0  0  0  0
  7  9  1  0  0  0  0
  9 10  1  0  0  0  0
  9 11  1  0  0  0  0
  9 23  1  0  0  0  0
 11 12  1  0  0  0  0
 11 13  1  0  0  0  0
 11 14  1  0  0  0  0
 14 15  1  0  0  0  0
 14 21  2  0  0  0  0
 15 16  1  0  0  0  0
 15 17  2  0  0  0  0
 17 18  1  0  0  0  0
 17 19  1  0  0  0  0
 19 20  1  0  0  0  0
 19 21  1  0  0  0  0
 21 22  1  0  0  0  0
 23 24  2  0  0  0  0
 23 25  1  0  0  0  0
 25 26  1  0  0  0  0
 25 27  1  0  0  0  0
 27 28  1  0  0  0  0
 27 29  1  0  0  0  0
 27 30  1  0  0  0  0
M  CHG  1  15   1
M  END
$$$$

  -OEChem-04042216003D

 30 30  0     1  0  0  0  0  0999 V2000
   -3.2556   -3.8206    1.3402 H   0  0  0  0  0  0  0  0  0  0  0  0
   -3.1754   -3.0172    0.6018 C   0  0  0  0  0  0  0  0  0  0  0  0
   -3.9542   -2.2780    0.8028 H   0  0  0  0  0  0  0  0  0  0  0  0
   -3.3306   -3.4414   -0.3931 H   0  0  0  0  0  0  0  0  0  0  0  0
   -1.8065   -2.3699    0.6847 C   0  0  0  0  0  0  0  0  0  0  0  0
   -0.9912   -2.7675    1.4956 O   0  0  0  0  0  0  0  0  0  0  0  0
   -1.4727   -1.3313   -0.1678 N   0  0  0  0  0  0  0  0  0  0  0  0
   -2.1603   -1.0962   -0.8789 H   0  0  0  0  0  0  0  0  0  0  0  0
   -0.1235   -0.7263   -0.2347 C   0  0  1  0  0  0  0  0  0  0  0  0
    0.6039   -1.5212   -0.4402 H   0  0  0  0  0  0  0  0  0  0  0  0
   -0.0904    0.2714   -1.4214 C   0  0  0  0  0  0  0  0  0  0  0  0
   -0.1130   -0.2984   -2.3558 H   0  0  0  0  0  0  0  0  0  0  0  0
   -1.0045    0.8738   -1.3884 H   0  0  0  0  0  0  0  0  0  0  0  0
    1.0784    1.2414   -1.4460 C   0  0  0  0  0  0  0  0  0  0  0  0
    2.0218    1.3300   -2.4743 N   0  3  0  0  0  0  0  0  0  0  0  0
    2.0434    0.6839   -3.2673 H   0  0  0  0  0  0  0  0  0  0  0  0
    2.9003    2.2690   -2.2171 C   0  0  0  0  0  0  0  0  0  0  0  0
    3.7718    2.5278   -2.8217 H   0  0  0  0  0  0  0  0  0  0  0  0
    2.5239    2.8660   -1.0184 N   0  0  0  0  0  0  0  0  0  0  0  0
    3.0351    3.6083   -0.5313 H   0  0  0  0  0  0  0  0  0  0  0  0
    1.3790    2.2393   -0.5476 C   0  0  0  0  0  0  0  0  0  0  0  0
    0.8458    2.4643    0.3766 H   0  0  0  0  0  0  0  0  0  0  0  0
    0.3145   -0.1145    1.1172 C   0  0  0  0  0  0  0  0  0  0  0  0
    1.5053   -0.0658    1.3956 O   0  0  0  0  0  0  0  0  0  0  0  0
   -0.5715    0.6611    1.8456 N   0  0  0  0  0  0  0  0  0  0  0  0
   -1.5540    0.4698    1.6668 H   0  0  0  0  0  0  0  0  0  0  0  0
   -0.2216    1.1999    3.1582 C   0  0  0  0  0  0  0  0  0  0  0  0
    0.6503    1.8588    3.0894 H   0  0  0  0  0  0  0  0  0  0  0  0
   -1.0561    1.7781    3.5674 H   0  0  0  0  0  0  0  0  0  0  0  0
    0.0103    0.3869    3.8553 H   0  0  0  0  0  0  0  0  0  0  0  0
  1  2  1  0  0  0  0
  2  3  1  0  0  0  0
  2  4  1  0  0  0  0
  2  5  1  0  0  0  0
  5  6  2  0  0  0  0
  5  7  1  0  0  0  0
  7  8  1  0  0  0  0
  7  9  1  0  0  0  0
  9 10  1  0  0  0  0
  9 11  1  0  0  0  0
  9 23  1  0  0  0  0
 11 12  1  0  0  0  0
 11 13  1  0  0  0  0
 11 14  1  0  0  0  0
 14 15  1  0  0  0  0
 14 21  2  0  0  0  0
 15 16  1  0  0  0  0
 15 17  2  0  0  0  0
 17 18  1  0  0  0  0
 17 19  1  0  0  0  0
 19 20  1  0  0  0  0
 19 21  1  0  0  0  0
 21 22  1  0  0  0  0
 23 24  2  0  0  0  0
 23 25  1  0  0  0  0
 25 26  1  0  0  0  0
 25 27  1  0  0  0  0
 27 28  1  0  0  0  0
 27 29  1  0  0  0  0
 27 30  1  0  0  0  0
M  CHG  1  15   1
M  END
$$$$

  -OEChem-04042216003D

 30 30  0     1  0  0  0  0  0999 V2000
   -3.2947   -3.8046    1.2968 H   0  0  0  0  0  0  0  0  0  0  0  0
   -3.1897   -2.9966    0.5666 C   0  0  0  0  0  0  0  0  0  0  0  0
   -3.9640   -2.2497    0.7574 H   0  0  0  0  0  0  0  0  0  0  0  0
   -3.3288   -3.4115   -0.4346 H   0  0  0  0  0  0  0  0  0  0  0  0
   -1.8150   -2.3670    0.6828 C   0  0  0  0  0  0  0  0  0  0  0  0
   -1.0223   -2.7807    1.5077 O   0  0  0  0  0  0  0  0  0  0  0  0
   -1.4521   -1.3265   -0.1556 N   0  0  0  0  0  0  0  0  0  0  0  0
   -2.1221   -1.0816   -0.8800 H   0  0  0  0  0  0  0  0  0  0  0  0
   -0.0955   -0.7338   -0.1903 C   0  0  1  0  0  0  0  0  0  0  0  0
    0.6324   -1.5311   -0.3849 H   0  0  0  0  0  0  0  0  0  0  0  0
   -0.0419    0.2659   -1.3773 C   0  0  0  0  0  0  0  0  0  0  0  0
   -0.0487   -0.3222   -2.3005 H   0  0  0  0  0  0  0  0  0  0  0  0
   -0.9622    0.8597   -1.3656 H   0  0  0  0  0  0  0  0  0  0  0  0
    1.1120    1.2589   -1.4364 C   0  0  0  0  0  0  0  0  0  0  0  0
    1.8339    1.5279   -2.6048 N   0  3  0  0  0  0  0  0  0  0  0  0
    1.6726    1.0308   -3.4843 H   0  0  0  0  0  0  0  0  0  0  0  0
    2.7640    2.4260   -2.3857 C   0  0  0  0  0  0  0  0  0  0  0  0
    3.4928    2.7989   -3.1079 H   0  0  0  0  0  0  0  0  0  0  0  0
    2.6564    2.8089   -1.0540 N   0  0  0  0  0  0  0  0  0  0  0  0
    3.2638    3.4767   -0.5690 H   0  0  0  0  0  0  0  0  0  0  0  0
    1.6198    2.0972   -0.4681 C   0  0  0  0  0  0  0  0  0  0  0  0
    1.2937    2.1785    0.5693 H   0  0  0  0  0  0  0  0  0  0  0  0
    0.3071   -0.1386    1.1782 C   0  0  0  0  0  0  0  0  0  0  0  0
    1.4860   -0.1286    1.5060 O   0  0  0  0  0  0  0  0  0  0  0  0
   -0.5908    0.6372    1.8906 N   0  0  0  0  0  0  0  0  0  0  0  0
   -1.5694    0.4755    1.6679 H   0  0  0  0  0  0  0  0  0  0  0  0
   -0.2812    1.1437    3.2259 C   0  0  0  0  0  0  0  0  0  0  0  0
    0.6183    1.7682    3.2078 H   0  0  0  0  0  0  0  0  0  0  0  0
   -1.1098    1.7504    3.6047 H   0  0  0  0  0  0  0  0  0  0  0  0
   -0.1142    0.3124    3.9202 H   0  0  0  0  0  0  0  0  0  0  0  0
  1  2  1  0  0  0  0
  2  3  1  0  0  0  0
  2  4  1  0  0  0  0
  2  5  1  0  0  0  0
  5  6  2  0  0  0  0
  5  7  1  0  0  0  0
  7  8  1  0  0  0  0
  7  9  1  0  0  0  0
  9 10  1  0  0  0  0
  9 11  1  0  0  0  0
  9 23  1  0  0  0  0
 11 12  1  0  0  0  0
 11 13  1  0  0  0  0
 11 14  1  0  0  0  0
 14 15  1  0  0  0  0
 14 21  2  0  0  0  0
 15 16  1  0  0  0  0
 15 17  2  0  0  0  0
 17 18  1  0  0  0  0
 17 19  1  0  0  0  0
 19 20  1  0  0  0  0
 19 21  1  0  0  0  0
 21 22  1  0  0  0  0
 23 24  2  0  0  0  0
 23 25  1  0  0  0  0
 25 26  1  0  0  0  0
 25 27  1  0  0  0  0
 27 28  1  0  0  0  0
 27 29  1  0  0  0  0
 27 30  1  0  0  0  0
M  CHG  1  15   1
M  END
$$$$

  -OEChem-04042216003D

 30 30  0     1  0  0  0  0  0999 V2000
   -3.3331   -3.7801    1.2564 H   0  0  0  0  0  0  0  0  0  0  0  0
   -3.2062   -2.9667    0.5357 C   0  0  0  0  0  0  0  0  0  0  0  0
   -3.9699   -2.2090    0.7255 H   0  0  0  0  0  0  0  0  0  0  0  0
   -3.3407   -3.3689   -0.4712 H   0  0  0  0  0  0  0  0  0  0  0  0
   -1.8228   -2.3614    0.6752 C   0  0  0  0  0  0  0  0  0  0  0  0
   -1.0492   -2.7956    1.5074 O   0  0  0  0  0  0  0  0  0  0  0  0
   -1.4304   -1.3218   -0.1513 N   0  0  0  0  0  0  0  0  0  0  0  0
   -2.0870   -1.0582   -0.8811 H   0  0  0  0  0  0  0  0  0  0  0  0
   -0.0673   -0.7423   -0.1531 C   0  0  1  0  0  0  0  0  0  0  0  0
    0.6605   -1.5425   -0.3368 H   0  0  0  0  0  0  0  0  0  0  0  0
    0.0047    0.2592   -1.3383 C   0  0  0  0  0  0  0  0  0  0  0  0
    0.0138   -0.3414   -2.2538 H   0  0  0  0  0  0  0  0  0  0  0  0
   -0.9211    0.8445   -1.3430 H   0  0  0  0  0  0  0  0  0  0  0  0
    1.1462    1.2689   -1.4219 C   0  0  0  0  0  0  0  0  0  0  0  0
    1.6265    1.7345   -2.6523 N   0  3  0  0  0  0  0  0  0  0  0  0
    1.2635    1.4044   -3.5501 H   0  0  0  0  0  0  0  0  0  0  0  0
    2.6098    2.5855   -2.4868 C   0  0  0  0  0  0  0  0  0  0  0  0
    3.1812    3.0835   -3.2727 H   0  0  0  0  0  0  0  0  0  0  0  0
    2.7949    2.7308   -1.1180 N   0  0  0  0  0  0  0  0  0  0  0  0
    3.5038    3.3162   -0.6651 H   0  0  0  0  0  0  0  0  0  0  0  0
    1.8813    1.9240   -0.4557 C   0  0  0  0  0  0  0  0  0  0  0  0
    1.7878    1.8457    0.6265 H   0  0  0  0  0  0  0  0  0  0  0  0
    0.3019   -0.1577    1.2282 C   0  0  0  0  0  0  0  0  0  0  0  0
    1.4584   -0.2279    1.6218 O   0  0  0  0  0  0  0  0  0  0  0  0
   -0.6033    0.6235    1.9242 N   0  0  0  0  0  0  0  0  0  0  0  0
   -1.5756    0.5088    1.6515 H   0  0  0  0  0  0  0  0  0  0  0  0
   -0.3339    1.0949    3.2806 C   0  0  0  0  0  0  0  0  0  0  0  0
    0.5788    1.6995    3.3081 H   0  0  0  0  0  0  0  0  0  0  0  0
   -1.1631    1.7119    3.6410 H   0  0  0  0  0  0  0  0  0  0  0  0
   -0.2109    0.2462    3.9629 H   0  0  0  0  0  0  0  0  0  0  0  0
  1  2  1  0  0  0  0
  2  3  1  0  0  0  0
  2  4  1  0  0  0  0
  2  5  1  0  0  0  0
  5  6  2  0  0  0  0
  5  7  1  0  0  0  0
  7  8  1  0  0  0  0
  7  9  1  0  0  0  0
  9 10  1  0  0  0  0
  9 11  1  0  0  0  0
  9 23  1  0  0  0  0
 11 12  1  0  0  0  0
 11 13  1  0  0  0  0
 11 14  1  0  0  0  0
 14 15  1  0  0  0  0
 14 21  2  0  0  0  0
 15 16  1  0  0  0  0
 15 17  2  0  0  0  0
 17 18  1  0  0  0  0
 17 19  1  0  0  0  0
 19 20  1  0  0  0  0
 19 21  1  0  0  0  0
 21 22  1  0  0  0  0
 23 24  2  0  0  0  0
 23 25  1  0  0  0  0
 25 26  1  0  0  0  0
 25 27  1  0  0  0  0
 27 28  1  0  0  0  0
 27 29  1  0  0  0  0
 27 30  1  0  0  0  0
M  CHG  1  15   1
M  END
$$$$

  -OEChem-04042216003D

 30 30  0     1  0  0  0  0  0999 V2000
   -3.3595   -3.7384    1.2613 H   0  0  0  0  0  0  0  0  0  0  0  0
   -3.2118   -2.9325    0.5361 C   0  0  0  0  0  0  0  0  0  0  0  0
   -3.9657   -2.1617    0.7118 H   0  0  0  0  0  0  0  0  0  0  0  0
   -3.3404   -3.3400   -0.4694 H   0  0  0  0  0  0  0  0  0  0  0  0
   -1.8213   -2.3468    0.6869 C   0  0  0  0  0  0  0  0  0  0  0  0
   -1.0638   -2.7885    1.5297 O   0  0  0  0  0  0  0  0  0  0  0  0
   -1.4045   -1.3222   -0.1468 N   0  0  0  0  0  0  0  0  0  0  0  0
   -2.0450   -1.0677   -0.8936 H   0  0  0  0  0  0  0  0  0  0  0  0
   -0.0349   -0.7566   -0.1368 C   0  0  1  0  0  0  0  0  0  0  0  0
    0.6949   -1.5558   -0.3162 H   0  0  0  0  0  0  0  0  0  0  0  0
    0.0319    0.2585   -1.3098 C   0  0  0  0  0  0  0  0  0  0  0  0
    0.0284   -0.3305   -2.2330 H   0  0  0  0  0  0  0  0  0  0  0  0
   -0.8934    0.8444   -1.2919 H   0  0  0  0  0  0  0  0  0  0  0  0
    1.1684    1.2726   -1.4082 C   0  0  0  0  0  0  0  0  0  0  0  0
    1.4084    1.9698   -2.5993 N   0  3  0  0  0  0  0  0  0  0  0  0
    0.8348    1.8486   -3.4379 H   0  0  0  0  0  0  0  0  0  0  0  0
    2.4504    2.7571   -2.4891 C   0  0  0  0  0  0  0  0  0  0  0  0
    2.8615    3.4081   -3.2634 H   0  0  0  0  0  0  0  0  0  0  0  0
    2.9408    2.6011   -1.1996 N   0  0  0  0  0  0  0  0  0  0  0  0
    3.7631    3.0707   -0.8072 H   0  0  0  0  0  0  0  0  0  0  0  0
    2.1543    1.6749   -0.5305 C   0  0  0  0  0  0  0  0  0  0  0  0
    2.3271    1.3465    0.4913 H   0  0  0  0  0  0  0  0  0  0  0  0
    0.3022   -0.1624    1.2507 C   0  0  0  0  0  0  0  0  0  0  0  0
    1.4228   -0.3116    1.7176 O   0  0  0  0  0  0  0  0  0  0  0  0
   -0.6130    0.6315    1.9188 N   0  0  0  0  0  0  0  0  0  0  0  0
   -1.5727    0.5624    1.5930 H   0  0  0  0  0  0  0  0  0  0  0  0
   -0.3948    1.0721    3.2942 C   0  0  0  0  0  0  0  0  0  0  0  0
    0.5311    1.6515    3.3744 H   0  0  0  0  0  0  0  0  0  0  0  0
   -1.2235    1.7046    3.6274 H   0  0  0  0  0  0  0  0  0  0  0  0
   -0.3253    0.2085    3.9651 H   0  0  0  0  0  0  0  0  0  0  0  0
  1  2  1  0  0  0  0
  2  3  1  0  0  0  0
  2  4  1  0  0  0  0
  2  5  1  0  0  0  0
  5  6  2  0  0  0  0
  5  7  1  0  0  0  0
  7  8  1  0  0  0  0
  7  9  1  0  0  0  0
  9 10  1  0  0  0  0
  9 11  1  0  0  0  0
  9 23  1  0  0  0  0
 11 12  1  0  0  0  0
 11 13  1  0  0  0  0
 11 14  1  0  0  0  0
 14 15  1  0  0  0  0
 14 21  2  0  0  0  0
 15 16  1  0  0  0  0
 15 17  2  0  0  0  0
 17 18  1  0  0  0  0
 17 19  1  0  0  0  0
 19 20  1  0  0  0  0
 19 21  1  0  0  0  0
 21 22  1  0  0  0  0
 23 24  2  0  0  0  0
 23 25  1  0  0  0  0
 25 26  1  0  0  0  0
 25 27  1  0  0  0  0
 27 28  1  0  0  0  0
 27 29  1  0  0  0  0
 27 30  1  0  0  0  0
M  CHG  1  15   1
M  END
$$$$
