@<TRIPOS>MOLECULE
Cc1ccccc1[NH+]2CCNCC2
   30    31     0     0     0
SMALL
NO_CHARGES

@<TRIPOS>ATOM
      1 C1          0.9205   -5.1093   -0.4790 C.ar      1 <0>            nan
      2 C2         -0.2842   -4.4964   -0.8237 C.ar      1 <0>            nan
      3 C3          2.0017   -4.3348   -0.0584 C.ar      1 <0>            nan
      4 C4         -0.4077   -3.1091   -0.7478 C.ar      1 <0>            nan
      5 C5          1.8782   -2.9475    0.0174 C.ar      1 <0>            nan
      6 C6          0.6735   -2.3347   -0.3272 C.ar      1 <0>            nan
      7 C7         -0.6577    1.1546   -1.0232 C.3       1 <0>            nan
      8 C8          0.3841    1.1494    1.1593 C.3       1 <0>            nan
      9 C9         -0.6303   -0.3688   -1.0895 C.3       1 <0>            nan
     10 C10         0.4508   -0.3743    1.1735 C.3       1 <0>            nan
     11 C11         3.0497   -2.1409    0.4733 C.3       1 <0>            nan
     12 N1         -0.7406    1.6332    0.3575 N.3       1 <0>            nan
     13 N2          0.5202   -0.8594   -0.2505 N.4       1 <0>            nan
     14 H1          1.0159   -6.1895   -0.5367 H         1 <0>            nan
     15 H2         -1.1262   -5.0996   -1.1506 H         1 <0>            nan
     16 H3          2.9361   -4.8219    0.2078 H         1 <0>            nan
     17 H4         -1.3509   -2.6423   -1.0186 H         1 <0>            nan
     18 H5         -1.5311    1.5190   -1.5749 H         1 <0>            nan
     19 H6          0.2273    1.5752   -1.5166 H         1 <0>            nan
     20 H7          1.3251    1.5696    0.7831 H         1 <0>            nan
     21 H8          0.2631    1.5091    2.1869 H         1 <0>            nan
     22 H9         -1.5551   -0.8059   -0.6925 H         1 <0>            nan
     23 H10        -0.4672   -0.7122   -2.1170 H         1 <0>            nan
     24 H11        -0.4388   -0.8124    1.6428 H         1 <0>            nan
     25 H12         1.3535   -0.7195    1.6898 H         1 <0>            nan
     26 H13         3.0265   -2.0196    1.5625 H         1 <0>            nan
     27 H14         3.9950   -2.6228    0.1952 H         1 <0>            nan
     28 H15         3.0500   -1.1462    0.0105 H         1 <0>            nan
     29 H16        -0.7430    2.6527    0.3610 H         1 <0>            nan
     30 H17         1.4084   -0.4741   -0.6745 H         1 <0>            nan
@<TRIPOS>BOND
     1    1    2 ar
     2    1    3 ar
     3    1   14 1
     4    2    4 ar
     5    2   15 1
     6    3    5 ar
     7    3   16 1
     8    4    6 ar
     9    4   17 1
    10    5    6 ar
    11    5   11 1
    12    6   13 1
    13    7    9 1
    14    7   12 1
    15    7   18 1
    16    7   19 1
    17    8   10 1
    18    8   12 1
    19    8   20 1
    20    8   21 1
    21    9   13 1
    22    9   22 1
    23    9   23 1
    24   10   13 1
    25   10   24 1
    26   10   25 1
    27   11   26 1
    28   11   27 1
    29   11   28 1
    30   12   29 1
    31   13   30 1
