default_name
  -OEChem-01062215323D

 25 24  0     1  0  0  0  0  0999 V2000
   -2.7826   -3.8464    0.7821 H   0  0  0  0  0  0  0  0  0  0  0  0
   -2.8156   -2.8034    0.4711 C   0  0  0  0  0  0  0  0  0  0  0  0
   -3.4336   -2.2354    1.1641 H   0  0  0  0  0  0  0  0  0  0  0  0
   -3.2256   -2.7344   -0.5349 H   0  0  0  0  0  0  0  0  0  0  0  0
   -1.4126   -2.2444    0.4801 C   0  0  0  0  0  0  0  0  0  0  0  0
   -0.4686   -2.9534    0.8001 O   0  0  0  0  0  0  0  0  0  0  0  0
   -1.2736   -0.9704    0.1241 N   0  0  0  0  0  0  0  0  0  0  0  0
   -2.0996   -0.4354   -0.1019 H   0  0  0  0  0  0  0  0  0  0  0  0
   -0.0016   -0.2394    0.1271 C   0  0  1  0  0  0  0  0  0  0  0  0
    0.3796   -0.2121    1.1503 H   0  0  0  0  0  0  0  0  0  0  0  0
    1.0158   -0.9802   -0.7630 C   0  0  0  0  0  0  0  0  0  0  0  0
    0.5641   -1.1897   -1.7335 H   0  0  0  0  0  0  0  0  0  0  0  0
    1.8880   -0.3469   -0.9291 H   0  0  0  0  0  0  0  0  0  0  0  0
    1.4689   -2.3169   -0.1837 C   0  0  0  0  0  0  0  0  0  0  0  0
    1.5285   -2.5940    1.0071 O   0  0  0  0  0  0  0  0  0  0  0  0
    1.8313   -3.2351   -1.0990 O   0  0  0  0  0  0  0  0  0  0  0  0
    2.0699   -4.0193   -0.6038 H   0  0  0  0  0  0  0  0  0  0  0  0
   -0.2236    1.2116   -0.3445 C   0  0  0  0  0  0  0  0  0  0  0  0
   -1.3520    1.5860   -0.6605 O   0  0  0  0  0  0  0  0  0  0  0  0
    0.8394    2.0217   -0.4014 N   0  0  0  0  0  0  0  0  0  0  0  0
    1.7456    1.6191   -0.1852 H   0  0  0  0  0  0  0  0  0  0  0  0
    0.7894    3.4207   -0.8207 C   0  0  0  0  0  0  0  0  0  0  0  0
    0.0226    3.9496   -0.2506 H   0  0  0  0  0  0  0  0  0  0  0  0
    1.7558    3.8976   -0.6522 H   0  0  0  0  0  0  0  0  0  0  0  0
    0.5380    3.4789   -1.8812 H   0  0  0  0  0  0  0  0  0  0  0  0
  5  6  2  0  0  0  0
  5  7  1  0  0  0  0
  2  3  1  0  0  0  0
  2  4  1  0  0  0  0
  2  5  1  0  0  0  0
  1  2  1  0  0  0  0
 18 19  2  0  0  0  0
 18 20  1  0  0  0  0
 16 17  1  0  0  0  0
 14 15  2  0  0  0  0
 14 16  1  0  0  0  0
 11 12  1  0  0  0  0
 11 13  1  0  0  0  0
 11 14  1  0  0  0  0
  9 10  1  0  0  0  0
  9 11  1  0  0  0  0
  9 18  1  0  0  0  0
  7  8  1  0  0  0  0
  7  9  1  0  0  0  0
 22 23  1  0  0  0  0
 22 24  1  0  0  0  0
 22 25  1  0  0  0  0
 20 21  1  0  0  0  0
 20 22  1  0  0  0  0
M  END
$$$$
default_name
  -OEChem-01062215323D

 25 24  0     1  0  0  0  0  0999 V2000
   -2.7826   -3.8464    0.7821 H   0  0  0  0  0  0  0  0  0  0  0  0
   -2.8156   -2.8034    0.4711 C   0  0  0  0  0  0  0  0  0  0  0  0
   -3.4336   -2.2354    1.1641 H   0  0  0  0  0  0  0  0  0  0  0  0
   -3.2256   -2.7344   -0.5349 H   0  0  0  0  0  0  0  0  0  0  0  0
   -1.4126   -2.2444    0.4801 C   0  0  0  0  0  0  0  0  0  0  0  0
   -0.4686   -2.9534    0.8001 O   0  0  0  0  0  0  0  0  0  0  0  0
   -1.2736   -0.9704    0.1241 N   0  0  0  0  0  0  0  0  0  0  0  0
   -2.0996   -0.4354   -0.1019 H   0  0  0  0  0  0  0  0  0  0  0  0
   -0.0016   -0.2394    0.1271 C   0  0  1  0  0  0  0  0  0  0  0  0
    0.3796   -0.2121    1.1503 H   0  0  0  0  0  0  0  0  0  0  0  0
    1.0158   -0.9802   -0.7630 C   0  0  0  0  0  0  0  0  0  0  0  0
    0.5641   -1.1897   -1.7335 H   0  0  0  0  0  0  0  0  0  0  0  0
    1.8880   -0.3469   -0.9291 H   0  0  0  0  0  0  0  0  0  0  0  0
    1.4689   -2.3169   -0.1837 C   0  0  0  0  0  0  0  0  0  0  0  0
    1.5285   -2.5940    1.0071 O   0  0  0  0  0  0  0  0  0  0  0  0
    1.8313   -3.2351   -1.0990 O   0  0  0  0  0  0  0  0  0  0  0  0
    2.0699   -4.0193   -0.6038 H   0  0  0  0  0  0  0  0  0  0  0  0
   -0.2236    1.2116   -0.3445 C   0  0  0  0  0  0  0  0  0  0  0  0
   -1.3639    1.6704   -0.3952 O   0  0  0  0  0  0  0  0  0  0  0  0
    0.8504    1.9280   -0.6951 N   0  0  0  0  0  0  0  0  0  0  0  0
    1.7493    1.4569   -0.6860 H   0  0  0  0  0  0  0  0  0  0  0  0
    0.8036    3.3142   -1.1552 C   0  0  0  0  0  0  0  0  0  0  0  0
    0.2415    3.9209   -0.4419 H   0  0  0  0  0  0  0  0  0  0  0  0
    1.8146    3.7128   -1.2482 H   0  0  0  0  0  0  0  0  0  0  0  0
    0.3050    3.3641   -2.1248 H   0  0  0  0  0  0  0  0  0  0  0  0
  5  6  2  0  0  0  0
  5  7  1  0  0  0  0
  2  3  1  0  0  0  0
  2  4  1  0  0  0  0
  2  5  1  0  0  0  0
  1  2  1  0  0  0  0
 18 19  2  0  0  0  0
 18 20  1  0  0  0  0
 16 17  1  0  0  0  0
 14 15  2  0  0  0  0
 14 16  1  0  0  0  0
 11 12  1  0  0  0  0
 11 13  1  0  0  0  0
 11 14  1  0  0  0  0
  9 10  1  0  0  0  0
  9 11  1  0  0  0  0
  9 18  1  0  0  0  0
  7  8  1  0  0  0  0
  7  9  1  0  0  0  0
 22 23  1  0  0  0  0
 22 24  1  0  0  0  0
 22 25  1  0  0  0  0
 20 21  1  0  0  0  0
 20 22  1  0  0  0  0
M  END
$$$$
default_name
  -OEChem-01062215323D

 25 24  0     1  0  0  0  0  0999 V2000
   -2.7826   -3.8464    0.7821 H   0  0  0  0  0  0  0  0  0  0  0  0
   -2.8156   -2.8034    0.4711 C   0  0  0  0  0  0  0  0  0  0  0  0
   -3.4336   -2.2354    1.1641 H   0  0  0  0  0  0  0  0  0  0  0  0
   -3.2256   -2.7344   -0.5349 H   0  0  0  0  0  0  0  0  0  0  0  0
   -1.4126   -2.2444    0.4801 C   0  0  0  0  0  0  0  0  0  0  0  0
   -0.4686   -2.9534    0.8001 O   0  0  0  0  0  0  0  0  0  0  0  0
   -1.2736   -0.9704    0.1241 N   0  0  0  0  0  0  0  0  0  0  0  0
   -2.0996   -0.4354   -0.1019 H   0  0  0  0  0  0  0  0  0  0  0  0
   -0.0016   -0.2394    0.1271 C   0  0  1  0  0  0  0  0  0  0  0  0
    0.3796   -0.2121    1.1503 H   0  0  0  0  0  0  0  0  0  0  0  0
    1.0158   -0.9802   -0.7630 C   0  0  0  0  0  0  0  0  0  0  0  0
    0.5641   -1.1897   -1.7335 H   0  0  0  0  0  0  0  0  0  0  0  0
    1.8880   -0.3469   -0.9291 H   0  0  0  0  0  0  0  0  0  0  0  0
    1.4689   -2.3169   -0.1837 C   0  0  0  0  0  0  0  0  0  0  0  0
    1.5285   -2.5940    1.0071 O   0  0  0  0  0  0  0  0  0  0  0  0
    1.8313   -3.2351   -1.0990 O   0  0  0  0  0  0  0  0  0  0  0  0
    2.0699   -4.0193   -0.6038 H   0  0  0  0  0  0  0  0  0  0  0  0
   -0.2236    1.2116   -0.3445 C   0  0  0  0  0  0  0  0  0  0  0  0
   -1.3041    1.7628   -0.1392 O   0  0  0  0  0  0  0  0  0  0  0  0
    0.7820    1.8256   -0.9780 N   0  0  0  0  0  0  0  0  0  0  0  0
    1.6180    1.2813   -1.1646 H   0  0  0  0  0  0  0  0  0  0  0  0
    0.7274    3.1977   -1.4778 C   0  0  0  0  0  0  0  0  0  0  0  0
    0.4041    3.8687   -0.6790 H   0  0  0  0  0  0  0  0  0  0  0  0
    1.7116    3.5075   -1.8314 H   0  0  0  0  0  0  0  0  0  0  0  0
    0.0115    3.2626   -2.2991 H   0  0  0  0  0  0  0  0  0  0  0  0
  5  6  2  0  0  0  0
  5  7  1  0  0  0  0
  2  3  1  0  0  0  0
  2  4  1  0  0  0  0
  2  5  1  0  0  0  0
  1  2  1  0  0  0  0
 18 19  2  0  0  0  0
 18 20  1  0  0  0  0
 16 17  1  0  0  0  0
 14 15  2  0  0  0  0
 14 16  1  0  0  0  0
 11 12  1  0  0  0  0
 11 13  1  0  0  0  0
 11 14  1  0  0  0  0
  9 10  1  0  0  0  0
  9 11  1  0  0  0  0
  9 18  1  0  0  0  0
  7  8  1  0  0  0  0
  7  9  1  0  0  0  0
 22 23  1  0  0  0  0
 22 24  1  0  0  0  0
 22 25  1  0  0  0  0
 20 21  1  0  0  0  0
 20 22  1  0  0  0  0
M  END
$$$$
default_name
  -OEChem-01062215323D

 25 24  0     1  0  0  0  0  0999 V2000
   -2.7826   -3.8464    0.7821 H   0  0  0  0  0  0  0  0  0  0  0  0
   -2.8156   -2.8034    0.4711 C   0  0  0  0  0  0  0  0  0  0  0  0
   -3.4336   -2.2354    1.1641 H   0  0  0  0  0  0  0  0  0  0  0  0
   -3.2256   -2.7344   -0.5349 H   0  0  0  0  0  0  0  0  0  0  0  0
   -1.4126   -2.2444    0.4801 C   0  0  0  0  0  0  0  0  0  0  0  0
   -0.4686   -2.9534    0.8001 O   0  0  0  0  0  0  0  0  0  0  0  0
   -1.2736   -0.9704    0.1241 N   0  0  0  0  0  0  0  0  0  0  0  0
   -2.0996   -0.4354   -0.1019 H   0  0  0  0  0  0  0  0  0  0  0  0
   -0.0016   -0.2394    0.1271 C   0  0  1  0  0  0  0  0  0  0  0  0
    0.3796   -0.2121    1.1503 H   0  0  0  0  0  0  0  0  0  0  0  0
    1.0158   -0.9802   -0.7630 C   0  0  0  0  0  0  0  0  0  0  0  0
    0.5641   -1.1897   -1.7335 H   0  0  0  0  0  0  0  0  0  0  0  0
    1.8880   -0.3469   -0.9291 H   0  0  0  0  0  0  0  0  0  0  0  0
    1.4689   -2.3169   -0.1837 C   0  0  0  0  0  0  0  0  0  0  0  0
    1.5285   -2.5940    1.0071 O   0  0  0  0  0  0  0  0  0  0  0  0
    1.8313   -3.2351   -1.0990 O   0  0  0  0  0  0  0  0  0  0  0  0
    2.0699   -4.0193   -0.6038 H   0  0  0  0  0  0  0  0  0  0  0  0
   -0.2236    1.2116   -0.3445 C   0  0  0  0  0  0  0  0  0  0  0  0
   -1.1766    1.8568    0.0901 O   0  0  0  0  0  0  0  0  0  0  0  0
    0.6390    1.7216   -1.2308 N   0  0  0  0  0  0  0  0  0  0  0  0
    1.3608    1.1043   -1.5884 H   0  0  0  0  0  0  0  0  0  0  0  0
    0.5659    3.0792   -1.7665 C   0  0  0  0  0  0  0  0  0  0  0  0
    0.4992    3.7966   -0.9456 H   0  0  0  0  0  0  0  0  0  0  0  0
    1.4537    3.2957   -2.3620 H   0  0  0  0  0  0  0  0  0  0  0  0
   -0.3225    3.1812   -2.3921 H   0  0  0  0  0  0  0  0  0  0  0  0
  5  6  2  0  0  0  0
  5  7  1  0  0  0  0
  2  3  1  0  0  0  0
  2  4  1  0  0  0  0
  2  5  1  0  0  0  0
  1  2  1  0  0  0  0
 18 19  2  0  0  0  0
 18 20  1  0  0  0  0
 16 17  1  0  0  0  0
 14 15  2  0  0  0  0
 14 16  1  0  0  0  0
 11 12  1  0  0  0  0
 11 13  1  0  0  0  0
 11 14  1  0  0  0  0
  9 10  1  0  0  0  0
  9 11  1  0  0  0  0
  9 18  1  0  0  0  0
  7  8  1  0  0  0  0
  7  9  1  0  0  0  0
 22 23  1  0  0  0  0
 22 24  1  0  0  0  0
 22 25  1  0  0  0  0
 20 21  1  0  0  0  0
 20 22  1  0  0  0  0
M  END
$$$$
default_name
  -OEChem-01062215323D

 25 24  0     1  0  0  0  0  0999 V2000
   -2.7826   -3.8464    0.7821 H   0  0  0  0  0  0  0  0  0  0  0  0
   -2.8156   -2.8034    0.4711 C   0  0  0  0  0  0  0  0  0  0  0  0
   -3.4336   -2.2354    1.1641 H   0  0  0  0  0  0  0  0  0  0  0  0
   -3.2256   -2.7344   -0.5349 H   0  0  0  0  0  0  0  0  0  0  0  0
   -1.4126   -2.2444    0.4801 C   0  0  0  0  0  0  0  0  0  0  0  0
   -0.4686   -2.9534    0.8001 O   0  0  0  0  0  0  0  0  0  0  0  0
   -1.2736   -0.9704    0.1241 N   0  0  0  0  0  0  0  0  0  0  0  0
   -2.0996   -0.4354   -0.1019 H   0  0  0  0  0  0  0  0  0  0  0  0
   -0.0016   -0.2394    0.1271 C   0  0  1  0  0  0  0  0  0  0  0  0
    0.3796   -0.2121    1.1503 H   0  0  0  0  0  0  0  0  0  0  0  0
    1.0158   -0.9802   -0.7630 C   0  0  0  0  0  0  0  0  0  0  0  0
    0.5641   -1.1897   -1.7335 H   0  0  0  0  0  0  0  0  0  0  0  0
    1.8880   -0.3469   -0.9291 H   0  0  0  0  0  0  0  0  0  0  0  0
    1.4689   -2.3169   -0.1837 C   0  0  0  0  0  0  0  0  0  0  0  0
    1.5285   -2.5940    1.0071 O   0  0  0  0  0  0  0  0  0  0  0  0
    1.8313   -3.2351   -1.0990 O   0  0  0  0  0  0  0  0  0  0  0  0
    2.0699   -4.0193   -0.6038 H   0  0  0  0  0  0  0  0  0  0  0  0
   -0.2236    1.2116   -0.3445 C   0  0  0  0  0  0  0  0  0  0  0  0
   -0.9902    1.9460    0.2771 O   0  0  0  0  0  0  0  0  0  0  0  0
    0.4310    1.6230   -1.4362 N   0  0  0  0  0  0  0  0  0  0  0  0
    0.9951    0.9378   -1.9284 H   0  0  0  0  0  0  0  0  0  0  0  0
    0.3303    2.9668   -2.0016 C   0  0  0  0  0  0  0  0  0  0  0  0
    0.5205    3.7095   -1.2237 H   0  0  0  0  0  0  0  0  0  0  0  0
    1.0586    3.0917   -2.8038 H   0  0  0  0  0  0  0  0  0  0  0  0
   -0.6742    3.1257   -2.3977 H   0  0  0  0  0  0  0  0  0  0  0  0
  5  6  2  0  0  0  0
  5  7  1  0  0  0  0
  2  3  1  0  0  0  0
  2  4  1  0  0  0  0
  2  5  1  0  0  0  0
  1  2  1  0  0  0  0
 18 19  2  0  0  0  0
 18 20  1  0  0  0  0
 16 17  1  0  0  0  0
 14 15  2  0  0  0  0
 14 16  1  0  0  0  0
 11 12  1  0  0  0  0
 11 13  1  0  0  0  0
 11 14  1  0  0  0  0
  9 10  1  0  0  0  0
  9 11  1  0  0  0  0
  9 18  1  0  0  0  0
  7  8  1  0  0  0  0
  7  9  1  0  0  0  0
 22 23  1  0  0  0  0
 22 24  1  0  0  0  0
 22 25  1  0  0  0  0
 20 21  1  0  0  0  0
 20 22  1  0  0  0  0
M  END
$$$$
default_name
  -OEChem-01062215323D

 25 24  0     1  0  0  0  0  0999 V2000
   -2.7826   -3.8464    0.7821 H   0  0  0  0  0  0  0  0  0  0  0  0
   -2.8156   -2.8034    0.4711 C   0  0  0  0  0  0  0  0  0  0  0  0
   -3.4336   -2.2354    1.1641 H   0  0  0  0  0  0  0  0  0  0  0  0
   -3.2256   -2.7344   -0.5349 H   0  0  0  0  0  0  0  0  0  0  0  0
   -1.4126   -2.2444    0.4801 C   0  0  0  0  0  0  0  0  0  0  0  0
   -0.4686   -2.9534    0.8001 O   0  0  0  0  0  0  0  0  0  0  0  0
   -1.2736   -0.9704    0.1241 N   0  0  0  0  0  0  0  0  0  0  0  0
   -2.0996   -0.4354   -0.1019 H   0  0  0  0  0  0  0  0  0  0  0  0
   -0.0016   -0.2394    0.1271 C   0  0  1  0  0  0  0  0  0  0  0  0
    0.3796   -0.2121    1.1503 H   0  0  0  0  0  0  0  0  0  0  0  0
    1.0158   -0.9802   -0.7630 C   0  0  0  0  0  0  0  0  0  0  0  0
    0.5641   -1.1897   -1.7335 H   0  0  0  0  0  0  0  0  0  0  0  0
    1.8880   -0.3469   -0.9291 H   0  0  0  0  0  0  0  0  0  0  0  0
    1.4689   -2.3169   -0.1837 C   0  0  0  0  0  0  0  0  0  0  0  0
    1.5285   -2.5940    1.0071 O   0  0  0  0  0  0  0  0  0  0  0  0
    1.8313   -3.2351   -1.0990 O   0  0  0  0  0  0  0  0  0  0  0  0
    2.0699   -4.0193   -0.6038 H   0  0  0  0  0  0  0  0  0  0  0  0
   -0.2236    1.2116   -0.3445 C   0  0  0  0  0  0  0  0  0  0  0  0
   -0.7575    2.0245    0.4089 O   0  0  0  0  0  0  0  0  0  0  0  0
    0.1723    1.5366   -1.5803 N   0  0  0  0  0  0  0  0  0  0  0  0
    0.5458    0.7933   -2.1616 H   0  0  0  0  0  0  0  0  0  0  0  0
    0.0366    2.8680   -2.1671 C   0  0  0  0  0  0  0  0  0  0  0  0
    0.4664    3.6133   -1.4942 H   0  0  0  0  0  0  0  0  0  0  0  0
    0.5533    2.9094   -3.1268 H   0  0  0  0  0  0  0  0  0  0  0  0
   -1.0197    3.0996   -2.3152 H   0  0  0  0  0  0  0  0  0  0  0  0
  5  6  2  0  0  0  0
  5  7  1  0  0  0  0
  2  3  1  0  0  0  0
  2  4  1  0  0  0  0
  2  5  1  0  0  0  0
  1  2  1  0  0  0  0
 18 19  2  0  0  0  0
 18 20  1  0  0  0  0
 16 17  1  0  0  0  0
 14 15  2  0  0  0  0
 14 16  1  0  0  0  0
 11 12  1  0  0  0  0
 11 13  1  0  0  0  0
 11 14  1  0  0  0  0
  9 10  1  0  0  0  0
  9 11  1  0  0  0  0
  9 18  1  0  0  0  0
  7  8  1  0  0  0  0
  7  9  1  0  0  0  0
 22 23  1  0  0  0  0
 22 24  1  0  0  0  0
 22 25  1  0  0  0  0
 20 21  1  0  0  0  0
 20 22  1  0  0  0  0
M  END
$$$$
default_name
  -OEChem-01062215323D

 25 24  0     1  0  0  0  0  0999 V2000
   -2.7826   -3.8464    0.7821 H   0  0  0  0  0  0  0  0  0  0  0  0
   -2.8156   -2.8034    0.4711 C   0  0  0  0  0  0  0  0  0  0  0  0
   -3.4336   -2.2354    1.1641 H   0  0  0  0  0  0  0  0  0  0  0  0
   -3.2256   -2.7344   -0.5349 H   0  0  0  0  0  0  0  0  0  0  0  0
   -1.4126   -2.2444    0.4801 C   0  0  0  0  0  0  0  0  0  0  0  0
   -0.4686   -2.9534    0.8001 O   0  0  0  0  0  0  0  0  0  0  0  0
   -1.2736   -0.9704    0.1241 N   0  0  0  0  0  0  0  0  0  0  0  0
   -2.0996   -0.4354   -0.1019 H   0  0  0  0  0  0  0  0  0  0  0  0
   -0.0016   -0.2394    0.1271 C   0  0  1  0  0  0  0  0  0  0  0  0
    0.3796   -0.2121    1.1503 H   0  0  0  0  0  0  0  0  0  0  0  0
    1.0158   -0.9802   -0.7630 C   0  0  0  0  0  0  0  0  0  0  0  0
    0.5641   -1.1897   -1.7335 H   0  0  0  0  0  0  0  0  0  0  0  0
    1.8880   -0.3469   -0.9291 H   0  0  0  0  0  0  0  0  0  0  0  0
    1.4689   -2.3169   -0.1837 C   0  0  0  0  0  0  0  0  0  0  0  0
    1.5285   -2.5940    1.0071 O   0  0  0  0  0  0  0  0  0  0  0  0
    1.8313   -3.2351   -1.0990 O   0  0  0  0  0  0  0  0  0  0  0  0
    2.0699   -4.0193   -0.6038 H   0  0  0  0  0  0  0  0  0  0  0  0
   -0.2236    1.2116   -0.3445 C   0  0  0  0  0  0  0  0  0  0  0  0
   -0.4945    2.0867    0.4766 O   0  0  0  0  0  0  0  0  0  0  0  0
   -0.1196    1.4682   -1.6533 N   0  0  0  0  0  0  0  0  0  0  0  0
    0.0436    0.6806   -2.2721 H   0  0  0  0  0  0  0  0  0  0  0  0
   -0.2953    2.7898   -2.2517 C   0  0  0  0  0  0  0  0  0  0  0  0
    0.3406    3.5146   -1.7388 H   0  0  0  0  0  0  0  0  0  0  0  0
   -0.0280    2.7614   -3.3088 H   0  0  0  0  0  0  0  0  0  0  0  0
   -1.3353    3.1049   -2.1505 H   0  0  0  0  0  0  0  0  0  0  0  0
  5  6  2  0  0  0  0
  5  7  1  0  0  0  0
  2  3  1  0  0  0  0
  2  4  1  0  0  0  0
  2  5  1  0  0  0  0
  1  2  1  0  0  0  0
 18 19  2  0  0  0  0
 18 20  1  0  0  0  0
 16 17  1  0  0  0  0
 14 15  2  0  0  0  0
 14 16  1  0  0  0  0
 11 12  1  0  0  0  0
 11 13  1  0  0  0  0
 11 14  1  0  0  0  0
  9 10  1  0  0  0  0
  9 11  1  0  0  0  0
  9 18  1  0  0  0  0
  7  8  1  0  0  0  0
  7  9  1  0  0  0  0
 22 23  1  0  0  0  0
 22 24  1  0  0  0  0
 22 25  1  0  0  0  0
 20 21  1  0  0  0  0
 20 22  1  0  0  0  0
M  END
$$$$
default_name
  -OEChem-01062215323D

 25 24  0     1  0  0  0  0  0999 V2000
   -2.7826   -3.8464    0.7821 H   0  0  0  0  0  0  0  0  0  0  0  0
   -2.8156   -2.8034    0.4711 C   0  0  0  0  0  0  0  0  0  0  0  0
   -3.4336   -2.2354    1.1641 H   0  0  0  0  0  0  0  0  0  0  0  0
   -3.2256   -2.7344   -0.5349 H   0  0  0  0  0  0  0  0  0  0  0  0
   -1.4126   -2.2444    0.4801 C   0  0  0  0  0  0  0  0  0  0  0  0
   -0.4686   -2.9534    0.8001 O   0  0  0  0  0  0  0  0  0  0  0  0
   -1.2736   -0.9704    0.1241 N   0  0  0  0  0  0  0  0  0  0  0  0
   -2.0996   -0.4354   -0.1019 H   0  0  0  0  0  0  0  0  0  0  0  0
   -0.0016   -0.2394    0.1271 C   0  0  1  0  0  0  0  0  0  0  0  0
    0.3796   -0.2121    1.1503 H   0  0  0  0  0  0  0  0  0  0  0  0
    1.0158   -0.9802   -0.7630 C   0  0  0  0  0  0  0  0  0  0  0  0
    0.5641   -1.1897   -1.7335 H   0  0  0  0  0  0  0  0  0  0  0  0
    1.8880   -0.3469   -0.9291 H   0  0  0  0  0  0  0  0  0  0  0  0
    1.4689   -2.3169   -0.1837 C   0  0  0  0  0  0  0  0  0  0  0  0
    1.5285   -2.5940    1.0071 O   0  0  0  0  0  0  0  0  0  0  0  0
    1.8313   -3.2351   -1.0990 O   0  0  0  0  0  0  0  0  0  0  0  0
    2.0699   -4.0193   -0.6038 H   0  0  0  0  0  0  0  0  0  0  0  0
   -0.2236    1.2116   -0.3445 C   0  0  0  0  0  0  0  0  0  0  0  0
   -0.2190    2.1285    0.4757 O   0  0  0  0  0  0  0  0  0  0  0  0
   -0.4247    1.4226   -1.6501 N   0  0  0  0  0  0  0  0  0  0  0  0
   -0.4773    0.6074   -2.2522 H   0  0  0  0  0  0  0  0  0  0  0  0
   -0.6427    2.7373   -2.2497 C   0  0  0  0  0  0  0  0  0  0  0  0
    0.1517    3.4201   -1.9406 H   0  0  0  0  0  0  0  0  0  0  0  0
   -0.6455    2.6576   -3.3375 H   0  0  0  0  0  0  0  0  0  0  0  0
   -1.5997    3.1411   -1.9147 H   0  0  0  0  0  0  0  0  0  0  0  0
  5  6  2  0  0  0  0
  5  7  1  0  0  0  0
  2  3  1  0  0  0  0
  2  4  1  0  0  0  0
  2  5  1  0  0  0  0
  1  2  1  0  0  0  0
 18 19  2  0  0  0  0
 18 20  1  0  0  0  0
 16 17  1  0  0  0  0
 14 15  2  0  0  0  0
 14 16  1  0  0  0  0
 11 12  1  0  0  0  0
 11 13  1  0  0  0  0
 11 14  1  0  0  0  0
  9 10  1  0  0  0  0
  9 11  1  0  0  0  0
  9 18  1  0  0  0  0
  7  8  1  0  0  0  0
  7  9  1  0  0  0  0
 22 23  1  0  0  0  0
 22 24  1  0  0  0  0
 22 25  1  0  0  0  0
 20 21  1  0  0  0  0
 20 22  1  0  0  0  0
M  END
$$$$
default_name
  -OEChem-01062215323D

 25 24  0     1  0  0  0  0  0999 V2000
   -2.7826   -3.8464    0.7821 H   0  0  0  0  0  0  0  0  0  0  0  0
   -2.8156   -2.8034    0.4711 C   0  0  0  0  0  0  0  0  0  0  0  0
   -3.4336   -2.2354    1.1641 H   0  0  0  0  0  0  0  0  0  0  0  0
   -3.2256   -2.7344   -0.5349 H   0  0  0  0  0  0  0  0  0  0  0  0
   -1.4126   -2.2444    0.4801 C   0  0  0  0  0  0  0  0  0  0  0  0
   -0.4686   -2.9534    0.8001 O   0  0  0  0  0  0  0  0  0  0  0  0
   -1.2736   -0.9704    0.1241 N   0  0  0  0  0  0  0  0  0  0  0  0
   -2.0996   -0.4354   -0.1019 H   0  0  0  0  0  0  0  0  0  0  0  0
   -0.0016   -0.2394    0.1271 C   0  0  1  0  0  0  0  0  0  0  0  0
    0.3796   -0.2121    1.1503 H   0  0  0  0  0  0  0  0  0  0  0  0
    1.0158   -0.9802   -0.7630 C   0  0  0  0  0  0  0  0  0  0  0  0
    0.5641   -1.1897   -1.7335 H   0  0  0  0  0  0  0  0  0  0  0  0
    1.8880   -0.3469   -0.9291 H   0  0  0  0  0  0  0  0  0  0  0  0
    1.4689   -2.3169   -0.1837 C   0  0  0  0  0  0  0  0  0  0  0  0
    1.5285   -2.5940    1.0071 O   0  0  0  0  0  0  0  0  0  0  0  0
    1.8313   -3.2351   -1.0990 O   0  0  0  0  0  0  0  0  0  0  0  0
    2.0699   -4.0193   -0.6038 H   0  0  0  0  0  0  0  0  0  0  0  0
   -0.2236    1.2116   -0.3445 C   0  0  0  0  0  0  0  0  0  0  0  0
    0.0503    2.1471    0.4061 O   0  0  0  0  0  0  0  0  0  0  0  0
   -0.7222    1.4028   -1.5710 N   0  0  0  0  0  0  0  0  0  0  0  0
   -0.9814    0.5787   -2.1034 H   0  0  0  0  0  0  0  0  0  0  0  0
   -0.9819    2.7142   -2.1612 C   0  0  0  0  0  0  0  0  0  0  0  0
   -0.0873    3.3363   -2.0861 H   0  0  0  0  0  0  0  0  0  0  0  0
   -1.2571    2.6052   -3.2110 H   0  0  0  0  0  0  0  0  0  0  0  0
   -1.7948    3.2058   -1.6238 H   0  0  0  0  0  0  0  0  0  0  0  0
  5  6  2  0  0  0  0
  5  7  1  0  0  0  0
  2  3  1  0  0  0  0
  2  4  1  0  0  0  0
  2  5  1  0  0  0  0
  1  2  1  0  0  0  0
 18 19  2  0  0  0  0
 18 20  1  0  0  0  0
 16 17  1  0  0  0  0
 14 15  2  0  0  0  0
 14 16  1  0  0  0  0
 11 12  1  0  0  0  0
 11 13  1  0  0  0  0
 11 14  1  0  0  0  0
  9 10  1  0  0  0  0
  9 11  1  0  0  0  0
  9 18  1  0  0  0  0
  7  8  1  0  0  0  0
  7  9  1  0  0  0  0
 22 23  1  0  0  0  0
 22 24  1  0  0  0  0
 22 25  1  0  0  0  0
 20 21  1  0  0  0  0
 20 22  1  0  0  0  0
M  END
$$$$
default_name
  -OEChem-01062215323D

 25 24  0     1  0  0  0  0  0999 V2000
   -2.7826   -3.8464    0.7821 H   0  0  0  0  0  0  0  0  0  0  0  0
   -2.8156   -2.8034    0.4711 C   0  0  0  0  0  0  0  0  0  0  0  0
   -3.4336   -2.2354    1.1641 H   0  0  0  0  0  0  0  0  0  0  0  0
   -3.2256   -2.7344   -0.5349 H   0  0  0  0  0  0  0  0  0  0  0  0
   -1.4126   -2.2444    0.4801 C   0  0  0  0  0  0  0  0  0  0  0  0
   -0.4686   -2.9534    0.8001 O   0  0  0  0  0  0  0  0  0  0  0  0
   -1.2736   -0.9704    0.1241 N   0  0  0  0  0  0  0  0  0  0  0  0
   -2.0996   -0.4354   -0.1019 H   0  0  0  0  0  0  0  0  0  0  0  0
   -0.0016   -0.2394    0.1271 C   0  0  1  0  0  0  0  0  0  0  0  0
    0.3796   -0.2121    1.1503 H   0  0  0  0  0  0  0  0  0  0  0  0
    1.0158   -0.9802   -0.7630 C   0  0  0  0  0  0  0  0  0  0  0  0
    0.5641   -1.1897   -1.7335 H   0  0  0  0  0  0  0  0  0  0  0  0
    1.8880   -0.3469   -0.9291 H   0  0  0  0  0  0  0  0  0  0  0  0
    1.4689   -2.3169   -0.1837 C   0  0  0  0  0  0  0  0  0  0  0  0
    1.5285   -2.5940    1.0071 O   0  0  0  0  0  0  0  0  0  0  0  0
    1.8313   -3.2351   -1.0990 O   0  0  0  0  0  0  0  0  0  0  0  0
    2.0699   -4.0193   -0.6038 H   0  0  0  0  0  0  0  0  0  0  0  0
   -0.2236    1.2116   -0.3445 C   0  0  0  0  0  0  0  0  0  0  0  0
    0.2948    2.1411    0.2726 O   0  0  0  0  0  0  0  0  0  0  0  0
   -0.9919    1.4102   -1.4214 N   0  0  0  0  0  0  0  0  0  0  0  0
   -1.4344    0.5964   -1.8358 H   0  0  0  0  0  0  0  0  0  0  0  0
   -1.2898    2.7220   -1.9922 C   0  0  0  0  0  0  0  0  0  0  0  0
   -0.3603    3.2688   -2.1653 H   0  0  0  0  0  0  0  0  0  0  0  0
   -1.8213    2.6077   -2.9378 H   0  0  0  0  0  0  0  0  0  0  0  0
   -1.9072    3.2945   -1.2978 H   0  0  0  0  0  0  0  0  0  0  0  0
  5  6  2  0  0  0  0
  5  7  1  0  0  0  0
  2  3  1  0  0  0  0
  2  4  1  0  0  0  0
  2  5  1  0  0  0  0
  1  2  1  0  0  0  0
 18 19  2  0  0  0  0
 18 20  1  0  0  0  0
 16 17  1  0  0  0  0
 14 15  2  0  0  0  0
 14 16  1  0  0  0  0
 11 12  1  0  0  0  0
 11 13  1  0  0  0  0
 11 14  1  0  0  0  0
  9 10  1  0  0  0  0
  9 11  1  0  0  0  0
  9 18  1  0  0  0  0
  7  8  1  0  0  0  0
  7  9  1  0  0  0  0
 22 23  1  0  0  0  0
 22 24  1  0  0  0  0
 22 25  1  0  0  0  0
 20 21  1  0  0  0  0
 20 22  1  0  0  0  0
M  END
$$$$
default_name
  -OEChem-01062215323D

 25 24  0     1  0  0  0  0  0999 V2000
   -2.7826   -3.8464    0.7821 H   0  0  0  0  0  0  0  0  0  0  0  0
   -2.8156   -2.8034    0.4711 C   0  0  0  0  0  0  0  0  0  0  0  0
   -3.4336   -2.2354    1.1641 H   0  0  0  0  0  0  0  0  0  0  0  0
   -3.2256   -2.7344   -0.5349 H   0  0  0  0  0  0  0  0  0  0  0  0
   -1.4126   -2.2444    0.4801 C   0  0  0  0  0  0  0  0  0  0  0  0
   -0.4686   -2.9534    0.8001 O   0  0  0  0  0  0  0  0  0  0  0  0
   -1.2736   -0.9704    0.1241 N   0  0  0  0  0  0  0  0  0  0  0  0
   -2.0996   -0.4354   -0.1019 H   0  0  0  0  0  0  0  0  0  0  0  0
   -0.0016   -0.2394    0.1271 C   0  0  1  0  0  0  0  0  0  0  0  0
    0.3796   -0.2121    1.1503 H   0  0  0  0  0  0  0  0  0  0  0  0
    1.0158   -0.9802   -0.7630 C   0  0  0  0  0  0  0  0  0  0  0  0
    0.5641   -1.1897   -1.7335 H   0  0  0  0  0  0  0  0  0  0  0  0
    1.8880   -0.3469   -0.9291 H   0  0  0  0  0  0  0  0  0  0  0  0
    1.4689   -2.3169   -0.1837 C   0  0  0  0  0  0  0  0  0  0  0  0
    1.5285   -2.5940    1.0071 O   0  0  0  0  0  0  0  0  0  0  0  0
    1.8313   -3.2351   -1.0990 O   0  0  0  0  0  0  0  0  0  0  0  0
    2.0699   -4.0193   -0.6038 H   0  0  0  0  0  0  0  0  0  0  0  0
   -0.2236    1.2116   -0.3445 C   0  0  0  0  0  0  0  0  0  0  0  0
    0.4980    2.1110    0.0843 O   0  0  0  0  0  0  0  0  0  0  0  0
   -1.2154    1.4442   -1.2115 N   0  0  0  0  0  0  0  0  0  0  0  0
   -1.8054    0.6593   -1.4677 H   0  0  0  0  0  0  0  0  0  0  0  0
   -1.5455    2.7602   -1.7543 C   0  0  0  0  0  0  0  0  0  0  0  0
   -0.6487    3.2223   -2.1728 H   0  0  0  0  0  0  0  0  0  0  0  0
   -2.2995    2.6649   -2.5366 H   0  0  0  0  0  0  0  0  0  0  0  0
   -1.9294    3.4013   -0.9588 H   0  0  0  0  0  0  0  0  0  0  0  0
  5  6  2  0  0  0  0
  5  7  1  0  0  0  0
  2  3  1  0  0  0  0
  2  4  1  0  0  0  0
  2  5  1  0  0  0  0
  1  2  1  0  0  0  0
 18 19  2  0  0  0  0
 18 20  1  0  0  0  0
 16 17  1  0  0  0  0
 14 15  2  0  0  0  0
 14 16  1  0  0  0  0
 11 12  1  0  0  0  0
 11 13  1  0  0  0  0
 11 14  1  0  0  0  0
  9 10  1  0  0  0  0
  9 11  1  0  0  0  0
  9 18  1  0  0  0  0
  7  8  1  0  0  0  0
  7  9  1  0  0  0  0
 22 23  1  0  0  0  0
 22 24  1  0  0  0  0
 22 25  1  0  0  0  0
 20 21  1  0  0  0  0
 20 22  1  0  0  0  0
M  END
$$$$
default_name
  -OEChem-01062215323D

 25 24  0     1  0  0  0  0  0999 V2000
   -2.7826   -3.8464    0.7821 H   0  0  0  0  0  0  0  0  0  0  0  0
   -2.8156   -2.8034    0.4711 C   0  0  0  0  0  0  0  0  0  0  0  0
   -3.4336   -2.2354    1.1641 H   0  0  0  0  0  0  0  0  0  0  0  0
   -3.2256   -2.7344   -0.5349 H   0  0  0  0  0  0  0  0  0  0  0  0
   -1.4126   -2.2444    0.4801 C   0  0  0  0  0  0  0  0  0  0  0  0
   -0.4686   -2.9534    0.8001 O   0  0  0  0  0  0  0  0  0  0  0  0
   -1.2736   -0.9704    0.1241 N   0  0  0  0  0  0  0  0  0  0  0  0
   -2.0996   -0.4354   -0.1019 H   0  0  0  0  0  0  0  0  0  0  0  0
   -0.0016   -0.2394    0.1271 C   0  0  1  0  0  0  0  0  0  0  0  0
    0.3796   -0.2121    1.1503 H   0  0  0  0  0  0  0  0  0  0  0  0
    1.0158   -0.9802   -0.7630 C   0  0  0  0  0  0  0  0  0  0  0  0
    0.5641   -1.1897   -1.7335 H   0  0  0  0  0  0  0  0  0  0  0  0
    1.8880   -0.3469   -0.9291 H   0  0  0  0  0  0  0  0  0  0  0  0
    1.4689   -2.3169   -0.1837 C   0  0  0  0  0  0  0  0  0  0  0  0
    1.5285   -2.5940    1.0071 O   0  0  0  0  0  0  0  0  0  0  0  0
    1.8313   -3.2351   -1.0990 O   0  0  0  0  0  0  0  0  0  0  0  0
    2.0699   -4.0193   -0.6038 H   0  0  0  0  0  0  0  0  0  0  0  0
   -0.2236    1.2116   -0.3445 C   0  0  0  0  0  0  0  0  0  0  0  0
    0.6461    2.0588   -0.1460 O   0  0  0  0  0  0  0  0  0  0  0  0
   -1.3775    1.5026   -0.9555 N   0  0  0  0  0  0  0  0  0  0  0  0
   -2.0691    0.7631   -1.0241 H   0  0  0  0  0  0  0  0  0  0  0  0
   -1.7314    2.8263   -1.4636 C   0  0  0  0  0  0  0  0  0  0  0  0
   -0.9327    3.1999   -2.1080 H   0  0  0  0  0  0  0  0  0  0  0  0
   -2.6591    2.7730   -2.0348 H   0  0  0  0  0  0  0  0  0  0  0  0
   -1.8598    3.5188   -0.6299 H   0  0  0  0  0  0  0  0  0  0  0  0
  5  6  2  0  0  0  0
  5  7  1  0  0  0  0
  2  3  1  0  0  0  0
  2  4  1  0  0  0  0
  2  5  1  0  0  0  0
  1  2  1  0  0  0  0
 18 19  2  0  0  0  0
 18 20  1  0  0  0  0
 16 17  1  0  0  0  0
 14 15  2  0  0  0  0
 14 16  1  0  0  0  0
 11 12  1  0  0  0  0
 11 13  1  0  0  0  0
 11 14  1  0  0  0  0
  9 10  1  0  0  0  0
  9 11  1  0  0  0  0
  9 18  1  0  0  0  0
  7  8  1  0  0  0  0
  7  9  1  0  0  0  0
 22 23  1  0  0  0  0
 22 24  1  0  0  0  0
 22 25  1  0  0  0  0
 20 21  1  0  0  0  0
 20 22  1  0  0  0  0
M  END
$$$$
default_name
  -OEChem-01062215323D

 25 24  0     1  0  0  0  0  0999 V2000
   -2.7826   -3.8464    0.7821 H   0  0  0  0  0  0  0  0  0  0  0  0
   -2.8156   -2.8034    0.4711 C   0  0  0  0  0  0  0  0  0  0  0  0
   -3.4336   -2.2354    1.1641 H   0  0  0  0  0  0  0  0  0  0  0  0
   -3.2256   -2.7344   -0.5349 H   0  0  0  0  0  0  0  0  0  0  0  0
   -1.4126   -2.2444    0.4801 C   0  0  0  0  0  0  0  0  0  0  0  0
   -0.4686   -2.9534    0.8001 O   0  0  0  0  0  0  0  0  0  0  0  0
   -1.2736   -0.9704    0.1241 N   0  0  0  0  0  0  0  0  0  0  0  0
   -2.0996   -0.4354   -0.1019 H   0  0  0  0  0  0  0  0  0  0  0  0
   -0.0016   -0.2394    0.1271 C   0  0  1  0  0  0  0  0  0  0  0  0
    0.3796   -0.2121    1.1503 H   0  0  0  0  0  0  0  0  0  0  0  0
    1.0158   -0.9802   -0.7630 C   0  0  0  0  0  0  0  0  0  0  0  0
    0.5641   -1.1897   -1.7335 H   0  0  0  0  0  0  0  0  0  0  0  0
    1.8880   -0.3469   -0.9291 H   0  0  0  0  0  0  0  0  0  0  0  0
    1.4689   -2.3169   -0.1837 C   0  0  0  0  0  0  0  0  0  0  0  0
    1.5285   -2.5940    1.0071 O   0  0  0  0  0  0  0  0  0  0  0  0
    1.8313   -3.2351   -1.0990 O   0  0  0  0  0  0  0  0  0  0  0  0
    2.0699   -4.0193   -0.6038 H   0  0  0  0  0  0  0  0  0  0  0  0
   -0.2236    1.2116   -0.3445 C   0  0  0  0  0  0  0  0  0  0  0  0
    0.7289    1.9881   -0.4025 O   0  0  0  0  0  0  0  0  0  0  0  0
   -1.4670    1.5814   -0.6710 N   0  0  0  0  0  0  0  0  0  0  0  0
   -2.2075    0.9008   -0.5352 H   0  0  0  0  0  0  0  0  0  0  0  0
   -1.8350    2.9156   -1.1400 C   0  0  0  0  0  0  0  0  0  0  0  0
   -1.1930    3.2031   -1.9754 H   0  0  0  0  0  0  0  0  0  0  0  0
   -2.8757    2.9246   -1.4664 H   0  0  0  0  0  0  0  0  0  0  0  0
   -1.7032    3.6391   -0.3335 H   0  0  0  0  0  0  0  0  0  0  0  0
  5  6  2  0  0  0  0
  5  7  1  0  0  0  0
  2  3  1  0  0  0  0
  2  4  1  0  0  0  0
  2  5  1  0  0  0  0
  1  2  1  0  0  0  0
 18 19  2  0  0  0  0
 18 20  1  0  0  0  0
 16 17  1  0  0  0  0
 14 15  2  0  0  0  0
 14 16  1  0  0  0  0
 11 12  1  0  0  0  0
 11 13  1  0  0  0  0
 11 14  1  0  0  0  0
  9 10  1  0  0  0  0
  9 11  1  0  0  0  0
  9 18  1  0  0  0  0
  7  8  1  0  0  0  0
  7  9  1  0  0  0  0
 22 23  1  0  0  0  0
 22 24  1  0  0  0  0
 22 25  1  0  0  0  0
 20 21  1  0  0  0  0
 20 22  1  0  0  0  0
M  END
$$$$
default_name
  -OEChem-01062215323D

 25 24  0     1  0  0  0  0  0999 V2000
   -2.7826   -3.8464    0.7821 H   0  0  0  0  0  0  0  0  0  0  0  0
   -2.8156   -2.8034    0.4711 C   0  0  0  0  0  0  0  0  0  0  0  0
   -3.4336   -2.2354    1.1641 H   0  0  0  0  0  0  0  0  0  0  0  0
   -3.2256   -2.7344   -0.5349 H   0  0  0  0  0  0  0  0  0  0  0  0
   -1.4126   -2.2444    0.4801 C   0  0  0  0  0  0  0  0  0  0  0  0
   -0.4686   -2.9534    0.8001 O   0  0  0  0  0  0  0  0  0  0  0  0
   -1.2736   -0.9704    0.1241 N   0  0  0  0  0  0  0  0  0  0  0  0
   -2.0996   -0.4354   -0.1019 H   0  0  0  0  0  0  0  0  0  0  0  0
   -0.0016   -0.2394    0.1271 C   0  0  1  0  0  0  0  0  0  0  0  0
    0.3796   -0.2121    1.1503 H   0  0  0  0  0  0  0  0  0  0  0  0
    1.0158   -0.9802   -0.7630 C   0  0  0  0  0  0  0  0  0  0  0  0
    0.5641   -1.1897   -1.7335 H   0  0  0  0  0  0  0  0  0  0  0  0
    1.8880   -0.3469   -0.9291 H   0  0  0  0  0  0  0  0  0  0  0  0
    1.4689   -2.3169   -0.1837 C   0  0  0  0  0  0  0  0  0  0  0  0
    1.5285   -2.5940    1.0071 O   0  0  0  0  0  0  0  0  0  0  0  0
    1.8313   -3.2351   -1.0990 O   0  0  0  0  0  0  0  0  0  0  0  0
    2.0699   -4.0193   -0.6038 H   0  0  0  0  0  0  0  0  0  0  0  0
   -0.2236    1.2116   -0.3445 C   0  0  0  0  0  0  0  0  0  0  0  0
    0.7408    1.9037   -0.6678 O   0  0  0  0  0  0  0  0  0  0  0  0
   -1.4780    1.6752   -0.3773 N   0  0  0  0  0  0  0  0  0  0  0  0
   -2.2112    1.0630   -0.0344 H   0  0  0  0  0  0  0  0  0  0  0  0
   -1.8492    3.0221   -0.8055 C   0  0  0  0  0  0  0  0  0  0  0  0
   -1.4119    3.2318   -1.7841 H   0  0  0  0  0  0  0  0  0  0  0  0
   -2.9345    3.1093   -0.8704 H   0  0  0  0  0  0  0  0  0  0  0  0
   -1.4702    3.7539   -0.0899 H   0  0  0  0  0  0  0  0  0  0  0  0
  5  6  2  0  0  0  0
  5  7  1  0  0  0  0
  2  3  1  0  0  0  0
  2  4  1  0  0  0  0
  2  5  1  0  0  0  0
  1  2  1  0  0  0  0
 18 19  2  0  0  0  0
 18 20  1  0  0  0  0
 16 17  1  0  0  0  0
 14 15  2  0  0  0  0
 14 16  1  0  0  0  0
 11 12  1  0  0  0  0
 11 13  1  0  0  0  0
 11 14  1  0  0  0  0
  9 10  1  0  0  0  0
  9 11  1  0  0  0  0
  9 18  1  0  0  0  0
  7  8  1  0  0  0  0
  7  9  1  0  0  0  0
 22 23  1  0  0  0  0
 22 24  1  0  0  0  0
 22 25  1  0  0  0  0
 20 21  1  0  0  0  0
 20 22  1  0  0  0  0
M  END
$$$$
default_name
  -OEChem-01062215323D

 25 24  0     1  0  0  0  0  0999 V2000
   -2.7826   -3.8464    0.7821 H   0  0  0  0  0  0  0  0  0  0  0  0
   -2.8156   -2.8034    0.4711 C   0  0  0  0  0  0  0  0  0  0  0  0
   -3.4336   -2.2354    1.1641 H   0  0  0  0  0  0  0  0  0  0  0  0
   -3.2256   -2.7344   -0.5349 H   0  0  0  0  0  0  0  0  0  0  0  0
   -1.4126   -2.2444    0.4801 C   0  0  0  0  0  0  0  0  0  0  0  0
   -0.4686   -2.9534    0.8001 O   0  0  0  0  0  0  0  0  0  0  0  0
   -1.2736   -0.9704    0.1241 N   0  0  0  0  0  0  0  0  0  0  0  0
   -2.0996   -0.4354   -0.1019 H   0  0  0  0  0  0  0  0  0  0  0  0
   -0.0016   -0.2394    0.1271 C   0  0  1  0  0  0  0  0  0  0  0  0
    0.3796   -0.2121    1.1503 H   0  0  0  0  0  0  0  0  0  0  0  0
    1.0158   -0.9802   -0.7630 C   0  0  0  0  0  0  0  0  0  0  0  0
    0.5641   -1.1897   -1.7335 H   0  0  0  0  0  0  0  0  0  0  0  0
    1.8880   -0.3469   -0.9291 H   0  0  0  0  0  0  0  0  0  0  0  0
    1.4689   -2.3169   -0.1837 C   0  0  0  0  0  0  0  0  0  0  0  0
    1.5285   -2.5940    1.0071 O   0  0  0  0  0  0  0  0  0  0  0  0
    1.8313   -3.2351   -1.0990 O   0  0  0  0  0  0  0  0  0  0  0  0
    2.0699   -4.0193   -0.6038 H   0  0  0  0  0  0  0  0  0  0  0  0
   -0.2236    1.2116   -0.3445 C   0  0  0  0  0  0  0  0  0  0  0  0
    0.6810    1.8113   -0.9239 O   0  0  0  0  0  0  0  0  0  0  0  0
   -1.4096    1.7775   -0.0944 N   0  0  0  0  0  0  0  0  0  0  0  0
   -2.0799    1.2386    0.4442 H   0  0  0  0  0  0  0  0  0  0  0  0
   -1.7730    3.1386   -0.4829 C   0  0  0  0  0  0  0  0  0  0  0  0
   -1.5745    3.2840   -1.5470 H   0  0  0  0  0  0  0  0  0  0  0  0
   -2.8314    3.3146   -0.2872 H   0  0  0  0  0  0  0  0  0  0  0  0
   -1.1767    3.8554    0.0843 H   0  0  0  0  0  0  0  0  0  0  0  0
  5  6  2  0  0  0  0
  5  7  1  0  0  0  0
  2  3  1  0  0  0  0
  2  4  1  0  0  0  0
  2  5  1  0  0  0  0
  1  2  1  0  0  0  0
 18 19  2  0  0  0  0
 18 20  1  0  0  0  0
 16 17  1  0  0  0  0
 14 15  2  0  0  0  0
 14 16  1  0  0  0  0
 11 12  1  0  0  0  0
 11 13  1  0  0  0  0
 11 14  1  0  0  0  0
  9 10  1  0  0  0  0
  9 11  1  0  0  0  0
  9 18  1  0  0  0  0
  7  8  1  0  0  0  0
  7  9  1  0  0  0  0
 22 23  1  0  0  0  0
 22 24  1  0  0  0  0
 22 25  1  0  0  0  0
 20 21  1  0  0  0  0
 20 22  1  0  0  0  0
M  END
$$$$
default_name
  -OEChem-01062215323D

 25 24  0     1  0  0  0  0  0999 V2000
   -2.7826   -3.8464    0.7821 H   0  0  0  0  0  0  0  0  0  0  0  0
   -2.8156   -2.8034    0.4711 C   0  0  0  0  0  0  0  0  0  0  0  0
   -3.4336   -2.2354    1.1641 H   0  0  0  0  0  0  0  0  0  0  0  0
   -3.2256   -2.7344   -0.5349 H   0  0  0  0  0  0  0  0  0  0  0  0
   -1.4126   -2.2444    0.4801 C   0  0  0  0  0  0  0  0  0  0  0  0
   -0.4686   -2.9534    0.8001 O   0  0  0  0  0  0  0  0  0  0  0  0
   -1.2736   -0.9704    0.1241 N   0  0  0  0  0  0  0  0  0  0  0  0
   -2.0996   -0.4354   -0.1019 H   0  0  0  0  0  0  0  0  0  0  0  0
   -0.0016   -0.2394    0.1271 C   0  0  1  0  0  0  0  0  0  0  0  0
    0.3796   -0.2121    1.1503 H   0  0  0  0  0  0  0  0  0  0  0  0
    1.0158   -0.9802   -0.7630 C   0  0  0  0  0  0  0  0  0  0  0  0
    0.5641   -1.1897   -1.7335 H   0  0  0  0  0  0  0  0  0  0  0  0
    1.8880   -0.3469   -0.9291 H   0  0  0  0  0  0  0  0  0  0  0  0
    1.4689   -2.3169   -0.1837 C   0  0  0  0  0  0  0  0  0  0  0  0
    1.5285   -2.5940    1.0071 O   0  0  0  0  0  0  0  0  0  0  0  0
    1.8313   -3.2351   -1.0990 O   0  0  0  0  0  0  0  0  0  0  0  0
    2.0699   -4.0193   -0.6038 H   0  0  0  0  0  0  0  0  0  0  0  0
   -0.2236    1.2116   -0.3445 C   0  0  0  0  0  0  0  0  0  0  0  0
    0.5535    1.7173   -1.1532 O   0  0  0  0  0  0  0  0  0  0  0  0
   -1.2666    1.8816    0.1583 N   0  0  0  0  0  0  0  0  0  0  0  0
   -1.8227    1.4157    0.8679 H   0  0  0  0  0  0  0  0  0  0  0  0
   -1.6115    3.2571   -0.1942 C   0  0  0  0  0  0  0  0  0  0  0  0
   -1.6697    3.3561   -1.2804 H   0  0  0  0  0  0  0  0  0  0  0  0
   -2.5736    3.5265    0.2434 H   0  0  0  0  0  0  0  0  0  0  0  0
   -0.8427    3.9368    0.1774 H   0  0  0  0  0  0  0  0  0  0  0  0
  5  6  2  0  0  0  0
  5  7  1  0  0  0  0
  2  3  1  0  0  0  0
  2  4  1  0  0  0  0
  2  5  1  0  0  0  0
  1  2  1  0  0  0  0
 18 19  2  0  0  0  0
 18 20  1  0  0  0  0
 16 17  1  0  0  0  0
 14 15  2  0  0  0  0
 14 16  1  0  0  0  0
 11 12  1  0  0  0  0
 11 13  1  0  0  0  0
 11 14  1  0  0  0  0
  9 10  1  0  0  0  0
  9 11  1  0  0  0  0
  9 18  1  0  0  0  0
  7  8  1  0  0  0  0
  7  9  1  0  0  0  0
 22 23  1  0  0  0  0
 22 24  1  0  0  0  0
 22 25  1  0  0  0  0
 20 21  1  0  0  0  0
 20 22  1  0  0  0  0
M  END
$$$$
default_name
  -OEChem-01062215323D

 25 24  0     1  0  0  0  0  0999 V2000
   -2.7826   -3.8464    0.7821 H   0  0  0  0  0  0  0  0  0  0  0  0
   -2.8156   -2.8034    0.4711 C   0  0  0  0  0  0  0  0  0  0  0  0
   -3.4336   -2.2354    1.1641 H   0  0  0  0  0  0  0  0  0  0  0  0
   -3.2256   -2.7344   -0.5349 H   0  0  0  0  0  0  0  0  0  0  0  0
   -1.4126   -2.2444    0.4801 C   0  0  0  0  0  0  0  0  0  0  0  0
   -0.4686   -2.9534    0.8001 O   0  0  0  0  0  0  0  0  0  0  0  0
   -1.2736   -0.9704    0.1241 N   0  0  0  0  0  0  0  0  0  0  0  0
   -2.0996   -0.4354   -0.1019 H   0  0  0  0  0  0  0  0  0  0  0  0
   -0.0016   -0.2394    0.1271 C   0  0  1  0  0  0  0  0  0  0  0  0
    0.3796   -0.2121    1.1503 H   0  0  0  0  0  0  0  0  0  0  0  0
    1.0158   -0.9802   -0.7630 C   0  0  0  0  0  0  0  0  0  0  0  0
    0.5641   -1.1897   -1.7335 H   0  0  0  0  0  0  0  0  0  0  0  0
    1.8880   -0.3469   -0.9291 H   0  0  0  0  0  0  0  0  0  0  0  0
    1.4689   -2.3169   -0.1837 C   0  0  0  0  0  0  0  0  0  0  0  0
    1.5285   -2.5940    1.0071 O   0  0  0  0  0  0  0  0  0  0  0  0
    1.8313   -3.2351   -1.0990 O   0  0  0  0  0  0  0  0  0  0  0  0
    2.0699   -4.0193   -0.6038 H   0  0  0  0  0  0  0  0  0  0  0  0
   -0.2236    1.2116   -0.3445 C   0  0  0  0  0  0  0  0  0  0  0  0
    0.3671    1.6281   -1.3401 O   0  0  0  0  0  0  0  0  0  0  0  0
   -1.0586    1.9801    0.3638 N   0  0  0  0  0  0  0  0  0  0  0  0
   -1.4570    1.5821    1.2080 H   0  0  0  0  0  0  0  0  0  0  0  0
   -1.3759    3.3696    0.0409 C   0  0  0  0  0  0  0  0  0  0  0  0
   -1.6909    3.4432   -1.0023 H   0  0  0  0  0  0  0  0  0  0  0  0
   -2.1785    3.7305    0.6852 H   0  0  0  0  0  0  0  0  0  0  0  0
   -0.4910    3.9923    0.1829 H   0  0  0  0  0  0  0  0  0  0  0  0
  5  6  2  0  0  0  0
  5  7  1  0  0  0  0
  2  3  1  0  0  0  0
  2  4  1  0  0  0  0
  2  5  1  0  0  0  0
  1  2  1  0  0  0  0
 18 19  2  0  0  0  0
 18 20  1  0  0  0  0
 16 17  1  0  0  0  0
 14 15  2  0  0  0  0
 14 16  1  0  0  0  0
 11 12  1  0  0  0  0
 11 13  1  0  0  0  0
 11 14  1  0  0  0  0
  9 10  1  0  0  0  0
  9 11  1  0  0  0  0
  9 18  1  0  0  0  0
  7  8  1  0  0  0  0
  7  9  1  0  0  0  0
 22 23  1  0  0  0  0
 22 24  1  0  0  0  0
 22 25  1  0  0  0  0
 20 21  1  0  0  0  0
 20 22  1  0  0  0  0
M  END
$$$$
default_name
  -OEChem-01062215323D

 25 24  0     1  0  0  0  0  0999 V2000
   -2.7826   -3.8464    0.7821 H   0  0  0  0  0  0  0  0  0  0  0  0
   -2.8156   -2.8034    0.4711 C   0  0  0  0  0  0  0  0  0  0  0  0
   -3.4336   -2.2354    1.1641 H   0  0  0  0  0  0  0  0  0  0  0  0
   -3.2256   -2.7344   -0.5349 H   0  0  0  0  0  0  0  0  0  0  0  0
   -1.4126   -2.2444    0.4801 C   0  0  0  0  0  0  0  0  0  0  0  0
   -0.4686   -2.9534    0.8001 O   0  0  0  0  0  0  0  0  0  0  0  0
   -1.2736   -0.9704    0.1241 N   0  0  0  0  0  0  0  0  0  0  0  0
   -2.0996   -0.4354   -0.1019 H   0  0  0  0  0  0  0  0  0  0  0  0
   -0.0016   -0.2394    0.1271 C   0  0  1  0  0  0  0  0  0  0  0  0
    0.3796   -0.2121    1.1503 H   0  0  0  0  0  0  0  0  0  0  0  0
    1.0158   -0.9802   -0.7630 C   0  0  0  0  0  0  0  0  0  0  0  0
    0.5641   -1.1897   -1.7335 H   0  0  0  0  0  0  0  0  0  0  0  0
    1.8880   -0.3469   -0.9291 H   0  0  0  0  0  0  0  0  0  0  0  0
    1.4689   -2.3169   -0.1837 C   0  0  0  0  0  0  0  0  0  0  0  0
    1.5285   -2.5940    1.0071 O   0  0  0  0  0  0  0  0  0  0  0  0
    1.8313   -3.2351   -1.0990 O   0  0  0  0  0  0  0  0  0  0  0  0
    2.0699   -4.0193   -0.6038 H   0  0  0  0  0  0  0  0  0  0  0  0
   -0.2236    1.2116   -0.3445 C   0  0  0  0  0  0  0  0  0  0  0  0
    0.1344    1.5496   -1.4719 O   0  0  0  0  0  0  0  0  0  0  0  0
   -0.7998    2.0665    0.5079 N   0  0  0  0  0  0  0  0  0  0  0  0
   -1.0077    1.7266    1.4412 H   0  0  0  0  0  0  0  0  0  0  0  0
   -1.0821    3.4683    0.2064 C   0  0  0  0  0  0  0  0  0  0  0  0
   -1.6368    3.5394   -0.7318 H   0  0  0  0  0  0  0  0  0  0  0  0
   -1.6731    3.9127    1.0081 H   0  0  0  0  0  0  0  0  0  0  0  0
   -0.1455    4.0184    0.1005 H   0  0  0  0  0  0  0  0  0  0  0  0
  5  6  2  0  0  0  0
  5  7  1  0  0  0  0
  2  3  1  0  0  0  0
  2  4  1  0  0  0  0
  2  5  1  0  0  0  0
  1  2  1  0  0  0  0
 18 19  2  0  0  0  0
 18 20  1  0  0  0  0
 16 17  1  0  0  0  0
 14 15  2  0  0  0  0
 14 16  1  0  0  0  0
 11 12  1  0  0  0  0
 11 13  1  0  0  0  0
 11 14  1  0  0  0  0
  9 10  1  0  0  0  0
  9 11  1  0  0  0  0
  9 18  1  0  0  0  0
  7  8  1  0  0  0  0
  7  9  1  0  0  0  0
 22 23  1  0  0  0  0
 22 24  1  0  0  0  0
 22 25  1  0  0  0  0
 20 21  1  0  0  0  0
 20 22  1  0  0  0  0
M  END
$$$$
default_name
  -OEChem-01062215323D

 25 24  0     1  0  0  0  0  0999 V2000
   -2.7826   -3.8464    0.7821 H   0  0  0  0  0  0  0  0  0  0  0  0
   -2.8156   -2.8034    0.4711 C   0  0  0  0  0  0  0  0  0  0  0  0
   -3.4336   -2.2354    1.1641 H   0  0  0  0  0  0  0  0  0  0  0  0
   -3.2256   -2.7344   -0.5349 H   0  0  0  0  0  0  0  0  0  0  0  0
   -1.4126   -2.2444    0.4801 C   0  0  0  0  0  0  0  0  0  0  0  0
   -0.4686   -2.9534    0.8001 O   0  0  0  0  0  0  0  0  0  0  0  0
   -1.2736   -0.9704    0.1241 N   0  0  0  0  0  0  0  0  0  0  0  0
   -2.0996   -0.4354   -0.1019 H   0  0  0  0  0  0  0  0  0  0  0  0
   -0.0016   -0.2394    0.1271 C   0  0  1  0  0  0  0  0  0  0  0  0
    0.3796   -0.2121    1.1503 H   0  0  0  0  0  0  0  0  0  0  0  0
    1.0158   -0.9802   -0.7630 C   0  0  0  0  0  0  0  0  0  0  0  0
    0.5641   -1.1897   -1.7335 H   0  0  0  0  0  0  0  0  0  0  0  0
    1.8880   -0.3469   -0.9291 H   0  0  0  0  0  0  0  0  0  0  0  0
    1.4689   -2.3169   -0.1837 C   0  0  0  0  0  0  0  0  0  0  0  0
    1.5285   -2.5940    1.0071 O   0  0  0  0  0  0  0  0  0  0  0  0
    1.8313   -3.2351   -1.0990 O   0  0  0  0  0  0  0  0  0  0  0  0
    2.0699   -4.0193   -0.6038 H   0  0  0  0  0  0  0  0  0  0  0  0
   -0.2236    1.2116   -0.3445 C   0  0  0  0  0  0  0  0  0  0  0  0
   -0.1287    1.4874   -1.5397 O   0  0  0  0  0  0  0  0  0  0  0  0
   -0.5080    2.1349    0.5808 N   0  0  0  0  0  0  0  0  0  0  0  0
   -0.5055    1.8393    1.5516 H   0  0  0  0  0  0  0  0  0  0  0  0
   -0.7503    3.5465    0.2910 C   0  0  0  0  0  0  0  0  0  0  0  0
   -1.5110    3.6381   -0.4873 H   0  0  0  0  0  0  0  0  0  0  0  0
   -1.0919    4.0608    1.1902 H   0  0  0  0  0  0  0  0  0  0  0  0
    0.1702    4.0131   -0.0643 H   0  0  0  0  0  0  0  0  0  0  0  0
  5  6  2  0  0  0  0
  5  7  1  0  0  0  0
  2  3  1  0  0  0  0
  2  4  1  0  0  0  0
  2  5  1  0  0  0  0
  1  2  1  0  0  0  0
 18 19  2  0  0  0  0
 18 20  1  0  0  0  0
 16 17  1  0  0  0  0
 14 15  2  0  0  0  0
 14 16  1  0  0  0  0
 11 12  1  0  0  0  0
 11 13  1  0  0  0  0
 11 14  1  0  0  0  0
  9 10  1  0  0  0  0
  9 11  1  0  0  0  0
  9 18  1  0  0  0  0
  7  8  1  0  0  0  0
  7  9  1  0  0  0  0
 22 23  1  0  0  0  0
 22 24  1  0  0  0  0
 22 25  1  0  0  0  0
 20 21  1  0  0  0  0
 20 22  1  0  0  0  0
M  END
$$$$
default_name
  -OEChem-01062215323D

 25 24  0     1  0  0  0  0  0999 V2000
   -2.7826   -3.8464    0.7821 H   0  0  0  0  0  0  0  0  0  0  0  0
   -2.8156   -2.8034    0.4711 C   0  0  0  0  0  0  0  0  0  0  0  0
   -3.4336   -2.2354    1.1641 H   0  0  0  0  0  0  0  0  0  0  0  0
   -3.2256   -2.7344   -0.5349 H   0  0  0  0  0  0  0  0  0  0  0  0
   -1.4126   -2.2444    0.4801 C   0  0  0  0  0  0  0  0  0  0  0  0
   -0.4686   -2.9534    0.8001 O   0  0  0  0  0  0  0  0  0  0  0  0
   -1.2736   -0.9704    0.1241 N   0  0  0  0  0  0  0  0  0  0  0  0
   -2.0996   -0.4354   -0.1019 H   0  0  0  0  0  0  0  0  0  0  0  0
   -0.0016   -0.2394    0.1271 C   0  0  1  0  0  0  0  0  0  0  0  0
    0.3796   -0.2121    1.1503 H   0  0  0  0  0  0  0  0  0  0  0  0
    1.0158   -0.9802   -0.7630 C   0  0  0  0  0  0  0  0  0  0  0  0
    0.5641   -1.1897   -1.7335 H   0  0  0  0  0  0  0  0  0  0  0  0
    1.8880   -0.3469   -0.9291 H   0  0  0  0  0  0  0  0  0  0  0  0
    1.4689   -2.3169   -0.1837 C   0  0  0  0  0  0  0  0  0  0  0  0
    1.5285   -2.5940    1.0071 O   0  0  0  0  0  0  0  0  0  0  0  0
    1.8313   -3.2351   -1.0990 O   0  0  0  0  0  0  0  0  0  0  0  0
    2.0699   -4.0193   -0.6038 H   0  0  0  0  0  0  0  0  0  0  0  0
   -0.2236    1.2116   -0.3445 C   0  0  0  0  0  0  0  0  0  0  0  0
   -0.4042    1.4456   -1.5387 O   0  0  0  0  0  0  0  0  0  0  0  0
   -0.2029    2.1805    0.5776 N   0  0  0  0  0  0  0  0  0  0  0  0
    0.0154    1.9125    1.5318 H   0  0  0  0  0  0  0  0  0  0  0  0
   -0.4029    3.5990    0.2890 C   0  0  0  0  0  0  0  0  0  0  0  0
   -1.3222    3.7326   -0.2854 H   0  0  0  0  0  0  0  0  0  0  0  0
   -0.4744    4.1646    1.2189 H   0  0  0  0  0  0  0  0  0  0  0  0
    0.4346    3.9769   -0.3001 H   0  0  0  0  0  0  0  0  0  0  0  0
  5  6  2  0  0  0  0
  5  7  1  0  0  0  0
  2  3  1  0  0  0  0
  2  4  1  0  0  0  0
  2  5  1  0  0  0  0
  1  2  1  0  0  0  0
 18 19  2  0  0  0  0
 18 20  1  0  0  0  0
 16 17  1  0  0  0  0
 14 15  2  0  0  0  0
 14 16  1  0  0  0  0
 11 12  1  0  0  0  0
 11 13  1  0  0  0  0
 11 14  1  0  0  0  0
  9 10  1  0  0  0  0
  9 11  1  0  0  0  0
  9 18  1  0  0  0  0
  7  8  1  0  0  0  0
  7  9  1  0  0  0  0
 22 23  1  0  0  0  0
 22 24  1  0  0  0  0
 22 25  1  0  0  0  0
 20 21  1  0  0  0  0
 20 22  1  0  0  0  0
M  END
$$$$
default_name
  -OEChem-01062215323D

 25 24  0     1  0  0  0  0  0999 V2000
   -2.7826   -3.8464    0.7821 H   0  0  0  0  0  0  0  0  0  0  0  0
   -2.8156   -2.8034    0.4711 C   0  0  0  0  0  0  0  0  0  0  0  0
   -3.4336   -2.2354    1.1641 H   0  0  0  0  0  0  0  0  0  0  0  0
   -3.2256   -2.7344   -0.5349 H   0  0  0  0  0  0  0  0  0  0  0  0
   -1.4126   -2.2444    0.4801 C   0  0  0  0  0  0  0  0  0  0  0  0
   -0.4686   -2.9534    0.8001 O   0  0  0  0  0  0  0  0  0  0  0  0
   -1.2736   -0.9704    0.1241 N   0  0  0  0  0  0  0  0  0  0  0  0
   -2.0996   -0.4354   -0.1019 H   0  0  0  0  0  0  0  0  0  0  0  0
   -0.0016   -0.2394    0.1271 C   0  0  1  0  0  0  0  0  0  0  0  0
    0.3796   -0.2121    1.1503 H   0  0  0  0  0  0  0  0  0  0  0  0
    1.0158   -0.9802   -0.7630 C   0  0  0  0  0  0  0  0  0  0  0  0
    0.5641   -1.1897   -1.7335 H   0  0  0  0  0  0  0  0  0  0  0  0
    1.8880   -0.3469   -0.9291 H   0  0  0  0  0  0  0  0  0  0  0  0
    1.4689   -2.3169   -0.1837 C   0  0  0  0  0  0  0  0  0  0  0  0
    1.5285   -2.5940    1.0071 O   0  0  0  0  0  0  0  0  0  0  0  0
    1.8313   -3.2351   -1.0990 O   0  0  0  0  0  0  0  0  0  0  0  0
    2.0699   -4.0193   -0.6038 H   0  0  0  0  0  0  0  0  0  0  0  0
   -0.2236    1.2116   -0.3445 C   0  0  0  0  0  0  0  0  0  0  0  0
   -0.6734    1.4270   -1.4691 O   0  0  0  0  0  0  0  0  0  0  0  0
    0.0947    2.2003    0.4986 N   0  0  0  0  0  0  0  0  0  0  0  0
    0.5195    1.9413    1.3830 H   0  0  0  0  0  0  0  0  0  0  0  0
   -0.0637    3.6221    0.2005 C   0  0  0  0  0  0  0  0  0  0  0  0
   -1.0831    3.8165   -0.1399 H   0  0  0  0  0  0  0  0  0  0  0  0
    0.1372    4.2170    1.0924 H   0  0  0  0  0  0  0  0  0  0  0  0
    0.6297    3.9122   -0.5909 H   0  0  0  0  0  0  0  0  0  0  0  0
  5  6  2  0  0  0  0
  5  7  1  0  0  0  0
  2  3  1  0  0  0  0
  2  4  1  0  0  0  0
  2  5  1  0  0  0  0
  1  2  1  0  0  0  0
 18 19  2  0  0  0  0
 18 20  1  0  0  0  0
 16 17  1  0  0  0  0
 14 15  2  0  0  0  0
 14 16  1  0  0  0  0
 11 12  1  0  0  0  0
 11 13  1  0  0  0  0
 11 14  1  0  0  0  0
  9 10  1  0  0  0  0
  9 11  1  0  0  0  0
  9 18  1  0  0  0  0
  7  8  1  0  0  0  0
  7  9  1  0  0  0  0
 22 23  1  0  0  0  0
 22 24  1  0  0  0  0
 22 25  1  0  0  0  0
 20 21  1  0  0  0  0
 20 22  1  0  0  0  0
M  END
$$$$
default_name
  -OEChem-01062215323D

 25 24  0     1  0  0  0  0  0999 V2000
   -2.7826   -3.8464    0.7821 H   0  0  0  0  0  0  0  0  0  0  0  0
   -2.8156   -2.8034    0.4711 C   0  0  0  0  0  0  0  0  0  0  0  0
   -3.4336   -2.2354    1.1641 H   0  0  0  0  0  0  0  0  0  0  0  0
   -3.2256   -2.7344   -0.5349 H   0  0  0  0  0  0  0  0  0  0  0  0
   -1.4126   -2.2444    0.4801 C   0  0  0  0  0  0  0  0  0  0  0  0
   -0.4686   -2.9534    0.8001 O   0  0  0  0  0  0  0  0  0  0  0  0
   -1.2736   -0.9704    0.1241 N   0  0  0  0  0  0  0  0  0  0  0  0
   -2.0996   -0.4354   -0.1019 H   0  0  0  0  0  0  0  0  0  0  0  0
   -0.0016   -0.2394    0.1271 C   0  0  1  0  0  0  0  0  0  0  0  0
    0.3796   -0.2121    1.1503 H   0  0  0  0  0  0  0  0  0  0  0  0
    1.0158   -0.9802   -0.7630 C   0  0  0  0  0  0  0  0  0  0  0  0
    0.5641   -1.1897   -1.7335 H   0  0  0  0  0  0  0  0  0  0  0  0
    1.8880   -0.3469   -0.9291 H   0  0  0  0  0  0  0  0  0  0  0  0
    1.4689   -2.3169   -0.1837 C   0  0  0  0  0  0  0  0  0  0  0  0
    1.5285   -2.5940    1.0071 O   0  0  0  0  0  0  0  0  0  0  0  0
    1.8313   -3.2351   -1.0990 O   0  0  0  0  0  0  0  0  0  0  0  0
    2.0699   -4.0193   -0.6038 H   0  0  0  0  0  0  0  0  0  0  0  0
   -0.2236    1.2116   -0.3445 C   0  0  0  0  0  0  0  0  0  0  0  0
   -0.9179    1.4330   -1.3356 O   0  0  0  0  0  0  0  0  0  0  0  0
    0.3644    2.1929    0.3489 N   0  0  0  0  0  0  0  0  0  0  0  0
    0.9725    1.9236    1.1154 H   0  0  0  0  0  0  0  0  0  0  0  0
    0.2443    3.6143    0.0315 C   0  0  0  0  0  0  0  0  0  0  0  0
   -0.8101    3.8840   -0.0607 H   0  0  0  0  0  0  0  0  0  0  0  0
    0.7014    4.2145    0.8192 H   0  0  0  0  0  0  0  0  0  0  0  0
    0.7421    3.8235   -0.9170 H   0  0  0  0  0  0  0  0  0  0  0  0
  5  6  2  0  0  0  0
  5  7  1  0  0  0  0
  2  3  1  0  0  0  0
  2  4  1  0  0  0  0
  2  5  1  0  0  0  0
  1  2  1  0  0  0  0
 18 19  2  0  0  0  0
 18 20  1  0  0  0  0
 16 17  1  0  0  0  0
 14 15  2  0  0  0  0
 14 16  1  0  0  0  0
 11 12  1  0  0  0  0
 11 13  1  0  0  0  0
 11 14  1  0  0  0  0
  9 10  1  0  0  0  0
  9 11  1  0  0  0  0
  9 18  1  0  0  0  0
  7  8  1  0  0  0  0
  7  9  1  0  0  0  0
 22 23  1  0  0  0  0
 22 24  1  0  0  0  0
 22 25  1  0  0  0  0
 20 21  1  0  0  0  0
 20 22  1  0  0  0  0
M  END
$$$$
default_name
  -OEChem-01062215323D

 25 24  0     1  0  0  0  0  0999 V2000
   -2.7826   -3.8464    0.7821 H   0  0  0  0  0  0  0  0  0  0  0  0
   -2.8156   -2.8034    0.4711 C   0  0  0  0  0  0  0  0  0  0  0  0
   -3.4336   -2.2354    1.1641 H   0  0  0  0  0  0  0  0  0  0  0  0
   -3.2256   -2.7344   -0.5349 H   0  0  0  0  0  0  0  0  0  0  0  0
   -1.4126   -2.2444    0.4801 C   0  0  0  0  0  0  0  0  0  0  0  0
   -0.4686   -2.9534    0.8001 O   0  0  0  0  0  0  0  0  0  0  0  0
   -1.2736   -0.9704    0.1241 N   0  0  0  0  0  0  0  0  0  0  0  0
   -2.0996   -0.4354   -0.1019 H   0  0  0  0  0  0  0  0  0  0  0  0
   -0.0016   -0.2394    0.1271 C   0  0  1  0  0  0  0  0  0  0  0  0
    0.3796   -0.2121    1.1503 H   0  0  0  0  0  0  0  0  0  0  0  0
    1.0158   -0.9802   -0.7630 C   0  0  0  0  0  0  0  0  0  0  0  0
    0.5641   -1.1897   -1.7335 H   0  0  0  0  0  0  0  0  0  0  0  0
    1.8880   -0.3469   -0.9291 H   0  0  0  0  0  0  0  0  0  0  0  0
    1.4689   -2.3169   -0.1837 C   0  0  0  0  0  0  0  0  0  0  0  0
    1.5285   -2.5940    1.0071 O   0  0  0  0  0  0  0  0  0  0  0  0
    1.8313   -3.2351   -1.0990 O   0  0  0  0  0  0  0  0  0  0  0  0
    2.0699   -4.0193   -0.6038 H   0  0  0  0  0  0  0  0  0  0  0  0
   -0.2236    1.2116   -0.3445 C   0  0  0  0  0  0  0  0  0  0  0  0
   -1.1212    1.4631   -1.1473 O   0  0  0  0  0  0  0  0  0  0  0  0
    0.5878    2.1589    0.1390 N   0  0  0  0  0  0  0  0  0  0  0  0
    1.3435    1.8607    0.7473 H   0  0  0  0  0  0  0  0  0  0  0  0
    0.4999    3.5761   -0.2064 C   0  0  0  0  0  0  0  0  0  0  0  0
   -0.5218    3.9305   -0.0533 H   0  0  0  0  0  0  0  0  0  0  0  0
    1.1796    4.1572    0.4180 H   0  0  0  0  0  0  0  0  0  0  0  0
    0.7643    3.7167   -1.2560 H   0  0  0  0  0  0  0  0  0  0  0  0
  5  6  2  0  0  0  0
  5  7  1  0  0  0  0
  2  3  1  0  0  0  0
  2  4  1  0  0  0  0
  2  5  1  0  0  0  0
  1  2  1  0  0  0  0
 18 19  2  0  0  0  0
 18 20  1  0  0  0  0
 16 17  1  0  0  0  0
 14 15  2  0  0  0  0
 14 16  1  0  0  0  0
 11 12  1  0  0  0  0
 11 13  1  0  0  0  0
 11 14  1  0  0  0  0
  9 10  1  0  0  0  0
  9 11  1  0  0  0  0
  9 18  1  0  0  0  0
  7  8  1  0  0  0  0
  7  9  1  0  0  0  0
 22 23  1  0  0  0  0
 22 24  1  0  0  0  0
 22 25  1  0  0  0  0
 20 21  1  0  0  0  0
 20 22  1  0  0  0  0
M  END
$$$$
default_name
  -OEChem-01062215323D

 25 24  0     1  0  0  0  0  0999 V2000
   -2.7826   -3.8464    0.7821 H   0  0  0  0  0  0  0  0  0  0  0  0
   -2.8156   -2.8034    0.4711 C   0  0  0  0  0  0  0  0  0  0  0  0
   -3.4336   -2.2354    1.1641 H   0  0  0  0  0  0  0  0  0  0  0  0
   -3.2256   -2.7344   -0.5349 H   0  0  0  0  0  0  0  0  0  0  0  0
   -1.4126   -2.2444    0.4801 C   0  0  0  0  0  0  0  0  0  0  0  0
   -0.4686   -2.9534    0.8001 O   0  0  0  0  0  0  0  0  0  0  0  0
   -1.2736   -0.9704    0.1241 N   0  0  0  0  0  0  0  0  0  0  0  0
   -2.0996   -0.4354   -0.1019 H   0  0  0  0  0  0  0  0  0  0  0  0
   -0.0016   -0.2394    0.1271 C   0  0  1  0  0  0  0  0  0  0  0  0
    0.3796   -0.2121    1.1503 H   0  0  0  0  0  0  0  0  0  0  0  0
    1.0158   -0.9802   -0.7630 C   0  0  0  0  0  0  0  0  0  0  0  0
    0.5641   -1.1897   -1.7335 H   0  0  0  0  0  0  0  0  0  0  0  0
    1.8880   -0.3469   -0.9291 H   0  0  0  0  0  0  0  0  0  0  0  0
    1.4689   -2.3169   -0.1837 C   0  0  0  0  0  0  0  0  0  0  0  0
    1.5285   -2.5940    1.0071 O   0  0  0  0  0  0  0  0  0  0  0  0
    1.8313   -3.2351   -1.0990 O   0  0  0  0  0  0  0  0  0  0  0  0
    2.0699   -4.0193   -0.6038 H   0  0  0  0  0  0  0  0  0  0  0  0
   -0.2236    1.2116   -0.3445 C   0  0  0  0  0  0  0  0  0  0  0  0
   -1.2692    1.5153   -0.9170 O   0  0  0  0  0  0  0  0  0  0  0  0
    0.7499    2.1005   -0.1169 N   0  0  0  0  0  0  0  0  0  0  0  0
    1.6071    1.7568    0.3037 H   0  0  0  0  0  0  0  0  0  0  0  0
    0.6859    3.5101   -0.4971 C   0  0  0  0  0  0  0  0  0  0  0  0
   -0.2378    3.9529   -0.1180 H   0  0  0  0  0  0  0  0  0  0  0  0
    1.5392    4.0491   -0.0838 H   0  0  0  0  0  0  0  0  0  0  0  0
    0.6947    3.5992   -1.5848 H   0  0  0  0  0  0  0  0  0  0  0  0
  5  6  2  0  0  0  0
  5  7  1  0  0  0  0
  2  3  1  0  0  0  0
  2  4  1  0  0  0  0
  2  5  1  0  0  0  0
  1  2  1  0  0  0  0
 18 19  2  0  0  0  0
 18 20  1  0  0  0  0
 16 17  1  0  0  0  0
 14 15  2  0  0  0  0
 14 16  1  0  0  0  0
 11 12  1  0  0  0  0
 11 13  1  0  0  0  0
 11 14  1  0  0  0  0
  9 10  1  0  0  0  0
  9 11  1  0  0  0  0
  9 18  1  0  0  0  0
  7  8  1  0  0  0  0
  7  9  1  0  0  0  0
 22 23  1  0  0  0  0
 22 24  1  0  0  0  0
 22 25  1  0  0  0  0
 20 21  1  0  0  0  0
 20 22  1  0  0  0  0
M  END
$$$$
default_name
  -OEChem-01062215323D

 25 24  0     1  0  0  0  0  0999 V2000
   -2.7826   -3.8464    0.7821 H   0  0  0  0  0  0  0  0  0  0  0  0
   -2.8156   -2.8034    0.4711 C   0  0  0  0  0  0  0  0  0  0  0  0
   -3.4336   -2.2354    1.1641 H   0  0  0  0  0  0  0  0  0  0  0  0
   -3.2256   -2.7344   -0.5349 H   0  0  0  0  0  0  0  0  0  0  0  0
   -1.4126   -2.2444    0.4801 C   0  0  0  0  0  0  0  0  0  0  0  0
   -0.4686   -2.9534    0.8001 O   0  0  0  0  0  0  0  0  0  0  0  0
   -1.2736   -0.9704    0.1241 N   0  0  0  0  0  0  0  0  0  0  0  0
   -2.0996   -0.4354   -0.1019 H   0  0  0  0  0  0  0  0  0  0  0  0
   -0.0016   -0.2394    0.1271 C   0  0  1  0  0  0  0  0  0  0  0  0
    0.5088   -0.4366    1.0724 H   0  0  0  0  0  0  0  0  0  0  0  0
    0.8818   -0.7460   -1.0301 C   0  0  0  0  0  0  0  0  0  0  0  0
    0.3058   -0.7393   -1.9563 H   0  0  0  0  0  0  0  0  0  0  0  0
    1.7342   -0.0784   -1.1608 H   0  0  0  0  0  0  0  0  0  0  0  0
    1.3869   -2.1716   -0.8290 C   0  0  0  0  0  0  0  0  0  0  0  0
    1.5956   -2.7078    0.2514 O   0  0  0  0  0  0  0  0  0  0  0  0
    1.6151   -2.8553   -1.9658 O   0  0  0  0  0  0  0  0  0  0  0  0
    1.9045   -3.7269   -1.6942 H   0  0  0  0  0  0  0  0  0  0  0  0
   -0.2619    1.2768    0.0259 C   0  0  0  0  0  0  0  0  0  0  0  0
   -1.4163    1.6954   -0.0499 O   0  0  0  0  0  0  0  0  0  0  0  0
    0.7962    2.0952    0.0156 N   0  0  0  0  0  0  0  0  0  0  0  0
    1.7169    1.6682    0.0173 H   0  0  0  0  0  0  0  0  0  0  0  0
    0.7124    3.5517   -0.0689 C   0  0  0  0  0  0  0  0  0  0  0  0
    0.0331    3.9274    0.6993 H   0  0  0  0  0  0  0  0  0  0  0  0
    1.6991    3.9932    0.0763 H   0  0  0  0  0  0  0  0  0  0  0  0
    0.3271    3.8425   -1.0478 H   0  0  0  0  0  0  0  0  0  0  0  0
  5  6  2  0  0  0  0
  5  7  1  0  0  0  0
  2  3  1  0  0  0  0
  2  4  1  0  0  0  0
  2  5  1  0  0  0  0
  1  2  1  0  0  0  0
 18 19  2  0  0  0  0
 18 20  1  0  0  0  0
 16 17  1  0  0  0  0
 14 15  2  0  0  0  0
 14 16  1  0  0  0  0
 11 12  1  0  0  0  0
 11 13  1  0  0  0  0
 11 14  1  0  0  0  0
  9 10  1  0  0  0  0
  9 11  1  0  0  0  0
  9 18  1  0  0  0  0
  7  8  1  0  0  0  0
  7  9  1  0  0  0  0
 22 23  1  0  0  0  0
 22 24  1  0  0  0  0
 22 25  1  0  0  0  0
 20 21  1  0  0  0  0
 20 22  1  0  0  0  0
M  END
$$$$
default_name
  -OEChem-01062215323D

 25 24  0     1  0  0  0  0  0999 V2000
   -2.7826   -3.8464    0.7821 H   0  0  0  0  0  0  0  0  0  0  0  0
   -2.8156   -2.8034    0.4711 C   0  0  0  0  0  0  0  0  0  0  0  0
   -3.4336   -2.2354    1.1641 H   0  0  0  0  0  0  0  0  0  0  0  0
   -3.2256   -2.7344   -0.5349 H   0  0  0  0  0  0  0  0  0  0  0  0
   -1.4126   -2.2444    0.4801 C   0  0  0  0  0  0  0  0  0  0  0  0
   -0.4686   -2.9534    0.8001 O   0  0  0  0  0  0  0  0  0  0  0  0
   -1.2736   -0.9704    0.1241 N   0  0  0  0  0  0  0  0  0  0  0  0
   -2.0996   -0.4354   -0.1019 H   0  0  0  0  0  0  0  0  0  0  0  0
   -0.0016   -0.2394    0.1271 C   0  0  1  0  0  0  0  0  0  0  0  0
    0.5088   -0.4366    1.0724 H   0  0  0  0  0  0  0  0  0  0  0  0
    0.8818   -0.7460   -1.0301 C   0  0  0  0  0  0  0  0  0  0  0  0
    0.3058   -0.7393   -1.9563 H   0  0  0  0  0  0  0  0  0  0  0  0
    1.7342   -0.0784   -1.1608 H   0  0  0  0  0  0  0  0  0  0  0  0
    1.3869   -2.1716   -0.8290 C   0  0  0  0  0  0  0  0  0  0  0  0
    1.5956   -2.7078    0.2514 O   0  0  0  0  0  0  0  0  0  0  0  0
    1.6151   -2.8553   -1.9658 O   0  0  0  0  0  0  0  0  0  0  0  0
    1.9045   -3.7269   -1.6942 H   0  0  0  0  0  0  0  0  0  0  0  0
   -0.2619    1.2768    0.0259 C   0  0  0  0  0  0  0  0  0  0  0  0
   -1.3927    1.7179    0.2268 O   0  0  0  0  0  0  0  0  0  0  0  0
    0.7679    2.0699   -0.2905 N   0  0  0  0  0  0  0  0  0  0  0  0
    1.6536    1.6226   -0.5033 H   0  0  0  0  0  0  0  0  0  0  0  0
    0.6818    3.5231   -0.4178 C   0  0  0  0  0  0  0  0  0  0  0  0
    0.2251    3.9457    0.4799 H   0  0  0  0  0  0  0  0  0  0  0  0
    1.6779    3.9479   -0.5485 H   0  0  0  0  0  0  0  0  0  0  0  0
    0.0630    3.7817   -1.2788 H   0  0  0  0  0  0  0  0  0  0  0  0
  5  6  2  0  0  0  0
  5  7  1  0  0  0  0
  2  3  1  0  0  0  0
  2  4  1  0  0  0  0
  2  5  1  0  0  0  0
  1  2  1  0  0  0  0
 18 19  2  0  0  0  0
 18 20  1  0  0  0  0
 16 17  1  0  0  0  0
 14 15  2  0  0  0  0
 14 16  1  0  0  0  0
 11 12  1  0  0  0  0
 11 13  1  0  0  0  0
 11 14  1  0  0  0  0
  9 10  1  0  0  0  0
  9 11  1  0  0  0  0
  9 18  1  0  0  0  0
  7  8  1  0  0  0  0
  7  9  1  0  0  0  0
 22 23  1  0  0  0  0
 22 24  1  0  0  0  0
 22 25  1  0  0  0  0
 20 21  1  0  0  0  0
 20 22  1  0  0  0  0
M  END
$$$$
default_name
  -OEChem-01062215323D

 25 24  0     1  0  0  0  0  0999 V2000
   -2.7826   -3.8464    0.7821 H   0  0  0  0  0  0  0  0  0  0  0  0
   -2.8156   -2.8034    0.4711 C   0  0  0  0  0  0  0  0  0  0  0  0
   -3.4336   -2.2354    1.1641 H   0  0  0  0  0  0  0  0  0  0  0  0
   -3.2256   -2.7344   -0.5349 H   0  0  0  0  0  0  0  0  0  0  0  0
   -1.4126   -2.2444    0.4801 C   0  0  0  0  0  0  0  0  0  0  0  0
   -0.4686   -2.9534    0.8001 O   0  0  0  0  0  0  0  0  0  0  0  0
   -1.2736   -0.9704    0.1241 N   0  0  0  0  0  0  0  0  0  0  0  0
   -2.0996   -0.4354   -0.1019 H   0  0  0  0  0  0  0  0  0  0  0  0
   -0.0016   -0.2394    0.1271 C   0  0  1  0  0  0  0  0  0  0  0  0
    0.5088   -0.4366    1.0724 H   0  0  0  0  0  0  0  0  0  0  0  0
    0.8818   -0.7460   -1.0301 C   0  0  0  0  0  0  0  0  0  0  0  0
    0.3058   -0.7393   -1.9563 H   0  0  0  0  0  0  0  0  0  0  0  0
    1.7342   -0.0784   -1.1608 H   0  0  0  0  0  0  0  0  0  0  0  0
    1.3869   -2.1716   -0.8290 C   0  0  0  0  0  0  0  0  0  0  0  0
    1.5956   -2.7078    0.2514 O   0  0  0  0  0  0  0  0  0  0  0  0
    1.6151   -2.8553   -1.9658 O   0  0  0  0  0  0  0  0  0  0  0  0
    1.9045   -3.7269   -1.6942 H   0  0  0  0  0  0  0  0  0  0  0  0
   -0.2619    1.2768    0.0259 C   0  0  0  0  0  0  0  0  0  0  0  0
   -1.2990    1.7514    0.4872 O   0  0  0  0  0  0  0  0  0  0  0  0
    0.6621    2.0326   -0.5779 N   0  0  0  0  0  0  0  0  0  0  0  0
    1.4593    1.5569   -0.9880 H   0  0  0  0  0  0  0  0  0  0  0  0
    0.5629    3.4809   -0.7457 C   0  0  0  0  0  0  0  0  0  0  0  0
    0.3549    3.9505    0.2182 H   0  0  0  0  0  0  0  0  0  0  0  0
    1.4975    3.8771   -1.1446 H   0  0  0  0  0  0  0  0  0  0  0  0
   -0.2519    3.7174   -1.4321 H   0  0  0  0  0  0  0  0  0  0  0  0
  5  6  2  0  0  0  0
  5  7  1  0  0  0  0
  2  3  1  0  0  0  0
  2  4  1  0  0  0  0
  2  5  1  0  0  0  0
  1  2  1  0  0  0  0
 18 19  2  0  0  0  0
 18 20  1  0  0  0  0
 16 17  1  0  0  0  0
 14 15  2  0  0  0  0
 14 16  1  0  0  0  0
 11 12  1  0  0  0  0
 11 13  1  0  0  0  0
 11 14  1  0  0  0  0
  9 10  1  0  0  0  0
  9 11  1  0  0  0  0
  9 18  1  0  0  0  0
  7  8  1  0  0  0  0
  7  9  1  0  0  0  0
 22 23  1  0  0  0  0
 22 24  1  0  0  0  0
 22 25  1  0  0  0  0
 20 21  1  0  0  0  0
 20 22  1  0  0  0  0
M  END
$$$$
default_name
  -OEChem-01062215323D

 25 24  0     1  0  0  0  0  0999 V2000
   -2.7826   -3.8464    0.7821 H   0  0  0  0  0  0  0  0  0  0  0  0
   -2.8156   -2.8034    0.4711 C   0  0  0  0  0  0  0  0  0  0  0  0
   -3.4336   -2.2354    1.1641 H   0  0  0  0  0  0  0  0  0  0  0  0
   -3.2256   -2.7344   -0.5349 H   0  0  0  0  0  0  0  0  0  0  0  0
   -1.4126   -2.2444    0.4801 C   0  0  0  0  0  0  0  0  0  0  0  0
   -0.4686   -2.9534    0.8001 O   0  0  0  0  0  0  0  0  0  0  0  0
   -1.2736   -0.9704    0.1241 N   0  0  0  0  0  0  0  0  0  0  0  0
   -2.0996   -0.4354   -0.1019 H   0  0  0  0  0  0  0  0  0  0  0  0
   -0.0016   -0.2394    0.1271 C   0  0  1  0  0  0  0  0  0  0  0  0
    0.5088   -0.4366    1.0724 H   0  0  0  0  0  0  0  0  0  0  0  0
    0.8818   -0.7460   -1.0301 C   0  0  0  0  0  0  0  0  0  0  0  0
    0.3058   -0.7393   -1.9563 H   0  0  0  0  0  0  0  0  0  0  0  0
    1.7342   -0.0784   -1.1608 H   0  0  0  0  0  0  0  0  0  0  0  0
    1.3869   -2.1716   -0.8290 C   0  0  0  0  0  0  0  0  0  0  0  0
    1.5956   -2.7078    0.2514 O   0  0  0  0  0  0  0  0  0  0  0  0
    1.6151   -2.8553   -1.9658 O   0  0  0  0  0  0  0  0  0  0  0  0
    1.9045   -3.7269   -1.6942 H   0  0  0  0  0  0  0  0  0  0  0  0
   -0.2619    1.2768    0.0259 C   0  0  0  0  0  0  0  0  0  0  0  0
   -1.1417    1.7935    0.7133 O   0  0  0  0  0  0  0  0  0  0  0  0
    0.4862    1.9858   -0.8270 N   0  0  0  0  0  0  0  0  0  0  0  0
    1.1470    1.4755   -1.4039 H   0  0  0  0  0  0  0  0  0  0  0  0
    0.3639    3.4277   -1.0303 C   0  0  0  0  0  0  0  0  0  0  0  0
    0.4138    3.9415   -0.0678 H   0  0  0  0  0  0  0  0  0  0  0  0
    1.1704    3.7858   -1.6714 H   0  0  0  0  0  0  0  0  0  0  0  0
   -0.5962    3.6540   -1.4972 H   0  0  0  0  0  0  0  0  0  0  0  0
  5  6  2  0  0  0  0
  5  7  1  0  0  0  0
  2  3  1  0  0  0  0
  2  4  1  0  0  0  0
  2  5  1  0  0  0  0
  1  2  1  0  0  0  0
 18 19  2  0  0  0  0
 18 20  1  0  0  0  0
 16 17  1  0  0  0  0
 14 15  2  0  0  0  0
 14 16  1  0  0  0  0
 11 12  1  0  0  0  0
 11 13  1  0  0  0  0
 11 14  1  0  0  0  0
  9 10  1  0  0  0  0
  9 11  1  0  0  0  0
  9 18  1  0  0  0  0
  7  8  1  0  0  0  0
  7  9  1  0  0  0  0
 22 23  1  0  0  0  0
 22 24  1  0  0  0  0
 22 25  1  0  0  0  0
 20 21  1  0  0  0  0
 20 22  1  0  0  0  0
M  END
$$$$
default_name
  -OEChem-01062215323D

 25 24  0     1  0  0  0  0  0999 V2000
   -2.7826   -3.8464    0.7821 H   0  0  0  0  0  0  0  0  0  0  0  0
   -2.8156   -2.8034    0.4711 C   0  0  0  0  0  0  0  0  0  0  0  0
   -3.4336   -2.2354    1.1641 H   0  0  0  0  0  0  0  0  0  0  0  0
   -3.2256   -2.7344   -0.5349 H   0  0  0  0  0  0  0  0  0  0  0  0
   -1.4126   -2.2444    0.4801 C   0  0  0  0  0  0  0  0  0  0  0  0
   -0.4686   -2.9534    0.8001 O   0  0  0  0  0  0  0  0  0  0  0  0
   -1.2736   -0.9704    0.1241 N   0  0  0  0  0  0  0  0  0  0  0  0
   -2.0996   -0.4354   -0.1019 H   0  0  0  0  0  0  0  0  0  0  0  0
   -0.0016   -0.2394    0.1271 C   0  0  1  0  0  0  0  0  0  0  0  0
    0.5088   -0.4366    1.0724 H   0  0  0  0  0  0  0  0  0  0  0  0
    0.8818   -0.7460   -1.0301 C   0  0  0  0  0  0  0  0  0  0  0  0
    0.3058   -0.7393   -1.9563 H   0  0  0  0  0  0  0  0  0  0  0  0
    1.7342   -0.0784   -1.1608 H   0  0  0  0  0  0  0  0  0  0  0  0
    1.3869   -2.1716   -0.8290 C   0  0  0  0  0  0  0  0  0  0  0  0
    1.5956   -2.7078    0.2514 O   0  0  0  0  0  0  0  0  0  0  0  0
    1.6151   -2.8553   -1.9658 O   0  0  0  0  0  0  0  0  0  0  0  0
    1.9045   -3.7269   -1.6942 H   0  0  0  0  0  0  0  0  0  0  0  0
   -0.2619    1.2768    0.0259 C   0  0  0  0  0  0  0  0  0  0  0  0
   -0.9315    1.8413    0.8899 O   0  0  0  0  0  0  0  0  0  0  0  0
    0.2521    1.9326   -1.0207 N   0  0  0  0  0  0  0  0  0  0  0  0
    0.7381    1.3841   -1.7226 H   0  0  0  0  0  0  0  0  0  0  0  0
    0.0984    3.3673   -1.2522 C   0  0  0  0  0  0  0  0  0  0  0  0
    0.3978    3.9194   -0.3587 H   0  0  0  0  0  0  0  0  0  0  0  0
    0.7188    3.6801   -2.0930 H   0  0  0  0  0  0  0  0  0  0  0  0
   -0.9465    3.5957   -1.4697 H   0  0  0  0  0  0  0  0  0  0  0  0
  5  6  2  0  0  0  0
  5  7  1  0  0  0  0
  2  3  1  0  0  0  0
  2  4  1  0  0  0  0
  2  5  1  0  0  0  0
  1  2  1  0  0  0  0
 18 19  2  0  0  0  0
 18 20  1  0  0  0  0
 16 17  1  0  0  0  0
 14 15  2  0  0  0  0
 14 16  1  0  0  0  0
 11 12  1  0  0  0  0
 11 13  1  0  0  0  0
 11 14  1  0  0  0  0
  9 10  1  0  0  0  0
  9 11  1  0  0  0  0
  9 18  1  0  0  0  0
  7  8  1  0  0  0  0
  7  9  1  0  0  0  0
 22 23  1  0  0  0  0
 22 24  1  0  0  0  0
 22 25  1  0  0  0  0
 20 21  1  0  0  0  0
 20 22  1  0  0  0  0
M  END
$$$$
default_name
  -OEChem-01062215323D

 25 24  0     1  0  0  0  0  0999 V2000
   -2.7826   -3.8464    0.7821 H   0  0  0  0  0  0  0  0  0  0  0  0
   -2.8156   -2.8034    0.4711 C   0  0  0  0  0  0  0  0  0  0  0  0
   -3.4336   -2.2354    1.1641 H   0  0  0  0  0  0  0  0  0  0  0  0
   -3.2256   -2.7344   -0.5349 H   0  0  0  0  0  0  0  0  0  0  0  0
   -1.4126   -2.2444    0.4801 C   0  0  0  0  0  0  0  0  0  0  0  0
   -0.4686   -2.9534    0.8001 O   0  0  0  0  0  0  0  0  0  0  0  0
   -1.2736   -0.9704    0.1241 N   0  0  0  0  0  0  0  0  0  0  0  0
   -2.0996   -0.4354   -0.1019 H   0  0  0  0  0  0  0  0  0  0  0  0
   -0.0016   -0.2394    0.1271 C   0  0  1  0  0  0  0  0  0  0  0  0
    0.5088   -0.4366    1.0724 H   0  0  0  0  0  0  0  0  0  0  0  0
    0.8818   -0.7460   -1.0301 C   0  0  0  0  0  0  0  0  0  0  0  0
    0.3058   -0.7393   -1.9563 H   0  0  0  0  0  0  0  0  0  0  0  0
    1.7342   -0.0784   -1.1608 H   0  0  0  0  0  0  0  0  0  0  0  0
    1.3869   -2.1716   -0.8290 C   0  0  0  0  0  0  0  0  0  0  0  0
    1.5956   -2.7078    0.2514 O   0  0  0  0  0  0  0  0  0  0  0  0
    1.6151   -2.8553   -1.9658 O   0  0  0  0  0  0  0  0  0  0  0  0
    1.9045   -3.7269   -1.6942 H   0  0  0  0  0  0  0  0  0  0  0  0
   -0.2619    1.2768    0.0259 C   0  0  0  0  0  0  0  0  0  0  0  0
   -0.6827    1.8917    1.0048 O   0  0  0  0  0  0  0  0  0  0  0  0
   -0.0243    1.8768   -1.1459 N   0  0  0  0  0  0  0  0  0  0  0  0
    0.2605    1.2887   -1.9224 H   0  0  0  0  0  0  0  0  0  0  0  0
   -0.2157    3.3038   -1.3964 C   0  0  0  0  0  0  0  0  0  0  0  0
    0.3079    3.8855   -0.6346 H   0  0  0  0  0  0  0  0  0  0  0  0
    0.1734    3.5673   -2.3807 H   0  0  0  0  0  0  0  0  0  0  0  0
   -1.2788    3.5465   -1.3514 H   0  0  0  0  0  0  0  0  0  0  0  0
  5  6  2  0  0  0  0
  5  7  1  0  0  0  0
  2  3  1  0  0  0  0
  2  4  1  0  0  0  0
  2  5  1  0  0  0  0
  1  2  1  0  0  0  0
 18 19  2  0  0  0  0
 18 20  1  0  0  0  0
 16 17  1  0  0  0  0
 14 15  2  0  0  0  0
 14 16  1  0  0  0  0
 11 12  1  0  0  0  0
 11 13  1  0  0  0  0
 11 14  1  0  0  0  0
  9 10  1  0  0  0  0
  9 11  1  0  0  0  0
  9 18  1  0  0  0  0
  7  8  1  0  0  0  0
  7  9  1  0  0  0  0
 22 23  1  0  0  0  0
 22 24  1  0  0  0  0
 22 25  1  0  0  0  0
 20 21  1  0  0  0  0
 20 22  1  0  0  0  0
M  END
$$$$
default_name
  -OEChem-01062215323D

 25 24  0     1  0  0  0  0  0999 V2000
   -2.7826   -3.8464    0.7821 H   0  0  0  0  0  0  0  0  0  0  0  0
   -2.8156   -2.8034    0.4711 C   0  0  0  0  0  0  0  0  0  0  0  0
   -3.4336   -2.2354    1.1641 H   0  0  0  0  0  0  0  0  0  0  0  0
   -3.2256   -2.7344   -0.5349 H   0  0  0  0  0  0  0  0  0  0  0  0
   -1.4126   -2.2444    0.4801 C   0  0  0  0  0  0  0  0  0  0  0  0
   -0.4686   -2.9534    0.8001 O   0  0  0  0  0  0  0  0  0  0  0  0
   -1.2736   -0.9704    0.1241 N   0  0  0  0  0  0  0  0  0  0  0  0
   -2.0996   -0.4354   -0.1019 H   0  0  0  0  0  0  0  0  0  0  0  0
   -0.0016   -0.2394    0.1271 C   0  0  1  0  0  0  0  0  0  0  0  0
    0.5088   -0.4366    1.0724 H   0  0  0  0  0  0  0  0  0  0  0  0
    0.8818   -0.7460   -1.0301 C   0  0  0  0  0  0  0  0  0  0  0  0
    0.3058   -0.7393   -1.9563 H   0  0  0  0  0  0  0  0  0  0  0  0
    1.7342   -0.0784   -1.1608 H   0  0  0  0  0  0  0  0  0  0  0  0
    1.3869   -2.1716   -0.8290 C   0  0  0  0  0  0  0  0  0  0  0  0
    1.5956   -2.7078    0.2514 O   0  0  0  0  0  0  0  0  0  0  0  0
    1.6151   -2.8553   -1.9658 O   0  0  0  0  0  0  0  0  0  0  0  0
    1.9045   -3.7269   -1.6942 H   0  0  0  0  0  0  0  0  0  0  0  0
   -0.2619    1.2768    0.0259 C   0  0  0  0  0  0  0  0  0  0  0  0
   -0.4122    1.9412    1.0503 O   0  0  0  0  0  0  0  0  0  0  0  0
   -0.3241    1.8221   -1.1941 N   0  0  0  0  0  0  0  0  0  0  0  0
   -0.2533    1.1960   -1.9897 H   0  0  0  0  0  0  0  0  0  0  0  0
   -0.5568    3.2414   -1.4529 C   0  0  0  0  0  0  0  0  0  0  0  0
    0.1502    3.8423   -0.8767 H   0  0  0  0  0  0  0  0  0  0  0  0
   -0.4285    3.4550   -2.5148 H   0  0  0  0  0  0  0  0  0  0  0  0
   -1.5704    3.5099   -1.1504 H   0  0  0  0  0  0  0  0  0  0  0  0
  5  6  2  0  0  0  0
  5  7  1  0  0  0  0
  2  3  1  0  0  0  0
  2  4  1  0  0  0  0
  2  5  1  0  0  0  0
  1  2  1  0  0  0  0
 18 19  2  0  0  0  0
 18 20  1  0  0  0  0
 16 17  1  0  0  0  0
 14 15  2  0  0  0  0
 14 16  1  0  0  0  0
 11 12  1  0  0  0  0
 11 13  1  0  0  0  0
 11 14  1  0  0  0  0
  9 10  1  0  0  0  0
  9 11  1  0  0  0  0
  9 18  1  0  0  0  0
  7  8  1  0  0  0  0
  7  9  1  0  0  0  0
 22 23  1  0  0  0  0
 22 24  1  0  0  0  0
 22 25  1  0  0  0  0
 20 21  1  0  0  0  0
 20 22  1  0  0  0  0
M  END
$$$$
default_name
  -OEChem-01062215323D

 25 24  0     1  0  0  0  0  0999 V2000
   -2.7826   -3.8464    0.7821 H   0  0  0  0  0  0  0  0  0  0  0  0
   -2.8156   -2.8034    0.4711 C   0  0  0  0  0  0  0  0  0  0  0  0
   -3.4336   -2.2354    1.1641 H   0  0  0  0  0  0  0  0  0  0  0  0
   -3.2256   -2.7344   -0.5349 H   0  0  0  0  0  0  0  0  0  0  0  0
   -1.4126   -2.2444    0.4801 C   0  0  0  0  0  0  0  0  0  0  0  0
   -0.4686   -2.9534    0.8001 O   0  0  0  0  0  0  0  0  0  0  0  0
   -1.2736   -0.9704    0.1241 N   0  0  0  0  0  0  0  0  0  0  0  0
   -2.0996   -0.4354   -0.1019 H   0  0  0  0  0  0  0  0  0  0  0  0
   -0.0016   -0.2394    0.1271 C   0  0  1  0  0  0  0  0  0  0  0  0
    0.5088   -0.4366    1.0724 H   0  0  0  0  0  0  0  0  0  0  0  0
    0.8818   -0.7460   -1.0301 C   0  0  0  0  0  0  0  0  0  0  0  0
    0.3058   -0.7393   -1.9563 H   0  0  0  0  0  0  0  0  0  0  0  0
    1.7342   -0.0784   -1.1608 H   0  0  0  0  0  0  0  0  0  0  0  0
    1.3869   -2.1716   -0.8290 C   0  0  0  0  0  0  0  0  0  0  0  0
    1.5956   -2.7078    0.2514 O   0  0  0  0  0  0  0  0  0  0  0  0
    1.6151   -2.8553   -1.9658 O   0  0  0  0  0  0  0  0  0  0  0  0
    1.9045   -3.7269   -1.6942 H   0  0  0  0  0  0  0  0  0  0  0  0
   -0.2619    1.2768    0.0259 C   0  0  0  0  0  0  0  0  0  0  0  0
   -0.1385    1.9864    1.0233 O   0  0  0  0  0  0  0  0  0  0  0  0
   -0.6268    1.7723   -1.1620 N   0  0  0  0  0  0  0  0  0  0  0  0
   -0.7683    1.1123   -1.9198 H   0  0  0  0  0  0  0  0  0  0  0  0
   -0.9017    3.1845   -1.4180 C   0  0  0  0  0  0  0  0  0  0  0  0
   -0.0644    3.7926   -1.0686 H   0  0  0  0  0  0  0  0  0  0  0  0
   -1.0459    3.3509   -2.4863 H   0  0  0  0  0  0  0  0  0  0  0  0
   -1.8017    3.4882   -0.8804 H   0  0  0  0  0  0  0  0  0  0  0  0
  5  6  2  0  0  0  0
  5  7  1  0  0  0  0
  2  3  1  0  0  0  0
  2  4  1  0  0  0  0
  2  5  1  0  0  0  0
  1  2  1  0  0  0  0
 18 19  2  0  0  0  0
 18 20  1  0  0  0  0
 16 17  1  0  0  0  0
 14 15  2  0  0  0  0
 14 16  1  0  0  0  0
 11 12  1  0  0  0  0
 11 13  1  0  0  0  0
 11 14  1  0  0  0  0
  9 10  1  0  0  0  0
  9 11  1  0  0  0  0
  9 18  1  0  0  0  0
  7  8  1  0  0  0  0
  7  9  1  0  0  0  0
 22 23  1  0  0  0  0
 22 24  1  0  0  0  0
 22 25  1  0  0  0  0
 20 21  1  0  0  0  0
 20 22  1  0  0  0  0
M  END
$$$$
default_name
  -OEChem-01062215323D

 25 24  0     1  0  0  0  0  0999 V2000
   -2.7826   -3.8464    0.7821 H   0  0  0  0  0  0  0  0  0  0  0  0
   -2.8156   -2.8034    0.4711 C   0  0  0  0  0  0  0  0  0  0  0  0
   -3.4336   -2.2354    1.1641 H   0  0  0  0  0  0  0  0  0  0  0  0
   -3.2256   -2.7344   -0.5349 H   0  0  0  0  0  0  0  0  0  0  0  0
   -1.4126   -2.2444    0.4801 C   0  0  0  0  0  0  0  0  0  0  0  0
   -0.4686   -2.9534    0.8001 O   0  0  0  0  0  0  0  0  0  0  0  0
   -1.2736   -0.9704    0.1241 N   0  0  0  0  0  0  0  0  0  0  0  0
   -2.0996   -0.4354   -0.1019 H   0  0  0  0  0  0  0  0  0  0  0  0
   -0.0016   -0.2394    0.1271 C   0  0  1  0  0  0  0  0  0  0  0  0
    0.5088   -0.4366    1.0724 H   0  0  0  0  0  0  0  0  0  0  0  0
    0.8818   -0.7460   -1.0301 C   0  0  0  0  0  0  0  0  0  0  0  0
    0.3058   -0.7393   -1.9563 H   0  0  0  0  0  0  0  0  0  0  0  0
    1.7342   -0.0784   -1.1608 H   0  0  0  0  0  0  0  0  0  0  0  0
    1.3869   -2.1716   -0.8290 C   0  0  0  0  0  0  0  0  0  0  0  0
    1.5956   -2.7078    0.2514 O   0  0  0  0  0  0  0  0  0  0  0  0
    1.6151   -2.8553   -1.9658 O   0  0  0  0  0  0  0  0  0  0  0  0
    1.9045   -3.7269   -1.6942 H   0  0  0  0  0  0  0  0  0  0  0  0
   -0.2619    1.2768    0.0259 C   0  0  0  0  0  0  0  0  0  0  0  0
    0.1197    2.0242    0.9255 O   0  0  0  0  0  0  0  0  0  0  0  0
   -0.9119    1.7307   -1.0517 N   0  0  0  0  0  0  0  0  0  0  0  0
   -1.2493    1.0432   -1.7175 H   0  0  0  0  0  0  0  0  0  0  0  0
   -1.2269    3.1370   -1.2939 C   0  0  0  0  0  0  0  0  0  0  0  0
   -0.3214    3.7399   -1.1972 H   0  0  0  0  0  0  0  0  0  0  0  0
   -1.6368    3.2621   -2.2970 H   0  0  0  0  0  0  0  0  0  0  0  0
   -1.9566    3.4830   -0.5598 H   0  0  0  0  0  0  0  0  0  0  0  0
  5  6  2  0  0  0  0
  5  7  1  0  0  0  0
  2  3  1  0  0  0  0
  2  4  1  0  0  0  0
  2  5  1  0  0  0  0
  1  2  1  0  0  0  0
 18 19  2  0  0  0  0
 18 20  1  0  0  0  0
 16 17  1  0  0  0  0
 14 15  2  0  0  0  0
 14 16  1  0  0  0  0
 11 12  1  0  0  0  0
 11 13  1  0  0  0  0
 11 14  1  0  0  0  0
  9 10  1  0  0  0  0
  9 11  1  0  0  0  0
  9 18  1  0  0  0  0
  7  8  1  0  0  0  0
  7  9  1  0  0  0  0
 22 23  1  0  0  0  0
 22 24  1  0  0  0  0
 22 25  1  0  0  0  0
 20 21  1  0  0  0  0
 20 22  1  0  0  0  0
M  END
$$$$
default_name
  -OEChem-01062215323D

 25 24  0     1  0  0  0  0  0999 V2000
   -2.7826   -3.8464    0.7821 H   0  0  0  0  0  0  0  0  0  0  0  0
   -2.8156   -2.8034    0.4711 C   0  0  0  0  0  0  0  0  0  0  0  0
   -3.4336   -2.2354    1.1641 H   0  0  0  0  0  0  0  0  0  0  0  0
   -3.2256   -2.7344   -0.5349 H   0  0  0  0  0  0  0  0  0  0  0  0
   -1.4126   -2.2444    0.4801 C   0  0  0  0  0  0  0  0  0  0  0  0
   -0.4686   -2.9534    0.8001 O   0  0  0  0  0  0  0  0  0  0  0  0
   -1.2736   -0.9704    0.1241 N   0  0  0  0  0  0  0  0  0  0  0  0
   -2.0996   -0.4354   -0.1019 H   0  0  0  0  0  0  0  0  0  0  0  0
   -0.0016   -0.2394    0.1271 C   0  0  1  0  0  0  0  0  0  0  0  0
    0.5088   -0.4366    1.0724 H   0  0  0  0  0  0  0  0  0  0  0  0
    0.8818   -0.7460   -1.0301 C   0  0  0  0  0  0  0  0  0  0  0  0
    0.3058   -0.7393   -1.9563 H   0  0  0  0  0  0  0  0  0  0  0  0
    1.7342   -0.0784   -1.1608 H   0  0  0  0  0  0  0  0  0  0  0  0
    1.3869   -2.1716   -0.8290 C   0  0  0  0  0  0  0  0  0  0  0  0
    1.5956   -2.7078    0.2514 O   0  0  0  0  0  0  0  0  0  0  0  0
    1.6151   -2.8553   -1.9658 O   0  0  0  0  0  0  0  0  0  0  0  0
    1.9045   -3.7269   -1.6942 H   0  0  0  0  0  0  0  0  0  0  0  0
   -0.2619    1.2768    0.0259 C   0  0  0  0  0  0  0  0  0  0  0  0
    0.3449    2.0520    0.7637 O   0  0  0  0  0  0  0  0  0  0  0  0
   -1.1599    1.7002   -0.8707 N   0  0  0  0  0  0  0  0  0  0  0  0
   -1.6637    0.9935   -1.3967 H   0  0  0  0  0  0  0  0  0  0  0  0
   -1.5103    3.1020   -1.0893 C   0  0  0  0  0  0  0  0  0  0  0  0
   -0.6033    3.6878   -1.2536 H   0  0  0  0  0  0  0  0  0  0  0  0
   -2.1609    3.1947   -1.9598 H   0  0  0  0  0  0  0  0  0  0  0  0
   -2.0248    3.4946   -0.2105 H   0  0  0  0  0  0  0  0  0  0  0  0
  5  6  2  0  0  0  0
  5  7  1  0  0  0  0
  2  3  1  0  0  0  0
  2  4  1  0  0  0  0
  2  5  1  0  0  0  0
  1  2  1  0  0  0  0
 18 19  2  0  0  0  0
 18 20  1  0  0  0  0
 16 17  1  0  0  0  0
 14 15  2  0  0  0  0
 14 16  1  0  0  0  0
 11 12  1  0  0  0  0
 11 13  1  0  0  0  0
 11 14  1  0  0  0  0
  9 10  1  0  0  0  0
  9 11  1  0  0  0  0
  9 18  1  0  0  0  0
  7  8  1  0  0  0  0
  7  9  1  0  0  0  0
 22 23  1  0  0  0  0
 22 24  1  0  0  0  0
 22 25  1  0  0  0  0
 20 21  1  0  0  0  0
 20 22  1  0  0  0  0
M  END
$$$$
default_name
  -OEChem-01062215323D

 25 24  0     1  0  0  0  0  0999 V2000
   -2.7826   -3.8464    0.7821 H   0  0  0  0  0  0  0  0  0  0  0  0
   -2.8156   -2.8034    0.4711 C   0  0  0  0  0  0  0  0  0  0  0  0
   -3.4336   -2.2354    1.1641 H   0  0  0  0  0  0  0  0  0  0  0  0
   -3.2256   -2.7344   -0.5349 H   0  0  0  0  0  0  0  0  0  0  0  0
   -1.4126   -2.2444    0.4801 C   0  0  0  0  0  0  0  0  0  0  0  0
   -0.4686   -2.9534    0.8001 O   0  0  0  0  0  0  0  0  0  0  0  0
   -1.2736   -0.9704    0.1241 N   0  0  0  0  0  0  0  0  0  0  0  0
   -2.0996   -0.4354   -0.1019 H   0  0  0  0  0  0  0  0  0  0  0  0
   -0.0016   -0.2394    0.1271 C   0  0  1  0  0  0  0  0  0  0  0  0
    0.5088   -0.4366    1.0724 H   0  0  0  0  0  0  0  0  0  0  0  0
    0.8818   -0.7460   -1.0301 C   0  0  0  0  0  0  0  0  0  0  0  0
    0.3058   -0.7393   -1.9563 H   0  0  0  0  0  0  0  0  0  0  0  0
    1.7342   -0.0784   -1.1608 H   0  0  0  0  0  0  0  0  0  0  0  0
    1.3869   -2.1716   -0.8290 C   0  0  0  0  0  0  0  0  0  0  0  0
    1.5956   -2.7078    0.2514 O   0  0  0  0  0  0  0  0  0  0  0  0
    1.6151   -2.8553   -1.9658 O   0  0  0  0  0  0  0  0  0  0  0  0
    1.9045   -3.7269   -1.6942 H   0  0  0  0  0  0  0  0  0  0  0  0
   -0.2619    1.2768    0.0259 C   0  0  0  0  0  0  0  0  0  0  0  0
    0.5216    2.0680    0.5489 O   0  0  0  0  0  0  0  0  0  0  0  0
   -1.3540    1.6829   -0.6315 N   0  0  0  0  0  0  0  0  0  0  0  0
   -1.9831    0.9665   -0.9791 H   0  0  0  0  0  0  0  0  0  0  0  0
   -1.7326    3.0820   -0.8179 C   0  0  0  0  0  0  0  0  0  0  0  0
   -0.8908    3.6397   -1.2341 H   0  0  0  0  0  0  0  0  0  0  0  0
   -2.5825    3.1531   -1.4978 H   0  0  0  0  0  0  0  0  0  0  0  0
   -2.0016    3.5223    0.1438 H   0  0  0  0  0  0  0  0  0  0  0  0
  5  6  2  0  0  0  0
  5  7  1  0  0  0  0
  2  3  1  0  0  0  0
  2  4  1  0  0  0  0
  2  5  1  0  0  0  0
  1  2  1  0  0  0  0
 18 19  2  0  0  0  0
 18 20  1  0  0  0  0
 16 17  1  0  0  0  0
 14 15  2  0  0  0  0
 14 16  1  0  0  0  0
 11 12  1  0  0  0  0
 11 13  1  0  0  0  0
 11 14  1  0  0  0  0
  9 10  1  0  0  0  0
  9 11  1  0  0  0  0
  9 18  1  0  0  0  0
  7  8  1  0  0  0  0
  7  9  1  0  0  0  0
 22 23  1  0  0  0  0
 22 24  1  0  0  0  0
 22 25  1  0  0  0  0
 20 21  1  0  0  0  0
 20 22  1  0  0  0  0
M  END
$$$$
default_name
  -OEChem-01062215323D

 25 24  0     1  0  0  0  0  0999 V2000
   -2.7826   -3.8464    0.7821 H   0  0  0  0  0  0  0  0  0  0  0  0
   -2.8156   -2.8034    0.4711 C   0  0  0  0  0  0  0  0  0  0  0  0
   -3.4336   -2.2354    1.1641 H   0  0  0  0  0  0  0  0  0  0  0  0
   -3.2256   -2.7344   -0.5349 H   0  0  0  0  0  0  0  0  0  0  0  0
   -1.4126   -2.2444    0.4801 C   0  0  0  0  0  0  0  0  0  0  0  0
   -0.4686   -2.9534    0.8001 O   0  0  0  0  0  0  0  0  0  0  0  0
   -1.2736   -0.9704    0.1241 N   0  0  0  0  0  0  0  0  0  0  0  0
   -2.0996   -0.4354   -0.1019 H   0  0  0  0  0  0  0  0  0  0  0  0
   -0.0016   -0.2394    0.1271 C   0  0  1  0  0  0  0  0  0  0  0  0
    0.5088   -0.4366    1.0724 H   0  0  0  0  0  0  0  0  0  0  0  0
    0.8818   -0.7460   -1.0301 C   0  0  0  0  0  0  0  0  0  0  0  0
    0.3058   -0.7393   -1.9563 H   0  0  0  0  0  0  0  0  0  0  0  0
    1.7342   -0.0784   -1.1608 H   0  0  0  0  0  0  0  0  0  0  0  0
    1.3869   -2.1716   -0.8290 C   0  0  0  0  0  0  0  0  0  0  0  0
    1.5956   -2.7078    0.2514 O   0  0  0  0  0  0  0  0  0  0  0  0
    1.6151   -2.8553   -1.9658 O   0  0  0  0  0  0  0  0  0  0  0  0
    1.9045   -3.7269   -1.6942 H   0  0  0  0  0  0  0  0  0  0  0  0
   -0.2619    1.2768    0.0259 C   0  0  0  0  0  0  0  0  0  0  0  0
    0.6380    2.0711    0.2957 O   0  0  0  0  0  0  0  0  0  0  0  0
   -1.4808    1.6799   -0.3503 N   0  0  0  0  0  0  0  0  0  0  0  0
   -2.1859    0.9642   -0.4934 H   0  0  0  0  0  0  0  0  0  0  0  0
   -1.8785    3.0783   -0.4984 C   0  0  0  0  0  0  0  0  0  0  0  0
   -1.1644    3.5990   -1.1399 H   0  0  0  0  0  0  0  0  0  0  0  0
   -2.8728    3.1404   -0.9424 H   0  0  0  0  0  0  0  0  0  0  0  0
   -1.8884    3.5641    0.4789 H   0  0  0  0  0  0  0  0  0  0  0  0
  5  6  2  0  0  0  0
  5  7  1  0  0  0  0
  2  3  1  0  0  0  0
  2  4  1  0  0  0  0
  2  5  1  0  0  0  0
  1  2  1  0  0  0  0
 18 19  2  0  0  0  0
 18 20  1  0  0  0  0
 16 17  1  0  0  0  0
 14 15  2  0  0  0  0
 14 16  1  0  0  0  0
 11 12  1  0  0  0  0
 11 13  1  0  0  0  0
 11 14  1  0  0  0  0
  9 10  1  0  0  0  0
  9 11  1  0  0  0  0
  9 18  1  0  0  0  0
  7  8  1  0  0  0  0
  7  9  1  0  0  0  0
 22 23  1  0  0  0  0
 22 24  1  0  0  0  0
 22 25  1  0  0  0  0
 20 21  1  0  0  0  0
 20 22  1  0  0  0  0
M  END
$$$$
default_name
  -OEChem-01062215323D

 25 24  0     1  0  0  0  0  0999 V2000
   -2.7826   -3.8464    0.7821 H   0  0  0  0  0  0  0  0  0  0  0  0
   -2.8156   -2.8034    0.4711 C   0  0  0  0  0  0  0  0  0  0  0  0
   -3.4336   -2.2354    1.1641 H   0  0  0  0  0  0  0  0  0  0  0  0
   -3.2256   -2.7344   -0.5349 H   0  0  0  0  0  0  0  0  0  0  0  0
   -1.4126   -2.2444    0.4801 C   0  0  0  0  0  0  0  0  0  0  0  0
   -0.4686   -2.9534    0.8001 O   0  0  0  0  0  0  0  0  0  0  0  0
   -1.2736   -0.9704    0.1241 N   0  0  0  0  0  0  0  0  0  0  0  0
   -2.0996   -0.4354   -0.1019 H   0  0  0  0  0  0  0  0  0  0  0  0
   -0.0016   -0.2394    0.1271 C   0  0  1  0  0  0  0  0  0  0  0  0
    0.5088   -0.4366    1.0724 H   0  0  0  0  0  0  0  0  0  0  0  0
    0.8818   -0.7460   -1.0301 C   0  0  0  0  0  0  0  0  0  0  0  0
    0.3058   -0.7393   -1.9563 H   0  0  0  0  0  0  0  0  0  0  0  0
    1.7342   -0.0784   -1.1608 H   0  0  0  0  0  0  0  0  0  0  0  0
    1.3869   -2.1716   -0.8290 C   0  0  0  0  0  0  0  0  0  0  0  0
    1.5956   -2.7078    0.2514 O   0  0  0  0  0  0  0  0  0  0  0  0
    1.6151   -2.8553   -1.9658 O   0  0  0  0  0  0  0  0  0  0  0  0
    1.9045   -3.7269   -1.6942 H   0  0  0  0  0  0  0  0  0  0  0  0
   -0.2619    1.2768    0.0259 C   0  0  0  0  0  0  0  0  0  0  0  0
    0.6860    2.0610    0.0213 O   0  0  0  0  0  0  0  0  0  0  0  0
   -1.5318    1.6915   -0.0463 N   0  0  0  0  0  0  0  0  0  0  0  0
   -2.2581    0.9866    0.0276 H   0  0  0  0  0  0  0  0  0  0  0  0
   -1.9382    3.0911   -0.1524 C   0  0  0  0  0  0  0  0  0  0  0  0
   -1.4054    3.5685   -0.9776 H   0  0  0  0  0  0  0  0  0  0  0  0
   -3.0121    3.1573   -0.3315 H   0  0  0  0  0  0  0  0  0  0  0  0
   -1.6932    3.6172    0.7720 H   0  0  0  0  0  0  0  0  0  0  0  0
  5  6  2  0  0  0  0
  5  7  1  0  0  0  0
  2  3  1  0  0  0  0
  2  4  1  0  0  0  0
  2  5  1  0  0  0  0
  1  2  1  0  0  0  0
 18 19  2  0  0  0  0
 18 20  1  0  0  0  0
 16 17  1  0  0  0  0
 14 15  2  0  0  0  0
 14 16  1  0  0  0  0
 11 12  1  0  0  0  0
 11 13  1  0  0  0  0
 11 14  1  0  0  0  0
  9 10  1  0  0  0  0
  9 11  1  0  0  0  0
  9 18  1  0  0  0  0
  7  8  1  0  0  0  0
  7  9  1  0  0  0  0
 22 23  1  0  0  0  0
 22 24  1  0  0  0  0
 22 25  1  0  0  0  0
 20 21  1  0  0  0  0
 20 22  1  0  0  0  0
M  END
$$$$
default_name
  -OEChem-01062215323D

 25 24  0     1  0  0  0  0  0999 V2000
   -2.7826   -3.8464    0.7821 H   0  0  0  0  0  0  0  0  0  0  0  0
   -2.8156   -2.8034    0.4711 C   0  0  0  0  0  0  0  0  0  0  0  0
   -3.4336   -2.2354    1.1641 H   0  0  0  0  0  0  0  0  0  0  0  0
   -3.2256   -2.7344   -0.5349 H   0  0  0  0  0  0  0  0  0  0  0  0
   -1.4126   -2.2444    0.4801 C   0  0  0  0  0  0  0  0  0  0  0  0
   -0.4686   -2.9534    0.8001 O   0  0  0  0  0  0  0  0  0  0  0  0
   -1.2736   -0.9704    0.1241 N   0  0  0  0  0  0  0  0  0  0  0  0
   -2.0996   -0.4354   -0.1019 H   0  0  0  0  0  0  0  0  0  0  0  0
   -0.0016   -0.2394    0.1271 C   0  0  1  0  0  0  0  0  0  0  0  0
    0.5088   -0.4366    1.0724 H   0  0  0  0  0  0  0  0  0  0  0  0
    0.8818   -0.7460   -1.0301 C   0  0  0  0  0  0  0  0  0  0  0  0
    0.3058   -0.7393   -1.9563 H   0  0  0  0  0  0  0  0  0  0  0  0
    1.7342   -0.0784   -1.1608 H   0  0  0  0  0  0  0  0  0  0  0  0
    1.3869   -2.1716   -0.8290 C   0  0  0  0  0  0  0  0  0  0  0  0
    1.5956   -2.7078    0.2514 O   0  0  0  0  0  0  0  0  0  0  0  0
    1.6151   -2.8553   -1.9658 O   0  0  0  0  0  0  0  0  0  0  0  0
    1.9045   -3.7269   -1.6942 H   0  0  0  0  0  0  0  0  0  0  0  0
   -0.2619    1.2768    0.0259 C   0  0  0  0  0  0  0  0  0  0  0  0
    0.6624    2.0385   -0.2554 O   0  0  0  0  0  0  0  0  0  0  0  0
   -1.5034    1.7168    0.2599 N   0  0  0  0  0  0  0  0  0  0  0  0
   -2.1948    1.0322    0.5482 H   0  0  0  0  0  0  0  0  0  0  0  0
   -1.9076    3.1197    0.1965 C   0  0  0  0  0  0  0  0  0  0  0  0
   -1.5973    3.5502   -0.7581 H   0  0  0  0  0  0  0  0  0  0  0  0
   -2.9908    3.2026    0.2933 H   0  0  0  0  0  0  0  0  0  0  0  0
   -1.4291    3.6779    1.0030 H   0  0  0  0  0  0  0  0  0  0  0  0
  5  6  2  0  0  0  0
  5  7  1  0  0  0  0
  2  3  1  0  0  0  0
  2  4  1  0  0  0  0
  2  5  1  0  0  0  0
  1  2  1  0  0  0  0
 18 19  2  0  0  0  0
 18 20  1  0  0  0  0
 16 17  1  0  0  0  0
 14 15  2  0  0  0  0
 14 16  1  0  0  0  0
 11 12  1  0  0  0  0
 11 13  1  0  0  0  0
 11 14  1  0  0  0  0
  9 10  1  0  0  0  0
  9 11  1  0  0  0  0
  9 18  1  0  0  0  0
  7  8  1  0  0  0  0
  7  9  1  0  0  0  0
 22 23  1  0  0  0  0
 22 24  1  0  0  0  0
 22 25  1  0  0  0  0
 20 21  1  0  0  0  0
 20 22  1  0  0  0  0
M  END
$$$$
default_name
  -OEChem-01062215323D

 25 24  0     1  0  0  0  0  0999 V2000
   -2.7826   -3.8464    0.7821 H   0  0  0  0  0  0  0  0  0  0  0  0
   -2.8156   -2.8034    0.4711 C   0  0  0  0  0  0  0  0  0  0  0  0
   -3.4336   -2.2354    1.1641 H   0  0  0  0  0  0  0  0  0  0  0  0
   -3.2256   -2.7344   -0.5349 H   0  0  0  0  0  0  0  0  0  0  0  0
   -1.4126   -2.2444    0.4801 C   0  0  0  0  0  0  0  0  0  0  0  0
   -0.4686   -2.9534    0.8001 O   0  0  0  0  0  0  0  0  0  0  0  0
   -1.2736   -0.9704    0.1241 N   0  0  0  0  0  0  0  0  0  0  0  0
   -2.0996   -0.4354   -0.1019 H   0  0  0  0  0  0  0  0  0  0  0  0
   -0.0016   -0.2394    0.1271 C   0  0  1  0  0  0  0  0  0  0  0  0
    0.5088   -0.4366    1.0724 H   0  0  0  0  0  0  0  0  0  0  0  0
    0.8818   -0.7460   -1.0301 C   0  0  0  0  0  0  0  0  0  0  0  0
    0.3058   -0.7393   -1.9563 H   0  0  0  0  0  0  0  0  0  0  0  0
    1.7342   -0.0784   -1.1608 H   0  0  0  0  0  0  0  0  0  0  0  0
    1.3869   -2.1716   -0.8290 C   0  0  0  0  0  0  0  0  0  0  0  0
    1.5956   -2.7078    0.2514 O   0  0  0  0  0  0  0  0  0  0  0  0
    1.6151   -2.8553   -1.9658 O   0  0  0  0  0  0  0  0  0  0  0  0
    1.9045   -3.7269   -1.6942 H   0  0  0  0  0  0  0  0  0  0  0  0
   -0.2619    1.2768    0.0259 C   0  0  0  0  0  0  0  0  0  0  0  0
    0.5687    2.0050   -0.5158 O   0  0  0  0  0  0  0  0  0  0  0  0
   -1.3977    1.7541    0.5473 N   0  0  0  0  0  0  0  0  0  0  0  0
   -2.0005    1.0979    1.0330 H   0  0  0  0  0  0  0  0  0  0  0  0
   -1.7887    3.1619    0.5244 C   0  0  0  0  0  0  0  0  0  0  0  0
   -1.7272    3.5454   -0.4965 H   0  0  0  0  0  0  0  0  0  0  0  0
   -2.8105    3.2734    0.8894 H   0  0  0  0  0  0  0  0  0  0  0  0
   -1.1141    3.7422    1.1563 H   0  0  0  0  0  0  0  0  0  0  0  0
  5  6  2  0  0  0  0
  5  7  1  0  0  0  0
  2  3  1  0  0  0  0
  2  4  1  0  0  0  0
  2  5  1  0  0  0  0
  1  2  1  0  0  0  0
 18 19  2  0  0  0  0
 18 20  1  0  0  0  0
 16 17  1  0  0  0  0
 14 15  2  0  0  0  0
 14 16  1  0  0  0  0
 11 12  1  0  0  0  0
 11 13  1  0  0  0  0
 11 14  1  0  0  0  0
  9 10  1  0  0  0  0
  9 11  1  0  0  0  0
  9 18  1  0  0  0  0
  7  8  1  0  0  0  0
  7  9  1  0  0  0  0
 22 23  1  0  0  0  0
 22 24  1  0  0  0  0
 22 25  1  0  0  0  0
 20 21  1  0  0  0  0
 20 22  1  0  0  0  0
M  END
$$$$
default_name
  -OEChem-01062215323D

 25 24  0     1  0  0  0  0  0999 V2000
   -2.7826   -3.8464    0.7821 H   0  0  0  0  0  0  0  0  0  0  0  0
   -2.8156   -2.8034    0.4711 C   0  0  0  0  0  0  0  0  0  0  0  0
   -3.4336   -2.2354    1.1641 H   0  0  0  0  0  0  0  0  0  0  0  0
   -3.2256   -2.7344   -0.5349 H   0  0  0  0  0  0  0  0  0  0  0  0
   -1.4126   -2.2444    0.4801 C   0  0  0  0  0  0  0  0  0  0  0  0
   -0.4686   -2.9534    0.8001 O   0  0  0  0  0  0  0  0  0  0  0  0
   -1.2736   -0.9704    0.1241 N   0  0  0  0  0  0  0  0  0  0  0  0
   -2.0996   -0.4354   -0.1019 H   0  0  0  0  0  0  0  0  0  0  0  0
   -0.0016   -0.2394    0.1271 C   0  0  1  0  0  0  0  0  0  0  0  0
    0.5088   -0.4366    1.0724 H   0  0  0  0  0  0  0  0  0  0  0  0
    0.8818   -0.7460   -1.0301 C   0  0  0  0  0  0  0  0  0  0  0  0
    0.3058   -0.7393   -1.9563 H   0  0  0  0  0  0  0  0  0  0  0  0
    1.7342   -0.0784   -1.1608 H   0  0  0  0  0  0  0  0  0  0  0  0
    1.3869   -2.1716   -0.8290 C   0  0  0  0  0  0  0  0  0  0  0  0
    1.5956   -2.7078    0.2514 O   0  0  0  0  0  0  0  0  0  0  0  0
    1.6151   -2.8553   -1.9658 O   0  0  0  0  0  0  0  0  0  0  0  0
    1.9045   -3.7269   -1.6942 H   0  0  0  0  0  0  0  0  0  0  0  0
   -0.2619    1.2768    0.0259 C   0  0  0  0  0  0  0  0  0  0  0  0
    0.4114    1.9629   -0.7419 O   0  0  0  0  0  0  0  0  0  0  0  0
   -1.2217    1.8009    0.7964 N   0  0  0  0  0  0  0  0  0  0  0  0
   -1.6882    1.1793    1.4489 H   0  0  0  0  0  0  0  0  0  0  0  0
   -1.5897    3.2151    0.8090 C   0  0  0  0  0  0  0  0  0  0  0  0
   -1.7861    3.5544   -0.2104 H   0  0  0  0  0  0  0  0  0  0  0  0
   -2.4834    3.3647    1.4162 H   0  0  0  0  0  0  0  0  0  0  0  0
   -0.7698    3.8057    1.2214 H   0  0  0  0  0  0  0  0  0  0  0  0
  5  6  2  0  0  0  0
  5  7  1  0  0  0  0
  2  3  1  0  0  0  0
  2  4  1  0  0  0  0
  2  5  1  0  0  0  0
  1  2  1  0  0  0  0
 18 19  2  0  0  0  0
 18 20  1  0  0  0  0
 16 17  1  0  0  0  0
 14 15  2  0  0  0  0
 14 16  1  0  0  0  0
 11 12  1  0  0  0  0
 11 13  1  0  0  0  0
 11 14  1  0  0  0  0
  9 10  1  0  0  0  0
  9 11  1  0  0  0  0
  9 18  1  0  0  0  0
  7  8  1  0  0  0  0
  7  9  1  0  0  0  0
 22 23  1  0  0  0  0
 22 24  1  0  0  0  0
 22 25  1  0  0  0  0
 20 21  1  0  0  0  0
 20 22  1  0  0  0  0
M  END
$$$$
default_name
  -OEChem-01062215323D

 25 24  0     1  0  0  0  0  0999 V2000
   -2.7826   -3.8464    0.7821 H   0  0  0  0  0  0  0  0  0  0  0  0
   -2.8156   -2.8034    0.4711 C   0  0  0  0  0  0  0  0  0  0  0  0
   -3.4336   -2.2354    1.1641 H   0  0  0  0  0  0  0  0  0  0  0  0
   -3.2256   -2.7344   -0.5349 H   0  0  0  0  0  0  0  0  0  0  0  0
   -1.4126   -2.2444    0.4801 C   0  0  0  0  0  0  0  0  0  0  0  0
   -0.4686   -2.9534    0.8001 O   0  0  0  0  0  0  0  0  0  0  0  0
   -1.2736   -0.9704    0.1241 N   0  0  0  0  0  0  0  0  0  0  0  0
   -2.0996   -0.4354   -0.1019 H   0  0  0  0  0  0  0  0  0  0  0  0
   -0.0016   -0.2394    0.1271 C   0  0  1  0  0  0  0  0  0  0  0  0
    0.5088   -0.4366    1.0724 H   0  0  0  0  0  0  0  0  0  0  0  0
    0.8818   -0.7460   -1.0301 C   0  0  0  0  0  0  0  0  0  0  0  0
    0.3058   -0.7393   -1.9563 H   0  0  0  0  0  0  0  0  0  0  0  0
    1.7342   -0.0784   -1.1608 H   0  0  0  0  0  0  0  0  0  0  0  0
    1.3869   -2.1716   -0.8290 C   0  0  0  0  0  0  0  0  0  0  0  0
    1.5956   -2.7078    0.2514 O   0  0  0  0  0  0  0  0  0  0  0  0
    1.6151   -2.8553   -1.9658 O   0  0  0  0  0  0  0  0  0  0  0  0
    1.9045   -3.7269   -1.6942 H   0  0  0  0  0  0  0  0  0  0  0  0
   -0.2619    1.2768    0.0259 C   0  0  0  0  0  0  0  0  0  0  0  0
    0.2012    1.9150   -0.9185 O   0  0  0  0  0  0  0  0  0  0  0  0
   -0.9876    1.8541    0.9901 N   0  0  0  0  0  0  0  0  0  0  0  0
   -1.2794    1.2707    1.7676 H   0  0  0  0  0  0  0  0  0  0  0  0
   -1.3242    3.2755    1.0309 C   0  0  0  0  0  0  0  0  0  0  0  0
   -1.7701    3.5765    0.0804 H   0  0  0  0  0  0  0  0  0  0  0  0
   -2.0318    3.4704    1.8378 H   0  0  0  0  0  0  0  0  0  0  0  0
   -0.4196    3.8640    1.1938 H   0  0  0  0  0  0  0  0  0  0  0  0
  5  6  2  0  0  0  0
  5  7  1  0  0  0  0
  2  3  1  0  0  0  0
  2  4  1  0  0  0  0
  2  5  1  0  0  0  0
  1  2  1  0  0  0  0
 18 19  2  0  0  0  0
 18 20  1  0  0  0  0
 16 17  1  0  0  0  0
 14 15  2  0  0  0  0
 14 16  1  0  0  0  0
 11 12  1  0  0  0  0
 11 13  1  0  0  0  0
 11 14  1  0  0  0  0
  9 10  1  0  0  0  0
  9 11  1  0  0  0  0
  9 18  1  0  0  0  0
  7  8  1  0  0  0  0
  7  9  1  0  0  0  0
 22 23  1  0  0  0  0
 22 24  1  0  0  0  0
 22 25  1  0  0  0  0
 20 21  1  0  0  0  0
 20 22  1  0  0  0  0
M  END
$$$$
default_name
  -OEChem-01062215323D

 25 24  0     1  0  0  0  0  0999 V2000
   -2.7826   -3.8464    0.7821 H   0  0  0  0  0  0  0  0  0  0  0  0
   -2.8156   -2.8034    0.4711 C   0  0  0  0  0  0  0  0  0  0  0  0
   -3.4336   -2.2354    1.1641 H   0  0  0  0  0  0  0  0  0  0  0  0
   -3.2256   -2.7344   -0.5349 H   0  0  0  0  0  0  0  0  0  0  0  0
   -1.4126   -2.2444    0.4801 C   0  0  0  0  0  0  0  0  0  0  0  0
   -0.4686   -2.9534    0.8001 O   0  0  0  0  0  0  0  0  0  0  0  0
   -1.2736   -0.9704    0.1241 N   0  0  0  0  0  0  0  0  0  0  0  0
   -2.0996   -0.4354   -0.1019 H   0  0  0  0  0  0  0  0  0  0  0  0
   -0.0016   -0.2394    0.1271 C   0  0  1  0  0  0  0  0  0  0  0  0
    0.5088   -0.4366    1.0724 H   0  0  0  0  0  0  0  0  0  0  0  0
    0.8818   -0.7460   -1.0301 C   0  0  0  0  0  0  0  0  0  0  0  0
    0.3058   -0.7393   -1.9563 H   0  0  0  0  0  0  0  0  0  0  0  0
    1.7342   -0.0784   -1.1608 H   0  0  0  0  0  0  0  0  0  0  0  0
    1.3869   -2.1716   -0.8290 C   0  0  0  0  0  0  0  0  0  0  0  0
    1.5956   -2.7078    0.2514 O   0  0  0  0  0  0  0  0  0  0  0  0
    1.6151   -2.8553   -1.9658 O   0  0  0  0  0  0  0  0  0  0  0  0
    1.9045   -3.7269   -1.6942 H   0  0  0  0  0  0  0  0  0  0  0  0
   -0.2619    1.2768    0.0259 C   0  0  0  0  0  0  0  0  0  0  0  0
   -0.0477    1.8646   -1.0334 O   0  0  0  0  0  0  0  0  0  0  0  0
   -0.7112    1.9099    1.1153 N   0  0  0  0  0  0  0  0  0  0  0  0
   -0.8017    1.3661    1.9674 H   0  0  0  0  0  0  0  0  0  0  0  0
   -1.0102    3.3390    1.1751 C   0  0  0  0  0  0  0  0  0  0  0  0
   -1.6802    3.6104    0.3563 H   0  0  0  0  0  0  0  0  0  0  0  0
   -1.4864    3.5832    2.1255 H   0  0  0  0  0  0  0  0  0  0  0  0
   -0.0873    3.9131    1.0755 H   0  0  0  0  0  0  0  0  0  0  0  0
  5  6  2  0  0  0  0
  5  7  1  0  0  0  0
  2  3  1  0  0  0  0
  2  4  1  0  0  0  0
  2  5  1  0  0  0  0
  1  2  1  0  0  0  0
 18 19  2  0  0  0  0
 18 20  1  0  0  0  0
 16 17  1  0  0  0  0
 14 15  2  0  0  0  0
 14 16  1  0  0  0  0
 11 12  1  0  0  0  0
 11 13  1  0  0  0  0
 11 14  1  0  0  0  0
  9 10  1  0  0  0  0
  9 11  1  0  0  0  0
  9 18  1  0  0  0  0
  7  8  1  0  0  0  0
  7  9  1  0  0  0  0
 22 23  1  0  0  0  0
 22 24  1  0  0  0  0
 22 25  1  0  0  0  0
 20 21  1  0  0  0  0
 20 22  1  0  0  0  0
M  END
$$$$
default_name
  -OEChem-01062215323D

 25 24  0     1  0  0  0  0  0999 V2000
   -2.7826   -3.8464    0.7821 H   0  0  0  0  0  0  0  0  0  0  0  0
   -2.8156   -2.8034    0.4711 C   0  0  0  0  0  0  0  0  0  0  0  0
   -3.4336   -2.2354    1.1641 H   0  0  0  0  0  0  0  0  0  0  0  0
   -3.2256   -2.7344   -0.5349 H   0  0  0  0  0  0  0  0  0  0  0  0
   -1.4126   -2.2444    0.4801 C   0  0  0  0  0  0  0  0  0  0  0  0
   -0.4686   -2.9534    0.8001 O   0  0  0  0  0  0  0  0  0  0  0  0
   -1.2736   -0.9704    0.1241 N   0  0  0  0  0  0  0  0  0  0  0  0
   -2.0996   -0.4354   -0.1019 H   0  0  0  0  0  0  0  0  0  0  0  0
   -0.0016   -0.2394    0.1271 C   0  0  1  0  0  0  0  0  0  0  0  0
    0.5088   -0.4366    1.0724 H   0  0  0  0  0  0  0  0  0  0  0  0
    0.8818   -0.7460   -1.0301 C   0  0  0  0  0  0  0  0  0  0  0  0
    0.3058   -0.7393   -1.9563 H   0  0  0  0  0  0  0  0  0  0  0  0
    1.7342   -0.0784   -1.1608 H   0  0  0  0  0  0  0  0  0  0  0  0
    1.3869   -2.1716   -0.8290 C   0  0  0  0  0  0  0  0  0  0  0  0
    1.5956   -2.7078    0.2514 O   0  0  0  0  0  0  0  0  0  0  0  0
    1.6151   -2.8553   -1.9658 O   0  0  0  0  0  0  0  0  0  0  0  0
    1.9045   -3.7269   -1.6942 H   0  0  0  0  0  0  0  0  0  0  0  0
   -0.2619    1.2768    0.0259 C   0  0  0  0  0  0  0  0  0  0  0  0
   -0.3181    1.8152   -1.0789 O   0  0  0  0  0  0  0  0  0  0  0  0
   -0.4115    1.9645    1.1635 N   0  0  0  0  0  0  0  0  0  0  0  0
   -0.2879    1.4588    2.0346 H   0  0  0  0  0  0  0  0  0  0  0  0
   -0.6691    3.4014    1.2316 C   0  0  0  0  0  0  0  0  0  0  0  0
   -1.5225    3.6536    0.5985 H   0  0  0  0  0  0  0  0  0  0  0  0
   -0.8845    3.6955    2.2596 H   0  0  0  0  0  0  0  0  0  0  0  0
    0.2044    3.9498    0.8745 H   0  0  0  0  0  0  0  0  0  0  0  0
  5  6  2  0  0  0  0
  5  7  1  0  0  0  0
  2  3  1  0  0  0  0
  2  4  1  0  0  0  0
  2  5  1  0  0  0  0
  1  2  1  0  0  0  0
 18 19  2  0  0  0  0
 18 20  1  0  0  0  0
 16 17  1  0  0  0  0
 14 15  2  0  0  0  0
 14 16  1  0  0  0  0
 11 12  1  0  0  0  0
 11 13  1  0  0  0  0
 11 14  1  0  0  0  0
  9 10  1  0  0  0  0
  9 11  1  0  0  0  0
  9 18  1  0  0  0  0
  7  8  1  0  0  0  0
  7  9  1  0  0  0  0
 22 23  1  0  0  0  0
 22 24  1  0  0  0  0
 22 25  1  0  0  0  0
 20 21  1  0  0  0  0
 20 22  1  0  0  0  0
M  END
$$$$
default_name
  -OEChem-01062215323D

 25 24  0     1  0  0  0  0  0999 V2000
   -2.7826   -3.8464    0.7821 H   0  0  0  0  0  0  0  0  0  0  0  0
   -2.8156   -2.8034    0.4711 C   0  0  0  0  0  0  0  0  0  0  0  0
   -3.4336   -2.2354    1.1641 H   0  0  0  0  0  0  0  0  0  0  0  0
   -3.2256   -2.7344   -0.5349 H   0  0  0  0  0  0  0  0  0  0  0  0
   -1.4126   -2.2444    0.4801 C   0  0  0  0  0  0  0  0  0  0  0  0
   -0.4686   -2.9534    0.8001 O   0  0  0  0  0  0  0  0  0  0  0  0
   -1.2736   -0.9704    0.1241 N   0  0  0  0  0  0  0  0  0  0  0  0
   -2.0996   -0.4354   -0.1019 H   0  0  0  0  0  0  0  0  0  0  0  0
   -0.0016   -0.2394    0.1271 C   0  0  1  0  0  0  0  0  0  0  0  0
    0.5088   -0.4366    1.0724 H   0  0  0  0  0  0  0  0  0  0  0  0
    0.8818   -0.7460   -1.0301 C   0  0  0  0  0  0  0  0  0  0  0  0
    0.3058   -0.7393   -1.9563 H   0  0  0  0  0  0  0  0  0  0  0  0
    1.7342   -0.0784   -1.1608 H   0  0  0  0  0  0  0  0  0  0  0  0
    1.3869   -2.1716   -0.8290 C   0  0  0  0  0  0  0  0  0  0  0  0
    1.5956   -2.7078    0.2514 O   0  0  0  0  0  0  0  0  0  0  0  0
    1.6151   -2.8553   -1.9658 O   0  0  0  0  0  0  0  0  0  0  0  0
    1.9045   -3.7269   -1.6942 H   0  0  0  0  0  0  0  0  0  0  0  0
   -0.2619    1.2768    0.0259 C   0  0  0  0  0  0  0  0  0  0  0  0
   -0.5918    1.7700   -1.0519 O   0  0  0  0  0  0  0  0  0  0  0  0
   -0.1087    2.0144    1.1314 N   0  0  0  0  0  0  0  0  0  0  0  0
    0.2270    1.5425    1.9647 H   0  0  0  0  0  0  0  0  0  0  0  0
   -0.3241    3.4583    1.1967 C   0  0  0  0  0  0  0  0  0  0  0  0
   -1.3079    3.7033    0.7904 H   0  0  0  0  0  0  0  0  0  0  0  0
   -0.2671    3.7996    2.2311 H   0  0  0  0  0  0  0  0  0  0  0  0
    0.4356    3.9714    0.6046 H   0  0  0  0  0  0  0  0  0  0  0  0
  5  6  2  0  0  0  0
  5  7  1  0  0  0  0
  2  3  1  0  0  0  0
  2  4  1  0  0  0  0
  2  5  1  0  0  0  0
  1  2  1  0  0  0  0
 18 19  2  0  0  0  0
 18 20  1  0  0  0  0
 16 17  1  0  0  0  0
 14 15  2  0  0  0  0
 14 16  1  0  0  0  0
 11 12  1  0  0  0  0
 11 13  1  0  0  0  0
 11 14  1  0  0  0  0
  9 10  1  0  0  0  0
  9 11  1  0  0  0  0
  9 18  1  0  0  0  0
  7  8  1  0  0  0  0
  7  9  1  0  0  0  0
 22 23  1  0  0  0  0
 22 24  1  0  0  0  0
 22 25  1  0  0  0  0
 20 21  1  0  0  0  0
 20 22  1  0  0  0  0
M  END
$$$$
default_name
  -OEChem-01062215323D

 25 24  0     1  0  0  0  0  0999 V2000
   -2.7826   -3.8464    0.7821 H   0  0  0  0  0  0  0  0  0  0  0  0
   -2.8156   -2.8034    0.4711 C   0  0  0  0  0  0  0  0  0  0  0  0
   -3.4336   -2.2354    1.1641 H   0  0  0  0  0  0  0  0  0  0  0  0
   -3.2256   -2.7344   -0.5349 H   0  0  0  0  0  0  0  0  0  0  0  0
   -1.4126   -2.2444    0.4801 C   0  0  0  0  0  0  0  0  0  0  0  0
   -0.4686   -2.9534    0.8001 O   0  0  0  0  0  0  0  0  0  0  0  0
   -1.2736   -0.9704    0.1241 N   0  0  0  0  0  0  0  0  0  0  0  0
   -2.0996   -0.4354   -0.1019 H   0  0  0  0  0  0  0  0  0  0  0  0
   -0.0016   -0.2394    0.1271 C   0  0  1  0  0  0  0  0  0  0  0  0
    0.5088   -0.4366    1.0724 H   0  0  0  0  0  0  0  0  0  0  0  0
    0.8818   -0.7460   -1.0301 C   0  0  0  0  0  0  0  0  0  0  0  0
    0.3058   -0.7393   -1.9563 H   0  0  0  0  0  0  0  0  0  0  0  0
    1.7342   -0.0784   -1.1608 H   0  0  0  0  0  0  0  0  0  0  0  0
    1.3869   -2.1716   -0.8290 C   0  0  0  0  0  0  0  0  0  0  0  0
    1.5956   -2.7078    0.2514 O   0  0  0  0  0  0  0  0  0  0  0  0
    1.6151   -2.8553   -1.9658 O   0  0  0  0  0  0  0  0  0  0  0  0
    1.9045   -3.7269   -1.6942 H   0  0  0  0  0  0  0  0  0  0  0  0
   -0.2619    1.2768    0.0259 C   0  0  0  0  0  0  0  0  0  0  0  0
   -0.8500    1.7322   -0.9541 O   0  0  0  0  0  0  0  0  0  0  0  0
    0.1764    2.0559    1.0211 N   0  0  0  0  0  0  0  0  0  0  0  0
    0.7081    1.6116    1.7625 H   0  0  0  0  0  0  0  0  0  0  0  0
    0.0011    3.5058    1.0726 C   0  0  0  0  0  0  0  0  0  0  0  0
   -1.0508    3.7560    0.9189 H   0  0  0  0  0  0  0  0  0  0  0  0
    0.3239    3.8884    2.0418 H   0  0  0  0  0  0  0  0  0  0  0  0
    0.5906    3.9766    0.2840 H   0  0  0  0  0  0  0  0  0  0  0  0
  5  6  2  0  0  0  0
  5  7  1  0  0  0  0
  2  3  1  0  0  0  0
  2  4  1  0  0  0  0
  2  5  1  0  0  0  0
  1  2  1  0  0  0  0
 18 19  2  0  0  0  0
 18 20  1  0  0  0  0
 16 17  1  0  0  0  0
 14 15  2  0  0  0  0
 14 16  1  0  0  0  0
 11 12  1  0  0  0  0
 11 13  1  0  0  0  0
 11 14  1  0  0  0  0
  9 10  1  0  0  0  0
  9 11  1  0  0  0  0
  9 18  1  0  0  0  0
  7  8  1  0  0  0  0
  7  9  1  0  0  0  0
 22 23  1  0  0  0  0
 22 24  1  0  0  0  0
 22 25  1  0  0  0  0
 20 21  1  0  0  0  0
 20 22  1  0  0  0  0
M  END
$$$$
default_name
  -OEChem-01062215323D

 25 24  0     1  0  0  0  0  0999 V2000
   -2.7826   -3.8464    0.7821 H   0  0  0  0  0  0  0  0  0  0  0  0
   -2.8156   -2.8034    0.4711 C   0  0  0  0  0  0  0  0  0  0  0  0
   -3.4336   -2.2354    1.1641 H   0  0  0  0  0  0  0  0  0  0  0  0
   -3.2256   -2.7344   -0.5349 H   0  0  0  0  0  0  0  0  0  0  0  0
   -1.4126   -2.2444    0.4801 C   0  0  0  0  0  0  0  0  0  0  0  0
   -0.4686   -2.9534    0.8001 O   0  0  0  0  0  0  0  0  0  0  0  0
   -1.2736   -0.9704    0.1241 N   0  0  0  0  0  0  0  0  0  0  0  0
   -2.0996   -0.4354   -0.1019 H   0  0  0  0  0  0  0  0  0  0  0  0
   -0.0016   -0.2394    0.1271 C   0  0  1  0  0  0  0  0  0  0  0  0
    0.5088   -0.4366    1.0724 H   0  0  0  0  0  0  0  0  0  0  0  0
    0.8818   -0.7460   -1.0301 C   0  0  0  0  0  0  0  0  0  0  0  0
    0.3058   -0.7393   -1.9563 H   0  0  0  0  0  0  0  0  0  0  0  0
    1.7342   -0.0784   -1.1608 H   0  0  0  0  0  0  0  0  0  0  0  0
    1.3869   -2.1716   -0.8290 C   0  0  0  0  0  0  0  0  0  0  0  0
    1.5956   -2.7078    0.2514 O   0  0  0  0  0  0  0  0  0  0  0  0
    1.6151   -2.8553   -1.9658 O   0  0  0  0  0  0  0  0  0  0  0  0
    1.9045   -3.7269   -1.6942 H   0  0  0  0  0  0  0  0  0  0  0  0
   -0.2619    1.2768    0.0259 C   0  0  0  0  0  0  0  0  0  0  0  0
   -1.0752    1.7044   -0.7923 O   0  0  0  0  0  0  0  0  0  0  0  0
    0.4244    2.0864    0.8401 N   0  0  0  0  0  0  0  0  0  0  0  0
    1.1225    1.6613    1.4416 H   0  0  0  0  0  0  0  0  0  0  0  0
    0.2845    3.5408    0.8680 C   0  0  0  0  0  0  0  0  0  0  0  0
   -0.7690    3.8081    0.9753 H   0  0  0  0  0  0  0  0  0  0  0  0
    0.8480    3.9558    1.7046 H   0  0  0  0  0  0  0  0  0  0  0  0
    0.6588    3.9650   -0.0654 H   0  0  0  0  0  0  0  0  0  0  0  0
  5  6  2  0  0  0  0
  5  7  1  0  0  0  0
  2  3  1  0  0  0  0
  2  4  1  0  0  0  0
  2  5  1  0  0  0  0
  1  2  1  0  0  0  0
 18 19  2  0  0  0  0
 18 20  1  0  0  0  0
 16 17  1  0  0  0  0
 14 15  2  0  0  0  0
 14 16  1  0  0  0  0
 11 12  1  0  0  0  0
 11 13  1  0  0  0  0
 11 14  1  0  0  0  0
  9 10  1  0  0  0  0
  9 11  1  0  0  0  0
  9 18  1  0  0  0  0
  7  8  1  0  0  0  0
  7  9  1  0  0  0  0
 22 23  1  0  0  0  0
 22 24  1  0  0  0  0
 22 25  1  0  0  0  0
 20 21  1  0  0  0  0
 20 22  1  0  0  0  0
M  END
$$$$
default_name
  -OEChem-01062215323D

 25 24  0     1  0  0  0  0  0999 V2000
   -2.7826   -3.8464    0.7821 H   0  0  0  0  0  0  0  0  0  0  0  0
   -2.8156   -2.8034    0.4711 C   0  0  0  0  0  0  0  0  0  0  0  0
   -3.4336   -2.2354    1.1641 H   0  0  0  0  0  0  0  0  0  0  0  0
   -3.2256   -2.7344   -0.5349 H   0  0  0  0  0  0  0  0  0  0  0  0
   -1.4126   -2.2444    0.4801 C   0  0  0  0  0  0  0  0  0  0  0  0
   -0.4686   -2.9534    0.8001 O   0  0  0  0  0  0  0  0  0  0  0  0
   -1.2736   -0.9704    0.1241 N   0  0  0  0  0  0  0  0  0  0  0  0
   -2.0996   -0.4354   -0.1019 H   0  0  0  0  0  0  0  0  0  0  0  0
   -0.0016   -0.2394    0.1271 C   0  0  1  0  0  0  0  0  0  0  0  0
    0.5088   -0.4366    1.0724 H   0  0  0  0  0  0  0  0  0  0  0  0
    0.8818   -0.7460   -1.0301 C   0  0  0  0  0  0  0  0  0  0  0  0
    0.3058   -0.7393   -1.9563 H   0  0  0  0  0  0  0  0  0  0  0  0
    1.7342   -0.0784   -1.1608 H   0  0  0  0  0  0  0  0  0  0  0  0
    1.3869   -2.1716   -0.8290 C   0  0  0  0  0  0  0  0  0  0  0  0
    1.5956   -2.7078    0.2514 O   0  0  0  0  0  0  0  0  0  0  0  0
    1.6151   -2.8553   -1.9658 O   0  0  0  0  0  0  0  0  0  0  0  0
    1.9045   -3.7269   -1.6942 H   0  0  0  0  0  0  0  0  0  0  0  0
   -0.2619    1.2768    0.0259 C   0  0  0  0  0  0  0  0  0  0  0  0
   -1.2520    1.6883   -0.5775 O   0  0  0  0  0  0  0  0  0  0  0  0
    0.6184    2.1038    0.6009 N   0  0  0  0  0  0  0  0  0  0  0  0
    1.4419    1.6882    1.0241 H   0  0  0  0  0  0  0  0  0  0  0  0
    0.5068    3.5608    0.5966 C   0  0  0  0  0  0  0  0  0  0  0  0
   -0.4815    3.8562    0.9558 H   0  0  0  0  0  0  0  0  0  0  0  0
    1.2695    3.9974    1.2426 H   0  0  0  0  0  0  0  0  0  0  0  0
    0.6355    3.9374   -0.4197 H   0  0  0  0  0  0  0  0  0  0  0  0
  5  6  2  0  0  0  0
  5  7  1  0  0  0  0
  2  3  1  0  0  0  0
  2  4  1  0  0  0  0
  2  5  1  0  0  0  0
  1  2  1  0  0  0  0
 18 19  2  0  0  0  0
 18 20  1  0  0  0  0
 16 17  1  0  0  0  0
 14 15  2  0  0  0  0
 14 16  1  0  0  0  0
 11 12  1  0  0  0  0
 11 13  1  0  0  0  0
 11 14  1  0  0  0  0
  9 10  1  0  0  0  0
  9 11  1  0  0  0  0
  9 18  1  0  0  0  0
  7  8  1  0  0  0  0
  7  9  1  0  0  0  0
 22 23  1  0  0  0  0
 22 24  1  0  0  0  0
 22 25  1  0  0  0  0
 20 21  1  0  0  0  0
 20 22  1  0  0  0  0
M  END
$$$$
default_name
  -OEChem-01062215323D

 25 24  0     1  0  0  0  0  0999 V2000
   -2.7826   -3.8464    0.7821 H   0  0  0  0  0  0  0  0  0  0  0  0
   -2.8156   -2.8034    0.4711 C   0  0  0  0  0  0  0  0  0  0  0  0
   -3.4336   -2.2354    1.1641 H   0  0  0  0  0  0  0  0  0  0  0  0
   -3.2256   -2.7344   -0.5349 H   0  0  0  0  0  0  0  0  0  0  0  0
   -1.4126   -2.2444    0.4801 C   0  0  0  0  0  0  0  0  0  0  0  0
   -0.4686   -2.9534    0.8001 O   0  0  0  0  0  0  0  0  0  0  0  0
   -1.2736   -0.9704    0.1241 N   0  0  0  0  0  0  0  0  0  0  0  0
   -2.0996   -0.4354   -0.1019 H   0  0  0  0  0  0  0  0  0  0  0  0
   -0.0016   -0.2394    0.1271 C   0  0  1  0  0  0  0  0  0  0  0  0
    0.5088   -0.4366    1.0724 H   0  0  0  0  0  0  0  0  0  0  0  0
    0.8818   -0.7460   -1.0301 C   0  0  0  0  0  0  0  0  0  0  0  0
    0.3058   -0.7393   -1.9563 H   0  0  0  0  0  0  0  0  0  0  0  0
    1.7342   -0.0784   -1.1608 H   0  0  0  0  0  0  0  0  0  0  0  0
    1.3869   -2.1716   -0.8290 C   0  0  0  0  0  0  0  0  0  0  0  0
    1.5956   -2.7078    0.2514 O   0  0  0  0  0  0  0  0  0  0  0  0
    1.6151   -2.8553   -1.9658 O   0  0  0  0  0  0  0  0  0  0  0  0
    1.9045   -3.7269   -1.6942 H   0  0  0  0  0  0  0  0  0  0  0  0
   -0.2619    1.2768    0.0259 C   0  0  0  0  0  0  0  0  0  0  0  0
   -1.3683    1.6853   -0.3243 O   0  0  0  0  0  0  0  0  0  0  0  0
    0.7453    2.1068    0.3197 N   0  0  0  0  0  0  0  0  0  0  0  0
    1.6446    1.6906    0.5383 H   0  0  0  0  0  0  0  0  0  0  0  0
    0.6527    3.5645    0.2770 C   0  0  0  0  0  0  0  0  0  0  0  0
   -0.2079    3.8969    0.8617 H   0  0  0  0  0  0  0  0  0  0  0  0
    1.5598    4.0101    0.6873 H   0  0  0  0  0  0  0  0  0  0  0  0
    0.5224    3.8956   -0.7547 H   0  0  0  0  0  0  0  0  0  0  0  0
  5  6  2  0  0  0  0
  5  7  1  0  0  0  0
  2  3  1  0  0  0  0
  2  4  1  0  0  0  0
  2  5  1  0  0  0  0
  1  2  1  0  0  0  0
 18 19  2  0  0  0  0
 18 20  1  0  0  0  0
 16 17  1  0  0  0  0
 14 15  2  0  0  0  0
 14 16  1  0  0  0  0
 11 12  1  0  0  0  0
 11 13  1  0  0  0  0
 11 14  1  0  0  0  0
  9 10  1  0  0  0  0
  9 11  1  0  0  0  0
  9 18  1  0  0  0  0
  7  8  1  0  0  0  0
  7  9  1  0  0  0  0
 22 23  1  0  0  0  0
 22 24  1  0  0  0  0
 22 25  1  0  0  0  0
 20 21  1  0  0  0  0
 20 22  1  0  0  0  0
M  END
$$$$
default_name
  -OEChem-01062215323D

 25 24  0     1  0  0  0  0  0999 V2000
   -2.7826   -3.8464    0.7821 H   0  0  0  0  0  0  0  0  0  0  0  0
   -2.8156   -2.8034    0.4711 C   0  0  0  0  0  0  0  0  0  0  0  0
   -3.4336   -2.2354    1.1641 H   0  0  0  0  0  0  0  0  0  0  0  0
   -3.2256   -2.7344   -0.5349 H   0  0  0  0  0  0  0  0  0  0  0  0
   -1.4126   -2.2444    0.4801 C   0  0  0  0  0  0  0  0  0  0  0  0
   -0.4686   -2.9534    0.8001 O   0  0  0  0  0  0  0  0  0  0  0  0
   -1.2736   -0.9704    0.1241 N   0  0  0  0  0  0  0  0  0  0  0  0
   -2.0996   -0.4354   -0.1019 H   0  0  0  0  0  0  0  0  0  0  0  0
   -0.0016   -0.2394    0.1271 C   0  0  1  0  0  0  0  0  0  0  0  0
    0.6237   -0.6359    0.9301 H   0  0  0  0  0  0  0  0  0  0  0  0
    0.7178   -0.4599   -1.2183 C   0  0  0  0  0  0  0  0  0  0  0  0
    0.0273   -0.2543   -2.0371 H   0  0  0  0  0  0  0  0  0  0  0  0
    1.5556    0.2329   -1.3045 H   0  0  0  0  0  0  0  0  0  0  0  0
    1.2244   -1.8864   -1.4090 C   0  0  0  0  0  0  0  0  0  0  0  0
    1.5631   -2.6481   -0.5127 O   0  0  0  0  0  0  0  0  0  0  0  0
    1.2943   -2.2941   -2.6900 O   0  0  0  0  0  0  0  0  0  0  0  0
    1.6039   -3.1999   -2.6606 H   0  0  0  0  0  0  0  0  0  0  0  0
   -0.2513    1.2567    0.4032 C   0  0  0  0  0  0  0  0  0  0  0  0
   -1.3997    1.6639    0.5727 O   0  0  0  0  0  0  0  0  0  0  0  0
    0.8082    2.0726    0.4406 N   0  0  0  0  0  0  0  0  0  0  0  0
    1.7152    1.6702    0.2277 H   0  0  0  0  0  0  0  0  0  0  0  0
    0.7349    3.5095    0.6966 C   0  0  0  0  0  0  0  0  0  0  0  0
    0.1658    3.6928    1.6106 H   0  0  0  0  0  0  0  0  0  0  0  0
    1.7383    3.9221    0.8088 H   0  0  0  0  0  0  0  0  0  0  0  0
    0.2307    4.0065   -0.1340 H   0  0  0  0  0  0  0  0  0  0  0  0
  5  6  2  0  0  0  0
  5  7  1  0  0  0  0
  2  3  1  0  0  0  0
  2  4  1  0  0  0  0
  2  5  1  0  0  0  0
  1  2  1  0  0  0  0
 18 19  2  0  0  0  0
 18 20  1  0  0  0  0
 16 17  1  0  0  0  0
 14 15  2  0  0  0  0
 14 16  1  0  0  0  0
 11 12  1  0  0  0  0
 11 13  1  0  0  0  0
 11 14  1  0  0  0  0
  9 10  1  0  0  0  0
  9 11  1  0  0  0  0
  9 18  1  0  0  0  0
  7  8  1  0  0  0  0
  7  9  1  0  0  0  0
 22 23  1  0  0  0  0
 22 24  1  0  0  0  0
 22 25  1  0  0  0  0
 20 21  1  0  0  0  0
 20 22  1  0  0  0  0
M  END
$$$$
default_name
  -OEChem-01062215323D

 25 24  0     1  0  0  0  0  0999 V2000
   -2.7826   -3.8464    0.7821 H   0  0  0  0  0  0  0  0  0  0  0  0
   -2.8156   -2.8034    0.4711 C   0  0  0  0  0  0  0  0  0  0  0  0
   -3.4336   -2.2354    1.1641 H   0  0  0  0  0  0  0  0  0  0  0  0
   -3.2256   -2.7344   -0.5349 H   0  0  0  0  0  0  0  0  0  0  0  0
   -1.4126   -2.2444    0.4801 C   0  0  0  0  0  0  0  0  0  0  0  0
   -0.4686   -2.9534    0.8001 O   0  0  0  0  0  0  0  0  0  0  0  0
   -1.2736   -0.9704    0.1241 N   0  0  0  0  0  0  0  0  0  0  0  0
   -2.0996   -0.4354   -0.1019 H   0  0  0  0  0  0  0  0  0  0  0  0
   -0.0016   -0.2394    0.1271 C   0  0  1  0  0  0  0  0  0  0  0  0
    0.6237   -0.6359    0.9301 H   0  0  0  0  0  0  0  0  0  0  0  0
    0.7178   -0.4599   -1.2183 C   0  0  0  0  0  0  0  0  0  0  0  0
    0.0273   -0.2543   -2.0371 H   0  0  0  0  0  0  0  0  0  0  0  0
    1.5556    0.2329   -1.3045 H   0  0  0  0  0  0  0  0  0  0  0  0
    1.2244   -1.8864   -1.4090 C   0  0  0  0  0  0  0  0  0  0  0  0
    1.5631   -2.6481   -0.5127 O   0  0  0  0  0  0  0  0  0  0  0  0
    1.2943   -2.2941   -2.6900 O   0  0  0  0  0  0  0  0  0  0  0  0
    1.6039   -3.1999   -2.6606 H   0  0  0  0  0  0  0  0  0  0  0  0
   -0.2513    1.2567    0.4032 C   0  0  0  0  0  0  0  0  0  0  0  0
   -1.3403    1.6242    0.8420 O   0  0  0  0  0  0  0  0  0  0  0  0
    0.7403    2.1162    0.1428 N   0  0  0  0  0  0  0  0  0  0  0  0
    1.5847    1.7416   -0.2772 H   0  0  0  0  0  0  0  0  0  0  0  0
    0.6591    3.5594    0.3572 C   0  0  0  0  0  0  0  0  0  0  0  0
    0.3280    3.7628    1.3779 H   0  0  0  0  0  0  0  0  0  0  0  0
    1.6359    4.0178    0.1979 H   0  0  0  0  0  0  0  0  0  0  0  0
   -0.0618    3.9951   -0.3368 H   0  0  0  0  0  0  0  0  0  0  0  0
  5  6  2  0  0  0  0
  5  7  1  0  0  0  0
  2  3  1  0  0  0  0
  2  4  1  0  0  0  0
  2  5  1  0  0  0  0
  1  2  1  0  0  0  0
 18 19  2  0  0  0  0
 18 20  1  0  0  0  0
 16 17  1  0  0  0  0
 14 15  2  0  0  0  0
 14 16  1  0  0  0  0
 11 12  1  0  0  0  0
 11 13  1  0  0  0  0
 11 14  1  0  0  0  0
  9 10  1  0  0  0  0
  9 11  1  0  0  0  0
  9 18  1  0  0  0  0
  7  8  1  0  0  0  0
  7  9  1  0  0  0  0
 22 23  1  0  0  0  0
 22 24  1  0  0  0  0
 22 25  1  0  0  0  0
 20 21  1  0  0  0  0
 20 22  1  0  0  0  0
M  END
$$$$
default_name
  -OEChem-01062215323D

 25 24  0     1  0  0  0  0  0999 V2000
   -2.7826   -3.8464    0.7821 H   0  0  0  0  0  0  0  0  0  0  0  0
   -2.8156   -2.8034    0.4711 C   0  0  0  0  0  0  0  0  0  0  0  0
   -3.4336   -2.2354    1.1641 H   0  0  0  0  0  0  0  0  0  0  0  0
   -3.2256   -2.7344   -0.5349 H   0  0  0  0  0  0  0  0  0  0  0  0
   -1.4126   -2.2444    0.4801 C   0  0  0  0  0  0  0  0  0  0  0  0
   -0.4686   -2.9534    0.8001 O   0  0  0  0  0  0  0  0  0  0  0  0
   -1.2736   -0.9704    0.1241 N   0  0  0  0  0  0  0  0  0  0  0  0
   -2.0996   -0.4354   -0.1019 H   0  0  0  0  0  0  0  0  0  0  0  0
   -0.0016   -0.2394    0.1271 C   0  0  1  0  0  0  0  0  0  0  0  0
    0.6237   -0.6359    0.9301 H   0  0  0  0  0  0  0  0  0  0  0  0
    0.7178   -0.4599   -1.2183 C   0  0  0  0  0  0  0  0  0  0  0  0
    0.0273   -0.2543   -2.0371 H   0  0  0  0  0  0  0  0  0  0  0  0
    1.5556    0.2329   -1.3045 H   0  0  0  0  0  0  0  0  0  0  0  0
    1.2244   -1.8864   -1.4090 C   0  0  0  0  0  0  0  0  0  0  0  0
    1.5631   -2.6481   -0.5127 O   0  0  0  0  0  0  0  0  0  0  0  0
    1.2943   -2.2941   -2.6900 O   0  0  0  0  0  0  0  0  0  0  0  0
    1.6039   -3.1999   -2.6606 H   0  0  0  0  0  0  0  0  0  0  0  0
   -0.2513    1.2567    0.4032 C   0  0  0  0  0  0  0  0  0  0  0  0
   -1.2133    1.5998    1.0889 O   0  0  0  0  0  0  0  0  0  0  0  0
    0.5978    2.1427   -0.1295 N   0  0  0  0  0  0  0  0  0  0  0  0
    1.3285    1.7833   -0.7352 H   0  0  0  0  0  0  0  0  0  0  0  0
    0.4983    3.5900    0.0463 C   0  0  0  0  0  0  0  0  0  0  0  0
    0.4231    3.8282    1.1095 H   0  0  0  0  0  0  0  0  0  0  0  0
    1.3792    4.0799   -0.3706 H   0  0  0  0  0  0  0  0  0  0  0  0
   -0.3948    3.9621   -0.4587 H   0  0  0  0  0  0  0  0  0  0  0  0
  5  6  2  0  0  0  0
  5  7  1  0  0  0  0
  2  3  1  0  0  0  0
  2  4  1  0  0  0  0
  2  5  1  0  0  0  0
  1  2  1  0  0  0  0
 18 19  2  0  0  0  0
 18 20  1  0  0  0  0
 16 17  1  0  0  0  0
 14 15  2  0  0  0  0
 14 16  1  0  0  0  0
 11 12  1  0  0  0  0
 11 13  1  0  0  0  0
 11 14  1  0  0  0  0
  9 10  1  0  0  0  0
  9 11  1  0  0  0  0
  9 18  1  0  0  0  0
  7  8  1  0  0  0  0
  7  9  1  0  0  0  0
 22 23  1  0  0  0  0
 22 24  1  0  0  0  0
 22 25  1  0  0  0  0
 20 21  1  0  0  0  0
 20 22  1  0  0  0  0
M  END
$$$$
default_name
  -OEChem-01062215323D

 25 24  0     1  0  0  0  0  0999 V2000
   -2.7826   -3.8464    0.7821 H   0  0  0  0  0  0  0  0  0  0  0  0
   -2.8156   -2.8034    0.4711 C   0  0  0  0  0  0  0  0  0  0  0  0
   -3.4336   -2.2354    1.1641 H   0  0  0  0  0  0  0  0  0  0  0  0
   -3.2256   -2.7344   -0.5349 H   0  0  0  0  0  0  0  0  0  0  0  0
   -1.4126   -2.2444    0.4801 C   0  0  0  0  0  0  0  0  0  0  0  0
   -0.4686   -2.9534    0.8001 O   0  0  0  0  0  0  0  0  0  0  0  0
   -1.2736   -0.9704    0.1241 N   0  0  0  0  0  0  0  0  0  0  0  0
   -2.0996   -0.4354   -0.1019 H   0  0  0  0  0  0  0  0  0  0  0  0
   -0.0016   -0.2394    0.1271 C   0  0  1  0  0  0  0  0  0  0  0  0
    0.6237   -0.6359    0.9301 H   0  0  0  0  0  0  0  0  0  0  0  0
    0.7178   -0.4599   -1.2183 C   0  0  0  0  0  0  0  0  0  0  0  0
    0.0273   -0.2543   -2.0371 H   0  0  0  0  0  0  0  0  0  0  0  0
    1.5556    0.2329   -1.3045 H   0  0  0  0  0  0  0  0  0  0  0  0
    1.2244   -1.8864   -1.4090 C   0  0  0  0  0  0  0  0  0  0  0  0
    1.5631   -2.6481   -0.5127 O   0  0  0  0  0  0  0  0  0  0  0  0
    1.2943   -2.2941   -2.6900 O   0  0  0  0  0  0  0  0  0  0  0  0
    1.6039   -3.1999   -2.6606 H   0  0  0  0  0  0  0  0  0  0  0  0
   -0.2513    1.2567    0.4032 C   0  0  0  0  0  0  0  0  0  0  0  0
   -1.0276    1.5925    1.2966 O   0  0  0  0  0  0  0  0  0  0  0  0
    0.3906    2.1503   -0.3579 N   0  0  0  0  0  0  0  0  0  0  0  0
    0.9641    1.7926   -1.1149 H   0  0  0  0  0  0  0  0  0  0  0  0
    0.2636    3.5990   -0.2149 C   0  0  0  0  0  0  0  0  0  0  0  0
    0.4445    3.8845    0.8236 H   0  0  0  0  0  0  0  0  0  0  0  0
    0.9856    4.1041   -0.8578 H   0  0  0  0  0  0  0  0  0  0  0  0
   -0.7455    3.9096   -0.4914 H   0  0  0  0  0  0  0  0  0  0  0  0
  5  6  2  0  0  0  0
  5  7  1  0  0  0  0
  2  3  1  0  0  0  0
  2  4  1  0  0  0  0
  2  5  1  0  0  0  0
  1  2  1  0  0  0  0
 18 19  2  0  0  0  0
 18 20  1  0  0  0  0
 16 17  1  0  0  0  0
 14 15  2  0  0  0  0
 14 16  1  0  0  0  0
 11 12  1  0  0  0  0
 11 13  1  0  0  0  0
 11 14  1  0  0  0  0
  9 10  1  0  0  0  0
  9 11  1  0  0  0  0
  9 18  1  0  0  0  0
  7  8  1  0  0  0  0
  7  9  1  0  0  0  0
 22 23  1  0  0  0  0
 22 24  1  0  0  0  0
 22 25  1  0  0  0  0
 20 21  1  0  0  0  0
 20 22  1  0  0  0  0
M  END
$$$$
default_name
  -OEChem-01062215323D

 25 24  0     1  0  0  0  0  0999 V2000
   -2.7826   -3.8464    0.7821 H   0  0  0  0  0  0  0  0  0  0  0  0
   -2.8156   -2.8034    0.4711 C   0  0  0  0  0  0  0  0  0  0  0  0
   -3.4336   -2.2354    1.1641 H   0  0  0  0  0  0  0  0  0  0  0  0
   -3.2256   -2.7344   -0.5349 H   0  0  0  0  0  0  0  0  0  0  0  0
   -1.4126   -2.2444    0.4801 C   0  0  0  0  0  0  0  0  0  0  0  0
   -0.4686   -2.9534    0.8001 O   0  0  0  0  0  0  0  0  0  0  0  0
   -1.2736   -0.9704    0.1241 N   0  0  0  0  0  0  0  0  0  0  0  0
   -2.0996   -0.4354   -0.1019 H   0  0  0  0  0  0  0  0  0  0  0  0
   -0.0016   -0.2394    0.1271 C   0  0  1  0  0  0  0  0  0  0  0  0
    0.6237   -0.6359    0.9301 H   0  0  0  0  0  0  0  0  0  0  0  0
    0.7178   -0.4599   -1.2183 C   0  0  0  0  0  0  0  0  0  0  0  0
    0.0273   -0.2543   -2.0371 H   0  0  0  0  0  0  0  0  0  0  0  0
    1.5556    0.2329   -1.3045 H   0  0  0  0  0  0  0  0  0  0  0  0
    1.2244   -1.8864   -1.4090 C   0  0  0  0  0  0  0  0  0  0  0  0
    1.5631   -2.6481   -0.5127 O   0  0  0  0  0  0  0  0  0  0  0  0
    1.2943   -2.2941   -2.6900 O   0  0  0  0  0  0  0  0  0  0  0  0
    1.6039   -3.1999   -2.6606 H   0  0  0  0  0  0  0  0  0  0  0  0
   -0.2513    1.2567    0.4032 C   0  0  0  0  0  0  0  0  0  0  0  0
   -0.7957    1.6027    1.4508 O   0  0  0  0  0  0  0  0  0  0  0  0
    0.1327    2.1384   -0.5268 N   0  0  0  0  0  0  0  0  0  0  0  0
    0.5163    1.7688   -1.3906 H   0  0  0  0  0  0  0  0  0  0  0  0
   -0.0292    3.5859   -0.4086 C   0  0  0  0  0  0  0  0  0  0  0  0
    0.3908    3.9279    0.5398 H   0  0  0  0  0  0  0  0  0  0  0  0
    0.4819    4.0888   -1.2305 H   0  0  0  0  0  0  0  0  0  0  0  0
   -1.0901    3.8413   -0.4327 H   0  0  0  0  0  0  0  0  0  0  0  0
  5  6  2  0  0  0  0
  5  7  1  0  0  0  0
  2  3  1  0  0  0  0
  2  4  1  0  0  0  0
  2  5  1  0  0  0  0
  1  2  1  0  0  0  0
 18 19  2  0  0  0  0
 18 20  1  0  0  0  0
 16 17  1  0  0  0  0
 14 15  2  0  0  0  0
 14 16  1  0  0  0  0
 11 12  1  0  0  0  0
 11 13  1  0  0  0  0
 11 14  1  0  0  0  0
  9 10  1  0  0  0  0
  9 11  1  0  0  0  0
  9 18  1  0  0  0  0
  7  8  1  0  0  0  0
  7  9  1  0  0  0  0
 22 23  1  0  0  0  0
 22 24  1  0  0  0  0
 22 25  1  0  0  0  0
 20 21  1  0  0  0  0
 20 22  1  0  0  0  0
M  END
$$$$
default_name
  -OEChem-01062215323D

 25 24  0     1  0  0  0  0  0999 V2000
   -2.7826   -3.8464    0.7821 H   0  0  0  0  0  0  0  0  0  0  0  0
   -2.8156   -2.8034    0.4711 C   0  0  0  0  0  0  0  0  0  0  0  0
   -3.4336   -2.2354    1.1641 H   0  0  0  0  0  0  0  0  0  0  0  0
   -3.2256   -2.7344   -0.5349 H   0  0  0  0  0  0  0  0  0  0  0  0
   -1.4126   -2.2444    0.4801 C   0  0  0  0  0  0  0  0  0  0  0  0
   -0.4686   -2.9534    0.8001 O   0  0  0  0  0  0  0  0  0  0  0  0
   -1.2736   -0.9704    0.1241 N   0  0  0  0  0  0  0  0  0  0  0  0
   -2.0996   -0.4354   -0.1019 H   0  0  0  0  0  0  0  0  0  0  0  0
   -0.0016   -0.2394    0.1271 C   0  0  1  0  0  0  0  0  0  0  0  0
    0.6237   -0.6359    0.9301 H   0  0  0  0  0  0  0  0  0  0  0  0
    0.7178   -0.4599   -1.2183 C   0  0  0  0  0  0  0  0  0  0  0  0
    0.0273   -0.2543   -2.0371 H   0  0  0  0  0  0  0  0  0  0  0  0
    1.5556    0.2329   -1.3045 H   0  0  0  0  0  0  0  0  0  0  0  0
    1.2244   -1.8864   -1.4090 C   0  0  0  0  0  0  0  0  0  0  0  0
    1.5631   -2.6481   -0.5127 O   0  0  0  0  0  0  0  0  0  0  0  0
    1.2943   -2.2941   -2.6900 O   0  0  0  0  0  0  0  0  0  0  0  0
    1.6039   -3.1999   -2.6606 H   0  0  0  0  0  0  0  0  0  0  0  0
   -0.2513    1.2567    0.4032 C   0  0  0  0  0  0  0  0  0  0  0  0
   -0.5334    1.6298    1.5410 O   0  0  0  0  0  0  0  0  0  0  0  0
   -0.1583    2.1079   -0.6247 N   0  0  0  0  0  0  0  0  0  0  0  0
    0.0156    1.7134   -1.5434 H   0  0  0  0  0  0  0  0  0  0  0  0
   -0.3601    3.5516   -0.5217 C   0  0  0  0  0  0  0  0  0  0  0  0
    0.2655    3.9555    0.2772 H   0  0  0  0  0  0  0  0  0  0  0  0
   -0.0976    4.0351   -1.4634 H   0  0  0  0  0  0  0  0  0  0  0  0
   -1.4050    3.7618   -0.2867 H   0  0  0  0  0  0  0  0  0  0  0  0
  5  6  2  0  0  0  0
  5  7  1  0  0  0  0
  2  3  1  0  0  0  0
  2  4  1  0  0  0  0
  2  5  1  0  0  0  0
  1  2  1  0  0  0  0
 18 19  2  0  0  0  0
 18 20  1  0  0  0  0
 16 17  1  0  0  0  0
 14 15  2  0  0  0  0
 14 16  1  0  0  0  0
 11 12  1  0  0  0  0
 11 13  1  0  0  0  0
 11 14  1  0  0  0  0
  9 10  1  0  0  0  0
  9 11  1  0  0  0  0
  9 18  1  0  0  0  0
  7  8  1  0  0  0  0
  7  9  1  0  0  0  0
 22 23  1  0  0  0  0
 22 24  1  0  0  0  0
 22 25  1  0  0  0  0
 20 21  1  0  0  0  0
 20 22  1  0  0  0  0
M  END
$$$$
default_name
  -OEChem-01062215323D

 25 24  0     1  0  0  0  0  0999 V2000
   -2.7826   -3.8464    0.7821 H   0  0  0  0  0  0  0  0  0  0  0  0
   -2.8156   -2.8034    0.4711 C   0  0  0  0  0  0  0  0  0  0  0  0
   -3.4336   -2.2354    1.1641 H   0  0  0  0  0  0  0  0  0  0  0  0
   -3.2256   -2.7344   -0.5349 H   0  0  0  0  0  0  0  0  0  0  0  0
   -1.4126   -2.2444    0.4801 C   0  0  0  0  0  0  0  0  0  0  0  0
   -0.4686   -2.9534    0.8001 O   0  0  0  0  0  0  0  0  0  0  0  0
   -1.2736   -0.9704    0.1241 N   0  0  0  0  0  0  0  0  0  0  0  0
   -2.0996   -0.4354   -0.1019 H   0  0  0  0  0  0  0  0  0  0  0  0
   -0.0016   -0.2394    0.1271 C   0  0  1  0  0  0  0  0  0  0  0  0
    0.6237   -0.6359    0.9301 H   0  0  0  0  0  0  0  0  0  0  0  0
    0.7178   -0.4599   -1.2183 C   0  0  0  0  0  0  0  0  0  0  0  0
    0.0273   -0.2543   -2.0371 H   0  0  0  0  0  0  0  0  0  0  0  0
    1.5556    0.2329   -1.3045 H   0  0  0  0  0  0  0  0  0  0  0  0
    1.2244   -1.8864   -1.4090 C   0  0  0  0  0  0  0  0  0  0  0  0
    1.5631   -2.6481   -0.5127 O   0  0  0  0  0  0  0  0  0  0  0  0
    1.2943   -2.2941   -2.6900 O   0  0  0  0  0  0  0  0  0  0  0  0
    1.6039   -3.1999   -2.6606 H   0  0  0  0  0  0  0  0  0  0  0  0
   -0.2513    1.2567    0.4032 C   0  0  0  0  0  0  0  0  0  0  0  0
   -0.2587    1.6719    1.5612 O   0  0  0  0  0  0  0  0  0  0  0  0
   -0.4625    2.0609   -0.6449 N   0  0  0  0  0  0  0  0  0  0  0  0
   -0.5039    1.6304   -1.5629 H   0  0  0  0  0  0  0  0  0  0  0  0
   -0.7065    3.4983   -0.5463 C   0  0  0  0  0  0  0  0  0  0  0  0
    0.0774    3.9653    0.0540 H   0  0  0  0  0  0  0  0  0  0  0  0
   -0.7133    3.9466   -1.5406 H   0  0  0  0  0  0  0  0  0  0  0  0
   -1.6688    3.6765   -0.0631 H   0  0  0  0  0  0  0  0  0  0  0  0
  5  6  2  0  0  0  0
  5  7  1  0  0  0  0
  2  3  1  0  0  0  0
  2  4  1  0  0  0  0
  2  5  1  0  0  0  0
  1  2  1  0  0  0  0
 18 19  2  0  0  0  0
 18 20  1  0  0  0  0
 16 17  1  0  0  0  0
 14 15  2  0  0  0  0
 14 16  1  0  0  0  0
 11 12  1  0  0  0  0
 11 13  1  0  0  0  0
 11 14  1  0  0  0  0
  9 10  1  0  0  0  0
  9 11  1  0  0  0  0
  9 18  1  0  0  0  0
  7  8  1  0  0  0  0
  7  9  1  0  0  0  0
 22 23  1  0  0  0  0
 22 24  1  0  0  0  0
 22 25  1  0  0  0  0
 20 21  1  0  0  0  0
 20 22  1  0  0  0  0
M  END
$$$$
default_name
  -OEChem-01062215323D

 25 24  0     1  0  0  0  0  0999 V2000
   -2.7826   -3.8464    0.7821 H   0  0  0  0  0  0  0  0  0  0  0  0
   -2.8156   -2.8034    0.4711 C   0  0  0  0  0  0  0  0  0  0  0  0
   -3.4336   -2.2354    1.1641 H   0  0  0  0  0  0  0  0  0  0  0  0
   -3.2256   -2.7344   -0.5349 H   0  0  0  0  0  0  0  0  0  0  0  0
   -1.4126   -2.2444    0.4801 C   0  0  0  0  0  0  0  0  0  0  0  0
   -0.4686   -2.9534    0.8001 O   0  0  0  0  0  0  0  0  0  0  0  0
   -1.2736   -0.9704    0.1241 N   0  0  0  0  0  0  0  0  0  0  0  0
   -2.0996   -0.4354   -0.1019 H   0  0  0  0  0  0  0  0  0  0  0  0
   -0.0016   -0.2394    0.1271 C   0  0  1  0  0  0  0  0  0  0  0  0
    0.6237   -0.6359    0.9301 H   0  0  0  0  0  0  0  0  0  0  0  0
    0.7178   -0.4599   -1.2183 C   0  0  0  0  0  0  0  0  0  0  0  0
    0.0273   -0.2543   -2.0371 H   0  0  0  0  0  0  0  0  0  0  0  0
    1.5556    0.2329   -1.3045 H   0  0  0  0  0  0  0  0  0  0  0  0
    1.2244   -1.8864   -1.4090 C   0  0  0  0  0  0  0  0  0  0  0  0
    1.5631   -2.6481   -0.5127 O   0  0  0  0  0  0  0  0  0  0  0  0
    1.2943   -2.2941   -2.6900 O   0  0  0  0  0  0  0  0  0  0  0  0
    1.6039   -3.1999   -2.6606 H   0  0  0  0  0  0  0  0  0  0  0  0
   -0.2513    1.2567    0.4032 C   0  0  0  0  0  0  0  0  0  0  0  0
    0.0098    1.7262    1.5099 O   0  0  0  0  0  0  0  0  0  0  0  0
   -0.7593    2.0005   -0.5860 N   0  0  0  0  0  0  0  0  0  0  0  0
   -1.0067    1.5252   -1.4478 H   0  0  0  0  0  0  0  0  0  0  0  0
   -1.0448    3.4298   -0.4808 C   0  0  0  0  0  0  0  0  0  0  0  0
   -0.1609    3.9567   -0.1148 H   0  0  0  0  0  0  0  0  0  0  0  0
   -1.3233    3.8294   -1.4568 H   0  0  0  0  0  0  0  0  0  0  0  0
   -1.8635    3.5913    0.2226 H   0  0  0  0  0  0  0  0  0  0  0  0
  5  6  2  0  0  0  0
  5  7  1  0  0  0  0
  2  3  1  0  0  0  0
  2  4  1  0  0  0  0
  2  5  1  0  0  0  0
  1  2  1  0  0  0  0
 18 19  2  0  0  0  0
 18 20  1  0  0  0  0
 16 17  1  0  0  0  0
 14 15  2  0  0  0  0
 14 16  1  0  0  0  0
 11 12  1  0  0  0  0
 11 13  1  0  0  0  0
 11 14  1  0  0  0  0
  9 10  1  0  0  0  0
  9 11  1  0  0  0  0
  9 18  1  0  0  0  0
  7  8  1  0  0  0  0
  7  9  1  0  0  0  0
 22 23  1  0  0  0  0
 22 24  1  0  0  0  0
 22 25  1  0  0  0  0
 20 21  1  0  0  0  0
 20 22  1  0  0  0  0
M  END
$$$$
default_name
  -OEChem-01062215323D

 25 24  0     1  0  0  0  0  0999 V2000
   -2.7826   -3.8464    0.7821 H   0  0  0  0  0  0  0  0  0  0  0  0
   -2.8156   -2.8034    0.4711 C   0  0  0  0  0  0  0  0  0  0  0  0
   -3.4336   -2.2354    1.1641 H   0  0  0  0  0  0  0  0  0  0  0  0
   -3.2256   -2.7344   -0.5349 H   0  0  0  0  0  0  0  0  0  0  0  0
   -1.4126   -2.2444    0.4801 C   0  0  0  0  0  0  0  0  0  0  0  0
   -0.4686   -2.9534    0.8001 O   0  0  0  0  0  0  0  0  0  0  0  0
   -1.2736   -0.9704    0.1241 N   0  0  0  0  0  0  0  0  0  0  0  0
   -2.0996   -0.4354   -0.1019 H   0  0  0  0  0  0  0  0  0  0  0  0
   -0.0016   -0.2394    0.1271 C   0  0  1  0  0  0  0  0  0  0  0  0
    0.6237   -0.6359    0.9301 H   0  0  0  0  0  0  0  0  0  0  0  0
    0.7178   -0.4599   -1.2183 C   0  0  0  0  0  0  0  0  0  0  0  0
    0.0273   -0.2543   -2.0371 H   0  0  0  0  0  0  0  0  0  0  0  0
    1.5556    0.2329   -1.3045 H   0  0  0  0  0  0  0  0  0  0  0  0
    1.2244   -1.8864   -1.4090 C   0  0  0  0  0  0  0  0  0  0  0  0
    1.5631   -2.6481   -0.5127 O   0  0  0  0  0  0  0  0  0  0  0  0
    1.2943   -2.2941   -2.6900 O   0  0  0  0  0  0  0  0  0  0  0  0
    1.6039   -3.1999   -2.6606 H   0  0  0  0  0  0  0  0  0  0  0  0
   -0.2513    1.2567    0.4032 C   0  0  0  0  0  0  0  0  0  0  0  0
    0.2538    1.7889    1.3907 O   0  0  0  0  0  0  0  0  0  0  0  0
   -1.0283    1.9309   -0.4520 N   0  0  0  0  0  0  0  0  0  0  0  0
   -1.4586    1.4052   -1.2060 H   0  0  0  0  0  0  0  0  0  0  0  0
   -1.3520    3.3507   -0.3298 C   0  0  0  0  0  0  0  0  0  0  0  0
   -0.4331    3.9302   -0.2177 H   0  0  0  0  0  0  0  0  0  0  0  0
   -1.8861    3.6914   -1.2177 H   0  0  0  0  0  0  0  0  0  0  0  0
   -1.9759    3.5120    0.5511 H   0  0  0  0  0  0  0  0  0  0  0  0
  5  6  2  0  0  0  0
  5  7  1  0  0  0  0
  2  3  1  0  0  0  0
  2  4  1  0  0  0  0
  2  5  1  0  0  0  0
  1  2  1  0  0  0  0
 18 19  2  0  0  0  0
 18 20  1  0  0  0  0
 16 17  1  0  0  0  0
 14 15  2  0  0  0  0
 14 16  1  0  0  0  0
 11 12  1  0  0  0  0
 11 13  1  0  0  0  0
 11 14  1  0  0  0  0
  9 10  1  0  0  0  0
  9 11  1  0  0  0  0
  9 18  1  0  0  0  0
  7  8  1  0  0  0  0
  7  9  1  0  0  0  0
 22 23  1  0  0  0  0
 22 24  1  0  0  0  0
 22 25  1  0  0  0  0
 20 21  1  0  0  0  0
 20 22  1  0  0  0  0
M  END
$$$$
default_name
  -OEChem-01062215323D

 25 24  0     1  0  0  0  0  0999 V2000
   -2.7826   -3.8464    0.7821 H   0  0  0  0  0  0  0  0  0  0  0  0
   -2.8156   -2.8034    0.4711 C   0  0  0  0  0  0  0  0  0  0  0  0
   -3.4336   -2.2354    1.1641 H   0  0  0  0  0  0  0  0  0  0  0  0
   -3.2256   -2.7344   -0.5349 H   0  0  0  0  0  0  0  0  0  0  0  0
   -1.4126   -2.2444    0.4801 C   0  0  0  0  0  0  0  0  0  0  0  0
   -0.4686   -2.9534    0.8001 O   0  0  0  0  0  0  0  0  0  0  0  0
   -1.2736   -0.9704    0.1241 N   0  0  0  0  0  0  0  0  0  0  0  0
   -2.0996   -0.4354   -0.1019 H   0  0  0  0  0  0  0  0  0  0  0  0
   -0.0016   -0.2394    0.1271 C   0  0  1  0  0  0  0  0  0  0  0  0
    0.6237   -0.6359    0.9301 H   0  0  0  0  0  0  0  0  0  0  0  0
    0.7178   -0.4599   -1.2183 C   0  0  0  0  0  0  0  0  0  0  0  0
    0.0273   -0.2543   -2.0371 H   0  0  0  0  0  0  0  0  0  0  0  0
    1.5556    0.2329   -1.3045 H   0  0  0  0  0  0  0  0  0  0  0  0
    1.2244   -1.8864   -1.4090 C   0  0  0  0  0  0  0  0  0  0  0  0
    1.5631   -2.6481   -0.5127 O   0  0  0  0  0  0  0  0  0  0  0  0
    1.2943   -2.2941   -2.6900 O   0  0  0  0  0  0  0  0  0  0  0  0
    1.6039   -3.1999   -2.6606 H   0  0  0  0  0  0  0  0  0  0  0  0
   -0.2513    1.2567    0.4032 C   0  0  0  0  0  0  0  0  0  0  0  0
    0.4566    1.8558    1.2116 O   0  0  0  0  0  0  0  0  0  0  0  0
   -1.2513    1.8568   -0.2521 N   0  0  0  0  0  0  0  0  0  0  0  0
   -1.8287    1.2785   -0.8538 H   0  0  0  0  0  0  0  0  0  0  0  0
   -1.6071    3.2663   -0.1034 C   0  0  0  0  0  0  0  0  0  0  0  0
   -0.7206    3.8878   -0.2476 H   0  0  0  0  0  0  0  0  0  0  0  0
   -2.3632    3.5420   -0.8396 H   0  0  0  0  0  0  0  0  0  0  0  0
   -1.9983    3.4439    0.8999 H   0  0  0  0  0  0  0  0  0  0  0  0
  5  6  2  0  0  0  0
  5  7  1  0  0  0  0
  2  3  1  0  0  0  0
  2  4  1  0  0  0  0
  2  5  1  0  0  0  0
  1  2  1  0  0  0  0
 18 19  2  0  0  0  0
 18 20  1  0  0  0  0
 16 17  1  0  0  0  0
 14 15  2  0  0  0  0
 14 16  1  0  0  0  0
 11 12  1  0  0  0  0
 11 13  1  0  0  0  0
 11 14  1  0  0  0  0
  9 10  1  0  0  0  0
  9 11  1  0  0  0  0
  9 18  1  0  0  0  0
  7  8  1  0  0  0  0
  7  9  1  0  0  0  0
 22 23  1  0  0  0  0
 22 24  1  0  0  0  0
 22 25  1  0  0  0  0
 20 21  1  0  0  0  0
 20 22  1  0  0  0  0
M  END
$$$$
default_name
  -OEChem-01062215323D

 25 24  0     1  0  0  0  0  0999 V2000
   -2.7826   -3.8464    0.7821 H   0  0  0  0  0  0  0  0  0  0  0  0
   -2.8156   -2.8034    0.4711 C   0  0  0  0  0  0  0  0  0  0  0  0
   -3.4336   -2.2354    1.1641 H   0  0  0  0  0  0  0  0  0  0  0  0
   -3.2256   -2.7344   -0.5349 H   0  0  0  0  0  0  0  0  0  0  0  0
   -1.4126   -2.2444    0.4801 C   0  0  0  0  0  0  0  0  0  0  0  0
   -0.4686   -2.9534    0.8001 O   0  0  0  0  0  0  0  0  0  0  0  0
   -1.2736   -0.9704    0.1241 N   0  0  0  0  0  0  0  0  0  0  0  0
   -2.0996   -0.4354   -0.1019 H   0  0  0  0  0  0  0  0  0  0  0  0
   -0.0016   -0.2394    0.1271 C   0  0  1  0  0  0  0  0  0  0  0  0
    0.6237   -0.6359    0.9301 H   0  0  0  0  0  0  0  0  0  0  0  0
    0.7178   -0.4599   -1.2183 C   0  0  0  0  0  0  0  0  0  0  0  0
    0.0273   -0.2543   -2.0371 H   0  0  0  0  0  0  0  0  0  0  0  0
    1.5556    0.2329   -1.3045 H   0  0  0  0  0  0  0  0  0  0  0  0
    1.2244   -1.8864   -1.4090 C   0  0  0  0  0  0  0  0  0  0  0  0
    1.5631   -2.6481   -0.5127 O   0  0  0  0  0  0  0  0  0  0  0  0
    1.2943   -2.2941   -2.6900 O   0  0  0  0  0  0  0  0  0  0  0  0
    1.6039   -3.1999   -2.6606 H   0  0  0  0  0  0  0  0  0  0  0  0
   -0.2513    1.2567    0.4032 C   0  0  0  0  0  0  0  0  0  0  0  0
    0.6044    1.9223    0.9849 O   0  0  0  0  0  0  0  0  0  0  0  0
   -1.4131    1.7833    0.0001 N   0  0  0  0  0  0  0  0  0  0  0  0
   -2.0920    1.1536   -0.4154 H   0  0  0  0  0  0  0  0  0  0  0  0
   -1.7927    3.1825    0.1829 C   0  0  0  0  0  0  0  0  0  0  0  0
   -1.0039    3.8322   -0.2025 H   0  0  0  0  0  0  0  0  0  0  0  0
   -2.7222    3.3915   -0.3484 H   0  0  0  0  0  0  0  0  0  0  0  0
   -1.9291    3.3917    1.2453 H   0  0  0  0  0  0  0  0  0  0  0  0
  5  6  2  0  0  0  0
  5  7  1  0  0  0  0
  2  3  1  0  0  0  0
  2  4  1  0  0  0  0
  2  5  1  0  0  0  0
  1  2  1  0  0  0  0
 18 19  2  0  0  0  0
 18 20  1  0  0  0  0
 16 17  1  0  0  0  0
 14 15  2  0  0  0  0
 14 16  1  0  0  0  0
 11 12  1  0  0  0  0
 11 13  1  0  0  0  0
 11 14  1  0  0  0  0
  9 10  1  0  0  0  0
  9 11  1  0  0  0  0
  9 18  1  0  0  0  0
  7  8  1  0  0  0  0
  7  9  1  0  0  0  0
 22 23  1  0  0  0  0
 22 24  1  0  0  0  0
 22 25  1  0  0  0  0
 20 21  1  0  0  0  0
 20 22  1  0  0  0  0
M  END
$$$$
default_name
  -OEChem-01062215323D

 25 24  0     1  0  0  0  0  0999 V2000
   -2.7826   -3.8464    0.7821 H   0  0  0  0  0  0  0  0  0  0  0  0
   -2.8156   -2.8034    0.4711 C   0  0  0  0  0  0  0  0  0  0  0  0
   -3.4336   -2.2354    1.1641 H   0  0  0  0  0  0  0  0  0  0  0  0
   -3.2256   -2.7344   -0.5349 H   0  0  0  0  0  0  0  0  0  0  0  0
   -1.4126   -2.2444    0.4801 C   0  0  0  0  0  0  0  0  0  0  0  0
   -0.4686   -2.9534    0.8001 O   0  0  0  0  0  0  0  0  0  0  0  0
   -1.2736   -0.9704    0.1241 N   0  0  0  0  0  0  0  0  0  0  0  0
   -2.0996   -0.4354   -0.1019 H   0  0  0  0  0  0  0  0  0  0  0  0
   -0.0016   -0.2394    0.1271 C   0  0  1  0  0  0  0  0  0  0  0  0
    0.6237   -0.6359    0.9301 H   0  0  0  0  0  0  0  0  0  0  0  0
    0.7178   -0.4599   -1.2183 C   0  0  0  0  0  0  0  0  0  0  0  0
    0.0273   -0.2543   -2.0371 H   0  0  0  0  0  0  0  0  0  0  0  0
    1.5556    0.2329   -1.3045 H   0  0  0  0  0  0  0  0  0  0  0  0
    1.2244   -1.8864   -1.4090 C   0  0  0  0  0  0  0  0  0  0  0  0
    1.5631   -2.6481   -0.5127 O   0  0  0  0  0  0  0  0  0  0  0  0
    1.2943   -2.2941   -2.6900 O   0  0  0  0  0  0  0  0  0  0  0  0
    1.6039   -3.1999   -2.6606 H   0  0  0  0  0  0  0  0  0  0  0  0
   -0.2513    1.2567    0.4032 C   0  0  0  0  0  0  0  0  0  0  0  0
    0.6871    1.9838    0.7260 O   0  0  0  0  0  0  0  0  0  0  0  0
   -1.5026    1.7153    0.2874 N   0  0  0  0  0  0  0  0  0  0  0  0
   -2.2304    1.0392    0.0795 H   0  0  0  0  0  0  0  0  0  0  0  0
   -1.8963    3.1050    0.5095 C   0  0  0  0  0  0  0  0  0  0  0  0
   -1.2635    3.7673   -0.0854 H   0  0  0  0  0  0  0  0  0  0  0  0
   -2.9386    3.2500    0.2226 H   0  0  0  0  0  0  0  0  0  0  0  0
   -1.7731    3.3589    1.5638 H   0  0  0  0  0  0  0  0  0  0  0  0
  5  6  2  0  0  0  0
  5  7  1  0  0  0  0
  2  3  1  0  0  0  0
  2  4  1  0  0  0  0
  2  5  1  0  0  0  0
  1  2  1  0  0  0  0
 18 19  2  0  0  0  0
 18 20  1  0  0  0  0
 16 17  1  0  0  0  0
 14 15  2  0  0  0  0
 14 16  1  0  0  0  0
 11 12  1  0  0  0  0
 11 13  1  0  0  0  0
 11 14  1  0  0  0  0
  9 10  1  0  0  0  0
  9 11  1  0  0  0  0
  9 18  1  0  0  0  0
  7  8  1  0  0  0  0
  7  9  1  0  0  0  0
 22 23  1  0  0  0  0
 22 24  1  0  0  0  0
 22 25  1  0  0  0  0
 20 21  1  0  0  0  0
 20 22  1  0  0  0  0
M  END
$$$$
default_name
  -OEChem-01062215323D

 25 24  0     1  0  0  0  0  0999 V2000
   -2.7826   -3.8464    0.7821 H   0  0  0  0  0  0  0  0  0  0  0  0
   -2.8156   -2.8034    0.4711 C   0  0  0  0  0  0  0  0  0  0  0  0
   -3.4336   -2.2354    1.1641 H   0  0  0  0  0  0  0  0  0  0  0  0
   -3.2256   -2.7344   -0.5349 H   0  0  0  0  0  0  0  0  0  0  0  0
   -1.4126   -2.2444    0.4801 C   0  0  0  0  0  0  0  0  0  0  0  0
   -0.4686   -2.9534    0.8001 O   0  0  0  0  0  0  0  0  0  0  0  0
   -1.2736   -0.9704    0.1241 N   0  0  0  0  0  0  0  0  0  0  0  0
   -2.0996   -0.4354   -0.1019 H   0  0  0  0  0  0  0  0  0  0  0  0
   -0.0016   -0.2394    0.1271 C   0  0  1  0  0  0  0  0  0  0  0  0
    0.6237   -0.6359    0.9301 H   0  0  0  0  0  0  0  0  0  0  0  0
    0.7178   -0.4599   -1.2183 C   0  0  0  0  0  0  0  0  0  0  0  0
    0.0273   -0.2543   -2.0371 H   0  0  0  0  0  0  0  0  0  0  0  0
    1.5556    0.2329   -1.3045 H   0  0  0  0  0  0  0  0  0  0  0  0
    1.2244   -1.8864   -1.4090 C   0  0  0  0  0  0  0  0  0  0  0  0
    1.5631   -2.6481   -0.5127 O   0  0  0  0  0  0  0  0  0  0  0  0
    1.2943   -2.2941   -2.6900 O   0  0  0  0  0  0  0  0  0  0  0  0
    1.6039   -3.1999   -2.6606 H   0  0  0  0  0  0  0  0  0  0  0  0
   -0.2513    1.2567    0.4032 C   0  0  0  0  0  0  0  0  0  0  0  0
    0.6992    2.0363    0.4526 O   0  0  0  0  0  0  0  0  0  0  0  0
   -1.5138    1.6576    0.5902 N   0  0  0  0  0  0  0  0  0  0  0  0
   -2.2344    0.9431    0.5970 H   0  0  0  0  0  0  0  0  0  0  0  0
   -1.9106    3.0390    0.8543 C   0  0  0  0  0  0  0  0  0  0  0  0
   -1.4820    3.6974    0.0956 H   0  0  0  0  0  0  0  0  0  0  0  0
   -2.9976    3.1273    0.8345 H   0  0  0  0  0  0  0  0  0  0  0  0
   -1.5409    3.3479    1.8336 H   0  0  0  0  0  0  0  0  0  0  0  0
  5  6  2  0  0  0  0
  5  7  1  0  0  0  0
  2  3  1  0  0  0  0
  2  4  1  0  0  0  0
  2  5  1  0  0  0  0
  1  2  1  0  0  0  0
 18 19  2  0  0  0  0
 18 20  1  0  0  0  0
 16 17  1  0  0  0  0
 14 15  2  0  0  0  0
 14 16  1  0  0  0  0
 11 12  1  0  0  0  0
 11 13  1  0  0  0  0
 11 14  1  0  0  0  0
  9 10  1  0  0  0  0
  9 11  1  0  0  0  0
  9 18  1  0  0  0  0
  7  8  1  0  0  0  0
  7  9  1  0  0  0  0
 22 23  1  0  0  0  0
 22 24  1  0  0  0  0
 22 25  1  0  0  0  0
 20 21  1  0  0  0  0
 20 22  1  0  0  0  0
M  END
$$$$
default_name
  -OEChem-01062215323D

 25 24  0     1  0  0  0  0  0999 V2000
   -2.7826   -3.8464    0.7821 H   0  0  0  0  0  0  0  0  0  0  0  0
   -2.8156   -2.8034    0.4711 C   0  0  0  0  0  0  0  0  0  0  0  0
   -3.4336   -2.2354    1.1641 H   0  0  0  0  0  0  0  0  0  0  0  0
   -3.2256   -2.7344   -0.5349 H   0  0  0  0  0  0  0  0  0  0  0  0
   -1.4126   -2.2444    0.4801 C   0  0  0  0  0  0  0  0  0  0  0  0
   -0.4686   -2.9534    0.8001 O   0  0  0  0  0  0  0  0  0  0  0  0
   -1.2736   -0.9704    0.1241 N   0  0  0  0  0  0  0  0  0  0  0  0
   -2.0996   -0.4354   -0.1019 H   0  0  0  0  0  0  0  0  0  0  0  0
   -0.0016   -0.2394    0.1271 C   0  0  1  0  0  0  0  0  0  0  0  0
    0.6237   -0.6359    0.9301 H   0  0  0  0  0  0  0  0  0  0  0  0
    0.7178   -0.4599   -1.2183 C   0  0  0  0  0  0  0  0  0  0  0  0
    0.0273   -0.2543   -2.0371 H   0  0  0  0  0  0  0  0  0  0  0  0
    1.5556    0.2329   -1.3045 H   0  0  0  0  0  0  0  0  0  0  0  0
    1.2244   -1.8864   -1.4090 C   0  0  0  0  0  0  0  0  0  0  0  0
    1.5631   -2.6481   -0.5127 O   0  0  0  0  0  0  0  0  0  0  0  0
    1.2943   -2.2941   -2.6900 O   0  0  0  0  0  0  0  0  0  0  0  0
    1.6039   -3.1999   -2.6606 H   0  0  0  0  0  0  0  0  0  0  0  0
   -0.2513    1.2567    0.4032 C   0  0  0  0  0  0  0  0  0  0  0  0
    0.6397    2.0761    0.1833 O   0  0  0  0  0  0  0  0  0  0  0  0
   -1.4458    1.6140    0.8880 N   0  0  0  0  0  0  0  0  0  0  0  0
   -2.1039    0.8717    1.1020 H   0  0  0  0  0  0  0  0  0  0  0  0
   -1.8349    2.9890    1.1937 C   0  0  0  0  0  0  0  0  0  0  0  0
   -1.6442    3.6274    0.3283 H   0  0  0  0  0  0  0  0  0  0  0  0
   -2.8953    3.0316    1.4454 H   0  0  0  0  0  0  0  0  0  0  0  0
   -1.2484    3.3593    2.0364 H   0  0  0  0  0  0  0  0  0  0  0  0
  5  6  2  0  0  0  0
  5  7  1  0  0  0  0
  2  3  1  0  0  0  0
  2  4  1  0  0  0  0
  2  5  1  0  0  0  0
  1  2  1  0  0  0  0
 18 19  2  0  0  0  0
 18 20  1  0  0  0  0
 16 17  1  0  0  0  0
 14 15  2  0  0  0  0
 14 16  1  0  0  0  0
 11 12  1  0  0  0  0
 11 13  1  0  0  0  0
 11 14  1  0  0  0  0
  9 10  1  0  0  0  0
  9 11  1  0  0  0  0
  9 18  1  0  0  0  0
  7  8  1  0  0  0  0
  7  9  1  0  0  0  0
 22 23  1  0  0  0  0
 22 24  1  0  0  0  0
 22 25  1  0  0  0  0
 20 21  1  0  0  0  0
 20 22  1  0  0  0  0
M  END
$$$$
default_name
  -OEChem-01062215323D

 25 24  0     1  0  0  0  0  0999 V2000
   -2.7826   -3.8464    0.7821 H   0  0  0  0  0  0  0  0  0  0  0  0
   -2.8156   -2.8034    0.4711 C   0  0  0  0  0  0  0  0  0  0  0  0
   -3.4336   -2.2354    1.1641 H   0  0  0  0  0  0  0  0  0  0  0  0
   -3.2256   -2.7344   -0.5349 H   0  0  0  0  0  0  0  0  0  0  0  0
   -1.4126   -2.2444    0.4801 C   0  0  0  0  0  0  0  0  0  0  0  0
   -0.4686   -2.9534    0.8001 O   0  0  0  0  0  0  0  0  0  0  0  0
   -1.2736   -0.9704    0.1241 N   0  0  0  0  0  0  0  0  0  0  0  0
   -2.0996   -0.4354   -0.1019 H   0  0  0  0  0  0  0  0  0  0  0  0
   -0.0016   -0.2394    0.1271 C   0  0  1  0  0  0  0  0  0  0  0  0
    0.6237   -0.6359    0.9301 H   0  0  0  0  0  0  0  0  0  0  0  0
    0.7178   -0.4599   -1.2183 C   0  0  0  0  0  0  0  0  0  0  0  0
    0.0273   -0.2543   -2.0371 H   0  0  0  0  0  0  0  0  0  0  0  0
    1.5556    0.2329   -1.3045 H   0  0  0  0  0  0  0  0  0  0  0  0
    1.2244   -1.8864   -1.4090 C   0  0  0  0  0  0  0  0  0  0  0  0
    1.5631   -2.6481   -0.5127 O   0  0  0  0  0  0  0  0  0  0  0  0
    1.2943   -2.2941   -2.6900 O   0  0  0  0  0  0  0  0  0  0  0  0
    1.6039   -3.1999   -2.6606 H   0  0  0  0  0  0  0  0  0  0  0  0
   -0.2513    1.2567    0.4032 C   0  0  0  0  0  0  0  0  0  0  0  0
    0.5128    2.1004   -0.0636 O   0  0  0  0  0  0  0  0  0  0  0  0
   -1.3033    1.5875    1.1603 N   0  0  0  0  0  0  0  0  0  0  0  0
   -1.8477    0.8299    1.5599 H   0  0  0  0  0  0  0  0  0  0  0  0
   -1.6741    2.9584    1.5046 C   0  0  0  0  0  0  0  0  0  0  0  0
   -1.7393    3.5620    0.5967 H   0  0  0  0  0  0  0  0  0  0  0  0
   -2.6385    2.9695    2.0139 H   0  0  0  0  0  0  0  0  0  0  0  0
   -0.9154    3.3923    2.1583 H   0  0  0  0  0  0  0  0  0  0  0  0
  5  6  2  0  0  0  0
  5  7  1  0  0  0  0
  2  3  1  0  0  0  0
  2  4  1  0  0  0  0
  2  5  1  0  0  0  0
  1  2  1  0  0  0  0
 18 19  2  0  0  0  0
 18 20  1  0  0  0  0
 16 17  1  0  0  0  0
 14 15  2  0  0  0  0
 14 16  1  0  0  0  0
 11 12  1  0  0  0  0
 11 13  1  0  0  0  0
 11 14  1  0  0  0  0
  9 10  1  0  0  0  0
  9 11  1  0  0  0  0
  9 18  1  0  0  0  0
  7  8  1  0  0  0  0
  7  9  1  0  0  0  0
 22 23  1  0  0  0  0
 22 24  1  0  0  0  0
 22 25  1  0  0  0  0
 20 21  1  0  0  0  0
 20 22  1  0  0  0  0
M  END
$$$$
default_name
  -OEChem-01062215323D

 25 24  0     1  0  0  0  0  0999 V2000
   -2.7826   -3.8464    0.7821 H   0  0  0  0  0  0  0  0  0  0  0  0
   -2.8156   -2.8034    0.4711 C   0  0  0  0  0  0  0  0  0  0  0  0
   -3.4336   -2.2354    1.1641 H   0  0  0  0  0  0  0  0  0  0  0  0
   -3.2256   -2.7344   -0.5349 H   0  0  0  0  0  0  0  0  0  0  0  0
   -1.4126   -2.2444    0.4801 C   0  0  0  0  0  0  0  0  0  0  0  0
   -0.4686   -2.9534    0.8001 O   0  0  0  0  0  0  0  0  0  0  0  0
   -1.2736   -0.9704    0.1241 N   0  0  0  0  0  0  0  0  0  0  0  0
   -2.0996   -0.4354   -0.1019 H   0  0  0  0  0  0  0  0  0  0  0  0
   -0.0016   -0.2394    0.1271 C   0  0  1  0  0  0  0  0  0  0  0  0
    0.6237   -0.6359    0.9301 H   0  0  0  0  0  0  0  0  0  0  0  0
    0.7178   -0.4599   -1.2183 C   0  0  0  0  0  0  0  0  0  0  0  0
    0.0273   -0.2543   -2.0371 H   0  0  0  0  0  0  0  0  0  0  0  0
    1.5556    0.2329   -1.3045 H   0  0  0  0  0  0  0  0  0  0  0  0
    1.2244   -1.8864   -1.4090 C   0  0  0  0  0  0  0  0  0  0  0  0
    1.5631   -2.6481   -0.5127 O   0  0  0  0  0  0  0  0  0  0  0  0
    1.2943   -2.2941   -2.6900 O   0  0  0  0  0  0  0  0  0  0  0  0
    1.6039   -3.1999   -2.6606 H   0  0  0  0  0  0  0  0  0  0  0  0
   -0.2513    1.2567    0.4032 C   0  0  0  0  0  0  0  0  0  0  0  0
    0.3270    2.1078   -0.2713 O   0  0  0  0  0  0  0  0  0  0  0  0
   -1.0961    1.5799    1.3888 N   0  0  0  0  0  0  0  0  0  0  0  0
   -1.4833    0.8206    1.9397 H   0  0  0  0  0  0  0  0  0  0  0  0
   -1.4393    2.9494    1.7658 C   0  0  0  0  0  0  0  0  0  0  0  0
   -1.7607    3.5057    0.8825 H   0  0  0  0  0  0  0  0  0  0  0  0
   -2.2449    2.9453    2.5011 H   0  0  0  0  0  0  0  0  0  0  0  0
   -0.5647    3.4448    2.1910 H   0  0  0  0  0  0  0  0  0  0  0  0
  5  6  2  0  0  0  0
  5  7  1  0  0  0  0
  2  3  1  0  0  0  0
  2  4  1  0  0  0  0
  2  5  1  0  0  0  0
  1  2  1  0  0  0  0
 18 19  2  0  0  0  0
 18 20  1  0  0  0  0
 16 17  1  0  0  0  0
 14 15  2  0  0  0  0
 14 16  1  0  0  0  0
 11 12  1  0  0  0  0
 11 13  1  0  0  0  0
 11 14  1  0  0  0  0
  9 10  1  0  0  0  0
  9 11  1  0  0  0  0
  9 18  1  0  0  0  0
  7  8  1  0  0  0  0
  7  9  1  0  0  0  0
 22 23  1  0  0  0  0
 22 24  1  0  0  0  0
 22 25  1  0  0  0  0
 20 21  1  0  0  0  0
 20 22  1  0  0  0  0
M  END
$$$$
default_name
  -OEChem-01062215323D

 25 24  0     1  0  0  0  0  0999 V2000
   -2.7826   -3.8464    0.7821 H   0  0  0  0  0  0  0  0  0  0  0  0
   -2.8156   -2.8034    0.4711 C   0  0  0  0  0  0  0  0  0  0  0  0
   -3.4336   -2.2354    1.1641 H   0  0  0  0  0  0  0  0  0  0  0  0
   -3.2256   -2.7344   -0.5349 H   0  0  0  0  0  0  0  0  0  0  0  0
   -1.4126   -2.2444    0.4801 C   0  0  0  0  0  0  0  0  0  0  0  0
   -0.4686   -2.9534    0.8001 O   0  0  0  0  0  0  0  0  0  0  0  0
   -1.2736   -0.9704    0.1241 N   0  0  0  0  0  0  0  0  0  0  0  0
   -2.0996   -0.4354   -0.1019 H   0  0  0  0  0  0  0  0  0  0  0  0
   -0.0016   -0.2394    0.1271 C   0  0  1  0  0  0  0  0  0  0  0  0
    0.6237   -0.6359    0.9301 H   0  0  0  0  0  0  0  0  0  0  0  0
    0.7178   -0.4599   -1.2183 C   0  0  0  0  0  0  0  0  0  0  0  0
    0.0273   -0.2543   -2.0371 H   0  0  0  0  0  0  0  0  0  0  0  0
    1.5556    0.2329   -1.3045 H   0  0  0  0  0  0  0  0  0  0  0  0
    1.2244   -1.8864   -1.4090 C   0  0  0  0  0  0  0  0  0  0  0  0
    1.5631   -2.6481   -0.5127 O   0  0  0  0  0  0  0  0  0  0  0  0
    1.2943   -2.2941   -2.6900 O   0  0  0  0  0  0  0  0  0  0  0  0
    1.6039   -3.1999   -2.6606 H   0  0  0  0  0  0  0  0  0  0  0  0
   -0.2513    1.2567    0.4032 C   0  0  0  0  0  0  0  0  0  0  0  0
    0.0951    2.0975   -0.4255 O   0  0  0  0  0  0  0  0  0  0  0  0
   -0.8382    1.5918    1.5576 N   0  0  0  0  0  0  0  0  0  0  0  0
   -1.0355    0.8445    2.2153 H   0  0  0  0  0  0  0  0  0  0  0  0
   -1.1465    2.9625    1.9595 C   0  0  0  0  0  0  0  0  0  0  0  0
   -1.7070    3.4623    1.1664 H   0  0  0  0  0  0  0  0  0  0  0  0
   -1.7412    2.9606    2.8738 H   0  0  0  0  0  0  0  0  0  0  0  0
   -0.2202    3.5131    2.1323 H   0  0  0  0  0  0  0  0  0  0  0  0
  5  6  2  0  0  0  0
  5  7  1  0  0  0  0
  2  3  1  0  0  0  0
  2  4  1  0  0  0  0
  2  5  1  0  0  0  0
  1  2  1  0  0  0  0
 18 19  2  0  0  0  0
 18 20  1  0  0  0  0
 16 17  1  0  0  0  0
 14 15  2  0  0  0  0
 14 16  1  0  0  0  0
 11 12  1  0  0  0  0
 11 13  1  0  0  0  0
 11 14  1  0  0  0  0
  9 10  1  0  0  0  0
  9 11  1  0  0  0  0
  9 18  1  0  0  0  0
  7  8  1  0  0  0  0
  7  9  1  0  0  0  0
 22 23  1  0  0  0  0
 22 24  1  0  0  0  0
 22 25  1  0  0  0  0
 20 21  1  0  0  0  0
 20 22  1  0  0  0  0
M  END
$$$$
default_name
  -OEChem-01062215323D

 25 24  0     1  0  0  0  0  0999 V2000
   -2.7826   -3.8464    0.7821 H   0  0  0  0  0  0  0  0  0  0  0  0
   -2.8156   -2.8034    0.4711 C   0  0  0  0  0  0  0  0  0  0  0  0
   -3.4336   -2.2354    1.1641 H   0  0  0  0  0  0  0  0  0  0  0  0
   -3.2256   -2.7344   -0.5349 H   0  0  0  0  0  0  0  0  0  0  0  0
   -1.4126   -2.2444    0.4801 C   0  0  0  0  0  0  0  0  0  0  0  0
   -0.4686   -2.9534    0.8001 O   0  0  0  0  0  0  0  0  0  0  0  0
   -1.2736   -0.9704    0.1241 N   0  0  0  0  0  0  0  0  0  0  0  0
   -2.0996   -0.4354   -0.1019 H   0  0  0  0  0  0  0  0  0  0  0  0
   -0.0016   -0.2394    0.1271 C   0  0  1  0  0  0  0  0  0  0  0  0
    0.6237   -0.6359    0.9301 H   0  0  0  0  0  0  0  0  0  0  0  0
    0.7178   -0.4599   -1.2183 C   0  0  0  0  0  0  0  0  0  0  0  0
    0.0273   -0.2543   -2.0371 H   0  0  0  0  0  0  0  0  0  0  0  0
    1.5556    0.2329   -1.3045 H   0  0  0  0  0  0  0  0  0  0  0  0
    1.2244   -1.8864   -1.4090 C   0  0  0  0  0  0  0  0  0  0  0  0
    1.5631   -2.6481   -0.5127 O   0  0  0  0  0  0  0  0  0  0  0  0
    1.2943   -2.2941   -2.6900 O   0  0  0  0  0  0  0  0  0  0  0  0
    1.6039   -3.1999   -2.6606 H   0  0  0  0  0  0  0  0  0  0  0  0
   -0.2513    1.2567    0.4032 C   0  0  0  0  0  0  0  0  0  0  0  0
   -0.1671    2.0704   -0.5157 O   0  0  0  0  0  0  0  0  0  0  0  0
   -0.5472    1.6223    1.6555 N   0  0  0  0  0  0  0  0  0  0  0  0
   -0.5348    0.8998    2.3681 H   0  0  0  0  0  0  0  0  0  0  0  0
   -0.8156    2.9969    2.0725 C   0  0  0  0  0  0  0  0  0  0  0  0
   -1.5817    3.4348    1.4289 H   0  0  0  0  0  0  0  0  0  0  0  0
   -1.1618    3.0143    3.1067 H   0  0  0  0  0  0  0  0  0  0  0  0
    0.0948    3.5926    1.9862 H   0  0  0  0  0  0  0  0  0  0  0  0
  5  6  2  0  0  0  0
  5  7  1  0  0  0  0
  2  3  1  0  0  0  0
  2  4  1  0  0  0  0
  2  5  1  0  0  0  0
  1  2  1  0  0  0  0
 18 19  2  0  0  0  0
 18 20  1  0  0  0  0
 16 17  1  0  0  0  0
 14 15  2  0  0  0  0
 14 16  1  0  0  0  0
 11 12  1  0  0  0  0
 11 13  1  0  0  0  0
 11 14  1  0  0  0  0
  9 10  1  0  0  0  0
  9 11  1  0  0  0  0
  9 18  1  0  0  0  0
  7  8  1  0  0  0  0
  7  9  1  0  0  0  0
 22 23  1  0  0  0  0
 22 24  1  0  0  0  0
 22 25  1  0  0  0  0
 20 21  1  0  0  0  0
 20 22  1  0  0  0  0
M  END
$$$$
default_name
  -OEChem-01062215323D

 25 24  0     1  0  0  0  0  0999 V2000
   -2.7826   -3.8464    0.7821 H   0  0  0  0  0  0  0  0  0  0  0  0
   -2.8156   -2.8034    0.4711 C   0  0  0  0  0  0  0  0  0  0  0  0
   -3.4336   -2.2354    1.1641 H   0  0  0  0  0  0  0  0  0  0  0  0
   -3.2256   -2.7344   -0.5349 H   0  0  0  0  0  0  0  0  0  0  0  0
   -1.4126   -2.2444    0.4801 C   0  0  0  0  0  0  0  0  0  0  0  0
   -0.4686   -2.9534    0.8001 O   0  0  0  0  0  0  0  0  0  0  0  0
   -1.2736   -0.9704    0.1241 N   0  0  0  0  0  0  0  0  0  0  0  0
   -2.0996   -0.4354   -0.1019 H   0  0  0  0  0  0  0  0  0  0  0  0
   -0.0016   -0.2394    0.1271 C   0  0  1  0  0  0  0  0  0  0  0  0
    0.6237   -0.6359    0.9301 H   0  0  0  0  0  0  0  0  0  0  0  0
    0.7178   -0.4599   -1.2183 C   0  0  0  0  0  0  0  0  0  0  0  0
    0.0273   -0.2543   -2.0371 H   0  0  0  0  0  0  0  0  0  0  0  0
    1.5556    0.2329   -1.3045 H   0  0  0  0  0  0  0  0  0  0  0  0
    1.2244   -1.8864   -1.4090 C   0  0  0  0  0  0  0  0  0  0  0  0
    1.5631   -2.6481   -0.5127 O   0  0  0  0  0  0  0  0  0  0  0  0
    1.2943   -2.2941   -2.6900 O   0  0  0  0  0  0  0  0  0  0  0  0
    1.6039   -3.1999   -2.6606 H   0  0  0  0  0  0  0  0  0  0  0  0
   -0.2513    1.2567    0.4032 C   0  0  0  0  0  0  0  0  0  0  0  0
   -0.4419    2.0283   -0.5359 O   0  0  0  0  0  0  0  0  0  0  0  0
   -0.2430    1.6693    1.6757 N   0  0  0  0  0  0  0  0  0  0  0  0
   -0.0153    0.9829    2.3876 H   0  0  0  0  0  0  0  0  0  0  0  0
   -0.4692    3.0501    2.0971 C   0  0  0  0  0  0  0  0  0  0  0  0
   -1.3936    3.4249    1.6522 H   0  0  0  0  0  0  0  0  0  0  0  0
   -0.5460    3.1028    3.1839 H   0  0  0  0  0  0  0  0  0  0  0  0
    0.3586    3.6779    1.7627 H   0  0  0  0  0  0  0  0  0  0  0  0
  5  6  2  0  0  0  0
  5  7  1  0  0  0  0
  2  3  1  0  0  0  0
  2  4  1  0  0  0  0
  2  5  1  0  0  0  0
  1  2  1  0  0  0  0
 18 19  2  0  0  0  0
 18 20  1  0  0  0  0
 16 17  1  0  0  0  0
 14 15  2  0  0  0  0
 14 16  1  0  0  0  0
 11 12  1  0  0  0  0
 11 13  1  0  0  0  0
 11 14  1  0  0  0  0
  9 10  1  0  0  0  0
  9 11  1  0  0  0  0
  9 18  1  0  0  0  0
  7  8  1  0  0  0  0
  7  9  1  0  0  0  0
 22 23  1  0  0  0  0
 22 24  1  0  0  0  0
 22 25  1  0  0  0  0
 20 21  1  0  0  0  0
 20 22  1  0  0  0  0
M  END
$$$$
default_name
  -OEChem-01062215323D

 25 24  0     1  0  0  0  0  0999 V2000
   -2.7826   -3.8464    0.7821 H   0  0  0  0  0  0  0  0  0  0  0  0
   -2.8156   -2.8034    0.4711 C   0  0  0  0  0  0  0  0  0  0  0  0
   -3.4336   -2.2354    1.1641 H   0  0  0  0  0  0  0  0  0  0  0  0
   -3.2256   -2.7344   -0.5349 H   0  0  0  0  0  0  0  0  0  0  0  0
   -1.4126   -2.2444    0.4801 C   0  0  0  0  0  0  0  0  0  0  0  0
   -0.4686   -2.9534    0.8001 O   0  0  0  0  0  0  0  0  0  0  0  0
   -1.2736   -0.9704    0.1241 N   0  0  0  0  0  0  0  0  0  0  0  0
   -2.0996   -0.4354   -0.1019 H   0  0  0  0  0  0  0  0  0  0  0  0
   -0.0016   -0.2394    0.1271 C   0  0  1  0  0  0  0  0  0  0  0  0
    0.6237   -0.6359    0.9301 H   0  0  0  0  0  0  0  0  0  0  0  0
    0.7178   -0.4599   -1.2183 C   0  0  0  0  0  0  0  0  0  0  0  0
    0.0273   -0.2543   -2.0371 H   0  0  0  0  0  0  0  0  0  0  0  0
    1.5556    0.2329   -1.3045 H   0  0  0  0  0  0  0  0  0  0  0  0
    1.2244   -1.8864   -1.4090 C   0  0  0  0  0  0  0  0  0  0  0  0
    1.5631   -2.6481   -0.5127 O   0  0  0  0  0  0  0  0  0  0  0  0
    1.2943   -2.2941   -2.6900 O   0  0  0  0  0  0  0  0  0  0  0  0
    1.6039   -3.1999   -2.6606 H   0  0  0  0  0  0  0  0  0  0  0  0
   -0.2513    1.2567    0.4032 C   0  0  0  0  0  0  0  0  0  0  0  0
   -0.7104    1.9741   -0.4846 O   0  0  0  0  0  0  0  0  0  0  0  0
    0.0538    1.7297    1.6168 N   0  0  0  0  0  0  0  0  0  0  0  0
    0.4875    1.0880    2.2726 H   0  0  0  0  0  0  0  0  0  0  0  0
   -0.1309    3.1186    2.0317 C   0  0  0  0  0  0  0  0  0  0  0  0
   -1.1553    3.4336    1.8210 H   0  0  0  0  0  0  0  0  0  0  0  0
    0.0640    3.2200    3.1001 H   0  0  0  0  0  0  0  0  0  0  0  0
    0.5533    3.7631    1.4770 H   0  0  0  0  0  0  0  0  0  0  0  0
  5  6  2  0  0  0  0
  5  7  1  0  0  0  0
  2  3  1  0  0  0  0
  2  4  1  0  0  0  0
  2  5  1  0  0  0  0
  1  2  1  0  0  0  0
 18 19  2  0  0  0  0
 18 20  1  0  0  0  0
 16 17  1  0  0  0  0
 14 15  2  0  0  0  0
 14 16  1  0  0  0  0
 11 12  1  0  0  0  0
 11 13  1  0  0  0  0
 11 14  1  0  0  0  0
  9 10  1  0  0  0  0
  9 11  1  0  0  0  0
  9 18  1  0  0  0  0
  7  8  1  0  0  0  0
  7  9  1  0  0  0  0
 22 23  1  0  0  0  0
 22 24  1  0  0  0  0
 22 25  1  0  0  0  0
 20 21  1  0  0  0  0
 20 22  1  0  0  0  0
M  END
$$$$
default_name
  -OEChem-01062215323D

 25 24  0     1  0  0  0  0  0999 V2000
   -2.7826   -3.8464    0.7821 H   0  0  0  0  0  0  0  0  0  0  0  0
   -2.8156   -2.8034    0.4711 C   0  0  0  0  0  0  0  0  0  0  0  0
   -3.4336   -2.2354    1.1641 H   0  0  0  0  0  0  0  0  0  0  0  0
   -3.2256   -2.7344   -0.5349 H   0  0  0  0  0  0  0  0  0  0  0  0
   -1.4126   -2.2444    0.4801 C   0  0  0  0  0  0  0  0  0  0  0  0
   -0.4686   -2.9534    0.8001 O   0  0  0  0  0  0  0  0  0  0  0  0
   -1.2736   -0.9704    0.1241 N   0  0  0  0  0  0  0  0  0  0  0  0
   -2.0996   -0.4354   -0.1019 H   0  0  0  0  0  0  0  0  0  0  0  0
   -0.0016   -0.2394    0.1271 C   0  0  1  0  0  0  0  0  0  0  0  0
    0.6237   -0.6359    0.9301 H   0  0  0  0  0  0  0  0  0  0  0  0
    0.7178   -0.4599   -1.2183 C   0  0  0  0  0  0  0  0  0  0  0  0
    0.0273   -0.2543   -2.0371 H   0  0  0  0  0  0  0  0  0  0  0  0
    1.5556    0.2329   -1.3045 H   0  0  0  0  0  0  0  0  0  0  0  0
    1.2244   -1.8864   -1.4090 C   0  0  0  0  0  0  0  0  0  0  0  0
    1.5631   -2.6481   -0.5127 O   0  0  0  0  0  0  0  0  0  0  0  0
    1.2943   -2.2941   -2.6900 O   0  0  0  0  0  0  0  0  0  0  0  0
    1.6039   -3.1999   -2.6606 H   0  0  0  0  0  0  0  0  0  0  0  0
   -0.2513    1.2567    0.4032 C   0  0  0  0  0  0  0  0  0  0  0  0
   -0.9543    1.9113   -0.3654 O   0  0  0  0  0  0  0  0  0  0  0  0
    0.3228    1.7993    1.4828 N   0  0  0  0  0  0  0  0  0  0  0  0
    0.9394    1.2081    2.0307 H   0  0  0  0  0  0  0  0  0  0  0  0
    0.1762    3.1978    1.8806 C   0  0  0  0  0  0  0  0  0  0  0  0
   -0.8831    3.4600    1.9239 H   0  0  0  0  0  0  0  0  0  0  0  0
    0.6267    3.3580    2.8610 H   0  0  0  0  0  0  0  0  0  0  0  0
    0.6657    3.8425    1.1485 H   0  0  0  0  0  0  0  0  0  0  0  0
  5  6  2  0  0  0  0
  5  7  1  0  0  0  0
  2  3  1  0  0  0  0
  2  4  1  0  0  0  0
  2  5  1  0  0  0  0
  1  2  1  0  0  0  0
 18 19  2  0  0  0  0
 18 20  1  0  0  0  0
 16 17  1  0  0  0  0
 14 15  2  0  0  0  0
 14 16  1  0  0  0  0
 11 12  1  0  0  0  0
 11 13  1  0  0  0  0
 11 14  1  0  0  0  0
  9 10  1  0  0  0  0
  9 11  1  0  0  0  0
  9 18  1  0  0  0  0
  7  8  1  0  0  0  0
  7  9  1  0  0  0  0
 22 23  1  0  0  0  0
 22 24  1  0  0  0  0
 22 25  1  0  0  0  0
 20 21  1  0  0  0  0
 20 22  1  0  0  0  0
M  END
$$$$
default_name
  -OEChem-01062215323D

 25 24  0     1  0  0  0  0  0999 V2000
   -2.7826   -3.8464    0.7821 H   0  0  0  0  0  0  0  0  0  0  0  0
   -2.8156   -2.8034    0.4711 C   0  0  0  0  0  0  0  0  0  0  0  0
   -3.4336   -2.2354    1.1641 H   0  0  0  0  0  0  0  0  0  0  0  0
   -3.2256   -2.7344   -0.5349 H   0  0  0  0  0  0  0  0  0  0  0  0
   -1.4126   -2.2444    0.4801 C   0  0  0  0  0  0  0  0  0  0  0  0
   -0.4686   -2.9534    0.8001 O   0  0  0  0  0  0  0  0  0  0  0  0
   -1.2736   -0.9704    0.1241 N   0  0  0  0  0  0  0  0  0  0  0  0
   -2.0996   -0.4354   -0.1019 H   0  0  0  0  0  0  0  0  0  0  0  0
   -0.0016   -0.2394    0.1271 C   0  0  1  0  0  0  0  0  0  0  0  0
    0.6237   -0.6359    0.9301 H   0  0  0  0  0  0  0  0  0  0  0  0
    0.7178   -0.4599   -1.2183 C   0  0  0  0  0  0  0  0  0  0  0  0
    0.0273   -0.2543   -2.0371 H   0  0  0  0  0  0  0  0  0  0  0  0
    1.5556    0.2329   -1.3045 H   0  0  0  0  0  0  0  0  0  0  0  0
    1.2244   -1.8864   -1.4090 C   0  0  0  0  0  0  0  0  0  0  0  0
    1.5631   -2.6481   -0.5127 O   0  0  0  0  0  0  0  0  0  0  0  0
    1.2943   -2.2941   -2.6900 O   0  0  0  0  0  0  0  0  0  0  0  0
    1.6039   -3.1999   -2.6606 H   0  0  0  0  0  0  0  0  0  0  0  0
   -0.2513    1.2567    0.4032 C   0  0  0  0  0  0  0  0  0  0  0  0
   -1.1571    1.8445   -0.1863 O   0  0  0  0  0  0  0  0  0  0  0  0
    0.5458    1.8734    1.2829 N   0  0  0  0  0  0  0  0  0  0  0  0
    1.3096    1.3348    1.6785 H   0  0  0  0  0  0  0  0  0  0  0  0
    0.4313    3.2821    1.6543 C   0  0  0  0  0  0  0  0  0  0  0  0
   -0.5956    3.5024    1.9538 H   0  0  0  0  0  0  0  0  0  0  0  0
    1.1038    3.5074    2.4829 H   0  0  0  0  0  0  0  0  0  0  0  0
    0.6880    3.9106    0.7997 H   0  0  0  0  0  0  0  0  0  0  0  0
  5  6  2  0  0  0  0
  5  7  1  0  0  0  0
  2  3  1  0  0  0  0
  2  4  1  0  0  0  0
  2  5  1  0  0  0  0
  1  2  1  0  0  0  0
 18 19  2  0  0  0  0
 18 20  1  0  0  0  0
 16 17  1  0  0  0  0
 14 15  2  0  0  0  0
 14 16  1  0  0  0  0
 11 12  1  0  0  0  0
 11 13  1  0  0  0  0
 11 14  1  0  0  0  0
  9 10  1  0  0  0  0
  9 11  1  0  0  0  0
  9 18  1  0  0  0  0
  7  8  1  0  0  0  0
  7  9  1  0  0  0  0
 22 23  1  0  0  0  0
 22 24  1  0  0  0  0
 22 25  1  0  0  0  0
 20 21  1  0  0  0  0
 20 22  1  0  0  0  0
M  END
$$$$
default_name
  -OEChem-01062215323D

 25 24  0     1  0  0  0  0  0999 V2000
   -2.7826   -3.8464    0.7821 H   0  0  0  0  0  0  0  0  0  0  0  0
   -2.8156   -2.8034    0.4711 C   0  0  0  0  0  0  0  0  0  0  0  0
   -3.4336   -2.2354    1.1641 H   0  0  0  0  0  0  0  0  0  0  0  0
   -3.2256   -2.7344   -0.5349 H   0  0  0  0  0  0  0  0  0  0  0  0
   -1.4126   -2.2444    0.4801 C   0  0  0  0  0  0  0  0  0  0  0  0
   -0.4686   -2.9534    0.8001 O   0  0  0  0  0  0  0  0  0  0  0  0
   -1.2736   -0.9704    0.1241 N   0  0  0  0  0  0  0  0  0  0  0  0
   -2.0996   -0.4354   -0.1019 H   0  0  0  0  0  0  0  0  0  0  0  0
   -0.0016   -0.2394    0.1271 C   0  0  1  0  0  0  0  0  0  0  0  0
    0.6237   -0.6359    0.9301 H   0  0  0  0  0  0  0  0  0  0  0  0
    0.7178   -0.4599   -1.2183 C   0  0  0  0  0  0  0  0  0  0  0  0
    0.0273   -0.2543   -2.0371 H   0  0  0  0  0  0  0  0  0  0  0  0
    1.5556    0.2329   -1.3045 H   0  0  0  0  0  0  0  0  0  0  0  0
    1.2244   -1.8864   -1.4090 C   0  0  0  0  0  0  0  0  0  0  0  0
    1.5631   -2.6481   -0.5127 O   0  0  0  0  0  0  0  0  0  0  0  0
    1.2943   -2.2941   -2.6900 O   0  0  0  0  0  0  0  0  0  0  0  0
    1.6039   -3.1999   -2.6606 H   0  0  0  0  0  0  0  0  0  0  0  0
   -0.2513    1.2567    0.4032 C   0  0  0  0  0  0  0  0  0  0  0  0
   -1.3049    1.7780    0.0404 O   0  0  0  0  0  0  0  0  0  0  0  0
    0.7076    1.9469    1.0307 N   0  0  0  0  0  0  0  0  0  0  0  0
    1.5728    1.4596    1.2401 H   0  0  0  0  0  0  0  0  0  0  0  0
    0.6170    3.3659    1.3680 C   0  0  0  0  0  0  0  0  0  0  0  0
   -0.3124    3.5580    1.9086 H   0  0  0  0  0  0  0  0  0  0  0  0
    1.4628    3.6579    1.9917 H   0  0  0  0  0  0  0  0  0  0  0  0
    0.6189    3.9628    0.4543 H   0  0  0  0  0  0  0  0  0  0  0  0
  5  6  2  0  0  0  0
  5  7  1  0  0  0  0
  2  3  1  0  0  0  0
  2  4  1  0  0  0  0
  2  5  1  0  0  0  0
  1  2  1  0  0  0  0
 18 19  2  0  0  0  0
 18 20  1  0  0  0  0
 16 17  1  0  0  0  0
 14 15  2  0  0  0  0
 14 16  1  0  0  0  0
 11 12  1  0  0  0  0
 11 13  1  0  0  0  0
 11 14  1  0  0  0  0
  9 10  1  0  0  0  0
  9 11  1  0  0  0  0
  9 18  1  0  0  0  0
  7  8  1  0  0  0  0
  7  9  1  0  0  0  0
 22 23  1  0  0  0  0
 22 24  1  0  0  0  0
 22 25  1  0  0  0  0
 20 21  1  0  0  0  0
 20 22  1  0  0  0  0
M  END
$$$$
default_name
  -OEChem-01062215323D

 25 24  0     1  0  0  0  0  0999 V2000
   -2.7826   -3.8464    0.7821 H   0  0  0  0  0  0  0  0  0  0  0  0
   -2.8156   -2.8034    0.4711 C   0  0  0  0  0  0  0  0  0  0  0  0
   -3.4336   -2.2354    1.1641 H   0  0  0  0  0  0  0  0  0  0  0  0
   -3.2256   -2.7344   -0.5349 H   0  0  0  0  0  0  0  0  0  0  0  0
   -1.4126   -2.2444    0.4801 C   0  0  0  0  0  0  0  0  0  0  0  0
   -0.4686   -2.9534    0.8001 O   0  0  0  0  0  0  0  0  0  0  0  0
   -1.2736   -0.9704    0.1241 N   0  0  0  0  0  0  0  0  0  0  0  0
   -2.0996   -0.4354   -0.1019 H   0  0  0  0  0  0  0  0  0  0  0  0
   -0.0016   -0.2394    0.1271 C   0  0  1  0  0  0  0  0  0  0  0  0
    0.6237   -0.6359    0.9301 H   0  0  0  0  0  0  0  0  0  0  0  0
    0.7178   -0.4599   -1.2183 C   0  0  0  0  0  0  0  0  0  0  0  0
    0.0273   -0.2543   -2.0371 H   0  0  0  0  0  0  0  0  0  0  0  0
    1.5556    0.2329   -1.3045 H   0  0  0  0  0  0  0  0  0  0  0  0
    1.2244   -1.8864   -1.4090 C   0  0  0  0  0  0  0  0  0  0  0  0
    1.5631   -2.6481   -0.5127 O   0  0  0  0  0  0  0  0  0  0  0  0
    1.2943   -2.2941   -2.6900 O   0  0  0  0  0  0  0  0  0  0  0  0
    1.6039   -3.1999   -2.6606 H   0  0  0  0  0  0  0  0  0  0  0  0
   -0.2513    1.2567    0.4032 C   0  0  0  0  0  0  0  0  0  0  0  0
   -1.3877    1.7164    0.2993 O   0  0  0  0  0  0  0  0  0  0  0  0
    0.7971    2.0149    0.7434 N   0  0  0  0  0  0  0  0  0  0  0  0
    1.7112    1.5740    0.7453 H   0  0  0  0  0  0  0  0  0  0  0  0
    0.7205    3.4434    1.0413 C   0  0  0  0  0  0  0  0  0  0  0  0
   -0.0527    3.6230    1.7916 H   0  0  0  0  0  0  0  0  0  0  0  0
    1.6792    3.7994    1.4206 H   0  0  0  0  0  0  0  0  0  0  0  0
    0.4629    3.9955    0.1358 H   0  0  0  0  0  0  0  0  0  0  0  0
  5  6  2  0  0  0  0
  5  7  1  0  0  0  0
  2  3  1  0  0  0  0
  2  4  1  0  0  0  0
  2  5  1  0  0  0  0
  1  2  1  0  0  0  0
 18 19  2  0  0  0  0
 18 20  1  0  0  0  0
 16 17  1  0  0  0  0
 14 15  2  0  0  0  0
 14 16  1  0  0  0  0
 11 12  1  0  0  0  0
 11 13  1  0  0  0  0
 11 14  1  0  0  0  0
  9 10  1  0  0  0  0
  9 11  1  0  0  0  0
  9 18  1  0  0  0  0
  7  8  1  0  0  0  0
  7  9  1  0  0  0  0
 22 23  1  0  0  0  0
 22 24  1  0  0  0  0
 22 25  1  0  0  0  0
 20 21  1  0  0  0  0
 20 22  1  0  0  0  0
M  END
$$$$
default_name
  -OEChem-01062215323D

 25 24  0     1  0  0  0  0  0999 V2000
   -2.7826   -3.8464    0.7821 H   0  0  0  0  0  0  0  0  0  0  0  0
   -2.8156   -2.8034    0.4711 C   0  0  0  0  0  0  0  0  0  0  0  0
   -3.4336   -2.2354    1.1641 H   0  0  0  0  0  0  0  0  0  0  0  0
   -3.2256   -2.7344   -0.5349 H   0  0  0  0  0  0  0  0  0  0  0  0
   -1.4126   -2.2444    0.4801 C   0  0  0  0  0  0  0  0  0  0  0  0
   -0.4686   -2.9534    0.8001 O   0  0  0  0  0  0  0  0  0  0  0  0
   -1.2736   -0.9704    0.1241 N   0  0  0  0  0  0  0  0  0  0  0  0
   -2.0996   -0.4354   -0.1019 H   0  0  0  0  0  0  0  0  0  0  0  0
   -0.0016   -0.2394    0.1271 C   0  0  1  0  0  0  0  0  0  0  0  0
    0.7164   -0.7963    0.7332 H   0  0  0  0  0  0  0  0  0  0  0  0
    0.5351   -0.1414   -1.3146 C   0  0  0  0  0  0  0  0  0  0  0  0
   -0.2524    0.2321   -1.9704 H   0  0  0  0  0  0  0  0  0  0  0  0
    1.3644    0.5658   -1.3504 H   0  0  0  0  0  0  0  0  0  0  0  0
    0.9925   -1.4809   -1.8843 C   0  0  0  0  0  0  0  0  0  0  0  0
    1.4332   -2.4190   -1.2332 O   0  0  0  0  0  0  0  0  0  0  0  0
    0.8907   -1.5896   -3.2222 O   0  0  0  0  0  0  0  0  0  0  0  0
    1.1886   -2.4741   -3.4370 H   0  0  0  0  0  0  0  0  0  0  0  0
   -0.1923    1.1526    0.7617 C   0  0  0  0  0  0  0  0  0  0  0  0
   -1.3034    1.4939    1.1649 O   0  0  0  0  0  0  0  0  0  0  0  0
    0.8746    1.9554    0.8444 N   0  0  0  0  0  0  0  0  0  0  0  0
    1.7408    1.6249    0.4316 H   0  0  0  0  0  0  0  0  0  0  0  0
    0.8553    3.2969    1.4236 C   0  0  0  0  0  0  0  0  0  0  0  0
    0.4115    3.2618    2.4210 H   0  0  0  0  0  0  0  0  0  0  0  0
    1.8706    3.6891    1.4953 H   0  0  0  0  0  0  0  0  0  0  0  0
    0.2553    3.9599    0.7979 H   0  0  0  0  0  0  0  0  0  0  0  0
  5  6  2  0  0  0  0
  5  7  1  0  0  0  0
  2  3  1  0  0  0  0
  2  4  1  0  0  0  0
  2  5  1  0  0  0  0
  1  2  1  0  0  0  0
 18 19  2  0  0  0  0
 18 20  1  0  0  0  0
 16 17  1  0  0  0  0
 14 15  2  0  0  0  0
 14 16  1  0  0  0  0
 11 12  1  0  0  0  0
 11 13  1  0  0  0  0
 11 14  1  0  0  0  0
  9 10  1  0  0  0  0
  9 11  1  0  0  0  0
  9 18  1  0  0  0  0
  7  8  1  0  0  0  0
  7  9  1  0  0  0  0
 22 23  1  0  0  0  0
 22 24  1  0  0  0  0
 22 25  1  0  0  0  0
 20 21  1  0  0  0  0
 20 22  1  0  0  0  0
M  END
$$$$
default_name
  -OEChem-01062215323D

 25 24  0     1  0  0  0  0  0999 V2000
   -2.7826   -3.8464    0.7821 H   0  0  0  0  0  0  0  0  0  0  0  0
   -2.8156   -2.8034    0.4711 C   0  0  0  0  0  0  0  0  0  0  0  0
   -3.4336   -2.2354    1.1641 H   0  0  0  0  0  0  0  0  0  0  0  0
   -3.2256   -2.7344   -0.5349 H   0  0  0  0  0  0  0  0  0  0  0  0
   -1.4126   -2.2444    0.4801 C   0  0  0  0  0  0  0  0  0  0  0  0
   -0.4686   -2.9534    0.8001 O   0  0  0  0  0  0  0  0  0  0  0  0
   -1.2736   -0.9704    0.1241 N   0  0  0  0  0  0  0  0  0  0  0  0
   -2.0996   -0.4354   -0.1019 H   0  0  0  0  0  0  0  0  0  0  0  0
   -0.0016   -0.2394    0.1271 C   0  0  1  0  0  0  0  0  0  0  0  0
    0.7164   -0.7963    0.7332 H   0  0  0  0  0  0  0  0  0  0  0  0
    0.5351   -0.1414   -1.3146 C   0  0  0  0  0  0  0  0  0  0  0  0
   -0.2524    0.2321   -1.9704 H   0  0  0  0  0  0  0  0  0  0  0  0
    1.3644    0.5658   -1.3504 H   0  0  0  0  0  0  0  0  0  0  0  0
    0.9925   -1.4809   -1.8843 C   0  0  0  0  0  0  0  0  0  0  0  0
    1.4332   -2.4190   -1.2332 O   0  0  0  0  0  0  0  0  0  0  0  0
    0.8907   -1.5896   -3.2222 O   0  0  0  0  0  0  0  0  0  0  0  0
    1.1886   -2.4741   -3.4370 H   0  0  0  0  0  0  0  0  0  0  0  0
   -0.1923    1.1526    0.7617 C   0  0  0  0  0  0  0  0  0  0  0  0
   -1.2102    1.3956    1.4085 O   0  0  0  0  0  0  0  0  0  0  0  0
    0.7694    2.0636    0.5754 N   0  0  0  0  0  0  0  0  0  0  0  0
    1.5472    1.8058   -0.0233 H   0  0  0  0  0  0  0  0  0  0  0  0
    0.7371    3.4206    1.1168 C   0  0  0  0  0  0  0  0  0  0  0  0
    0.5434    3.3847    2.1911 H   0  0  0  0  0  0  0  0  0  0  0  0
    1.6916    3.9178    0.9398 H   0  0  0  0  0  0  0  0  0  0  0  0
   -0.0611    3.9898    0.6372 H   0  0  0  0  0  0  0  0  0  0  0  0
  5  6  2  0  0  0  0
  5  7  1  0  0  0  0
  2  3  1  0  0  0  0
  2  4  1  0  0  0  0
  2  5  1  0  0  0  0
  1  2  1  0  0  0  0
 18 19  2  0  0  0  0
 18 20  1  0  0  0  0
 16 17  1  0  0  0  0
 14 15  2  0  0  0  0
 14 16  1  0  0  0  0
 11 12  1  0  0  0  0
 11 13  1  0  0  0  0
 11 14  1  0  0  0  0
  9 10  1  0  0  0  0
  9 11  1  0  0  0  0
  9 18  1  0  0  0  0
  7  8  1  0  0  0  0
  7  9  1  0  0  0  0
 22 23  1  0  0  0  0
 22 24  1  0  0  0  0
 22 25  1  0  0  0  0
 20 21  1  0  0  0  0
 20 22  1  0  0  0  0
M  END
$$$$
default_name
  -OEChem-01062215323D

 25 24  0     1  0  0  0  0  0999 V2000
   -2.7826   -3.8464    0.7821 H   0  0  0  0  0  0  0  0  0  0  0  0
   -2.8156   -2.8034    0.4711 C   0  0  0  0  0  0  0  0  0  0  0  0
   -3.4336   -2.2354    1.1641 H   0  0  0  0  0  0  0  0  0  0  0  0
   -3.2256   -2.7344   -0.5349 H   0  0  0  0  0  0  0  0  0  0  0  0
   -1.4126   -2.2444    0.4801 C   0  0  0  0  0  0  0  0  0  0  0  0
   -0.4686   -2.9534    0.8001 O   0  0  0  0  0  0  0  0  0  0  0  0
   -1.2736   -0.9704    0.1241 N   0  0  0  0  0  0  0  0  0  0  0  0
   -2.0996   -0.4354   -0.1019 H   0  0  0  0  0  0  0  0  0  0  0  0
   -0.0016   -0.2394    0.1271 C   0  0  1  0  0  0  0  0  0  0  0  0
    0.7164   -0.7963    0.7332 H   0  0  0  0  0  0  0  0  0  0  0  0
    0.5351   -0.1414   -1.3146 C   0  0  0  0  0  0  0  0  0  0  0  0
   -0.2524    0.2321   -1.9704 H   0  0  0  0  0  0  0  0  0  0  0  0
    1.3644    0.5658   -1.3504 H   0  0  0  0  0  0  0  0  0  0  0  0
    0.9925   -1.4809   -1.8843 C   0  0  0  0  0  0  0  0  0  0  0  0
    1.4332   -2.4190   -1.2332 O   0  0  0  0  0  0  0  0  0  0  0  0
    0.8907   -1.5896   -3.2222 O   0  0  0  0  0  0  0  0  0  0  0  0
    1.1886   -2.4741   -3.4370 H   0  0  0  0  0  0  0  0  0  0  0  0
   -0.1923    1.1526    0.7617 C   0  0  0  0  0  0  0  0  0  0  0  0
   -1.0529    1.3184    1.6251 O   0  0  0  0  0  0  0  0  0  0  0  0
    0.5934    2.1484    0.3366 N   0  0  0  0  0  0  0  0  0  0  0  0
    1.2347    1.9453   -0.4233 H   0  0  0  0  0  0  0  0  0  0  0  0
    0.5380    3.5176    0.8440 C   0  0  0  0  0  0  0  0  0  0  0  0
    0.6040    3.5101    1.9342 H   0  0  0  0  0  0  0  0  0  0  0  0
    1.3646    4.1019    0.4378 H   0  0  0  0  0  0  0  0  0  0  0  0
   -0.4074    3.9799    0.5549 H   0  0  0  0  0  0  0  0  0  0  0  0
  5  6  2  0  0  0  0
  5  7  1  0  0  0  0
  2  3  1  0  0  0  0
  2  4  1  0  0  0  0
  2  5  1  0  0  0  0
  1  2  1  0  0  0  0
 18 19  2  0  0  0  0
 18 20  1  0  0  0  0
 16 17  1  0  0  0  0
 14 15  2  0  0  0  0
 14 16  1  0  0  0  0
 11 12  1  0  0  0  0
 11 13  1  0  0  0  0
 11 14  1  0  0  0  0
  9 10  1  0  0  0  0
  9 11  1  0  0  0  0
  9 18  1  0  0  0  0
  7  8  1  0  0  0  0
  7  9  1  0  0  0  0
 22 23  1  0  0  0  0
 22 24  1  0  0  0  0
 22 25  1  0  0  0  0
 20 21  1  0  0  0  0
 20 22  1  0  0  0  0
M  END
$$$$
default_name
  -OEChem-01062215323D

 25 24  0     1  0  0  0  0  0999 V2000
   -2.7826   -3.8464    0.7821 H   0  0  0  0  0  0  0  0  0  0  0  0
   -2.8156   -2.8034    0.4711 C   0  0  0  0  0  0  0  0  0  0  0  0
   -3.4336   -2.2354    1.1641 H   0  0  0  0  0  0  0  0  0  0  0  0
   -3.2256   -2.7344   -0.5349 H   0  0  0  0  0  0  0  0  0  0  0  0
   -1.4126   -2.2444    0.4801 C   0  0  0  0  0  0  0  0  0  0  0  0
   -0.4686   -2.9534    0.8001 O   0  0  0  0  0  0  0  0  0  0  0  0
   -1.2736   -0.9704    0.1241 N   0  0  0  0  0  0  0  0  0  0  0  0
   -2.0996   -0.4354   -0.1019 H   0  0  0  0  0  0  0  0  0  0  0  0
   -0.0016   -0.2394    0.1271 C   0  0  1  0  0  0  0  0  0  0  0  0
    0.7164   -0.7963    0.7332 H   0  0  0  0  0  0  0  0  0  0  0  0
    0.5351   -0.1414   -1.3146 C   0  0  0  0  0  0  0  0  0  0  0  0
   -0.2524    0.2321   -1.9704 H   0  0  0  0  0  0  0  0  0  0  0  0
    1.3644    0.5658   -1.3504 H   0  0  0  0  0  0  0  0  0  0  0  0
    0.9925   -1.4809   -1.8843 C   0  0  0  0  0  0  0  0  0  0  0  0
    1.4332   -2.4190   -1.2332 O   0  0  0  0  0  0  0  0  0  0  0  0
    0.8907   -1.5896   -3.2222 O   0  0  0  0  0  0  0  0  0  0  0  0
    1.1886   -2.4741   -3.4370 H   0  0  0  0  0  0  0  0  0  0  0  0
   -0.1923    1.1526    0.7617 C   0  0  0  0  0  0  0  0  0  0  0  0
   -0.8420    1.2675    1.8001 O   0  0  0  0  0  0  0  0  0  0  0  0
    0.3586    2.2038    0.1444 N   0  0  0  0  0  0  0  0  0  0  0  0
    0.8245    2.0340   -0.7410 H   0  0  0  0  0  0  0  0  0  0  0  0
    0.2717    3.5815    0.6240 C   0  0  0  0  0  0  0  0  0  0  0  0
    0.5891    3.6294    1.6680 H   0  0  0  0  0  0  0  0  0  0  0  0
    0.9118    4.2289    0.0234 H   0  0  0  0  0  0  0  0  0  0  0  0
   -0.7602    3.9308    0.5568 H   0  0  0  0  0  0  0  0  0  0  0  0
  5  6  2  0  0  0  0
  5  7  1  0  0  0  0
  2  3  1  0  0  0  0
  2  4  1  0  0  0  0
  2  5  1  0  0  0  0
  1  2  1  0  0  0  0
 18 19  2  0  0  0  0
 18 20  1  0  0  0  0
 16 17  1  0  0  0  0
 14 15  2  0  0  0  0
 14 16  1  0  0  0  0
 11 12  1  0  0  0  0
 11 13  1  0  0  0  0
 11 14  1  0  0  0  0
  9 10  1  0  0  0  0
  9 11  1  0  0  0  0
  9 18  1  0  0  0  0
  7  8  1  0  0  0  0
  7  9  1  0  0  0  0
 22 23  1  0  0  0  0
 22 24  1  0  0  0  0
 22 25  1  0  0  0  0
 20 21  1  0  0  0  0
 20 22  1  0  0  0  0
M  END
$$$$
default_name
  -OEChem-01062215323D

 25 24  0     1  0  0  0  0  0999 V2000
   -2.7826   -3.8464    0.7821 H   0  0  0  0  0  0  0  0  0  0  0  0
   -2.8156   -2.8034    0.4711 C   0  0  0  0  0  0  0  0  0  0  0  0
   -3.4336   -2.2354    1.1641 H   0  0  0  0  0  0  0  0  0  0  0  0
   -3.2256   -2.7344   -0.5349 H   0  0  0  0  0  0  0  0  0  0  0  0
   -1.4126   -2.2444    0.4801 C   0  0  0  0  0  0  0  0  0  0  0  0
   -0.4686   -2.9534    0.8001 O   0  0  0  0  0  0  0  0  0  0  0  0
   -1.2736   -0.9704    0.1241 N   0  0  0  0  0  0  0  0  0  0  0  0
   -2.0996   -0.4354   -0.1019 H   0  0  0  0  0  0  0  0  0  0  0  0
   -0.0016   -0.2394    0.1271 C   0  0  1  0  0  0  0  0  0  0  0  0
    0.7164   -0.7963    0.7332 H   0  0  0  0  0  0  0  0  0  0  0  0
    0.5351   -0.1414   -1.3146 C   0  0  0  0  0  0  0  0  0  0  0  0
   -0.2524    0.2321   -1.9704 H   0  0  0  0  0  0  0  0  0  0  0  0
    1.3644    0.5658   -1.3504 H   0  0  0  0  0  0  0  0  0  0  0  0
    0.9925   -1.4809   -1.8843 C   0  0  0  0  0  0  0  0  0  0  0  0
    1.4332   -2.4190   -1.2332 O   0  0  0  0  0  0  0  0  0  0  0  0
    0.8907   -1.5896   -3.2222 O   0  0  0  0  0  0  0  0  0  0  0  0
    1.1886   -2.4741   -3.4370 H   0  0  0  0  0  0  0  0  0  0  0  0
   -0.1923    1.1526    0.7617 C   0  0  0  0  0  0  0  0  0  0  0  0
   -0.5920    1.2464    1.9214 O   0  0  0  0  0  0  0  0  0  0  0  0
    0.0809    2.2262    0.0118 N   0  0  0  0  0  0  0  0  0  0  0  0
    0.3446    2.0657   -0.9549 H   0  0  0  0  0  0  0  0  0  0  0  0
   -0.0438    3.6077    0.4717 C   0  0  0  0  0  0  0  0  0  0  0  0
    0.4998    3.7346    1.4104 H   0  0  0  0  0  0  0  0  0  0  0  0
    0.3640    4.2899   -0.2752 H   0  0  0  0  0  0  0  0  0  0  0  0
   -1.0952    3.8458    0.6425 H   0  0  0  0  0  0  0  0  0  0  0  0
  5  6  2  0  0  0  0
  5  7  1  0  0  0  0
  2  3  1  0  0  0  0
  2  4  1  0  0  0  0
  2  5  1  0  0  0  0
  1  2  1  0  0  0  0
 18 19  2  0  0  0  0
 18 20  1  0  0  0  0
 16 17  1  0  0  0  0
 14 15  2  0  0  0  0
 14 16  1  0  0  0  0
 11 12  1  0  0  0  0
 11 13  1  0  0  0  0
 11 14  1  0  0  0  0
  9 10  1  0  0  0  0
  9 11  1  0  0  0  0
  9 18  1  0  0  0  0
  7  8  1  0  0  0  0
  7  9  1  0  0  0  0
 22 23  1  0  0  0  0
 22 24  1  0  0  0  0
 22 25  1  0  0  0  0
 20 21  1  0  0  0  0
 20 22  1  0  0  0  0
M  END
$$$$
default_name
  -OEChem-01062215323D

 25 24  0     1  0  0  0  0  0999 V2000
   -2.7826   -3.8464    0.7821 H   0  0  0  0  0  0  0  0  0  0  0  0
   -2.8156   -2.8034    0.4711 C   0  0  0  0  0  0  0  0  0  0  0  0
   -3.4336   -2.2354    1.1641 H   0  0  0  0  0  0  0  0  0  0  0  0
   -3.2256   -2.7344   -0.5349 H   0  0  0  0  0  0  0  0  0  0  0  0
   -1.4126   -2.2444    0.4801 C   0  0  0  0  0  0  0  0  0  0  0  0
   -0.4686   -2.9534    0.8001 O   0  0  0  0  0  0  0  0  0  0  0  0
   -1.2736   -0.9704    0.1241 N   0  0  0  0  0  0  0  0  0  0  0  0
   -2.0996   -0.4354   -0.1019 H   0  0  0  0  0  0  0  0  0  0  0  0
   -0.0016   -0.2394    0.1271 C   0  0  1  0  0  0  0  0  0  0  0  0
    0.7164   -0.7963    0.7332 H   0  0  0  0  0  0  0  0  0  0  0  0
    0.5351   -0.1414   -1.3146 C   0  0  0  0  0  0  0  0  0  0  0  0
   -0.2524    0.2321   -1.9704 H   0  0  0  0  0  0  0  0  0  0  0  0
    1.3644    0.5658   -1.3504 H   0  0  0  0  0  0  0  0  0  0  0  0
    0.9925   -1.4809   -1.8843 C   0  0  0  0  0  0  0  0  0  0  0  0
    1.4332   -2.4190   -1.2332 O   0  0  0  0  0  0  0  0  0  0  0  0
    0.8907   -1.5896   -3.2222 O   0  0  0  0  0  0  0  0  0  0  0  0
    1.1886   -2.4741   -3.4370 H   0  0  0  0  0  0  0  0  0  0  0  0
   -0.1923    1.1526    0.7617 C   0  0  0  0  0  0  0  0  0  0  0  0
   -0.3199    1.2566    1.9809 O   0  0  0  0  0  0  0  0  0  0  0  0
   -0.2207    2.2141   -0.0520 N   0  0  0  0  0  0  0  0  0  0  0  0
   -0.1724    2.0385   -1.0504 H   0  0  0  0  0  0  0  0  0  0  0  0
   -0.3870    3.5945    0.3975 C   0  0  0  0  0  0  0  0  0  0  0  0
    0.3422    3.8184    1.1792 H   0  0  0  0  0  0  0  0  0  0  0  0
   -0.2413    4.2810   -0.4375 H   0  0  0  0  0  0  0  0  0  0  0  0
   -1.3897    3.7307    0.8063 H   0  0  0  0  0  0  0  0  0  0  0  0
  5  6  2  0  0  0  0
  5  7  1  0  0  0  0
  2  3  1  0  0  0  0
  2  4  1  0  0  0  0
  2  5  1  0  0  0  0
  1  2  1  0  0  0  0
 18 19  2  0  0  0  0
 18 20  1  0  0  0  0
 16 17  1  0  0  0  0
 14 15  2  0  0  0  0
 14 16  1  0  0  0  0
 11 12  1  0  0  0  0
 11 13  1  0  0  0  0
 11 14  1  0  0  0  0
  9 10  1  0  0  0  0
  9 11  1  0  0  0  0
  9 18  1  0  0  0  0
  7  8  1  0  0  0  0
  7  9  1  0  0  0  0
 22 23  1  0  0  0  0
 22 24  1  0  0  0  0
 22 25  1  0  0  0  0
 20 21  1  0  0  0  0
 20 22  1  0  0  0  0
M  END
$$$$
default_name
  -OEChem-01062215323D

 25 24  0     1  0  0  0  0  0999 V2000
   -2.7826   -3.8464    0.7821 H   0  0  0  0  0  0  0  0  0  0  0  0
   -2.8156   -2.8034    0.4711 C   0  0  0  0  0  0  0  0  0  0  0  0
   -3.4336   -2.2354    1.1641 H   0  0  0  0  0  0  0  0  0  0  0  0
   -3.2256   -2.7344   -0.5349 H   0  0  0  0  0  0  0  0  0  0  0  0
   -1.4126   -2.2444    0.4801 C   0  0  0  0  0  0  0  0  0  0  0  0
   -0.4686   -2.9534    0.8001 O   0  0  0  0  0  0  0  0  0  0  0  0
   -1.2736   -0.9704    0.1241 N   0  0  0  0  0  0  0  0  0  0  0  0
   -2.0996   -0.4354   -0.1019 H   0  0  0  0  0  0  0  0  0  0  0  0
   -0.0016   -0.2394    0.1271 C   0  0  1  0  0  0  0  0  0  0  0  0
    0.7164   -0.7963    0.7332 H   0  0  0  0  0  0  0  0  0  0  0  0
    0.5351   -0.1414   -1.3146 C   0  0  0  0  0  0  0  0  0  0  0  0
   -0.2524    0.2321   -1.9704 H   0  0  0  0  0  0  0  0  0  0  0  0
    1.3644    0.5658   -1.3504 H   0  0  0  0  0  0  0  0  0  0  0  0
    0.9925   -1.4809   -1.8843 C   0  0  0  0  0  0  0  0  0  0  0  0
    1.4332   -2.4190   -1.2332 O   0  0  0  0  0  0  0  0  0  0  0  0
    0.8907   -1.5896   -3.2222 O   0  0  0  0  0  0  0  0  0  0  0  0
    1.1886   -2.4741   -3.4370 H   0  0  0  0  0  0  0  0  0  0  0  0
   -0.1923    1.1526    0.7617 C   0  0  0  0  0  0  0  0  0  0  0  0
   -0.0443    1.2973    1.9744 O   0  0  0  0  0  0  0  0  0  0  0  0
   -0.5256    2.1681   -0.0429 N   0  0  0  0  0  0  0  0  0  0  0  0
   -0.6911    1.9540   -1.0209 H   0  0  0  0  0  0  0  0  0  0  0  0
   -0.7344    3.5429    0.4064 C   0  0  0  0  0  0  0  0  0  0  0  0
    0.1269    3.8752    0.9900 H   0  0  0  0  0  0  0  0  0  0  0  0
   -0.8630    4.2027   -0.4525 H   0  0  0  0  0  0  0  0  0  0  0  0
   -1.6237    3.5935    1.0371 H   0  0  0  0  0  0  0  0  0  0  0  0
  5  6  2  0  0  0  0
  5  7  1  0  0  0  0
  2  3  1  0  0  0  0
  2  4  1  0  0  0  0
  2  5  1  0  0  0  0
  1  2  1  0  0  0  0
 18 19  2  0  0  0  0
 18 20  1  0  0  0  0
 16 17  1  0  0  0  0
 14 15  2  0  0  0  0
 14 16  1  0  0  0  0
 11 12  1  0  0  0  0
 11 13  1  0  0  0  0
 11 14  1  0  0  0  0
  9 10  1  0  0  0  0
  9 11  1  0  0  0  0
  9 18  1  0  0  0  0
  7  8  1  0  0  0  0
  7  9  1  0  0  0  0
 22 23  1  0  0  0  0
 22 24  1  0  0  0  0
 22 25  1  0  0  0  0
 20 21  1  0  0  0  0
 20 22  1  0  0  0  0
M  END
$$$$
default_name
  -OEChem-01062215323D

 25 24  0     1  0  0  0  0  0999 V2000
   -2.7826   -3.8464    0.7821 H   0  0  0  0  0  0  0  0  0  0  0  0
   -2.8156   -2.8034    0.4711 C   0  0  0  0  0  0  0  0  0  0  0  0
   -3.4336   -2.2354    1.1641 H   0  0  0  0  0  0  0  0  0  0  0  0
   -3.2256   -2.7344   -0.5349 H   0  0  0  0  0  0  0  0  0  0  0  0
   -1.4126   -2.2444    0.4801 C   0  0  0  0  0  0  0  0  0  0  0  0
   -0.4686   -2.9534    0.8001 O   0  0  0  0  0  0  0  0  0  0  0  0
   -1.2736   -0.9704    0.1241 N   0  0  0  0  0  0  0  0  0  0  0  0
   -2.0996   -0.4354   -0.1019 H   0  0  0  0  0  0  0  0  0  0  0  0
   -0.0016   -0.2394    0.1271 C   0  0  1  0  0  0  0  0  0  0  0  0
    0.7164   -0.7963    0.7332 H   0  0  0  0  0  0  0  0  0  0  0  0
    0.5351   -0.1414   -1.3146 C   0  0  0  0  0  0  0  0  0  0  0  0
   -0.2524    0.2321   -1.9704 H   0  0  0  0  0  0  0  0  0  0  0  0
    1.3644    0.5658   -1.3504 H   0  0  0  0  0  0  0  0  0  0  0  0
    0.9925   -1.4809   -1.8843 C   0  0  0  0  0  0  0  0  0  0  0  0
    1.4332   -2.4190   -1.2332 O   0  0  0  0  0  0  0  0  0  0  0  0
    0.8907   -1.5896   -3.2222 O   0  0  0  0  0  0  0  0  0  0  0  0
    1.1886   -2.4741   -3.4370 H   0  0  0  0  0  0  0  0  0  0  0  0
   -0.1923    1.1526    0.7617 C   0  0  0  0  0  0  0  0  0  0  0  0
    0.2161    1.3657    1.9025 O   0  0  0  0  0  0  0  0  0  0  0  0
   -0.8131    2.0915    0.0387 N   0  0  0  0  0  0  0  0  0  0  0  0
   -1.1763    1.8181   -0.8686 H   0  0  0  0  0  0  0  0  0  0  0  0
   -1.0624    3.4563    0.4978 C   0  0  0  0  0  0  0  0  0  0  0  0
   -0.1312    3.9010    0.8557 H   0  0  0  0  0  0  0  0  0  0  0  0
   -1.4587    4.0604   -0.3193 H   0  0  0  0  0  0  0  0  0  0  0  0
   -1.7811    3.4434    1.3191 H   0  0  0  0  0  0  0  0  0  0  0  0
  5  6  2  0  0  0  0
  5  7  1  0  0  0  0
  2  3  1  0  0  0  0
  2  4  1  0  0  0  0
  2  5  1  0  0  0  0
  1  2  1  0  0  0  0
 18 19  2  0  0  0  0
 18 20  1  0  0  0  0
 16 17  1  0  0  0  0
 14 15  2  0  0  0  0
 14 16  1  0  0  0  0
 11 12  1  0  0  0  0
 11 13  1  0  0  0  0
 11 14  1  0  0  0  0
  9 10  1  0  0  0  0
  9 11  1  0  0  0  0
  9 18  1  0  0  0  0
  7  8  1  0  0  0  0
  7  9  1  0  0  0  0
 22 23  1  0  0  0  0
 22 24  1  0  0  0  0
 22 25  1  0  0  0  0
 20 21  1  0  0  0  0
 20 22  1  0  0  0  0
M  END
$$$$
default_name
  -OEChem-01062215323D

 25 24  0     1  0  0  0  0  0999 V2000
   -2.7826   -3.8464    0.7821 H   0  0  0  0  0  0  0  0  0  0  0  0
   -2.8156   -2.8034    0.4711 C   0  0  0  0  0  0  0  0  0  0  0  0
   -3.4336   -2.2354    1.1641 H   0  0  0  0  0  0  0  0  0  0  0  0
   -3.2256   -2.7344   -0.5349 H   0  0  0  0  0  0  0  0  0  0  0  0
   -1.4126   -2.2444    0.4801 C   0  0  0  0  0  0  0  0  0  0  0  0
   -0.4686   -2.9534    0.8001 O   0  0  0  0  0  0  0  0  0  0  0  0
   -1.2736   -0.9704    0.1241 N   0  0  0  0  0  0  0  0  0  0  0  0
   -2.0996   -0.4354   -0.1019 H   0  0  0  0  0  0  0  0  0  0  0  0
   -0.0016   -0.2394    0.1271 C   0  0  1  0  0  0  0  0  0  0  0  0
    0.7164   -0.7963    0.7332 H   0  0  0  0  0  0  0  0  0  0  0  0
    0.5351   -0.1414   -1.3146 C   0  0  0  0  0  0  0  0  0  0  0  0
   -0.2524    0.2321   -1.9704 H   0  0  0  0  0  0  0  0  0  0  0  0
    1.3644    0.5658   -1.3504 H   0  0  0  0  0  0  0  0  0  0  0  0
    0.9925   -1.4809   -1.8843 C   0  0  0  0  0  0  0  0  0  0  0  0
    1.4332   -2.4190   -1.2332 O   0  0  0  0  0  0  0  0  0  0  0  0
    0.8907   -1.5896   -3.2222 O   0  0  0  0  0  0  0  0  0  0  0  0
    1.1886   -2.4741   -3.4370 H   0  0  0  0  0  0  0  0  0  0  0  0
   -0.1923    1.1526    0.7617 C   0  0  0  0  0  0  0  0  0  0  0  0
    0.4434    1.4573    1.7699 O   0  0  0  0  0  0  0  0  0  0  0  0
   -1.0636    1.9895    0.1872 N   0  0  0  0  0  0  0  0  0  0  0  0
   -1.5949    1.6400   -0.6036 H   0  0  0  0  0  0  0  0  0  0  0  0
   -1.3486    3.3406    0.6656 C   0  0  0  0  0  0  0  0  0  0  0  0
   -0.4148    3.8942    0.7855 H   0  0  0  0  0  0  0  0  0  0  0  0
   -1.9878    3.8637   -0.0468 H   0  0  0  0  0  0  0  0  0  0  0  0
   -1.8513    3.2906    1.6331 H   0  0  0  0  0  0  0  0  0  0  0  0
  5  6  2  0  0  0  0
  5  7  1  0  0  0  0
  2  3  1  0  0  0  0
  2  4  1  0  0  0  0
  2  5  1  0  0  0  0
  1  2  1  0  0  0  0
 18 19  2  0  0  0  0
 18 20  1  0  0  0  0
 16 17  1  0  0  0  0
 14 15  2  0  0  0  0
 14 16  1  0  0  0  0
 11 12  1  0  0  0  0
 11 13  1  0  0  0  0
 11 14  1  0  0  0  0
  9 10  1  0  0  0  0
  9 11  1  0  0  0  0
  9 18  1  0  0  0  0
  7  8  1  0  0  0  0
  7  9  1  0  0  0  0
 22 23  1  0  0  0  0
 22 24  1  0  0  0  0
 22 25  1  0  0  0  0
 20 21  1  0  0  0  0
 20 22  1  0  0  0  0
M  END
$$$$
default_name
  -OEChem-01062215323D

 25 24  0     1  0  0  0  0  0999 V2000
   -2.7826   -3.8464    0.7821 H   0  0  0  0  0  0  0  0  0  0  0  0
   -2.8156   -2.8034    0.4711 C   0  0  0  0  0  0  0  0  0  0  0  0
   -3.4336   -2.2354    1.1641 H   0  0  0  0  0  0  0  0  0  0  0  0
   -3.2256   -2.7344   -0.5349 H   0  0  0  0  0  0  0  0  0  0  0  0
   -1.4126   -2.2444    0.4801 C   0  0  0  0  0  0  0  0  0  0  0  0
   -0.4686   -2.9534    0.8001 O   0  0  0  0  0  0  0  0  0  0  0  0
   -1.2736   -0.9704    0.1241 N   0  0  0  0  0  0  0  0  0  0  0  0
   -2.0996   -0.4354   -0.1019 H   0  0  0  0  0  0  0  0  0  0  0  0
   -0.0016   -0.2394    0.1271 C   0  0  1  0  0  0  0  0  0  0  0  0
    0.7164   -0.7963    0.7332 H   0  0  0  0  0  0  0  0  0  0  0  0
    0.5351   -0.1414   -1.3146 C   0  0  0  0  0  0  0  0  0  0  0  0
   -0.2524    0.2321   -1.9704 H   0  0  0  0  0  0  0  0  0  0  0  0
    1.3644    0.5658   -1.3504 H   0  0  0  0  0  0  0  0  0  0  0  0
    0.9925   -1.4809   -1.8843 C   0  0  0  0  0  0  0  0  0  0  0  0
    1.4332   -2.4190   -1.2332 O   0  0  0  0  0  0  0  0  0  0  0  0
    0.8907   -1.5896   -3.2222 O   0  0  0  0  0  0  0  0  0  0  0  0
    1.1886   -2.4741   -3.4370 H   0  0  0  0  0  0  0  0  0  0  0  0
   -0.1923    1.1526    0.7617 C   0  0  0  0  0  0  0  0  0  0  0  0
    0.6224    1.5657    1.5858 O   0  0  0  0  0  0  0  0  0  0  0  0
   -1.2599    1.8691    0.3924 N   0  0  0  0  0  0  0  0  0  0  0  0
   -1.9183    1.4318   -0.2442 H   0  0  0  0  0  0  0  0  0  0  0  0
   -1.5735    3.2038    0.8982 C   0  0  0  0  0  0  0  0  0  0  0  0
   -0.7043    3.8552    0.7842 H   0  0  0  0  0  0  0  0  0  0  0  0
   -2.4143    3.6260    0.3464 H   0  0  0  0  0  0  0  0  0  0  0  0
   -1.8294    3.1457    1.9576 H   0  0  0  0  0  0  0  0  0  0  0  0
  5  6  2  0  0  0  0
  5  7  1  0  0  0  0
  2  3  1  0  0  0  0
  2  4  1  0  0  0  0
  2  5  1  0  0  0  0
  1  2  1  0  0  0  0
 18 19  2  0  0  0  0
 18 20  1  0  0  0  0
 16 17  1  0  0  0  0
 14 15  2  0  0  0  0
 14 16  1  0  0  0  0
 11 12  1  0  0  0  0
 11 13  1  0  0  0  0
 11 14  1  0  0  0  0
  9 10  1  0  0  0  0
  9 11  1  0  0  0  0
  9 18  1  0  0  0  0
  7  8  1  0  0  0  0
  7  9  1  0  0  0  0
 22 23  1  0  0  0  0
 22 24  1  0  0  0  0
 22 25  1  0  0  0  0
 20 21  1  0  0  0  0
 20 22  1  0  0  0  0
M  END
$$$$
default_name
  -OEChem-01062215323D

 25 24  0     1  0  0  0  0  0999 V2000
   -2.7826   -3.8464    0.7821 H   0  0  0  0  0  0  0  0  0  0  0  0
   -2.8156   -2.8034    0.4711 C   0  0  0  0  0  0  0  0  0  0  0  0
   -3.4336   -2.2354    1.1641 H   0  0  0  0  0  0  0  0  0  0  0  0
   -3.2256   -2.7344   -0.5349 H   0  0  0  0  0  0  0  0  0  0  0  0
   -1.4126   -2.2444    0.4801 C   0  0  0  0  0  0  0  0  0  0  0  0
   -0.4686   -2.9534    0.8001 O   0  0  0  0  0  0  0  0  0  0  0  0
   -1.2736   -0.9704    0.1241 N   0  0  0  0  0  0  0  0  0  0  0  0
   -2.0996   -0.4354   -0.1019 H   0  0  0  0  0  0  0  0  0  0  0  0
   -0.0016   -0.2394    0.1271 C   0  0  1  0  0  0  0  0  0  0  0  0
    0.7164   -0.7963    0.7332 H   0  0  0  0  0  0  0  0  0  0  0  0
    0.5351   -0.1414   -1.3146 C   0  0  0  0  0  0  0  0  0  0  0  0
   -0.2524    0.2321   -1.9704 H   0  0  0  0  0  0  0  0  0  0  0  0
    1.3644    0.5658   -1.3504 H   0  0  0  0  0  0  0  0  0  0  0  0
    0.9925   -1.4809   -1.8843 C   0  0  0  0  0  0  0  0  0  0  0  0
    1.4332   -2.4190   -1.2332 O   0  0  0  0  0  0  0  0  0  0  0  0
    0.8907   -1.5896   -3.2222 O   0  0  0  0  0  0  0  0  0  0  0  0
    1.1886   -2.4741   -3.4370 H   0  0  0  0  0  0  0  0  0  0  0  0
   -0.1923    1.1526    0.7617 C   0  0  0  0  0  0  0  0  0  0  0  0
    0.7406    1.6837    1.3627 O   0  0  0  0  0  0  0  0  0  0  0  0
   -1.3889    1.7384    0.6403 N   0  0  0  0  0  0  0  0  0  0  0  0
   -2.1245    1.2078    0.1852 H   0  0  0  0  0  0  0  0  0  0  0  0
   -1.7218    3.0550    1.1798 C   0  0  0  0  0  0  0  0  0  0  0  0
   -0.9801    3.7866    0.8518 H   0  0  0  0  0  0  0  0  0  0  0  0
   -2.7090    3.3636    0.8334 H   0  0  0  0  0  0  0  0  0  0  0  0
   -1.7170    3.0184    2.2706 H   0  0  0  0  0  0  0  0  0  0  0  0
  5  6  2  0  0  0  0
  5  7  1  0  0  0  0
  2  3  1  0  0  0  0
  2  4  1  0  0  0  0
  2  5  1  0  0  0  0
  1  2  1  0  0  0  0
 18 19  2  0  0  0  0
 18 20  1  0  0  0  0
 16 17  1  0  0  0  0
 14 15  2  0  0  0  0
 14 16  1  0  0  0  0
 11 12  1  0  0  0  0
 11 13  1  0  0  0  0
 11 14  1  0  0  0  0
  9 10  1  0  0  0  0
  9 11  1  0  0  0  0
  9 18  1  0  0  0  0
  7  8  1  0  0  0  0
  7  9  1  0  0  0  0
 22 23  1  0  0  0  0
 22 24  1  0  0  0  0
 22 25  1  0  0  0  0
 20 21  1  0  0  0  0
 20 22  1  0  0  0  0
M  END
$$$$
default_name
  -OEChem-01062215323D

 25 24  0     1  0  0  0  0  0999 V2000
   -2.7826   -3.8464    0.7821 H   0  0  0  0  0  0  0  0  0  0  0  0
   -2.8156   -2.8034    0.4711 C   0  0  0  0  0  0  0  0  0  0  0  0
   -3.4336   -2.2354    1.1641 H   0  0  0  0  0  0  0  0  0  0  0  0
   -3.2256   -2.7344   -0.5349 H   0  0  0  0  0  0  0  0  0  0  0  0
   -1.4126   -2.2444    0.4801 C   0  0  0  0  0  0  0  0  0  0  0  0
   -0.4686   -2.9534    0.8001 O   0  0  0  0  0  0  0  0  0  0  0  0
   -1.2736   -0.9704    0.1241 N   0  0  0  0  0  0  0  0  0  0  0  0
   -2.0996   -0.4354   -0.1019 H   0  0  0  0  0  0  0  0  0  0  0  0
   -0.0016   -0.2394    0.1271 C   0  0  1  0  0  0  0  0  0  0  0  0
    0.7164   -0.7963    0.7332 H   0  0  0  0  0  0  0  0  0  0  0  0
    0.5351   -0.1414   -1.3146 C   0  0  0  0  0  0  0  0  0  0  0  0
   -0.2524    0.2321   -1.9704 H   0  0  0  0  0  0  0  0  0  0  0  0
    1.3644    0.5658   -1.3504 H   0  0  0  0  0  0  0  0  0  0  0  0
    0.9925   -1.4809   -1.8843 C   0  0  0  0  0  0  0  0  0  0  0  0
    1.4332   -2.4190   -1.2332 O   0  0  0  0  0  0  0  0  0  0  0  0
    0.8907   -1.5896   -3.2222 O   0  0  0  0  0  0  0  0  0  0  0  0
    1.1886   -2.4741   -3.4370 H   0  0  0  0  0  0  0  0  0  0  0  0
   -0.1923    1.1526    0.7617 C   0  0  0  0  0  0  0  0  0  0  0  0
    0.7901    1.8030    1.1158 O   0  0  0  0  0  0  0  0  0  0  0  0
   -1.4415    1.6064    0.9141 N   0  0  0  0  0  0  0  0  0  0  0  0
   -2.1995    0.9832    0.6554 H   0  0  0  0  0  0  0  0  0  0  0  0
   -1.7834    2.9046    1.4913 C   0  0  0  0  0  0  0  0  0  0  0  0
   -1.2234    3.6931    0.9838 H   0  0  0  0  0  0  0  0  0  0  0  0
   -2.8519    3.0944    1.3811 H   0  0  0  0  0  0  0  0  0  0  0  0
   -1.5217    2.9174    2.5508 H   0  0  0  0  0  0  0  0  0  0  0  0
  5  6  2  0  0  0  0
  5  7  1  0  0  0  0
  2  3  1  0  0  0  0
  2  4  1  0  0  0  0
  2  5  1  0  0  0  0
  1  2  1  0  0  0  0
 18 19  2  0  0  0  0
 18 20  1  0  0  0  0
 16 17  1  0  0  0  0
 14 15  2  0  0  0  0
 14 16  1  0  0  0  0
 11 12  1  0  0  0  0
 11 13  1  0  0  0  0
 11 14  1  0  0  0  0
  9 10  1  0  0  0  0
  9 11  1  0  0  0  0
  9 18  1  0  0  0  0
  7  8  1  0  0  0  0
  7  9  1  0  0  0  0
 22 23  1  0  0  0  0
 22 24  1  0  0  0  0
 22 25  1  0  0  0  0
 20 21  1  0  0  0  0
 20 22  1  0  0  0  0
M  END
$$$$
default_name
  -OEChem-01062215323D

 25 24  0     1  0  0  0  0  0999 V2000
   -2.7826   -3.8464    0.7821 H   0  0  0  0  0  0  0  0  0  0  0  0
   -2.8156   -2.8034    0.4711 C   0  0  0  0  0  0  0  0  0  0  0  0
   -3.4336   -2.2354    1.1641 H   0  0  0  0  0  0  0  0  0  0  0  0
   -3.2256   -2.7344   -0.5349 H   0  0  0  0  0  0  0  0  0  0  0  0
   -1.4126   -2.2444    0.4801 C   0  0  0  0  0  0  0  0  0  0  0  0
   -0.4686   -2.9534    0.8001 O   0  0  0  0  0  0  0  0  0  0  0  0
   -1.2736   -0.9704    0.1241 N   0  0  0  0  0  0  0  0  0  0  0  0
   -2.0996   -0.4354   -0.1019 H   0  0  0  0  0  0  0  0  0  0  0  0
   -0.0016   -0.2394    0.1271 C   0  0  1  0  0  0  0  0  0  0  0  0
    0.7164   -0.7963    0.7332 H   0  0  0  0  0  0  0  0  0  0  0  0
    0.5351   -0.1414   -1.3146 C   0  0  0  0  0  0  0  0  0  0  0  0
   -0.2524    0.2321   -1.9704 H   0  0  0  0  0  0  0  0  0  0  0  0
    1.3644    0.5658   -1.3504 H   0  0  0  0  0  0  0  0  0  0  0  0
    0.9925   -1.4809   -1.8843 C   0  0  0  0  0  0  0  0  0  0  0  0
    1.4332   -2.4190   -1.2332 O   0  0  0  0  0  0  0  0  0  0  0  0
    0.8907   -1.5896   -3.2222 O   0  0  0  0  0  0  0  0  0  0  0  0
    1.1886   -2.4741   -3.4370 H   0  0  0  0  0  0  0  0  0  0  0  0
   -0.1923    1.1526    0.7617 C   0  0  0  0  0  0  0  0  0  0  0  0
    0.7675    1.9157    0.8619 O   0  0  0  0  0  0  0  0  0  0  0  0
   -1.4143    1.4820    1.1951 N   0  0  0  0  0  0  0  0  0  0  0  0
   -2.1381    0.7733    1.1342 H   0  0  0  0  0  0  0  0  0  0  0  0
   -1.7541    2.7627    1.8114 C   0  0  0  0  0  0  0  0  0  0  0  0
   -1.4176    3.5811    1.1711 H   0  0  0  0  0  0  0  0  0  0  0  0
   -2.8332    2.8366    1.9522 H   0  0  0  0  0  0  0  0  0  0  0  0
   -1.2568    2.8496    2.7790 H   0  0  0  0  0  0  0  0  0  0  0  0
  5  6  2  0  0  0  0
  5  7  1  0  0  0  0
  2  3  1  0  0  0  0
  2  4  1  0  0  0  0
  2  5  1  0  0  0  0
  1  2  1  0  0  0  0
 18 19  2  0  0  0  0
 18 20  1  0  0  0  0
 16 17  1  0  0  0  0
 14 15  2  0  0  0  0
 14 16  1  0  0  0  0
 11 12  1  0  0  0  0
 11 13  1  0  0  0  0
 11 14  1  0  0  0  0
  9 10  1  0  0  0  0
  9 11  1  0  0  0  0
  9 18  1  0  0  0  0
  7  8  1  0  0  0  0
  7  9  1  0  0  0  0
 22 23  1  0  0  0  0
 22 24  1  0  0  0  0
 22 25  1  0  0  0  0
 20 21  1  0  0  0  0
 20 22  1  0  0  0  0
M  END
$$$$
default_name
  -OEChem-01062215323D

 25 24  0     1  0  0  0  0  0999 V2000
   -2.7826   -3.8464    0.7821 H   0  0  0  0  0  0  0  0  0  0  0  0
   -2.8156   -2.8034    0.4711 C   0  0  0  0  0  0  0  0  0  0  0  0
   -3.4336   -2.2354    1.1641 H   0  0  0  0  0  0  0  0  0  0  0  0
   -3.2256   -2.7344   -0.5349 H   0  0  0  0  0  0  0  0  0  0  0  0
   -1.4126   -2.2444    0.4801 C   0  0  0  0  0  0  0  0  0  0  0  0
   -0.4686   -2.9534    0.8001 O   0  0  0  0  0  0  0  0  0  0  0  0
   -1.2736   -0.9704    0.1241 N   0  0  0  0  0  0  0  0  0  0  0  0
   -2.0996   -0.4354   -0.1019 H   0  0  0  0  0  0  0  0  0  0  0  0
   -0.0016   -0.2394    0.1271 C   0  0  1  0  0  0  0  0  0  0  0  0
    0.7164   -0.7963    0.7332 H   0  0  0  0  0  0  0  0  0  0  0  0
    0.5351   -0.1414   -1.3146 C   0  0  0  0  0  0  0  0  0  0  0  0
   -0.2524    0.2321   -1.9704 H   0  0  0  0  0  0  0  0  0  0  0  0
    1.3644    0.5658   -1.3504 H   0  0  0  0  0  0  0  0  0  0  0  0
    0.9925   -1.4809   -1.8843 C   0  0  0  0  0  0  0  0  0  0  0  0
    1.4332   -2.4190   -1.2332 O   0  0  0  0  0  0  0  0  0  0  0  0
    0.8907   -1.5896   -3.2222 O   0  0  0  0  0  0  0  0  0  0  0  0
    1.1886   -2.4741   -3.4370 H   0  0  0  0  0  0  0  0  0  0  0  0
   -0.1923    1.1526    0.7617 C   0  0  0  0  0  0  0  0  0  0  0  0
    0.6744    2.0139    0.6184 O   0  0  0  0  0  0  0  0  0  0  0  0
   -1.3091    1.3737    1.4642 N   0  0  0  0  0  0  0  0  0  0  0  0
   -1.9446    0.5924    1.5891 H   0  0  0  0  0  0  0  0  0  0  0  0
   -1.6359    2.6390    2.1182 C   0  0  0  0  0  0  0  0  0  0  0  0
   -1.5495    3.4582    1.4010 H   0  0  0  0  0  0  0  0  0  0  0  0
   -2.6543    2.6079    2.5076 H   0  0  0  0  0  0  0  0  0  0  0  0
   -0.9404    2.8197    2.9397 H   0  0  0  0  0  0  0  0  0  0  0  0
  5  6  2  0  0  0  0
  5  7  1  0  0  0  0
  2  3  1  0  0  0  0
  2  4  1  0  0  0  0
  2  5  1  0  0  0  0
  1  2  1  0  0  0  0
 18 19  2  0  0  0  0
 18 20  1  0  0  0  0
 16 17  1  0  0  0  0
 14 15  2  0  0  0  0
 14 16  1  0  0  0  0
 11 12  1  0  0  0  0
 11 13  1  0  0  0  0
 11 14  1  0  0  0  0
  9 10  1  0  0  0  0
  9 11  1  0  0  0  0
  9 18  1  0  0  0  0
  7  8  1  0  0  0  0
  7  9  1  0  0  0  0
 22 23  1  0  0  0  0
 22 24  1  0  0  0  0
 22 25  1  0  0  0  0
 20 21  1  0  0  0  0
 20 22  1  0  0  0  0
M  END
$$$$
default_name
  -OEChem-01062215323D

 25 24  0     1  0  0  0  0  0999 V2000
   -2.7826   -3.8464    0.7821 H   0  0  0  0  0  0  0  0  0  0  0  0
   -2.8156   -2.8034    0.4711 C   0  0  0  0  0  0  0  0  0  0  0  0
   -3.4336   -2.2354    1.1641 H   0  0  0  0  0  0  0  0  0  0  0  0
   -3.2256   -2.7344   -0.5349 H   0  0  0  0  0  0  0  0  0  0  0  0
   -1.4126   -2.2444    0.4801 C   0  0  0  0  0  0  0  0  0  0  0  0
   -0.4686   -2.9534    0.8001 O   0  0  0  0  0  0  0  0  0  0  0  0
   -1.2736   -0.9704    0.1241 N   0  0  0  0  0  0  0  0  0  0  0  0
   -2.0996   -0.4354   -0.1019 H   0  0  0  0  0  0  0  0  0  0  0  0
   -0.0016   -0.2394    0.1271 C   0  0  1  0  0  0  0  0  0  0  0  0
    0.7164   -0.7963    0.7332 H   0  0  0  0  0  0  0  0  0  0  0  0
    0.5351   -0.1414   -1.3146 C   0  0  0  0  0  0  0  0  0  0  0  0
   -0.2524    0.2321   -1.9704 H   0  0  0  0  0  0  0  0  0  0  0  0
    1.3644    0.5658   -1.3504 H   0  0  0  0  0  0  0  0  0  0  0  0
    0.9925   -1.4809   -1.8843 C   0  0  0  0  0  0  0  0  0  0  0  0
    1.4332   -2.4190   -1.2332 O   0  0  0  0  0  0  0  0  0  0  0  0
    0.8907   -1.5896   -3.2222 O   0  0  0  0  0  0  0  0  0  0  0  0
    1.1886   -2.4741   -3.4370 H   0  0  0  0  0  0  0  0  0  0  0  0
   -0.1923    1.1526    0.7617 C   0  0  0  0  0  0  0  0  0  0  0  0
    0.5170    2.0911    0.4017 O   0  0  0  0  0  0  0  0  0  0  0  0
   -1.1331    1.2890    1.7030 N   0  0  0  0  0  0  0  0  0  0  0  0
   -1.6320    0.4529    1.9890 H   0  0  0  0  0  0  0  0  0  0  0  0
   -1.4368    2.5420    2.3909 C   0  0  0  0  0  0  0  0  0  0  0  0
   -1.6101    3.3328    1.6578 H   0  0  0  0  0  0  0  0  0  0  0  0
   -2.3273    2.4238    3.0097 H   0  0  0  0  0  0  0  0  0  0  0  0
   -0.5941    2.8297    3.0219 H   0  0  0  0  0  0  0  0  0  0  0  0
  5  6  2  0  0  0  0
  5  7  1  0  0  0  0
  2  3  1  0  0  0  0
  2  4  1  0  0  0  0
  2  5  1  0  0  0  0
  1  2  1  0  0  0  0
 18 19  2  0  0  0  0
 18 20  1  0  0  0  0
 16 17  1  0  0  0  0
 14 15  2  0  0  0  0
 14 16  1  0  0  0  0
 11 12  1  0  0  0  0
 11 13  1  0  0  0  0
 11 14  1  0  0  0  0
  9 10  1  0  0  0  0
  9 11  1  0  0  0  0
  9 18  1  0  0  0  0
  7  8  1  0  0  0  0
  7  9  1  0  0  0  0
 22 23  1  0  0  0  0
 22 24  1  0  0  0  0
 22 25  1  0  0  0  0
 20 21  1  0  0  0  0
 20 22  1  0  0  0  0
M  END
$$$$
default_name
  -OEChem-01062215323D

 25 24  0     1  0  0  0  0  0999 V2000
   -2.7826   -3.8464    0.7821 H   0  0  0  0  0  0  0  0  0  0  0  0
   -2.8156   -2.8034    0.4711 C   0  0  0  0  0  0  0  0  0  0  0  0
   -3.4336   -2.2354    1.1641 H   0  0  0  0  0  0  0  0  0  0  0  0
   -3.2256   -2.7344   -0.5349 H   0  0  0  0  0  0  0  0  0  0  0  0
   -1.4126   -2.2444    0.4801 C   0  0  0  0  0  0  0  0  0  0  0  0
   -0.4686   -2.9534    0.8001 O   0  0  0  0  0  0  0  0  0  0  0  0
   -1.2736   -0.9704    0.1241 N   0  0  0  0  0  0  0  0  0  0  0  0
   -2.0996   -0.4354   -0.1019 H   0  0  0  0  0  0  0  0  0  0  0  0
   -0.0016   -0.2394    0.1271 C   0  0  1  0  0  0  0  0  0  0  0  0
    0.7164   -0.7963    0.7332 H   0  0  0  0  0  0  0  0  0  0  0  0
    0.5351   -0.1414   -1.3146 C   0  0  0  0  0  0  0  0  0  0  0  0
   -0.2524    0.2321   -1.9704 H   0  0  0  0  0  0  0  0  0  0  0  0
    1.3644    0.5658   -1.3504 H   0  0  0  0  0  0  0  0  0  0  0  0
    0.9925   -1.4809   -1.8843 C   0  0  0  0  0  0  0  0  0  0  0  0
    1.4332   -2.4190   -1.2332 O   0  0  0  0  0  0  0  0  0  0  0  0
    0.8907   -1.5896   -3.2222 O   0  0  0  0  0  0  0  0  0  0  0  0
    1.1886   -2.4741   -3.4370 H   0  0  0  0  0  0  0  0  0  0  0  0
   -0.1923    1.1526    0.7617 C   0  0  0  0  0  0  0  0  0  0  0  0
    0.3062    2.1420    0.2268 O   0  0  0  0  0  0  0  0  0  0  0  0
   -0.8982    1.2335    1.8952 N   0  0  0  0  0  0  0  0  0  0  0  0
   -1.2218    0.3642    2.3068 H   0  0  0  0  0  0  0  0  0  0  0  0
   -1.1705    2.4781    2.6110 C   0  0  0  0  0  0  0  0  0  0  0  0
   -1.5952    3.2135    1.9241 H   0  0  0  0  0  0  0  0  0  0  0  0
   -1.8745    2.2969    3.4241 H   0  0  0  0  0  0  0  0  0  0  0  0
   -0.2414    2.8788    3.0201 H   0  0  0  0  0  0  0  0  0  0  0  0
  5  6  2  0  0  0  0
  5  7  1  0  0  0  0
  2  3  1  0  0  0  0
  2  4  1  0  0  0  0
  2  5  1  0  0  0  0
  1  2  1  0  0  0  0
 18 19  2  0  0  0  0
 18 20  1  0  0  0  0
 16 17  1  0  0  0  0
 14 15  2  0  0  0  0
 14 16  1  0  0  0  0
 11 12  1  0  0  0  0
 11 13  1  0  0  0  0
 11 14  1  0  0  0  0
  9 10  1  0  0  0  0
  9 11  1  0  0  0  0
  9 18  1  0  0  0  0
  7  8  1  0  0  0  0
  7  9  1  0  0  0  0
 22 23  1  0  0  0  0
 22 24  1  0  0  0  0
 22 25  1  0  0  0  0
 20 21  1  0  0  0  0
 20 22  1  0  0  0  0
M  END
$$$$
default_name
  -OEChem-01062215323D

 25 24  0     1  0  0  0  0  0999 V2000
   -2.7826   -3.8464    0.7821 H   0  0  0  0  0  0  0  0  0  0  0  0
   -2.8156   -2.8034    0.4711 C   0  0  0  0  0  0  0  0  0  0  0  0
   -3.4336   -2.2354    1.1641 H   0  0  0  0  0  0  0  0  0  0  0  0
   -3.2256   -2.7344   -0.5349 H   0  0  0  0  0  0  0  0  0  0  0  0
   -1.4126   -2.2444    0.4801 C   0  0  0  0  0  0  0  0  0  0  0  0
   -0.4686   -2.9534    0.8001 O   0  0  0  0  0  0  0  0  0  0  0  0
   -1.2736   -0.9704    0.1241 N   0  0  0  0  0  0  0  0  0  0  0  0
   -2.0996   -0.4354   -0.1019 H   0  0  0  0  0  0  0  0  0  0  0  0
   -0.0016   -0.2394    0.1271 C   0  0  1  0  0  0  0  0  0  0  0  0
    0.7164   -0.7963    0.7332 H   0  0  0  0  0  0  0  0  0  0  0  0
    0.5351   -0.1414   -1.3146 C   0  0  0  0  0  0  0  0  0  0  0  0
   -0.2524    0.2321   -1.9704 H   0  0  0  0  0  0  0  0  0  0  0  0
    1.3644    0.5658   -1.3504 H   0  0  0  0  0  0  0  0  0  0  0  0
    0.9925   -1.4809   -1.8843 C   0  0  0  0  0  0  0  0  0  0  0  0
    1.4332   -2.4190   -1.2332 O   0  0  0  0  0  0  0  0  0  0  0  0
    0.8907   -1.5896   -3.2222 O   0  0  0  0  0  0  0  0  0  0  0  0
    1.1886   -2.4741   -3.4370 H   0  0  0  0  0  0  0  0  0  0  0  0
   -0.1923    1.1526    0.7617 C   0  0  0  0  0  0  0  0  0  0  0  0
    0.0562    2.1631    0.1054 O   0  0  0  0  0  0  0  0  0  0  0  0
   -0.6206    1.2111    2.0277 N   0  0  0  0  0  0  0  0  0  0  0  0
   -0.7419    0.3324    2.5207 H   0  0  0  0  0  0  0  0  0  0  0  0
   -0.8550    2.4519    2.7633 C   0  0  0  0  0  0  0  0  0  0  0  0
   -1.5059    3.1083    2.1816 H   0  0  0  0  0  0  0  0  0  0  0  0
   -1.3267    2.2358    3.7227 H   0  0  0  0  0  0  0  0  0  0  0  0
    0.0937    2.9638    2.9344 H   0  0  0  0  0  0  0  0  0  0  0  0
  5  6  2  0  0  0  0
  5  7  1  0  0  0  0
  2  3  1  0  0  0  0
  2  4  1  0  0  0  0
  2  5  1  0  0  0  0
  1  2  1  0  0  0  0
 18 19  2  0  0  0  0
 18 20  1  0  0  0  0
 16 17  1  0  0  0  0
 14 15  2  0  0  0  0
 14 16  1  0  0  0  0
 11 12  1  0  0  0  0
 11 13  1  0  0  0  0
 11 14  1  0  0  0  0
  9 10  1  0  0  0  0
  9 11  1  0  0  0  0
  9 18  1  0  0  0  0
  7  8  1  0  0  0  0
  7  9  1  0  0  0  0
 22 23  1  0  0  0  0
 22 24  1  0  0  0  0
 22 25  1  0  0  0  0
 20 21  1  0  0  0  0
 20 22  1  0  0  0  0
M  END
$$$$
default_name
  -OEChem-01062215323D

 25 24  0     1  0  0  0  0  0999 V2000
   -2.7826   -3.8464    0.7821 H   0  0  0  0  0  0  0  0  0  0  0  0
   -2.8156   -2.8034    0.4711 C   0  0  0  0  0  0  0  0  0  0  0  0
   -3.4336   -2.2354    1.1641 H   0  0  0  0  0  0  0  0  0  0  0  0
   -3.2256   -2.7344   -0.5349 H   0  0  0  0  0  0  0  0  0  0  0  0
   -1.4126   -2.2444    0.4801 C   0  0  0  0  0  0  0  0  0  0  0  0
   -0.4686   -2.9534    0.8001 O   0  0  0  0  0  0  0  0  0  0  0  0
   -1.2736   -0.9704    0.1241 N   0  0  0  0  0  0  0  0  0  0  0  0
   -2.0996   -0.4354   -0.1019 H   0  0  0  0  0  0  0  0  0  0  0  0
   -0.0016   -0.2394    0.1271 C   0  0  1  0  0  0  0  0  0  0  0  0
    0.7164   -0.7963    0.7332 H   0  0  0  0  0  0  0  0  0  0  0  0
    0.5351   -0.1414   -1.3146 C   0  0  0  0  0  0  0  0  0  0  0  0
   -0.2524    0.2321   -1.9704 H   0  0  0  0  0  0  0  0  0  0  0  0
    1.3644    0.5658   -1.3504 H   0  0  0  0  0  0  0  0  0  0  0  0
    0.9925   -1.4809   -1.8843 C   0  0  0  0  0  0  0  0  0  0  0  0
    1.4332   -2.4190   -1.2332 O   0  0  0  0  0  0  0  0  0  0  0  0
    0.8907   -1.5896   -3.2222 O   0  0  0  0  0  0  0  0  0  0  0  0
    1.1886   -2.4741   -3.4370 H   0  0  0  0  0  0  0  0  0  0  0  0
   -0.1923    1.1526    0.7617 C   0  0  0  0  0  0  0  0  0  0  0  0
   -0.2159    2.1530    0.0459 O   0  0  0  0  0  0  0  0  0  0  0  0
   -0.3190    1.2233    2.0916 N   0  0  0  0  0  0  0  0  0  0  0  0
   -0.2249    0.3597    2.6162 H   0  0  0  0  0  0  0  0  0  0  0  0
   -0.5118    2.4651    2.8375 C   0  0  0  0  0  0  0  0  0  0  0  0
   -1.3483    3.0245    2.4129 H   0  0  0  0  0  0  0  0  0  0  0  0
   -0.7213    2.2447    3.8850 H   0  0  0  0  0  0  0  0  0  0  0  0
    0.3882    3.0788    2.7705 H   0  0  0  0  0  0  0  0  0  0  0  0
  5  6  2  0  0  0  0
  5  7  1  0  0  0  0
  2  3  1  0  0  0  0
  2  4  1  0  0  0  0
  2  5  1  0  0  0  0
  1  2  1  0  0  0  0
 18 19  2  0  0  0  0
 18 20  1  0  0  0  0
 16 17  1  0  0  0  0
 14 15  2  0  0  0  0
 14 16  1  0  0  0  0
 11 12  1  0  0  0  0
 11 13  1  0  0  0  0
 11 14  1  0  0  0  0
  9 10  1  0  0  0  0
  9 11  1  0  0  0  0
  9 18  1  0  0  0  0
  7  8  1  0  0  0  0
  7  9  1  0  0  0  0
 22 23  1  0  0  0  0
 22 24  1  0  0  0  0
 22 25  1  0  0  0  0
 20 21  1  0  0  0  0
 20 22  1  0  0  0  0
M  END
$$$$
default_name
  -OEChem-01062215323D

 25 24  0     1  0  0  0  0  0999 V2000
   -2.7826   -3.8464    0.7821 H   0  0  0  0  0  0  0  0  0  0  0  0
   -2.8156   -2.8034    0.4711 C   0  0  0  0  0  0  0  0  0  0  0  0
   -3.4336   -2.2354    1.1641 H   0  0  0  0  0  0  0  0  0  0  0  0
   -3.2256   -2.7344   -0.5349 H   0  0  0  0  0  0  0  0  0  0  0  0
   -1.4126   -2.2444    0.4801 C   0  0  0  0  0  0  0  0  0  0  0  0
   -0.4686   -2.9534    0.8001 O   0  0  0  0  0  0  0  0  0  0  0  0
   -1.2736   -0.9704    0.1241 N   0  0  0  0  0  0  0  0  0  0  0  0
   -2.0996   -0.4354   -0.1019 H   0  0  0  0  0  0  0  0  0  0  0  0
   -0.0016   -0.2394    0.1271 C   0  0  1  0  0  0  0  0  0  0  0  0
    0.7164   -0.7963    0.7332 H   0  0  0  0  0  0  0  0  0  0  0  0
    0.5351   -0.1414   -1.3146 C   0  0  0  0  0  0  0  0  0  0  0  0
   -0.2524    0.2321   -1.9704 H   0  0  0  0  0  0  0  0  0  0  0  0
    1.3644    0.5658   -1.3504 H   0  0  0  0  0  0  0  0  0  0  0  0
    0.9925   -1.4809   -1.8843 C   0  0  0  0  0  0  0  0  0  0  0  0
    1.4332   -2.4190   -1.2332 O   0  0  0  0  0  0  0  0  0  0  0  0
    0.8907   -1.5896   -3.2222 O   0  0  0  0  0  0  0  0  0  0  0  0
    1.1886   -2.4741   -3.4370 H   0  0  0  0  0  0  0  0  0  0  0  0
   -0.1923    1.1526    0.7617 C   0  0  0  0  0  0  0  0  0  0  0  0
   -0.4915    2.1123    0.0524 O   0  0  0  0  0  0  0  0  0  0  0  0
   -0.0141    1.2693    2.0824 N   0  0  0  0  0  0  0  0  0  0  0  0
    0.2938    0.4442    2.5867 H   0  0  0  0  0  0  0  0  0  0  0  0
   -0.1644    2.5167    2.8286 C   0  0  0  0  0  0  0  0  0  0  0  0
   -1.1330    2.9677    2.6021 H   0  0  0  0  0  0  0  0  0  0  0  0
   -0.0996    2.3230    3.9000 H   0  0  0  0  0  0  0  0  0  0  0  0
    0.6221    3.2161    2.5398 H   0  0  0  0  0  0  0  0  0  0  0  0
  5  6  2  0  0  0  0
  5  7  1  0  0  0  0
  2  3  1  0  0  0  0
  2  4  1  0  0  0  0
  2  5  1  0  0  0  0
  1  2  1  0  0  0  0
 18 19  2  0  0  0  0
 18 20  1  0  0  0  0
 16 17  1  0  0  0  0
 14 15  2  0  0  0  0
 14 16  1  0  0  0  0
 11 12  1  0  0  0  0
 11 13  1  0  0  0  0
 11 14  1  0  0  0  0
  9 10  1  0  0  0  0
  9 11  1  0  0  0  0
  9 18  1  0  0  0  0
  7  8  1  0  0  0  0
  7  9  1  0  0  0  0
 22 23  1  0  0  0  0
 22 24  1  0  0  0  0
 22 25  1  0  0  0  0
 20 21  1  0  0  0  0
 20 22  1  0  0  0  0
M  END
$$$$
default_name
  -OEChem-01062215323D

 25 24  0     1  0  0  0  0  0999 V2000
   -2.7826   -3.8464    0.7821 H   0  0  0  0  0  0  0  0  0  0  0  0
   -2.8156   -2.8034    0.4711 C   0  0  0  0  0  0  0  0  0  0  0  0
   -3.4336   -2.2354    1.1641 H   0  0  0  0  0  0  0  0  0  0  0  0
   -3.2256   -2.7344   -0.5349 H   0  0  0  0  0  0  0  0  0  0  0  0
   -1.4126   -2.2444    0.4801 C   0  0  0  0  0  0  0  0  0  0  0  0
   -0.4686   -2.9534    0.8001 O   0  0  0  0  0  0  0  0  0  0  0  0
   -1.2736   -0.9704    0.1241 N   0  0  0  0  0  0  0  0  0  0  0  0
   -2.0996   -0.4354   -0.1019 H   0  0  0  0  0  0  0  0  0  0  0  0
   -0.0016   -0.2394    0.1271 C   0  0  1  0  0  0  0  0  0  0  0  0
    0.7164   -0.7963    0.7332 H   0  0  0  0  0  0  0  0  0  0  0  0
    0.5351   -0.1414   -1.3146 C   0  0  0  0  0  0  0  0  0  0  0  0
   -0.2524    0.2321   -1.9704 H   0  0  0  0  0  0  0  0  0  0  0  0
    1.3644    0.5658   -1.3504 H   0  0  0  0  0  0  0  0  0  0  0  0
    0.9925   -1.4809   -1.8843 C   0  0  0  0  0  0  0  0  0  0  0  0
    1.4332   -2.4190   -1.2332 O   0  0  0  0  0  0  0  0  0  0  0  0
    0.8907   -1.5896   -3.2222 O   0  0  0  0  0  0  0  0  0  0  0  0
    1.1886   -2.4741   -3.4370 H   0  0  0  0  0  0  0  0  0  0  0  0
   -0.1923    1.1526    0.7617 C   0  0  0  0  0  0  0  0  0  0  0  0
   -0.7519    2.0438    0.1244 O   0  0  0  0  0  0  0  0  0  0  0  0
    0.2734    1.3459    2.0008 N   0  0  0  0  0  0  0  0  0  0  0  0
    0.7790    0.5801    2.4343 H   0  0  0  0  0  0  0  0  0  0  0  0
    0.1636    2.6033    2.7371 C   0  0  0  0  0  0  0  0  0  0  0  0
   -0.8748    2.9418    2.7364 H   0  0  0  0  0  0  0  0  0  0  0  0
    0.4961    2.4654    3.7667 H   0  0  0  0  0  0  0  0  0  0  0  0
    0.7796    3.3662    2.2578 H   0  0  0  0  0  0  0  0  0  0  0  0
  5  6  2  0  0  0  0
  5  7  1  0  0  0  0
  2  3  1  0  0  0  0
  2  4  1  0  0  0  0
  2  5  1  0  0  0  0
  1  2  1  0  0  0  0
 18 19  2  0  0  0  0
 18 20  1  0  0  0  0
 16 17  1  0  0  0  0
 14 15  2  0  0  0  0
 14 16  1  0  0  0  0
 11 12  1  0  0  0  0
 11 13  1  0  0  0  0
 11 14  1  0  0  0  0
  9 10  1  0  0  0  0
  9 11  1  0  0  0  0
  9 18  1  0  0  0  0
  7  8  1  0  0  0  0
  7  9  1  0  0  0  0
 22 23  1  0  0  0  0
 22 24  1  0  0  0  0
 22 25  1  0  0  0  0
 20 21  1  0  0  0  0
 20 22  1  0  0  0  0
M  END
$$$$
default_name
  -OEChem-01062215323D

 25 24  0     1  0  0  0  0  0999 V2000
   -2.7826   -3.8464    0.7821 H   0  0  0  0  0  0  0  0  0  0  0  0
   -2.8156   -2.8034    0.4711 C   0  0  0  0  0  0  0  0  0  0  0  0
   -3.4336   -2.2354    1.1641 H   0  0  0  0  0  0  0  0  0  0  0  0
   -3.2256   -2.7344   -0.5349 H   0  0  0  0  0  0  0  0  0  0  0  0
   -1.4126   -2.2444    0.4801 C   0  0  0  0  0  0  0  0  0  0  0  0
   -0.4686   -2.9534    0.8001 O   0  0  0  0  0  0  0  0  0  0  0  0
   -1.2736   -0.9704    0.1241 N   0  0  0  0  0  0  0  0  0  0  0  0
   -2.0996   -0.4354   -0.1019 H   0  0  0  0  0  0  0  0  0  0  0  0
   -0.0016   -0.2394    0.1271 C   0  0  1  0  0  0  0  0  0  0  0  0
    0.7164   -0.7963    0.7332 H   0  0  0  0  0  0  0  0  0  0  0  0
    0.5351   -0.1414   -1.3146 C   0  0  0  0  0  0  0  0  0  0  0  0
   -0.2524    0.2321   -1.9704 H   0  0  0  0  0  0  0  0  0  0  0  0
    1.3644    0.5658   -1.3504 H   0  0  0  0  0  0  0  0  0  0  0  0
    0.9925   -1.4809   -1.8843 C   0  0  0  0  0  0  0  0  0  0  0  0
    1.4332   -2.4190   -1.2332 O   0  0  0  0  0  0  0  0  0  0  0  0
    0.8907   -1.5896   -3.2222 O   0  0  0  0  0  0  0  0  0  0  0  0
    1.1886   -2.4741   -3.4370 H   0  0  0  0  0  0  0  0  0  0  0  0
   -0.1923    1.1526    0.7617 C   0  0  0  0  0  0  0  0  0  0  0  0
   -0.9793    1.9522    0.2569 O   0  0  0  0  0  0  0  0  0  0  0  0
    0.5239    1.4478    1.8524 N   0  0  0  0  0  0  0  0  0  0  0  0
    1.1976    0.7582    2.1694 H   0  0  0  0  0  0  0  0  0  0  0  0
    0.4498    2.7190    2.5694 C   0  0  0  0  0  0  0  0  0  0  0  0
   -0.5913    2.9486    2.8066 H   0  0  0  0  0  0  0  0  0  0  0  0
    1.0252    2.6620    3.4942 H   0  0  0  0  0  0  0  0  0  0  0  0
    0.8497    3.5189    1.9438 H   0  0  0  0  0  0  0  0  0  0  0  0
  5  6  2  0  0  0  0
  5  7  1  0  0  0  0
  2  3  1  0  0  0  0
  2  4  1  0  0  0  0
  2  5  1  0  0  0  0
  1  2  1  0  0  0  0
 18 19  2  0  0  0  0
 18 20  1  0  0  0  0
 16 17  1  0  0  0  0
 14 15  2  0  0  0  0
 14 16  1  0  0  0  0
 11 12  1  0  0  0  0
 11 13  1  0  0  0  0
 11 14  1  0  0  0  0
  9 10  1  0  0  0  0
  9 11  1  0  0  0  0
  9 18  1  0  0  0  0
  7  8  1  0  0  0  0
  7  9  1  0  0  0  0
 22 23  1  0  0  0  0
 22 24  1  0  0  0  0
 22 25  1  0  0  0  0
 20 21  1  0  0  0  0
 20 22  1  0  0  0  0
M  END
$$$$
default_name
  -OEChem-01062215323D

 25 24  0     1  0  0  0  0  0999 V2000
   -2.7826   -3.8464    0.7821 H   0  0  0  0  0  0  0  0  0  0  0  0
   -2.8156   -2.8034    0.4711 C   0  0  0  0  0  0  0  0  0  0  0  0
   -3.4336   -2.2354    1.1641 H   0  0  0  0  0  0  0  0  0  0  0  0
   -3.2256   -2.7344   -0.5349 H   0  0  0  0  0  0  0  0  0  0  0  0
   -1.4126   -2.2444    0.4801 C   0  0  0  0  0  0  0  0  0  0  0  0
   -0.4686   -2.9534    0.8001 O   0  0  0  0  0  0  0  0  0  0  0  0
   -1.2736   -0.9704    0.1241 N   0  0  0  0  0  0  0  0  0  0  0  0
   -2.0996   -0.4354   -0.1019 H   0  0  0  0  0  0  0  0  0  0  0  0
   -0.0016   -0.2394    0.1271 C   0  0  1  0  0  0  0  0  0  0  0  0
    0.7164   -0.7963    0.7332 H   0  0  0  0  0  0  0  0  0  0  0  0
    0.5351   -0.1414   -1.3146 C   0  0  0  0  0  0  0  0  0  0  0  0
   -0.2524    0.2321   -1.9704 H   0  0  0  0  0  0  0  0  0  0  0  0
    1.3644    0.5658   -1.3504 H   0  0  0  0  0  0  0  0  0  0  0  0
    0.9925   -1.4809   -1.8843 C   0  0  0  0  0  0  0  0  0  0  0  0
    1.4332   -2.4190   -1.2332 O   0  0  0  0  0  0  0  0  0  0  0  0
    0.8907   -1.5896   -3.2222 O   0  0  0  0  0  0  0  0  0  0  0  0
    1.1886   -2.4741   -3.4370 H   0  0  0  0  0  0  0  0  0  0  0  0
   -0.1923    1.1526    0.7617 C   0  0  0  0  0  0  0  0  0  0  0  0
   -1.1582    1.8438    0.4410 O   0  0  0  0  0  0  0  0  0  0  0  0
    0.7203    1.5683    1.6472 N   0  0  0  0  0  0  0  0  0  0  0  0
    1.5210    0.9664    1.8100 H   0  0  0  0  0  0  0  0  0  0  0  0
    0.6747    2.8558    2.3368 C   0  0  0  0  0  0  0  0  0  0  0  0
   -0.3018    2.9877    2.8079 H   0  0  0  0  0  0  0  0  0  0  0  0
    1.4516    2.8997    3.1011 H   0  0  0  0  0  0  0  0  0  0  0  0
    0.8279    3.6639    1.6193 H   0  0  0  0  0  0  0  0  0  0  0  0
  5  6  2  0  0  0  0
  5  7  1  0  0  0  0
  2  3  1  0  0  0  0
  2  4  1  0  0  0  0
  2  5  1  0  0  0  0
  1  2  1  0  0  0  0
 18 19  2  0  0  0  0
 18 20  1  0  0  0  0
 16 17  1  0  0  0  0
 14 15  2  0  0  0  0
 14 16  1  0  0  0  0
 11 12  1  0  0  0  0
 11 13  1  0  0  0  0
 11 14  1  0  0  0  0
  9 10  1  0  0  0  0
  9 11  1  0  0  0  0
  9 18  1  0  0  0  0
  7  8  1  0  0  0  0
  7  9  1  0  0  0  0
 22 23  1  0  0  0  0
 22 24  1  0  0  0  0
 22 25  1  0  0  0  0
 20 21  1  0  0  0  0
 20 22  1  0  0  0  0
M  END
$$$$
default_name
  -OEChem-01062215323D

 25 24  0     1  0  0  0  0  0999 V2000
   -2.7826   -3.8464    0.7821 H   0  0  0  0  0  0  0  0  0  0  0  0
   -2.8156   -2.8034    0.4711 C   0  0  0  0  0  0  0  0  0  0  0  0
   -3.4336   -2.2354    1.1641 H   0  0  0  0  0  0  0  0  0  0  0  0
   -3.2256   -2.7344   -0.5349 H   0  0  0  0  0  0  0  0  0  0  0  0
   -1.4126   -2.2444    0.4801 C   0  0  0  0  0  0  0  0  0  0  0  0
   -0.4686   -2.9534    0.8001 O   0  0  0  0  0  0  0  0  0  0  0  0
   -1.2736   -0.9704    0.1241 N   0  0  0  0  0  0  0  0  0  0  0  0
   -2.0996   -0.4354   -0.1019 H   0  0  0  0  0  0  0  0  0  0  0  0
   -0.0016   -0.2394    0.1271 C   0  0  1  0  0  0  0  0  0  0  0  0
    0.7164   -0.7963    0.7332 H   0  0  0  0  0  0  0  0  0  0  0  0
    0.5351   -0.1414   -1.3146 C   0  0  0  0  0  0  0  0  0  0  0  0
   -0.2524    0.2321   -1.9704 H   0  0  0  0  0  0  0  0  0  0  0  0
    1.3644    0.5658   -1.3504 H   0  0  0  0  0  0  0  0  0  0  0  0
    0.9925   -1.4809   -1.8843 C   0  0  0  0  0  0  0  0  0  0  0  0
    1.4332   -2.4190   -1.2332 O   0  0  0  0  0  0  0  0  0  0  0  0
    0.8907   -1.5896   -3.2222 O   0  0  0  0  0  0  0  0  0  0  0  0
    1.1886   -2.4741   -3.4370 H   0  0  0  0  0  0  0  0  0  0  0  0
   -0.1923    1.1526    0.7617 C   0  0  0  0  0  0  0  0  0  0  0  0
   -1.2765    1.7259    0.6641 O   0  0  0  0  0  0  0  0  0  0  0  0
    0.8492    1.6990    1.3992 N   0  0  0  0  0  0  0  0  0  0  0  0
    1.7272    1.1904    1.3806 H   0  0  0  0  0  0  0  0  0  0  0  0
    0.8230    3.0046    2.0551 C   0  0  0  0  0  0  0  0  0  0  0  0
   -0.0260    3.0563    2.7403 H   0  0  0  0  0  0  0  0  0  0  0  0
    1.7463    3.1621    2.6141 H   0  0  0  0  0  0  0  0  0  0  0  0
    0.7155    3.7912    1.3063 H   0  0  0  0  0  0  0  0  0  0  0  0
  5  6  2  0  0  0  0
  5  7  1  0  0  0  0
  2  3  1  0  0  0  0
  2  4  1  0  0  0  0
  2  5  1  0  0  0  0
  1  2  1  0  0  0  0
 18 19  2  0  0  0  0
 18 20  1  0  0  0  0
 16 17  1  0  0  0  0
 14 15  2  0  0  0  0
 14 16  1  0  0  0  0
 11 12  1  0  0  0  0
 11 13  1  0  0  0  0
 11 14  1  0  0  0  0
  9 10  1  0  0  0  0
  9 11  1  0  0  0  0
  9 18  1  0  0  0  0
  7  8  1  0  0  0  0
  7  9  1  0  0  0  0
 22 23  1  0  0  0  0
 22 24  1  0  0  0  0
 22 25  1  0  0  0  0
 20 21  1  0  0  0  0
 20 22  1  0  0  0  0
M  END
$$$$
default_name
  -OEChem-01062215323D

 25 24  0     1  0  0  0  0  0999 V2000
   -2.7826   -3.8464    0.7821 H   0  0  0  0  0  0  0  0  0  0  0  0
   -2.8156   -2.8034    0.4711 C   0  0  0  0  0  0  0  0  0  0  0  0
   -3.4336   -2.2354    1.1641 H   0  0  0  0  0  0  0  0  0  0  0  0
   -3.2256   -2.7344   -0.5349 H   0  0  0  0  0  0  0  0  0  0  0  0
   -1.4126   -2.2444    0.4801 C   0  0  0  0  0  0  0  0  0  0  0  0
   -0.4686   -2.9534    0.8001 O   0  0  0  0  0  0  0  0  0  0  0  0
   -1.2736   -0.9704    0.1241 N   0  0  0  0  0  0  0  0  0  0  0  0
   -2.0996   -0.4354   -0.1019 H   0  0  0  0  0  0  0  0  0  0  0  0
   -0.0016   -0.2394    0.1271 C   0  0  1  0  0  0  0  0  0  0  0  0
    0.7164   -0.7963    0.7332 H   0  0  0  0  0  0  0  0  0  0  0  0
    0.5351   -0.1414   -1.3146 C   0  0  0  0  0  0  0  0  0  0  0  0
   -0.2524    0.2321   -1.9704 H   0  0  0  0  0  0  0  0  0  0  0  0
    1.3644    0.5658   -1.3504 H   0  0  0  0  0  0  0  0  0  0  0  0
    0.9925   -1.4809   -1.8843 C   0  0  0  0  0  0  0  0  0  0  0  0
    1.4332   -2.4190   -1.2332 O   0  0  0  0  0  0  0  0  0  0  0  0
    0.8907   -1.5896   -3.2222 O   0  0  0  0  0  0  0  0  0  0  0  0
    1.1886   -2.4741   -3.4370 H   0  0  0  0  0  0  0  0  0  0  0  0
   -0.1923    1.1526    0.7617 C   0  0  0  0  0  0  0  0  0  0  0  0
   -1.3260    1.6065    0.9110 O   0  0  0  0  0  0  0  0  0  0  0  0
    0.9018    1.8310    1.1254 N   0  0  0  0  0  0  0  0  0  0  0  0
    1.8022    1.4150    0.9104 H   0  0  0  0  0  0  0  0  0  0  0  0
    0.8846    3.1550    1.7437 C   0  0  0  0  0  0  0  0  0  0  0  0
    0.2173    3.1498    2.6083 H   0  0  0  0  0  0  0  0  0  0  0  0
    1.8892    3.4313    2.0664 H   0  0  0  0  0  0  0  0  0  0  0  0
    0.5202    3.8921    1.0261 H   0  0  0  0  0  0  0  0  0  0  0  0
  5  6  2  0  0  0  0
  5  7  1  0  0  0  0
  2  3  1  0  0  0  0
  2  4  1  0  0  0  0
  2  5  1  0  0  0  0
  1  2  1  0  0  0  0
 18 19  2  0  0  0  0
 18 20  1  0  0  0  0
 16 17  1  0  0  0  0
 14 15  2  0  0  0  0
 14 16  1  0  0  0  0
 11 12  1  0  0  0  0
 11 13  1  0  0  0  0
 11 14  1  0  0  0  0
  9 10  1  0  0  0  0
  9 11  1  0  0  0  0
  9 18  1  0  0  0  0
  7  8  1  0  0  0  0
  7  9  1  0  0  0  0
 22 23  1  0  0  0  0
 22 24  1  0  0  0  0
 22 25  1  0  0  0  0
 20 21  1  0  0  0  0
 20 22  1  0  0  0  0
M  END
$$$$
default_name
  -OEChem-01062215323D

 25 24  0     1  0  0  0  0  0999 V2000
   -2.7826   -3.8464    0.7821 H   0  0  0  0  0  0  0  0  0  0  0  0
   -2.8156   -2.8034    0.4711 C   0  0  0  0  0  0  0  0  0  0  0  0
   -3.4336   -2.2354    1.1641 H   0  0  0  0  0  0  0  0  0  0  0  0
   -3.2256   -2.7344   -0.5349 H   0  0  0  0  0  0  0  0  0  0  0  0
   -1.4126   -2.2444    0.4801 C   0  0  0  0  0  0  0  0  0  0  0  0
   -0.4686   -2.9534    0.8001 O   0  0  0  0  0  0  0  0  0  0  0  0
   -1.2736   -0.9704    0.1241 N   0  0  0  0  0  0  0  0  0  0  0  0
   -2.0996   -0.4354   -0.1019 H   0  0  0  0  0  0  0  0  0  0  0  0
   -0.0016   -0.2394    0.1271 C   0  0  1  0  0  0  0  0  0  0  0  0
    0.7806   -0.9071    0.4950 H   0  0  0  0  0  0  0  0  0  0  0  0
    0.3459    0.1877   -1.3127 C   0  0  0  0  0  0  0  0  0  0  0  0
   -0.5142    0.6868   -1.7608 H   0  0  0  0  0  0  0  0  0  0  0  0
    1.1737    0.8975   -1.2955 H   0  0  0  0  0  0  0  0  0  0  0  0
    0.7069   -0.9826   -2.2226 C   0  0  0  0  0  0  0  0  0  0  0  0
    1.2146   -2.0360   -1.8609 O   0  0  0  0  0  0  0  0  0  0  0  0
    0.4318   -0.7900   -3.5261 O   0  0  0  0  0  0  0  0  0  0  0  0
    0.6870   -1.5991   -3.9705 H   0  0  0  0  0  0  0  0  0  0  0  0
   -0.0891    0.9717    1.0771 C   0  0  0  0  0  0  0  0  0  0  0  0
   -1.1339    1.1968    1.6864 O   0  0  0  0  0  0  0  0  0  0  0  0
    0.9909    1.7516    1.1996 N   0  0  0  0  0  0  0  0  0  0  0  0
    1.7918    1.5354    0.6150 H   0  0  0  0  0  0  0  0  0  0  0  0
    1.0655    2.9285    2.0627 C   0  0  0  0  0  0  0  0  0  0  0  0
    0.7537    2.6637    3.0754 H   0  0  0  0  0  0  0  0  0  0  0  0
    2.0870    3.3101    2.0891 H   0  0  0  0  0  0  0  0  0  0  0  0
    0.3993    3.7058    1.6844 H   0  0  0  0  0  0  0  0  0  0  0  0
  5  6  2  0  0  0  0
  5  7  1  0  0  0  0
  2  3  1  0  0  0  0
  2  4  1  0  0  0  0
  2  5  1  0  0  0  0
  1  2  1  0  0  0  0
 18 19  2  0  0  0  0
 18 20  1  0  0  0  0
 16 17  1  0  0  0  0
 14 15  2  0  0  0  0
 14 16  1  0  0  0  0
 11 12  1  0  0  0  0
 11 13  1  0  0  0  0
 11 14  1  0  0  0  0
  9 10  1  0  0  0  0
  9 11  1  0  0  0  0
  9 18  1  0  0  0  0
  7  8  1  0  0  0  0
  7  9  1  0  0  0  0
 22 23  1  0  0  0  0
 22 24  1  0  0  0  0
 22 25  1  0  0  0  0
 20 21  1  0  0  0  0
 20 22  1  0  0  0  0
M  END
$$$$
default_name
  -OEChem-01062215323D

 25 24  0     1  0  0  0  0  0999 V2000
   -2.7826   -3.8464    0.7821 H   0  0  0  0  0  0  0  0  0  0  0  0
   -2.8156   -2.8034    0.4711 C   0  0  0  0  0  0  0  0  0  0  0  0
   -3.4336   -2.2354    1.1641 H   0  0  0  0  0  0  0  0  0  0  0  0
   -3.2256   -2.7344   -0.5349 H   0  0  0  0  0  0  0  0  0  0  0  0
   -1.4126   -2.2444    0.4801 C   0  0  0  0  0  0  0  0  0  0  0  0
   -0.4686   -2.9534    0.8001 O   0  0  0  0  0  0  0  0  0  0  0  0
   -1.2736   -0.9704    0.1241 N   0  0  0  0  0  0  0  0  0  0  0  0
   -2.0996   -0.4354   -0.1019 H   0  0  0  0  0  0  0  0  0  0  0  0
   -0.0016   -0.2394    0.1271 C   0  0  1  0  0  0  0  0  0  0  0  0
    0.7806   -0.9071    0.4950 H   0  0  0  0  0  0  0  0  0  0  0  0
    0.3459    0.1877   -1.3127 C   0  0  0  0  0  0  0  0  0  0  0  0
   -0.5142    0.6868   -1.7608 H   0  0  0  0  0  0  0  0  0  0  0  0
    1.1737    0.8975   -1.2955 H   0  0  0  0  0  0  0  0  0  0  0  0
    0.7069   -0.9826   -2.2226 C   0  0  0  0  0  0  0  0  0  0  0  0
    1.2146   -2.0360   -1.8609 O   0  0  0  0  0  0  0  0  0  0  0  0
    0.4318   -0.7900   -3.5261 O   0  0  0  0  0  0  0  0  0  0  0  0
    0.6870   -1.5991   -3.9705 H   0  0  0  0  0  0  0  0  0  0  0  0
   -0.0891    0.9717    1.0771 C   0  0  0  0  0  0  0  0  0  0  0  0
   -1.0115    1.0478    1.8876 O   0  0  0  0  0  0  0  0  0  0  0  0
    0.8534    1.9158    0.9776 N   0  0  0  0  0  0  0  0  0  0  0  0
    1.5438    1.8107    0.2412 H   0  0  0  0  0  0  0  0  0  0  0  0
    0.9105    3.1160    1.8093 C   0  0  0  0  0  0  0  0  0  0  0  0
    0.8565    2.8371    2.8638 H   0  0  0  0  0  0  0  0  0  0  0  0
    1.8412    3.6548    1.6269 H   0  0  0  0  0  0  0  0  0  0  0  0
    0.0652    3.7661    1.5767 H   0  0  0  0  0  0  0  0  0  0  0  0
  5  6  2  0  0  0  0
  5  7  1  0  0  0  0
  2  3  1  0  0  0  0
  2  4  1  0  0  0  0
  2  5  1  0  0  0  0
  1  2  1  0  0  0  0
 18 19  2  0  0  0  0
 18 20  1  0  0  0  0
 16 17  1  0  0  0  0
 14 15  2  0  0  0  0
 14 16  1  0  0  0  0
 11 12  1  0  0  0  0
 11 13  1  0  0  0  0
 11 14  1  0  0  0  0
  9 10  1  0  0  0  0
  9 11  1  0  0  0  0
  9 18  1  0  0  0  0
  7  8  1  0  0  0  0
  7  9  1  0  0  0  0
 22 23  1  0  0  0  0
 22 24  1  0  0  0  0
 22 25  1  0  0  0  0
 20 21  1  0  0  0  0
 20 22  1  0  0  0  0
M  END
$$$$
default_name
  -OEChem-01062215323D

 25 24  0     1  0  0  0  0  0999 V2000
   -2.7826   -3.8464    0.7821 H   0  0  0  0  0  0  0  0  0  0  0  0
   -2.8156   -2.8034    0.4711 C   0  0  0  0  0  0  0  0  0  0  0  0
   -3.4336   -2.2354    1.1641 H   0  0  0  0  0  0  0  0  0  0  0  0
   -3.2256   -2.7344   -0.5349 H   0  0  0  0  0  0  0  0  0  0  0  0
   -1.4126   -2.2444    0.4801 C   0  0  0  0  0  0  0  0  0  0  0  0
   -0.4686   -2.9534    0.8001 O   0  0  0  0  0  0  0  0  0  0  0  0
   -1.2736   -0.9704    0.1241 N   0  0  0  0  0  0  0  0  0  0  0  0
   -2.0996   -0.4354   -0.1019 H   0  0  0  0  0  0  0  0  0  0  0  0
   -0.0016   -0.2394    0.1271 C   0  0  1  0  0  0  0  0  0  0  0  0
    0.7806   -0.9071    0.4950 H   0  0  0  0  0  0  0  0  0  0  0  0
    0.3459    0.1877   -1.3127 C   0  0  0  0  0  0  0  0  0  0  0  0
   -0.5142    0.6868   -1.7608 H   0  0  0  0  0  0  0  0  0  0  0  0
    1.1737    0.8975   -1.2955 H   0  0  0  0  0  0  0  0  0  0  0  0
    0.7069   -0.9826   -2.2226 C   0  0  0  0  0  0  0  0  0  0  0  0
    1.2146   -2.0360   -1.8609 O   0  0  0  0  0  0  0  0  0  0  0  0
    0.4318   -0.7900   -3.5261 O   0  0  0  0  0  0  0  0  0  0  0  0
    0.6870   -1.5991   -3.9705 H   0  0  0  0  0  0  0  0  0  0  0  0
   -0.0891    0.9717    1.0771 C   0  0  0  0  0  0  0  0  0  0  0  0
   -0.8286    0.9263    2.0592 O   0  0  0  0  0  0  0  0  0  0  0  0
    0.6493    2.0493    0.7887 N   0  0  0  0  0  0  0  0  0  0  0  0
    1.1843    2.0317   -0.0735 H   0  0  0  0  0  0  0  0  0  0  0  0
    0.6793    3.2688    1.5933 C   0  0  0  0  0  0  0  0  0  0  0  0
    0.8852    3.0178    2.6361 H   0  0  0  0  0  0  0  0  0  0  0  0
    1.4547    3.9419    1.2255 H   0  0  0  0  0  0  0  0  0  0  0  0
   -0.2889    3.7696    1.5396 H   0  0  0  0  0  0  0  0  0  0  0  0
  5  6  2  0  0  0  0
  5  7  1  0  0  0  0
  2  3  1  0  0  0  0
  2  4  1  0  0  0  0
  2  5  1  0  0  0  0
  1  2  1  0  0  0  0
 18 19  2  0  0  0  0
 18 20  1  0  0  0  0
 16 17  1  0  0  0  0
 14 15  2  0  0  0  0
 14 16  1  0  0  0  0
 11 12  1  0  0  0  0
 11 13  1  0  0  0  0
 11 14  1  0  0  0  0
  9 10  1  0  0  0  0
  9 11  1  0  0  0  0
  9 18  1  0  0  0  0
  7  8  1  0  0  0  0
  7  9  1  0  0  0  0
 22 23  1  0  0  0  0
 22 24  1  0  0  0  0
 22 25  1  0  0  0  0
 20 21  1  0  0  0  0
 20 22  1  0  0  0  0
M  END
$$$$
default_name
  -OEChem-01062215323D

 25 24  0     1  0  0  0  0  0999 V2000
   -2.7826   -3.8464    0.7821 H   0  0  0  0  0  0  0  0  0  0  0  0
   -2.8156   -2.8034    0.4711 C   0  0  0  0  0  0  0  0  0  0  0  0
   -3.4336   -2.2354    1.1641 H   0  0  0  0  0  0  0  0  0  0  0  0
   -3.2256   -2.7344   -0.5349 H   0  0  0  0  0  0  0  0  0  0  0  0
   -1.4126   -2.2444    0.4801 C   0  0  0  0  0  0  0  0  0  0  0  0
   -0.4686   -2.9534    0.8001 O   0  0  0  0  0  0  0  0  0  0  0  0
   -1.2736   -0.9704    0.1241 N   0  0  0  0  0  0  0  0  0  0  0  0
   -2.0996   -0.4354   -0.1019 H   0  0  0  0  0  0  0  0  0  0  0  0
   -0.0016   -0.2394    0.1271 C   0  0  1  0  0  0  0  0  0  0  0  0
    0.7806   -0.9071    0.4950 H   0  0  0  0  0  0  0  0  0  0  0  0
    0.3459    0.1877   -1.3127 C   0  0  0  0  0  0  0  0  0  0  0  0
   -0.5142    0.6868   -1.7608 H   0  0  0  0  0  0  0  0  0  0  0  0
    1.1737    0.8975   -1.2955 H   0  0  0  0  0  0  0  0  0  0  0  0
    0.7069   -0.9826   -2.2226 C   0  0  0  0  0  0  0  0  0  0  0  0
    1.2146   -2.0360   -1.8609 O   0  0  0  0  0  0  0  0  0  0  0  0
    0.4318   -0.7900   -3.5261 O   0  0  0  0  0  0  0  0  0  0  0  0
    0.6870   -1.5991   -3.9705 H   0  0  0  0  0  0  0  0  0  0  0  0
   -0.0891    0.9717    1.0771 C   0  0  0  0  0  0  0  0  0  0  0  0
   -0.5977    0.8407    2.1896 O   0  0  0  0  0  0  0  0  0  0  0  0
    0.3924    2.1429    0.6457 N   0  0  0  0  0  0  0  0  0  0  0  0
    0.7378    2.1831   -0.3077 H   0  0  0  0  0  0  0  0  0  0  0  0
    0.3877    3.3763    1.4294 C   0  0  0  0  0  0  0  0  0  0  0  0
    0.8378    3.1936    2.4076 H   0  0  0  0  0  0  0  0  0  0  0  0
    0.9541    4.1516    0.9120 H   0  0  0  0  0  0  0  0  0  0  0  0
   -0.6391    3.7160    1.5758 H   0  0  0  0  0  0  0  0  0  0  0  0
  5  6  2  0  0  0  0
  5  7  1  0  0  0  0
  2  3  1  0  0  0  0
  2  4  1  0  0  0  0
  2  5  1  0  0  0  0
  1  2  1  0  0  0  0
 18 19  2  0  0  0  0
 18 20  1  0  0  0  0
 16 17  1  0  0  0  0
 14 15  2  0  0  0  0
 14 16  1  0  0  0  0
 11 12  1  0  0  0  0
 11 13  1  0  0  0  0
 11 14  1  0  0  0  0
  9 10  1  0  0  0  0
  9 11  1  0  0  0  0
  9 18  1  0  0  0  0
  7  8  1  0  0  0  0
  7  9  1  0  0  0  0
 22 23  1  0  0  0  0
 22 24  1  0  0  0  0
 22 25  1  0  0  0  0
 20 21  1  0  0  0  0
 20 22  1  0  0  0  0
M  END
$$$$
default_name
  -OEChem-01062215323D

 25 24  0     1  0  0  0  0  0999 V2000
   -2.7826   -3.8464    0.7821 H   0  0  0  0  0  0  0  0  0  0  0  0
   -2.8156   -2.8034    0.4711 C   0  0  0  0  0  0  0  0  0  0  0  0
   -3.4336   -2.2354    1.1641 H   0  0  0  0  0  0  0  0  0  0  0  0
   -3.2256   -2.7344   -0.5349 H   0  0  0  0  0  0  0  0  0  0  0  0
   -1.4126   -2.2444    0.4801 C   0  0  0  0  0  0  0  0  0  0  0  0
   -0.4686   -2.9534    0.8001 O   0  0  0  0  0  0  0  0  0  0  0  0
   -1.2736   -0.9704    0.1241 N   0  0  0  0  0  0  0  0  0  0  0  0
   -2.0996   -0.4354   -0.1019 H   0  0  0  0  0  0  0  0  0  0  0  0
   -0.0016   -0.2394    0.1271 C   0  0  1  0  0  0  0  0  0  0  0  0
    0.7806   -0.9071    0.4950 H   0  0  0  0  0  0  0  0  0  0  0  0
    0.3459    0.1877   -1.3127 C   0  0  0  0  0  0  0  0  0  0  0  0
   -0.5142    0.6868   -1.7608 H   0  0  0  0  0  0  0  0  0  0  0  0
    1.1737    0.8975   -1.2955 H   0  0  0  0  0  0  0  0  0  0  0  0
    0.7069   -0.9826   -2.2226 C   0  0  0  0  0  0  0  0  0  0  0  0
    1.2146   -2.0360   -1.8609 O   0  0  0  0  0  0  0  0  0  0  0  0
    0.4318   -0.7900   -3.5261 O   0  0  0  0  0  0  0  0  0  0  0  0
    0.6870   -1.5991   -3.9705 H   0  0  0  0  0  0  0  0  0  0  0  0
   -0.0891    0.9717    1.0771 C   0  0  0  0  0  0  0  0  0  0  0  0
   -0.3344    0.7968    2.2699 O   0  0  0  0  0  0  0  0  0  0  0  0
    0.1003    2.1902    0.5585 N   0  0  0  0  0  0  0  0  0  0  0  0
    0.2348    2.2547   -0.4453 H   0  0  0  0  0  0  0  0  0  0  0  0
    0.0556    3.4312    1.3289 C   0  0  0  0  0  0  0  0  0  0  0  0
    0.7176    3.3525    2.1940 H   0  0  0  0  0  0  0  0  0  0  0  0
    0.3733    4.2697    0.7079 H   0  0  0  0  0  0  0  0  0  0  0  0
   -0.9615    3.6088    1.6828 H   0  0  0  0  0  0  0  0  0  0  0  0
  5  6  2  0  0  0  0
  5  7  1  0  0  0  0
  2  3  1  0  0  0  0
  2  4  1  0  0  0  0
  2  5  1  0  0  0  0
  1  2  1  0  0  0  0
 18 19  2  0  0  0  0
 18 20  1  0  0  0  0
 16 17  1  0  0  0  0
 14 15  2  0  0  0  0
 14 16  1  0  0  0  0
 11 12  1  0  0  0  0
 11 13  1  0  0  0  0
 11 14  1  0  0  0  0
  9 10  1  0  0  0  0
  9 11  1  0  0  0  0
  9 18  1  0  0  0  0
  7  8  1  0  0  0  0
  7  9  1  0  0  0  0
 22 23  1  0  0  0  0
 22 24  1  0  0  0  0
 22 25  1  0  0  0  0
 20 21  1  0  0  0  0
 20 22  1  0  0  0  0
M  END
$$$$
default_name
  -OEChem-01062215323D

 25 24  0     1  0  0  0  0  0999 V2000
   -2.7826   -3.8464    0.7821 H   0  0  0  0  0  0  0  0  0  0  0  0
   -2.8156   -2.8034    0.4711 C   0  0  0  0  0  0  0  0  0  0  0  0
   -3.4336   -2.2354    1.1641 H   0  0  0  0  0  0  0  0  0  0  0  0
   -3.2256   -2.7344   -0.5349 H   0  0  0  0  0  0  0  0  0  0  0  0
   -1.4126   -2.2444    0.4801 C   0  0  0  0  0  0  0  0  0  0  0  0
   -0.4686   -2.9534    0.8001 O   0  0  0  0  0  0  0  0  0  0  0  0
   -1.2736   -0.9704    0.1241 N   0  0  0  0  0  0  0  0  0  0  0  0
   -2.0996   -0.4354   -0.1019 H   0  0  0  0  0  0  0  0  0  0  0  0
   -0.0016   -0.2394    0.1271 C   0  0  1  0  0  0  0  0  0  0  0  0
    0.7806   -0.9071    0.4950 H   0  0  0  0  0  0  0  0  0  0  0  0
    0.3459    0.1877   -1.3127 C   0  0  0  0  0  0  0  0  0  0  0  0
   -0.5142    0.6868   -1.7608 H   0  0  0  0  0  0  0  0  0  0  0  0
    1.1737    0.8975   -1.2955 H   0  0  0  0  0  0  0  0  0  0  0  0
    0.7069   -0.9826   -2.2226 C   0  0  0  0  0  0  0  0  0  0  0  0
    1.2146   -2.0360   -1.8609 O   0  0  0  0  0  0  0  0  0  0  0  0
    0.4318   -0.7900   -3.5261 O   0  0  0  0  0  0  0  0  0  0  0  0
    0.6870   -1.5991   -3.9705 H   0  0  0  0  0  0  0  0  0  0  0  0
   -0.0891    0.9717    1.0771 C   0  0  0  0  0  0  0  0  0  0  0  0
   -0.0568    0.7975    2.2945 O   0  0  0  0  0  0  0  0  0  0  0  0
   -0.2071    2.1881    0.5329 N   0  0  0  0  0  0  0  0  0  0  0  0
   -0.2905    2.2417   -0.4770 H   0  0  0  0  0  0  0  0  0  0  0  0
   -0.2944    3.4298    1.2984 C   0  0  0  0  0  0  0  0  0  0  0  0
    0.5326    3.4837    2.0097 H   0  0  0  0  0  0  0  0  0  0  0  0
   -0.2480    4.2883    0.6272 H   0  0  0  0  0  0  0  0  0  0  0  0
   -1.2340    3.4555    1.8532 H   0  0  0  0  0  0  0  0  0  0  0  0
  5  6  2  0  0  0  0
  5  7  1  0  0  0  0
  2  3  1  0  0  0  0
  2  4  1  0  0  0  0
  2  5  1  0  0  0  0
  1  2  1  0  0  0  0
 18 19  2  0  0  0  0
 18 20  1  0  0  0  0
 16 17  1  0  0  0  0
 14 15  2  0  0  0  0
 14 16  1  0  0  0  0
 11 12  1  0  0  0  0
 11 13  1  0  0  0  0
 11 14  1  0  0  0  0
  9 10  1  0  0  0  0
  9 11  1  0  0  0  0
  9 18  1  0  0  0  0
  7  8  1  0  0  0  0
  7  9  1  0  0  0  0
 22 23  1  0  0  0  0
 22 24  1  0  0  0  0
 22 25  1  0  0  0  0
 20 21  1  0  0  0  0
 20 22  1  0  0  0  0
M  END
$$$$
default_name
  -OEChem-01062215323D

 25 24  0     1  0  0  0  0  0999 V2000
   -2.7826   -3.8464    0.7821 H   0  0  0  0  0  0  0  0  0  0  0  0
   -2.8156   -2.8034    0.4711 C   0  0  0  0  0  0  0  0  0  0  0  0
   -3.4336   -2.2354    1.1641 H   0  0  0  0  0  0  0  0  0  0  0  0
   -3.2256   -2.7344   -0.5349 H   0  0  0  0  0  0  0  0  0  0  0  0
   -1.4126   -2.2444    0.4801 C   0  0  0  0  0  0  0  0  0  0  0  0
   -0.4686   -2.9534    0.8001 O   0  0  0  0  0  0  0  0  0  0  0  0
   -1.2736   -0.9704    0.1241 N   0  0  0  0  0  0  0  0  0  0  0  0
   -2.0996   -0.4354   -0.1019 H   0  0  0  0  0  0  0  0  0  0  0  0
   -0.0016   -0.2394    0.1271 C   0  0  1  0  0  0  0  0  0  0  0  0
    0.7806   -0.9071    0.4950 H   0  0  0  0  0  0  0  0  0  0  0  0
    0.3459    0.1877   -1.3127 C   0  0  0  0  0  0  0  0  0  0  0  0
   -0.5142    0.6868   -1.7608 H   0  0  0  0  0  0  0  0  0  0  0  0
    1.1737    0.8975   -1.2955 H   0  0  0  0  0  0  0  0  0  0  0  0
    0.7069   -0.9826   -2.2226 C   0  0  0  0  0  0  0  0  0  0  0  0
    1.2146   -2.0360   -1.8609 O   0  0  0  0  0  0  0  0  0  0  0  0
    0.4318   -0.7900   -3.5261 O   0  0  0  0  0  0  0  0  0  0  0  0
    0.6870   -1.5991   -3.9705 H   0  0  0  0  0  0  0  0  0  0  0  0
   -0.0891    0.9717    1.0771 C   0  0  0  0  0  0  0  0  0  0  0  0
    0.2162    0.8428    2.2619 O   0  0  0  0  0  0  0  0  0  0  0  0
   -0.5089    2.1366    0.5708 N   0  0  0  0  0  0  0  0  0  0  0  0
   -0.8023    2.1449   -0.4007 H   0  0  0  0  0  0  0  0  0  0  0  0
   -0.6385    3.3722    1.3402 C   0  0  0  0  0  0  0  0  0  0  0  0
    0.2956    3.5781    1.8675 H   0  0  0  0  0  0  0  0  0  0  0  0
   -0.8675    4.2059    0.6752 H   0  0  0  0  0  0  0  0  0  0  0  0
   -1.4381    3.2664    2.0754 H   0  0  0  0  0  0  0  0  0  0  0  0
  5  6  2  0  0  0  0
  5  7  1  0  0  0  0
  2  3  1  0  0  0  0
  2  4  1  0  0  0  0
  2  5  1  0  0  0  0
  1  2  1  0  0  0  0
 18 19  2  0  0  0  0
 18 20  1  0  0  0  0
 16 17  1  0  0  0  0
 14 15  2  0  0  0  0
 14 16  1  0  0  0  0
 11 12  1  0  0  0  0
 11 13  1  0  0  0  0
 11 14  1  0  0  0  0
  9 10  1  0  0  0  0
  9 11  1  0  0  0  0
  9 18  1  0  0  0  0
  7  8  1  0  0  0  0
  7  9  1  0  0  0  0
 22 23  1  0  0  0  0
 22 24  1  0  0  0  0
 22 25  1  0  0  0  0
 20 21  1  0  0  0  0
 20 22  1  0  0  0  0
M  END
$$$$
default_name
  -OEChem-01062215323D

 25 24  0     1  0  0  0  0  0999 V2000
   -2.7826   -3.8464    0.7821 H   0  0  0  0  0  0  0  0  0  0  0  0
   -2.8156   -2.8034    0.4711 C   0  0  0  0  0  0  0  0  0  0  0  0
   -3.4336   -2.2354    1.1641 H   0  0  0  0  0  0  0  0  0  0  0  0
   -3.2256   -2.7344   -0.5349 H   0  0  0  0  0  0  0  0  0  0  0  0
   -1.4126   -2.2444    0.4801 C   0  0  0  0  0  0  0  0  0  0  0  0
   -0.4686   -2.9534    0.8001 O   0  0  0  0  0  0  0  0  0  0  0  0
   -1.2736   -0.9704    0.1241 N   0  0  0  0  0  0  0  0  0  0  0  0
   -2.0996   -0.4354   -0.1019 H   0  0  0  0  0  0  0  0  0  0  0  0
   -0.0016   -0.2394    0.1271 C   0  0  1  0  0  0  0  0  0  0  0  0
    0.7806   -0.9071    0.4950 H   0  0  0  0  0  0  0  0  0  0  0  0
    0.3459    0.1877   -1.3127 C   0  0  0  0  0  0  0  0  0  0  0  0
   -0.5142    0.6868   -1.7608 H   0  0  0  0  0  0  0  0  0  0  0  0
    1.1737    0.8975   -1.2955 H   0  0  0  0  0  0  0  0  0  0  0  0
    0.7069   -0.9826   -2.2226 C   0  0  0  0  0  0  0  0  0  0  0  0
    1.2146   -2.0360   -1.8609 O   0  0  0  0  0  0  0  0  0  0  0  0
    0.4318   -0.7900   -3.5261 O   0  0  0  0  0  0  0  0  0  0  0  0
    0.6870   -1.5991   -3.9705 H   0  0  0  0  0  0  0  0  0  0  0  0
   -0.0891    0.9717    1.0771 C   0  0  0  0  0  0  0  0  0  0  0  0
    0.4661    0.9296    2.1742 O   0  0  0  0  0  0  0  0  0  0  0  0
   -0.7845    2.0393    0.6695 N   0  0  0  0  0  0  0  0  0  0  0  0
   -1.2656    1.9708   -0.2214 H   0  0  0  0  0  0  0  0  0  0  0  0
   -0.9531    3.2623    1.4514 C   0  0  0  0  0  0  0  0  0  0  0  0
    0.0226    3.6295    1.7768 H   0  0  0  0  0  0  0  0  0  0  0  0
   -1.4430    4.0282    0.8488 H   0  0  0  0  0  0  0  0  0  0  0  0
   -1.5600    3.0545    2.3344 H   0  0  0  0  0  0  0  0  0  0  0  0
  5  6  2  0  0  0  0
  5  7  1  0  0  0  0
  2  3  1  0  0  0  0
  2  4  1  0  0  0  0
  2  5  1  0  0  0  0
  1  2  1  0  0  0  0
 18 19  2  0  0  0  0
 18 20  1  0  0  0  0
 16 17  1  0  0  0  0
 14 15  2  0  0  0  0
 14 16  1  0  0  0  0
 11 12  1  0  0  0  0
 11 13  1  0  0  0  0
 11 14  1  0  0  0  0
  9 10  1  0  0  0  0
  9 11  1  0  0  0  0
  9 18  1  0  0  0  0
  7  8  1  0  0  0  0
  7  9  1  0  0  0  0
 22 23  1  0  0  0  0
 22 24  1  0  0  0  0
 22 25  1  0  0  0  0
 20 21  1  0  0  0  0
 20 22  1  0  0  0  0
M  END
$$$$
default_name
  -OEChem-01062215323D

 25 24  0     1  0  0  0  0  0999 V2000
   -2.7826   -3.8464    0.7821 H   0  0  0  0  0  0  0  0  0  0  0  0
   -2.8156   -2.8034    0.4711 C   0  0  0  0  0  0  0  0  0  0  0  0
   -3.4336   -2.2354    1.1641 H   0  0  0  0  0  0  0  0  0  0  0  0
   -3.2256   -2.7344   -0.5349 H   0  0  0  0  0  0  0  0  0  0  0  0
   -1.4126   -2.2444    0.4801 C   0  0  0  0  0  0  0  0  0  0  0  0
   -0.4686   -2.9534    0.8001 O   0  0  0  0  0  0  0  0  0  0  0  0
   -1.2736   -0.9704    0.1241 N   0  0  0  0  0  0  0  0  0  0  0  0
   -2.0996   -0.4354   -0.1019 H   0  0  0  0  0  0  0  0  0  0  0  0
   -0.0016   -0.2394    0.1271 C   0  0  1  0  0  0  0  0  0  0  0  0
    0.7806   -0.9071    0.4950 H   0  0  0  0  0  0  0  0  0  0  0  0
    0.3459    0.1877   -1.3127 C   0  0  0  0  0  0  0  0  0  0  0  0
   -0.5142    0.6868   -1.7608 H   0  0  0  0  0  0  0  0  0  0  0  0
    1.1737    0.8975   -1.2955 H   0  0  0  0  0  0  0  0  0  0  0  0
    0.7069   -0.9826   -2.2226 C   0  0  0  0  0  0  0  0  0  0  0  0
    1.2146   -2.0360   -1.8609 O   0  0  0  0  0  0  0  0  0  0  0  0
    0.4318   -0.7900   -3.5261 O   0  0  0  0  0  0  0  0  0  0  0  0
    0.6870   -1.5991   -3.9705 H   0  0  0  0  0  0  0  0  0  0  0  0
   -0.0891    0.9717    1.0771 C   0  0  0  0  0  0  0  0  0  0  0  0
    0.6757    1.0520    2.0374 O   0  0  0  0  0  0  0  0  0  0  0  0
   -1.0152    1.9028    0.8223 N   0  0  0  0  0  0  0  0  0  0  0  0
   -1.6490    1.7315    0.0485 H   0  0  0  0  0  0  0  0  0  0  0  0
   -1.2169    3.1075    1.6244 C   0  0  0  0  0  0  0  0  0  0  0  0
   -0.2677    3.6343    1.7441 H   0  0  0  0  0  0  0  0  0  0  0  0
   -1.9352    3.7673    1.1361 H   0  0  0  0  0  0  0  0  0  0  0  0
   -1.5912    2.8341    2.6124 H   0  0  0  0  0  0  0  0  0  0  0  0
  5  6  2  0  0  0  0
  5  7  1  0  0  0  0
  2  3  1  0  0  0  0
  2  4  1  0  0  0  0
  2  5  1  0  0  0  0
  1  2  1  0  0  0  0
 18 19  2  0  0  0  0
 18 20  1  0  0  0  0
 16 17  1  0  0  0  0
 14 15  2  0  0  0  0
 14 16  1  0  0  0  0
 11 12  1  0  0  0  0
 11 13  1  0  0  0  0
 11 14  1  0  0  0  0
  9 10  1  0  0  0  0
  9 11  1  0  0  0  0
  9 18  1  0  0  0  0
  7  8  1  0  0  0  0
  7  9  1  0  0  0  0
 22 23  1  0  0  0  0
 22 24  1  0  0  0  0
 22 25  1  0  0  0  0
 20 21  1  0  0  0  0
 20 22  1  0  0  0  0
M  END
$$$$
default_name
  -OEChem-01062215323D

 25 24  0     1  0  0  0  0  0999 V2000
   -2.7826   -3.8464    0.7821 H   0  0  0  0  0  0  0  0  0  0  0  0
   -2.8156   -2.8034    0.4711 C   0  0  0  0  0  0  0  0  0  0  0  0
   -3.4336   -2.2354    1.1641 H   0  0  0  0  0  0  0  0  0  0  0  0
   -3.2256   -2.7344   -0.5349 H   0  0  0  0  0  0  0  0  0  0  0  0
   -1.4126   -2.2444    0.4801 C   0  0  0  0  0  0  0  0  0  0  0  0
   -0.4686   -2.9534    0.8001 O   0  0  0  0  0  0  0  0  0  0  0  0
   -1.2736   -0.9704    0.1241 N   0  0  0  0  0  0  0  0  0  0  0  0
   -2.0996   -0.4354   -0.1019 H   0  0  0  0  0  0  0  0  0  0  0  0
   -0.0016   -0.2394    0.1271 C   0  0  1  0  0  0  0  0  0  0  0  0
    0.7806   -0.9071    0.4950 H   0  0  0  0  0  0  0  0  0  0  0  0
    0.3459    0.1877   -1.3127 C   0  0  0  0  0  0  0  0  0  0  0  0
   -0.5142    0.6868   -1.7608 H   0  0  0  0  0  0  0  0  0  0  0  0
    1.1737    0.8975   -1.2955 H   0  0  0  0  0  0  0  0  0  0  0  0
    0.7069   -0.9826   -2.2226 C   0  0  0  0  0  0  0  0  0  0  0  0
    1.2146   -2.0360   -1.8609 O   0  0  0  0  0  0  0  0  0  0  0  0
    0.4318   -0.7900   -3.5261 O   0  0  0  0  0  0  0  0  0  0  0  0
    0.6870   -1.5991   -3.9705 H   0  0  0  0  0  0  0  0  0  0  0  0
   -0.0891    0.9717    1.0771 C   0  0  0  0  0  0  0  0  0  0  0  0
    0.8309    1.2017    1.8609 O   0  0  0  0  0  0  0  0  0  0  0  0
   -1.1852    1.7364    1.0188 N   0  0  0  0  0  0  0  0  0  0  0  0
   -1.9263    1.4431    0.3906 H   0  0  0  0  0  0  0  0  0  0  0  0
   -1.4119    2.9186    1.8473 C   0  0  0  0  0  0  0  0  0  0  0  0
   -0.5555    3.5921    1.7713 H   0  0  0  0  0  0  0  0  0  0  0  0
   -2.3107    3.4410    1.5175 H   0  0  0  0  0  0  0  0  0  0  0  0
   -1.5297    2.6204    2.8906 H   0  0  0  0  0  0  0  0  0  0  0  0
  5  6  2  0  0  0  0
  5  7  1  0  0  0  0
  2  3  1  0  0  0  0
  2  4  1  0  0  0  0
  2  5  1  0  0  0  0
  1  2  1  0  0  0  0
 18 19  2  0  0  0  0
 18 20  1  0  0  0  0
 16 17  1  0  0  0  0
 14 15  2  0  0  0  0
 14 16  1  0  0  0  0
 11 12  1  0  0  0  0
 11 13  1  0  0  0  0
 11 14  1  0  0  0  0
  9 10  1  0  0  0  0
  9 11  1  0  0  0  0
  9 18  1  0  0  0  0
  7  8  1  0  0  0  0
  7  9  1  0  0  0  0
 22 23  1  0  0  0  0
 22 24  1  0  0  0  0
 22 25  1  0  0  0  0
 20 21  1  0  0  0  0
 20 22  1  0  0  0  0
M  END
$$$$
default_name
  -OEChem-01062215323D

 25 24  0     1  0  0  0  0  0999 V2000
   -2.7826   -3.8464    0.7821 H   0  0  0  0  0  0  0  0  0  0  0  0
   -2.8156   -2.8034    0.4711 C   0  0  0  0  0  0  0  0  0  0  0  0
   -3.4336   -2.2354    1.1641 H   0  0  0  0  0  0  0  0  0  0  0  0
   -3.2256   -2.7344   -0.5349 H   0  0  0  0  0  0  0  0  0  0  0  0
   -1.4126   -2.2444    0.4801 C   0  0  0  0  0  0  0  0  0  0  0  0
   -0.4686   -2.9534    0.8001 O   0  0  0  0  0  0  0  0  0  0  0  0
   -1.2736   -0.9704    0.1241 N   0  0  0  0  0  0  0  0  0  0  0  0
   -2.0996   -0.4354   -0.1019 H   0  0  0  0  0  0  0  0  0  0  0  0
   -0.0016   -0.2394    0.1271 C   0  0  1  0  0  0  0  0  0  0  0  0
    0.7806   -0.9071    0.4950 H   0  0  0  0  0  0  0  0  0  0  0  0
    0.3459    0.1877   -1.3127 C   0  0  0  0  0  0  0  0  0  0  0  0
   -0.5142    0.6868   -1.7608 H   0  0  0  0  0  0  0  0  0  0  0  0
    1.1737    0.8975   -1.2955 H   0  0  0  0  0  0  0  0  0  0  0  0
    0.7069   -0.9826   -2.2226 C   0  0  0  0  0  0  0  0  0  0  0  0
    1.2146   -2.0360   -1.8609 O   0  0  0  0  0  0  0  0  0  0  0  0
    0.4318   -0.7900   -3.5261 O   0  0  0  0  0  0  0  0  0  0  0  0
    0.6870   -1.5991   -3.9705 H   0  0  0  0  0  0  0  0  0  0  0  0
   -0.0891    0.9717    1.0771 C   0  0  0  0  0  0  0  0  0  0  0  0
    0.9211    1.3685    1.6566 O   0  0  0  0  0  0  0  0  0  0  0  0
   -1.2828    1.5514    1.2455 N   0  0  0  0  0  0  0  0  0  0  0  0
   -2.0785    1.1253    0.7817 H   0  0  0  0  0  0  0  0  0  0  0  0
   -1.5247    2.7082    2.1051 C   0  0  0  0  0  0  0  0  0  0  0  0
   -0.8212    3.5059    1.8568 H   0  0  0  0  0  0  0  0  0  0  0  0
   -2.5438    3.0716    1.9670 H   0  0  0  0  0  0  0  0  0  0  0  0
   -1.3797    2.4278    3.1499 H   0  0  0  0  0  0  0  0  0  0  0  0
  5  6  2  0  0  0  0
  5  7  1  0  0  0  0
  2  3  1  0  0  0  0
  2  4  1  0  0  0  0
  2  5  1  0  0  0  0
  1  2  1  0  0  0  0
 18 19  2  0  0  0  0
 18 20  1  0  0  0  0
 16 17  1  0  0  0  0
 14 15  2  0  0  0  0
 14 16  1  0  0  0  0
 11 12  1  0  0  0  0
 11 13  1  0  0  0  0
 11 14  1  0  0  0  0
  9 10  1  0  0  0  0
  9 11  1  0  0  0  0
  9 18  1  0  0  0  0
  7  8  1  0  0  0  0
  7  9  1  0  0  0  0
 22 23  1  0  0  0  0
 22 24  1  0  0  0  0
 22 25  1  0  0  0  0
 20 21  1  0  0  0  0
 20 22  1  0  0  0  0
M  END
$$$$
default_name
  -OEChem-01062215323D

 25 24  0     1  0  0  0  0  0999 V2000
   -2.7826   -3.8464    0.7821 H   0  0  0  0  0  0  0  0  0  0  0  0
   -2.8156   -2.8034    0.4711 C   0  0  0  0  0  0  0  0  0  0  0  0
   -3.4336   -2.2354    1.1641 H   0  0  0  0  0  0  0  0  0  0  0  0
   -3.2256   -2.7344   -0.5349 H   0  0  0  0  0  0  0  0  0  0  0  0
   -1.4126   -2.2444    0.4801 C   0  0  0  0  0  0  0  0  0  0  0  0
   -0.4686   -2.9534    0.8001 O   0  0  0  0  0  0  0  0  0  0  0  0
   -1.2736   -0.9704    0.1241 N   0  0  0  0  0  0  0  0  0  0  0  0
   -2.0996   -0.4354   -0.1019 H   0  0  0  0  0  0  0  0  0  0  0  0
   -0.0016   -0.2394    0.1271 C   0  0  1  0  0  0  0  0  0  0  0  0
    0.7806   -0.9071    0.4950 H   0  0  0  0  0  0  0  0  0  0  0  0
    0.3459    0.1877   -1.3127 C   0  0  0  0  0  0  0  0  0  0  0  0
   -0.5142    0.6868   -1.7608 H   0  0  0  0  0  0  0  0  0  0  0  0
    1.1737    0.8975   -1.2955 H   0  0  0  0  0  0  0  0  0  0  0  0
    0.7069   -0.9826   -2.2226 C   0  0  0  0  0  0  0  0  0  0  0  0
    1.2146   -2.0360   -1.8609 O   0  0  0  0  0  0  0  0  0  0  0  0
    0.4318   -0.7900   -3.5261 O   0  0  0  0  0  0  0  0  0  0  0  0
    0.6870   -1.5991   -3.9705 H   0  0  0  0  0  0  0  0  0  0  0  0
   -0.0891    0.9717    1.0771 C   0  0  0  0  0  0  0  0  0  0  0  0
    0.9400    1.5409    1.4385 O   0  0  0  0  0  0  0  0  0  0  0  0
   -1.3016    1.3606    1.4872 N   0  0  0  0  0  0  0  0  0  0  0  0
   -2.0954    0.7998    1.1951 H   0  0  0  0  0  0  0  0  0  0  0  0
   -1.5477    2.4908    2.3801 C   0  0  0  0  0  0  0  0  0  0  0  0
   -1.0467    3.3815    1.9947 H   0  0  0  0  0  0  0  0  0  0  0  0
   -2.6186    2.6842    2.4540 H   0  0  0  0  0  0  0  0  0  0  0  0
   -1.1513    2.2696    3.3726 H   0  0  0  0  0  0  0  0  0  0  0  0
  5  6  2  0  0  0  0
  5  7  1  0  0  0  0
  2  3  1  0  0  0  0
  2  4  1  0  0  0  0
  2  5  1  0  0  0  0
  1  2  1  0  0  0  0
 18 19  2  0  0  0  0
 18 20  1  0  0  0  0
 16 17  1  0  0  0  0
 14 15  2  0  0  0  0
 14 16  1  0  0  0  0
 11 12  1  0  0  0  0
 11 13  1  0  0  0  0
 11 14  1  0  0  0  0
  9 10  1  0  0  0  0
  9 11  1  0  0  0  0
  9 18  1  0  0  0  0
  7  8  1  0  0  0  0
  7  9  1  0  0  0  0
 22 23  1  0  0  0  0
 22 24  1  0  0  0  0
 22 25  1  0  0  0  0
 20 21  1  0  0  0  0
 20 22  1  0  0  0  0
M  END
$$$$
default_name
  -OEChem-01062215323D

 25 24  0     1  0  0  0  0  0999 V2000
   -2.7826   -3.8464    0.7821 H   0  0  0  0  0  0  0  0  0  0  0  0
   -2.8156   -2.8034    0.4711 C   0  0  0  0  0  0  0  0  0  0  0  0
   -3.4336   -2.2354    1.1641 H   0  0  0  0  0  0  0  0  0  0  0  0
   -3.2256   -2.7344   -0.5349 H   0  0  0  0  0  0  0  0  0  0  0  0
   -1.4126   -2.2444    0.4801 C   0  0  0  0  0  0  0  0  0  0  0  0
   -0.4686   -2.9534    0.8001 O   0  0  0  0  0  0  0  0  0  0  0  0
   -1.2736   -0.9704    0.1241 N   0  0  0  0  0  0  0  0  0  0  0  0
   -2.0996   -0.4354   -0.1019 H   0  0  0  0  0  0  0  0  0  0  0  0
   -0.0016   -0.2394    0.1271 C   0  0  1  0  0  0  0  0  0  0  0  0
    0.7806   -0.9071    0.4950 H   0  0  0  0  0  0  0  0  0  0  0  0
    0.3459    0.1877   -1.3127 C   0  0  0  0  0  0  0  0  0  0  0  0
   -0.5142    0.6868   -1.7608 H   0  0  0  0  0  0  0  0  0  0  0  0
    1.1737    0.8975   -1.2955 H   0  0  0  0  0  0  0  0  0  0  0  0
    0.7069   -0.9826   -2.2226 C   0  0  0  0  0  0  0  0  0  0  0  0
    1.2146   -2.0360   -1.8609 O   0  0  0  0  0  0  0  0  0  0  0  0
    0.4318   -0.7900   -3.5261 O   0  0  0  0  0  0  0  0  0  0  0  0
    0.6870   -1.5991   -3.9705 H   0  0  0  0  0  0  0  0  0  0  0  0
   -0.0891    0.9717    1.0771 C   0  0  0  0  0  0  0  0  0  0  0  0
    0.8864    1.7073    1.2214 O   0  0  0  0  0  0  0  0  0  0  0  0
   -1.2401    1.1767    1.7272 N   0  0  0  0  0  0  0  0  0  0  0  0
   -1.9757    0.4888    1.6026 H   0  0  0  0  0  0  0  0  0  0  0  0
   -1.4794    2.2812    2.6537 C   0  0  0  0  0  0  0  0  0  0  0  0
   -1.2167    3.2274    2.1755 H   0  0  0  0  0  0  0  0  0  0  0  0
   -2.5301    2.3051    2.9453 H   0  0  0  0  0  0  0  0  0  0  0  0
   -0.8602    2.1564    3.5437 H   0  0  0  0  0  0  0  0  0  0  0  0
  5  6  2  0  0  0  0
  5  7  1  0  0  0  0
  2  3  1  0  0  0  0
  2  4  1  0  0  0  0
  2  5  1  0  0  0  0
  1  2  1  0  0  0  0
 18 19  2  0  0  0  0
 18 20  1  0  0  0  0
 16 17  1  0  0  0  0
 14 15  2  0  0  0  0
 14 16  1  0  0  0  0
 11 12  1  0  0  0  0
 11 13  1  0  0  0  0
 11 14  1  0  0  0  0
  9 10  1  0  0  0  0
  9 11  1  0  0  0  0
  9 18  1  0  0  0  0
  7  8  1  0  0  0  0
  7  9  1  0  0  0  0
 22 23  1  0  0  0  0
 22 24  1  0  0  0  0
 22 25  1  0  0  0  0
 20 21  1  0  0  0  0
 20 22  1  0  0  0  0
M  END
$$$$
default_name
  -OEChem-01062215323D

 25 24  0     1  0  0  0  0  0999 V2000
   -2.7826   -3.8464    0.7821 H   0  0  0  0  0  0  0  0  0  0  0  0
   -2.8156   -2.8034    0.4711 C   0  0  0  0  0  0  0  0  0  0  0  0
   -3.4336   -2.2354    1.1641 H   0  0  0  0  0  0  0  0  0  0  0  0
   -3.2256   -2.7344   -0.5349 H   0  0  0  0  0  0  0  0  0  0  0  0
   -1.4126   -2.2444    0.4801 C   0  0  0  0  0  0  0  0  0  0  0  0
   -0.4686   -2.9534    0.8001 O   0  0  0  0  0  0  0  0  0  0  0  0
   -1.2736   -0.9704    0.1241 N   0  0  0  0  0  0  0  0  0  0  0  0
   -2.0996   -0.4354   -0.1019 H   0  0  0  0  0  0  0  0  0  0  0  0
   -0.0016   -0.2394    0.1271 C   0  0  1  0  0  0  0  0  0  0  0  0
    0.7806   -0.9071    0.4950 H   0  0  0  0  0  0  0  0  0  0  0  0
    0.3459    0.1877   -1.3127 C   0  0  0  0  0  0  0  0  0  0  0  0
   -0.5142    0.6868   -1.7608 H   0  0  0  0  0  0  0  0  0  0  0  0
    1.1737    0.8975   -1.2955 H   0  0  0  0  0  0  0  0  0  0  0  0
    0.7069   -0.9826   -2.2226 C   0  0  0  0  0  0  0  0  0  0  0  0
    1.2146   -2.0360   -1.8609 O   0  0  0  0  0  0  0  0  0  0  0  0
    0.4318   -0.7900   -3.5261 O   0  0  0  0  0  0  0  0  0  0  0  0
    0.6870   -1.5991   -3.9705 H   0  0  0  0  0  0  0  0  0  0  0  0
   -0.0891    0.9717    1.0771 C   0  0  0  0  0  0  0  0  0  0  0  0
    0.7640    1.8563    1.0202 O   0  0  0  0  0  0  0  0  0  0  0  0
   -1.1026    1.0125    1.9492 N   0  0  0  0  0  0  0  0  0  0  0  0
   -1.7277    0.2135    1.9764 H   0  0  0  0  0  0  0  0  0  0  0  0
   -1.3243    2.0936    2.9071 C   0  0  0  0  0  0  0  0  0  0  0  0
   -1.3196    3.0540    2.3870 H   0  0  0  0  0  0  0  0  0  0  0  0
   -2.2843    1.9604    3.4075 H   0  0  0  0  0  0  0  0  0  0  0  0
   -0.5262    2.0960    3.6514 H   0  0  0  0  0  0  0  0  0  0  0  0
  5  6  2  0  0  0  0
  5  7  1  0  0  0  0
  2  3  1  0  0  0  0
  2  4  1  0  0  0  0
  2  5  1  0  0  0  0
  1  2  1  0  0  0  0
 18 19  2  0  0  0  0
 18 20  1  0  0  0  0
 16 17  1  0  0  0  0
 14 15  2  0  0  0  0
 14 16  1  0  0  0  0
 11 12  1  0  0  0  0
 11 13  1  0  0  0  0
 11 14  1  0  0  0  0
  9 10  1  0  0  0  0
  9 11  1  0  0  0  0
  9 18  1  0  0  0  0
  7  8  1  0  0  0  0
  7  9  1  0  0  0  0
 22 23  1  0  0  0  0
 22 24  1  0  0  0  0
 22 25  1  0  0  0  0
 20 21  1  0  0  0  0
 20 22  1  0  0  0  0
M  END
$$$$
default_name
  -OEChem-01062215323D

 25 24  0     1  0  0  0  0  0999 V2000
   -2.7826   -3.8464    0.7821 H   0  0  0  0  0  0  0  0  0  0  0  0
   -2.8156   -2.8034    0.4711 C   0  0  0  0  0  0  0  0  0  0  0  0
   -3.4336   -2.2354    1.1641 H   0  0  0  0  0  0  0  0  0  0  0  0
   -3.2256   -2.7344   -0.5349 H   0  0  0  0  0  0  0  0  0  0  0  0
   -1.4126   -2.2444    0.4801 C   0  0  0  0  0  0  0  0  0  0  0  0
   -0.4686   -2.9534    0.8001 O   0  0  0  0  0  0  0  0  0  0  0  0
   -1.2736   -0.9704    0.1241 N   0  0  0  0  0  0  0  0  0  0  0  0
   -2.0996   -0.4354   -0.1019 H   0  0  0  0  0  0  0  0  0  0  0  0
   -0.0016   -0.2394    0.1271 C   0  0  1  0  0  0  0  0  0  0  0  0
    0.7806   -0.9071    0.4950 H   0  0  0  0  0  0  0  0  0  0  0  0
    0.3459    0.1877   -1.3127 C   0  0  0  0  0  0  0  0  0  0  0  0
   -0.5142    0.6868   -1.7608 H   0  0  0  0  0  0  0  0  0  0  0  0
    1.1737    0.8975   -1.2955 H   0  0  0  0  0  0  0  0  0  0  0  0
    0.7069   -0.9826   -2.2226 C   0  0  0  0  0  0  0  0  0  0  0  0
    1.2146   -2.0360   -1.8609 O   0  0  0  0  0  0  0  0  0  0  0  0
    0.4318   -0.7900   -3.5261 O   0  0  0  0  0  0  0  0  0  0  0  0
    0.6870   -1.5991   -3.9705 H   0  0  0  0  0  0  0  0  0  0  0  0
   -0.0891    0.9717    1.0771 C   0  0  0  0  0  0  0  0  0  0  0  0
    0.5811    1.9777    0.8486 O   0  0  0  0  0  0  0  0  0  0  0  0
   -0.8985    0.8790    2.1381 N   0  0  0  0  0  0  0  0  0  0  0  0
   -1.3682   -0.0075    2.2911 H   0  0  0  0  0  0  0  0  0  0  0  0
   -1.0931    1.9409    3.1230 C   0  0  0  0  0  0  0  0  0  0  0  0
   -1.3483    2.8733    2.6148 H   0  0  0  0  0  0  0  0  0  0  0  0
   -1.8979    1.6733    3.8090 H   0  0  0  0  0  0  0  0  0  0  0  0
   -0.1720    2.0925    3.6885 H   0  0  0  0  0  0  0  0  0  0  0  0
  5  6  2  0  0  0  0
  5  7  1  0  0  0  0
  2  3  1  0  0  0  0
  2  4  1  0  0  0  0
  2  5  1  0  0  0  0
  1  2  1  0  0  0  0
 18 19  2  0  0  0  0
 18 20  1  0  0  0  0
 16 17  1  0  0  0  0
 14 15  2  0  0  0  0
 14 16  1  0  0  0  0
 11 12  1  0  0  0  0
 11 13  1  0  0  0  0
 11 14  1  0  0  0  0
  9 10  1  0  0  0  0
  9 11  1  0  0  0  0
  9 18  1  0  0  0  0
  7  8  1  0  0  0  0
  7  9  1  0  0  0  0
 22 23  1  0  0  0  0
 22 24  1  0  0  0  0
 22 25  1  0  0  0  0
 20 21  1  0  0  0  0
 20 22  1  0  0  0  0
M  END
$$$$
default_name
  -OEChem-01062215323D

 25 24  0     1  0  0  0  0  0999 V2000
   -2.7826   -3.8464    0.7821 H   0  0  0  0  0  0  0  0  0  0  0  0
   -2.8156   -2.8034    0.4711 C   0  0  0  0  0  0  0  0  0  0  0  0
   -3.4336   -2.2354    1.1641 H   0  0  0  0  0  0  0  0  0  0  0  0
   -3.2256   -2.7344   -0.5349 H   0  0  0  0  0  0  0  0  0  0  0  0
   -1.4126   -2.2444    0.4801 C   0  0  0  0  0  0  0  0  0  0  0  0
   -0.4686   -2.9534    0.8001 O   0  0  0  0  0  0  0  0  0  0  0  0
   -1.2736   -0.9704    0.1241 N   0  0  0  0  0  0  0  0  0  0  0  0
   -2.0996   -0.4354   -0.1019 H   0  0  0  0  0  0  0  0  0  0  0  0
   -0.0016   -0.2394    0.1271 C   0  0  1  0  0  0  0  0  0  0  0  0
    0.7806   -0.9071    0.4950 H   0  0  0  0  0  0  0  0  0  0  0  0
    0.3459    0.1877   -1.3127 C   0  0  0  0  0  0  0  0  0  0  0  0
   -0.5142    0.6868   -1.7608 H   0  0  0  0  0  0  0  0  0  0  0  0
    1.1737    0.8975   -1.2955 H   0  0  0  0  0  0  0  0  0  0  0  0
    0.7069   -0.9826   -2.2226 C   0  0  0  0  0  0  0  0  0  0  0  0
    1.2146   -2.0360   -1.8609 O   0  0  0  0  0  0  0  0  0  0  0  0
    0.4318   -0.7900   -3.5261 O   0  0  0  0  0  0  0  0  0  0  0  0
    0.6870   -1.5991   -3.9705 H   0  0  0  0  0  0  0  0  0  0  0  0
   -0.0891    0.9717    1.0771 C   0  0  0  0  0  0  0  0  0  0  0  0
    0.3502    2.0634    0.7182 O   0  0  0  0  0  0  0  0  0  0  0  0
   -0.6416    0.7854    2.2811 N   0  0  0  0  0  0  0  0  0  0  0  0
   -0.9217   -0.1589    2.5253 H   0  0  0  0  0  0  0  0  0  0  0  0
   -0.8015    1.8334    3.2869 C   0  0  0  0  0  0  0  0  0  0  0  0
   -1.3009    2.6975    2.8432 H   0  0  0  0  0  0  0  0  0  0  0  0
   -1.3972    1.4636    4.1224 H   0  0  0  0  0  0  0  0  0  0  0  0
    0.1782    2.1462    3.6523 H   0  0  0  0  0  0  0  0  0  0  0  0
  5  6  2  0  0  0  0
  5  7  1  0  0  0  0
  2  3  1  0  0  0  0
  2  4  1  0  0  0  0
  2  5  1  0  0  0  0
  1  2  1  0  0  0  0
 18 19  2  0  0  0  0
 18 20  1  0  0  0  0
 16 17  1  0  0  0  0
 14 15  2  0  0  0  0
 14 16  1  0  0  0  0
 11 12  1  0  0  0  0
 11 13  1  0  0  0  0
 11 14  1  0  0  0  0
  9 10  1  0  0  0  0
  9 11  1  0  0  0  0
  9 18  1  0  0  0  0
  7  8  1  0  0  0  0
  7  9  1  0  0  0  0
 22 23  1  0  0  0  0
 22 24  1  0  0  0  0
 22 25  1  0  0  0  0
 20 21  1  0  0  0  0
 20 22  1  0  0  0  0
M  END
$$$$
default_name
  -OEChem-01062215323D

 25 24  0     1  0  0  0  0  0999 V2000
   -2.7826   -3.8464    0.7821 H   0  0  0  0  0  0  0  0  0  0  0  0
   -2.8156   -2.8034    0.4711 C   0  0  0  0  0  0  0  0  0  0  0  0
   -3.4336   -2.2354    1.1641 H   0  0  0  0  0  0  0  0  0  0  0  0
   -3.2256   -2.7344   -0.5349 H   0  0  0  0  0  0  0  0  0  0  0  0
   -1.4126   -2.2444    0.4801 C   0  0  0  0  0  0  0  0  0  0  0  0
   -0.4686   -2.9534    0.8001 O   0  0  0  0  0  0  0  0  0  0  0  0
   -1.2736   -0.9704    0.1241 N   0  0  0  0  0  0  0  0  0  0  0  0
   -2.0996   -0.4354   -0.1019 H   0  0  0  0  0  0  0  0  0  0  0  0
   -0.0016   -0.2394    0.1271 C   0  0  1  0  0  0  0  0  0  0  0  0
    0.7806   -0.9071    0.4950 H   0  0  0  0  0  0  0  0  0  0  0  0
    0.3459    0.1877   -1.3127 C   0  0  0  0  0  0  0  0  0  0  0  0
   -0.5142    0.6868   -1.7608 H   0  0  0  0  0  0  0  0  0  0  0  0
    1.1737    0.8975   -1.2955 H   0  0  0  0  0  0  0  0  0  0  0  0
    0.7069   -0.9826   -2.2226 C   0  0  0  0  0  0  0  0  0  0  0  0
    1.2146   -2.0360   -1.8609 O   0  0  0  0  0  0  0  0  0  0  0  0
    0.4318   -0.7900   -3.5261 O   0  0  0  0  0  0  0  0  0  0  0  0
    0.6870   -1.5991   -3.9705 H   0  0  0  0  0  0  0  0  0  0  0  0
   -0.0891    0.9717    1.0771 C   0  0  0  0  0  0  0  0  0  0  0  0
    0.0870    2.1073    0.6379 O   0  0  0  0  0  0  0  0  0  0  0  0
   -0.3495    0.7381    2.3683 N   0  0  0  0  0  0  0  0  0  0  0  0
   -0.4187   -0.2306    2.6629 H   0  0  0  0  0  0  0  0  0  0  0  0
   -0.4694    1.7785    3.3875 C   0  0  0  0  0  0  0  0  0  0  0  0
   -1.1806    2.5386    3.0569 H   0  0  0  0  0  0  0  0  0  0  0  0
   -0.8165    1.3455    4.3265 H   0  0  0  0  0  0  0  0  0  0  0  0
    0.5005    2.2533    3.5454 H   0  0  0  0  0  0  0  0  0  0  0  0
  5  6  2  0  0  0  0
  5  7  1  0  0  0  0
  2  3  1  0  0  0  0
  2  4  1  0  0  0  0
  2  5  1  0  0  0  0
  1  2  1  0  0  0  0
 18 19  2  0  0  0  0
 18 20  1  0  0  0  0
 16 17  1  0  0  0  0
 14 15  2  0  0  0  0
 14 16  1  0  0  0  0
 11 12  1  0  0  0  0
 11 13  1  0  0  0  0
 11 14  1  0  0  0  0
  9 10  1  0  0  0  0
  9 11  1  0  0  0  0
  9 18  1  0  0  0  0
  7  8  1  0  0  0  0
  7  9  1  0  0  0  0
 22 23  1  0  0  0  0
 22 24  1  0  0  0  0
 22 25  1  0  0  0  0
 20 21  1  0  0  0  0
 20 22  1  0  0  0  0
M  END
$$$$
default_name
  -OEChem-01062215323D

 25 24  0     1  0  0  0  0  0999 V2000
   -2.7826   -3.8464    0.7821 H   0  0  0  0  0  0  0  0  0  0  0  0
   -2.8156   -2.8034    0.4711 C   0  0  0  0  0  0  0  0  0  0  0  0
   -3.4336   -2.2354    1.1641 H   0  0  0  0  0  0  0  0  0  0  0  0
   -3.2256   -2.7344   -0.5349 H   0  0  0  0  0  0  0  0  0  0  0  0
   -1.4126   -2.2444    0.4801 C   0  0  0  0  0  0  0  0  0  0  0  0
   -0.4686   -2.9534    0.8001 O   0  0  0  0  0  0  0  0  0  0  0  0
   -1.2736   -0.9704    0.1241 N   0  0  0  0  0  0  0  0  0  0  0  0
   -2.0996   -0.4354   -0.1019 H   0  0  0  0  0  0  0  0  0  0  0  0
   -0.0016   -0.2394    0.1271 C   0  0  1  0  0  0  0  0  0  0  0  0
    0.7806   -0.9071    0.4950 H   0  0  0  0  0  0  0  0  0  0  0  0
    0.3459    0.1877   -1.3127 C   0  0  0  0  0  0  0  0  0  0  0  0
   -0.5142    0.6868   -1.7608 H   0  0  0  0  0  0  0  0  0  0  0  0
    1.1737    0.8975   -1.2955 H   0  0  0  0  0  0  0  0  0  0  0  0
    0.7069   -0.9826   -2.2226 C   0  0  0  0  0  0  0  0  0  0  0  0
    1.2146   -2.0360   -1.8609 O   0  0  0  0  0  0  0  0  0  0  0  0
    0.4318   -0.7900   -3.5261 O   0  0  0  0  0  0  0  0  0  0  0  0
    0.6870   -1.5991   -3.9705 H   0  0  0  0  0  0  0  0  0  0  0  0
   -0.0891    0.9717    1.0771 C   0  0  0  0  0  0  0  0  0  0  0  0
   -0.1906    2.1066    0.6133 O   0  0  0  0  0  0  0  0  0  0  0  0
   -0.0421    0.7402    2.3939 N   0  0  0  0  0  0  0  0  0  0  0  0
    0.1066   -0.2175    2.6946 H   0  0  0  0  0  0  0  0  0  0  0  0
   -0.1194    1.7799    3.4179 C   0  0  0  0  0  0  0  0  0  0  0  0
   -0.9956    2.4075    3.2411 H   0  0  0  0  0  0  0  0  0  0  0  0
   -0.1952    1.3269    4.4072 H   0  0  0  0  0  0  0  0  0  0  0  0
    0.7730    2.4067    3.3749 H   0  0  0  0  0  0  0  0  0  0  0  0
  5  6  2  0  0  0  0
  5  7  1  0  0  0  0
  2  3  1  0  0  0  0
  2  4  1  0  0  0  0
  2  5  1  0  0  0  0
  1  2  1  0  0  0  0
 18 19  2  0  0  0  0
 18 20  1  0  0  0  0
 16 17  1  0  0  0  0
 14 15  2  0  0  0  0
 14 16  1  0  0  0  0
 11 12  1  0  0  0  0
 11 13  1  0  0  0  0
 11 14  1  0  0  0  0
  9 10  1  0  0  0  0
  9 11  1  0  0  0  0
  9 18  1  0  0  0  0
  7  8  1  0  0  0  0
  7  9  1  0  0  0  0
 22 23  1  0  0  0  0
 22 24  1  0  0  0  0
 22 25  1  0  0  0  0
 20 21  1  0  0  0  0
 20 22  1  0  0  0  0
M  END
$$$$
default_name
  -OEChem-01062215323D

 25 24  0     1  0  0  0  0  0999 V2000
   -2.7826   -3.8464    0.7821 H   0  0  0  0  0  0  0  0  0  0  0  0
   -2.8156   -2.8034    0.4711 C   0  0  0  0  0  0  0  0  0  0  0  0
   -3.4336   -2.2354    1.1641 H   0  0  0  0  0  0  0  0  0  0  0  0
   -3.2256   -2.7344   -0.5349 H   0  0  0  0  0  0  0  0  0  0  0  0
   -1.4126   -2.2444    0.4801 C   0  0  0  0  0  0  0  0  0  0  0  0
   -0.4686   -2.9534    0.8001 O   0  0  0  0  0  0  0  0  0  0  0  0
   -1.2736   -0.9704    0.1241 N   0  0  0  0  0  0  0  0  0  0  0  0
   -2.0996   -0.4354   -0.1019 H   0  0  0  0  0  0  0  0  0  0  0  0
   -0.0016   -0.2394    0.1271 C   0  0  1  0  0  0  0  0  0  0  0  0
    0.7806   -0.9071    0.4950 H   0  0  0  0  0  0  0  0  0  0  0  0
    0.3459    0.1877   -1.3127 C   0  0  0  0  0  0  0  0  0  0  0  0
   -0.5142    0.6868   -1.7608 H   0  0  0  0  0  0  0  0  0  0  0  0
    1.1737    0.8975   -1.2955 H   0  0  0  0  0  0  0  0  0  0  0  0
    0.7069   -0.9826   -2.2226 C   0  0  0  0  0  0  0  0  0  0  0  0
    1.2146   -2.0360   -1.8609 O   0  0  0  0  0  0  0  0  0  0  0  0
    0.4318   -0.7900   -3.5261 O   0  0  0  0  0  0  0  0  0  0  0  0
    0.6870   -1.5991   -3.9705 H   0  0  0  0  0  0  0  0  0  0  0  0
   -0.0891    0.9717    1.0771 C   0  0  0  0  0  0  0  0  0  0  0  0
   -0.4636    2.0613    0.6459 O   0  0  0  0  0  0  0  0  0  0  0  0
    0.2597    0.7917    2.3560 N   0  0  0  0  0  0  0  0  0  0  0  0
    0.6184   -0.1207    2.6183 H   0  0  0  0  0  0  0  0  0  0  0  0
    0.2246    1.8375    3.3761 C   0  0  0  0  0  0  0  0  0  0  0  0
   -0.7586    2.3130    3.3834 H   0  0  0  0  0  0  0  0  0  0  0  0
    0.4244    1.4093    4.3592 H   0  0  0  0  0  0  0  0  0  0  0  0
    0.9772    2.5957    3.1527 H   0  0  0  0  0  0  0  0  0  0  0  0
  5  6  2  0  0  0  0
  5  7  1  0  0  0  0
  2  3  1  0  0  0  0
  2  4  1  0  0  0  0
  2  5  1  0  0  0  0
  1  2  1  0  0  0  0
 18 19  2  0  0  0  0
 18 20  1  0  0  0  0
 16 17  1  0  0  0  0
 14 15  2  0  0  0  0
 14 16  1  0  0  0  0
 11 12  1  0  0  0  0
 11 13  1  0  0  0  0
 11 14  1  0  0  0  0
  9 10  1  0  0  0  0
  9 11  1  0  0  0  0
  9 18  1  0  0  0  0
  7  8  1  0  0  0  0
  7  9  1  0  0  0  0
 22 23  1  0  0  0  0
 22 24  1  0  0  0  0
 22 25  1  0  0  0  0
 20 21  1  0  0  0  0
 20 22  1  0  0  0  0
M  END
$$$$
default_name
  -OEChem-01062215323D

 25 24  0     1  0  0  0  0  0999 V2000
   -2.7826   -3.8464    0.7821 H   0  0  0  0  0  0  0  0  0  0  0  0
   -2.8156   -2.8034    0.4711 C   0  0  0  0  0  0  0  0  0  0  0  0
   -3.4336   -2.2354    1.1641 H   0  0  0  0  0  0  0  0  0  0  0  0
   -3.2256   -2.7344   -0.5349 H   0  0  0  0  0  0  0  0  0  0  0  0
   -1.4126   -2.2444    0.4801 C   0  0  0  0  0  0  0  0  0  0  0  0
   -0.4686   -2.9534    0.8001 O   0  0  0  0  0  0  0  0  0  0  0  0
   -1.2736   -0.9704    0.1241 N   0  0  0  0  0  0  0  0  0  0  0  0
   -2.0996   -0.4354   -0.1019 H   0  0  0  0  0  0  0  0  0  0  0  0
   -0.0016   -0.2394    0.1271 C   0  0  1  0  0  0  0  0  0  0  0  0
    0.7806   -0.9071    0.4950 H   0  0  0  0  0  0  0  0  0  0  0  0
    0.3459    0.1877   -1.3127 C   0  0  0  0  0  0  0  0  0  0  0  0
   -0.5142    0.6868   -1.7608 H   0  0  0  0  0  0  0  0  0  0  0  0
    1.1737    0.8975   -1.2955 H   0  0  0  0  0  0  0  0  0  0  0  0
    0.7069   -0.9826   -2.2226 C   0  0  0  0  0  0  0  0  0  0  0  0
    1.2146   -2.0360   -1.8609 O   0  0  0  0  0  0  0  0  0  0  0  0
    0.4318   -0.7900   -3.5261 O   0  0  0  0  0  0  0  0  0  0  0  0
    0.6870   -1.5991   -3.9705 H   0  0  0  0  0  0  0  0  0  0  0  0
   -0.0891    0.9717    1.0771 C   0  0  0  0  0  0  0  0  0  0  0  0
   -0.7135    1.9745    0.7336 O   0  0  0  0  0  0  0  0  0  0  0  0
    0.5354    0.8890    2.2573 N   0  0  0  0  0  0  0  0  0  0  0  0
    1.0817    0.0534    2.4390 H   0  0  0  0  0  0  0  0  0  0  0  0
    0.5393    1.9474    3.2649 C   0  0  0  0  0  0  0  0  0  0  0  0
   -0.4857    2.2616    3.4740 H   0  0  0  0  0  0  0  0  0  0  0  0
    0.9998    1.5870    4.1856 H   0  0  0  0  0  0  0  0  0  0  0  0
    1.0990    2.8077    2.8937 H   0  0  0  0  0  0  0  0  0  0  0  0
  5  6  2  0  0  0  0
  5  7  1  0  0  0  0
  2  3  1  0  0  0  0
  2  4  1  0  0  0  0
  2  5  1  0  0  0  0
  1  2  1  0  0  0  0
 18 19  2  0  0  0  0
 18 20  1  0  0  0  0
 16 17  1  0  0  0  0
 14 15  2  0  0  0  0
 14 16  1  0  0  0  0
 11 12  1  0  0  0  0
 11 13  1  0  0  0  0
 11 14  1  0  0  0  0
  9 10  1  0  0  0  0
  9 11  1  0  0  0  0
  9 18  1  0  0  0  0
  7  8  1  0  0  0  0
  7  9  1  0  0  0  0
 22 23  1  0  0  0  0
 22 24  1  0  0  0  0
 22 25  1  0  0  0  0
 20 21  1  0  0  0  0
 20 22  1  0  0  0  0
M  END
$$$$
default_name
  -OEChem-01062215323D

 25 24  0     1  0  0  0  0  0999 V2000
   -2.7826   -3.8464    0.7821 H   0  0  0  0  0  0  0  0  0  0  0  0
   -2.8156   -2.8034    0.4711 C   0  0  0  0  0  0  0  0  0  0  0  0
   -3.4336   -2.2354    1.1641 H   0  0  0  0  0  0  0  0  0  0  0  0
   -3.2256   -2.7344   -0.5349 H   0  0  0  0  0  0  0  0  0  0  0  0
   -1.4126   -2.2444    0.4801 C   0  0  0  0  0  0  0  0  0  0  0  0
   -0.4686   -2.9534    0.8001 O   0  0  0  0  0  0  0  0  0  0  0  0
   -1.2736   -0.9704    0.1241 N   0  0  0  0  0  0  0  0  0  0  0  0
   -2.0996   -0.4354   -0.1019 H   0  0  0  0  0  0  0  0  0  0  0  0
   -0.0016   -0.2394    0.1271 C   0  0  1  0  0  0  0  0  0  0  0  0
    0.7806   -0.9071    0.4950 H   0  0  0  0  0  0  0  0  0  0  0  0
    0.3459    0.1877   -1.3127 C   0  0  0  0  0  0  0  0  0  0  0  0
   -0.5142    0.6868   -1.7608 H   0  0  0  0  0  0  0  0  0  0  0  0
    1.1737    0.8975   -1.2955 H   0  0  0  0  0  0  0  0  0  0  0  0
    0.7069   -0.9826   -2.2226 C   0  0  0  0  0  0  0  0  0  0  0  0
    1.2146   -2.0360   -1.8609 O   0  0  0  0  0  0  0  0  0  0  0  0
    0.4318   -0.7900   -3.5261 O   0  0  0  0  0  0  0  0  0  0  0  0
    0.6870   -1.5991   -3.9705 H   0  0  0  0  0  0  0  0  0  0  0  0
   -0.0891    0.9717    1.0771 C   0  0  0  0  0  0  0  0  0  0  0  0
   -0.9232    1.8521    0.8704 O   0  0  0  0  0  0  0  0  0  0  0  0
    0.7660    1.0255    2.1045 N   0  0  0  0  0  0  0  0  0  0  0  0
    1.4651    0.2927    2.1691 H   0  0  0  0  0  0  0  0  0  0  0  0
    0.8030    2.1021    3.0920 C   0  0  0  0  0  0  0  0  0  0  0  0
   -0.1954    2.2568    3.5068 H   0  0  0  0  0  0  0  0  0  0  0  0
    1.4921    1.8479    3.8984 H   0  0  0  0  0  0  0  0  0  0  0  0
    1.1303    3.0280    2.6157 H   0  0  0  0  0  0  0  0  0  0  0  0
  5  6  2  0  0  0  0
  5  7  1  0  0  0  0
  2  3  1  0  0  0  0
  2  4  1  0  0  0  0
  2  5  1  0  0  0  0
  1  2  1  0  0  0  0
 18 19  2  0  0  0  0
 18 20  1  0  0  0  0
 16 17  1  0  0  0  0
 14 15  2  0  0  0  0
 14 16  1  0  0  0  0
 11 12  1  0  0  0  0
 11 13  1  0  0  0  0
 11 14  1  0  0  0  0
  9 10  1  0  0  0  0
  9 11  1  0  0  0  0
  9 18  1  0  0  0  0
  7  8  1  0  0  0  0
  7  9  1  0  0  0  0
 22 23  1  0  0  0  0
 22 24  1  0  0  0  0
 22 25  1  0  0  0  0
 20 21  1  0  0  0  0
 20 22  1  0  0  0  0
M  END
$$$$
default_name
  -OEChem-01062215323D

 25 24  0     1  0  0  0  0  0999 V2000
   -2.7826   -3.8464    0.7821 H   0  0  0  0  0  0  0  0  0  0  0  0
   -2.8156   -2.8034    0.4711 C   0  0  0  0  0  0  0  0  0  0  0  0
   -3.4336   -2.2354    1.1641 H   0  0  0  0  0  0  0  0  0  0  0  0
   -3.2256   -2.7344   -0.5349 H   0  0  0  0  0  0  0  0  0  0  0  0
   -1.4126   -2.2444    0.4801 C   0  0  0  0  0  0  0  0  0  0  0  0
   -0.4686   -2.9534    0.8001 O   0  0  0  0  0  0  0  0  0  0  0  0
   -1.2736   -0.9704    0.1241 N   0  0  0  0  0  0  0  0  0  0  0  0
   -2.0996   -0.4354   -0.1019 H   0  0  0  0  0  0  0  0  0  0  0  0
   -0.0016   -0.2394    0.1271 C   0  0  1  0  0  0  0  0  0  0  0  0
    0.7806   -0.9071    0.4950 H   0  0  0  0  0  0  0  0  0  0  0  0
    0.3459    0.1877   -1.3127 C   0  0  0  0  0  0  0  0  0  0  0  0
   -0.5142    0.6868   -1.7608 H   0  0  0  0  0  0  0  0  0  0  0  0
    1.1737    0.8975   -1.2955 H   0  0  0  0  0  0  0  0  0  0  0  0
    0.7069   -0.9826   -2.2226 C   0  0  0  0  0  0  0  0  0  0  0  0
    1.2146   -2.0360   -1.8609 O   0  0  0  0  0  0  0  0  0  0  0  0
    0.4318   -0.7900   -3.5261 O   0  0  0  0  0  0  0  0  0  0  0  0
    0.6870   -1.5991   -3.9705 H   0  0  0  0  0  0  0  0  0  0  0  0
   -0.0891    0.9717    1.0771 C   0  0  0  0  0  0  0  0  0  0  0  0
   -1.0784    1.7024    1.0469 O   0  0  0  0  0  0  0  0  0  0  0  0
    0.9360    1.1919    1.9080 N   0  0  0  0  0  0  0  0  0  0  0  0
    1.7423    0.5811    1.8270 H   0  0  0  0  0  0  0  0  0  0  0  0
    0.9980    2.2911    2.8690 C   0  0  0  0  0  0  0  0  0  0  0  0
    0.0924    2.2990    3.4795 H   0  0  0  0  0  0  0  0  0  0  0  0
    1.8676    2.1742    3.5170 H   0  0  0  0  0  0  0  0  0  0  0  0
    1.0688    3.2417    2.3376 H   0  0  0  0  0  0  0  0  0  0  0  0
  5  6  2  0  0  0  0
  5  7  1  0  0  0  0
  2  3  1  0  0  0  0
  2  4  1  0  0  0  0
  2  5  1  0  0  0  0
  1  2  1  0  0  0  0
 18 19  2  0  0  0  0
 18 20  1  0  0  0  0
 16 17  1  0  0  0  0
 14 15  2  0  0  0  0
 14 16  1  0  0  0  0
 11 12  1  0  0  0  0
 11 13  1  0  0  0  0
 11 14  1  0  0  0  0
  9 10  1  0  0  0  0
  9 11  1  0  0  0  0
  9 18  1  0  0  0  0
  7  8  1  0  0  0  0
  7  9  1  0  0  0  0
 22 23  1  0  0  0  0
 22 24  1  0  0  0  0
 22 25  1  0  0  0  0
 20 21  1  0  0  0  0
 20 22  1  0  0  0  0
M  END
$$$$
default_name
  -OEChem-01062215323D

 25 24  0     1  0  0  0  0  0999 V2000
   -2.7826   -3.8464    0.7821 H   0  0  0  0  0  0  0  0  0  0  0  0
   -2.8156   -2.8034    0.4711 C   0  0  0  0  0  0  0  0  0  0  0  0
   -3.4336   -2.2354    1.1641 H   0  0  0  0  0  0  0  0  0  0  0  0
   -3.2256   -2.7344   -0.5349 H   0  0  0  0  0  0  0  0  0  0  0  0
   -1.4126   -2.2444    0.4801 C   0  0  0  0  0  0  0  0  0  0  0  0
   -0.4686   -2.9534    0.8001 O   0  0  0  0  0  0  0  0  0  0  0  0
   -1.2736   -0.9704    0.1241 N   0  0  0  0  0  0  0  0  0  0  0  0
   -2.0996   -0.4354   -0.1019 H   0  0  0  0  0  0  0  0  0  0  0  0
   -0.0016   -0.2394    0.1271 C   0  0  1  0  0  0  0  0  0  0  0  0
    0.7806   -0.9071    0.4950 H   0  0  0  0  0  0  0  0  0  0  0  0
    0.3459    0.1877   -1.3127 C   0  0  0  0  0  0  0  0  0  0  0  0
   -0.5142    0.6868   -1.7608 H   0  0  0  0  0  0  0  0  0  0  0  0
    1.1737    0.8975   -1.2955 H   0  0  0  0  0  0  0  0  0  0  0  0
    0.7069   -0.9826   -2.2226 C   0  0  0  0  0  0  0  0  0  0  0  0
    1.2146   -2.0360   -1.8609 O   0  0  0  0  0  0  0  0  0  0  0  0
    0.4318   -0.7900   -3.5261 O   0  0  0  0  0  0  0  0  0  0  0  0
    0.6870   -1.5991   -3.9705 H   0  0  0  0  0  0  0  0  0  0  0  0
   -0.0891    0.9717    1.0771 C   0  0  0  0  0  0  0  0  0  0  0  0
   -1.1685    1.5356    1.2512 O   0  0  0  0  0  0  0  0  0  0  0  0
    1.0336    1.3769    1.6813 N   0  0  0  0  0  0  0  0  0  0  0  0
    1.8946    0.8989    1.4359 H   0  0  0  0  0  0  0  0  0  0  0  0
    1.1108    2.5014    2.6112 C   0  0  0  0  0  0  0  0  0  0  0  0
    0.3582    2.3852    3.3941 H   0  0  0  0  0  0  0  0  0  0  0  0
    2.1007    2.5436    3.0674 H   0  0  0  0  0  0  0  0  0  0  0  0
    0.9187    3.4343    2.0783 H   0  0  0  0  0  0  0  0  0  0  0  0
  5  6  2  0  0  0  0
  5  7  1  0  0  0  0
  2  3  1  0  0  0  0
  2  4  1  0  0  0  0
  2  5  1  0  0  0  0
  1  2  1  0  0  0  0
 18 19  2  0  0  0  0
 18 20  1  0  0  0  0
 16 17  1  0  0  0  0
 14 15  2  0  0  0  0
 14 16  1  0  0  0  0
 11 12  1  0  0  0  0
 11 13  1  0  0  0  0
 11 14  1  0  0  0  0
  9 10  1  0  0  0  0
  9 11  1  0  0  0  0
  9 18  1  0  0  0  0
  7  8  1  0  0  0  0
  7  9  1  0  0  0  0
 22 23  1  0  0  0  0
 22 24  1  0  0  0  0
 22 25  1  0  0  0  0
 20 21  1  0  0  0  0
 20 22  1  0  0  0  0
M  END
$$$$
default_name
  -OEChem-01062215323D

 25 24  0     1  0  0  0  0  0999 V2000
   -2.7826   -3.8464    0.7821 H   0  0  0  0  0  0  0  0  0  0  0  0
   -2.8156   -2.8034    0.4711 C   0  0  0  0  0  0  0  0  0  0  0  0
   -3.4336   -2.2354    1.1641 H   0  0  0  0  0  0  0  0  0  0  0  0
   -3.2256   -2.7344   -0.5349 H   0  0  0  0  0  0  0  0  0  0  0  0
   -1.4126   -2.2444    0.4801 C   0  0  0  0  0  0  0  0  0  0  0  0
   -0.4686   -2.9534    0.8001 O   0  0  0  0  0  0  0  0  0  0  0  0
   -1.2736   -0.9704    0.1241 N   0  0  0  0  0  0  0  0  0  0  0  0
   -2.0996   -0.4354   -0.1019 H   0  0  0  0  0  0  0  0  0  0  0  0
   -0.0016   -0.2394    0.1271 C   0  0  1  0  0  0  0  0  0  0  0  0
    0.7806   -0.9071    0.4950 H   0  0  0  0  0  0  0  0  0  0  0  0
    0.3459    0.1877   -1.3127 C   0  0  0  0  0  0  0  0  0  0  0  0
   -0.5142    0.6868   -1.7608 H   0  0  0  0  0  0  0  0  0  0  0  0
    1.1737    0.8975   -1.2955 H   0  0  0  0  0  0  0  0  0  0  0  0
    0.7069   -0.9826   -2.2226 C   0  0  0  0  0  0  0  0  0  0  0  0
    1.2146   -2.0360   -1.8609 O   0  0  0  0  0  0  0  0  0  0  0  0
    0.4318   -0.7900   -3.5261 O   0  0  0  0  0  0  0  0  0  0  0  0
    0.6870   -1.5991   -3.9705 H   0  0  0  0  0  0  0  0  0  0  0  0
   -0.0891    0.9717    1.0771 C   0  0  0  0  0  0  0  0  0  0  0  0
   -1.1874    1.3632    1.4693 O   0  0  0  0  0  0  0  0  0  0  0  0
    1.0524    1.5678    1.4396 N   0  0  0  0  0  0  0  0  0  0  0  0
    1.9115    1.2244    1.0225 H   0  0  0  0  0  0  0  0  0  0  0  0
    1.1339    2.7188    2.3362 C   0  0  0  0  0  0  0  0  0  0  0  0
    0.5837    2.5096    3.2562 H   0  0  0  0  0  0  0  0  0  0  0  0
    2.1755    2.9310    2.5804 H   0  0  0  0  0  0  0  0  0  0  0  0
    0.6904    3.5926    1.8555 H   0  0  0  0  0  0  0  0  0  0  0  0
  5  6  2  0  0  0  0
  5  7  1  0  0  0  0
  2  3  1  0  0  0  0
  2  4  1  0  0  0  0
  2  5  1  0  0  0  0
  1  2  1  0  0  0  0
 18 19  2  0  0  0  0
 18 20  1  0  0  0  0
 16 17  1  0  0  0  0
 14 15  2  0  0  0  0
 14 16  1  0  0  0  0
 11 12  1  0  0  0  0
 11 13  1  0  0  0  0
 11 14  1  0  0  0  0
  9 10  1  0  0  0  0
  9 11  1  0  0  0  0
  9 18  1  0  0  0  0
  7  8  1  0  0  0  0
  7  9  1  0  0  0  0
 22 23  1  0  0  0  0
 22 24  1  0  0  0  0
 22 25  1  0  0  0  0
 20 21  1  0  0  0  0
 20 22  1  0  0  0  0
M  END
$$$$
default_name
  -OEChem-01062215323D

 25 24  0     1  0  0  0  0  0999 V2000
   -2.7826   -3.8464    0.7821 H   0  0  0  0  0  0  0  0  0  0  0  0
   -2.8156   -2.8034    0.4711 C   0  0  0  0  0  0  0  0  0  0  0  0
   -3.4336   -2.2354    1.1641 H   0  0  0  0  0  0  0  0  0  0  0  0
   -3.2256   -2.7344   -0.5349 H   0  0  0  0  0  0  0  0  0  0  0  0
   -1.4126   -2.2444    0.4801 C   0  0  0  0  0  0  0  0  0  0  0  0
   -0.4686   -2.9534    0.8001 O   0  0  0  0  0  0  0  0  0  0  0  0
   -1.2736   -0.9704    0.1241 N   0  0  0  0  0  0  0  0  0  0  0  0
   -2.0996   -0.4354   -0.1019 H   0  0  0  0  0  0  0  0  0  0  0  0
   -0.0016   -0.2394    0.1271 C   0  0  1  0  0  0  0  0  0  0  0  0
    0.8120   -0.9607    0.2318 H   0  0  0  0  0  0  0  0  0  0  0  0
    0.1633    0.5051   -1.2126 C   0  0  0  0  0  0  0  0  0  0  0  0
   -0.7403    1.0788   -1.4225 H   0  0  0  0  0  0  0  0  0  0  0  0
    0.9963    1.2055   -1.1433 H   0  0  0  0  0  0  0  0  0  0  0  0
    0.3872   -0.4256   -2.4006 C   0  0  0  0  0  0  0  0  0  0  0  0
    0.9223   -1.5254   -2.3532 O   0  0  0  0  0  0  0  0  0  0  0  0
   -0.0510    0.0504   -3.5811 O   0  0  0  0  0  0  0  0  0  0  0  0
    0.1332   -0.6344   -4.2248 H   0  0  0  0  0  0  0  0  0  0  0  0
    0.0514    0.7262    1.3278 C   0  0  0  0  0  0  0  0  0  0  0  0
   -0.9027    0.7929    2.1015 O   0  0  0  0  0  0  0  0  0  0  0  0
    1.1492    1.4751    1.4820 N   0  0  0  0  0  0  0  0  0  0  0  0
    1.8648    1.4078    0.7656 H   0  0  0  0  0  0  0  0  0  0  0  0
    1.3512    2.4293    2.5701 C   0  0  0  0  0  0  0  0  0  0  0  0
    1.1689    1.9394    3.5291 H   0  0  0  0  0  0  0  0  0  0  0  0
    2.3728    2.8108    2.5496 H   0  0  0  0  0  0  0  0  0  0  0  0
    0.6528    3.2614    2.4651 H   0  0  0  0  0  0  0  0  0  0  0  0
  5  6  2  0  0  0  0
  5  7  1  0  0  0  0
  2  3  1  0  0  0  0
  2  4  1  0  0  0  0
  2  5  1  0  0  0  0
  1  2  1  0  0  0  0
 18 19  2  0  0  0  0
 18 20  1  0  0  0  0
 16 17  1  0  0  0  0
 14 15  2  0  0  0  0
 14 16  1  0  0  0  0
 11 12  1  0  0  0  0
 11 13  1  0  0  0  0
 11 14  1  0  0  0  0
  9 10  1  0  0  0  0
  9 11  1  0  0  0  0
  9 18  1  0  0  0  0
  7  8  1  0  0  0  0
  7  9  1  0  0  0  0
 22 23  1  0  0  0  0
 22 24  1  0  0  0  0
 22 25  1  0  0  0  0
 20 21  1  0  0  0  0
 20 22  1  0  0  0  0
M  END
$$$$
default_name
  -OEChem-01062215323D

 25 24  0     1  0  0  0  0  0999 V2000
   -2.7826   -3.8464    0.7821 H   0  0  0  0  0  0  0  0  0  0  0  0
   -2.8156   -2.8034    0.4711 C   0  0  0  0  0  0  0  0  0  0  0  0
   -3.4336   -2.2354    1.1641 H   0  0  0  0  0  0  0  0  0  0  0  0
   -3.2256   -2.7344   -0.5349 H   0  0  0  0  0  0  0  0  0  0  0  0
   -1.4126   -2.2444    0.4801 C   0  0  0  0  0  0  0  0  0  0  0  0
   -0.4686   -2.9534    0.8001 O   0  0  0  0  0  0  0  0  0  0  0  0
   -1.2736   -0.9704    0.1241 N   0  0  0  0  0  0  0  0  0  0  0  0
   -2.0996   -0.4354   -0.1019 H   0  0  0  0  0  0  0  0  0  0  0  0
   -0.0016   -0.2394    0.1271 C   0  0  1  0  0  0  0  0  0  0  0  0
    0.8120   -0.9607    0.2318 H   0  0  0  0  0  0  0  0  0  0  0  0
    0.1633    0.5051   -1.2126 C   0  0  0  0  0  0  0  0  0  0  0  0
   -0.7403    1.0788   -1.4225 H   0  0  0  0  0  0  0  0  0  0  0  0
    0.9963    1.2055   -1.1433 H   0  0  0  0  0  0  0  0  0  0  0  0
    0.3872   -0.4256   -2.4006 C   0  0  0  0  0  0  0  0  0  0  0  0
    0.9223   -1.5254   -2.3532 O   0  0  0  0  0  0  0  0  0  0  0  0
   -0.0510    0.0504   -3.5811 O   0  0  0  0  0  0  0  0  0  0  0  0
    0.1332   -0.6344   -4.2248 H   0  0  0  0  0  0  0  0  0  0  0  0
    0.0514    0.7262    1.3278 C   0  0  0  0  0  0  0  0  0  0  0  0
   -0.7575    0.6044    2.2467 O   0  0  0  0  0  0  0  0  0  0  0  0
    0.9865    1.6828    1.3221 N   0  0  0  0  0  0  0  0  0  0  0  0
    1.5745    1.7562    0.4982 H   0  0  0  0  0  0  0  0  0  0  0  0
    1.1674    2.6666    2.3875 C   0  0  0  0  0  0  0  0  0  0  0  0
    1.2460    2.1573    3.3505 H   0  0  0  0  0  0  0  0  0  0  0  0
    2.0743    3.2467    2.2123 H   0  0  0  0  0  0  0  0  0  0  0  0
    0.3086    3.3393    2.4177 H   0  0  0  0  0  0  0  0  0  0  0  0
  5  6  2  0  0  0  0
  5  7  1  0  0  0  0
  2  3  1  0  0  0  0
  2  4  1  0  0  0  0
  2  5  1  0  0  0  0
  1  2  1  0  0  0  0
 18 19  2  0  0  0  0
 18 20  1  0  0  0  0
 16 17  1  0  0  0  0
 14 15  2  0  0  0  0
 14 16  1  0  0  0  0
 11 12  1  0  0  0  0
 11 13  1  0  0  0  0
 11 14  1  0  0  0  0
  9 10  1  0  0  0  0
  9 11  1  0  0  0  0
  9 18  1  0  0  0  0
  7  8  1  0  0  0  0
  7  9  1  0  0  0  0
 22 23  1  0  0  0  0
 22 24  1  0  0  0  0
 22 25  1  0  0  0  0
 20 21  1  0  0  0  0
 20 22  1  0  0  0  0
M  END
$$$$
default_name
  -OEChem-01062215323D

 25 24  0     1  0  0  0  0  0999 V2000
   -2.7826   -3.8464    0.7821 H   0  0  0  0  0  0  0  0  0  0  0  0
   -2.8156   -2.8034    0.4711 C   0  0  0  0  0  0  0  0  0  0  0  0
   -3.4336   -2.2354    1.1641 H   0  0  0  0  0  0  0  0  0  0  0  0
   -3.2256   -2.7344   -0.5349 H   0  0  0  0  0  0  0  0  0  0  0  0
   -1.4126   -2.2444    0.4801 C   0  0  0  0  0  0  0  0  0  0  0  0
   -0.4686   -2.9534    0.8001 O   0  0  0  0  0  0  0  0  0  0  0  0
   -1.2736   -0.9704    0.1241 N   0  0  0  0  0  0  0  0  0  0  0  0
   -2.0996   -0.4354   -0.1019 H   0  0  0  0  0  0  0  0  0  0  0  0
   -0.0016   -0.2394    0.1271 C   0  0  1  0  0  0  0  0  0  0  0  0
    0.8120   -0.9607    0.2318 H   0  0  0  0  0  0  0  0  0  0  0  0
    0.1633    0.5051   -1.2126 C   0  0  0  0  0  0  0  0  0  0  0  0
   -0.7403    1.0788   -1.4225 H   0  0  0  0  0  0  0  0  0  0  0  0
    0.9963    1.2055   -1.1433 H   0  0  0  0  0  0  0  0  0  0  0  0
    0.3872   -0.4256   -2.4006 C   0  0  0  0  0  0  0  0  0  0  0  0
    0.9223   -1.5254   -2.3532 O   0  0  0  0  0  0  0  0  0  0  0  0
   -0.0510    0.0504   -3.5811 O   0  0  0  0  0  0  0  0  0  0  0  0
    0.1332   -0.6344   -4.2248 H   0  0  0  0  0  0  0  0  0  0  0  0
    0.0514    0.7262    1.3278 C   0  0  0  0  0  0  0  0  0  0  0  0
   -0.5558    0.4504    2.3616 O   0  0  0  0  0  0  0  0  0  0  0  0
    0.7616    1.8522    1.1959 N   0  0  0  0  0  0  0  0  0  0  0  0
    1.1806    2.0366    0.2901 H   0  0  0  0  0  0  0  0  0  0  0  0
    0.9125    2.8603    2.2429 C   0  0  0  0  0  0  0  0  0  0  0  0
    1.2477    2.3849    3.1673 H   0  0  0  0  0  0  0  0  0  0  0  0
    1.6435    3.6105    1.9387 H   0  0  0  0  0  0  0  0  0  0  0  0
   -0.0474    3.3456    2.4283 H   0  0  0  0  0  0  0  0  0  0  0  0
  5  6  2  0  0  0  0
  5  7  1  0  0  0  0
  2  3  1  0  0  0  0
  2  4  1  0  0  0  0
  2  5  1  0  0  0  0
  1  2  1  0  0  0  0
 18 19  2  0  0  0  0
 18 20  1  0  0  0  0
 16 17  1  0  0  0  0
 14 15  2  0  0  0  0
 14 16  1  0  0  0  0
 11 12  1  0  0  0  0
 11 13  1  0  0  0  0
 11 14  1  0  0  0  0
  9 10  1  0  0  0  0
  9 11  1  0  0  0  0
  9 18  1  0  0  0  0
  7  8  1  0  0  0  0
  7  9  1  0  0  0  0
 22 23  1  0  0  0  0
 22 24  1  0  0  0  0
 22 25  1  0  0  0  0
 20 21  1  0  0  0  0
 20 22  1  0  0  0  0
M  END
$$$$
default_name
  -OEChem-01062215323D

 25 24  0     1  0  0  0  0  0999 V2000
   -2.7826   -3.8464    0.7821 H   0  0  0  0  0  0  0  0  0  0  0  0
   -2.8156   -2.8034    0.4711 C   0  0  0  0  0  0  0  0  0  0  0  0
   -3.4336   -2.2354    1.1641 H   0  0  0  0  0  0  0  0  0  0  0  0
   -3.2256   -2.7344   -0.5349 H   0  0  0  0  0  0  0  0  0  0  0  0
   -1.4126   -2.2444    0.4801 C   0  0  0  0  0  0  0  0  0  0  0  0
   -0.4686   -2.9534    0.8001 O   0  0  0  0  0  0  0  0  0  0  0  0
   -1.2736   -0.9704    0.1241 N   0  0  0  0  0  0  0  0  0  0  0  0
   -2.0996   -0.4354   -0.1019 H   0  0  0  0  0  0  0  0  0  0  0  0
   -0.0016   -0.2394    0.1271 C   0  0  1  0  0  0  0  0  0  0  0  0
    0.8120   -0.9607    0.2318 H   0  0  0  0  0  0  0  0  0  0  0  0
    0.1633    0.5051   -1.2126 C   0  0  0  0  0  0  0  0  0  0  0  0
   -0.7403    1.0788   -1.4225 H   0  0  0  0  0  0  0  0  0  0  0  0
    0.9963    1.2055   -1.1433 H   0  0  0  0  0  0  0  0  0  0  0  0
    0.3872   -0.4256   -2.4006 C   0  0  0  0  0  0  0  0  0  0  0  0
    0.9223   -1.5254   -2.3532 O   0  0  0  0  0  0  0  0  0  0  0  0
   -0.0510    0.0504   -3.5811 O   0  0  0  0  0  0  0  0  0  0  0  0
    0.1332   -0.6344   -4.2248 H   0  0  0  0  0  0  0  0  0  0  0  0
    0.0514    0.7262    1.3278 C   0  0  0  0  0  0  0  0  0  0  0  0
   -0.3112    0.3412    2.4386 O   0  0  0  0  0  0  0  0  0  0  0  0
    0.4898    1.9715    1.1119 N   0  0  0  0  0  0  0  0  0  0  0  0
    0.7098    2.2299    0.1555 H   0  0  0  0  0  0  0  0  0  0  0  0
    0.6037    2.9974    2.1464 C   0  0  0  0  0  0  0  0  0  0  0  0
    1.1737    2.6068    2.9922 H   0  0  0  0  0  0  0  0  0  0  0  0
    1.1096    3.8776    1.7476 H   0  0  0  0  0  0  0  0  0  0  0  0
   -0.3907    3.2799    2.4964 H   0  0  0  0  0  0  0  0  0  0  0  0
  5  6  2  0  0  0  0
  5  7  1  0  0  0  0
  2  3  1  0  0  0  0
  2  4  1  0  0  0  0
  2  5  1  0  0  0  0
  1  2  1  0  0  0  0
 18 19  2  0  0  0  0
 18 20  1  0  0  0  0
 16 17  1  0  0  0  0
 14 15  2  0  0  0  0
 14 16  1  0  0  0  0
 11 12  1  0  0  0  0
 11 13  1  0  0  0  0
 11 14  1  0  0  0  0
  9 10  1  0  0  0  0
  9 11  1  0  0  0  0
  9 18  1  0  0  0  0
  7  8  1  0  0  0  0
  7  9  1  0  0  0  0
 22 23  1  0  0  0  0
 22 24  1  0  0  0  0
 22 25  1  0  0  0  0
 20 21  1  0  0  0  0
 20 22  1  0  0  0  0
M  END
$$$$
default_name
  -OEChem-01062215323D

 25 24  0     1  0  0  0  0  0999 V2000
   -2.7826   -3.8464    0.7821 H   0  0  0  0  0  0  0  0  0  0  0  0
   -2.8156   -2.8034    0.4711 C   0  0  0  0  0  0  0  0  0  0  0  0
   -3.4336   -2.2354    1.1641 H   0  0  0  0  0  0  0  0  0  0  0  0
   -3.2256   -2.7344   -0.5349 H   0  0  0  0  0  0  0  0  0  0  0  0
   -1.4126   -2.2444    0.4801 C   0  0  0  0  0  0  0  0  0  0  0  0
   -0.4686   -2.9534    0.8001 O   0  0  0  0  0  0  0  0  0  0  0  0
   -1.2736   -0.9704    0.1241 N   0  0  0  0  0  0  0  0  0  0  0  0
   -2.0996   -0.4354   -0.1019 H   0  0  0  0  0  0  0  0  0  0  0  0
   -0.0016   -0.2394    0.1271 C   0  0  1  0  0  0  0  0  0  0  0  0
    0.8120   -0.9607    0.2318 H   0  0  0  0  0  0  0  0  0  0  0  0
    0.1633    0.5051   -1.2126 C   0  0  0  0  0  0  0  0  0  0  0  0
   -0.7403    1.0788   -1.4225 H   0  0  0  0  0  0  0  0  0  0  0  0
    0.9963    1.2055   -1.1433 H   0  0  0  0  0  0  0  0  0  0  0  0
    0.3872   -0.4256   -2.4006 C   0  0  0  0  0  0  0  0  0  0  0  0
    0.9223   -1.5254   -2.3532 O   0  0  0  0  0  0  0  0  0  0  0  0
   -0.0510    0.0504   -3.5811 O   0  0  0  0  0  0  0  0  0  0  0  0
    0.1332   -0.6344   -4.2248 H   0  0  0  0  0  0  0  0  0  0  0  0
    0.0514    0.7262    1.3278 C   0  0  0  0  0  0  0  0  0  0  0  0
   -0.0404    0.2844    2.4723 O   0  0  0  0  0  0  0  0  0  0  0  0
    0.1896    2.0327    1.0760 N   0  0  0  0  0  0  0  0  0  0  0  0
    0.1943    2.3229    0.1035 H   0  0  0  0  0  0  0  0  0  0  0  0
    0.2622    3.0684    2.1044 C   0  0  0  0  0  0  0  0  0  0  0  0
    1.0291    2.8077    2.8370 H   0  0  0  0  0  0  0  0  0  0  0  0
    0.5091    4.0296    1.6518 H   0  0  0  0  0  0  0  0  0  0  0  0
   -0.6980    3.1466    2.6172 H   0  0  0  0  0  0  0  0  0  0  0  0
  5  6  2  0  0  0  0
  5  7  1  0  0  0  0
  2  3  1  0  0  0  0
  2  4  1  0  0  0  0
  2  5  1  0  0  0  0
  1  2  1  0  0  0  0
 18 19  2  0  0  0  0
 18 20  1  0  0  0  0
 16 17  1  0  0  0  0
 14 15  2  0  0  0  0
 14 16  1  0  0  0  0
 11 12  1  0  0  0  0
 11 13  1  0  0  0  0
 11 14  1  0  0  0  0
  9 10  1  0  0  0  0
  9 11  1  0  0  0  0
  9 18  1  0  0  0  0
  7  8  1  0  0  0  0
  7  9  1  0  0  0  0
 22 23  1  0  0  0  0
 22 24  1  0  0  0  0
 22 25  1  0  0  0  0
 20 21  1  0  0  0  0
 20 22  1  0  0  0  0
M  END
$$$$
default_name
  -OEChem-01062215323D

 25 24  0     1  0  0  0  0  0999 V2000
   -2.7826   -3.8464    0.7821 H   0  0  0  0  0  0  0  0  0  0  0  0
   -2.8156   -2.8034    0.4711 C   0  0  0  0  0  0  0  0  0  0  0  0
   -3.4336   -2.2354    1.1641 H   0  0  0  0  0  0  0  0  0  0  0  0
   -3.2256   -2.7344   -0.5349 H   0  0  0  0  0  0  0  0  0  0  0  0
   -1.4126   -2.2444    0.4801 C   0  0  0  0  0  0  0  0  0  0  0  0
   -0.4686   -2.9534    0.8001 O   0  0  0  0  0  0  0  0  0  0  0  0
   -1.2736   -0.9704    0.1241 N   0  0  0  0  0  0  0  0  0  0  0  0
   -2.0996   -0.4354   -0.1019 H   0  0  0  0  0  0  0  0  0  0  0  0
   -0.0016   -0.2394    0.1271 C   0  0  1  0  0  0  0  0  0  0  0  0
    0.8120   -0.9607    0.2318 H   0  0  0  0  0  0  0  0  0  0  0  0
    0.1633    0.5051   -1.2126 C   0  0  0  0  0  0  0  0  0  0  0  0
   -0.7403    1.0788   -1.4225 H   0  0  0  0  0  0  0  0  0  0  0  0
    0.9963    1.2055   -1.1433 H   0  0  0  0  0  0  0  0  0  0  0  0
    0.3872   -0.4256   -2.4006 C   0  0  0  0  0  0  0  0  0  0  0  0
    0.9223   -1.5254   -2.3532 O   0  0  0  0  0  0  0  0  0  0  0  0
   -0.0510    0.0504   -3.5811 O   0  0  0  0  0  0  0  0  0  0  0  0
    0.1332   -0.6344   -4.2248 H   0  0  0  0  0  0  0  0  0  0  0  0
    0.0514    0.7262    1.3278 C   0  0  0  0  0  0  0  0  0  0  0  0
    0.2380    0.2838    2.4605 O   0  0  0  0  0  0  0  0  0  0  0  0
   -0.1186    2.0317    1.0904 N   0  0  0  0  0  0  0  0  0  0  0  0
   -0.3308    2.3093    0.1377 H   0  0  0  0  0  0  0  0  0  0  0  0
   -0.0888    3.0685    2.1198 C   0  0  0  0  0  0  0  0  0  0  0  0
    0.8238    2.9740    2.7123 H   0  0  0  0  0  0  0  0  0  0  0  0
   -0.1171    4.0563    1.6581 H   0  0  0  0  0  0  0  0  0  0  0  0
   -0.9484    2.9548    2.7825 H   0  0  0  0  0  0  0  0  0  0  0  0
  5  6  2  0  0  0  0
  5  7  1  0  0  0  0
  2  3  1  0  0  0  0
  2  4  1  0  0  0  0
  2  5  1  0  0  0  0
  1  2  1  0  0  0  0
 18 19  2  0  0  0  0
 18 20  1  0  0  0  0
 16 17  1  0  0  0  0
 14 15  2  0  0  0  0
 14 16  1  0  0  0  0
 11 12  1  0  0  0  0
 11 13  1  0  0  0  0
 11 14  1  0  0  0  0
  9 10  1  0  0  0  0
  9 11  1  0  0  0  0
  9 18  1  0  0  0  0
  7  8  1  0  0  0  0
  7  9  1  0  0  0  0
 22 23  1  0  0  0  0
 22 24  1  0  0  0  0
 22 25  1  0  0  0  0
 20 21  1  0  0  0  0
 20 22  1  0  0  0  0
M  END
$$$$
default_name
  -OEChem-01062215323D

 25 24  0     1  0  0  0  0  0999 V2000
   -2.7826   -3.8464    0.7821 H   0  0  0  0  0  0  0  0  0  0  0  0
   -2.8156   -2.8034    0.4711 C   0  0  0  0  0  0  0  0  0  0  0  0
   -3.4336   -2.2354    1.1641 H   0  0  0  0  0  0  0  0  0  0  0  0
   -3.2256   -2.7344   -0.5349 H   0  0  0  0  0  0  0  0  0  0  0  0
   -1.4126   -2.2444    0.4801 C   0  0  0  0  0  0  0  0  0  0  0  0
   -0.4686   -2.9534    0.8001 O   0  0  0  0  0  0  0  0  0  0  0  0
   -1.2736   -0.9704    0.1241 N   0  0  0  0  0  0  0  0  0  0  0  0
   -2.0996   -0.4354   -0.1019 H   0  0  0  0  0  0  0  0  0  0  0  0
   -0.0016   -0.2394    0.1271 C   0  0  1  0  0  0  0  0  0  0  0  0
    0.8120   -0.9607    0.2318 H   0  0  0  0  0  0  0  0  0  0  0  0
    0.1633    0.5051   -1.2126 C   0  0  0  0  0  0  0  0  0  0  0  0
   -0.7403    1.0788   -1.4225 H   0  0  0  0  0  0  0  0  0  0  0  0
    0.9963    1.2055   -1.1433 H   0  0  0  0  0  0  0  0  0  0  0  0
    0.3872   -0.4256   -2.4006 C   0  0  0  0  0  0  0  0  0  0  0  0
    0.9223   -1.5254   -2.3532 O   0  0  0  0  0  0  0  0  0  0  0  0
   -0.0510    0.0504   -3.5811 O   0  0  0  0  0  0  0  0  0  0  0  0
    0.1332   -0.6344   -4.2248 H   0  0  0  0  0  0  0  0  0  0  0  0
    0.0514    0.7262    1.3278 C   0  0  0  0  0  0  0  0  0  0  0  0
    0.5051    0.3394    2.4040 O   0  0  0  0  0  0  0  0  0  0  0  0
   -0.4137    1.9684    1.1543 N   0  0  0  0  0  0  0  0  0  0  0  0
   -0.8298    2.1900    0.2557 H   0  0  0  0  0  0  0  0  0  0  0  0
   -0.4253    2.9978    2.1916 C   0  0  0  0  0  0  0  0  0  0  0  0
    0.5718    3.0944    2.6267 H   0  0  0  0  0  0  0  0  0  0  0  0
   -0.7264    3.9558    1.7658 H   0  0  0  0  0  0  0  0  0  0  0  0
   -1.1248    2.7175    2.9811 H   0  0  0  0  0  0  0  0  0  0  0  0
  5  6  2  0  0  0  0
  5  7  1  0  0  0  0
  2  3  1  0  0  0  0
  2  4  1  0  0  0  0
  2  5  1  0  0  0  0
  1  2  1  0  0  0  0
 18 19  2  0  0  0  0
 18 20  1  0  0  0  0
 16 17  1  0  0  0  0
 14 15  2  0  0  0  0
 14 16  1  0  0  0  0
 11 12  1  0  0  0  0
 11 13  1  0  0  0  0
 11 14  1  0  0  0  0
  9 10  1  0  0  0  0
  9 11  1  0  0  0  0
  9 18  1  0  0  0  0
  7  8  1  0  0  0  0
  7  9  1  0  0  0  0
 22 23  1  0  0  0  0
 22 24  1  0  0  0  0
 22 25  1  0  0  0  0
 20 21  1  0  0  0  0
 20 22  1  0  0  0  0
M  END
$$$$
default_name
  -OEChem-01062215323D

 25 24  0     1  0  0  0  0  0999 V2000
   -2.7826   -3.8464    0.7821 H   0  0  0  0  0  0  0  0  0  0  0  0
   -2.8156   -2.8034    0.4711 C   0  0  0  0  0  0  0  0  0  0  0  0
   -3.4336   -2.2354    1.1641 H   0  0  0  0  0  0  0  0  0  0  0  0
   -3.2256   -2.7344   -0.5349 H   0  0  0  0  0  0  0  0  0  0  0  0
   -1.4126   -2.2444    0.4801 C   0  0  0  0  0  0  0  0  0  0  0  0
   -0.4686   -2.9534    0.8001 O   0  0  0  0  0  0  0  0  0  0  0  0
   -1.2736   -0.9704    0.1241 N   0  0  0  0  0  0  0  0  0  0  0  0
   -2.0996   -0.4354   -0.1019 H   0  0  0  0  0  0  0  0  0  0  0  0
   -0.0016   -0.2394    0.1271 C   0  0  1  0  0  0  0  0  0  0  0  0
    0.8120   -0.9607    0.2318 H   0  0  0  0  0  0  0  0  0  0  0  0
    0.1633    0.5051   -1.2126 C   0  0  0  0  0  0  0  0  0  0  0  0
   -0.7403    1.0788   -1.4225 H   0  0  0  0  0  0  0  0  0  0  0  0
    0.9963    1.2055   -1.1433 H   0  0  0  0  0  0  0  0  0  0  0  0
    0.3872   -0.4256   -2.4006 C   0  0  0  0  0  0  0  0  0  0  0  0
    0.9223   -1.5254   -2.3532 O   0  0  0  0  0  0  0  0  0  0  0  0
   -0.0510    0.0504   -3.5811 O   0  0  0  0  0  0  0  0  0  0  0  0
    0.1332   -0.6344   -4.2248 H   0  0  0  0  0  0  0  0  0  0  0  0
    0.0514    0.7262    1.3278 C   0  0  0  0  0  0  0  0  0  0  0  0
    0.7428    0.4475    2.3065 O   0  0  0  0  0  0  0  0  0  0  0  0
   -0.6756    1.8473    1.2634 N   0  0  0  0  0  0  0  0  0  0  0  0
   -1.2686    1.9731    0.4494 H   0  0  0  0  0  0  0  0  0  0  0  0
   -0.7245    2.8609    2.3148 C   0  0  0  0  0  0  0  0  0  0  0  0
    0.2902    3.1606    2.5858 H   0  0  0  0  0  0  0  0  0  0  0  0
   -1.2771    3.7349    1.9678 H   0  0  0  0  0  0  0  0  0  0  0  0
   -1.2153    2.4511    3.1993 H   0  0  0  0  0  0  0  0  0  0  0  0
  5  6  2  0  0  0  0
  5  7  1  0  0  0  0
  2  3  1  0  0  0  0
  2  4  1  0  0  0  0
  2  5  1  0  0  0  0
  1  2  1  0  0  0  0
 18 19  2  0  0  0  0
 18 20  1  0  0  0  0
 16 17  1  0  0  0  0
 14 15  2  0  0  0  0
 14 16  1  0  0  0  0
 11 12  1  0  0  0  0
 11 13  1  0  0  0  0
 11 14  1  0  0  0  0
  9 10  1  0  0  0  0
  9 11  1  0  0  0  0
  9 18  1  0  0  0  0
  7  8  1  0  0  0  0
  7  9  1  0  0  0  0
 22 23  1  0  0  0  0
 22 24  1  0  0  0  0
 22 25  1  0  0  0  0
 20 21  1  0  0  0  0
 20 22  1  0  0  0  0
M  END
$$$$
default_name
  -OEChem-01062215323D

 25 24  0     1  0  0  0  0  0999 V2000
   -2.7826   -3.8464    0.7821 H   0  0  0  0  0  0  0  0  0  0  0  0
   -2.8156   -2.8034    0.4711 C   0  0  0  0  0  0  0  0  0  0  0  0
   -3.4336   -2.2354    1.1641 H   0  0  0  0  0  0  0  0  0  0  0  0
   -3.2256   -2.7344   -0.5349 H   0  0  0  0  0  0  0  0  0  0  0  0
   -1.4126   -2.2444    0.4801 C   0  0  0  0  0  0  0  0  0  0  0  0
   -0.4686   -2.9534    0.8001 O   0  0  0  0  0  0  0  0  0  0  0  0
   -1.2736   -0.9704    0.1241 N   0  0  0  0  0  0  0  0  0  0  0  0
   -2.0996   -0.4354   -0.1019 H   0  0  0  0  0  0  0  0  0  0  0  0
   -0.0016   -0.2394    0.1271 C   0  0  1  0  0  0  0  0  0  0  0  0
    0.8120   -0.9607    0.2318 H   0  0  0  0  0  0  0  0  0  0  0  0
    0.1633    0.5051   -1.2126 C   0  0  0  0  0  0  0  0  0  0  0  0
   -0.7403    1.0788   -1.4225 H   0  0  0  0  0  0  0  0  0  0  0  0
    0.9963    1.2055   -1.1433 H   0  0  0  0  0  0  0  0  0  0  0  0
    0.3872   -0.4256   -2.4006 C   0  0  0  0  0  0  0  0  0  0  0  0
    0.9223   -1.5254   -2.3532 O   0  0  0  0  0  0  0  0  0  0  0  0
   -0.0510    0.0504   -3.5811 O   0  0  0  0  0  0  0  0  0  0  0  0
    0.1332   -0.6344   -4.2248 H   0  0  0  0  0  0  0  0  0  0  0  0
    0.0514    0.7262    1.3278 C   0  0  0  0  0  0  0  0  0  0  0  0
    0.9348    0.6007    2.1749 O   0  0  0  0  0  0  0  0  0  0  0  0
   -0.8865    1.6765    1.4100 N   0  0  0  0  0  0  0  0  0  0  0  0
   -1.6173    1.6735    0.7058 H   0  0  0  0  0  0  0  0  0  0  0  0
   -0.9659    2.6673    2.4812 C   0  0  0  0  0  0  0  0  0  0  0  0
   -0.0018    3.1682    2.5927 H   0  0  0  0  0  0  0  0  0  0  0  0
   -1.7318    3.4088    2.2502 H   0  0  0  0  0  0  0  0  0  0  0  0
   -1.2135    2.1735    3.4225 H   0  0  0  0  0  0  0  0  0  0  0  0
  5  6  2  0  0  0  0
  5  7  1  0  0  0  0
  2  3  1  0  0  0  0
  2  4  1  0  0  0  0
  2  5  1  0  0  0  0
  1  2  1  0  0  0  0
 18 19  2  0  0  0  0
 18 20  1  0  0  0  0
 16 17  1  0  0  0  0
 14 15  2  0  0  0  0
 14 16  1  0  0  0  0
 11 12  1  0  0  0  0
 11 13  1  0  0  0  0
 11 14  1  0  0  0  0
  9 10  1  0  0  0  0
  9 11  1  0  0  0  0
  9 18  1  0  0  0  0
  7  8  1  0  0  0  0
  7  9  1  0  0  0  0
 22 23  1  0  0  0  0
 22 24  1  0  0  0  0
 22 25  1  0  0  0  0
 20 21  1  0  0  0  0
 20 22  1  0  0  0  0
M  END
$$$$
default_name
  -OEChem-01062215323D

 25 24  0     1  0  0  0  0  0999 V2000
   -2.7826   -3.8464    0.7821 H   0  0  0  0  0  0  0  0  0  0  0  0
   -2.8156   -2.8034    0.4711 C   0  0  0  0  0  0  0  0  0  0  0  0
   -3.4336   -2.2354    1.1641 H   0  0  0  0  0  0  0  0  0  0  0  0
   -3.2256   -2.7344   -0.5349 H   0  0  0  0  0  0  0  0  0  0  0  0
   -1.4126   -2.2444    0.4801 C   0  0  0  0  0  0  0  0  0  0  0  0
   -0.4686   -2.9534    0.8001 O   0  0  0  0  0  0  0  0  0  0  0  0
   -1.2736   -0.9704    0.1241 N   0  0  0  0  0  0  0  0  0  0  0  0
   -2.0996   -0.4354   -0.1019 H   0  0  0  0  0  0  0  0  0  0  0  0
   -0.0016   -0.2394    0.1271 C   0  0  1  0  0  0  0  0  0  0  0  0
    0.8120   -0.9607    0.2318 H   0  0  0  0  0  0  0  0  0  0  0  0
    0.1633    0.5051   -1.2126 C   0  0  0  0  0  0  0  0  0  0  0  0
   -0.7403    1.0788   -1.4225 H   0  0  0  0  0  0  0  0  0  0  0  0
    0.9963    1.2055   -1.1433 H   0  0  0  0  0  0  0  0  0  0  0  0
    0.3872   -0.4256   -2.4006 C   0  0  0  0  0  0  0  0  0  0  0  0
    0.9223   -1.5254   -2.3532 O   0  0  0  0  0  0  0  0  0  0  0  0
   -0.0510    0.0504   -3.5811 O   0  0  0  0  0  0  0  0  0  0  0  0
    0.1332   -0.6344   -4.2248 H   0  0  0  0  0  0  0  0  0  0  0  0
    0.0514    0.7262    1.3278 C   0  0  0  0  0  0  0  0  0  0  0  0
    1.0680    0.7885    2.0179 O   0  0  0  0  0  0  0  0  0  0  0  0
   -1.0321    1.4677    1.5844 N   0  0  0  0  0  0  0  0  0  0  0  0
   -1.8521    1.3115    1.0073 H   0  0  0  0  0  0  0  0  0  0  0  0
   -1.1332    2.4302    2.6793 C   0  0  0  0  0  0  0  0  0  0  0  0
   -0.2843    3.1166    2.6466 H   0  0  0  0  0  0  0  0  0  0  0  0
   -2.0595    2.9996    2.5938 H   0  0  0  0  0  0  0  0  0  0  0  0
   -1.1197    1.9038    3.6352 H   0  0  0  0  0  0  0  0  0  0  0  0
  5  6  2  0  0  0  0
  5  7  1  0  0  0  0
  2  3  1  0  0  0  0
  2  4  1  0  0  0  0
  2  5  1  0  0  0  0
  1  2  1  0  0  0  0
 18 19  2  0  0  0  0
 18 20  1  0  0  0  0
 16 17  1  0  0  0  0
 14 15  2  0  0  0  0
 14 16  1  0  0  0  0
 11 12  1  0  0  0  0
 11 13  1  0  0  0  0
 11 14  1  0  0  0  0
  9 10  1  0  0  0  0
  9 11  1  0  0  0  0
  9 18  1  0  0  0  0
  7  8  1  0  0  0  0
  7  9  1  0  0  0  0
 22 23  1  0  0  0  0
 22 24  1  0  0  0  0
 22 25  1  0  0  0  0
 20 21  1  0  0  0  0
 20 22  1  0  0  0  0
M  END
$$$$
default_name
  -OEChem-01062215323D

 25 24  0     1  0  0  0  0  0999 V2000
   -2.7826   -3.8464    0.7821 H   0  0  0  0  0  0  0  0  0  0  0  0
   -2.8156   -2.8034    0.4711 C   0  0  0  0  0  0  0  0  0  0  0  0
   -3.4336   -2.2354    1.1641 H   0  0  0  0  0  0  0  0  0  0  0  0
   -3.2256   -2.7344   -0.5349 H   0  0  0  0  0  0  0  0  0  0  0  0
   -1.4126   -2.2444    0.4801 C   0  0  0  0  0  0  0  0  0  0  0  0
   -0.4686   -2.9534    0.8001 O   0  0  0  0  0  0  0  0  0  0  0  0
   -1.2736   -0.9704    0.1241 N   0  0  0  0  0  0  0  0  0  0  0  0
   -2.0996   -0.4354   -0.1019 H   0  0  0  0  0  0  0  0  0  0  0  0
   -0.0016   -0.2394    0.1271 C   0  0  1  0  0  0  0  0  0  0  0  0
    0.8120   -0.9607    0.2318 H   0  0  0  0  0  0  0  0  0  0  0  0
    0.1633    0.5051   -1.2126 C   0  0  0  0  0  0  0  0  0  0  0  0
   -0.7403    1.0788   -1.4225 H   0  0  0  0  0  0  0  0  0  0  0  0
    0.9963    1.2055   -1.1433 H   0  0  0  0  0  0  0  0  0  0  0  0
    0.3872   -0.4256   -2.4006 C   0  0  0  0  0  0  0  0  0  0  0  0
    0.9223   -1.5254   -2.3532 O   0  0  0  0  0  0  0  0  0  0  0  0
   -0.0510    0.0504   -3.5811 O   0  0  0  0  0  0  0  0  0  0  0  0
    0.1332   -0.6344   -4.2248 H   0  0  0  0  0  0  0  0  0  0  0  0
    0.0514    0.7262    1.3278 C   0  0  0  0  0  0  0  0  0  0  0  0
    1.1334    0.9982    1.8464 O   0  0  0  0  0  0  0  0  0  0  0  0
   -1.1023    1.2351    1.7745 N   0  0  0  0  0  0  0  0  0  0  0  0
   -1.9571    0.9118    1.3334 H   0  0  0  0  0  0  0  0  0  0  0  0
   -1.2148    2.1657    2.8956 C   0  0  0  0  0  0  0  0  0  0  0  0
   -0.5379    3.0094    2.7441 H   0  0  0  0  0  0  0  0  0  0  0  0
   -2.2379    2.5352    2.9751 H   0  0  0  0  0  0  0  0  0  0  0  0
   -0.9402    1.6603    3.8231 H   0  0  0  0  0  0  0  0  0  0  0  0
  5  6  2  0  0  0  0
  5  7  1  0  0  0  0
  2  3  1  0  0  0  0
  2  4  1  0  0  0  0
  2  5  1  0  0  0  0
  1  2  1  0  0  0  0
 18 19  2  0  0  0  0
 18 20  1  0  0  0  0
 16 17  1  0  0  0  0
 14 15  2  0  0  0  0
 14 16  1  0  0  0  0
 11 12  1  0  0  0  0
 11 13  1  0  0  0  0
 11 14  1  0  0  0  0
  9 10  1  0  0  0  0
  9 11  1  0  0  0  0
  9 18  1  0  0  0  0
  7  8  1  0  0  0  0
  7  9  1  0  0  0  0
 22 23  1  0  0  0  0
 22 24  1  0  0  0  0
 22 25  1  0  0  0  0
 20 21  1  0  0  0  0
 20 22  1  0  0  0  0
M  END
$$$$
default_name
  -OEChem-01062215323D

 25 24  0     1  0  0  0  0  0999 V2000
   -2.7826   -3.8464    0.7821 H   0  0  0  0  0  0  0  0  0  0  0  0
   -2.8156   -2.8034    0.4711 C   0  0  0  0  0  0  0  0  0  0  0  0
   -3.4336   -2.2354    1.1641 H   0  0  0  0  0  0  0  0  0  0  0  0
   -3.2256   -2.7344   -0.5349 H   0  0  0  0  0  0  0  0  0  0  0  0
   -1.4126   -2.2444    0.4801 C   0  0  0  0  0  0  0  0  0  0  0  0
   -0.4686   -2.9534    0.8001 O   0  0  0  0  0  0  0  0  0  0  0  0
   -1.2736   -0.9704    0.1241 N   0  0  0  0  0  0  0  0  0  0  0  0
   -2.0996   -0.4354   -0.1019 H   0  0  0  0  0  0  0  0  0  0  0  0
   -0.0016   -0.2394    0.1271 C   0  0  1  0  0  0  0  0  0  0  0  0
    0.8120   -0.9607    0.2318 H   0  0  0  0  0  0  0  0  0  0  0  0
    0.1633    0.5051   -1.2126 C   0  0  0  0  0  0  0  0  0  0  0  0
   -0.7403    1.0788   -1.4225 H   0  0  0  0  0  0  0  0  0  0  0  0
    0.9963    1.2055   -1.1433 H   0  0  0  0  0  0  0  0  0  0  0  0
    0.3872   -0.4256   -2.4006 C   0  0  0  0  0  0  0  0  0  0  0  0
    0.9223   -1.5254   -2.3532 O   0  0  0  0  0  0  0  0  0  0  0  0
   -0.0510    0.0504   -3.5811 O   0  0  0  0  0  0  0  0  0  0  0  0
    0.1332   -0.6344   -4.2248 H   0  0  0  0  0  0  0  0  0  0  0  0
    0.0514    0.7262    1.3278 C   0  0  0  0  0  0  0  0  0  0  0  0
    1.1265    1.2154    1.6720 O   0  0  0  0  0  0  0  0  0  0  0  0
   -1.0924    0.9946    1.9675 N   0  0  0  0  0  0  0  0  0  0  0  0
   -1.9251    0.5017    1.6618 H   0  0  0  0  0  0  0  0  0  0  0  0
   -1.2052    1.8918    3.1154 C   0  0  0  0  0  0  0  0  0  0  0  0
   -0.7456    2.8538    2.8784 H   0  0  0  0  0  0  0  0  0  0  0  0
   -2.2548    2.0473    3.3682 H   0  0  0  0  0  0  0  0  0  0  0  0
   -0.6873    1.4596    3.9734 H   0  0  0  0  0  0  0  0  0  0  0  0
  5  6  2  0  0  0  0
  5  7  1  0  0  0  0
  2  3  1  0  0  0  0
  2  4  1  0  0  0  0
  2  5  1  0  0  0  0
  1  2  1  0  0  0  0
 18 19  2  0  0  0  0
 18 20  1  0  0  0  0
 16 17  1  0  0  0  0
 14 15  2  0  0  0  0
 14 16  1  0  0  0  0
 11 12  1  0  0  0  0
 11 13  1  0  0  0  0
 11 14  1  0  0  0  0
  9 10  1  0  0  0  0
  9 11  1  0  0  0  0
  9 18  1  0  0  0  0
  7  8  1  0  0  0  0
  7  9  1  0  0  0  0
 22 23  1  0  0  0  0
 22 24  1  0  0  0  0
 22 25  1  0  0  0  0
 20 21  1  0  0  0  0
 20 22  1  0  0  0  0
M  END
$$$$
default_name
  -OEChem-01062215323D

 25 24  0     1  0  0  0  0  0999 V2000
   -2.7826   -3.8464    0.7821 H   0  0  0  0  0  0  0  0  0  0  0  0
   -2.8156   -2.8034    0.4711 C   0  0  0  0  0  0  0  0  0  0  0  0
   -3.4336   -2.2354    1.1641 H   0  0  0  0  0  0  0  0  0  0  0  0
   -3.2256   -2.7344   -0.5349 H   0  0  0  0  0  0  0  0  0  0  0  0
   -1.4126   -2.2444    0.4801 C   0  0  0  0  0  0  0  0  0  0  0  0
   -0.4686   -2.9534    0.8001 O   0  0  0  0  0  0  0  0  0  0  0  0
   -1.2736   -0.9704    0.1241 N   0  0  0  0  0  0  0  0  0  0  0  0
   -2.0996   -0.4354   -0.1019 H   0  0  0  0  0  0  0  0  0  0  0  0
   -0.0016   -0.2394    0.1271 C   0  0  1  0  0  0  0  0  0  0  0  0
    0.8120   -0.9607    0.2318 H   0  0  0  0  0  0  0  0  0  0  0  0
    0.1633    0.5051   -1.2126 C   0  0  0  0  0  0  0  0  0  0  0  0
   -0.7403    1.0788   -1.4225 H   0  0  0  0  0  0  0  0  0  0  0  0
    0.9963    1.2055   -1.1433 H   0  0  0  0  0  0  0  0  0  0  0  0
    0.3872   -0.4256   -2.4006 C   0  0  0  0  0  0  0  0  0  0  0  0
    0.9223   -1.5254   -2.3532 O   0  0  0  0  0  0  0  0  0  0  0  0
   -0.0510    0.0504   -3.5811 O   0  0  0  0  0  0  0  0  0  0  0  0
    0.1332   -0.6344   -4.2248 H   0  0  0  0  0  0  0  0  0  0  0  0
    0.0514    0.7262    1.3278 C   0  0  0  0  0  0  0  0  0  0  0  0
    1.0477    1.4254    1.5066 O   0  0  0  0  0  0  0  0  0  0  0  0
   -1.0031    0.7626    2.1501 N   0  0  0  0  0  0  0  0  0  0  0  0
   -1.7583    0.1090    1.9702 H   0  0  0  0  0  0  0  0  0  0  0  0
   -1.1051    1.6272    3.3238 C   0  0  0  0  0  0  0  0  0  0  0  0
   -0.8930    2.6604    3.0404 H   0  0  0  0  0  0  0  0  0  0  0  0
   -2.1090    1.5691    3.7463 H   0  0  0  0  0  0  0  0  0  0  0  0
   -0.3781    1.3153    4.0757 H   0  0  0  0  0  0  0  0  0  0  0  0
  5  6  2  0  0  0  0
  5  7  1  0  0  0  0
  2  3  1  0  0  0  0
  2  4  1  0  0  0  0
  2  5  1  0  0  0  0
  1  2  1  0  0  0  0
 18 19  2  0  0  0  0
 18 20  1  0  0  0  0
 16 17  1  0  0  0  0
 14 15  2  0  0  0  0
 14 16  1  0  0  0  0
 11 12  1  0  0  0  0
 11 13  1  0  0  0  0
 11 14  1  0  0  0  0
  9 10  1  0  0  0  0
  9 11  1  0  0  0  0
  9 18  1  0  0  0  0
  7  8  1  0  0  0  0
  7  9  1  0  0  0  0
 22 23  1  0  0  0  0
 22 24  1  0  0  0  0
 22 25  1  0  0  0  0
 20 21  1  0  0  0  0
 20 22  1  0  0  0  0
M  END
$$$$
default_name
  -OEChem-01062215323D

 25 24  0     1  0  0  0  0  0999 V2000
   -2.7826   -3.8464    0.7821 H   0  0  0  0  0  0  0  0  0  0  0  0
   -2.8156   -2.8034    0.4711 C   0  0  0  0  0  0  0  0  0  0  0  0
   -3.4336   -2.2354    1.1641 H   0  0  0  0  0  0  0  0  0  0  0  0
   -3.2256   -2.7344   -0.5349 H   0  0  0  0  0  0  0  0  0  0  0  0
   -1.4126   -2.2444    0.4801 C   0  0  0  0  0  0  0  0  0  0  0  0
   -0.4686   -2.9534    0.8001 O   0  0  0  0  0  0  0  0  0  0  0  0
   -1.2736   -0.9704    0.1241 N   0  0  0  0  0  0  0  0  0  0  0  0
   -2.0996   -0.4354   -0.1019 H   0  0  0  0  0  0  0  0  0  0  0  0
   -0.0016   -0.2394    0.1271 C   0  0  1  0  0  0  0  0  0  0  0  0
    0.8120   -0.9607    0.2318 H   0  0  0  0  0  0  0  0  0  0  0  0
    0.1633    0.5051   -1.2126 C   0  0  0  0  0  0  0  0  0  0  0  0
   -0.7403    1.0788   -1.4225 H   0  0  0  0  0  0  0  0  0  0  0  0
    0.9963    1.2055   -1.1433 H   0  0  0  0  0  0  0  0  0  0  0  0
    0.3872   -0.4256   -2.4006 C   0  0  0  0  0  0  0  0  0  0  0  0
    0.9223   -1.5254   -2.3532 O   0  0  0  0  0  0  0  0  0  0  0  0
   -0.0510    0.0504   -3.5811 O   0  0  0  0  0  0  0  0  0  0  0  0
    0.1332   -0.6344   -4.2248 H   0  0  0  0  0  0  0  0  0  0  0  0
    0.0514    0.7262    1.3278 C   0  0  0  0  0  0  0  0  0  0  0  0
    0.9025    1.6139    1.3614 O   0  0  0  0  0  0  0  0  0  0  0  0
   -0.8405    0.5548    2.3100 N   0  0  0  0  0  0  0  0  0  0  0  0
   -1.4681   -0.2394    2.2375 H   0  0  0  0  0  0  0  0  0  0  0  0
   -0.9214    1.3900    3.5065 C   0  0  0  0  0  0  0  0  0  0  0  0
   -0.9701    2.4425    3.2191 H   0  0  0  0  0  0  0  0  0  0  0  0
   -1.8105    1.1332    4.0837 H   0  0  0  0  0  0  0  0  0  0  0  0
   -0.0339    1.2374    4.1231 H   0  0  0  0  0  0  0  0  0  0  0  0
  5  6  2  0  0  0  0
  5  7  1  0  0  0  0
  2  3  1  0  0  0  0
  2  4  1  0  0  0  0
  2  5  1  0  0  0  0
  1  2  1  0  0  0  0
 18 19  2  0  0  0  0
 18 20  1  0  0  0  0
 16 17  1  0  0  0  0
 14 15  2  0  0  0  0
 14 16  1  0  0  0  0
 11 12  1  0  0  0  0
 11 13  1  0  0  0  0
 11 14  1  0  0  0  0
  9 10  1  0  0  0  0
  9 11  1  0  0  0  0
  9 18  1  0  0  0  0
  7  8  1  0  0  0  0
  7  9  1  0  0  0  0
 22 23  1  0  0  0  0
 22 24  1  0  0  0  0
 22 25  1  0  0  0  0
 20 21  1  0  0  0  0
 20 22  1  0  0  0  0
M  END
$$$$
default_name
  -OEChem-01062215323D

 25 24  0     1  0  0  0  0  0999 V2000
   -2.7826   -3.8464    0.7821 H   0  0  0  0  0  0  0  0  0  0  0  0
   -2.8156   -2.8034    0.4711 C   0  0  0  0  0  0  0  0  0  0  0  0
   -3.4336   -2.2354    1.1641 H   0  0  0  0  0  0  0  0  0  0  0  0
   -3.2256   -2.7344   -0.5349 H   0  0  0  0  0  0  0  0  0  0  0  0
   -1.4126   -2.2444    0.4801 C   0  0  0  0  0  0  0  0  0  0  0  0
   -0.4686   -2.9534    0.8001 O   0  0  0  0  0  0  0  0  0  0  0  0
   -1.2736   -0.9704    0.1241 N   0  0  0  0  0  0  0  0  0  0  0  0
   -2.0996   -0.4354   -0.1019 H   0  0  0  0  0  0  0  0  0  0  0  0
   -0.0016   -0.2394    0.1271 C   0  0  1  0  0  0  0  0  0  0  0  0
    0.8120   -0.9607    0.2318 H   0  0  0  0  0  0  0  0  0  0  0  0
    0.1633    0.5051   -1.2126 C   0  0  0  0  0  0  0  0  0  0  0  0
   -0.7403    1.0788   -1.4225 H   0  0  0  0  0  0  0  0  0  0  0  0
    0.9963    1.2055   -1.1433 H   0  0  0  0  0  0  0  0  0  0  0  0
    0.3872   -0.4256   -2.4006 C   0  0  0  0  0  0  0  0  0  0  0  0
    0.9223   -1.5254   -2.3532 O   0  0  0  0  0  0  0  0  0  0  0  0
   -0.0510    0.0504   -3.5811 O   0  0  0  0  0  0  0  0  0  0  0  0
    0.1332   -0.6344   -4.2248 H   0  0  0  0  0  0  0  0  0  0  0  0
    0.0514    0.7262    1.3278 C   0  0  0  0  0  0  0  0  0  0  0  0
    0.7008    1.7680    1.2465 O   0  0  0  0  0  0  0  0  0  0  0  0
   -0.6156    0.3855    2.4362 N   0  0  0  0  0  0  0  0  0  0  0  0
   -1.0741   -0.5198    2.4456 H   0  0  0  0  0  0  0  0  0  0  0  0
   -0.6664    1.1962    3.6510 C   0  0  0  0  0  0  0  0  0  0  0  0
   -0.9718    2.2149    3.4022 H   0  0  0  0  0  0  0  0  0  0  0  0
   -1.3797    0.7693    4.3572 H   0  0  0  0  0  0  0  0  0  0  0  0
    0.3220    1.2311    4.1125 H   0  0  0  0  0  0  0  0  0  0  0  0
  5  6  2  0  0  0  0
  5  7  1  0  0  0  0
  2  3  1  0  0  0  0
  2  4  1  0  0  0  0
  2  5  1  0  0  0  0
  1  2  1  0  0  0  0
 18 19  2  0  0  0  0
 18 20  1  0  0  0  0
 16 17  1  0  0  0  0
 14 15  2  0  0  0  0
 14 16  1  0  0  0  0
 11 12  1  0  0  0  0
 11 13  1  0  0  0  0
 11 14  1  0  0  0  0
  9 10  1  0  0  0  0
  9 11  1  0  0  0  0
  9 18  1  0  0  0  0
  7  8  1  0  0  0  0
  7  9  1  0  0  0  0
 22 23  1  0  0  0  0
 22 24  1  0  0  0  0
 22 25  1  0  0  0  0
 20 21  1  0  0  0  0
 20 22  1  0  0  0  0
M  END
$$$$
default_name
  -OEChem-01062215323D

 25 24  0     1  0  0  0  0  0999 V2000
   -2.7826   -3.8464    0.7821 H   0  0  0  0  0  0  0  0  0  0  0  0
   -2.8156   -2.8034    0.4711 C   0  0  0  0  0  0  0  0  0  0  0  0
   -3.4336   -2.2354    1.1641 H   0  0  0  0  0  0  0  0  0  0  0  0
   -3.2256   -2.7344   -0.5349 H   0  0  0  0  0  0  0  0  0  0  0  0
   -1.4126   -2.2444    0.4801 C   0  0  0  0  0  0  0  0  0  0  0  0
   -0.4686   -2.9534    0.8001 O   0  0  0  0  0  0  0  0  0  0  0  0
   -1.2736   -0.9704    0.1241 N   0  0  0  0  0  0  0  0  0  0  0  0
   -2.0996   -0.4354   -0.1019 H   0  0  0  0  0  0  0  0  0  0  0  0
   -0.0016   -0.2394    0.1271 C   0  0  1  0  0  0  0  0  0  0  0  0
    0.8120   -0.9607    0.2318 H   0  0  0  0  0  0  0  0  0  0  0  0
    0.1633    0.5051   -1.2126 C   0  0  0  0  0  0  0  0  0  0  0  0
   -0.7403    1.0788   -1.4225 H   0  0  0  0  0  0  0  0  0  0  0  0
    0.9963    1.2055   -1.1433 H   0  0  0  0  0  0  0  0  0  0  0  0
    0.3872   -0.4256   -2.4006 C   0  0  0  0  0  0  0  0  0  0  0  0
    0.9223   -1.5254   -2.3532 O   0  0  0  0  0  0  0  0  0  0  0  0
   -0.0510    0.0504   -3.5811 O   0  0  0  0  0  0  0  0  0  0  0  0
    0.1332   -0.6344   -4.2248 H   0  0  0  0  0  0  0  0  0  0  0  0
    0.0514    0.7262    1.3278 C   0  0  0  0  0  0  0  0  0  0  0  0
    0.4562    1.8771    1.1695 O   0  0  0  0  0  0  0  0  0  0  0  0
   -0.3438    0.2661    2.5202 N   0  0  0  0  0  0  0  0  0  0  0  0
   -0.6034   -0.7131    2.5803 H   0  0  0  0  0  0  0  0  0  0  0  0
   -0.3577    1.0591    3.7476 C   0  0  0  0  0  0  0  0  0  0  0  0
   -0.8978    1.9931    3.5773 H   0  0  0  0  0  0  0  0  0  0  0  0
   -0.8458    0.5023    4.5484 H   0  0  0  0  0  0  0  0  0  0  0  0
    0.6653    1.2969    4.0444 H   0  0  0  0  0  0  0  0  0  0  0  0
  5  6  2  0  0  0  0
  5  7  1  0  0  0  0
  2  3  1  0  0  0  0
  2  4  1  0  0  0  0
  2  5  1  0  0  0  0
  1  2  1  0  0  0  0
 18 19  2  0  0  0  0
 18 20  1  0  0  0  0
 16 17  1  0  0  0  0
 14 15  2  0  0  0  0
 14 16  1  0  0  0  0
 11 12  1  0  0  0  0
 11 13  1  0  0  0  0
 11 14  1  0  0  0  0
  9 10  1  0  0  0  0
  9 11  1  0  0  0  0
  9 18  1  0  0  0  0
  7  8  1  0  0  0  0
  7  9  1  0  0  0  0
 22 23  1  0  0  0  0
 22 24  1  0  0  0  0
 22 25  1  0  0  0  0
 20 21  1  0  0  0  0
 20 22  1  0  0  0  0
M  END
$$$$
default_name
  -OEChem-01062215323D

 25 24  0     1  0  0  0  0  0999 V2000
   -2.7826   -3.8464    0.7821 H   0  0  0  0  0  0  0  0  0  0  0  0
   -2.8156   -2.8034    0.4711 C   0  0  0  0  0  0  0  0  0  0  0  0
   -3.4336   -2.2354    1.1641 H   0  0  0  0  0  0  0  0  0  0  0  0
   -3.2256   -2.7344   -0.5349 H   0  0  0  0  0  0  0  0  0  0  0  0
   -1.4126   -2.2444    0.4801 C   0  0  0  0  0  0  0  0  0  0  0  0
   -0.4686   -2.9534    0.8001 O   0  0  0  0  0  0  0  0  0  0  0  0
   -1.2736   -0.9704    0.1241 N   0  0  0  0  0  0  0  0  0  0  0  0
   -2.0996   -0.4354   -0.1019 H   0  0  0  0  0  0  0  0  0  0  0  0
   -0.0016   -0.2394    0.1271 C   0  0  1  0  0  0  0  0  0  0  0  0
    0.8120   -0.9607    0.2318 H   0  0  0  0  0  0  0  0  0  0  0  0
    0.1633    0.5051   -1.2126 C   0  0  0  0  0  0  0  0  0  0  0  0
   -0.7403    1.0788   -1.4225 H   0  0  0  0  0  0  0  0  0  0  0  0
    0.9963    1.2055   -1.1433 H   0  0  0  0  0  0  0  0  0  0  0  0
    0.3872   -0.4256   -2.4006 C   0  0  0  0  0  0  0  0  0  0  0  0
    0.9223   -1.5254   -2.3532 O   0  0  0  0  0  0  0  0  0  0  0  0
   -0.0510    0.0504   -3.5811 O   0  0  0  0  0  0  0  0  0  0  0  0
    0.1332   -0.6344   -4.2248 H   0  0  0  0  0  0  0  0  0  0  0  0
    0.0514    0.7262    1.3278 C   0  0  0  0  0  0  0  0  0  0  0  0
    0.1854    1.9339    1.1358 O   0  0  0  0  0  0  0  0  0  0  0  0
   -0.0435    0.2049    2.5562 N   0  0  0  0  0  0  0  0  0  0  0  0
   -0.0879   -0.8061    2.6323 H   0  0  0  0  0  0  0  0  0  0  0  0
   -0.0162    0.9881    3.7896 C   0  0  0  0  0  0  0  0  0  0  0  0
   -0.7532    1.7921    3.7325 H   0  0  0  0  0  0  0  0  0  0  0  0
   -0.2453    0.3502    4.6441 H   0  0  0  0  0  0  0  0  0  0  0  0
    0.9727    1.4302    3.9236 H   0  0  0  0  0  0  0  0  0  0  0  0
  5  6  2  0  0  0  0
  5  7  1  0  0  0  0
  2  3  1  0  0  0  0
  2  4  1  0  0  0  0
  2  5  1  0  0  0  0
  1  2  1  0  0  0  0
 18 19  2  0  0  0  0
 18 20  1  0  0  0  0
 16 17  1  0  0  0  0
 14 15  2  0  0  0  0
 14 16  1  0  0  0  0
 11 12  1  0  0  0  0
 11 13  1  0  0  0  0
 11 14  1  0  0  0  0
  9 10  1  0  0  0  0
  9 11  1  0  0  0  0
  9 18  1  0  0  0  0
  7  8  1  0  0  0  0
  7  9  1  0  0  0  0
 22 23  1  0  0  0  0
 22 24  1  0  0  0  0
 22 25  1  0  0  0  0
 20 21  1  0  0  0  0
 20 22  1  0  0  0  0
M  END
$$$$
default_name
  -OEChem-01062215323D

 25 24  0     1  0  0  0  0  0999 V2000
   -2.7826   -3.8464    0.7821 H   0  0  0  0  0  0  0  0  0  0  0  0
   -2.8156   -2.8034    0.4711 C   0  0  0  0  0  0  0  0  0  0  0  0
   -3.4336   -2.2354    1.1641 H   0  0  0  0  0  0  0  0  0  0  0  0
   -3.2256   -2.7344   -0.5349 H   0  0  0  0  0  0  0  0  0  0  0  0
   -1.4126   -2.2444    0.4801 C   0  0  0  0  0  0  0  0  0  0  0  0
   -0.4686   -2.9534    0.8001 O   0  0  0  0  0  0  0  0  0  0  0  0
   -1.2736   -0.9704    0.1241 N   0  0  0  0  0  0  0  0  0  0  0  0
   -2.0996   -0.4354   -0.1019 H   0  0  0  0  0  0  0  0  0  0  0  0
   -0.0016   -0.2394    0.1271 C   0  0  1  0  0  0  0  0  0  0  0  0
    0.8120   -0.9607    0.2318 H   0  0  0  0  0  0  0  0  0  0  0  0
    0.1633    0.5051   -1.2126 C   0  0  0  0  0  0  0  0  0  0  0  0
   -0.7403    1.0788   -1.4225 H   0  0  0  0  0  0  0  0  0  0  0  0
    0.9963    1.2055   -1.1433 H   0  0  0  0  0  0  0  0  0  0  0  0
    0.3872   -0.4256   -2.4006 C   0  0  0  0  0  0  0  0  0  0  0  0
    0.9223   -1.5254   -2.3532 O   0  0  0  0  0  0  0  0  0  0  0  0
   -0.0510    0.0504   -3.5811 O   0  0  0  0  0  0  0  0  0  0  0  0
    0.1332   -0.6344   -4.2248 H   0  0  0  0  0  0  0  0  0  0  0  0
    0.0514    0.7262    1.3278 C   0  0  0  0  0  0  0  0  0  0  0  0
   -0.0930    1.9346    1.1476 O   0  0  0  0  0  0  0  0  0  0  0  0
    0.2646    0.2059    2.5417 N   0  0  0  0  0  0  0  0  0  0  0  0
    0.4373   -0.7925    2.5981 H   0  0  0  0  0  0  0  0  0  0  0  0
    0.3348    0.9880    3.7742 C   0  0  0  0  0  0  0  0  0  0  0  0
   -0.5479    1.6258    3.8572 H   0  0  0  0  0  0  0  0  0  0  0  0
    0.3809    0.3235    4.6379 H   0  0  0  0  0  0  0  0  0  0  0  0
    1.2231    1.6220    3.7583 H   0  0  0  0  0  0  0  0  0  0  0  0
  5  6  2  0  0  0  0
  5  7  1  0  0  0  0
  2  3  1  0  0  0  0
  2  4  1  0  0  0  0
  2  5  1  0  0  0  0
  1  2  1  0  0  0  0
 18 19  2  0  0  0  0
 18 20  1  0  0  0  0
 16 17  1  0  0  0  0
 14 15  2  0  0  0  0
 14 16  1  0  0  0  0
 11 12  1  0  0  0  0
 11 13  1  0  0  0  0
 11 14  1  0  0  0  0
  9 10  1  0  0  0  0
  9 11  1  0  0  0  0
  9 18  1  0  0  0  0
  7  8  1  0  0  0  0
  7  9  1  0  0  0  0
 22 23  1  0  0  0  0
 22 24  1  0  0  0  0
 22 25  1  0  0  0  0
 20 21  1  0  0  0  0
 20 22  1  0  0  0  0
M  END
$$$$
default_name
  -OEChem-01062215323D

 25 24  0     1  0  0  0  0  0999 V2000
   -2.7826   -3.8464    0.7821 H   0  0  0  0  0  0  0  0  0  0  0  0
   -2.8156   -2.8034    0.4711 C   0  0  0  0  0  0  0  0  0  0  0  0
   -3.4336   -2.2354    1.1641 H   0  0  0  0  0  0  0  0  0  0  0  0
   -3.2256   -2.7344   -0.5349 H   0  0  0  0  0  0  0  0  0  0  0  0
   -1.4126   -2.2444    0.4801 C   0  0  0  0  0  0  0  0  0  0  0  0
   -0.4686   -2.9534    0.8001 O   0  0  0  0  0  0  0  0  0  0  0  0
   -1.2736   -0.9704    0.1241 N   0  0  0  0  0  0  0  0  0  0  0  0
   -2.0996   -0.4354   -0.1019 H   0  0  0  0  0  0  0  0  0  0  0  0
   -0.0016   -0.2394    0.1271 C   0  0  1  0  0  0  0  0  0  0  0  0
    0.8120   -0.9607    0.2318 H   0  0  0  0  0  0  0  0  0  0  0  0
    0.1633    0.5051   -1.2126 C   0  0  0  0  0  0  0  0  0  0  0  0
   -0.7403    1.0788   -1.4225 H   0  0  0  0  0  0  0  0  0  0  0  0
    0.9963    1.2055   -1.1433 H   0  0  0  0  0  0  0  0  0  0  0  0
    0.3872   -0.4256   -2.4006 C   0  0  0  0  0  0  0  0  0  0  0  0
    0.9223   -1.5254   -2.3532 O   0  0  0  0  0  0  0  0  0  0  0  0
   -0.0510    0.0504   -3.5811 O   0  0  0  0  0  0  0  0  0  0  0  0
    0.1332   -0.6344   -4.2248 H   0  0  0  0  0  0  0  0  0  0  0  0
    0.0514    0.7262    1.3278 C   0  0  0  0  0  0  0  0  0  0  0  0
   -0.3601    1.8789    1.2041 O   0  0  0  0  0  0  0  0  0  0  0  0
    0.5597    0.2692    2.4778 N   0  0  0  0  0  0  0  0  0  0  0  0
    0.9362   -0.6732    2.4801 H   0  0  0  0  0  0  0  0  0  0  0  0
    0.6714    1.0588    3.7024 C   0  0  0  0  0  0  0  0  0  0  0  0
   -0.2959    1.5054    3.9429 H   0  0  0  0  0  0  0  0  0  0  0  0
    0.9902    0.4241    4.5301 H   0  0  0  0  0  0  0  0  0  0  0  0
    1.3995    1.8592    3.5597 H   0  0  0  0  0  0  0  0  0  0  0  0
  5  6  2  0  0  0  0
  5  7  1  0  0  0  0
  2  3  1  0  0  0  0
  2  4  1  0  0  0  0
  2  5  1  0  0  0  0
  1  2  1  0  0  0  0
 18 19  2  0  0  0  0
 18 20  1  0  0  0  0
 16 17  1  0  0  0  0
 14 15  2  0  0  0  0
 14 16  1  0  0  0  0
 11 12  1  0  0  0  0
 11 13  1  0  0  0  0
 11 14  1  0  0  0  0
  9 10  1  0  0  0  0
  9 11  1  0  0  0  0
  9 18  1  0  0  0  0
  7  8  1  0  0  0  0
  7  9  1  0  0  0  0
 22 23  1  0  0  0  0
 22 24  1  0  0  0  0
 22 25  1  0  0  0  0
 20 21  1  0  0  0  0
 20 22  1  0  0  0  0
M  END
$$$$
default_name
  -OEChem-01062215323D

 25 24  0     1  0  0  0  0  0999 V2000
   -2.7826   -3.8464    0.7821 H   0  0  0  0  0  0  0  0  0  0  0  0
   -2.8156   -2.8034    0.4711 C   0  0  0  0  0  0  0  0  0  0  0  0
   -3.4336   -2.2354    1.1641 H   0  0  0  0  0  0  0  0  0  0  0  0
   -3.2256   -2.7344   -0.5349 H   0  0  0  0  0  0  0  0  0  0  0  0
   -1.4126   -2.2444    0.4801 C   0  0  0  0  0  0  0  0  0  0  0  0
   -0.4686   -2.9534    0.8001 O   0  0  0  0  0  0  0  0  0  0  0  0
   -1.2736   -0.9704    0.1241 N   0  0  0  0  0  0  0  0  0  0  0  0
   -2.0996   -0.4354   -0.1019 H   0  0  0  0  0  0  0  0  0  0  0  0
   -0.0016   -0.2394    0.1271 C   0  0  1  0  0  0  0  0  0  0  0  0
    0.8120   -0.9607    0.2318 H   0  0  0  0  0  0  0  0  0  0  0  0
    0.1633    0.5051   -1.2126 C   0  0  0  0  0  0  0  0  0  0  0  0
   -0.7403    1.0788   -1.4225 H   0  0  0  0  0  0  0  0  0  0  0  0
    0.9963    1.2055   -1.1433 H   0  0  0  0  0  0  0  0  0  0  0  0
    0.3872   -0.4256   -2.4006 C   0  0  0  0  0  0  0  0  0  0  0  0
    0.9223   -1.5254   -2.3532 O   0  0  0  0  0  0  0  0  0  0  0  0
   -0.0510    0.0504   -3.5811 O   0  0  0  0  0  0  0  0  0  0  0  0
    0.1332   -0.6344   -4.2248 H   0  0  0  0  0  0  0  0  0  0  0  0
    0.0514    0.7262    1.3278 C   0  0  0  0  0  0  0  0  0  0  0  0
   -0.5978    1.7708    1.3016 O   0  0  0  0  0  0  0  0  0  0  0  0
    0.8217    0.3904    2.3688 N   0  0  0  0  0  0  0  0  0  0  0  0
    1.3750   -0.4563    2.2863 H   0  0  0  0  0  0  0  0  0  0  0  0
    0.9706    1.1956    3.5791 C   0  0  0  0  0  0  0  0  0  0  0  0
   -0.0143    1.4392    3.9837 H   0  0  0  0  0  0  0  0  0  0  0  0
    1.5409    0.6449    4.3282 H   0  0  0  0  0  0  0  0  0  0  0  0
    1.4899    2.1257    3.3415 H   0  0  0  0  0  0  0  0  0  0  0  0
  5  6  2  0  0  0  0
  5  7  1  0  0  0  0
  2  3  1  0  0  0  0
  2  4  1  0  0  0  0
  2  5  1  0  0  0  0
  1  2  1  0  0  0  0
 18 19  2  0  0  0  0
 18 20  1  0  0  0  0
 16 17  1  0  0  0  0
 14 15  2  0  0  0  0
 14 16  1  0  0  0  0
 11 12  1  0  0  0  0
 11 13  1  0  0  0  0
 11 14  1  0  0  0  0
  9 10  1  0  0  0  0
  9 11  1  0  0  0  0
  9 18  1  0  0  0  0
  7  8  1  0  0  0  0
  7  9  1  0  0  0  0
 22 23  1  0  0  0  0
 22 24  1  0  0  0  0
 22 25  1  0  0  0  0
 20 21  1  0  0  0  0
 20 22  1  0  0  0  0
M  END
$$$$
default_name
  -OEChem-01062215323D

 25 24  0     1  0  0  0  0  0999 V2000
   -2.7826   -3.8464    0.7821 H   0  0  0  0  0  0  0  0  0  0  0  0
   -2.8156   -2.8034    0.4711 C   0  0  0  0  0  0  0  0  0  0  0  0
   -3.4336   -2.2354    1.1641 H   0  0  0  0  0  0  0  0  0  0  0  0
   -3.2256   -2.7344   -0.5349 H   0  0  0  0  0  0  0  0  0  0  0  0
   -1.4126   -2.2444    0.4801 C   0  0  0  0  0  0  0  0  0  0  0  0
   -0.4686   -2.9534    0.8001 O   0  0  0  0  0  0  0  0  0  0  0  0
   -1.2736   -0.9704    0.1241 N   0  0  0  0  0  0  0  0  0  0  0  0
   -2.0996   -0.4354   -0.1019 H   0  0  0  0  0  0  0  0  0  0  0  0
   -0.0016   -0.2394    0.1271 C   0  0  1  0  0  0  0  0  0  0  0  0
    0.8120   -0.9607    0.2318 H   0  0  0  0  0  0  0  0  0  0  0  0
    0.1633    0.5051   -1.2126 C   0  0  0  0  0  0  0  0  0  0  0  0
   -0.7403    1.0788   -1.4225 H   0  0  0  0  0  0  0  0  0  0  0  0
    0.9963    1.2055   -1.1433 H   0  0  0  0  0  0  0  0  0  0  0  0
    0.3872   -0.4256   -2.4006 C   0  0  0  0  0  0  0  0  0  0  0  0
    0.9223   -1.5254   -2.3532 O   0  0  0  0  0  0  0  0  0  0  0  0
   -0.0510    0.0504   -3.5811 O   0  0  0  0  0  0  0  0  0  0  0  0
    0.1332   -0.6344   -4.2248 H   0  0  0  0  0  0  0  0  0  0  0  0
    0.0514    0.7262    1.3278 C   0  0  0  0  0  0  0  0  0  0  0  0
   -0.7898    1.6177    1.4333 O   0  0  0  0  0  0  0  0  0  0  0  0
    1.0326    0.5612    2.2221 N   0  0  0  0  0  0  0  0  0  0  0  0
    1.7237   -0.1567    2.0299 H   0  0  0  0  0  0  0  0  0  0  0  0
    1.2120    1.3892    3.4128 C   0  0  0  0  0  0  0  0  0  0  0  0
    0.2777    1.4316    3.9769 H   0  0  0  0  0  0  0  0  0  0  0  0
    1.9957    0.9711    4.0458 H   0  0  0  0  0  0  0  0  0  0  0  0
    1.4881    2.4032    3.1183 H   0  0  0  0  0  0  0  0  0  0  0  0
  5  6  2  0  0  0  0
  5  7  1  0  0  0  0
  2  3  1  0  0  0  0
  2  4  1  0  0  0  0
  2  5  1  0  0  0  0
  1  2  1  0  0  0  0
 18 19  2  0  0  0  0
 18 20  1  0  0  0  0
 16 17  1  0  0  0  0
 14 15  2  0  0  0  0
 14 16  1  0  0  0  0
 11 12  1  0  0  0  0
 11 13  1  0  0  0  0
 11 14  1  0  0  0  0
  9 10  1  0  0  0  0
  9 11  1  0  0  0  0
  9 18  1  0  0  0  0
  7  8  1  0  0  0  0
  7  9  1  0  0  0  0
 22 23  1  0  0  0  0
 22 24  1  0  0  0  0
 22 25  1  0  0  0  0
 20 21  1  0  0  0  0
 20 22  1  0  0  0  0
M  END
$$$$
default_name
  -OEChem-01062215323D

 25 24  0     1  0  0  0  0  0999 V2000
   -2.7826   -3.8464    0.7821 H   0  0  0  0  0  0  0  0  0  0  0  0
   -2.8156   -2.8034    0.4711 C   0  0  0  0  0  0  0  0  0  0  0  0
   -3.4336   -2.2354    1.1641 H   0  0  0  0  0  0  0  0  0  0  0  0
   -3.2256   -2.7344   -0.5349 H   0  0  0  0  0  0  0  0  0  0  0  0
   -1.4126   -2.2444    0.4801 C   0  0  0  0  0  0  0  0  0  0  0  0
   -0.4686   -2.9534    0.8001 O   0  0  0  0  0  0  0  0  0  0  0  0
   -1.2736   -0.9704    0.1241 N   0  0  0  0  0  0  0  0  0  0  0  0
   -2.0996   -0.4354   -0.1019 H   0  0  0  0  0  0  0  0  0  0  0  0
   -0.0016   -0.2394    0.1271 C   0  0  1  0  0  0  0  0  0  0  0  0
    0.8120   -0.9607    0.2318 H   0  0  0  0  0  0  0  0  0  0  0  0
    0.1633    0.5051   -1.2126 C   0  0  0  0  0  0  0  0  0  0  0  0
   -0.7403    1.0788   -1.4225 H   0  0  0  0  0  0  0  0  0  0  0  0
    0.9963    1.2055   -1.1433 H   0  0  0  0  0  0  0  0  0  0  0  0
    0.3872   -0.4256   -2.4006 C   0  0  0  0  0  0  0  0  0  0  0  0
    0.9223   -1.5254   -2.3532 O   0  0  0  0  0  0  0  0  0  0  0  0
   -0.0510    0.0504   -3.5811 O   0  0  0  0  0  0  0  0  0  0  0  0
    0.1332   -0.6344   -4.2248 H   0  0  0  0  0  0  0  0  0  0  0  0
    0.0514    0.7262    1.3278 C   0  0  0  0  0  0  0  0  0  0  0  0
   -0.9230    1.4298    1.5902 O   0  0  0  0  0  0  0  0  0  0  0  0
    1.1781    0.7700    2.0477 N   0  0  0  0  0  0  0  0  0  0  0  0
    1.9585    0.2053    1.7284 H   0  0  0  0  0  0  0  0  0  0  0  0
    1.3792    1.6263    3.2147 C   0  0  0  0  0  0  0  0  0  0  0  0
    0.5602    1.4832    3.9229 H   0  0  0  0  0  0  0  0  0  0  0  0
    2.3234    1.3803    3.7022 H   0  0  0  0  0  0  0  0  0  0  0  0
    1.3943    2.6729    2.9056 H   0  0  0  0  0  0  0  0  0  0  0  0
  5  6  2  0  0  0  0
  5  7  1  0  0  0  0
  2  3  1  0  0  0  0
  2  4  1  0  0  0  0
  2  5  1  0  0  0  0
  1  2  1  0  0  0  0
 18 19  2  0  0  0  0
 18 20  1  0  0  0  0
 16 17  1  0  0  0  0
 14 15  2  0  0  0  0
 14 16  1  0  0  0  0
 11 12  1  0  0  0  0
 11 13  1  0  0  0  0
 11 14  1  0  0  0  0
  9 10  1  0  0  0  0
  9 11  1  0  0  0  0
  9 18  1  0  0  0  0
  7  8  1  0  0  0  0
  7  9  1  0  0  0  0
 22 23  1  0  0  0  0
 22 24  1  0  0  0  0
 22 25  1  0  0  0  0
 20 21  1  0  0  0  0
 20 22  1  0  0  0  0
M  END
$$$$
default_name
  -OEChem-01062215323D

 25 24  0     1  0  0  0  0  0999 V2000
   -2.7826   -3.8464    0.7821 H   0  0  0  0  0  0  0  0  0  0  0  0
   -2.8156   -2.8034    0.4711 C   0  0  0  0  0  0  0  0  0  0  0  0
   -3.4336   -2.2354    1.1641 H   0  0  0  0  0  0  0  0  0  0  0  0
   -3.2256   -2.7344   -0.5349 H   0  0  0  0  0  0  0  0  0  0  0  0
   -1.4126   -2.2444    0.4801 C   0  0  0  0  0  0  0  0  0  0  0  0
   -0.4686   -2.9534    0.8001 O   0  0  0  0  0  0  0  0  0  0  0  0
   -1.2736   -0.9704    0.1241 N   0  0  0  0  0  0  0  0  0  0  0  0
   -2.0996   -0.4354   -0.1019 H   0  0  0  0  0  0  0  0  0  0  0  0
   -0.0016   -0.2394    0.1271 C   0  0  1  0  0  0  0  0  0  0  0  0
    0.8120   -0.9607    0.2318 H   0  0  0  0  0  0  0  0  0  0  0  0
    0.1633    0.5051   -1.2126 C   0  0  0  0  0  0  0  0  0  0  0  0
   -0.7403    1.0788   -1.4225 H   0  0  0  0  0  0  0  0  0  0  0  0
    0.9963    1.2055   -1.1433 H   0  0  0  0  0  0  0  0  0  0  0  0
    0.3872   -0.4256   -2.4006 C   0  0  0  0  0  0  0  0  0  0  0  0
    0.9223   -1.5254   -2.3532 O   0  0  0  0  0  0  0  0  0  0  0  0
   -0.0510    0.0504   -3.5811 O   0  0  0  0  0  0  0  0  0  0  0  0
    0.1332   -0.6344   -4.2248 H   0  0  0  0  0  0  0  0  0  0  0  0
    0.0514    0.7262    1.3278 C   0  0  0  0  0  0  0  0  0  0  0  0
   -0.9884    1.2201    1.7617 O   0  0  0  0  0  0  0  0  0  0  0  0
    1.2483    1.0025    1.8576 N   0  0  0  0  0  0  0  0  0  0  0  0
    2.0636    0.6050    1.4024 H   0  0  0  0  0  0  0  0  0  0  0  0
    1.4608    1.8908    2.9983 C   0  0  0  0  0  0  0  0  0  0  0  0
    0.8139    1.5905    3.8254 H   0  0  0  0  0  0  0  0  0  0  0  0
    2.5017    1.8447    3.3209 H   0  0  0  0  0  0  0  0  0  0  0  0
    1.2148    2.9164    2.7177 H   0  0  0  0  0  0  0  0  0  0  0  0
  5  6  2  0  0  0  0
  5  7  1  0  0  0  0
  2  3  1  0  0  0  0
  2  4  1  0  0  0  0
  2  5  1  0  0  0  0
  1  2  1  0  0  0  0
 18 19  2  0  0  0  0
 18 20  1  0  0  0  0
 16 17  1  0  0  0  0
 14 15  2  0  0  0  0
 14 16  1  0  0  0  0
 11 12  1  0  0  0  0
 11 13  1  0  0  0  0
 11 14  1  0  0  0  0
  9 10  1  0  0  0  0
  9 11  1  0  0  0  0
  9 18  1  0  0  0  0
  7  8  1  0  0  0  0
  7  9  1  0  0  0  0
 22 23  1  0  0  0  0
 22 24  1  0  0  0  0
 22 25  1  0  0  0  0
 20 21  1  0  0  0  0
 20 22  1  0  0  0  0
M  END
$$$$
default_name
  -OEChem-01062215323D

 25 24  0     1  0  0  0  0  0999 V2000
   -2.7826   -3.8464    0.7821 H   0  0  0  0  0  0  0  0  0  0  0  0
   -2.8156   -2.8034    0.4711 C   0  0  0  0  0  0  0  0  0  0  0  0
   -3.4336   -2.2354    1.1641 H   0  0  0  0  0  0  0  0  0  0  0  0
   -3.2256   -2.7344   -0.5349 H   0  0  0  0  0  0  0  0  0  0  0  0
   -1.4126   -2.2444    0.4801 C   0  0  0  0  0  0  0  0  0  0  0  0
   -0.4686   -2.9534    0.8001 O   0  0  0  0  0  0  0  0  0  0  0  0
   -1.2736   -0.9704    0.1241 N   0  0  0  0  0  0  0  0  0  0  0  0
   -2.0996   -0.4354   -0.1019 H   0  0  0  0  0  0  0  0  0  0  0  0
   -0.0016   -0.2394    0.1271 C   0  0  1  0  0  0  0  0  0  0  0  0
    0.8120   -0.9607    0.2318 H   0  0  0  0  0  0  0  0  0  0  0  0
    0.1633    0.5051   -1.2126 C   0  0  0  0  0  0  0  0  0  0  0  0
   -0.7403    1.0788   -1.4225 H   0  0  0  0  0  0  0  0  0  0  0  0
    0.9963    1.2055   -1.1433 H   0  0  0  0  0  0  0  0  0  0  0  0
    0.3872   -0.4256   -2.4006 C   0  0  0  0  0  0  0  0  0  0  0  0
    0.9223   -1.5254   -2.3532 O   0  0  0  0  0  0  0  0  0  0  0  0
   -0.0510    0.0504   -3.5811 O   0  0  0  0  0  0  0  0  0  0  0  0
    0.1332   -0.6344   -4.2248 H   0  0  0  0  0  0  0  0  0  0  0  0
    0.0514    0.7262    1.3278 C   0  0  0  0  0  0  0  0  0  0  0  0
   -0.9815    1.0029    1.9361 O   0  0  0  0  0  0  0  0  0  0  0  0
    1.2385    1.2430    1.6646 N   0  0  0  0  0  0  0  0  0  0  0  0
    2.0316    1.0151    1.0740 H   0  0  0  0  0  0  0  0  0  0  0  0
    1.4513    2.1647    2.7785 C   0  0  0  0  0  0  0  0  0  0  0  0
    1.0215    1.7460    3.6911 H   0  0  0  0  0  0  0  0  0  0  0  0
    2.5186    2.3326    2.9278 H   0  0  0  0  0  0  0  0  0  0  0  0
    0.9619    3.1172    2.5674 H   0  0  0  0  0  0  0  0  0  0  0  0
  5  6  2  0  0  0  0
  5  7  1  0  0  0  0
  2  3  1  0  0  0  0
  2  4  1  0  0  0  0
  2  5  1  0  0  0  0
  1  2  1  0  0  0  0
 18 19  2  0  0  0  0
 18 20  1  0  0  0  0
 16 17  1  0  0  0  0
 14 15  2  0  0  0  0
 14 16  1  0  0  0  0
 11 12  1  0  0  0  0
 11 13  1  0  0  0  0
 11 14  1  0  0  0  0
  9 10  1  0  0  0  0
  9 11  1  0  0  0  0
  9 18  1  0  0  0  0
  7  8  1  0  0  0  0
  7  9  1  0  0  0  0
 22 23  1  0  0  0  0
 22 24  1  0  0  0  0
 22 25  1  0  0  0  0
 20 21  1  0  0  0  0
 20 22  1  0  0  0  0
M  END
$$$$
default_name
  -OEChem-01062215323D

 25 24  0     1  0  0  0  0  0999 V2000
   -2.7826   -3.8464    0.7821 H   0  0  0  0  0  0  0  0  0  0  0  0
   -2.8156   -2.8034    0.4711 C   0  0  0  0  0  0  0  0  0  0  0  0
   -3.4336   -2.2354    1.1641 H   0  0  0  0  0  0  0  0  0  0  0  0
   -3.2256   -2.7344   -0.5349 H   0  0  0  0  0  0  0  0  0  0  0  0
   -1.4126   -2.2444    0.4801 C   0  0  0  0  0  0  0  0  0  0  0  0
   -0.4686   -2.9534    0.8001 O   0  0  0  0  0  0  0  0  0  0  0  0
   -1.2736   -0.9704    0.1241 N   0  0  0  0  0  0  0  0  0  0  0  0
   -2.0996   -0.4354   -0.1019 H   0  0  0  0  0  0  0  0  0  0  0  0
   -0.0016   -0.2394    0.1271 C   0  0  1  0  0  0  0  0  0  0  0  0
    0.8084   -0.9533   -0.0385 H   0  0  0  0  0  0  0  0  0  0  0  0
   -0.0004    0.7891   -1.0211 C   0  0  0  0  0  0  0  0  0  0  0  0
   -0.9152    1.3815   -0.9787 H   0  0  0  0  0  0  0  0  0  0  0  0
    0.8445    1.4687   -0.9044 H   0  0  0  0  0  0  0  0  0  0  0  0
    0.0552    0.1522   -2.4064 C   0  0  0  0  0  0  0  0  0  0  0  0
    0.5762   -0.9219   -2.6764 O   0  0  0  0  0  0  0  0  0  0  0  0
   -0.5249    0.8742   -3.3833 O   0  0  0  0  0  0  0  0  0  0  0  0
   -0.4350    0.3542   -4.1825 H   0  0  0  0  0  0  0  0  0  0  0  0
    0.2196    0.4328    1.4968 C   0  0  0  0  0  0  0  0  0  0  0  0
   -0.6257    0.3097    2.3821 O   0  0  0  0  0  0  0  0  0  0  0  0
    1.3386    1.1447    1.6723 N   0  0  0  0  0  0  0  0  0  0  0  0
    1.9547    1.2508    0.8729 H   0  0  0  0  0  0  0  0  0  0  0  0
    1.6928    1.8334    2.9115 C   0  0  0  0  0  0  0  0  0  0  0  0
    1.6288    1.1381    3.7513 H   0  0  0  0  0  0  0  0  0  0  0  0
    2.7086    2.2253    2.8456 H   0  0  0  0  0  0  0  0  0  0  0  0
    0.9986    2.6571    3.0868 H   0  0  0  0  0  0  0  0  0  0  0  0
  5  6  2  0  0  0  0
  5  7  1  0  0  0  0
  2  3  1  0  0  0  0
  2  4  1  0  0  0  0
  2  5  1  0  0  0  0
  1  2  1  0  0  0  0
 18 19  2  0  0  0  0
 18 20  1  0  0  0  0
 16 17  1  0  0  0  0
 14 15  2  0  0  0  0
 14 16  1  0  0  0  0
 11 12  1  0  0  0  0
 11 13  1  0  0  0  0
 11 14  1  0  0  0  0
  9 10  1  0  0  0  0
  9 11  1  0  0  0  0
  9 18  1  0  0  0  0
  7  8  1  0  0  0  0
  7  9  1  0  0  0  0
 22 23  1  0  0  0  0
 22 24  1  0  0  0  0
 22 25  1  0  0  0  0
 20 21  1  0  0  0  0
 20 22  1  0  0  0  0
M  END
$$$$
default_name
  -OEChem-01062215323D

 25 24  0     1  0  0  0  0  0999 V2000
   -2.7826   -3.8464    0.7821 H   0  0  0  0  0  0  0  0  0  0  0  0
   -2.8156   -2.8034    0.4711 C   0  0  0  0  0  0  0  0  0  0  0  0
   -3.4336   -2.2354    1.1641 H   0  0  0  0  0  0  0  0  0  0  0  0
   -3.2256   -2.7344   -0.5349 H   0  0  0  0  0  0  0  0  0  0  0  0
   -1.4126   -2.2444    0.4801 C   0  0  0  0  0  0  0  0  0  0  0  0
   -0.4686   -2.9534    0.8001 O   0  0  0  0  0  0  0  0  0  0  0  0
   -1.2736   -0.9704    0.1241 N   0  0  0  0  0  0  0  0  0  0  0  0
   -2.0996   -0.4354   -0.1019 H   0  0  0  0  0  0  0  0  0  0  0  0
   -0.0016   -0.2394    0.1271 C   0  0  1  0  0  0  0  0  0  0  0  0
    0.8084   -0.9533   -0.0385 H   0  0  0  0  0  0  0  0  0  0  0  0
   -0.0004    0.7891   -1.0211 C   0  0  0  0  0  0  0  0  0  0  0  0
   -0.9152    1.3815   -0.9787 H   0  0  0  0  0  0  0  0  0  0  0  0
    0.8445    1.4687   -0.9044 H   0  0  0  0  0  0  0  0  0  0  0  0
    0.0552    0.1522   -2.4064 C   0  0  0  0  0  0  0  0  0  0  0  0
    0.5762   -0.9219   -2.6764 O   0  0  0  0  0  0  0  0  0  0  0  0
   -0.5249    0.8742   -3.3833 O   0  0  0  0  0  0  0  0  0  0  0  0
   -0.4350    0.3542   -4.1825 H   0  0  0  0  0  0  0  0  0  0  0  0
    0.2196    0.4328    1.4968 C   0  0  0  0  0  0  0  0  0  0  0  0
   -0.4657    0.0957    2.4613 O   0  0  0  0  0  0  0  0  0  0  0  0
    1.1596    1.3805    1.5854 N   0  0  0  0  0  0  0  0  0  0  0  0
    1.6374    1.6458    0.7303 H   0  0  0  0  0  0  0  0  0  0  0  0
    1.4904    2.1028    2.8120 C   0  0  0  0  0  0  0  0  0  0  0  0
    1.6854    1.3917    3.6177 H   0  0  0  0  0  0  0  0  0  0  0  0
    2.3753    2.7212    2.6561 H   0  0  0  0  0  0  0  0  0  0  0  0
    0.6522    2.7385    3.1028 H   0  0  0  0  0  0  0  0  0  0  0  0
  5  6  2  0  0  0  0
  5  7  1  0  0  0  0
  2  3  1  0  0  0  0
  2  4  1  0  0  0  0
  2  5  1  0  0  0  0
  1  2  1  0  0  0  0
 18 19  2  0  0  0  0
 18 20  1  0  0  0  0
 16 17  1  0  0  0  0
 14 15  2  0  0  0  0
 14 16  1  0  0  0  0
 11 12  1  0  0  0  0
 11 13  1  0  0  0  0
 11 14  1  0  0  0  0
  9 10  1  0  0  0  0
  9 11  1  0  0  0  0
  9 18  1  0  0  0  0
  7  8  1  0  0  0  0
  7  9  1  0  0  0  0
 22 23  1  0  0  0  0
 22 24  1  0  0  0  0
 22 25  1  0  0  0  0
 20 21  1  0  0  0  0
 20 22  1  0  0  0  0
M  END
$$$$
default_name
  -OEChem-01062215323D

 25 24  0     1  0  0  0  0  0999 V2000
   -2.7826   -3.8464    0.7821 H   0  0  0  0  0  0  0  0  0  0  0  0
   -2.8156   -2.8034    0.4711 C   0  0  0  0  0  0  0  0  0  0  0  0
   -3.4336   -2.2354    1.1641 H   0  0  0  0  0  0  0  0  0  0  0  0
   -3.2256   -2.7344   -0.5349 H   0  0  0  0  0  0  0  0  0  0  0  0
   -1.4126   -2.2444    0.4801 C   0  0  0  0  0  0  0  0  0  0  0  0
   -0.4686   -2.9534    0.8001 O   0  0  0  0  0  0  0  0  0  0  0  0
   -1.2736   -0.9704    0.1241 N   0  0  0  0  0  0  0  0  0  0  0  0
   -2.0996   -0.4354   -0.1019 H   0  0  0  0  0  0  0  0  0  0  0  0
   -0.0016   -0.2394    0.1271 C   0  0  1  0  0  0  0  0  0  0  0  0
    0.8084   -0.9533   -0.0385 H   0  0  0  0  0  0  0  0  0  0  0  0
   -0.0004    0.7891   -1.0211 C   0  0  0  0  0  0  0  0  0  0  0  0
   -0.9152    1.3815   -0.9787 H   0  0  0  0  0  0  0  0  0  0  0  0
    0.8445    1.4687   -0.9044 H   0  0  0  0  0  0  0  0  0  0  0  0
    0.0552    0.1522   -2.4064 C   0  0  0  0  0  0  0  0  0  0  0  0
    0.5762   -0.9219   -2.6764 O   0  0  0  0  0  0  0  0  0  0  0  0
   -0.5249    0.8742   -3.3833 O   0  0  0  0  0  0  0  0  0  0  0  0
   -0.4350    0.3542   -4.1825 H   0  0  0  0  0  0  0  0  0  0  0  0
    0.2196    0.4328    1.4968 C   0  0  0  0  0  0  0  0  0  0  0  0
   -0.2530   -0.0771    2.5117 O   0  0  0  0  0  0  0  0  0  0  0  0
    0.9228    1.5704    1.5305 N   0  0  0  0  0  0  0  0  0  0  0  0
    1.2239    1.9597    0.6430 H   0  0  0  0  0  0  0  0  0  0  0  0
    1.2217    2.3201    2.7487 C   0  0  0  0  0  0  0  0  0  0  0  0
    1.6666    1.6546    3.4917 H   0  0  0  0  0  0  0  0  0  0  0  0
    1.9179    3.1305    2.5290 H   0  0  0  0  0  0  0  0  0  0  0  0
    0.3008    2.7368    3.1604 H   0  0  0  0  0  0  0  0  0  0  0  0
  5  6  2  0  0  0  0
  5  7  1  0  0  0  0
  2  3  1  0  0  0  0
  2  4  1  0  0  0  0
  2  5  1  0  0  0  0
  1  2  1  0  0  0  0
 18 19  2  0  0  0  0
 18 20  1  0  0  0  0
 16 17  1  0  0  0  0
 14 15  2  0  0  0  0
 14 16  1  0  0  0  0
 11 12  1  0  0  0  0
 11 13  1  0  0  0  0
 11 14  1  0  0  0  0
  9 10  1  0  0  0  0
  9 11  1  0  0  0  0
  9 18  1  0  0  0  0
  7  8  1  0  0  0  0
  7  9  1  0  0  0  0
 22 23  1  0  0  0  0
 22 24  1  0  0  0  0
 22 25  1  0  0  0  0
 20 21  1  0  0  0  0
 20 22  1  0  0  0  0
M  END
$$$$
default_name
  -OEChem-01062215323D

 25 24  0     1  0  0  0  0  0999 V2000
   -2.7826   -3.8464    0.7821 H   0  0  0  0  0  0  0  0  0  0  0  0
   -2.8156   -2.8034    0.4711 C   0  0  0  0  0  0  0  0  0  0  0  0
   -3.4336   -2.2354    1.1641 H   0  0  0  0  0  0  0  0  0  0  0  0
   -3.2256   -2.7344   -0.5349 H   0  0  0  0  0  0  0  0  0  0  0  0
   -1.4126   -2.2444    0.4801 C   0  0  0  0  0  0  0  0  0  0  0  0
   -0.4686   -2.9534    0.8001 O   0  0  0  0  0  0  0  0  0  0  0  0
   -1.2736   -0.9704    0.1241 N   0  0  0  0  0  0  0  0  0  0  0  0
   -2.0996   -0.4354   -0.1019 H   0  0  0  0  0  0  0  0  0  0  0  0
   -0.0016   -0.2394    0.1271 C   0  0  1  0  0  0  0  0  0  0  0  0
    0.8084   -0.9533   -0.0385 H   0  0  0  0  0  0  0  0  0  0  0  0
   -0.0004    0.7891   -1.0211 C   0  0  0  0  0  0  0  0  0  0  0  0
   -0.9152    1.3815   -0.9787 H   0  0  0  0  0  0  0  0  0  0  0  0
    0.8445    1.4687   -0.9044 H   0  0  0  0  0  0  0  0  0  0  0  0
    0.0552    0.1522   -2.4064 C   0  0  0  0  0  0  0  0  0  0  0  0
    0.5762   -0.9219   -2.6764 O   0  0  0  0  0  0  0  0  0  0  0  0
   -0.5249    0.8742   -3.3833 O   0  0  0  0  0  0  0  0  0  0  0  0
   -0.4350    0.3542   -4.1825 H   0  0  0  0  0  0  0  0  0  0  0  0
    0.2196    0.4328    1.4968 C   0  0  0  0  0  0  0  0  0  0  0  0
   -0.0021   -0.1970    2.5301 O   0  0  0  0  0  0  0  0  0  0  0  0
    0.6441    1.7014    1.5112 N   0  0  0  0  0  0  0  0  0  0  0  0
    0.7425    2.1711    0.6170 H   0  0  0  0  0  0  0  0  0  0  0  0
    0.9051    2.4706    2.7260 C   0  0  0  0  0  0  0  0  0  0  0  0
    1.5738    1.9090    3.3819 H   0  0  0  0  0  0  0  0  0  0  0  0
    1.3677    3.4255    2.4731 H   0  0  0  0  0  0  0  0  0  0  0  0
   -0.0318    2.6522    3.2557 H   0  0  0  0  0  0  0  0  0  0  0  0
  5  6  2  0  0  0  0
  5  7  1  0  0  0  0
  2  3  1  0  0  0  0
  2  4  1  0  0  0  0
  2  5  1  0  0  0  0
  1  2  1  0  0  0  0
 18 19  2  0  0  0  0
 18 20  1  0  0  0  0
 16 17  1  0  0  0  0
 14 15  2  0  0  0  0
 14 16  1  0  0  0  0
 11 12  1  0  0  0  0
 11 13  1  0  0  0  0
 11 14  1  0  0  0  0
  9 10  1  0  0  0  0
  9 11  1  0  0  0  0
  9 18  1  0  0  0  0
  7  8  1  0  0  0  0
  7  9  1  0  0  0  0
 22 23  1  0  0  0  0
 22 24  1  0  0  0  0
 22 25  1  0  0  0  0
 20 21  1  0  0  0  0
 20 22  1  0  0  0  0
M  END
$$$$
default_name
  -OEChem-01062215323D

 25 24  0     1  0  0  0  0  0999 V2000
   -2.7826   -3.8464    0.7821 H   0  0  0  0  0  0  0  0  0  0  0  0
   -2.8156   -2.8034    0.4711 C   0  0  0  0  0  0  0  0  0  0  0  0
   -3.4336   -2.2354    1.1641 H   0  0  0  0  0  0  0  0  0  0  0  0
   -3.2256   -2.7344   -0.5349 H   0  0  0  0  0  0  0  0  0  0  0  0
   -1.4126   -2.2444    0.4801 C   0  0  0  0  0  0  0  0  0  0  0  0
   -0.4686   -2.9534    0.8001 O   0  0  0  0  0  0  0  0  0  0  0  0
   -1.2736   -0.9704    0.1241 N   0  0  0  0  0  0  0  0  0  0  0  0
   -2.0996   -0.4354   -0.1019 H   0  0  0  0  0  0  0  0  0  0  0  0
   -0.0016   -0.2394    0.1271 C   0  0  1  0  0  0  0  0  0  0  0  0
    0.8084   -0.9533   -0.0385 H   0  0  0  0  0  0  0  0  0  0  0  0
   -0.0004    0.7891   -1.0211 C   0  0  0  0  0  0  0  0  0  0  0  0
   -0.9152    1.3815   -0.9787 H   0  0  0  0  0  0  0  0  0  0  0  0
    0.8445    1.4687   -0.9044 H   0  0  0  0  0  0  0  0  0  0  0  0
    0.0552    0.1522   -2.4064 C   0  0  0  0  0  0  0  0  0  0  0  0
    0.5762   -0.9219   -2.6764 O   0  0  0  0  0  0  0  0  0  0  0  0
   -0.5249    0.8742   -3.3833 O   0  0  0  0  0  0  0  0  0  0  0  0
   -0.4350    0.3542   -4.1825 H   0  0  0  0  0  0  0  0  0  0  0  0
    0.2196    0.4328    1.4968 C   0  0  0  0  0  0  0  0  0  0  0  0
    0.2699   -0.2558    2.5150 O   0  0  0  0  0  0  0  0  0  0  0  0
    0.3427    1.7645    1.5289 N   0  0  0  0  0  0  0  0  0  0  0  0
    0.2260    2.2655    0.6541 H   0  0  0  0  0  0  0  0  0  0  0  0
    0.5620    2.5441    2.7454 C   0  0  0  0  0  0  0  0  0  0  0  0
    1.4133    2.1374    3.2957 H   0  0  0  0  0  0  0  0  0  0  0  0
    0.7621    3.5860    2.4922 H   0  0  0  0  0  0  0  0  0  0  0  0
   -0.3228    2.4905    3.3820 H   0  0  0  0  0  0  0  0  0  0  0  0
  5  6  2  0  0  0  0
  5  7  1  0  0  0  0
  2  3  1  0  0  0  0
  2  4  1  0  0  0  0
  2  5  1  0  0  0  0
  1  2  1  0  0  0  0
 18 19  2  0  0  0  0
 18 20  1  0  0  0  0
 16 17  1  0  0  0  0
 14 15  2  0  0  0  0
 14 16  1  0  0  0  0
 11 12  1  0  0  0  0
 11 13  1  0  0  0  0
 11 14  1  0  0  0  0
  9 10  1  0  0  0  0
  9 11  1  0  0  0  0
  9 18  1  0  0  0  0
  7  8  1  0  0  0  0
  7  9  1  0  0  0  0
 22 23  1  0  0  0  0
 22 24  1  0  0  0  0
 22 25  1  0  0  0  0
 20 21  1  0  0  0  0
 20 22  1  0  0  0  0
M  END
$$$$
default_name
  -OEChem-01062215323D

 25 24  0     1  0  0  0  0  0999 V2000
   -2.7826   -3.8464    0.7821 H   0  0  0  0  0  0  0  0  0  0  0  0
   -2.8156   -2.8034    0.4711 C   0  0  0  0  0  0  0  0  0  0  0  0
   -3.4336   -2.2354    1.1641 H   0  0  0  0  0  0  0  0  0  0  0  0
   -3.2256   -2.7344   -0.5349 H   0  0  0  0  0  0  0  0  0  0  0  0
   -1.4126   -2.2444    0.4801 C   0  0  0  0  0  0  0  0  0  0  0  0
   -0.4686   -2.9534    0.8001 O   0  0  0  0  0  0  0  0  0  0  0  0
   -1.2736   -0.9704    0.1241 N   0  0  0  0  0  0  0  0  0  0  0  0
   -2.0996   -0.4354   -0.1019 H   0  0  0  0  0  0  0  0  0  0  0  0
   -0.0016   -0.2394    0.1271 C   0  0  1  0  0  0  0  0  0  0  0  0
    0.8084   -0.9533   -0.0385 H   0  0  0  0  0  0  0  0  0  0  0  0
   -0.0004    0.7891   -1.0211 C   0  0  0  0  0  0  0  0  0  0  0  0
   -0.9152    1.3815   -0.9787 H   0  0  0  0  0  0  0  0  0  0  0  0
    0.8445    1.4687   -0.9044 H   0  0  0  0  0  0  0  0  0  0  0  0
    0.0552    0.1522   -2.4064 C   0  0  0  0  0  0  0  0  0  0  0  0
    0.5762   -0.9219   -2.6764 O   0  0  0  0  0  0  0  0  0  0  0  0
   -0.5249    0.8742   -3.3833 O   0  0  0  0  0  0  0  0  0  0  0  0
   -0.4350    0.3542   -4.1825 H   0  0  0  0  0  0  0  0  0  0  0  0
    0.2196    0.4328    1.4968 C   0  0  0  0  0  0  0  0  0  0  0  0
    0.5444   -0.2495    2.4675 O   0  0  0  0  0  0  0  0  0  0  0  0
    0.0389    1.7556    1.5824 N   0  0  0  0  0  0  0  0  0  0  0  0
   -0.2905    2.2366    0.7518 H   0  0  0  0  0  0  0  0  0  0  0  0
    0.2160    2.5354    2.8055 C   0  0  0  0  0  0  0  0  0  0  0  0
    1.1960    2.3243    3.2391 H   0  0  0  0  0  0  0  0  0  0  0  0
    0.1424    3.6010    2.5849 H   0  0  0  0  0  0  0  0  0  0  0  0
   -0.5525    2.2627    3.5309 H   0  0  0  0  0  0  0  0  0  0  0  0
  5  6  2  0  0  0  0
  5  7  1  0  0  0  0
  2  3  1  0  0  0  0
  2  4  1  0  0  0  0
  2  5  1  0  0  0  0
  1  2  1  0  0  0  0
 18 19  2  0  0  0  0
 18 20  1  0  0  0  0
 16 17  1  0  0  0  0
 14 15  2  0  0  0  0
 14 16  1  0  0  0  0
 11 12  1  0  0  0  0
 11 13  1  0  0  0  0
 11 14  1  0  0  0  0
  9 10  1  0  0  0  0
  9 11  1  0  0  0  0
  9 18  1  0  0  0  0
  7  8  1  0  0  0  0
  7  9  1  0  0  0  0
 22 23  1  0  0  0  0
 22 24  1  0  0  0  0
 22 25  1  0  0  0  0
 20 21  1  0  0  0  0
 20 22  1  0  0  0  0
M  END
$$$$
default_name
  -OEChem-01062215323D

 25 24  0     1  0  0  0  0  0999 V2000
   -2.7826   -3.8464    0.7821 H   0  0  0  0  0  0  0  0  0  0  0  0
   -2.8156   -2.8034    0.4711 C   0  0  0  0  0  0  0  0  0  0  0  0
   -3.4336   -2.2354    1.1641 H   0  0  0  0  0  0  0  0  0  0  0  0
   -3.2256   -2.7344   -0.5349 H   0  0  0  0  0  0  0  0  0  0  0  0
   -1.4126   -2.2444    0.4801 C   0  0  0  0  0  0  0  0  0  0  0  0
   -0.4686   -2.9534    0.8001 O   0  0  0  0  0  0  0  0  0  0  0  0
   -1.2736   -0.9704    0.1241 N   0  0  0  0  0  0  0  0  0  0  0  0
   -2.0996   -0.4354   -0.1019 H   0  0  0  0  0  0  0  0  0  0  0  0
   -0.0016   -0.2394    0.1271 C   0  0  1  0  0  0  0  0  0  0  0  0
    0.8084   -0.9533   -0.0385 H   0  0  0  0  0  0  0  0  0  0  0  0
   -0.0004    0.7891   -1.0211 C   0  0  0  0  0  0  0  0  0  0  0  0
   -0.9152    1.3815   -0.9787 H   0  0  0  0  0  0  0  0  0  0  0  0
    0.8445    1.4687   -0.9044 H   0  0  0  0  0  0  0  0  0  0  0  0
    0.0552    0.1522   -2.4064 C   0  0  0  0  0  0  0  0  0  0  0  0
    0.5762   -0.9219   -2.6764 O   0  0  0  0  0  0  0  0  0  0  0  0
   -0.5249    0.8742   -3.3833 O   0  0  0  0  0  0  0  0  0  0  0  0
   -0.4350    0.3542   -4.1825 H   0  0  0  0  0  0  0  0  0  0  0  0
    0.2196    0.4328    1.4968 C   0  0  0  0  0  0  0  0  0  0  0  0
    0.8028   -0.1786    2.3910 O   0  0  0  0  0  0  0  0  0  0  0  0
   -0.2463    1.6751    1.6680 N   0  0  0  0  0  0  0  0  0  0  0  0
   -0.7717    2.0863    0.9033 H   0  0  0  0  0  0  0  0  0  0  0  0
   -0.1094    2.4452    2.9024 C   0  0  0  0  0  0  0  0  0  0  0  0
    0.9367    2.4569    3.2158 H   0  0  0  0  0  0  0  0  0  0  0  0
   -0.4493    3.4696    2.7450 H   0  0  0  0  0  0  0  0  0  0  0  0
   -0.7052    1.9843    3.6922 H   0  0  0  0  0  0  0  0  0  0  0  0
  5  6  2  0  0  0  0
  5  7  1  0  0  0  0
  2  3  1  0  0  0  0
  2  4  1  0  0  0  0
  2  5  1  0  0  0  0
  1  2  1  0  0  0  0
 18 19  2  0  0  0  0
 18 20  1  0  0  0  0
 16 17  1  0  0  0  0
 14 15  2  0  0  0  0
 14 16  1  0  0  0  0
 11 12  1  0  0  0  0
 11 13  1  0  0  0  0
 11 14  1  0  0  0  0
  9 10  1  0  0  0  0
  9 11  1  0  0  0  0
  9 18  1  0  0  0  0
  7  8  1  0  0  0  0
  7  9  1  0  0  0  0
 22 23  1  0  0  0  0
 22 24  1  0  0  0  0
 22 25  1  0  0  0  0
 20 21  1  0  0  0  0
 20 22  1  0  0  0  0
M  END
$$$$
default_name
  -OEChem-01062215323D

 25 24  0     1  0  0  0  0  0999 V2000
   -2.7826   -3.8464    0.7821 H   0  0  0  0  0  0  0  0  0  0  0  0
   -2.8156   -2.8034    0.4711 C   0  0  0  0  0  0  0  0  0  0  0  0
   -3.4336   -2.2354    1.1641 H   0  0  0  0  0  0  0  0  0  0  0  0
   -3.2256   -2.7344   -0.5349 H   0  0  0  0  0  0  0  0  0  0  0  0
   -1.4126   -2.2444    0.4801 C   0  0  0  0  0  0  0  0  0  0  0  0
   -0.4686   -2.9534    0.8001 O   0  0  0  0  0  0  0  0  0  0  0  0
   -1.2736   -0.9704    0.1241 N   0  0  0  0  0  0  0  0  0  0  0  0
   -2.0996   -0.4354   -0.1019 H   0  0  0  0  0  0  0  0  0  0  0  0
   -0.0016   -0.2394    0.1271 C   0  0  1  0  0  0  0  0  0  0  0  0
    0.8084   -0.9533   -0.0385 H   0  0  0  0  0  0  0  0  0  0  0  0
   -0.0004    0.7891   -1.0211 C   0  0  0  0  0  0  0  0  0  0  0  0
   -0.9152    1.3815   -0.9787 H   0  0  0  0  0  0  0  0  0  0  0  0
    0.8445    1.4687   -0.9044 H   0  0  0  0  0  0  0  0  0  0  0  0
    0.0552    0.1522   -2.4064 C   0  0  0  0  0  0  0  0  0  0  0  0
    0.5762   -0.9219   -2.6764 O   0  0  0  0  0  0  0  0  0  0  0  0
   -0.5249    0.8742   -3.3833 O   0  0  0  0  0  0  0  0  0  0  0  0
   -0.4350    0.3542   -4.1825 H   0  0  0  0  0  0  0  0  0  0  0  0
    0.2196    0.4328    1.4968 C   0  0  0  0  0  0  0  0  0  0  0  0
    1.0275   -0.0478    2.2905 O   0  0  0  0  0  0  0  0  0  0  0  0
   -0.4937    1.5286    1.7798 N   0  0  0  0  0  0  0  0  0  0  0  0
   -1.1848    1.8248    1.0983 H   0  0  0  0  0  0  0  0  0  0  0  0
   -0.3921    2.2796    3.0293 C   0  0  0  0  0  0  0  0  0  0  0  0
    0.6532    2.5263    3.2276 H   0  0  0  0  0  0  0  0  0  0  0  0
   -0.9724    3.2007    2.9615 H   0  0  0  0  0  0  0  0  0  0  0  0
   -0.7704    1.6743    3.8549 H   0  0  0  0  0  0  0  0  0  0  0  0
  5  6  2  0  0  0  0
  5  7  1  0  0  0  0
  2  3  1  0  0  0  0
  2  4  1  0  0  0  0
  2  5  1  0  0  0  0
  1  2  1  0  0  0  0
 18 19  2  0  0  0  0
 18 20  1  0  0  0  0
 16 17  1  0  0  0  0
 14 15  2  0  0  0  0
 14 16  1  0  0  0  0
 11 12  1  0  0  0  0
 11 13  1  0  0  0  0
 11 14  1  0  0  0  0
  9 10  1  0  0  0  0
  9 11  1  0  0  0  0
  9 18  1  0  0  0  0
  7  8  1  0  0  0  0
  7  9  1  0  0  0  0
 22 23  1  0  0  0  0
 22 24  1  0  0  0  0
 22 25  1  0  0  0  0
 20 21  1  0  0  0  0
 20 22  1  0  0  0  0
M  END
$$$$
default_name
  -OEChem-01062215323D

 25 24  0     1  0  0  0  0  0999 V2000
   -2.7826   -3.8464    0.7821 H   0  0  0  0  0  0  0  0  0  0  0  0
   -2.8156   -2.8034    0.4711 C   0  0  0  0  0  0  0  0  0  0  0  0
   -3.4336   -2.2354    1.1641 H   0  0  0  0  0  0  0  0  0  0  0  0
   -3.2256   -2.7344   -0.5349 H   0  0  0  0  0  0  0  0  0  0  0  0
   -1.4126   -2.2444    0.4801 C   0  0  0  0  0  0  0  0  0  0  0  0
   -0.4686   -2.9534    0.8001 O   0  0  0  0  0  0  0  0  0  0  0  0
   -1.2736   -0.9704    0.1241 N   0  0  0  0  0  0  0  0  0  0  0  0
   -2.0996   -0.4354   -0.1019 H   0  0  0  0  0  0  0  0  0  0  0  0
   -0.0016   -0.2394    0.1271 C   0  0  1  0  0  0  0  0  0  0  0  0
    0.8084   -0.9533   -0.0385 H   0  0  0  0  0  0  0  0  0  0  0  0
   -0.0004    0.7891   -1.0211 C   0  0  0  0  0  0  0  0  0  0  0  0
   -0.9152    1.3815   -0.9787 H   0  0  0  0  0  0  0  0  0  0  0  0
    0.8445    1.4687   -0.9044 H   0  0  0  0  0  0  0  0  0  0  0  0
    0.0552    0.1522   -2.4064 C   0  0  0  0  0  0  0  0  0  0  0  0
    0.5762   -0.9219   -2.6764 O   0  0  0  0  0  0  0  0  0  0  0  0
   -0.5249    0.8742   -3.3833 O   0  0  0  0  0  0  0  0  0  0  0  0
   -0.4350    0.3542   -4.1825 H   0  0  0  0  0  0  0  0  0  0  0  0
    0.2196    0.4328    1.4968 C   0  0  0  0  0  0  0  0  0  0  0  0
    1.2030    0.1340    2.1729 O   0  0  0  0  0  0  0  0  0  0  0  0
   -0.6863    1.3260    1.9104 N   0  0  0  0  0  0  0  0  0  0  0  0
   -1.5018    1.4700    1.3237 H   0  0  0  0  0  0  0  0  0  0  0  0
   -0.6128    2.0500    3.1776 C   0  0  0  0  0  0  0  0  0  0  0  0
    0.3647    2.5277    3.2735 H   0  0  0  0  0  0  0  0  0  0  0  0
   -1.3915    2.8126    3.2197 H   0  0  0  0  0  0  0  0  0  0  0  0
   -0.7438    1.3539    4.0079 H   0  0  0  0  0  0  0  0  0  0  0  0
  5  6  2  0  0  0  0
  5  7  1  0  0  0  0
  2  3  1  0  0  0  0
  2  4  1  0  0  0  0
  2  5  1  0  0  0  0
  1  2  1  0  0  0  0
 18 19  2  0  0  0  0
 18 20  1  0  0  0  0
 16 17  1  0  0  0  0
 14 15  2  0  0  0  0
 14 16  1  0  0  0  0
 11 12  1  0  0  0  0
 11 13  1  0  0  0  0
 11 14  1  0  0  0  0
  9 10  1  0  0  0  0
  9 11  1  0  0  0  0
  9 18  1  0  0  0  0
  7  8  1  0  0  0  0
  7  9  1  0  0  0  0
 22 23  1  0  0  0  0
 22 24  1  0  0  0  0
 22 25  1  0  0  0  0
 20 21  1  0  0  0  0
 20 22  1  0  0  0  0
M  END
$$$$
default_name
  -OEChem-01062215323D

 25 24  0     1  0  0  0  0  0999 V2000
   -2.7826   -3.8464    0.7821 H   0  0  0  0  0  0  0  0  0  0  0  0
   -2.8156   -2.8034    0.4711 C   0  0  0  0  0  0  0  0  0  0  0  0
   -3.4336   -2.2354    1.1641 H   0  0  0  0  0  0  0  0  0  0  0  0
   -3.2256   -2.7344   -0.5349 H   0  0  0  0  0  0  0  0  0  0  0  0
   -1.4126   -2.2444    0.4801 C   0  0  0  0  0  0  0  0  0  0  0  0
   -0.4686   -2.9534    0.8001 O   0  0  0  0  0  0  0  0  0  0  0  0
   -1.2736   -0.9704    0.1241 N   0  0  0  0  0  0  0  0  0  0  0  0
   -2.0996   -0.4354   -0.1019 H   0  0  0  0  0  0  0  0  0  0  0  0
   -0.0016   -0.2394    0.1271 C   0  0  1  0  0  0  0  0  0  0  0  0
    0.8084   -0.9533   -0.0385 H   0  0  0  0  0  0  0  0  0  0  0  0
   -0.0004    0.7891   -1.0211 C   0  0  0  0  0  0  0  0  0  0  0  0
   -0.9152    1.3815   -0.9787 H   0  0  0  0  0  0  0  0  0  0  0  0
    0.8445    1.4687   -0.9044 H   0  0  0  0  0  0  0  0  0  0  0  0
    0.0552    0.1522   -2.4064 C   0  0  0  0  0  0  0  0  0  0  0  0
    0.5762   -0.9219   -2.6764 O   0  0  0  0  0  0  0  0  0  0  0  0
   -0.5249    0.8742   -3.3833 O   0  0  0  0  0  0  0  0  0  0  0  0
   -0.4350    0.3542   -4.1825 H   0  0  0  0  0  0  0  0  0  0  0  0
    0.2196    0.4328    1.4968 C   0  0  0  0  0  0  0  0  0  0  0  0
    1.3175    0.3542    2.0463 O   0  0  0  0  0  0  0  0  0  0  0  0
   -0.8111    1.0813    2.0507 N   0  0  0  0  0  0  0  0  0  0  0  0
   -1.7009    1.0461    1.5639 H   0  0  0  0  0  0  0  0  0  0  0  0
   -0.7564    1.7720    3.3373 C   0  0  0  0  0  0  0  0  0  0  0  0
    0.0908    2.4611    3.3504 H   0  0  0  0  0  0  0  0  0  0  0  0
   -1.6779    2.3318    3.5019 H   0  0  0  0  0  0  0  0  0  0  0  0
   -0.6272    1.0447    4.1408 H   0  0  0  0  0  0  0  0  0  0  0  0
  5  6  2  0  0  0  0
  5  7  1  0  0  0  0
  2  3  1  0  0  0  0
  2  4  1  0  0  0  0
  2  5  1  0  0  0  0
  1  2  1  0  0  0  0
 18 19  2  0  0  0  0
 18 20  1  0  0  0  0
 16 17  1  0  0  0  0
 14 15  2  0  0  0  0
 14 16  1  0  0  0  0
 11 12  1  0  0  0  0
 11 13  1  0  0  0  0
 11 14  1  0  0  0  0
  9 10  1  0  0  0  0
  9 11  1  0  0  0  0
  9 18  1  0  0  0  0
  7  8  1  0  0  0  0
  7  9  1  0  0  0  0
 22 23  1  0  0  0  0
 22 24  1  0  0  0  0
 22 25  1  0  0  0  0
 20 21  1  0  0  0  0
 20 22  1  0  0  0  0
M  END
$$$$
default_name
  -OEChem-01062215323D

 25 24  0     1  0  0  0  0  0999 V2000
   -2.7826   -3.8464    0.7821 H   0  0  0  0  0  0  0  0  0  0  0  0
   -2.8156   -2.8034    0.4711 C   0  0  0  0  0  0  0  0  0  0  0  0
   -3.4336   -2.2354    1.1641 H   0  0  0  0  0  0  0  0  0  0  0  0
   -3.2256   -2.7344   -0.5349 H   0  0  0  0  0  0  0  0  0  0  0  0
   -1.4126   -2.2444    0.4801 C   0  0  0  0  0  0  0  0  0  0  0  0
   -0.4686   -2.9534    0.8001 O   0  0  0  0  0  0  0  0  0  0  0  0
   -1.2736   -0.9704    0.1241 N   0  0  0  0  0  0  0  0  0  0  0  0
   -2.0996   -0.4354   -0.1019 H   0  0  0  0  0  0  0  0  0  0  0  0
   -0.0016   -0.2394    0.1271 C   0  0  1  0  0  0  0  0  0  0  0  0
    0.8084   -0.9533   -0.0385 H   0  0  0  0  0  0  0  0  0  0  0  0
   -0.0004    0.7891   -1.0211 C   0  0  0  0  0  0  0  0  0  0  0  0
   -0.9152    1.3815   -0.9787 H   0  0  0  0  0  0  0  0  0  0  0  0
    0.8445    1.4687   -0.9044 H   0  0  0  0  0  0  0  0  0  0  0  0
    0.0552    0.1522   -2.4064 C   0  0  0  0  0  0  0  0  0  0  0  0
    0.5762   -0.9219   -2.6764 O   0  0  0  0  0  0  0  0  0  0  0  0
   -0.5249    0.8742   -3.3833 O   0  0  0  0  0  0  0  0  0  0  0  0
   -0.4350    0.3542   -4.1825 H   0  0  0  0  0  0  0  0  0  0  0  0
    0.2196    0.4328    1.4968 C   0  0  0  0  0  0  0  0  0  0  0  0
    1.3632    0.5980    1.9193 O   0  0  0  0  0  0  0  0  0  0  0  0
   -0.8595    0.8109    2.1912 N   0  0  0  0  0  0  0  0  0  0  0  0
   -1.7686    0.5818    1.8027 H   0  0  0  0  0  0  0  0  0  0  0  0
   -0.8132    1.4644    3.4974 C   0  0  0  0  0  0  0  0  0  0  0  0
   -0.1497    2.3308    3.4532 H   0  0  0  0  0  0  0  0  0  0  0  0
   -1.8122    1.7910    3.7890 H   0  0  0  0  0  0  0  0  0  0  0  0
   -0.4284    0.7680    4.2445 H   0  0  0  0  0  0  0  0  0  0  0  0
  5  6  2  0  0  0  0
  5  7  1  0  0  0  0
  2  3  1  0  0  0  0
  2  4  1  0  0  0  0
  2  5  1  0  0  0  0
  1  2  1  0  0  0  0
 18 19  2  0  0  0  0
 18 20  1  0  0  0  0
 16 17  1  0  0  0  0
 14 15  2  0  0  0  0
 14 16  1  0  0  0  0
 11 12  1  0  0  0  0
 11 13  1  0  0  0  0
 11 14  1  0  0  0  0
  9 10  1  0  0  0  0
  9 11  1  0  0  0  0
  9 18  1  0  0  0  0
  7  8  1  0  0  0  0
  7  9  1  0  0  0  0
 22 23  1  0  0  0  0
 22 24  1  0  0  0  0
 22 25  1  0  0  0  0
 20 21  1  0  0  0  0
 20 22  1  0  0  0  0
M  END
$$$$
default_name
  -OEChem-01062215323D

 25 24  0     1  0  0  0  0  0999 V2000
   -2.7826   -3.8464    0.7821 H   0  0  0  0  0  0  0  0  0  0  0  0
   -2.8156   -2.8034    0.4711 C   0  0  0  0  0  0  0  0  0  0  0  0
   -3.4336   -2.2354    1.1641 H   0  0  0  0  0  0  0  0  0  0  0  0
   -3.2256   -2.7344   -0.5349 H   0  0  0  0  0  0  0  0  0  0  0  0
   -1.4126   -2.2444    0.4801 C   0  0  0  0  0  0  0  0  0  0  0  0
   -0.4686   -2.9534    0.8001 O   0  0  0  0  0  0  0  0  0  0  0  0
   -1.2736   -0.9704    0.1241 N   0  0  0  0  0  0  0  0  0  0  0  0
   -2.0996   -0.4354   -0.1019 H   0  0  0  0  0  0  0  0  0  0  0  0
   -0.0016   -0.2394    0.1271 C   0  0  1  0  0  0  0  0  0  0  0  0
    0.8084   -0.9533   -0.0385 H   0  0  0  0  0  0  0  0  0  0  0  0
   -0.0004    0.7891   -1.0211 C   0  0  0  0  0  0  0  0  0  0  0  0
   -0.9152    1.3815   -0.9787 H   0  0  0  0  0  0  0  0  0  0  0  0
    0.8445    1.4687   -0.9044 H   0  0  0  0  0  0  0  0  0  0  0  0
    0.0552    0.1522   -2.4064 C   0  0  0  0  0  0  0  0  0  0  0  0
    0.5762   -0.9219   -2.6764 O   0  0  0  0  0  0  0  0  0  0  0  0
   -0.5249    0.8742   -3.3833 O   0  0  0  0  0  0  0  0  0  0  0  0
   -0.4350    0.3542   -4.1825 H   0  0  0  0  0  0  0  0  0  0  0  0
    0.2196    0.4328    1.4968 C   0  0  0  0  0  0  0  0  0  0  0  0
    1.3369    0.8488    1.8005 O   0  0  0  0  0  0  0  0  0  0  0  0
   -0.8282    0.5334    2.3223 N   0  0  0  0  0  0  0  0  0  0  0  0
   -1.7003    0.1090    2.0238 H   0  0  0  0  0  0  0  0  0  0  0  0
   -0.7792    1.1484    3.6471 C   0  0  0  0  0  0  0  0  0  0  0  0
   -0.3404    2.1459    3.5748 H   0  0  0  0  0  0  0  0  0  0  0  0
   -1.7851    1.2271    4.0614 H   0  0  0  0  0  0  0  0  0  0  0  0
   -0.1611    0.5426    4.3120 H   0  0  0  0  0  0  0  0  0  0  0  0
  5  6  2  0  0  0  0
  5  7  1  0  0  0  0
  2  3  1  0  0  0  0
  2  4  1  0  0  0  0
  2  5  1  0  0  0  0
  1  2  1  0  0  0  0
 18 19  2  0  0  0  0
 18 20  1  0  0  0  0
 16 17  1  0  0  0  0
 14 15  2  0  0  0  0
 14 16  1  0  0  0  0
 11 12  1  0  0  0  0
 11 13  1  0  0  0  0
 11 14  1  0  0  0  0
  9 10  1  0  0  0  0
  9 11  1  0  0  0  0
  9 18  1  0  0  0  0
  7  8  1  0  0  0  0
  7  9  1  0  0  0  0
 22 23  1  0  0  0  0
 22 24  1  0  0  0  0
 22 25  1  0  0  0  0
 20 21  1  0  0  0  0
 20 22  1  0  0  0  0
M  END
$$$$
default_name
  -OEChem-01062215323D

 25 24  0     1  0  0  0  0  0999 V2000
   -2.7826   -3.8464    0.7821 H   0  0  0  0  0  0  0  0  0  0  0  0
   -2.8156   -2.8034    0.4711 C   0  0  0  0  0  0  0  0  0  0  0  0
   -3.4336   -2.2354    1.1641 H   0  0  0  0  0  0  0  0  0  0  0  0
   -3.2256   -2.7344   -0.5349 H   0  0  0  0  0  0  0  0  0  0  0  0
   -1.4126   -2.2444    0.4801 C   0  0  0  0  0  0  0  0  0  0  0  0
   -0.4686   -2.9534    0.8001 O   0  0  0  0  0  0  0  0  0  0  0  0
   -1.2736   -0.9704    0.1241 N   0  0  0  0  0  0  0  0  0  0  0  0
   -2.0996   -0.4354   -0.1019 H   0  0  0  0  0  0  0  0  0  0  0  0
   -0.0016   -0.2394    0.1271 C   0  0  1  0  0  0  0  0  0  0  0  0
    0.8084   -0.9533   -0.0385 H   0  0  0  0  0  0  0  0  0  0  0  0
   -0.0004    0.7891   -1.0211 C   0  0  0  0  0  0  0  0  0  0  0  0
   -0.9152    1.3815   -0.9787 H   0  0  0  0  0  0  0  0  0  0  0  0
    0.8445    1.4687   -0.9044 H   0  0  0  0  0  0  0  0  0  0  0  0
    0.0552    0.1522   -2.4064 C   0  0  0  0  0  0  0  0  0  0  0  0
    0.5762   -0.9219   -2.6764 O   0  0  0  0  0  0  0  0  0  0  0  0
   -0.5249    0.8742   -3.3833 O   0  0  0  0  0  0  0  0  0  0  0  0
   -0.4350    0.3542   -4.1825 H   0  0  0  0  0  0  0  0  0  0  0  0
    0.2196    0.4328    1.4968 C   0  0  0  0  0  0  0  0  0  0  0  0
    1.2405    1.0893    1.6980 O   0  0  0  0  0  0  0  0  0  0  0  0
   -0.7194    0.2677    2.4352 N   0  0  0  0  0  0  0  0  0  0  0  0
   -1.5007   -0.3402    2.2120 H   0  0  0  0  0  0  0  0  0  0  0  0
   -0.6569    0.8453    3.7760 C   0  0  0  0  0  0  0  0  0  0  0  0
   -0.4684    1.9189    3.7069 H   0  0  0  0  0  0  0  0  0  0  0  0
   -1.5986    0.6786    4.3006 H   0  0  0  0  0  0  0  0  0  0  0  0
    0.1566    0.3838    4.3386 H   0  0  0  0  0  0  0  0  0  0  0  0
  5  6  2  0  0  0  0
  5  7  1  0  0  0  0
  2  3  1  0  0  0  0
  2  4  1  0  0  0  0
  2  5  1  0  0  0  0
  1  2  1  0  0  0  0
 18 19  2  0  0  0  0
 18 20  1  0  0  0  0
 16 17  1  0  0  0  0
 14 15  2  0  0  0  0
 14 16  1  0  0  0  0
 11 12  1  0  0  0  0
 11 13  1  0  0  0  0
 11 14  1  0  0  0  0
  9 10  1  0  0  0  0
  9 11  1  0  0  0  0
  9 18  1  0  0  0  0
  7  8  1  0  0  0  0
  7  9  1  0  0  0  0
 22 23  1  0  0  0  0
 22 24  1  0  0  0  0
 22 25  1  0  0  0  0
 20 21  1  0  0  0  0
 20 22  1  0  0  0  0
M  END
$$$$
default_name
  -OEChem-01062215323D

 25 24  0     1  0  0  0  0  0999 V2000
   -2.7826   -3.8464    0.7821 H   0  0  0  0  0  0  0  0  0  0  0  0
   -2.8156   -2.8034    0.4711 C   0  0  0  0  0  0  0  0  0  0  0  0
   -3.4336   -2.2354    1.1641 H   0  0  0  0  0  0  0  0  0  0  0  0
   -3.2256   -2.7344   -0.5349 H   0  0  0  0  0  0  0  0  0  0  0  0
   -1.4126   -2.2444    0.4801 C   0  0  0  0  0  0  0  0  0  0  0  0
   -0.4686   -2.9534    0.8001 O   0  0  0  0  0  0  0  0  0  0  0  0
   -1.2736   -0.9704    0.1241 N   0  0  0  0  0  0  0  0  0  0  0  0
   -2.0996   -0.4354   -0.1019 H   0  0  0  0  0  0  0  0  0  0  0  0
   -0.0016   -0.2394    0.1271 C   0  0  1  0  0  0  0  0  0  0  0  0
    0.8084   -0.9533   -0.0385 H   0  0  0  0  0  0  0  0  0  0  0  0
   -0.0004    0.7891   -1.0211 C   0  0  0  0  0  0  0  0  0  0  0  0
   -0.9152    1.3815   -0.9787 H   0  0  0  0  0  0  0  0  0  0  0  0
    0.8445    1.4687   -0.9044 H   0  0  0  0  0  0  0  0  0  0  0  0
    0.0552    0.1522   -2.4064 C   0  0  0  0  0  0  0  0  0  0  0  0
    0.5762   -0.9219   -2.6764 O   0  0  0  0  0  0  0  0  0  0  0  0
   -0.5249    0.8742   -3.3833 O   0  0  0  0  0  0  0  0  0  0  0  0
   -0.4350    0.3542   -4.1825 H   0  0  0  0  0  0  0  0  0  0  0  0
    0.2196    0.4328    1.4968 C   0  0  0  0  0  0  0  0  0  0  0  0
    1.0804    1.3033    1.6188 O   0  0  0  0  0  0  0  0  0  0  0  0
   -0.5405    0.0319    2.5220 N   0  0  0  0  0  0  0  0  0  0  0  0
   -1.1834   -0.7353    2.3547 H   0  0  0  0  0  0  0  0  0  0  0  0
   -0.4545    0.5760    3.8756 C   0  0  0  0  0  0  0  0  0  0  0  0
   -0.5249    1.6653    3.8405 H   0  0  0  0  0  0  0  0  0  0  0  0
   -1.2653    0.1827    4.4901 H   0  0  0  0  0  0  0  0  0  0  0  0
    0.5029    0.3025    4.3226 H   0  0  0  0  0  0  0  0  0  0  0  0
  5  6  2  0  0  0  0
  5  7  1  0  0  0  0
  2  3  1  0  0  0  0
  2  4  1  0  0  0  0
  2  5  1  0  0  0  0
  1  2  1  0  0  0  0
 18 19  2  0  0  0  0
 18 20  1  0  0  0  0
 16 17  1  0  0  0  0
 14 15  2  0  0  0  0
 14 16  1  0  0  0  0
 11 12  1  0  0  0  0
 11 13  1  0  0  0  0
 11 14  1  0  0  0  0
  9 10  1  0  0  0  0
  9 11  1  0  0  0  0
  9 18  1  0  0  0  0
  7  8  1  0  0  0  0
  7  9  1  0  0  0  0
 22 23  1  0  0  0  0
 22 24  1  0  0  0  0
 22 25  1  0  0  0  0
 20 21  1  0  0  0  0
 20 22  1  0  0  0  0
M  END
$$$$
default_name
  -OEChem-01062215323D

 25 24  0     1  0  0  0  0  0999 V2000
   -2.7826   -3.8464    0.7821 H   0  0  0  0  0  0  0  0  0  0  0  0
   -2.8156   -2.8034    0.4711 C   0  0  0  0  0  0  0  0  0  0  0  0
   -3.4336   -2.2354    1.1641 H   0  0  0  0  0  0  0  0  0  0  0  0
   -3.2256   -2.7344   -0.5349 H   0  0  0  0  0  0  0  0  0  0  0  0
   -1.4126   -2.2444    0.4801 C   0  0  0  0  0  0  0  0  0  0  0  0
   -0.4686   -2.9534    0.8001 O   0  0  0  0  0  0  0  0  0  0  0  0
   -1.2736   -0.9704    0.1241 N   0  0  0  0  0  0  0  0  0  0  0  0
   -2.0996   -0.4354   -0.1019 H   0  0  0  0  0  0  0  0  0  0  0  0
   -0.0016   -0.2394    0.1271 C   0  0  1  0  0  0  0  0  0  0  0  0
    0.8084   -0.9533   -0.0385 H   0  0  0  0  0  0  0  0  0  0  0  0
   -0.0004    0.7891   -1.0211 C   0  0  0  0  0  0  0  0  0  0  0  0
   -0.9152    1.3815   -0.9787 H   0  0  0  0  0  0  0  0  0  0  0  0
    0.8445    1.4687   -0.9044 H   0  0  0  0  0  0  0  0  0  0  0  0
    0.0552    0.1522   -2.4064 C   0  0  0  0  0  0  0  0  0  0  0  0
    0.5762   -0.9219   -2.6764 O   0  0  0  0  0  0  0  0  0  0  0  0
   -0.5249    0.8742   -3.3833 O   0  0  0  0  0  0  0  0  0  0  0  0
   -0.4350    0.3542   -4.1825 H   0  0  0  0  0  0  0  0  0  0  0  0
    0.2196    0.4328    1.4968 C   0  0  0  0  0  0  0  0  0  0  0  0
    0.8677    1.4761    1.5683 O   0  0  0  0  0  0  0  0  0  0  0  0
   -0.3036   -0.1580    2.5770 N   0  0  0  0  0  0  0  0  0  0  0  0
   -0.7699   -1.0492    2.4419 H   0  0  0  0  0  0  0  0  0  0  0  0
   -0.1858    0.3586    3.9388 C   0  0  0  0  0  0  0  0  0  0  0  0
   -0.5062    1.4024    3.9665 H   0  0  0  0  0  0  0  0  0  0  0  0
   -0.8079   -0.2266    4.6171 H   0  0  0  0  0  0  0  0  0  0  0  0
    0.8543    0.3042    4.2650 H   0  0  0  0  0  0  0  0  0  0  0  0
  5  6  2  0  0  0  0
  5  7  1  0  0  0  0
  2  3  1  0  0  0  0
  2  4  1  0  0  0  0
  2  5  1  0  0  0  0
  1  2  1  0  0  0  0
 18 19  2  0  0  0  0
 18 20  1  0  0  0  0
 16 17  1  0  0  0  0
 14 15  2  0  0  0  0
 14 16  1  0  0  0  0
 11 12  1  0  0  0  0
 11 13  1  0  0  0  0
 11 14  1  0  0  0  0
  9 10  1  0  0  0  0
  9 11  1  0  0  0  0
  9 18  1  0  0  0  0
  7  8  1  0  0  0  0
  7  9  1  0  0  0  0
 22 23  1  0  0  0  0
 22 24  1  0  0  0  0
 22 25  1  0  0  0  0
 20 21  1  0  0  0  0
 20 22  1  0  0  0  0
M  END
$$$$
default_name
  -OEChem-01062215323D

 25 24  0     1  0  0  0  0  0999 V2000
   -2.7826   -3.8464    0.7821 H   0  0  0  0  0  0  0  0  0  0  0  0
   -2.8156   -2.8034    0.4711 C   0  0  0  0  0  0  0  0  0  0  0  0
   -3.4336   -2.2354    1.1641 H   0  0  0  0  0  0  0  0  0  0  0  0
   -3.2256   -2.7344   -0.5349 H   0  0  0  0  0  0  0  0  0  0  0  0
   -1.4126   -2.2444    0.4801 C   0  0  0  0  0  0  0  0  0  0  0  0
   -0.4686   -2.9534    0.8001 O   0  0  0  0  0  0  0  0  0  0  0  0
   -1.2736   -0.9704    0.1241 N   0  0  0  0  0  0  0  0  0  0  0  0
   -2.0996   -0.4354   -0.1019 H   0  0  0  0  0  0  0  0  0  0  0  0
   -0.0016   -0.2394    0.1271 C   0  0  1  0  0  0  0  0  0  0  0  0
    0.8084   -0.9533   -0.0385 H   0  0  0  0  0  0  0  0  0  0  0  0
   -0.0004    0.7891   -1.0211 C   0  0  0  0  0  0  0  0  0  0  0  0
   -0.9152    1.3815   -0.9787 H   0  0  0  0  0  0  0  0  0  0  0  0
    0.8445    1.4687   -0.9044 H   0  0  0  0  0  0  0  0  0  0  0  0
    0.0552    0.1522   -2.4064 C   0  0  0  0  0  0  0  0  0  0  0  0
    0.5762   -0.9219   -2.6764 O   0  0  0  0  0  0  0  0  0  0  0  0
   -0.5249    0.8742   -3.3833 O   0  0  0  0  0  0  0  0  0  0  0  0
   -0.4350    0.3542   -4.1825 H   0  0  0  0  0  0  0  0  0  0  0  0
    0.2196    0.4328    1.4968 C   0  0  0  0  0  0  0  0  0  0  0  0
    0.6168    1.5960    1.5500 O   0  0  0  0  0  0  0  0  0  0  0  0
   -0.0249   -0.2890    2.5962 N   0  0  0  0  0  0  0  0  0  0  0  0
   -0.2885   -1.2605    2.4679 H   0  0  0  0  0  0  0  0  0  0  0  0
    0.1309    0.2081    3.9615 C   0  0  0  0  0  0  0  0  0  0  0  0
   -0.4134    1.1481    4.0763 H   0  0  0  0  0  0  0  0  0  0  0  0
   -0.2577   -0.5216    4.6730 H   0  0  0  0  0  0  0  0  0  0  0  0
    1.1869    0.3887    4.1698 H   0  0  0  0  0  0  0  0  0  0  0  0
  5  6  2  0  0  0  0
  5  7  1  0  0  0  0
  2  3  1  0  0  0  0
  2  4  1  0  0  0  0
  2  5  1  0  0  0  0
  1  2  1  0  0  0  0
 18 19  2  0  0  0  0
 18 20  1  0  0  0  0
 16 17  1  0  0  0  0
 14 15  2  0  0  0  0
 14 16  1  0  0  0  0
 11 12  1  0  0  0  0
 11 13  1  0  0  0  0
 11 14  1  0  0  0  0
  9 10  1  0  0  0  0
  9 11  1  0  0  0  0
  9 18  1  0  0  0  0
  7  8  1  0  0  0  0
  7  9  1  0  0  0  0
 22 23  1  0  0  0  0
 22 24  1  0  0  0  0
 22 25  1  0  0  0  0
 20 21  1  0  0  0  0
 20 22  1  0  0  0  0
M  END
$$$$
default_name
  -OEChem-01062215323D

 25 24  0     1  0  0  0  0  0999 V2000
   -2.7826   -3.8464    0.7821 H   0  0  0  0  0  0  0  0  0  0  0  0
   -2.8156   -2.8034    0.4711 C   0  0  0  0  0  0  0  0  0  0  0  0
   -3.4336   -2.2354    1.1641 H   0  0  0  0  0  0  0  0  0  0  0  0
   -3.2256   -2.7344   -0.5349 H   0  0  0  0  0  0  0  0  0  0  0  0
   -1.4126   -2.2444    0.4801 C   0  0  0  0  0  0  0  0  0  0  0  0
   -0.4686   -2.9534    0.8001 O   0  0  0  0  0  0  0  0  0  0  0  0
   -1.2736   -0.9704    0.1241 N   0  0  0  0  0  0  0  0  0  0  0  0
   -2.0996   -0.4354   -0.1019 H   0  0  0  0  0  0  0  0  0  0  0  0
   -0.0016   -0.2394    0.1271 C   0  0  1  0  0  0  0  0  0  0  0  0
    0.8084   -0.9533   -0.0385 H   0  0  0  0  0  0  0  0  0  0  0  0
   -0.0004    0.7891   -1.0211 C   0  0  0  0  0  0  0  0  0  0  0  0
   -0.9152    1.3815   -0.9787 H   0  0  0  0  0  0  0  0  0  0  0  0
    0.8445    1.4687   -0.9044 H   0  0  0  0  0  0  0  0  0  0  0  0
    0.0552    0.1522   -2.4064 C   0  0  0  0  0  0  0  0  0  0  0  0
    0.5762   -0.9219   -2.6764 O   0  0  0  0  0  0  0  0  0  0  0  0
   -0.5249    0.8742   -3.3833 O   0  0  0  0  0  0  0  0  0  0  0  0
   -0.4350    0.3542   -4.1825 H   0  0  0  0  0  0  0  0  0  0  0  0
    0.2196    0.4328    1.4968 C   0  0  0  0  0  0  0  0  0  0  0  0
    0.3448    1.6548    1.5651 O   0  0  0  0  0  0  0  0  0  0  0  0
    0.2765   -0.3521    2.5785 N   0  0  0  0  0  0  0  0  0  0  0  0
    0.2280   -1.3550    2.4308 H   0  0  0  0  0  0  0  0  0  0  0  0
    0.4739    0.1347    3.9422 C   0  0  0  0  0  0  0  0  0  0  0  0
   -0.2528    0.9197    4.1625 H   0  0  0  0  0  0  0  0  0  0  0  0
    0.3480   -0.6821    4.6540 H   0  0  0  0  0  0  0  0  0  0  0  0
    1.4779    0.5504    4.0434 H   0  0  0  0  0  0  0  0  0  0  0  0
  5  6  2  0  0  0  0
  5  7  1  0  0  0  0
  2  3  1  0  0  0  0
  2  4  1  0  0  0  0
  2  5  1  0  0  0  0
  1  2  1  0  0  0  0
 18 19  2  0  0  0  0
 18 20  1  0  0  0  0
 16 17  1  0  0  0  0
 14 15  2  0  0  0  0
 14 16  1  0  0  0  0
 11 12  1  0  0  0  0
 11 13  1  0  0  0  0
 11 14  1  0  0  0  0
  9 10  1  0  0  0  0
  9 11  1  0  0  0  0
  9 18  1  0  0  0  0
  7  8  1  0  0  0  0
  7  9  1  0  0  0  0
 22 23  1  0  0  0  0
 22 24  1  0  0  0  0
 22 25  1  0  0  0  0
 20 21  1  0  0  0  0
 20 22  1  0  0  0  0
M  END
$$$$
default_name
  -OEChem-01062215323D

 25 24  0     1  0  0  0  0  0999 V2000
   -2.7826   -3.8464    0.7821 H   0  0  0  0  0  0  0  0  0  0  0  0
   -2.8156   -2.8034    0.4711 C   0  0  0  0  0  0  0  0  0  0  0  0
   -3.4336   -2.2354    1.1641 H   0  0  0  0  0  0  0  0  0  0  0  0
   -3.2256   -2.7344   -0.5349 H   0  0  0  0  0  0  0  0  0  0  0  0
   -1.4126   -2.2444    0.4801 C   0  0  0  0  0  0  0  0  0  0  0  0
   -0.4686   -2.9534    0.8001 O   0  0  0  0  0  0  0  0  0  0  0  0
   -1.2736   -0.9704    0.1241 N   0  0  0  0  0  0  0  0  0  0  0  0
   -2.0996   -0.4354   -0.1019 H   0  0  0  0  0  0  0  0  0  0  0  0
   -0.0016   -0.2394    0.1271 C   0  0  1  0  0  0  0  0  0  0  0  0
    0.8084   -0.9533   -0.0385 H   0  0  0  0  0  0  0  0  0  0  0  0
   -0.0004    0.7891   -1.0211 C   0  0  0  0  0  0  0  0  0  0  0  0
   -0.9152    1.3815   -0.9787 H   0  0  0  0  0  0  0  0  0  0  0  0
    0.8445    1.4687   -0.9044 H   0  0  0  0  0  0  0  0  0  0  0  0
    0.0552    0.1522   -2.4064 C   0  0  0  0  0  0  0  0  0  0  0  0
    0.5762   -0.9219   -2.6764 O   0  0  0  0  0  0  0  0  0  0  0  0
   -0.5249    0.8742   -3.3833 O   0  0  0  0  0  0  0  0  0  0  0  0
   -0.4350    0.3542   -4.1825 H   0  0  0  0  0  0  0  0  0  0  0  0
    0.2196    0.4328    1.4968 C   0  0  0  0  0  0  0  0  0  0  0  0
    0.0703    1.6485    1.6125 O   0  0  0  0  0  0  0  0  0  0  0  0
    0.5802   -0.3432    2.5251 N   0  0  0  0  0  0  0  0  0  0  0  0
    0.7445   -1.3261    2.3332 H   0  0  0  0  0  0  0  0  0  0  0  0
    0.8199    0.1434    3.8820 C   0  0  0  0  0  0  0  0  0  0  0  0
   -0.0356    0.7328    4.2191 H   0  0  0  0  0  0  0  0  0  0  0  0
    0.9677   -0.6971    4.5612 H   0  0  0  0  0  0  0  0  0  0  0  0
    1.7076    0.7782    3.8945 H   0  0  0  0  0  0  0  0  0  0  0  0
  5  6  2  0  0  0  0
  5  7  1  0  0  0  0
  2  3  1  0  0  0  0
  2  4  1  0  0  0  0
  2  5  1  0  0  0  0
  1  2  1  0  0  0  0
 18 19  2  0  0  0  0
 18 20  1  0  0  0  0
 16 17  1  0  0  0  0
 14 15  2  0  0  0  0
 14 16  1  0  0  0  0
 11 12  1  0  0  0  0
 11 13  1  0  0  0  0
 11 14  1  0  0  0  0
  9 10  1  0  0  0  0
  9 11  1  0  0  0  0
  9 18  1  0  0  0  0
  7  8  1  0  0  0  0
  7  9  1  0  0  0  0
 22 23  1  0  0  0  0
 22 24  1  0  0  0  0
 22 25  1  0  0  0  0
 20 21  1  0  0  0  0
 20 22  1  0  0  0  0
M  END
$$$$
default_name
  -OEChem-01062215323D

 25 24  0     1  0  0  0  0  0999 V2000
   -2.7826   -3.8464    0.7821 H   0  0  0  0  0  0  0  0  0  0  0  0
   -2.8156   -2.8034    0.4711 C   0  0  0  0  0  0  0  0  0  0  0  0
   -3.4336   -2.2354    1.1641 H   0  0  0  0  0  0  0  0  0  0  0  0
   -3.2256   -2.7344   -0.5349 H   0  0  0  0  0  0  0  0  0  0  0  0
   -1.4126   -2.2444    0.4801 C   0  0  0  0  0  0  0  0  0  0  0  0
   -0.4686   -2.9534    0.8001 O   0  0  0  0  0  0  0  0  0  0  0  0
   -1.2736   -0.9704    0.1241 N   0  0  0  0  0  0  0  0  0  0  0  0
   -2.0996   -0.4354   -0.1019 H   0  0  0  0  0  0  0  0  0  0  0  0
   -0.0016   -0.2394    0.1271 C   0  0  1  0  0  0  0  0  0  0  0  0
    0.8084   -0.9533   -0.0385 H   0  0  0  0  0  0  0  0  0  0  0  0
   -0.0004    0.7891   -1.0211 C   0  0  0  0  0  0  0  0  0  0  0  0
   -0.9152    1.3815   -0.9787 H   0  0  0  0  0  0  0  0  0  0  0  0
    0.8445    1.4687   -0.9044 H   0  0  0  0  0  0  0  0  0  0  0  0
    0.0552    0.1522   -2.4064 C   0  0  0  0  0  0  0  0  0  0  0  0
    0.5762   -0.9219   -2.6764 O   0  0  0  0  0  0  0  0  0  0  0  0
   -0.5249    0.8742   -3.3833 O   0  0  0  0  0  0  0  0  0  0  0  0
   -0.4350    0.3542   -4.1825 H   0  0  0  0  0  0  0  0  0  0  0  0
    0.2196    0.4328    1.4968 C   0  0  0  0  0  0  0  0  0  0  0  0
   -0.1881    1.5775    1.6891 O   0  0  0  0  0  0  0  0  0  0  0  0
    0.8655   -0.2627    2.4395 N   0  0  0  0  0  0  0  0  0  0  0  0
    1.2257   -1.1757    2.1817 H   0  0  0  0  0  0  0  0  0  0  0  0
    1.1454    0.2336    3.7852 C   0  0  0  0  0  0  0  0  0  0  0  0
    0.2237    0.6001    4.2424 H   0  0  0  0  0  0  0  0  0  0  0  0
    1.5593   -0.5657    4.4012 H   0  0  0  0  0  0  0  0  0  0  0  0
    1.8603    1.0566    3.7332 H   0  0  0  0  0  0  0  0  0  0  0  0
  5  6  2  0  0  0  0
  5  7  1  0  0  0  0
  2  3  1  0  0  0  0
  2  4  1  0  0  0  0
  2  5  1  0  0  0  0
  1  2  1  0  0  0  0
 18 19  2  0  0  0  0
 18 20  1  0  0  0  0
 16 17  1  0  0  0  0
 14 15  2  0  0  0  0
 14 16  1  0  0  0  0
 11 12  1  0  0  0  0
 11 13  1  0  0  0  0
 11 14  1  0  0  0  0
  9 10  1  0  0  0  0
  9 11  1  0  0  0  0
  9 18  1  0  0  0  0
  7  8  1  0  0  0  0
  7  9  1  0  0  0  0
 22 23  1  0  0  0  0
 22 24  1  0  0  0  0
 22 25  1  0  0  0  0
 20 21  1  0  0  0  0
 20 22  1  0  0  0  0
M  END
$$$$
default_name
  -OEChem-01062215323D

 25 24  0     1  0  0  0  0  0999 V2000
   -2.7826   -3.8464    0.7821 H   0  0  0  0  0  0  0  0  0  0  0  0
   -2.8156   -2.8034    0.4711 C   0  0  0  0  0  0  0  0  0  0  0  0
   -3.4336   -2.2354    1.1641 H   0  0  0  0  0  0  0  0  0  0  0  0
   -3.2256   -2.7344   -0.5349 H   0  0  0  0  0  0  0  0  0  0  0  0
   -1.4126   -2.2444    0.4801 C   0  0  0  0  0  0  0  0  0  0  0  0
   -0.4686   -2.9534    0.8001 O   0  0  0  0  0  0  0  0  0  0  0  0
   -1.2736   -0.9704    0.1241 N   0  0  0  0  0  0  0  0  0  0  0  0
   -2.0996   -0.4354   -0.1019 H   0  0  0  0  0  0  0  0  0  0  0  0
   -0.0016   -0.2394    0.1271 C   0  0  1  0  0  0  0  0  0  0  0  0
    0.8084   -0.9533   -0.0385 H   0  0  0  0  0  0  0  0  0  0  0  0
   -0.0004    0.7891   -1.0211 C   0  0  0  0  0  0  0  0  0  0  0  0
   -0.9152    1.3815   -0.9787 H   0  0  0  0  0  0  0  0  0  0  0  0
    0.8445    1.4687   -0.9044 H   0  0  0  0  0  0  0  0  0  0  0  0
    0.0552    0.1522   -2.4064 C   0  0  0  0  0  0  0  0  0  0  0  0
    0.5762   -0.9219   -2.6764 O   0  0  0  0  0  0  0  0  0  0  0  0
   -0.5249    0.8742   -3.3833 O   0  0  0  0  0  0  0  0  0  0  0  0
   -0.4350    0.3542   -4.1825 H   0  0  0  0  0  0  0  0  0  0  0  0
    0.2196    0.4328    1.4968 C   0  0  0  0  0  0  0  0  0  0  0  0
   -0.4127    1.4467    1.7896 O   0  0  0  0  0  0  0  0  0  0  0  0
    1.1129   -0.1162    2.3276 N   0  0  0  0  0  0  0  0  0  0  0  0
    1.6388   -0.9143    1.9866 H   0  0  0  0  0  0  0  0  0  0  0  0
    1.4281    0.3992    3.6582 C   0  0  0  0  0  0  0  0  0  0  0  0
    0.5073    0.5307    4.2306 H   0  0  0  0  0  0  0  0  0  0  0  0
    2.0825   -0.2968    4.1847 H   0  0  0  0  0  0  0  0  0  0  0  0
    1.9256    1.3666    3.5705 H   0  0  0  0  0  0  0  0  0  0  0  0
  5  6  2  0  0  0  0
  5  7  1  0  0  0  0
  2  3  1  0  0  0  0
  2  4  1  0  0  0  0
  2  5  1  0  0  0  0
  1  2  1  0  0  0  0
 18 19  2  0  0  0  0
 18 20  1  0  0  0  0
 16 17  1  0  0  0  0
 14 15  2  0  0  0  0
 14 16  1  0  0  0  0
 11 12  1  0  0  0  0
 11 13  1  0  0  0  0
 11 14  1  0  0  0  0
  9 10  1  0  0  0  0
  9 11  1  0  0  0  0
  9 18  1  0  0  0  0
  7  8  1  0  0  0  0
  7  9  1  0  0  0  0
 22 23  1  0  0  0  0
 22 24  1  0  0  0  0
 22 25  1  0  0  0  0
 20 21  1  0  0  0  0
 20 22  1  0  0  0  0
M  END
$$$$
default_name
  -OEChem-01062215323D

 25 24  0     1  0  0  0  0  0999 V2000
   -2.7826   -3.8464    0.7821 H   0  0  0  0  0  0  0  0  0  0  0  0
   -2.8156   -2.8034    0.4711 C   0  0  0  0  0  0  0  0  0  0  0  0
   -3.4336   -2.2354    1.1641 H   0  0  0  0  0  0  0  0  0  0  0  0
   -3.2256   -2.7344   -0.5349 H   0  0  0  0  0  0  0  0  0  0  0  0
   -1.4126   -2.2444    0.4801 C   0  0  0  0  0  0  0  0  0  0  0  0
   -0.4686   -2.9534    0.8001 O   0  0  0  0  0  0  0  0  0  0  0  0
   -1.2736   -0.9704    0.1241 N   0  0  0  0  0  0  0  0  0  0  0  0
   -2.0996   -0.4354   -0.1019 H   0  0  0  0  0  0  0  0  0  0  0  0
   -0.0016   -0.2394    0.1271 C   0  0  1  0  0  0  0  0  0  0  0  0
    0.8084   -0.9533   -0.0385 H   0  0  0  0  0  0  0  0  0  0  0  0
   -0.0004    0.7891   -1.0211 C   0  0  0  0  0  0  0  0  0  0  0  0
   -0.9152    1.3815   -0.9787 H   0  0  0  0  0  0  0  0  0  0  0  0
    0.8445    1.4687   -0.9044 H   0  0  0  0  0  0  0  0  0  0  0  0
    0.0552    0.1522   -2.4064 C   0  0  0  0  0  0  0  0  0  0  0  0
    0.5762   -0.9219   -2.6764 O   0  0  0  0  0  0  0  0  0  0  0  0
   -0.5249    0.8742   -3.3833 O   0  0  0  0  0  0  0  0  0  0  0  0
   -0.4350    0.3542   -4.1825 H   0  0  0  0  0  0  0  0  0  0  0  0
    0.2196    0.4328    1.4968 C   0  0  0  0  0  0  0  0  0  0  0  0
   -0.5883    1.2650    1.9071 O   0  0  0  0  0  0  0  0  0  0  0  0
    1.3055    0.0864    2.1971 N   0  0  0  0  0  0  0  0  0  0  0  0
    1.9558   -0.5595    1.7613 H   0  0  0  0  0  0  0  0  0  0  0  0
    1.6488    0.6288    3.5099 C   0  0  0  0  0  0  0  0  0  0  0  0
    0.7958    0.5293    4.1847 H   0  0  0  0  0  0  0  0  0  0  0  0
    2.5015    0.0913    3.9265 H   0  0  0  0  0  0  0  0  0  0  0  0
    1.8990    1.6871    3.4175 H   0  0  0  0  0  0  0  0  0  0  0  0
  5  6  2  0  0  0  0
  5  7  1  0  0  0  0
  2  3  1  0  0  0  0
  2  4  1  0  0  0  0
  2  5  1  0  0  0  0
  1  2  1  0  0  0  0
 18 19  2  0  0  0  0
 18 20  1  0  0  0  0
 16 17  1  0  0  0  0
 14 15  2  0  0  0  0
 14 16  1  0  0  0  0
 11 12  1  0  0  0  0
 11 13  1  0  0  0  0
 11 14  1  0  0  0  0
  9 10  1  0  0  0  0
  9 11  1  0  0  0  0
  9 18  1  0  0  0  0
  7  8  1  0  0  0  0
  7  9  1  0  0  0  0
 22 23  1  0  0  0  0
 22 24  1  0  0  0  0
 22 25  1  0  0  0  0
 20 21  1  0  0  0  0
 20 22  1  0  0  0  0
M  END
$$$$
default_name
  -OEChem-01062215323D

 25 24  0     1  0  0  0  0  0999 V2000
   -2.7826   -3.8464    0.7821 H   0  0  0  0  0  0  0  0  0  0  0  0
   -2.8156   -2.8034    0.4711 C   0  0  0  0  0  0  0  0  0  0  0  0
   -3.4336   -2.2354    1.1641 H   0  0  0  0  0  0  0  0  0  0  0  0
   -3.2256   -2.7344   -0.5349 H   0  0  0  0  0  0  0  0  0  0  0  0
   -1.4126   -2.2444    0.4801 C   0  0  0  0  0  0  0  0  0  0  0  0
   -0.4686   -2.9534    0.8001 O   0  0  0  0  0  0  0  0  0  0  0  0
   -1.2736   -0.9704    0.1241 N   0  0  0  0  0  0  0  0  0  0  0  0
   -2.0996   -0.4354   -0.1019 H   0  0  0  0  0  0  0  0  0  0  0  0
   -0.0016   -0.2394    0.1271 C   0  0  1  0  0  0  0  0  0  0  0  0
    0.8084   -0.9533   -0.0385 H   0  0  0  0  0  0  0  0  0  0  0  0
   -0.0004    0.7891   -1.0211 C   0  0  0  0  0  0  0  0  0  0  0  0
   -0.9152    1.3815   -0.9787 H   0  0  0  0  0  0  0  0  0  0  0  0
    0.8445    1.4687   -0.9044 H   0  0  0  0  0  0  0  0  0  0  0  0
    0.0552    0.1522   -2.4064 C   0  0  0  0  0  0  0  0  0  0  0  0
    0.5762   -0.9219   -2.6764 O   0  0  0  0  0  0  0  0  0  0  0  0
   -0.5249    0.8742   -3.3833 O   0  0  0  0  0  0  0  0  0  0  0  0
   -0.4350    0.3542   -4.1825 H   0  0  0  0  0  0  0  0  0  0  0  0
    0.2196    0.4328    1.4968 C   0  0  0  0  0  0  0  0  0  0  0  0
   -0.7028    1.0447    2.0338 O   0  0  0  0  0  0  0  0  0  0  0  0
    1.4303    0.3312    2.0568 N   0  0  0  0  0  0  0  0  0  0  0  0
    2.1549   -0.1355    1.5210 H   0  0  0  0  0  0  0  0  0  0  0  0
    1.7924    0.9068    3.3502 C   0  0  0  0  0  0  0  0  0  0  0  0
    1.0696    0.5960    4.1078 H   0  0  0  0  0  0  0  0  0  0  0  0
    2.7880    0.5721    3.6442 H   0  0  0  0  0  0  0  0  0  0  0  0
    1.7823    1.9962    3.2846 H   0  0  0  0  0  0  0  0  0  0  0  0
  5  6  2  0  0  0  0
  5  7  1  0  0  0  0
  2  3  1  0  0  0  0
  2  4  1  0  0  0  0
  2  5  1  0  0  0  0
  1  2  1  0  0  0  0
 18 19  2  0  0  0  0
 18 20  1  0  0  0  0
 16 17  1  0  0  0  0
 14 15  2  0  0  0  0
 14 16  1  0  0  0  0
 11 12  1  0  0  0  0
 11 13  1  0  0  0  0
 11 14  1  0  0  0  0
  9 10  1  0  0  0  0
  9 11  1  0  0  0  0
  9 18  1  0  0  0  0
  7  8  1  0  0  0  0
  7  9  1  0  0  0  0
 22 23  1  0  0  0  0
 22 24  1  0  0  0  0
 22 25  1  0  0  0  0
 20 21  1  0  0  0  0
 20 22  1  0  0  0  0
M  END
$$$$
default_name
  -OEChem-01062215323D

 25 24  0     1  0  0  0  0  0999 V2000
   -2.7826   -3.8464    0.7821 H   0  0  0  0  0  0  0  0  0  0  0  0
   -2.8156   -2.8034    0.4711 C   0  0  0  0  0  0  0  0  0  0  0  0
   -3.4336   -2.2354    1.1641 H   0  0  0  0  0  0  0  0  0  0  0  0
   -3.2256   -2.7344   -0.5349 H   0  0  0  0  0  0  0  0  0  0  0  0
   -1.4126   -2.2444    0.4801 C   0  0  0  0  0  0  0  0  0  0  0  0
   -0.4686   -2.9534    0.8001 O   0  0  0  0  0  0  0  0  0  0  0  0
   -1.2736   -0.9704    0.1241 N   0  0  0  0  0  0  0  0  0  0  0  0
   -2.0996   -0.4354   -0.1019 H   0  0  0  0  0  0  0  0  0  0  0  0
   -0.0016   -0.2394    0.1271 C   0  0  1  0  0  0  0  0  0  0  0  0
    0.8084   -0.9533   -0.0385 H   0  0  0  0  0  0  0  0  0  0  0  0
   -0.0004    0.7891   -1.0211 C   0  0  0  0  0  0  0  0  0  0  0  0
   -0.9152    1.3815   -0.9787 H   0  0  0  0  0  0  0  0  0  0  0  0
    0.8445    1.4687   -0.9044 H   0  0  0  0  0  0  0  0  0  0  0  0
    0.0552    0.1522   -2.4064 C   0  0  0  0  0  0  0  0  0  0  0  0
    0.5762   -0.9219   -2.6764 O   0  0  0  0  0  0  0  0  0  0  0  0
   -0.5249    0.8742   -3.3833 O   0  0  0  0  0  0  0  0  0  0  0  0
   -0.4350    0.3542   -4.1825 H   0  0  0  0  0  0  0  0  0  0  0  0
    0.2196    0.4328    1.4968 C   0  0  0  0  0  0  0  0  0  0  0  0
   -0.7484    0.8009    2.1608 O   0  0  0  0  0  0  0  0  0  0  0  0
    1.4787    0.6015    1.9163 N   0  0  0  0  0  0  0  0  0  0  0  0
    2.2226    0.3287    1.2822 H   0  0  0  0  0  0  0  0  0  0  0  0
    1.8491    1.2144    3.1901 C   0  0  0  0  0  0  0  0  0  0  0  0
    1.3101    0.7262    4.0050 H   0  0  0  0  0  0  0  0  0  0  0  0
    2.9222    1.1129    3.3571 H   0  0  0  0  0  0  0  0  0  0  0  0
    1.5836    2.2729    3.1809 H   0  0  0  0  0  0  0  0  0  0  0  0
  5  6  2  0  0  0  0
  5  7  1  0  0  0  0
  2  3  1  0  0  0  0
  2  4  1  0  0  0  0
  2  5  1  0  0  0  0
  1  2  1  0  0  0  0
 18 19  2  0  0  0  0
 18 20  1  0  0  0  0
 16 17  1  0  0  0  0
 14 15  2  0  0  0  0
 14 16  1  0  0  0  0
 11 12  1  0  0  0  0
 11 13  1  0  0  0  0
 11 14  1  0  0  0  0
  9 10  1  0  0  0  0
  9 11  1  0  0  0  0
  9 18  1  0  0  0  0
  7  8  1  0  0  0  0
  7  9  1  0  0  0  0
 22 23  1  0  0  0  0
 22 24  1  0  0  0  0
 22 25  1  0  0  0  0
 20 21  1  0  0  0  0
 20 22  1  0  0  0  0
M  END
$$$$
default_name
  -OEChem-01062215323D

 25 24  0     1  0  0  0  0  0999 V2000
   -2.7826   -3.8464    0.7821 H   0  0  0  0  0  0  0  0  0  0  0  0
   -2.8156   -2.8034    0.4711 C   0  0  0  0  0  0  0  0  0  0  0  0
   -3.4336   -2.2354    1.1641 H   0  0  0  0  0  0  0  0  0  0  0  0
   -3.2256   -2.7344   -0.5349 H   0  0  0  0  0  0  0  0  0  0  0  0
   -1.4126   -2.2444    0.4801 C   0  0  0  0  0  0  0  0  0  0  0  0
   -0.4686   -2.9534    0.8001 O   0  0  0  0  0  0  0  0  0  0  0  0
   -1.2736   -0.9704    0.1241 N   0  0  0  0  0  0  0  0  0  0  0  0
   -2.0996   -0.4354   -0.1019 H   0  0  0  0  0  0  0  0  0  0  0  0
   -0.0016   -0.2394    0.1271 C   0  0  1  0  0  0  0  0  0  0  0  0
    0.8084   -0.9533   -0.0385 H   0  0  0  0  0  0  0  0  0  0  0  0
   -0.0004    0.7891   -1.0211 C   0  0  0  0  0  0  0  0  0  0  0  0
   -0.9152    1.3815   -0.9787 H   0  0  0  0  0  0  0  0  0  0  0  0
    0.8445    1.4687   -0.9044 H   0  0  0  0  0  0  0  0  0  0  0  0
    0.0552    0.1522   -2.4064 C   0  0  0  0  0  0  0  0  0  0  0  0
    0.5762   -0.9219   -2.6764 O   0  0  0  0  0  0  0  0  0  0  0  0
   -0.5249    0.8742   -3.3833 O   0  0  0  0  0  0  0  0  0  0  0  0
   -0.4350    0.3542   -4.1825 H   0  0  0  0  0  0  0  0  0  0  0  0
    0.2196    0.4328    1.4968 C   0  0  0  0  0  0  0  0  0  0  0  0
   -0.7222    0.5502    2.2796 O   0  0  0  0  0  0  0  0  0  0  0  0
    1.4474    0.8790    1.7851 N   0  0  0  0  0  0  0  0  0  0  0  0
    2.1543    0.8016    1.0612 H   0  0  0  0  0  0  0  0  0  0  0  0
    1.8152    1.5304    3.0405 C   0  0  0  0  0  0  0  0  0  0  0  0
    1.5008    0.9111    3.8834 H   0  0  0  0  0  0  0  0  0  0  0  0
    2.8951    1.6767    3.0847 H   0  0  0  0  0  0  0  0  0  0  0  0
    1.3162    2.4983    3.1134 H   0  0  0  0  0  0  0  0  0  0  0  0
  5  6  2  0  0  0  0
  5  7  1  0  0  0  0
  2  3  1  0  0  0  0
  2  4  1  0  0  0  0
  2  5  1  0  0  0  0
  1  2  1  0  0  0  0
 18 19  2  0  0  0  0
 18 20  1  0  0  0  0
 16 17  1  0  0  0  0
 14 15  2  0  0  0  0
 14 16  1  0  0  0  0
 11 12  1  0  0  0  0
 11 13  1  0  0  0  0
 11 14  1  0  0  0  0
  9 10  1  0  0  0  0
  9 11  1  0  0  0  0
  9 18  1  0  0  0  0
  7  8  1  0  0  0  0
  7  9  1  0  0  0  0
 22 23  1  0  0  0  0
 22 24  1  0  0  0  0
 22 25  1  0  0  0  0
 20 21  1  0  0  0  0
 20 22  1  0  0  0  0
M  END
$$$$
default_name
  -OEChem-01062215323D

 25 24  0     1  0  0  0  0  0999 V2000
   -2.7826   -3.8464    0.7821 H   0  0  0  0  0  0  0  0  0  0  0  0
   -2.8156   -2.8034    0.4711 C   0  0  0  0  0  0  0  0  0  0  0  0
   -3.4336   -2.2354    1.1641 H   0  0  0  0  0  0  0  0  0  0  0  0
   -3.2256   -2.7344   -0.5349 H   0  0  0  0  0  0  0  0  0  0  0  0
   -1.4126   -2.2444    0.4801 C   0  0  0  0  0  0  0  0  0  0  0  0
   -0.4686   -2.9534    0.8001 O   0  0  0  0  0  0  0  0  0  0  0  0
   -1.2736   -0.9704    0.1241 N   0  0  0  0  0  0  0  0  0  0  0  0
   -2.0996   -0.4354   -0.1019 H   0  0  0  0  0  0  0  0  0  0  0  0
   -0.0016   -0.2394    0.1271 C   0  0  1  0  0  0  0  0  0  0  0  0
    0.7700   -0.8855   -0.2975 H   0  0  0  0  0  0  0  0  0  0  0  0
   -0.1340    1.0204   -0.7513 C   0  0  0  0  0  0  0  0  0  0  0  0
   -1.0272    1.5741   -0.4594 H   0  0  0  0  0  0  0  0  0  0  0  0
    0.7285    1.6693   -0.5949 H   0  0  0  0  0  0  0  0  0  0  0  0
   -0.2666    0.7115   -2.2395 C   0  0  0  0  0  0  0  0  0  0  0  0
    0.2000   -0.2666   -2.8086 O   0  0  0  0  0  0  0  0  0  0  0  0
   -0.9576    1.6253   -2.9463 O   0  0  0  0  0  0  0  0  0  0  0  0
   -0.9790    1.2993   -3.8466 H   0  0  0  0  0  0  0  0  0  0  0  0
    0.4040    0.1117    1.5725 C   0  0  0  0  0  0  0  0  0  0  0  0
   -0.3217   -0.2199    2.5089 O   0  0  0  0  0  0  0  0  0  0  0  0
    1.5462    0.7830    1.7575 N   0  0  0  0  0  0  0  0  0  0  0  0
    2.0556    1.0751    0.9298 H   0  0  0  0  0  0  0  0  0  0  0  0
    2.0672    1.1815    3.0634 C   0  0  0  0  0  0  0  0  0  0  0  0
    2.1022    0.3145    3.7268 H   0  0  0  0  0  0  0  0  0  0  0  0
    3.0714    1.5936    2.9568 H   0  0  0  0  0  0  0  0  0  0  0  0
    1.4131    1.9341    3.5071 H   0  0  0  0  0  0  0  0  0  0  0  0
  5  6  2  0  0  0  0
  5  7  1  0  0  0  0
  2  3  1  0  0  0  0
  2  4  1  0  0  0  0
  2  5  1  0  0  0  0
  1  2  1  0  0  0  0
 18 19  2  0  0  0  0
 18 20  1  0  0  0  0
 16 17  1  0  0  0  0
 14 15  2  0  0  0  0
 14 16  1  0  0  0  0
 11 12  1  0  0  0  0
 11 13  1  0  0  0  0
 11 14  1  0  0  0  0
  9 10  1  0  0  0  0
  9 11  1  0  0  0  0
  9 18  1  0  0  0  0
  7  8  1  0  0  0  0
  7  9  1  0  0  0  0
 22 23  1  0  0  0  0
 22 24  1  0  0  0  0
 22 25  1  0  0  0  0
 20 21  1  0  0  0  0
 20 22  1  0  0  0  0
M  END
$$$$
default_name
  -OEChem-01062215323D

 25 24  0     1  0  0  0  0  0999 V2000
   -2.7826   -3.8464    0.7821 H   0  0  0  0  0  0  0  0  0  0  0  0
   -2.8156   -2.8034    0.4711 C   0  0  0  0  0  0  0  0  0  0  0  0
   -3.4336   -2.2354    1.1641 H   0  0  0  0  0  0  0  0  0  0  0  0
   -3.2256   -2.7344   -0.5349 H   0  0  0  0  0  0  0  0  0  0  0  0
   -1.4126   -2.2444    0.4801 C   0  0  0  0  0  0  0  0  0  0  0  0
   -0.4686   -2.9534    0.8001 O   0  0  0  0  0  0  0  0  0  0  0  0
   -1.2736   -0.9704    0.1241 N   0  0  0  0  0  0  0  0  0  0  0  0
   -2.0996   -0.4354   -0.1019 H   0  0  0  0  0  0  0  0  0  0  0  0
   -0.0016   -0.2394    0.1271 C   0  0  1  0  0  0  0  0  0  0  0  0
    0.7700   -0.8855   -0.2975 H   0  0  0  0  0  0  0  0  0  0  0  0
   -0.1340    1.0204   -0.7513 C   0  0  0  0  0  0  0  0  0  0  0  0
   -1.0272    1.5741   -0.4594 H   0  0  0  0  0  0  0  0  0  0  0  0
    0.7285    1.6693   -0.5949 H   0  0  0  0  0  0  0  0  0  0  0  0
   -0.2666    0.7115   -2.2395 C   0  0  0  0  0  0  0  0  0  0  0  0
    0.2000   -0.2666   -2.8086 O   0  0  0  0  0  0  0  0  0  0  0  0
   -0.9576    1.6253   -2.9463 O   0  0  0  0  0  0  0  0  0  0  0  0
   -0.9790    1.2993   -3.8466 H   0  0  0  0  0  0  0  0  0  0  0  0
    0.4040    0.1117    1.5725 C   0  0  0  0  0  0  0  0  0  0  0  0
   -0.1559   -0.4437    2.5168 O   0  0  0  0  0  0  0  0  0  0  0  0
    1.3610    1.0295    1.7496 N   0  0  0  0  0  0  0  0  0  0  0  0
    1.7281    1.4872    0.9216 H   0  0  0  0  0  0  0  0  0  0  0  0
    1.8574    1.4632    3.0538 C   0  0  0  0  0  0  0  0  0  0  0  0
    2.1446    0.5925    3.6474 H   0  0  0  0  0  0  0  0  0  0  0  0
    2.7235    2.1142    2.9280 H   0  0  0  0  0  0  0  0  0  0  0  0
    1.0729    2.0045    3.5855 H   0  0  0  0  0  0  0  0  0  0  0  0
  5  6  2  0  0  0  0
  5  7  1  0  0  0  0
  2  3  1  0  0  0  0
  2  4  1  0  0  0  0
  2  5  1  0  0  0  0
  1  2  1  0  0  0  0
 18 19  2  0  0  0  0
 18 20  1  0  0  0  0
 16 17  1  0  0  0  0
 14 15  2  0  0  0  0
 14 16  1  0  0  0  0
 11 12  1  0  0  0  0
 11 13  1  0  0  0  0
 11 14  1  0  0  0  0
  9 10  1  0  0  0  0
  9 11  1  0  0  0  0
  9 18  1  0  0  0  0
  7  8  1  0  0  0  0
  7  9  1  0  0  0  0
 22 23  1  0  0  0  0
 22 24  1  0  0  0  0
 22 25  1  0  0  0  0
 20 21  1  0  0  0  0
 20 22  1  0  0  0  0
M  END
$$$$
default_name
  -OEChem-01062215323D

 25 24  0     1  0  0  0  0  0999 V2000
   -2.7826   -3.8464    0.7821 H   0  0  0  0  0  0  0  0  0  0  0  0
   -2.8156   -2.8034    0.4711 C   0  0  0  0  0  0  0  0  0  0  0  0
   -3.4336   -2.2354    1.1641 H   0  0  0  0  0  0  0  0  0  0  0  0
   -3.2256   -2.7344   -0.5349 H   0  0  0  0  0  0  0  0  0  0  0  0
   -1.4126   -2.2444    0.4801 C   0  0  0  0  0  0  0  0  0  0  0  0
   -0.4686   -2.9534    0.8001 O   0  0  0  0  0  0  0  0  0  0  0  0
   -1.2736   -0.9704    0.1241 N   0  0  0  0  0  0  0  0  0  0  0  0
   -2.0996   -0.4354   -0.1019 H   0  0  0  0  0  0  0  0  0  0  0  0
   -0.0016   -0.2394    0.1271 C   0  0  1  0  0  0  0  0  0  0  0  0
    0.7700   -0.8855   -0.2975 H   0  0  0  0  0  0  0  0  0  0  0  0
   -0.1340    1.0204   -0.7513 C   0  0  0  0  0  0  0  0  0  0  0  0
   -1.0272    1.5741   -0.4594 H   0  0  0  0  0  0  0  0  0  0  0  0
    0.7285    1.6693   -0.5949 H   0  0  0  0  0  0  0  0  0  0  0  0
   -0.2666    0.7115   -2.2395 C   0  0  0  0  0  0  0  0  0  0  0  0
    0.2000   -0.2666   -2.8086 O   0  0  0  0  0  0  0  0  0  0  0  0
   -0.9576    1.6253   -2.9463 O   0  0  0  0  0  0  0  0  0  0  0  0
   -0.9790    1.2993   -3.8466 H   0  0  0  0  0  0  0  0  0  0  0  0
    0.4040    0.1117    1.5725 C   0  0  0  0  0  0  0  0  0  0  0  0
    0.0591   -0.6202    2.4993 O   0  0  0  0  0  0  0  0  0  0  0  0
    1.1217    1.2233    1.7697 N   0  0  0  0  0  0  0  0  0  0  0  0
    1.3113    1.8063    0.9610 H   0  0  0  0  0  0  0  0  0  0  0  0
    1.5859    1.6850    3.0761 C   0  0  0  0  0  0  0  0  0  0  0  0
    2.1135    0.8767    3.5871 H   0  0  0  0  0  0  0  0  0  0  0  0
    2.2594    2.5346    2.9561 H   0  0  0  0  0  0  0  0  0  0  0  0
    0.7319    1.9846    3.6861 H   0  0  0  0  0  0  0  0  0  0  0  0
  5  6  2  0  0  0  0
  5  7  1  0  0  0  0
  2  3  1  0  0  0  0
  2  4  1  0  0  0  0
  2  5  1  0  0  0  0
  1  2  1  0  0  0  0
 18 19  2  0  0  0  0
 18 20  1  0  0  0  0
 16 17  1  0  0  0  0
 14 15  2  0  0  0  0
 14 16  1  0  0  0  0
 11 12  1  0  0  0  0
 11 13  1  0  0  0  0
 11 14  1  0  0  0  0
  9 10  1  0  0  0  0
  9 11  1  0  0  0  0
  9 18  1  0  0  0  0
  7  8  1  0  0  0  0
  7  9  1  0  0  0  0
 22 23  1  0  0  0  0
 22 24  1  0  0  0  0
 22 25  1  0  0  0  0
 20 21  1  0  0  0  0
 20 22  1  0  0  0  0
M  END
$$$$
default_name
  -OEChem-01062215323D

 25 24  0     1  0  0  0  0  0999 V2000
   -2.7826   -3.8464    0.7821 H   0  0  0  0  0  0  0  0  0  0  0  0
   -2.8156   -2.8034    0.4711 C   0  0  0  0  0  0  0  0  0  0  0  0
   -3.4336   -2.2354    1.1641 H   0  0  0  0  0  0  0  0  0  0  0  0
   -3.2256   -2.7344   -0.5349 H   0  0  0  0  0  0  0  0  0  0  0  0
   -1.4126   -2.2444    0.4801 C   0  0  0  0  0  0  0  0  0  0  0  0
   -0.4686   -2.9534    0.8001 O   0  0  0  0  0  0  0  0  0  0  0  0
   -1.2736   -0.9704    0.1241 N   0  0  0  0  0  0  0  0  0  0  0  0
   -2.0996   -0.4354   -0.1019 H   0  0  0  0  0  0  0  0  0  0  0  0
   -0.0016   -0.2394    0.1271 C   0  0  1  0  0  0  0  0  0  0  0  0
    0.7700   -0.8855   -0.2975 H   0  0  0  0  0  0  0  0  0  0  0  0
   -0.1340    1.0204   -0.7513 C   0  0  0  0  0  0  0  0  0  0  0  0
   -1.0272    1.5741   -0.4594 H   0  0  0  0  0  0  0  0  0  0  0  0
    0.7285    1.6693   -0.5949 H   0  0  0  0  0  0  0  0  0  0  0  0
   -0.2666    0.7115   -2.2395 C   0  0  0  0  0  0  0  0  0  0  0  0
    0.2000   -0.2666   -2.8086 O   0  0  0  0  0  0  0  0  0  0  0  0
   -0.9576    1.6253   -2.9463 O   0  0  0  0  0  0  0  0  0  0  0  0
   -0.9790    1.2993   -3.8466 H   0  0  0  0  0  0  0  0  0  0  0  0
    0.4040    0.1117    1.5725 C   0  0  0  0  0  0  0  0  0  0  0  0
    0.3086   -0.7373    2.4577 O   0  0  0  0  0  0  0  0  0  0  0  0
    0.8448    1.3510    1.8164 N   0  0  0  0  0  0  0  0  0  0  0  0
    0.8336    2.0108    1.0454 H   0  0  0  0  0  0  0  0  0  0  0  0
    1.2712    1.8319    3.1288 C   0  0  0  0  0  0  0  0  0  0  0  0
    2.0109    1.1477    3.5501 H   0  0  0  0  0  0  0  0  0  0  0  0
    1.7108    2.8261    3.0392 H   0  0  0  0  0  0  0  0  0  0  0  0
    0.4132    1.8757    3.8019 H   0  0  0  0  0  0  0  0  0  0  0  0
  5  6  2  0  0  0  0
  5  7  1  0  0  0  0
  2  3  1  0  0  0  0
  2  4  1  0  0  0  0
  2  5  1  0  0  0  0
  1  2  1  0  0  0  0
 18 19  2  0  0  0  0
 18 20  1  0  0  0  0
 16 17  1  0  0  0  0
 14 15  2  0  0  0  0
 14 16  1  0  0  0  0
 11 12  1  0  0  0  0
 11 13  1  0  0  0  0
 11 14  1  0  0  0  0
  9 10  1  0  0  0  0
  9 11  1  0  0  0  0
  9 18  1  0  0  0  0
  7  8  1  0  0  0  0
  7  9  1  0  0  0  0
 22 23  1  0  0  0  0
 22 24  1  0  0  0  0
 22 25  1  0  0  0  0
 20 21  1  0  0  0  0
 20 22  1  0  0  0  0
M  END
$$$$
default_name
  -OEChem-01062215323D

 25 24  0     1  0  0  0  0  0999 V2000
   -2.7826   -3.8464    0.7821 H   0  0  0  0  0  0  0  0  0  0  0  0
   -2.8156   -2.8034    0.4711 C   0  0  0  0  0  0  0  0  0  0  0  0
   -3.4336   -2.2354    1.1641 H   0  0  0  0  0  0  0  0  0  0  0  0
   -3.2256   -2.7344   -0.5349 H   0  0  0  0  0  0  0  0  0  0  0  0
   -1.4126   -2.2444    0.4801 C   0  0  0  0  0  0  0  0  0  0  0  0
   -0.4686   -2.9534    0.8001 O   0  0  0  0  0  0  0  0  0  0  0  0
   -1.2736   -0.9704    0.1241 N   0  0  0  0  0  0  0  0  0  0  0  0
   -2.0996   -0.4354   -0.1019 H   0  0  0  0  0  0  0  0  0  0  0  0
   -0.0016   -0.2394    0.1271 C   0  0  1  0  0  0  0  0  0  0  0  0
    0.7700   -0.8855   -0.2975 H   0  0  0  0  0  0  0  0  0  0  0  0
   -0.1340    1.0204   -0.7513 C   0  0  0  0  0  0  0  0  0  0  0  0
   -1.0272    1.5741   -0.4594 H   0  0  0  0  0  0  0  0  0  0  0  0
    0.7285    1.6693   -0.5949 H   0  0  0  0  0  0  0  0  0  0  0  0
   -0.2666    0.7115   -2.2395 C   0  0  0  0  0  0  0  0  0  0  0  0
    0.2000   -0.2666   -2.8086 O   0  0  0  0  0  0  0  0  0  0  0  0
   -0.9576    1.6253   -2.9463 O   0  0  0  0  0  0  0  0  0  0  0  0
   -0.9790    1.2993   -3.8466 H   0  0  0  0  0  0  0  0  0  0  0  0
    0.4040    0.1117    1.5725 C   0  0  0  0  0  0  0  0  0  0  0  0
    0.5755   -0.7870    2.3949 O   0  0  0  0  0  0  0  0  0  0  0  0
    0.5490    1.4039    1.8866 N   0  0  0  0  0  0  0  0  0  0  0  0
    0.3276    2.0866    1.1690 H   0  0  0  0  0  0  0  0  0  0  0  0
    0.9346    1.8939    3.2082 C   0  0  0  0  0  0  0  0  0  0  0  0
    1.8439    1.3871    3.5388 H   0  0  0  0  0  0  0  0  0  0  0  0
    1.1151    2.9690    3.1717 H   0  0  0  0  0  0  0  0  0  0  0  0
    0.1386    1.6854    3.9252 H   0  0  0  0  0  0  0  0  0  0  0  0
  5  6  2  0  0  0  0
  5  7  1  0  0  0  0
  2  3  1  0  0  0  0
  2  4  1  0  0  0  0
  2  5  1  0  0  0  0
  1  2  1  0  0  0  0
 18 19  2  0  0  0  0
 18 20  1  0  0  0  0
 16 17  1  0  0  0  0
 14 15  2  0  0  0  0
 14 16  1  0  0  0  0
 11 12  1  0  0  0  0
 11 13  1  0  0  0  0
 11 14  1  0  0  0  0
  9 10  1  0  0  0  0
  9 11  1  0  0  0  0
  9 18  1  0  0  0  0
  7  8  1  0  0  0  0
  7  9  1  0  0  0  0
 22 23  1  0  0  0  0
 22 24  1  0  0  0  0
 22 25  1  0  0  0  0
 20 21  1  0  0  0  0
 20 22  1  0  0  0  0
M  END
$$$$
default_name
  -OEChem-01062215323D

 25 24  0     1  0  0  0  0  0999 V2000
   -2.7826   -3.8464    0.7821 H   0  0  0  0  0  0  0  0  0  0  0  0
   -2.8156   -2.8034    0.4711 C   0  0  0  0  0  0  0  0  0  0  0  0
   -3.4336   -2.2354    1.1641 H   0  0  0  0  0  0  0  0  0  0  0  0
   -3.2256   -2.7344   -0.5349 H   0  0  0  0  0  0  0  0  0  0  0  0
   -1.4126   -2.2444    0.4801 C   0  0  0  0  0  0  0  0  0  0  0  0
   -0.4686   -2.9534    0.8001 O   0  0  0  0  0  0  0  0  0  0  0  0
   -1.2736   -0.9704    0.1241 N   0  0  0  0  0  0  0  0  0  0  0  0
   -2.0996   -0.4354   -0.1019 H   0  0  0  0  0  0  0  0  0  0  0  0
   -0.0016   -0.2394    0.1271 C   0  0  1  0  0  0  0  0  0  0  0  0
    0.7700   -0.8855   -0.2975 H   0  0  0  0  0  0  0  0  0  0  0  0
   -0.1340    1.0204   -0.7513 C   0  0  0  0  0  0  0  0  0  0  0  0
   -1.0272    1.5741   -0.4594 H   0  0  0  0  0  0  0  0  0  0  0  0
    0.7285    1.6693   -0.5949 H   0  0  0  0  0  0  0  0  0  0  0  0
   -0.2666    0.7115   -2.2395 C   0  0  0  0  0  0  0  0  0  0  0  0
    0.2000   -0.2666   -2.8086 O   0  0  0  0  0  0  0  0  0  0  0  0
   -0.9576    1.6253   -2.9463 O   0  0  0  0  0  0  0  0  0  0  0  0
   -0.9790    1.2993   -3.8466 H   0  0  0  0  0  0  0  0  0  0  0  0
    0.4040    0.1117    1.5725 C   0  0  0  0  0  0  0  0  0  0  0  0
    0.8417   -0.7661    2.3151 O   0  0  0  0  0  0  0  0  0  0  0  0
    0.2547    1.3786    1.9753 N   0  0  0  0  0  0  0  0  0  0  0  0
   -0.1723    2.0286    1.3234 H   0  0  0  0  0  0  0  0  0  0  0  0
    0.5991    1.8667    3.3090 C   0  0  0  0  0  0  0  0  0  0  0  0
    1.6238    1.5786    3.5540 H   0  0  0  0  0  0  0  0  0  0  0  0
    0.5127    2.9534    3.3446 H   0  0  0  0  0  0  0  0  0  0  0  0
   -0.0731    1.4265    4.0475 H   0  0  0  0  0  0  0  0  0  0  0  0
  5  6  2  0  0  0  0
  5  7  1  0  0  0  0
  2  3  1  0  0  0  0
  2  4  1  0  0  0  0
  2  5  1  0  0  0  0
  1  2  1  0  0  0  0
 18 19  2  0  0  0  0
 18 20  1  0  0  0  0
 16 17  1  0  0  0  0
 14 15  2  0  0  0  0
 14 16  1  0  0  0  0
 11 12  1  0  0  0  0
 11 13  1  0  0  0  0
 11 14  1  0  0  0  0
  9 10  1  0  0  0  0
  9 11  1  0  0  0  0
  9 18  1  0  0  0  0
  7  8  1  0  0  0  0
  7  9  1  0  0  0  0
 22 23  1  0  0  0  0
 22 24  1  0  0  0  0
 22 25  1  0  0  0  0
 20 21  1  0  0  0  0
 20 22  1  0  0  0  0
M  END
$$$$
default_name
  -OEChem-01062215323D

 25 24  0     1  0  0  0  0  0999 V2000
   -2.7826   -3.8464    0.7821 H   0  0  0  0  0  0  0  0  0  0  0  0
   -2.8156   -2.8034    0.4711 C   0  0  0  0  0  0  0  0  0  0  0  0
   -3.4336   -2.2354    1.1641 H   0  0  0  0  0  0  0  0  0  0  0  0
   -3.2256   -2.7344   -0.5349 H   0  0  0  0  0  0  0  0  0  0  0  0
   -1.4126   -2.2444    0.4801 C   0  0  0  0  0  0  0  0  0  0  0  0
   -0.4686   -2.9534    0.8001 O   0  0  0  0  0  0  0  0  0  0  0  0
   -1.2736   -0.9704    0.1241 N   0  0  0  0  0  0  0  0  0  0  0  0
   -2.0996   -0.4354   -0.1019 H   0  0  0  0  0  0  0  0  0  0  0  0
   -0.0016   -0.2394    0.1271 C   0  0  1  0  0  0  0  0  0  0  0  0
    0.7700   -0.8855   -0.2975 H   0  0  0  0  0  0  0  0  0  0  0  0
   -0.1340    1.0204   -0.7513 C   0  0  0  0  0  0  0  0  0  0  0  0
   -1.0272    1.5741   -0.4594 H   0  0  0  0  0  0  0  0  0  0  0  0
    0.7285    1.6693   -0.5949 H   0  0  0  0  0  0  0  0  0  0  0  0
   -0.2666    0.7115   -2.2395 C   0  0  0  0  0  0  0  0  0  0  0  0
    0.2000   -0.2666   -2.8086 O   0  0  0  0  0  0  0  0  0  0  0  0
   -0.9576    1.6253   -2.9463 O   0  0  0  0  0  0  0  0  0  0  0  0
   -0.9790    1.2993   -3.8466 H   0  0  0  0  0  0  0  0  0  0  0  0
    0.4040    0.1117    1.5725 C   0  0  0  0  0  0  0  0  0  0  0  0
    1.0890   -0.6758    2.2238 O   0  0  0  0  0  0  0  0  0  0  0  0
   -0.0183    1.2766    2.0767 N   0  0  0  0  0  0  0  0  0  0  0  0
   -0.6320    1.8408    1.4981 H   0  0  0  0  0  0  0  0  0  0  0  0
    0.2876    1.7521    3.4242 C   0  0  0  0  0  0  0  0  0  0  0  0
    1.3656    1.7092    3.5948 H   0  0  0  0  0  0  0  0  0  0  0  0
   -0.0551    2.7804    3.5459 H   0  0  0  0  0  0  0  0  0  0  0  0
   -0.2077    1.1167    4.1605 H   0  0  0  0  0  0  0  0  0  0  0  0
  5  6  2  0  0  0  0
  5  7  1  0  0  0  0
  2  3  1  0  0  0  0
  2  4  1  0  0  0  0
  2  5  1  0  0  0  0
  1  2  1  0  0  0  0
 18 19  2  0  0  0  0
 18 20  1  0  0  0  0
 16 17  1  0  0  0  0
 14 15  2  0  0  0  0
 14 16  1  0  0  0  0
 11 12  1  0  0  0  0
 11 13  1  0  0  0  0
 11 14  1  0  0  0  0
  9 10  1  0  0  0  0
  9 11  1  0  0  0  0
  9 18  1  0  0  0  0
  7  8  1  0  0  0  0
  7  9  1  0  0  0  0
 22 23  1  0  0  0  0
 22 24  1  0  0  0  0
 22 25  1  0  0  0  0
 20 21  1  0  0  0  0
 20 22  1  0  0  0  0
M  END
$$$$
default_name
  -OEChem-01062215323D

 25 24  0     1  0  0  0  0  0999 V2000
   -2.7826   -3.8464    0.7821 H   0  0  0  0  0  0  0  0  0  0  0  0
   -2.8156   -2.8034    0.4711 C   0  0  0  0  0  0  0  0  0  0  0  0
   -3.4336   -2.2354    1.1641 H   0  0  0  0  0  0  0  0  0  0  0  0
   -3.2256   -2.7344   -0.5349 H   0  0  0  0  0  0  0  0  0  0  0  0
   -1.4126   -2.2444    0.4801 C   0  0  0  0  0  0  0  0  0  0  0  0
   -0.4686   -2.9534    0.8001 O   0  0  0  0  0  0  0  0  0  0  0  0
   -1.2736   -0.9704    0.1241 N   0  0  0  0  0  0  0  0  0  0  0  0
   -2.0996   -0.4354   -0.1019 H   0  0  0  0  0  0  0  0  0  0  0  0
   -0.0016   -0.2394    0.1271 C   0  0  1  0  0  0  0  0  0  0  0  0
    0.7700   -0.8855   -0.2975 H   0  0  0  0  0  0  0  0  0  0  0  0
   -0.1340    1.0204   -0.7513 C   0  0  0  0  0  0  0  0  0  0  0  0
   -1.0272    1.5741   -0.4594 H   0  0  0  0  0  0  0  0  0  0  0  0
    0.7285    1.6693   -0.5949 H   0  0  0  0  0  0  0  0  0  0  0  0
   -0.2666    0.7115   -2.2395 C   0  0  0  0  0  0  0  0  0  0  0  0
    0.2000   -0.2666   -2.8086 O   0  0  0  0  0  0  0  0  0  0  0  0
   -0.9576    1.6253   -2.9463 O   0  0  0  0  0  0  0  0  0  0  0  0
   -0.9790    1.2993   -3.8466 H   0  0  0  0  0  0  0  0  0  0  0  0
    0.4040    0.1117    1.5725 C   0  0  0  0  0  0  0  0  0  0  0  0
    1.3006   -0.5224    2.1271 O   0  0  0  0  0  0  0  0  0  0  0  0
   -0.2512    1.1050    2.1838 N   0  0  0  0  0  0  0  0  0  0  0  0
   -1.0202    1.5360    1.6811 H   0  0  0  0  0  0  0  0  0  0  0  0
    0.0214    1.5580    3.5461 C   0  0  0  0  0  0  0  0  0  0  0  0
    1.0869    1.7698    3.6582 H   0  0  0  0  0  0  0  0  0  0  0  0
   -0.5497    2.4618    3.7621 H   0  0  0  0  0  0  0  0  0  0  0  0
   -0.2558    0.7772    4.2565 H   0  0  0  0  0  0  0  0  0  0  0  0
  5  6  2  0  0  0  0
  5  7  1  0  0  0  0
  2  3  1  0  0  0  0
  2  4  1  0  0  0  0
  2  5  1  0  0  0  0
  1  2  1  0  0  0  0
 18 19  2  0  0  0  0
 18 20  1  0  0  0  0
 16 17  1  0  0  0  0
 14 15  2  0  0  0  0
 14 16  1  0  0  0  0
 11 12  1  0  0  0  0
 11 13  1  0  0  0  0
 11 14  1  0  0  0  0
  9 10  1  0  0  0  0
  9 11  1  0  0  0  0
  9 18  1  0  0  0  0
  7  8  1  0  0  0  0
  7  9  1  0  0  0  0
 22 23  1  0  0  0  0
 22 24  1  0  0  0  0
 22 25  1  0  0  0  0
 20 21  1  0  0  0  0
 20 22  1  0  0  0  0
M  END
$$$$
default_name
  -OEChem-01062215323D

 25 24  0     1  0  0  0  0  0999 V2000
   -2.7826   -3.8464    0.7821 H   0  0  0  0  0  0  0  0  0  0  0  0
   -2.8156   -2.8034    0.4711 C   0  0  0  0  0  0  0  0  0  0  0  0
   -3.4336   -2.2354    1.1641 H   0  0  0  0  0  0  0  0  0  0  0  0
   -3.2256   -2.7344   -0.5349 H   0  0  0  0  0  0  0  0  0  0  0  0
   -1.4126   -2.2444    0.4801 C   0  0  0  0  0  0  0  0  0  0  0  0
   -0.4686   -2.9534    0.8001 O   0  0  0  0  0  0  0  0  0  0  0  0
   -1.2736   -0.9704    0.1241 N   0  0  0  0  0  0  0  0  0  0  0  0
   -2.0996   -0.4354   -0.1019 H   0  0  0  0  0  0  0  0  0  0  0  0
   -0.0016   -0.2394    0.1271 C   0  0  1  0  0  0  0  0  0  0  0  0
    0.7700   -0.8855   -0.2975 H   0  0  0  0  0  0  0  0  0  0  0  0
   -0.1340    1.0204   -0.7513 C   0  0  0  0  0  0  0  0  0  0  0  0
   -1.0272    1.5741   -0.4594 H   0  0  0  0  0  0  0  0  0  0  0  0
    0.7285    1.6693   -0.5949 H   0  0  0  0  0  0  0  0  0  0  0  0
   -0.2666    0.7115   -2.2395 C   0  0  0  0  0  0  0  0  0  0  0  0
    0.2000   -0.2666   -2.8086 O   0  0  0  0  0  0  0  0  0  0  0  0
   -0.9576    1.6253   -2.9463 O   0  0  0  0  0  0  0  0  0  0  0  0
   -0.9790    1.2993   -3.8466 H   0  0  0  0  0  0  0  0  0  0  0  0
    0.4040    0.1117    1.5725 C   0  0  0  0  0  0  0  0  0  0  0  0
    1.4621   -0.3162    2.0317 O   0  0  0  0  0  0  0  0  0  0  0  0
   -0.4282    0.8754    2.2892 N   0  0  0  0  0  0  0  0  0  0  0  0
   -1.3104    1.1349    1.8599 H   0  0  0  0  0  0  0  0  0  0  0  0
   -0.1816    1.2976    3.6663 C   0  0  0  0  0  0  0  0  0  0  0  0
    0.8068    1.7565    3.7401 H   0  0  0  0  0  0  0  0  0  0  0  0
   -0.9374    2.0194    3.9784 H   0  0  0  0  0  0  0  0  0  0  0  0
   -0.2142    0.4310    4.3290 H   0  0  0  0  0  0  0  0  0  0  0  0
  5  6  2  0  0  0  0
  5  7  1  0  0  0  0
  2  3  1  0  0  0  0
  2  4  1  0  0  0  0
  2  5  1  0  0  0  0
  1  2  1  0  0  0  0
 18 19  2  0  0  0  0
 18 20  1  0  0  0  0
 16 17  1  0  0  0  0
 14 15  2  0  0  0  0
 14 16  1  0  0  0  0
 11 12  1  0  0  0  0
 11 13  1  0  0  0  0
 11 14  1  0  0  0  0
  9 10  1  0  0  0  0
  9 11  1  0  0  0  0
  9 18  1  0  0  0  0
  7  8  1  0  0  0  0
  7  9  1  0  0  0  0
 22 23  1  0  0  0  0
 22 24  1  0  0  0  0
 22 25  1  0  0  0  0
 20 21  1  0  0  0  0
 20 22  1  0  0  0  0
M  END
$$$$
default_name
  -OEChem-01062215323D

 25 24  0     1  0  0  0  0  0999 V2000
   -2.7826   -3.8464    0.7821 H   0  0  0  0  0  0  0  0  0  0  0  0
   -2.8156   -2.8034    0.4711 C   0  0  0  0  0  0  0  0  0  0  0  0
   -3.4336   -2.2354    1.1641 H   0  0  0  0  0  0  0  0  0  0  0  0
   -3.2256   -2.7344   -0.5349 H   0  0  0  0  0  0  0  0  0  0  0  0
   -1.4126   -2.2444    0.4801 C   0  0  0  0  0  0  0  0  0  0  0  0
   -0.4686   -2.9534    0.8001 O   0  0  0  0  0  0  0  0  0  0  0  0
   -1.2736   -0.9704    0.1241 N   0  0  0  0  0  0  0  0  0  0  0  0
   -2.0996   -0.4354   -0.1019 H   0  0  0  0  0  0  0  0  0  0  0  0
   -0.0016   -0.2394    0.1271 C   0  0  1  0  0  0  0  0  0  0  0  0
    0.7700   -0.8855   -0.2975 H   0  0  0  0  0  0  0  0  0  0  0  0
   -0.1340    1.0204   -0.7513 C   0  0  0  0  0  0  0  0  0  0  0  0
   -1.0272    1.5741   -0.4594 H   0  0  0  0  0  0  0  0  0  0  0  0
    0.7285    1.6693   -0.5949 H   0  0  0  0  0  0  0  0  0  0  0  0
   -0.2666    0.7115   -2.2395 C   0  0  0  0  0  0  0  0  0  0  0  0
    0.2000   -0.2666   -2.8086 O   0  0  0  0  0  0  0  0  0  0  0  0
   -0.9576    1.6253   -2.9463 O   0  0  0  0  0  0  0  0  0  0  0  0
   -0.9790    1.2993   -3.8466 H   0  0  0  0  0  0  0  0  0  0  0  0
    0.4040    0.1117    1.5725 C   0  0  0  0  0  0  0  0  0  0  0  0
    1.5624   -0.0715    1.9441 O   0  0  0  0  0  0  0  0  0  0  0  0
   -0.5373    0.6035    2.3859 N   0  0  0  0  0  0  0  0  0  0  0  0
   -1.4829    0.6648    2.0225 H   0  0  0  0  0  0  0  0  0  0  0  0
   -0.3073    0.9886    3.7767 C   0  0  0  0  0  0  0  0  0  0  0  0
    0.5443    1.6701    3.8348 H   0  0  0  0  0  0  0  0  0  0  0  0
   -1.1918    1.4832    4.1801 H   0  0  0  0  0  0  0  0  0  0  0  0
   -0.0858    0.1018    4.3729 H   0  0  0  0  0  0  0  0  0  0  0  0
  5  6  2  0  0  0  0
  5  7  1  0  0  0  0
  2  3  1  0  0  0  0
  2  4  1  0  0  0  0
  2  5  1  0  0  0  0
  1  2  1  0  0  0  0
 18 19  2  0  0  0  0
 18 20  1  0  0  0  0
 16 17  1  0  0  0  0
 14 15  2  0  0  0  0
 14 16  1  0  0  0  0
 11 12  1  0  0  0  0
 11 13  1  0  0  0  0
 11 14  1  0  0  0  0
  9 10  1  0  0  0  0
  9 11  1  0  0  0  0
  9 18  1  0  0  0  0
  7  8  1  0  0  0  0
  7  9  1  0  0  0  0
 22 23  1  0  0  0  0
 22 24  1  0  0  0  0
 22 25  1  0  0  0  0
 20 21  1  0  0  0  0
 20 22  1  0  0  0  0
M  END
$$$$
default_name
  -OEChem-01062215323D

 25 24  0     1  0  0  0  0  0999 V2000
   -2.7826   -3.8464    0.7821 H   0  0  0  0  0  0  0  0  0  0  0  0
   -2.8156   -2.8034    0.4711 C   0  0  0  0  0  0  0  0  0  0  0  0
   -3.4336   -2.2354    1.1641 H   0  0  0  0  0  0  0  0  0  0  0  0
   -3.2256   -2.7344   -0.5349 H   0  0  0  0  0  0  0  0  0  0  0  0
   -1.4126   -2.2444    0.4801 C   0  0  0  0  0  0  0  0  0  0  0  0
   -0.4686   -2.9534    0.8001 O   0  0  0  0  0  0  0  0  0  0  0  0
   -1.2736   -0.9704    0.1241 N   0  0  0  0  0  0  0  0  0  0  0  0
   -2.0996   -0.4354   -0.1019 H   0  0  0  0  0  0  0  0  0  0  0  0
   -0.0016   -0.2394    0.1271 C   0  0  1  0  0  0  0  0  0  0  0  0
    0.7700   -0.8855   -0.2975 H   0  0  0  0  0  0  0  0  0  0  0  0
   -0.1340    1.0204   -0.7513 C   0  0  0  0  0  0  0  0  0  0  0  0
   -1.0272    1.5741   -0.4594 H   0  0  0  0  0  0  0  0  0  0  0  0
    0.7285    1.6693   -0.5949 H   0  0  0  0  0  0  0  0  0  0  0  0
   -0.2666    0.7115   -2.2395 C   0  0  0  0  0  0  0  0  0  0  0  0
    0.2000   -0.2666   -2.8086 O   0  0  0  0  0  0  0  0  0  0  0  0
   -0.9576    1.6253   -2.9463 O   0  0  0  0  0  0  0  0  0  0  0  0
   -0.9790    1.2993   -3.8466 H   0  0  0  0  0  0  0  0  0  0  0  0
    0.4040    0.1117    1.5725 C   0  0  0  0  0  0  0  0  0  0  0  0
    1.5948    0.1953    1.8702 O   0  0  0  0  0  0  0  0  0  0  0  0
   -0.5710    0.3078    2.4672 N   0  0  0  0  0  0  0  0  0  0  0  0
   -1.5258    0.1579    2.1577 H   0  0  0  0  0  0  0  0  0  0  0  0
   -0.3473    0.6522    3.8696 C   0  0  0  0  0  0  0  0  0  0  0  0
    0.3172    1.5165    3.9358 H   0  0  0  0  0  0  0  0  0  0  0  0
   -1.2956    0.8898    4.3534 H   0  0  0  0  0  0  0  0  0  0  0  0
    0.1207   -0.1881    4.3854 H   0  0  0  0  0  0  0  0  0  0  0  0
  5  6  2  0  0  0  0
  5  7  1  0  0  0  0
  2  3  1  0  0  0  0
  2  4  1  0  0  0  0
  2  5  1  0  0  0  0
  1  2  1  0  0  0  0
 18 19  2  0  0  0  0
 18 20  1  0  0  0  0
 16 17  1  0  0  0  0
 14 15  2  0  0  0  0
 14 16  1  0  0  0  0
 11 12  1  0  0  0  0
 11 13  1  0  0  0  0
 11 14  1  0  0  0  0
  9 10  1  0  0  0  0
  9 11  1  0  0  0  0
  9 18  1  0  0  0  0
  7  8  1  0  0  0  0
  7  9  1  0  0  0  0
 22 23  1  0  0  0  0
 22 24  1  0  0  0  0
 22 25  1  0  0  0  0
 20 21  1  0  0  0  0
 20 22  1  0  0  0  0
M  END
$$$$
default_name
  -OEChem-01062215323D

 25 24  0     1  0  0  0  0  0999 V2000
   -2.7826   -3.8464    0.7821 H   0  0  0  0  0  0  0  0  0  0  0  0
   -2.8156   -2.8034    0.4711 C   0  0  0  0  0  0  0  0  0  0  0  0
   -3.4336   -2.2354    1.1641 H   0  0  0  0  0  0  0  0  0  0  0  0
   -3.2256   -2.7344   -0.5349 H   0  0  0  0  0  0  0  0  0  0  0  0
   -1.4126   -2.2444    0.4801 C   0  0  0  0  0  0  0  0  0  0  0  0
   -0.4686   -2.9534    0.8001 O   0  0  0  0  0  0  0  0  0  0  0  0
   -1.2736   -0.9704    0.1241 N   0  0  0  0  0  0  0  0  0  0  0  0
   -2.0996   -0.4354   -0.1019 H   0  0  0  0  0  0  0  0  0  0  0  0
   -0.0016   -0.2394    0.1271 C   0  0  1  0  0  0  0  0  0  0  0  0
    0.7700   -0.8855   -0.2975 H   0  0  0  0  0  0  0  0  0  0  0  0
   -0.1340    1.0204   -0.7513 C   0  0  0  0  0  0  0  0  0  0  0  0
   -1.0272    1.5741   -0.4594 H   0  0  0  0  0  0  0  0  0  0  0  0
    0.7285    1.6693   -0.5949 H   0  0  0  0  0  0  0  0  0  0  0  0
   -0.2666    0.7115   -2.2395 C   0  0  0  0  0  0  0  0  0  0  0  0
    0.2000   -0.2666   -2.8086 O   0  0  0  0  0  0  0  0  0  0  0  0
   -0.9576    1.6253   -2.9463 O   0  0  0  0  0  0  0  0  0  0  0  0
   -0.9790    1.2993   -3.8466 H   0  0  0  0  0  0  0  0  0  0  0  0
    0.4040    0.1117    1.5725 C   0  0  0  0  0  0  0  0  0  0  0  0
    1.5569    0.4658    1.8151 O   0  0  0  0  0  0  0  0  0  0  0  0
   -0.5270    0.0085    2.5275 N   0  0  0  0  0  0  0  0  0  0  0  0
   -1.4363   -0.3514    2.2563 H   0  0  0  0  0  0  0  0  0  0  0  0
   -0.2988    0.3112    3.9388 C   0  0  0  0  0  0  0  0  0  0  0  0
    0.1411    1.3061    4.0363 H   0  0  0  0  0  0  0  0  0  0  0  0
   -1.2416    0.2796    4.4864 H   0  0  0  0  0  0  0  0  0  0  0  0
    0.3913   -0.4188    4.3655 H   0  0  0  0  0  0  0  0  0  0  0  0
  5  6  2  0  0  0  0
  5  7  1  0  0  0  0
  2  3  1  0  0  0  0
  2  4  1  0  0  0  0
  2  5  1  0  0  0  0
  1  2  1  0  0  0  0
 18 19  2  0  0  0  0
 18 20  1  0  0  0  0
 16 17  1  0  0  0  0
 14 15  2  0  0  0  0
 14 16  1  0  0  0  0
 11 12  1  0  0  0  0
 11 13  1  0  0  0  0
 11 14  1  0  0  0  0
  9 10  1  0  0  0  0
  9 11  1  0  0  0  0
  9 18  1  0  0  0  0
  7  8  1  0  0  0  0
  7  9  1  0  0  0  0
 22 23  1  0  0  0  0
 22 24  1  0  0  0  0
 22 25  1  0  0  0  0
 20 21  1  0  0  0  0
 20 22  1  0  0  0  0
M  END
$$$$
default_name
  -OEChem-01062215323D

 25 24  0     1  0  0  0  0  0999 V2000
   -2.7826   -3.8464    0.7821 H   0  0  0  0  0  0  0  0  0  0  0  0
   -2.8156   -2.8034    0.4711 C   0  0  0  0  0  0  0  0  0  0  0  0
   -3.4336   -2.2354    1.1641 H   0  0  0  0  0  0  0  0  0  0  0  0
   -3.2256   -2.7344   -0.5349 H   0  0  0  0  0  0  0  0  0  0  0  0
   -1.4126   -2.2444    0.4801 C   0  0  0  0  0  0  0  0  0  0  0  0
   -0.4686   -2.9534    0.8001 O   0  0  0  0  0  0  0  0  0  0  0  0
   -1.2736   -0.9704    0.1241 N   0  0  0  0  0  0  0  0  0  0  0  0
   -2.0996   -0.4354   -0.1019 H   0  0  0  0  0  0  0  0  0  0  0  0
   -0.0016   -0.2394    0.1271 C   0  0  1  0  0  0  0  0  0  0  0  0
    0.7700   -0.8855   -0.2975 H   0  0  0  0  0  0  0  0  0  0  0  0
   -0.1340    1.0204   -0.7513 C   0  0  0  0  0  0  0  0  0  0  0  0
   -1.0272    1.5741   -0.4594 H   0  0  0  0  0  0  0  0  0  0  0  0
    0.7285    1.6693   -0.5949 H   0  0  0  0  0  0  0  0  0  0  0  0
   -0.2666    0.7115   -2.2395 C   0  0  0  0  0  0  0  0  0  0  0  0
    0.2000   -0.2666   -2.8086 O   0  0  0  0  0  0  0  0  0  0  0  0
   -0.9576    1.6253   -2.9463 O   0  0  0  0  0  0  0  0  0  0  0  0
   -0.9790    1.2993   -3.8466 H   0  0  0  0  0  0  0  0  0  0  0  0
    0.4040    0.1117    1.5725 C   0  0  0  0  0  0  0  0  0  0  0  0
    1.4515    0.7217    1.7826 O   0  0  0  0  0  0  0  0  0  0  0  0
   -0.4083   -0.2741    2.5629 N   0  0  0  0  0  0  0  0  0  0  0  0
   -1.2205   -0.8283    2.3116 H   0  0  0  0  0  0  0  0  0  0  0  0
   -0.1651   -0.0111    3.9796 C   0  0  0  0  0  0  0  0  0  0  0  0
    0.0280    1.0533    4.1295 H   0  0  0  0  0  0  0  0  0  0  0  0
   -1.0336   -0.3057    4.5702 H   0  0  0  0  0  0  0  0  0  0  0  0
    0.7074   -0.5747    4.3146 H   0  0  0  0  0  0  0  0  0  0  0  0
  5  6  2  0  0  0  0
  5  7  1  0  0  0  0
  2  3  1  0  0  0  0
  2  4  1  0  0  0  0
  2  5  1  0  0  0  0
  1  2  1  0  0  0  0
 18 19  2  0  0  0  0
 18 20  1  0  0  0  0
 16 17  1  0  0  0  0
 14 15  2  0  0  0  0
 14 16  1  0  0  0  0
 11 12  1  0  0  0  0
 11 13  1  0  0  0  0
 11 14  1  0  0  0  0
  9 10  1  0  0  0  0
  9 11  1  0  0  0  0
  9 18  1  0  0  0  0
  7  8  1  0  0  0  0
  7  9  1  0  0  0  0
 22 23  1  0  0  0  0
 22 24  1  0  0  0  0
 22 25  1  0  0  0  0
 20 21  1  0  0  0  0
 20 22  1  0  0  0  0
M  END
$$$$
default_name
  -OEChem-01062215323D

 25 24  0     1  0  0  0  0  0999 V2000
   -2.7826   -3.8464    0.7821 H   0  0  0  0  0  0  0  0  0  0  0  0
   -2.8156   -2.8034    0.4711 C   0  0  0  0  0  0  0  0  0  0  0  0
   -3.4336   -2.2354    1.1641 H   0  0  0  0  0  0  0  0  0  0  0  0
   -3.2256   -2.7344   -0.5349 H   0  0  0  0  0  0  0  0  0  0  0  0
   -1.4126   -2.2444    0.4801 C   0  0  0  0  0  0  0  0  0  0  0  0
   -0.4686   -2.9534    0.8001 O   0  0  0  0  0  0  0  0  0  0  0  0
   -1.2736   -0.9704    0.1241 N   0  0  0  0  0  0  0  0  0  0  0  0
   -2.0996   -0.4354   -0.1019 H   0  0  0  0  0  0  0  0  0  0  0  0
   -0.0016   -0.2394    0.1271 C   0  0  1  0  0  0  0  0  0  0  0  0
    0.7700   -0.8855   -0.2975 H   0  0  0  0  0  0  0  0  0  0  0  0
   -0.1340    1.0204   -0.7513 C   0  0  0  0  0  0  0  0  0  0  0  0
   -1.0272    1.5741   -0.4594 H   0  0  0  0  0  0  0  0  0  0  0  0
    0.7285    1.6693   -0.5949 H   0  0  0  0  0  0  0  0  0  0  0  0
   -0.2666    0.7115   -2.2395 C   0  0  0  0  0  0  0  0  0  0  0  0
    0.2000   -0.2666   -2.8086 O   0  0  0  0  0  0  0  0  0  0  0  0
   -0.9576    1.6253   -2.9463 O   0  0  0  0  0  0  0  0  0  0  0  0
   -0.9790    1.2993   -3.8466 H   0  0  0  0  0  0  0  0  0  0  0  0
    0.4040    0.1117    1.5725 C   0  0  0  0  0  0  0  0  0  0  0  0
    1.2856    0.9456    1.7747 O   0  0  0  0  0  0  0  0  0  0  0  0
   -0.2231   -0.5206    2.5708 N   0  0  0  0  0  0  0  0  0  0  0  0
   -0.8930   -1.2404    2.3198 H   0  0  0  0  0  0  0  0  0  0  0  0
    0.0446   -0.2928    3.9892 C   0  0  0  0  0  0  0  0  0  0  0  0
   -0.0144    0.7754    4.2089 H   0  0  0  0  0  0  0  0  0  0  0  0
   -0.6857   -0.8263    4.5991 H   0  0  0  0  0  0  0  0  0  0  0  0
    1.0476   -0.6450    4.2362 H   0  0  0  0  0  0  0  0  0  0  0  0
  5  6  2  0  0  0  0
  5  7  1  0  0  0  0
  2  3  1  0  0  0  0
  2  4  1  0  0  0  0
  2  5  1  0  0  0  0
  1  2  1  0  0  0  0
 18 19  2  0  0  0  0
 18 20  1  0  0  0  0
 16 17  1  0  0  0  0
 14 15  2  0  0  0  0
 14 16  1  0  0  0  0
 11 12  1  0  0  0  0
 11 13  1  0  0  0  0
 11 14  1  0  0  0  0
  9 10  1  0  0  0  0
  9 11  1  0  0  0  0
  9 18  1  0  0  0  0
  7  8  1  0  0  0  0
  7  9  1  0  0  0  0
 22 23  1  0  0  0  0
 22 24  1  0  0  0  0
 22 25  1  0  0  0  0
 20 21  1  0  0  0  0
 20 22  1  0  0  0  0
M  END
$$$$
default_name
  -OEChem-01062215323D

 25 24  0     1  0  0  0  0  0999 V2000
   -2.7826   -3.8464    0.7821 H   0  0  0  0  0  0  0  0  0  0  0  0
   -2.8156   -2.8034    0.4711 C   0  0  0  0  0  0  0  0  0  0  0  0
   -3.4336   -2.2354    1.1641 H   0  0  0  0  0  0  0  0  0  0  0  0
   -3.2256   -2.7344   -0.5349 H   0  0  0  0  0  0  0  0  0  0  0  0
   -1.4126   -2.2444    0.4801 C   0  0  0  0  0  0  0  0  0  0  0  0
   -0.4686   -2.9534    0.8001 O   0  0  0  0  0  0  0  0  0  0  0  0
   -1.2736   -0.9704    0.1241 N   0  0  0  0  0  0  0  0  0  0  0  0
   -2.0996   -0.4354   -0.1019 H   0  0  0  0  0  0  0  0  0  0  0  0
   -0.0016   -0.2394    0.1271 C   0  0  1  0  0  0  0  0  0  0  0  0
    0.7700   -0.8855   -0.2975 H   0  0  0  0  0  0  0  0  0  0  0  0
   -0.1340    1.0204   -0.7513 C   0  0  0  0  0  0  0  0  0  0  0  0
   -1.0272    1.5741   -0.4594 H   0  0  0  0  0  0  0  0  0  0  0  0
    0.7285    1.6693   -0.5949 H   0  0  0  0  0  0  0  0  0  0  0  0
   -0.2666    0.7115   -2.2395 C   0  0  0  0  0  0  0  0  0  0  0  0
    0.2000   -0.2666   -2.8086 O   0  0  0  0  0  0  0  0  0  0  0  0
   -0.9576    1.6253   -2.9463 O   0  0  0  0  0  0  0  0  0  0  0  0
   -0.9790    1.2993   -3.8466 H   0  0  0  0  0  0  0  0  0  0  0  0
    0.4040    0.1117    1.5725 C   0  0  0  0  0  0  0  0  0  0  0  0
    1.0707    1.1220    1.7922 O   0  0  0  0  0  0  0  0  0  0  0  0
    0.0162   -0.7144    2.5507 N   0  0  0  0  0  0  0  0  0  0  0  0
   -0.4762   -1.5595    2.2804 H   0  0  0  0  0  0  0  0  0  0  0  0
    0.3161   -0.5147    3.9669 C   0  0  0  0  0  0  0  0  0  0  0  0
    0.0168    0.4912    4.2692 H   0  0  0  0  0  0  0  0  0  0  0  0
   -0.2216   -1.2467    4.5709 H   0  0  0  0  0  0  0  0  0  0  0  0
    1.3887   -0.6251    4.1357 H   0  0  0  0  0  0  0  0  0  0  0  0
  5  6  2  0  0  0  0
  5  7  1  0  0  0  0
  2  3  1  0  0  0  0
  2  4  1  0  0  0  0
  2  5  1  0  0  0  0
  1  2  1  0  0  0  0
 18 19  2  0  0  0  0
 18 20  1  0  0  0  0
 16 17  1  0  0  0  0
 14 15  2  0  0  0  0
 14 16  1  0  0  0  0
 11 12  1  0  0  0  0
 11 13  1  0  0  0  0
 11 14  1  0  0  0  0
  9 10  1  0  0  0  0
  9 11  1  0  0  0  0
  9 18  1  0  0  0  0
  7  8  1  0  0  0  0
  7  9  1  0  0  0  0
 22 23  1  0  0  0  0
 22 24  1  0  0  0  0
 22 25  1  0  0  0  0
 20 21  1  0  0  0  0
 20 22  1  0  0  0  0
M  END
$$$$
default_name
  -OEChem-01062215323D

 25 24  0     1  0  0  0  0  0999 V2000
   -2.7826   -3.8464    0.7821 H   0  0  0  0  0  0  0  0  0  0  0  0
   -2.8156   -2.8034    0.4711 C   0  0  0  0  0  0  0  0  0  0  0  0
   -3.4336   -2.2354    1.1641 H   0  0  0  0  0  0  0  0  0  0  0  0
   -3.2256   -2.7344   -0.5349 H   0  0  0  0  0  0  0  0  0  0  0  0
   -1.4126   -2.2444    0.4801 C   0  0  0  0  0  0  0  0  0  0  0  0
   -0.4686   -2.9534    0.8001 O   0  0  0  0  0  0  0  0  0  0  0  0
   -1.2736   -0.9704    0.1241 N   0  0  0  0  0  0  0  0  0  0  0  0
   -2.0996   -0.4354   -0.1019 H   0  0  0  0  0  0  0  0  0  0  0  0
   -0.0016   -0.2394    0.1271 C   0  0  1  0  0  0  0  0  0  0  0  0
    0.7700   -0.8855   -0.2975 H   0  0  0  0  0  0  0  0  0  0  0  0
   -0.1340    1.0204   -0.7513 C   0  0  0  0  0  0  0  0  0  0  0  0
   -1.0272    1.5741   -0.4594 H   0  0  0  0  0  0  0  0  0  0  0  0
    0.7285    1.6693   -0.5949 H   0  0  0  0  0  0  0  0  0  0  0  0
   -0.2666    0.7115   -2.2395 C   0  0  0  0  0  0  0  0  0  0  0  0
    0.2000   -0.2666   -2.8086 O   0  0  0  0  0  0  0  0  0  0  0  0
   -0.9576    1.6253   -2.9463 O   0  0  0  0  0  0  0  0  0  0  0  0
   -0.9790    1.2993   -3.8466 H   0  0  0  0  0  0  0  0  0  0  0  0
    0.4040    0.1117    1.5725 C   0  0  0  0  0  0  0  0  0  0  0  0
    0.8212    1.2392    1.8337 O   0  0  0  0  0  0  0  0  0  0  0  0
    0.2931   -0.8421    2.5040 N   0  0  0  0  0  0  0  0  0  0  0  0
    0.0015   -1.7640    2.1960 H   0  0  0  0  0  0  0  0  0  0  0  0
    0.6308   -0.6616    3.9143 C   0  0  0  0  0  0  0  0  0  0  0  0
    0.1193    0.2202    4.3062 H   0  0  0  0  0  0  0  0  0  0  0  0
    0.3270   -1.5382    4.4878 H   0  0  0  0  0  0  0  0  0  0  0  0
    1.7074   -0.5163    4.0198 H   0  0  0  0  0  0  0  0  0  0  0  0
  5  6  2  0  0  0  0
  5  7  1  0  0  0  0
  2  3  1  0  0  0  0
  2  4  1  0  0  0  0
  2  5  1  0  0  0  0
  1  2  1  0  0  0  0
 18 19  2  0  0  0  0
 18 20  1  0  0  0  0
 16 17  1  0  0  0  0
 14 15  2  0  0  0  0
 14 16  1  0  0  0  0
 11 12  1  0  0  0  0
 11 13  1  0  0  0  0
 11 14  1  0  0  0  0
  9 10  1  0  0  0  0
  9 11  1  0  0  0  0
  9 18  1  0  0  0  0
  7  8  1  0  0  0  0
  7  9  1  0  0  0  0
 22 23  1  0  0  0  0
 22 24  1  0  0  0  0
 22 25  1  0  0  0  0
 20 21  1  0  0  0  0
 20 22  1  0  0  0  0
M  END
$$$$
default_name
  -OEChem-01062215323D

 25 24  0     1  0  0  0  0  0999 V2000
   -2.7826   -3.8464    0.7821 H   0  0  0  0  0  0  0  0  0  0  0  0
   -2.8156   -2.8034    0.4711 C   0  0  0  0  0  0  0  0  0  0  0  0
   -3.4336   -2.2354    1.1641 H   0  0  0  0  0  0  0  0  0  0  0  0
   -3.2256   -2.7344   -0.5349 H   0  0  0  0  0  0  0  0  0  0  0  0
   -1.4126   -2.2444    0.4801 C   0  0  0  0  0  0  0  0  0  0  0  0
   -0.4686   -2.9534    0.8001 O   0  0  0  0  0  0  0  0  0  0  0  0
   -1.2736   -0.9704    0.1241 N   0  0  0  0  0  0  0  0  0  0  0  0
   -2.0996   -0.4354   -0.1019 H   0  0  0  0  0  0  0  0  0  0  0  0
   -0.0016   -0.2394    0.1271 C   0  0  1  0  0  0  0  0  0  0  0  0
    0.7700   -0.8855   -0.2975 H   0  0  0  0  0  0  0  0  0  0  0  0
   -0.1340    1.0204   -0.7513 C   0  0  0  0  0  0  0  0  0  0  0  0
   -1.0272    1.5741   -0.4594 H   0  0  0  0  0  0  0  0  0  0  0  0
    0.7285    1.6693   -0.5949 H   0  0  0  0  0  0  0  0  0  0  0  0
   -0.2666    0.7115   -2.2395 C   0  0  0  0  0  0  0  0  0  0  0  0
    0.2000   -0.2666   -2.8086 O   0  0  0  0  0  0  0  0  0  0  0  0
   -0.9576    1.6253   -2.9463 O   0  0  0  0  0  0  0  0  0  0  0  0
   -0.9790    1.2993   -3.8466 H   0  0  0  0  0  0  0  0  0  0  0  0
    0.4040    0.1117    1.5725 C   0  0  0  0  0  0  0  0  0  0  0  0
    0.5543    1.2889    1.8966 O   0  0  0  0  0  0  0  0  0  0  0  0
    0.5889   -0.8950    2.4339 N   0  0  0  0  0  0  0  0  0  0  0  0
    0.5075   -1.8398    2.0724 H   0  0  0  0  0  0  0  0  0  0  0  0
    0.9674   -0.7236    3.8348 C   0  0  0  0  0  0  0  0  0  0  0  0
    0.2864   -0.0192    4.3175 H   0  0  0  0  0  0  0  0  0  0  0  0
    0.9228   -1.6811    4.3553 H   0  0  0  0  0  0  0  0  0  0  0  0
    1.9819   -0.3259    3.8965 H   0  0  0  0  0  0  0  0  0  0  0  0
  5  6  2  0  0  0  0
  5  7  1  0  0  0  0
  2  3  1  0  0  0  0
  2  4  1  0  0  0  0
  2  5  1  0  0  0  0
  1  2  1  0  0  0  0
 18 19  2  0  0  0  0
 18 20  1  0  0  0  0
 16 17  1  0  0  0  0
 14 15  2  0  0  0  0
 14 16  1  0  0  0  0
 11 12  1  0  0  0  0
 11 13  1  0  0  0  0
 11 14  1  0  0  0  0
  9 10  1  0  0  0  0
  9 11  1  0  0  0  0
  9 18  1  0  0  0  0
  7  8  1  0  0  0  0
  7  9  1  0  0  0  0
 22 23  1  0  0  0  0
 22 24  1  0  0  0  0
 22 25  1  0  0  0  0
 20 21  1  0  0  0  0
 20 22  1  0  0  0  0
M  END
$$$$
default_name
  -OEChem-01062215323D

 25 24  0     1  0  0  0  0  0999 V2000
   -2.7826   -3.8464    0.7821 H   0  0  0  0  0  0  0  0  0  0  0  0
   -2.8156   -2.8034    0.4711 C   0  0  0  0  0  0  0  0  0  0  0  0
   -3.4336   -2.2354    1.1641 H   0  0  0  0  0  0  0  0  0  0  0  0
   -3.2256   -2.7344   -0.5349 H   0  0  0  0  0  0  0  0  0  0  0  0
   -1.4126   -2.2444    0.4801 C   0  0  0  0  0  0  0  0  0  0  0  0
   -0.4686   -2.9534    0.8001 O   0  0  0  0  0  0  0  0  0  0  0  0
   -1.2736   -0.9704    0.1241 N   0  0  0  0  0  0  0  0  0  0  0  0
   -2.0996   -0.4354   -0.1019 H   0  0  0  0  0  0  0  0  0  0  0  0
   -0.0016   -0.2394    0.1271 C   0  0  1  0  0  0  0  0  0  0  0  0
    0.7700   -0.8855   -0.2975 H   0  0  0  0  0  0  0  0  0  0  0  0
   -0.1340    1.0204   -0.7513 C   0  0  0  0  0  0  0  0  0  0  0  0
   -1.0272    1.5741   -0.4594 H   0  0  0  0  0  0  0  0  0  0  0  0
    0.7285    1.6693   -0.5949 H   0  0  0  0  0  0  0  0  0  0  0  0
   -0.2666    0.7115   -2.2395 C   0  0  0  0  0  0  0  0  0  0  0  0
    0.2000   -0.2666   -2.8086 O   0  0  0  0  0  0  0  0  0  0  0  0
   -0.9576    1.6253   -2.9463 O   0  0  0  0  0  0  0  0  0  0  0  0
   -0.9790    1.2993   -3.8466 H   0  0  0  0  0  0  0  0  0  0  0  0
    0.4040    0.1117    1.5725 C   0  0  0  0  0  0  0  0  0  0  0  0
    0.2881    1.2680    1.9764 O   0  0  0  0  0  0  0  0  0  0  0  0
    0.8832   -0.8697    2.3451 N   0  0  0  0  0  0  0  0  0  0  0  0
    1.0074   -1.7818    1.9180 H   0  0  0  0  0  0  0  0  0  0  0  0
    1.3029   -0.6963    3.7341 C   0  0  0  0  0  0  0  0  0  0  0  0
    0.5065   -0.2108    4.3023 H   0  0  0  0  0  0  0  0  0  0  0  0
    1.5251   -1.6655    4.1825 H   0  0  0  0  0  0  0  0  0  0  0  0
    2.1937   -0.0670    3.7742 H   0  0  0  0  0  0  0  0  0  0  0  0
  5  6  2  0  0  0  0
  5  7  1  0  0  0  0
  2  3  1  0  0  0  0
  2  4  1  0  0  0  0
  2  5  1  0  0  0  0
  1  2  1  0  0  0  0
 18 19  2  0  0  0  0
 18 20  1  0  0  0  0
 16 17  1  0  0  0  0
 14 15  2  0  0  0  0
 14 16  1  0  0  0  0
 11 12  1  0  0  0  0
 11 13  1  0  0  0  0
 11 14  1  0  0  0  0
  9 10  1  0  0  0  0
  9 11  1  0  0  0  0
  9 18  1  0  0  0  0
  7  8  1  0  0  0  0
  7  9  1  0  0  0  0
 22 23  1  0  0  0  0
 22 24  1  0  0  0  0
 22 25  1  0  0  0  0
 20 21  1  0  0  0  0
 20 22  1  0  0  0  0
M  END
$$$$
default_name
  -OEChem-01062215323D

 25 24  0     1  0  0  0  0  0999 V2000
   -2.7826   -3.8464    0.7821 H   0  0  0  0  0  0  0  0  0  0  0  0
   -2.8156   -2.8034    0.4711 C   0  0  0  0  0  0  0  0  0  0  0  0
   -3.4336   -2.2354    1.1641 H   0  0  0  0  0  0  0  0  0  0  0  0
   -3.2256   -2.7344   -0.5349 H   0  0  0  0  0  0  0  0  0  0  0  0
   -1.4126   -2.2444    0.4801 C   0  0  0  0  0  0  0  0  0  0  0  0
   -0.4686   -2.9534    0.8001 O   0  0  0  0  0  0  0  0  0  0  0  0
   -1.2736   -0.9704    0.1241 N   0  0  0  0  0  0  0  0  0  0  0  0
   -2.0996   -0.4354   -0.1019 H   0  0  0  0  0  0  0  0  0  0  0  0
   -0.0016   -0.2394    0.1271 C   0  0  1  0  0  0  0  0  0  0  0  0
    0.7700   -0.8855   -0.2975 H   0  0  0  0  0  0  0  0  0  0  0  0
   -0.1340    1.0204   -0.7513 C   0  0  0  0  0  0  0  0  0  0  0  0
   -1.0272    1.5741   -0.4594 H   0  0  0  0  0  0  0  0  0  0  0  0
    0.7285    1.6693   -0.5949 H   0  0  0  0  0  0  0  0  0  0  0  0
   -0.2666    0.7115   -2.2395 C   0  0  0  0  0  0  0  0  0  0  0  0
    0.2000   -0.2666   -2.8086 O   0  0  0  0  0  0  0  0  0  0  0  0
   -0.9576    1.6253   -2.9463 O   0  0  0  0  0  0  0  0  0  0  0  0
   -0.9790    1.2993   -3.8466 H   0  0  0  0  0  0  0  0  0  0  0  0
    0.4040    0.1117    1.5725 C   0  0  0  0  0  0  0  0  0  0  0  0
    0.0408    1.1777    2.0677 O   0  0  0  0  0  0  0  0  0  0  0  0
    1.1562   -0.7677    2.2437 N   0  0  0  0  0  0  0  0  0  0  0  0
    1.4671   -1.5940    1.7433 H   0  0  0  0  0  0  0  0  0  0  0  0
    1.6144   -0.5818    3.6188 C   0  0  0  0  0  0  0  0  0  0  0  0
    0.7647   -0.3413    4.2615 H   0  0  0  0  0  0  0  0  0  0  0  0
    2.0929   -1.4925    3.9811 H   0  0  0  0  0  0  0  0  0  0  0  0
    2.3282    0.2427    3.6612 H   0  0  0  0  0  0  0  0  0  0  0  0
  5  6  2  0  0  0  0
  5  7  1  0  0  0  0
  2  3  1  0  0  0  0
  2  4  1  0  0  0  0
  2  5  1  0  0  0  0
  1  2  1  0  0  0  0
 18 19  2  0  0  0  0
 18 20  1  0  0  0  0
 16 17  1  0  0  0  0
 14 15  2  0  0  0  0
 14 16  1  0  0  0  0
 11 12  1  0  0  0  0
 11 13  1  0  0  0  0
 11 14  1  0  0  0  0
  9 10  1  0  0  0  0
  9 11  1  0  0  0  0
  9 18  1  0  0  0  0
  7  8  1  0  0  0  0
  7  9  1  0  0  0  0
 22 23  1  0  0  0  0
 22 24  1  0  0  0  0
 22 25  1  0  0  0  0
 20 21  1  0  0  0  0
 20 22  1  0  0  0  0
M  END
$$$$
default_name
  -OEChem-01062215323D

 25 24  0     1  0  0  0  0  0999 V2000
   -2.7826   -3.8464    0.7821 H   0  0  0  0  0  0  0  0  0  0  0  0
   -2.8156   -2.8034    0.4711 C   0  0  0  0  0  0  0  0  0  0  0  0
   -3.4336   -2.2354    1.1641 H   0  0  0  0  0  0  0  0  0  0  0  0
   -3.2256   -2.7344   -0.5349 H   0  0  0  0  0  0  0  0  0  0  0  0
   -1.4126   -2.2444    0.4801 C   0  0  0  0  0  0  0  0  0  0  0  0
   -0.4686   -2.9534    0.8001 O   0  0  0  0  0  0  0  0  0  0  0  0
   -1.2736   -0.9704    0.1241 N   0  0  0  0  0  0  0  0  0  0  0  0
   -2.0996   -0.4354   -0.1019 H   0  0  0  0  0  0  0  0  0  0  0  0
   -0.0016   -0.2394    0.1271 C   0  0  1  0  0  0  0  0  0  0  0  0
    0.7700   -0.8855   -0.2975 H   0  0  0  0  0  0  0  0  0  0  0  0
   -0.1340    1.0204   -0.7513 C   0  0  0  0  0  0  0  0  0  0  0  0
   -1.0272    1.5741   -0.4594 H   0  0  0  0  0  0  0  0  0  0  0  0
    0.7285    1.6693   -0.5949 H   0  0  0  0  0  0  0  0  0  0  0  0
   -0.2666    0.7115   -2.2395 C   0  0  0  0  0  0  0  0  0  0  0  0
    0.2000   -0.2666   -2.8086 O   0  0  0  0  0  0  0  0  0  0  0  0
   -0.9576    1.6253   -2.9463 O   0  0  0  0  0  0  0  0  0  0  0  0
   -0.9790    1.2993   -3.8466 H   0  0  0  0  0  0  0  0  0  0  0  0
    0.4040    0.1117    1.5725 C   0  0  0  0  0  0  0  0  0  0  0  0
   -0.1708    1.0243    2.1644 O   0  0  0  0  0  0  0  0  0  0  0  0
    1.3891   -0.5961    2.1366 N   0  0  0  0  0  0  0  0  0  0  0  0
    1.8553   -1.2892    1.5603 H   0  0  0  0  0  0  0  0  0  0  0  0
    1.8806   -0.3877    3.4969 C   0  0  0  0  0  0  0  0  0  0  0  0
    1.0433   -0.4020    4.1981 H   0  0  0  0  0  0  0  0  0  0  0  0
    2.5875   -1.1739    3.7649 H   0  0  0  0  0  0  0  0  0  0  0  0
    2.3763    0.5823    3.5652 H   0  0  0  0  0  0  0  0  0  0  0  0
  5  6  2  0  0  0  0
  5  7  1  0  0  0  0
  2  3  1  0  0  0  0
  2  4  1  0  0  0  0
  2  5  1  0  0  0  0
  1  2  1  0  0  0  0
 18 19  2  0  0  0  0
 18 20  1  0  0  0  0
 16 17  1  0  0  0  0
 14 15  2  0  0  0  0
 14 16  1  0  0  0  0
 11 12  1  0  0  0  0
 11 13  1  0  0  0  0
 11 14  1  0  0  0  0
  9 10  1  0  0  0  0
  9 11  1  0  0  0  0
  9 18  1  0  0  0  0
  7  8  1  0  0  0  0
  7  9  1  0  0  0  0
 22 23  1  0  0  0  0
 22 24  1  0  0  0  0
 22 25  1  0  0  0  0
 20 21  1  0  0  0  0
 20 22  1  0  0  0  0
M  END
$$$$
default_name
  -OEChem-01062215323D

 25 24  0     1  0  0  0  0  0999 V2000
   -2.7826   -3.8464    0.7821 H   0  0  0  0  0  0  0  0  0  0  0  0
   -2.8156   -2.8034    0.4711 C   0  0  0  0  0  0  0  0  0  0  0  0
   -3.4336   -2.2354    1.1641 H   0  0  0  0  0  0  0  0  0  0  0  0
   -3.2256   -2.7344   -0.5349 H   0  0  0  0  0  0  0  0  0  0  0  0
   -1.4126   -2.2444    0.4801 C   0  0  0  0  0  0  0  0  0  0  0  0
   -0.4686   -2.9534    0.8001 O   0  0  0  0  0  0  0  0  0  0  0  0
   -1.2736   -0.9704    0.1241 N   0  0  0  0  0  0  0  0  0  0  0  0
   -2.0996   -0.4354   -0.1019 H   0  0  0  0  0  0  0  0  0  0  0  0
   -0.0016   -0.2394    0.1271 C   0  0  1  0  0  0  0  0  0  0  0  0
    0.7700   -0.8855   -0.2975 H   0  0  0  0  0  0  0  0  0  0  0  0
   -0.1340    1.0204   -0.7513 C   0  0  0  0  0  0  0  0  0  0  0  0
   -1.0272    1.5741   -0.4594 H   0  0  0  0  0  0  0  0  0  0  0  0
    0.7285    1.6693   -0.5949 H   0  0  0  0  0  0  0  0  0  0  0  0
   -0.2666    0.7115   -2.2395 C   0  0  0  0  0  0  0  0  0  0  0  0
    0.2000   -0.2666   -2.8086 O   0  0  0  0  0  0  0  0  0  0  0  0
   -0.9576    1.6253   -2.9463 O   0  0  0  0  0  0  0  0  0  0  0  0
   -0.9790    1.2993   -3.8466 H   0  0  0  0  0  0  0  0  0  0  0  0
    0.4040    0.1117    1.5725 C   0  0  0  0  0  0  0  0  0  0  0  0
   -0.3323    0.8181    2.2598 O   0  0  0  0  0  0  0  0  0  0  0  0
    1.5661   -0.3665    2.0312 N   0  0  0  0  0  0  0  0  0  0  0  0
    2.1455   -0.8881    1.3815 H   0  0  0  0  0  0  0  0  0  0  0  0
    2.0836   -0.1273    3.3767 C   0  0  0  0  0  0  0  0  0  0  0  0
    1.3235   -0.3886    4.1162 H   0  0  0  0  0  0  0  0  0  0  0  0
    2.9753   -0.7315    3.5486 H   0  0  0  0  0  0  0  0  0  0  0  0
    2.3348    0.9285    3.4928 H   0  0  0  0  0  0  0  0  0  0  0  0
  5  6  2  0  0  0  0
  5  7  1  0  0  0  0
  2  3  1  0  0  0  0
  2  4  1  0  0  0  0
  2  5  1  0  0  0  0
  1  2  1  0  0  0  0
 18 19  2  0  0  0  0
 18 20  1  0  0  0  0
 16 17  1  0  0  0  0
 14 15  2  0  0  0  0
 14 16  1  0  0  0  0
 11 12  1  0  0  0  0
 11 13  1  0  0  0  0
 11 14  1  0  0  0  0
  9 10  1  0  0  0  0
  9 11  1  0  0  0  0
  9 18  1  0  0  0  0
  7  8  1  0  0  0  0
  7  9  1  0  0  0  0
 22 23  1  0  0  0  0
 22 24  1  0  0  0  0
 22 25  1  0  0  0  0
 20 21  1  0  0  0  0
 20 22  1  0  0  0  0
M  END
$$$$
default_name
  -OEChem-01062215323D

 25 24  0     1  0  0  0  0  0999 V2000
   -2.7826   -3.8464    0.7821 H   0  0  0  0  0  0  0  0  0  0  0  0
   -2.8156   -2.8034    0.4711 C   0  0  0  0  0  0  0  0  0  0  0  0
   -3.4336   -2.2354    1.1641 H   0  0  0  0  0  0  0  0  0  0  0  0
   -3.2256   -2.7344   -0.5349 H   0  0  0  0  0  0  0  0  0  0  0  0
   -1.4126   -2.2444    0.4801 C   0  0  0  0  0  0  0  0  0  0  0  0
   -0.4686   -2.9534    0.8001 O   0  0  0  0  0  0  0  0  0  0  0  0
   -1.2736   -0.9704    0.1241 N   0  0  0  0  0  0  0  0  0  0  0  0
   -2.0996   -0.4354   -0.1019 H   0  0  0  0  0  0  0  0  0  0  0  0
   -0.0016   -0.2394    0.1271 C   0  0  1  0  0  0  0  0  0  0  0  0
    0.7700   -0.8855   -0.2975 H   0  0  0  0  0  0  0  0  0  0  0  0
   -0.1340    1.0204   -0.7513 C   0  0  0  0  0  0  0  0  0  0  0  0
   -1.0272    1.5741   -0.4594 H   0  0  0  0  0  0  0  0  0  0  0  0
    0.7285    1.6693   -0.5949 H   0  0  0  0  0  0  0  0  0  0  0  0
   -0.2666    0.7115   -2.2395 C   0  0  0  0  0  0  0  0  0  0  0  0
    0.2000   -0.2666   -2.8086 O   0  0  0  0  0  0  0  0  0  0  0  0
   -0.9576    1.6253   -2.9463 O   0  0  0  0  0  0  0  0  0  0  0  0
   -0.9790    1.2993   -3.8466 H   0  0  0  0  0  0  0  0  0  0  0  0
    0.4040    0.1117    1.5725 C   0  0  0  0  0  0  0  0  0  0  0  0
   -0.4326    0.5734    2.3474 O   0  0  0  0  0  0  0  0  0  0  0  0
    1.6752   -0.0946    1.9345 N   0  0  0  0  0  0  0  0  0  0  0  0
    2.3180   -0.4180    1.2189 H   0  0  0  0  0  0  0  0  0  0  0  0
    2.2093    0.1817    3.2664 C   0  0  0  0  0  0  0  0  0  0  0  0
    1.5860   -0.3022    4.0215 H   0  0  0  0  0  0  0  0  0  0  0  0
    3.2297   -0.1953    3.3469 H   0  0  0  0  0  0  0  0  0  0  0  0
    2.2063    1.2577    3.4488 H   0  0  0  0  0  0  0  0  0  0  0  0
  5  6  2  0  0  0  0
  5  7  1  0  0  0  0
  2  3  1  0  0  0  0
  2  4  1  0  0  0  0
  2  5  1  0  0  0  0
  1  2  1  0  0  0  0
 18 19  2  0  0  0  0
 18 20  1  0  0  0  0
 16 17  1  0  0  0  0
 14 15  2  0  0  0  0
 14 16  1  0  0  0  0
 11 12  1  0  0  0  0
 11 13  1  0  0  0  0
 11 14  1  0  0  0  0
  9 10  1  0  0  0  0
  9 11  1  0  0  0  0
  9 18  1  0  0  0  0
  7  8  1  0  0  0  0
  7  9  1  0  0  0  0
 22 23  1  0  0  0  0
 22 24  1  0  0  0  0
 22 25  1  0  0  0  0
 20 21  1  0  0  0  0
 20 22  1  0  0  0  0
M  END
$$$$
default_name
  -OEChem-01062215323D

 25 24  0     1  0  0  0  0  0999 V2000
   -2.7826   -3.8464    0.7821 H   0  0  0  0  0  0  0  0  0  0  0  0
   -2.8156   -2.8034    0.4711 C   0  0  0  0  0  0  0  0  0  0  0  0
   -3.4336   -2.2354    1.1641 H   0  0  0  0  0  0  0  0  0  0  0  0
   -3.2256   -2.7344   -0.5349 H   0  0  0  0  0  0  0  0  0  0  0  0
   -1.4126   -2.2444    0.4801 C   0  0  0  0  0  0  0  0  0  0  0  0
   -0.4686   -2.9534    0.8001 O   0  0  0  0  0  0  0  0  0  0  0  0
   -1.2736   -0.9704    0.1241 N   0  0  0  0  0  0  0  0  0  0  0  0
   -2.0996   -0.4354   -0.1019 H   0  0  0  0  0  0  0  0  0  0  0  0
   -0.0016   -0.2394    0.1271 C   0  0  1  0  0  0  0  0  0  0  0  0
    0.7700   -0.8855   -0.2975 H   0  0  0  0  0  0  0  0  0  0  0  0
   -0.1340    1.0204   -0.7513 C   0  0  0  0  0  0  0  0  0  0  0  0
   -1.0272    1.5741   -0.4594 H   0  0  0  0  0  0  0  0  0  0  0  0
    0.7285    1.6693   -0.5949 H   0  0  0  0  0  0  0  0  0  0  0  0
   -0.2666    0.7115   -2.2395 C   0  0  0  0  0  0  0  0  0  0  0  0
    0.2000   -0.2666   -2.8086 O   0  0  0  0  0  0  0  0  0  0  0  0
   -0.9576    1.6253   -2.9463 O   0  0  0  0  0  0  0  0  0  0  0  0
   -0.9790    1.2993   -3.8466 H   0  0  0  0  0  0  0  0  0  0  0  0
    0.4040    0.1117    1.5725 C   0  0  0  0  0  0  0  0  0  0  0  0
   -0.4650    0.3066    2.4213 O   0  0  0  0  0  0  0  0  0  0  0  0
    1.7089    0.2011    1.8532 N   0  0  0  0  0  0  0  0  0  0  0  0
    2.3609    0.0889    1.0837 H   0  0  0  0  0  0  0  0  0  0  0  0
    2.2493    0.5181    3.1735 C   0  0  0  0  0  0  0  0  0  0  0  0
    1.8130   -0.1486    3.9205 H   0  0  0  0  0  0  0  0  0  0  0  0
    3.3334    0.3981    3.1737 H   0  0  0  0  0  0  0  0  0  0  0  0
    1.9998    1.5476    3.4364 H   0  0  0  0  0  0  0  0  0  0  0  0
  5  6  2  0  0  0  0
  5  7  1  0  0  0  0
  2  3  1  0  0  0  0
  2  4  1  0  0  0  0
  2  5  1  0  0  0  0
  1  2  1  0  0  0  0
 18 19  2  0  0  0  0
 18 20  1  0  0  0  0
 16 17  1  0  0  0  0
 14 15  2  0  0  0  0
 14 16  1  0  0  0  0
 11 12  1  0  0  0  0
 11 13  1  0  0  0  0
 11 14  1  0  0  0  0
  9 10  1  0  0  0  0
  9 11  1  0  0  0  0
  9 18  1  0  0  0  0
  7  8  1  0  0  0  0
  7  9  1  0  0  0  0
 22 23  1  0  0  0  0
 22 24  1  0  0  0  0
 22 25  1  0  0  0  0
 20 21  1  0  0  0  0
 20 22  1  0  0  0  0
M  END
$$$$
default_name
  -OEChem-01062215323D

 25 24  0     1  0  0  0  0  0999 V2000
   -2.7826   -3.8464    0.7821 H   0  0  0  0  0  0  0  0  0  0  0  0
   -2.8156   -2.8034    0.4711 C   0  0  0  0  0  0  0  0  0  0  0  0
   -3.4336   -2.2354    1.1641 H   0  0  0  0  0  0  0  0  0  0  0  0
   -3.2256   -2.7344   -0.5349 H   0  0  0  0  0  0  0  0  0  0  0  0
   -1.4126   -2.2444    0.4801 C   0  0  0  0  0  0  0  0  0  0  0  0
   -0.4686   -2.9534    0.8001 O   0  0  0  0  0  0  0  0  0  0  0  0
   -1.2736   -0.9704    0.1241 N   0  0  0  0  0  0  0  0  0  0  0  0
   -2.0996   -0.4354   -0.1019 H   0  0  0  0  0  0  0  0  0  0  0  0
   -0.0016   -0.2394    0.1271 C   0  0  1  0  0  0  0  0  0  0  0  0
    0.7700   -0.8855   -0.2975 H   0  0  0  0  0  0  0  0  0  0  0  0
   -0.1340    1.0204   -0.7513 C   0  0  0  0  0  0  0  0  0  0  0  0
   -1.0272    1.5741   -0.4594 H   0  0  0  0  0  0  0  0  0  0  0  0
    0.7285    1.6693   -0.5949 H   0  0  0  0  0  0  0  0  0  0  0  0
   -0.2666    0.7115   -2.2395 C   0  0  0  0  0  0  0  0  0  0  0  0
    0.2000   -0.2666   -2.8086 O   0  0  0  0  0  0  0  0  0  0  0  0
   -0.9576    1.6253   -2.9463 O   0  0  0  0  0  0  0  0  0  0  0  0
   -0.9790    1.2993   -3.8466 H   0  0  0  0  0  0  0  0  0  0  0  0
    0.4040    0.1117    1.5725 C   0  0  0  0  0  0  0  0  0  0  0  0
   -0.4271    0.0361    2.4764 O   0  0  0  0  0  0  0  0  0  0  0  0
    1.6649    0.5004    1.7929 N   0  0  0  0  0  0  0  0  0  0  0  0
    2.2714    0.5982    0.9851 H   0  0  0  0  0  0  0  0  0  0  0  0
    2.2008    0.8591    3.1042 C   0  0  0  0  0  0  0  0  0  0  0  0
    1.9891    0.0618    3.8200 H   0  0  0  0  0  0  0  0  0  0  0  0
    3.2794    1.0082    3.0406 H   0  0  0  0  0  0  0  0  0  0  0  0
    1.7292    1.7783    3.4563 H   0  0  0  0  0  0  0  0  0  0  0  0
  5  6  2  0  0  0  0
  5  7  1  0  0  0  0
  2  3  1  0  0  0  0
  2  4  1  0  0  0  0
  2  5  1  0  0  0  0
  1  2  1  0  0  0  0
 18 19  2  0  0  0  0
 18 20  1  0  0  0  0
 16 17  1  0  0  0  0
 14 15  2  0  0  0  0
 14 16  1  0  0  0  0
 11 12  1  0  0  0  0
 11 13  1  0  0  0  0
 11 14  1  0  0  0  0
  9 10  1  0  0  0  0
  9 11  1  0  0  0  0
  9 18  1  0  0  0  0
  7  8  1  0  0  0  0
  7  9  1  0  0  0  0
 22 23  1  0  0  0  0
 22 24  1  0  0  0  0
 22 25  1  0  0  0  0
 20 21  1  0  0  0  0
 20 22  1  0  0  0  0
M  END
$$$$
default_name
  -OEChem-01062215323D

 25 24  0     1  0  0  0  0  0999 V2000
   -2.7826   -3.8464    0.7821 H   0  0  0  0  0  0  0  0  0  0  0  0
   -2.8156   -2.8034    0.4711 C   0  0  0  0  0  0  0  0  0  0  0  0
   -3.4336   -2.2354    1.1641 H   0  0  0  0  0  0  0  0  0  0  0  0
   -3.2256   -2.7344   -0.5349 H   0  0  0  0  0  0  0  0  0  0  0  0
   -1.4126   -2.2444    0.4801 C   0  0  0  0  0  0  0  0  0  0  0  0
   -0.4686   -2.9534    0.8001 O   0  0  0  0  0  0  0  0  0  0  0  0
   -1.2736   -0.9704    0.1241 N   0  0  0  0  0  0  0  0  0  0  0  0
   -2.0996   -0.4354   -0.1019 H   0  0  0  0  0  0  0  0  0  0  0  0
   -0.0016   -0.2394    0.1271 C   0  0  1  0  0  0  0  0  0  0  0  0
    0.6995   -0.7619   -0.5275 H   0  0  0  0  0  0  0  0  0  0  0  0
   -0.2283    1.1832   -0.4215 C   0  0  0  0  0  0  0  0  0  0  0  0
   -1.0684    1.6436    0.0998 H   0  0  0  0  0  0  0  0  0  0  0  0
    0.6562    1.7935   -0.2361 H   0  0  0  0  0  0  0  0  0  0  0  0
   -0.5562    1.2141   -1.9113 C   0  0  0  0  0  0  0  0  0  0  0  0
   -0.1809    0.3958   -2.7406 O   0  0  0  0  0  0  0  0  0  0  0  0
   -1.3195    2.2525   -2.2998 O   0  0  0  0  0  0  0  0  0  0  0  0
   -1.4615    2.1366   -3.2399 H   0  0  0  0  0  0  0  0  0  0  0  0
    0.5920   -0.2154    1.5497 C   0  0  0  0  0  0  0  0  0  0  0  0
   -0.0114   -0.7596    2.4734 O   0  0  0  0  0  0  0  0  0  0  0  0
    1.7580    0.4146    1.7319 N   0  0  0  0  0  0  0  0  0  0  0  0
    2.1604    0.8927    0.9323 H   0  0  0  0  0  0  0  0  0  0  0  0
    2.4487    0.5178    3.0156 C   0  0  0  0  0  0  0  0  0  0  0  0
    2.5567   -0.4752    3.4573 H   0  0  0  0  0  0  0  0  0  0  0  0
    3.4365    0.9586    2.8757 H   0  0  0  0  0  0  0  0  0  0  0  0
    1.8681    1.1417    3.6974 H   0  0  0  0  0  0  0  0  0  0  0  0
  5  6  2  0  0  0  0
  5  7  1  0  0  0  0
  2  3  1  0  0  0  0
  2  4  1  0  0  0  0
  2  5  1  0  0  0  0
  1  2  1  0  0  0  0
 18 19  2  0  0  0  0
 18 20  1  0  0  0  0
 16 17  1  0  0  0  0
 14 15  2  0  0  0  0
 14 16  1  0  0  0  0
 11 12  1  0  0  0  0
 11 13  1  0  0  0  0
 11 14  1  0  0  0  0
  9 10  1  0  0  0  0
  9 11  1  0  0  0  0
  9 18  1  0  0  0  0
  7  8  1  0  0  0  0
  7  9  1  0  0  0  0
 22 23  1  0  0  0  0
 22 24  1  0  0  0  0
 22 25  1  0  0  0  0
 20 21  1  0  0  0  0
 20 22  1  0  0  0  0
M  END
$$$$
default_name
  -OEChem-01062215323D

 25 24  0     1  0  0  0  0  0999 V2000
   -2.7826   -3.8464    0.7821 H   0  0  0  0  0  0  0  0  0  0  0  0
   -2.8156   -2.8034    0.4711 C   0  0  0  0  0  0  0  0  0  0  0  0
   -3.4336   -2.2354    1.1641 H   0  0  0  0  0  0  0  0  0  0  0  0
   -3.2256   -2.7344   -0.5349 H   0  0  0  0  0  0  0  0  0  0  0  0
   -1.4126   -2.2444    0.4801 C   0  0  0  0  0  0  0  0  0  0  0  0
   -0.4686   -2.9534    0.8001 O   0  0  0  0  0  0  0  0  0  0  0  0
   -1.2736   -0.9704    0.1241 N   0  0  0  0  0  0  0  0  0  0  0  0
   -2.0996   -0.4354   -0.1019 H   0  0  0  0  0  0  0  0  0  0  0  0
   -0.0016   -0.2394    0.1271 C   0  0  1  0  0  0  0  0  0  0  0  0
    0.6995   -0.7619   -0.5275 H   0  0  0  0  0  0  0  0  0  0  0  0
   -0.2283    1.1832   -0.4215 C   0  0  0  0  0  0  0  0  0  0  0  0
   -1.0684    1.6436    0.0998 H   0  0  0  0  0  0  0  0  0  0  0  0
    0.6562    1.7935   -0.2361 H   0  0  0  0  0  0  0  0  0  0  0  0
   -0.5562    1.2141   -1.9113 C   0  0  0  0  0  0  0  0  0  0  0  0
   -0.1809    0.3958   -2.7406 O   0  0  0  0  0  0  0  0  0  0  0  0
   -1.3195    2.2525   -2.2998 O   0  0  0  0  0  0  0  0  0  0  0  0
   -1.4615    2.1366   -3.2399 H   0  0  0  0  0  0  0  0  0  0  0  0
    0.5920   -0.2154    1.5497 C   0  0  0  0  0  0  0  0  0  0  0  0
    0.1509   -0.9770    2.4094 O   0  0  0  0  0  0  0  0  0  0  0  0
    1.5768    0.6538    1.8035 N   0  0  0  0  0  0  0  0  0  0  0  0
    1.8405    1.2911    1.0591 H   0  0  0  0  0  0  0  0  0  0  0  0
    2.2435    0.7912    3.0966 C   0  0  0  0  0  0  0  0  0  0  0  0
    2.5925   -0.1859    3.4375 H   0  0  0  0  0  0  0  0  0  0  0  0
    3.0952    1.4670    3.0095 H   0  0  0  0  0  0  0  0  0  0  0  0
    1.5419    1.1874    3.8328 H   0  0  0  0  0  0  0  0  0  0  0  0
  5  6  2  0  0  0  0
  5  7  1  0  0  0  0
  2  3  1  0  0  0  0
  2  4  1  0  0  0  0
  2  5  1  0  0  0  0
  1  2  1  0  0  0  0
 18 19  2  0  0  0  0
 18 20  1  0  0  0  0
 16 17  1  0  0  0  0
 14 15  2  0  0  0  0
 14 16  1  0  0  0  0
 11 12  1  0  0  0  0
 11 13  1  0  0  0  0
 11 14  1  0  0  0  0
  9 10  1  0  0  0  0
  9 11  1  0  0  0  0
  9 18  1  0  0  0  0
  7  8  1  0  0  0  0
  7  9  1  0  0  0  0
 22 23  1  0  0  0  0
 22 24  1  0  0  0  0
 22 25  1  0  0  0  0
 20 21  1  0  0  0  0
 20 22  1  0  0  0  0
M  END
$$$$
default_name
  -OEChem-01062215323D

 25 24  0     1  0  0  0  0  0999 V2000
   -2.7826   -3.8464    0.7821 H   0  0  0  0  0  0  0  0  0  0  0  0
   -2.8156   -2.8034    0.4711 C   0  0  0  0  0  0  0  0  0  0  0  0
   -3.4336   -2.2354    1.1641 H   0  0  0  0  0  0  0  0  0  0  0  0
   -3.2256   -2.7344   -0.5349 H   0  0  0  0  0  0  0  0  0  0  0  0
   -1.4126   -2.2444    0.4801 C   0  0  0  0  0  0  0  0  0  0  0  0
   -0.4686   -2.9534    0.8001 O   0  0  0  0  0  0  0  0  0  0  0  0
   -1.2736   -0.9704    0.1241 N   0  0  0  0  0  0  0  0  0  0  0  0
   -2.0996   -0.4354   -0.1019 H   0  0  0  0  0  0  0  0  0  0  0  0
   -0.0016   -0.2394    0.1271 C   0  0  1  0  0  0  0  0  0  0  0  0
    0.6995   -0.7619   -0.5275 H   0  0  0  0  0  0  0  0  0  0  0  0
   -0.2283    1.1832   -0.4215 C   0  0  0  0  0  0  0  0  0  0  0  0
   -1.0684    1.6436    0.0998 H   0  0  0  0  0  0  0  0  0  0  0  0
    0.6562    1.7935   -0.2361 H   0  0  0  0  0  0  0  0  0  0  0  0
   -0.5562    1.2141   -1.9113 C   0  0  0  0  0  0  0  0  0  0  0  0
   -0.1809    0.3958   -2.7406 O   0  0  0  0  0  0  0  0  0  0  0  0
   -1.3195    2.2525   -2.2998 O   0  0  0  0  0  0  0  0  0  0  0  0
   -1.4615    2.1366   -3.2399 H   0  0  0  0  0  0  0  0  0  0  0  0
    0.5920   -0.2154    1.5497 C   0  0  0  0  0  0  0  0  0  0  0  0
    0.3593   -1.1417    2.3252 O   0  0  0  0  0  0  0  0  0  0  0  0
    1.3449    0.8344    1.8972 N   0  0  0  0  0  0  0  0  0  0  0  0
    1.4368    1.5868    1.2225 H   0  0  0  0  0  0  0  0  0  0  0  0
    1.9803    0.9983    3.2029 C   0  0  0  0  0  0  0  0  0  0  0  0
    2.5578    0.1040    3.4471 H   0  0  0  0  0  0  0  0  0  0  0  0
    2.6447    1.8632    3.1908 H   0  0  0  0  0  0  0  0  0  0  0  0
    1.2164    1.1403    3.9694 H   0  0  0  0  0  0  0  0  0  0  0  0
  5  6  2  0  0  0  0
  5  7  1  0  0  0  0
  2  3  1  0  0  0  0
  2  4  1  0  0  0  0
  2  5  1  0  0  0  0
  1  2  1  0  0  0  0
 18 19  2  0  0  0  0
 18 20  1  0  0  0  0
 16 17  1  0  0  0  0
 14 15  2  0  0  0  0
 14 16  1  0  0  0  0
 11 12  1  0  0  0  0
 11 13  1  0  0  0  0
 11 14  1  0  0  0  0
  9 10  1  0  0  0  0
  9 11  1  0  0  0  0
  9 18  1  0  0  0  0
  7  8  1  0  0  0  0
  7  9  1  0  0  0  0
 22 23  1  0  0  0  0
 22 24  1  0  0  0  0
 22 25  1  0  0  0  0
 20 21  1  0  0  0  0
 20 22  1  0  0  0  0
M  END
$$$$
default_name
  -OEChem-01062215323D

 25 24  0     1  0  0  0  0  0999 V2000
   -2.7826   -3.8464    0.7821 H   0  0  0  0  0  0  0  0  0  0  0  0
   -2.8156   -2.8034    0.4711 C   0  0  0  0  0  0  0  0  0  0  0  0
   -3.4336   -2.2354    1.1641 H   0  0  0  0  0  0  0  0  0  0  0  0
   -3.2256   -2.7344   -0.5349 H   0  0  0  0  0  0  0  0  0  0  0  0
   -1.4126   -2.2444    0.4801 C   0  0  0  0  0  0  0  0  0  0  0  0
   -0.4686   -2.9534    0.8001 O   0  0  0  0  0  0  0  0  0  0  0  0
   -1.2736   -0.9704    0.1241 N   0  0  0  0  0  0  0  0  0  0  0  0
   -2.0996   -0.4354   -0.1019 H   0  0  0  0  0  0  0  0  0  0  0  0
   -0.0016   -0.2394    0.1271 C   0  0  1  0  0  0  0  0  0  0  0  0
    0.6995   -0.7619   -0.5275 H   0  0  0  0  0  0  0  0  0  0  0  0
   -0.2283    1.1832   -0.4215 C   0  0  0  0  0  0  0  0  0  0  0  0
   -1.0684    1.6436    0.0998 H   0  0  0  0  0  0  0  0  0  0  0  0
    0.6562    1.7935   -0.2361 H   0  0  0  0  0  0  0  0  0  0  0  0
   -0.5562    1.2141   -1.9113 C   0  0  0  0  0  0  0  0  0  0  0  0
   -0.1809    0.3958   -2.7406 O   0  0  0  0  0  0  0  0  0  0  0  0
   -1.3195    2.2525   -2.2998 O   0  0  0  0  0  0  0  0  0  0  0  0
   -1.4615    2.1366   -3.2399 H   0  0  0  0  0  0  0  0  0  0  0  0
    0.5920   -0.2154    1.5497 C   0  0  0  0  0  0  0  0  0  0  0  0
    0.5996   -1.2427    2.2266 O   0  0  0  0  0  0  0  0  0  0  0  0
    1.0781    0.9441    2.0067 N   0  0  0  0  0  0  0  0  0  0  0  0
    0.9770    1.7598    1.4115 H   0  0  0  0  0  0  0  0  0  0  0  0
    1.6771    1.1248    3.3273 C   0  0  0  0  0  0  0  0  0  0  0  0
    2.4552    0.3748    3.4853 H   0  0  0  0  0  0  0  0  0  0  0  0
    2.1156    2.1203    3.4073 H   0  0  0  0  0  0  0  0  0  0  0  0
    0.9138    1.0034    4.0980 H   0  0  0  0  0  0  0  0  0  0  0  0
  5  6  2  0  0  0  0
  5  7  1  0  0  0  0
  2  3  1  0  0  0  0
  2  4  1  0  0  0  0
  2  5  1  0  0  0  0
  1  2  1  0  0  0  0
 18 19  2  0  0  0  0
 18 20  1  0  0  0  0
 16 17  1  0  0  0  0
 14 15  2  0  0  0  0
 14 16  1  0  0  0  0
 11 12  1  0  0  0  0
 11 13  1  0  0  0  0
 11 14  1  0  0  0  0
  9 10  1  0  0  0  0
  9 11  1  0  0  0  0
  9 18  1  0  0  0  0
  7  8  1  0  0  0  0
  7  9  1  0  0  0  0
 22 23  1  0  0  0  0
 22 24  1  0  0  0  0
 22 25  1  0  0  0  0
 20 21  1  0  0  0  0
 20 22  1  0  0  0  0
M  END
$$$$
default_name
  -OEChem-01062215323D

 25 24  0     1  0  0  0  0  0999 V2000
   -2.7826   -3.8464    0.7821 H   0  0  0  0  0  0  0  0  0  0  0  0
   -2.8156   -2.8034    0.4711 C   0  0  0  0  0  0  0  0  0  0  0  0
   -3.4336   -2.2354    1.1641 H   0  0  0  0  0  0  0  0  0  0  0  0
   -3.2256   -2.7344   -0.5349 H   0  0  0  0  0  0  0  0  0  0  0  0
   -1.4126   -2.2444    0.4801 C   0  0  0  0  0  0  0  0  0  0  0  0
   -0.4686   -2.9534    0.8001 O   0  0  0  0  0  0  0  0  0  0  0  0
   -1.2736   -0.9704    0.1241 N   0  0  0  0  0  0  0  0  0  0  0  0
   -2.0996   -0.4354   -0.1019 H   0  0  0  0  0  0  0  0  0  0  0  0
   -0.0016   -0.2394    0.1271 C   0  0  1  0  0  0  0  0  0  0  0  0
    0.6995   -0.7619   -0.5275 H   0  0  0  0  0  0  0  0  0  0  0  0
   -0.2283    1.1832   -0.4215 C   0  0  0  0  0  0  0  0  0  0  0  0
   -1.0684    1.6436    0.0998 H   0  0  0  0  0  0  0  0  0  0  0  0
    0.6562    1.7935   -0.2361 H   0  0  0  0  0  0  0  0  0  0  0  0
   -0.5562    1.2141   -1.9113 C   0  0  0  0  0  0  0  0  0  0  0  0
   -0.1809    0.3958   -2.7406 O   0  0  0  0  0  0  0  0  0  0  0  0
   -1.3195    2.2525   -2.2998 O   0  0  0  0  0  0  0  0  0  0  0  0
   -1.4615    2.1366   -3.2399 H   0  0  0  0  0  0  0  0  0  0  0  0
    0.5920   -0.2154    1.5497 C   0  0  0  0  0  0  0  0  0  0  0  0
    0.8554   -1.2730    2.1204 O   0  0  0  0  0  0  0  0  0  0  0  0
    0.7947    0.9755    2.1244 N   0  0  0  0  0  0  0  0  0  0  0  0
    0.4922    1.7982    1.6131 H   0  0  0  0  0  0  0  0  0  0  0  0
    1.3545    1.1622    3.4613 C   0  0  0  0  0  0  0  0  0  0  0  0
    2.2915    0.6081    3.5497 H   0  0  0  0  0  0  0  0  0  0  0  0
    1.5440    2.2207    3.6441 H   0  0  0  0  0  0  0  0  0  0  0  0
    0.6548    0.7860    4.2097 H   0  0  0  0  0  0  0  0  0  0  0  0
  5  6  2  0  0  0  0
  5  7  1  0  0  0  0
  2  3  1  0  0  0  0
  2  4  1  0  0  0  0
  2  5  1  0  0  0  0
  1  2  1  0  0  0  0
 18 19  2  0  0  0  0
 18 20  1  0  0  0  0
 16 17  1  0  0  0  0
 14 15  2  0  0  0  0
 14 16  1  0  0  0  0
 11 12  1  0  0  0  0
 11 13  1  0  0  0  0
 11 14  1  0  0  0  0
  9 10  1  0  0  0  0
  9 11  1  0  0  0  0
  9 18  1  0  0  0  0
  7  8  1  0  0  0  0
  7  9  1  0  0  0  0
 22 23  1  0  0  0  0
 22 24  1  0  0  0  0
 22 25  1  0  0  0  0
 20 21  1  0  0  0  0
 20 22  1  0  0  0  0
M  END
$$$$
default_name
  -OEChem-01062215323D

 25 24  0     1  0  0  0  0  0999 V2000
   -2.7826   -3.8464    0.7821 H   0  0  0  0  0  0  0  0  0  0  0  0
   -2.8156   -2.8034    0.4711 C   0  0  0  0  0  0  0  0  0  0  0  0
   -3.4336   -2.2354    1.1641 H   0  0  0  0  0  0  0  0  0  0  0  0
   -3.2256   -2.7344   -0.5349 H   0  0  0  0  0  0  0  0  0  0  0  0
   -1.4126   -2.2444    0.4801 C   0  0  0  0  0  0  0  0  0  0  0  0
   -0.4686   -2.9534    0.8001 O   0  0  0  0  0  0  0  0  0  0  0  0
   -1.2736   -0.9704    0.1241 N   0  0  0  0  0  0  0  0  0  0  0  0
   -2.0996   -0.4354   -0.1019 H   0  0  0  0  0  0  0  0  0  0  0  0
   -0.0016   -0.2394    0.1271 C   0  0  1  0  0  0  0  0  0  0  0  0
    0.6995   -0.7619   -0.5275 H   0  0  0  0  0  0  0  0  0  0  0  0
   -0.2283    1.1832   -0.4215 C   0  0  0  0  0  0  0  0  0  0  0  0
   -1.0684    1.6436    0.0998 H   0  0  0  0  0  0  0  0  0  0  0  0
    0.6562    1.7935   -0.2361 H   0  0  0  0  0  0  0  0  0  0  0  0
   -0.5562    1.2141   -1.9113 C   0  0  0  0  0  0  0  0  0  0  0  0
   -0.1809    0.3958   -2.7406 O   0  0  0  0  0  0  0  0  0  0  0  0
   -1.3195    2.2525   -2.2998 O   0  0  0  0  0  0  0  0  0  0  0  0
   -1.4615    2.1366   -3.2399 H   0  0  0  0  0  0  0  0  0  0  0  0
    0.5920   -0.2154    1.5497 C   0  0  0  0  0  0  0  0  0  0  0  0
    1.1093   -1.2307    2.0137 O   0  0  0  0  0  0  0  0  0  0  0  0
    0.5139    0.9264    2.2424 N   0  0  0  0  0  0  0  0  0  0  0  0
    0.0157    1.6995    1.8137 H   0  0  0  0  0  0  0  0  0  0  0  0
    1.0345    1.1080    3.5958 C   0  0  0  0  0  0  0  0  0  0  0  0
    2.0780    0.7879    3.6358 H   0  0  0  0  0  0  0  0  0  0  0  0
    0.9688    2.1575    3.8852 H   0  0  0  0  0  0  0  0  0  0  0  0
    0.4569    0.5031    4.2971 H   0  0  0  0  0  0  0  0  0  0  0  0
  5  6  2  0  0  0  0
  5  7  1  0  0  0  0
  2  3  1  0  0  0  0
  2  4  1  0  0  0  0
  2  5  1  0  0  0  0
  1  2  1  0  0  0  0
 18 19  2  0  0  0  0
 18 20  1  0  0  0  0
 16 17  1  0  0  0  0
 14 15  2  0  0  0  0
 14 16  1  0  0  0  0
 11 12  1  0  0  0  0
 11 13  1  0  0  0  0
 11 14  1  0  0  0  0
  9 10  1  0  0  0  0
  9 11  1  0  0  0  0
  9 18  1  0  0  0  0
  7  8  1  0  0  0  0
  7  9  1  0  0  0  0
 22 23  1  0  0  0  0
 22 24  1  0  0  0  0
 22 25  1  0  0  0  0
 20 21  1  0  0  0  0
 20 22  1  0  0  0  0
M  END
$$$$
default_name
  -OEChem-01062215323D

 25 24  0     1  0  0  0  0  0999 V2000
   -2.7826   -3.8464    0.7821 H   0  0  0  0  0  0  0  0  0  0  0  0
   -2.8156   -2.8034    0.4711 C   0  0  0  0  0  0  0  0  0  0  0  0
   -3.4336   -2.2354    1.1641 H   0  0  0  0  0  0  0  0  0  0  0  0
   -3.2256   -2.7344   -0.5349 H   0  0  0  0  0  0  0  0  0  0  0  0
   -1.4126   -2.2444    0.4801 C   0  0  0  0  0  0  0  0  0  0  0  0
   -0.4686   -2.9534    0.8001 O   0  0  0  0  0  0  0  0  0  0  0  0
   -1.2736   -0.9704    0.1241 N   0  0  0  0  0  0  0  0  0  0  0  0
   -2.0996   -0.4354   -0.1019 H   0  0  0  0  0  0  0  0  0  0  0  0
   -0.0016   -0.2394    0.1271 C   0  0  1  0  0  0  0  0  0  0  0  0
    0.6995   -0.7619   -0.5275 H   0  0  0  0  0  0  0  0  0  0  0  0
   -0.2283    1.1832   -0.4215 C   0  0  0  0  0  0  0  0  0  0  0  0
   -1.0684    1.6436    0.0998 H   0  0  0  0  0  0  0  0  0  0  0  0
    0.6562    1.7935   -0.2361 H   0  0  0  0  0  0  0  0  0  0  0  0
   -0.5562    1.2141   -1.9113 C   0  0  0  0  0  0  0  0  0  0  0  0
   -0.1809    0.3958   -2.7406 O   0  0  0  0  0  0  0  0  0  0  0  0
   -1.3195    2.2525   -2.2998 O   0  0  0  0  0  0  0  0  0  0  0  0
   -1.4615    2.1366   -3.2399 H   0  0  0  0  0  0  0  0  0  0  0  0
    0.5920   -0.2154    1.5497 C   0  0  0  0  0  0  0  0  0  0  0  0
    1.3441   -1.1184    1.9138 O   0  0  0  0  0  0  0  0  0  0  0  0
    0.2549    0.8001    2.3527 N   0  0  0  0  0  0  0  0  0  0  0  0
   -0.4203    1.4703    1.9995 H   0  0  0  0  0  0  0  0  0  0  0  0
    0.7389    0.9657    3.7216 C   0  0  0  0  0  0  0  0  0  0  0  0
    1.8291    0.9021    3.7377 H   0  0  0  0  0  0  0  0  0  0  0  0
    0.4293    1.9351    4.1141 H   0  0  0  0  0  0  0  0  0  0  0  0
    0.3337    0.1739    4.3540 H   0  0  0  0  0  0  0  0  0  0  0  0
  5  6  2  0  0  0  0
  5  7  1  0  0  0  0
  2  3  1  0  0  0  0
  2  4  1  0  0  0  0
  2  5  1  0  0  0  0
  1  2  1  0  0  0  0
 18 19  2  0  0  0  0
 18 20  1  0  0  0  0
 16 17  1  0  0  0  0
 14 15  2  0  0  0  0
 14 16  1  0  0  0  0
 11 12  1  0  0  0  0
 11 13  1  0  0  0  0
 11 14  1  0  0  0  0
  9 10  1  0  0  0  0
  9 11  1  0  0  0  0
  9 18  1  0  0  0  0
  7  8  1  0  0  0  0
  7  9  1  0  0  0  0
 22 23  1  0  0  0  0
 22 24  1  0  0  0  0
 22 25  1  0  0  0  0
 20 21  1  0  0  0  0
 20 22  1  0  0  0  0
M  END
$$$$
default_name
  -OEChem-01062215323D

 25 24  0     1  0  0  0  0  0999 V2000
   -2.7826   -3.8464    0.7821 H   0  0  0  0  0  0  0  0  0  0  0  0
   -2.8156   -2.8034    0.4711 C   0  0  0  0  0  0  0  0  0  0  0  0
   -3.4336   -2.2354    1.1641 H   0  0  0  0  0  0  0  0  0  0  0  0
   -3.2256   -2.7344   -0.5349 H   0  0  0  0  0  0  0  0  0  0  0  0
   -1.4126   -2.2444    0.4801 C   0  0  0  0  0  0  0  0  0  0  0  0
   -0.4686   -2.9534    0.8001 O   0  0  0  0  0  0  0  0  0  0  0  0
   -1.2736   -0.9704    0.1241 N   0  0  0  0  0  0  0  0  0  0  0  0
   -2.0996   -0.4354   -0.1019 H   0  0  0  0  0  0  0  0  0  0  0  0
   -0.0016   -0.2394    0.1271 C   0  0  1  0  0  0  0  0  0  0  0  0
    0.6995   -0.7619   -0.5275 H   0  0  0  0  0  0  0  0  0  0  0  0
   -0.2283    1.1832   -0.4215 C   0  0  0  0  0  0  0  0  0  0  0  0
   -1.0684    1.6436    0.0998 H   0  0  0  0  0  0  0  0  0  0  0  0
    0.6562    1.7935   -0.2361 H   0  0  0  0  0  0  0  0  0  0  0  0
   -0.5562    1.2141   -1.9113 C   0  0  0  0  0  0  0  0  0  0  0  0
   -0.1809    0.3958   -2.7406 O   0  0  0  0  0  0  0  0  0  0  0  0
   -1.3195    2.2525   -2.2998 O   0  0  0  0  0  0  0  0  0  0  0  0
   -1.4615    2.1366   -3.2399 H   0  0  0  0  0  0  0  0  0  0  0  0
    0.5920   -0.2154    1.5497 C   0  0  0  0  0  0  0  0  0  0  0  0
    1.5436   -0.9440    1.8276 O   0  0  0  0  0  0  0  0  0  0  0  0
    0.0353    0.6053    2.4476 N   0  0  0  0  0  0  0  0  0  0  0  0
   -0.7859    1.1263    2.1579 H   0  0  0  0  0  0  0  0  0  0  0  0
    0.4878    0.7452    3.8300 C   0  0  0  0  0  0  0  0  0  0  0  0
    1.5618    0.9427    3.8486 H   0  0  0  0  0  0  0  0  0  0  0  0
   -0.0377    1.5687    4.3152 H   0  0  0  0  0  0  0  0  0  0  0  0
    0.2936   -0.1792    4.3768 H   0  0  0  0  0  0  0  0  0  0  0  0
  5  6  2  0  0  0  0
  5  7  1  0  0  0  0
  2  3  1  0  0  0  0
  2  4  1  0  0  0  0
  2  5  1  0  0  0  0
  1  2  1  0  0  0  0
 18 19  2  0  0  0  0
 18 20  1  0  0  0  0
 16 17  1  0  0  0  0
 14 15  2  0  0  0  0
 14 16  1  0  0  0  0
 11 12  1  0  0  0  0
 11 13  1  0  0  0  0
 11 14  1  0  0  0  0
  9 10  1  0  0  0  0
  9 11  1  0  0  0  0
  9 18  1  0  0  0  0
  7  8  1  0  0  0  0
  7  9  1  0  0  0  0
 22 23  1  0  0  0  0
 22 24  1  0  0  0  0
 22 25  1  0  0  0  0
 20 21  1  0  0  0  0
 20 22  1  0  0  0  0
M  END
$$$$
default_name
  -OEChem-01062215323D

 25 24  0     1  0  0  0  0  0999 V2000
   -2.7826   -3.8464    0.7821 H   0  0  0  0  0  0  0  0  0  0  0  0
   -2.8156   -2.8034    0.4711 C   0  0  0  0  0  0  0  0  0  0  0  0
   -3.4336   -2.2354    1.1641 H   0  0  0  0  0  0  0  0  0  0  0  0
   -3.2256   -2.7344   -0.5349 H   0  0  0  0  0  0  0  0  0  0  0  0
   -1.4126   -2.2444    0.4801 C   0  0  0  0  0  0  0  0  0  0  0  0
   -0.4686   -2.9534    0.8001 O   0  0  0  0  0  0  0  0  0  0  0  0
   -1.2736   -0.9704    0.1241 N   0  0  0  0  0  0  0  0  0  0  0  0
   -2.0996   -0.4354   -0.1019 H   0  0  0  0  0  0  0  0  0  0  0  0
   -0.0016   -0.2394    0.1271 C   0  0  1  0  0  0  0  0  0  0  0  0
    0.6995   -0.7619   -0.5275 H   0  0  0  0  0  0  0  0  0  0  0  0
   -0.2283    1.1832   -0.4215 C   0  0  0  0  0  0  0  0  0  0  0  0
   -1.0684    1.6436    0.0998 H   0  0  0  0  0  0  0  0  0  0  0  0
    0.6562    1.7935   -0.2361 H   0  0  0  0  0  0  0  0  0  0  0  0
   -0.5562    1.2141   -1.9113 C   0  0  0  0  0  0  0  0  0  0  0  0
   -0.1809    0.3958   -2.7406 O   0  0  0  0  0  0  0  0  0  0  0  0
   -1.3195    2.2525   -2.2998 O   0  0  0  0  0  0  0  0  0  0  0  0
   -1.4615    2.1366   -3.2399 H   0  0  0  0  0  0  0  0  0  0  0  0
    0.5920   -0.2154    1.5497 C   0  0  0  0  0  0  0  0  0  0  0  0
    1.6943   -0.7193    1.7609 O   0  0  0  0  0  0  0  0  0  0  0  0
   -0.1298    0.3552    2.5207 N   0  0  0  0  0  0  0  0  0  0  0  0
   -1.0563    0.6909    2.2780 H   0  0  0  0  0  0  0  0  0  0  0  0
    0.2984    0.4614    3.9139 C   0  0  0  0  0  0  0  0  0  0  0  0
    1.2944    0.9071    3.9608 H   0  0  0  0  0  0  0  0  0  0  0  0
   -0.4005    1.0831    4.4748 H   0  0  0  0  0  0  0  0  0  0  0  0
    0.3392   -0.5322    4.3637 H   0  0  0  0  0  0  0  0  0  0  0  0
  5  6  2  0  0  0  0
  5  7  1  0  0  0  0
  2  3  1  0  0  0  0
  2  4  1  0  0  0  0
  2  5  1  0  0  0  0
  1  2  1  0  0  0  0
 18 19  2  0  0  0  0
 18 20  1  0  0  0  0
 16 17  1  0  0  0  0
 14 15  2  0  0  0  0
 14 16  1  0  0  0  0
 11 12  1  0  0  0  0
 11 13  1  0  0  0  0
 11 14  1  0  0  0  0
  9 10  1  0  0  0  0
  9 11  1  0  0  0  0
  9 18  1  0  0  0  0
  7  8  1  0  0  0  0
  7  9  1  0  0  0  0
 22 23  1  0  0  0  0
 22 24  1  0  0  0  0
 22 25  1  0  0  0  0
 20 21  1  0  0  0  0
 20 22  1  0  0  0  0
M  END
$$$$
default_name
  -OEChem-01062215323D

 25 24  0     1  0  0  0  0  0999 V2000
   -2.7826   -3.8464    0.7821 H   0  0  0  0  0  0  0  0  0  0  0  0
   -2.8156   -2.8034    0.4711 C   0  0  0  0  0  0  0  0  0  0  0  0
   -3.4336   -2.2354    1.1641 H   0  0  0  0  0  0  0  0  0  0  0  0
   -3.2256   -2.7344   -0.5349 H   0  0  0  0  0  0  0  0  0  0  0  0
   -1.4126   -2.2444    0.4801 C   0  0  0  0  0  0  0  0  0  0  0  0
   -0.4686   -2.9534    0.8001 O   0  0  0  0  0  0  0  0  0  0  0  0
   -1.2736   -0.9704    0.1241 N   0  0  0  0  0  0  0  0  0  0  0  0
   -2.0996   -0.4354   -0.1019 H   0  0  0  0  0  0  0  0  0  0  0  0
   -0.0016   -0.2394    0.1271 C   0  0  1  0  0  0  0  0  0  0  0  0
    0.6995   -0.7619   -0.5275 H   0  0  0  0  0  0  0  0  0  0  0  0
   -0.2283    1.1832   -0.4215 C   0  0  0  0  0  0  0  0  0  0  0  0
   -1.0684    1.6436    0.0998 H   0  0  0  0  0  0  0  0  0  0  0  0
    0.6562    1.7935   -0.2361 H   0  0  0  0  0  0  0  0  0  0  0  0
   -0.5562    1.2141   -1.9113 C   0  0  0  0  0  0  0  0  0  0  0  0
   -0.1809    0.3958   -2.7406 O   0  0  0  0  0  0  0  0  0  0  0  0
   -1.3195    2.2525   -2.2998 O   0  0  0  0  0  0  0  0  0  0  0  0
   -1.4615    2.1366   -3.2399 H   0  0  0  0  0  0  0  0  0  0  0  0
    0.5920   -0.2154    1.5497 C   0  0  0  0  0  0  0  0  0  0  0  0
    1.7860   -0.4596    1.7183 O   0  0  0  0  0  0  0  0  0  0  0  0
   -0.2294    0.0669    2.5672 N   0  0  0  0  0  0  0  0  0  0  0  0
   -1.2130    0.1938    2.3518 H   0  0  0  0  0  0  0  0  0  0  0  0
    0.1836    0.1337    3.9673 C   0  0  0  0  0  0  0  0  0  0  0  0
    1.0451    0.7976    4.0666 H   0  0  0  0  0  0  0  0  0  0  0  0
   -0.6344    0.5115    4.5820 H   0  0  0  0  0  0  0  0  0  0  0  0
    0.4676   -0.8609    4.3157 H   0  0  0  0  0  0  0  0  0  0  0  0
  5  6  2  0  0  0  0
  5  7  1  0  0  0  0
  2  3  1  0  0  0  0
  2  4  1  0  0  0  0
  2  5  1  0  0  0  0
  1  2  1  0  0  0  0
 18 19  2  0  0  0  0
 18 20  1  0  0  0  0
 16 17  1  0  0  0  0
 14 15  2  0  0  0  0
 14 16  1  0  0  0  0
 11 12  1  0  0  0  0
 11 13  1  0  0  0  0
 11 14  1  0  0  0  0
  9 10  1  0  0  0  0
  9 11  1  0  0  0  0
  9 18  1  0  0  0  0
  7  8  1  0  0  0  0
  7  9  1  0  0  0  0
 22 23  1  0  0  0  0
 22 24  1  0  0  0  0
 22 25  1  0  0  0  0
 20 21  1  0  0  0  0
 20 22  1  0  0  0  0
M  END
$$$$
default_name
  -OEChem-01062215323D

 25 24  0     1  0  0  0  0  0999 V2000
   -2.7826   -3.8464    0.7821 H   0  0  0  0  0  0  0  0  0  0  0  0
   -2.8156   -2.8034    0.4711 C   0  0  0  0  0  0  0  0  0  0  0  0
   -3.4336   -2.2354    1.1641 H   0  0  0  0  0  0  0  0  0  0  0  0
   -3.2256   -2.7344   -0.5349 H   0  0  0  0  0  0  0  0  0  0  0  0
   -1.4126   -2.2444    0.4801 C   0  0  0  0  0  0  0  0  0  0  0  0
   -0.4686   -2.9534    0.8001 O   0  0  0  0  0  0  0  0  0  0  0  0
   -1.2736   -0.9704    0.1241 N   0  0  0  0  0  0  0  0  0  0  0  0
   -2.0996   -0.4354   -0.1019 H   0  0  0  0  0  0  0  0  0  0  0  0
   -0.0016   -0.2394    0.1271 C   0  0  1  0  0  0  0  0  0  0  0  0
    0.6995   -0.7619   -0.5275 H   0  0  0  0  0  0  0  0  0  0  0  0
   -0.2283    1.1832   -0.4215 C   0  0  0  0  0  0  0  0  0  0  0  0
   -1.0684    1.6436    0.0998 H   0  0  0  0  0  0  0  0  0  0  0  0
    0.6562    1.7935   -0.2361 H   0  0  0  0  0  0  0  0  0  0  0  0
   -0.5562    1.2141   -1.9113 C   0  0  0  0  0  0  0  0  0  0  0  0
   -0.1809    0.3958   -2.7406 O   0  0  0  0  0  0  0  0  0  0  0  0
   -1.3195    2.2525   -2.2998 O   0  0  0  0  0  0  0  0  0  0  0  0
   -1.4615    2.1366   -3.2399 H   0  0  0  0  0  0  0  0  0  0  0  0
    0.5920   -0.2154    1.5497 C   0  0  0  0  0  0  0  0  0  0  0  0
    1.8123   -0.1826    1.7026 O   0  0  0  0  0  0  0  0  0  0  0  0
   -0.2565   -0.2399    2.5836 N   0  0  0  0  0  0  0  0  0  0  0  0
   -1.2453   -0.3311    2.3742 H   0  0  0  0  0  0  0  0  0  0  0  0
    0.1511   -0.2156    3.9868 C   0  0  0  0  0  0  0  0  0  0  0  0
    0.8308    0.6218    4.1590 H   0  0  0  0  0  0  0  0  0  0  0  0
   -0.7233   -0.1071    4.6296 H   0  0  0  0  0  0  0  0  0  0  0  0
    0.6698   -1.1430    4.2360 H   0  0  0  0  0  0  0  0  0  0  0  0
  5  6  2  0  0  0  0
  5  7  1  0  0  0  0
  2  3  1  0  0  0  0
  2  4  1  0  0  0  0
  2  5  1  0  0  0  0
  1  2  1  0  0  0  0
 18 19  2  0  0  0  0
 18 20  1  0  0  0  0
 16 17  1  0  0  0  0
 14 15  2  0  0  0  0
 14 16  1  0  0  0  0
 11 12  1  0  0  0  0
 11 13  1  0  0  0  0
 11 14  1  0  0  0  0
  9 10  1  0  0  0  0
  9 11  1  0  0  0  0
  9 18  1  0  0  0  0
  7  8  1  0  0  0  0
  7  9  1  0  0  0  0
 22 23  1  0  0  0  0
 22 24  1  0  0  0  0
 22 25  1  0  0  0  0
 20 21  1  0  0  0  0
 20 22  1  0  0  0  0
M  END
$$$$
default_name
  -OEChem-01062215323D

 25 24  0     1  0  0  0  0  0999 V2000
   -2.7826   -3.8464    0.7821 H   0  0  0  0  0  0  0  0  0  0  0  0
   -2.8156   -2.8034    0.4711 C   0  0  0  0  0  0  0  0  0  0  0  0
   -3.4336   -2.2354    1.1641 H   0  0  0  0  0  0  0  0  0  0  0  0
   -3.2256   -2.7344   -0.5349 H   0  0  0  0  0  0  0  0  0  0  0  0
   -1.4126   -2.2444    0.4801 C   0  0  0  0  0  0  0  0  0  0  0  0
   -0.4686   -2.9534    0.8001 O   0  0  0  0  0  0  0  0  0  0  0  0
   -1.2736   -0.9704    0.1241 N   0  0  0  0  0  0  0  0  0  0  0  0
   -2.0996   -0.4354   -0.1019 H   0  0  0  0  0  0  0  0  0  0  0  0
   -0.0016   -0.2394    0.1271 C   0  0  1  0  0  0  0  0  0  0  0  0
    0.6995   -0.7619   -0.5275 H   0  0  0  0  0  0  0  0  0  0  0  0
   -0.2283    1.1832   -0.4215 C   0  0  0  0  0  0  0  0  0  0  0  0
   -1.0684    1.6436    0.0998 H   0  0  0  0  0  0  0  0  0  0  0  0
    0.6562    1.7935   -0.2361 H   0  0  0  0  0  0  0  0  0  0  0  0
   -0.5562    1.2141   -1.9113 C   0  0  0  0  0  0  0  0  0  0  0  0
   -0.1809    0.3958   -2.7406 O   0  0  0  0  0  0  0  0  0  0  0  0
   -1.3195    2.2525   -2.2998 O   0  0  0  0  0  0  0  0  0  0  0  0
   -1.4615    2.1366   -3.2399 H   0  0  0  0  0  0  0  0  0  0  0  0
    0.5920   -0.2154    1.5497 C   0  0  0  0  0  0  0  0  0  0  0  0
    1.7715    0.0928    1.7150 O   0  0  0  0  0  0  0  0  0  0  0  0
   -0.2093   -0.5445    2.5691 N   0  0  0  0  0  0  0  0  0  0  0  0
   -1.1510   -0.8481    2.3436 H   0  0  0  0  0  0  0  0  0  0  0  0
    0.2033   -0.5627    3.9708 C   0  0  0  0  0  0  0  0  0  0  0  0
    0.6662    0.3916    4.2316 H   0  0  0  0  0  0  0  0  0  0  0  0
   -0.6613   -0.7307    4.6142 H   0  0  0  0  0  0  0  0  0  0  0  0
    0.9323   -1.3592    4.1301 H   0  0  0  0  0  0  0  0  0  0  0  0
  5  6  2  0  0  0  0
  5  7  1  0  0  0  0
  2  3  1  0  0  0  0
  2  4  1  0  0  0  0
  2  5  1  0  0  0  0
  1  2  1  0  0  0  0
 18 19  2  0  0  0  0
 18 20  1  0  0  0  0
 16 17  1  0  0  0  0
 14 15  2  0  0  0  0
 14 16  1  0  0  0  0
 11 12  1  0  0  0  0
 11 13  1  0  0  0  0
 11 14  1  0  0  0  0
  9 10  1  0  0  0  0
  9 11  1  0  0  0  0
  9 18  1  0  0  0  0
  7  8  1  0  0  0  0
  7  9  1  0  0  0  0
 22 23  1  0  0  0  0
 22 24  1  0  0  0  0
 22 25  1  0  0  0  0
 20 21  1  0  0  0  0
 20 22  1  0  0  0  0
M  END
$$$$
default_name
  -OEChem-01062215323D

 25 24  0     1  0  0  0  0  0999 V2000
   -2.7826   -3.8464    0.7821 H   0  0  0  0  0  0  0  0  0  0  0  0
   -2.8156   -2.8034    0.4711 C   0  0  0  0  0  0  0  0  0  0  0  0
   -3.4336   -2.2354    1.1641 H   0  0  0  0  0  0  0  0  0  0  0  0
   -3.2256   -2.7344   -0.5349 H   0  0  0  0  0  0  0  0  0  0  0  0
   -1.4126   -2.2444    0.4801 C   0  0  0  0  0  0  0  0  0  0  0  0
   -0.4686   -2.9534    0.8001 O   0  0  0  0  0  0  0  0  0  0  0  0
   -1.2736   -0.9704    0.1241 N   0  0  0  0  0  0  0  0  0  0  0  0
   -2.0996   -0.4354   -0.1019 H   0  0  0  0  0  0  0  0  0  0  0  0
   -0.0016   -0.2394    0.1271 C   0  0  1  0  0  0  0  0  0  0  0  0
    0.6995   -0.7619   -0.5275 H   0  0  0  0  0  0  0  0  0  0  0  0
   -0.2283    1.1832   -0.4215 C   0  0  0  0  0  0  0  0  0  0  0  0
   -1.0684    1.6436    0.0998 H   0  0  0  0  0  0  0  0  0  0  0  0
    0.6562    1.7935   -0.2361 H   0  0  0  0  0  0  0  0  0  0  0  0
   -0.5562    1.2141   -1.9113 C   0  0  0  0  0  0  0  0  0  0  0  0
   -0.1809    0.3958   -2.7406 O   0  0  0  0  0  0  0  0  0  0  0  0
   -1.3195    2.2525   -2.2998 O   0  0  0  0  0  0  0  0  0  0  0  0
   -1.4615    2.1366   -3.2399 H   0  0  0  0  0  0  0  0  0  0  0  0
    0.5920   -0.2154    1.5497 C   0  0  0  0  0  0  0  0  0  0  0  0
    1.6664    0.3478    1.7546 O   0  0  0  0  0  0  0  0  0  0  0  0
   -0.0911   -0.8259    2.5245 N   0  0  0  0  0  0  0  0  0  0  0  0
   -0.9367   -1.3220    2.2621 H   0  0  0  0  0  0  0  0  0  0  0  0
    0.3365   -0.8839    3.9207 C   0  0  0  0  0  0  0  0  0  0  0  0
    0.5625    0.1227    4.2794 H   0  0  0  0  0  0  0  0  0  0  0  0
   -0.4525   -1.3166    4.5370 H   0  0  0  0  0  0  0  0  0  0  0  0
    1.2370   -1.4948    4.0053 H   0  0  0  0  0  0  0  0  0  0  0  0
  5  6  2  0  0  0  0
  5  7  1  0  0  0  0
  2  3  1  0  0  0  0
  2  4  1  0  0  0  0
  2  5  1  0  0  0  0
  1  2  1  0  0  0  0
 18 19  2  0  0  0  0
 18 20  1  0  0  0  0
 16 17  1  0  0  0  0
 14 15  2  0  0  0  0
 14 16  1  0  0  0  0
 11 12  1  0  0  0  0
 11 13  1  0  0  0  0
 11 14  1  0  0  0  0
  9 10  1  0  0  0  0
  9 11  1  0  0  0  0
  9 18  1  0  0  0  0
  7  8  1  0  0  0  0
  7  9  1  0  0  0  0
 22 23  1  0  0  0  0
 22 24  1  0  0  0  0
 22 25  1  0  0  0  0
 20 21  1  0  0  0  0
 20 22  1  0  0  0  0
M  END
$$$$
default_name
  -OEChem-01062215323D

 25 24  0     1  0  0  0  0  0999 V2000
   -2.7826   -3.8464    0.7821 H   0  0  0  0  0  0  0  0  0  0  0  0
   -2.8156   -2.8034    0.4711 C   0  0  0  0  0  0  0  0  0  0  0  0
   -3.4336   -2.2354    1.1641 H   0  0  0  0  0  0  0  0  0  0  0  0
   -3.2256   -2.7344   -0.5349 H   0  0  0  0  0  0  0  0  0  0  0  0
   -1.4126   -2.2444    0.4801 C   0  0  0  0  0  0  0  0  0  0  0  0
   -0.4686   -2.9534    0.8001 O   0  0  0  0  0  0  0  0  0  0  0  0
   -1.2736   -0.9704    0.1241 N   0  0  0  0  0  0  0  0  0  0  0  0
   -2.0996   -0.4354   -0.1019 H   0  0  0  0  0  0  0  0  0  0  0  0
   -0.0016   -0.2394    0.1271 C   0  0  1  0  0  0  0  0  0  0  0  0
    0.6995   -0.7619   -0.5275 H   0  0  0  0  0  0  0  0  0  0  0  0
   -0.2283    1.1832   -0.4215 C   0  0  0  0  0  0  0  0  0  0  0  0
   -1.0684    1.6436    0.0998 H   0  0  0  0  0  0  0  0  0  0  0  0
    0.6562    1.7935   -0.2361 H   0  0  0  0  0  0  0  0  0  0  0  0
   -0.5562    1.2141   -1.9113 C   0  0  0  0  0  0  0  0  0  0  0  0
   -0.1809    0.3958   -2.7406 O   0  0  0  0  0  0  0  0  0  0  0  0
   -1.3195    2.2525   -2.2998 O   0  0  0  0  0  0  0  0  0  0  0  0
   -1.4615    2.1366   -3.2399 H   0  0  0  0  0  0  0  0  0  0  0  0
    0.5920   -0.2154    1.5497 C   0  0  0  0  0  0  0  0  0  0  0  0
    1.5041    0.5652    1.8186 O   0  0  0  0  0  0  0  0  0  0  0  0
    0.0901   -1.0651    2.4529 N   0  0  0  0  0  0  0  0  0  0  0  0
   -0.6168   -1.7203    2.1353 H   0  0  0  0  0  0  0  0  0  0  0  0
    0.5417   -1.1573    3.8397 C   0  0  0  0  0  0  0  0  0  0  0  0
    0.5268   -0.1666    4.2992 H   0  0  0  0  0  0  0  0  0  0  0  0
   -0.1112   -1.8250    4.4031 H   0  0  0  0  0  0  0  0  0  0  0  0
    1.5632   -1.5406    3.8699 H   0  0  0  0  0  0  0  0  0  0  0  0
  5  6  2  0  0  0  0
  5  7  1  0  0  0  0
  2  3  1  0  0  0  0
  2  4  1  0  0  0  0
  2  5  1  0  0  0  0
  1  2  1  0  0  0  0
 18 19  2  0  0  0  0
 18 20  1  0  0  0  0
 16 17  1  0  0  0  0
 14 15  2  0  0  0  0
 14 16  1  0  0  0  0
 11 12  1  0  0  0  0
 11 13  1  0  0  0  0
 11 14  1  0  0  0  0
  9 10  1  0  0  0  0
  9 11  1  0  0  0  0
  9 18  1  0  0  0  0
  7  8  1  0  0  0  0
  7  9  1  0  0  0  0
 22 23  1  0  0  0  0
 22 24  1  0  0  0  0
 22 25  1  0  0  0  0
 20 21  1  0  0  0  0
 20 22  1  0  0  0  0
M  END
$$$$
default_name
  -OEChem-01062215323D

 25 24  0     1  0  0  0  0  0999 V2000
   -2.7826   -3.8464    0.7821 H   0  0  0  0  0  0  0  0  0  0  0  0
   -2.8156   -2.8034    0.4711 C   0  0  0  0  0  0  0  0  0  0  0  0
   -3.4336   -2.2354    1.1641 H   0  0  0  0  0  0  0  0  0  0  0  0
   -3.2256   -2.7344   -0.5349 H   0  0  0  0  0  0  0  0  0  0  0  0
   -1.4126   -2.2444    0.4801 C   0  0  0  0  0  0  0  0  0  0  0  0
   -0.4686   -2.9534    0.8001 O   0  0  0  0  0  0  0  0  0  0  0  0
   -1.2736   -0.9704    0.1241 N   0  0  0  0  0  0  0  0  0  0  0  0
   -2.0996   -0.4354   -0.1019 H   0  0  0  0  0  0  0  0  0  0  0  0
   -0.0016   -0.2394    0.1271 C   0  0  1  0  0  0  0  0  0  0  0  0
    0.6995   -0.7619   -0.5275 H   0  0  0  0  0  0  0  0  0  0  0  0
   -0.2283    1.1832   -0.4215 C   0  0  0  0  0  0  0  0  0  0  0  0
   -1.0684    1.6436    0.0998 H   0  0  0  0  0  0  0  0  0  0  0  0
    0.6562    1.7935   -0.2361 H   0  0  0  0  0  0  0  0  0  0  0  0
   -0.5562    1.2141   -1.9113 C   0  0  0  0  0  0  0  0  0  0  0  0
   -0.1809    0.3958   -2.7406 O   0  0  0  0  0  0  0  0  0  0  0  0
   -1.3195    2.2525   -2.2998 O   0  0  0  0  0  0  0  0  0  0  0  0
   -1.4615    2.1366   -3.2399 H   0  0  0  0  0  0  0  0  0  0  0  0
    0.5920   -0.2154    1.5497 C   0  0  0  0  0  0  0  0  0  0  0  0
    1.2958    0.7299    1.9028 O   0  0  0  0  0  0  0  0  0  0  0  0
    0.3220   -1.2457    2.3592 N   0  0  0  0  0  0  0  0  0  0  0  0
   -0.2131   -2.0161    1.9719 H   0  0  0  0  0  0  0  0  0  0  0  0
    0.8049   -1.3644    3.7333 C   0  0  0  0  0  0  0  0  0  0  0  0
    0.5614   -0.4566    4.2897 H   0  0  0  0  0  0  0  0  0  0  0  0
    0.3393   -2.2213    4.2218 H   0  0  0  0  0  0  0  0  0  0  0  0
    1.8886   -1.4934    3.7333 H   0  0  0  0  0  0  0  0  0  0  0  0
  5  6  2  0  0  0  0
  5  7  1  0  0  0  0
  2  3  1  0  0  0  0
  2  4  1  0  0  0  0
  2  5  1  0  0  0  0
  1  2  1  0  0  0  0
 18 19  2  0  0  0  0
 18 20  1  0  0  0  0
 16 17  1  0  0  0  0
 14 15  2  0  0  0  0
 14 16  1  0  0  0  0
 11 12  1  0  0  0  0
 11 13  1  0  0  0  0
 11 14  1  0  0  0  0
  9 10  1  0  0  0  0
  9 11  1  0  0  0  0
  9 18  1  0  0  0  0
  7  8  1  0  0  0  0
  7  9  1  0  0  0  0
 22 23  1  0  0  0  0
 22 24  1  0  0  0  0
 22 25  1  0  0  0  0
 20 21  1  0  0  0  0
 20 22  1  0  0  0  0
M  END
$$$$
default_name
  -OEChem-01062215323D

 25 24  0     1  0  0  0  0  0999 V2000
   -2.7826   -3.8464    0.7821 H   0  0  0  0  0  0  0  0  0  0  0  0
   -2.8156   -2.8034    0.4711 C   0  0  0  0  0  0  0  0  0  0  0  0
   -3.4336   -2.2354    1.1641 H   0  0  0  0  0  0  0  0  0  0  0  0
   -3.2256   -2.7344   -0.5349 H   0  0  0  0  0  0  0  0  0  0  0  0
   -1.4126   -2.2444    0.4801 C   0  0  0  0  0  0  0  0  0  0  0  0
   -0.4686   -2.9534    0.8001 O   0  0  0  0  0  0  0  0  0  0  0  0
   -1.2736   -0.9704    0.1241 N   0  0  0  0  0  0  0  0  0  0  0  0
   -2.0996   -0.4354   -0.1019 H   0  0  0  0  0  0  0  0  0  0  0  0
   -0.0016   -0.2394    0.1271 C   0  0  1  0  0  0  0  0  0  0  0  0
    0.6995   -0.7619   -0.5275 H   0  0  0  0  0  0  0  0  0  0  0  0
   -0.2283    1.1832   -0.4215 C   0  0  0  0  0  0  0  0  0  0  0  0
   -1.0684    1.6436    0.0998 H   0  0  0  0  0  0  0  0  0  0  0  0
    0.6562    1.7935   -0.2361 H   0  0  0  0  0  0  0  0  0  0  0  0
   -0.5562    1.2141   -1.9113 C   0  0  0  0  0  0  0  0  0  0  0  0
   -0.1809    0.3958   -2.7406 O   0  0  0  0  0  0  0  0  0  0  0  0
   -1.3195    2.2525   -2.2998 O   0  0  0  0  0  0  0  0  0  0  0  0
   -1.4615    2.1366   -3.2399 H   0  0  0  0  0  0  0  0  0  0  0  0
    0.5920   -0.2154    1.5497 C   0  0  0  0  0  0  0  0  0  0  0  0
    1.0554    0.8309    2.0014 O   0  0  0  0  0  0  0  0  0  0  0  0
    0.5888   -1.3554    2.2497 N   0  0  0  0  0  0  0  0  0  0  0  0
    0.2467   -2.1891    1.7829 H   0  0  0  0  0  0  0  0  0  0  0  0
    1.1081   -1.4909    3.6089 C   0  0  0  0  0  0  0  0  0  0  0  0
    0.6640   -0.7274    4.2514 H   0  0  0  0  0  0  0  0  0  0  0  0
    0.8684   -2.4784    4.0054 H   0  0  0  0  0  0  0  0  0  0  0  0
    2.1912   -1.3565    3.6047 H   0  0  0  0  0  0  0  0  0  0  0  0
  5  6  2  0  0  0  0
  5  7  1  0  0  0  0
  2  3  1  0  0  0  0
  2  4  1  0  0  0  0
  2  5  1  0  0  0  0
  1  2  1  0  0  0  0
 18 19  2  0  0  0  0
 18 20  1  0  0  0  0
 16 17  1  0  0  0  0
 14 15  2  0  0  0  0
 14 16  1  0  0  0  0
 11 12  1  0  0  0  0
 11 13  1  0  0  0  0
 11 14  1  0  0  0  0
  9 10  1  0  0  0  0
  9 11  1  0  0  0  0
  9 18  1  0  0  0  0
  7  8  1  0  0  0  0
  7  9  1  0  0  0  0
 22 23  1  0  0  0  0
 22 24  1  0  0  0  0
 22 25  1  0  0  0  0
 20 21  1  0  0  0  0
 20 22  1  0  0  0  0
M  END
$$$$
default_name
  -OEChem-01062215323D

 25 24  0     1  0  0  0  0  0999 V2000
   -2.7826   -3.8464    0.7821 H   0  0  0  0  0  0  0  0  0  0  0  0
   -2.8156   -2.8034    0.4711 C   0  0  0  0  0  0  0  0  0  0  0  0
   -3.4336   -2.2354    1.1641 H   0  0  0  0  0  0  0  0  0  0  0  0
   -3.2256   -2.7344   -0.5349 H   0  0  0  0  0  0  0  0  0  0  0  0
   -1.4126   -2.2444    0.4801 C   0  0  0  0  0  0  0  0  0  0  0  0
   -0.4686   -2.9534    0.8001 O   0  0  0  0  0  0  0  0  0  0  0  0
   -1.2736   -0.9704    0.1241 N   0  0  0  0  0  0  0  0  0  0  0  0
   -2.0996   -0.4354   -0.1019 H   0  0  0  0  0  0  0  0  0  0  0  0
   -0.0016   -0.2394    0.1271 C   0  0  1  0  0  0  0  0  0  0  0  0
    0.6995   -0.7619   -0.5275 H   0  0  0  0  0  0  0  0  0  0  0  0
   -0.2283    1.1832   -0.4215 C   0  0  0  0  0  0  0  0  0  0  0  0
   -1.0684    1.6436    0.0998 H   0  0  0  0  0  0  0  0  0  0  0  0
    0.6562    1.7935   -0.2361 H   0  0  0  0  0  0  0  0  0  0  0  0
   -0.5562    1.2141   -1.9113 C   0  0  0  0  0  0  0  0  0  0  0  0
   -0.1809    0.3958   -2.7406 O   0  0  0  0  0  0  0  0  0  0  0  0
   -1.3195    2.2525   -2.2998 O   0  0  0  0  0  0  0  0  0  0  0  0
   -1.4615    2.1366   -3.2399 H   0  0  0  0  0  0  0  0  0  0  0  0
    0.5920   -0.2154    1.5497 C   0  0  0  0  0  0  0  0  0  0  0  0
    0.7996    0.8612    2.1076 O   0  0  0  0  0  0  0  0  0  0  0  0
    0.8722   -1.3868    2.1320 N   0  0  0  0  0  0  0  0  0  0  0  0
    0.7315   -2.2275    1.5813 H   0  0  0  0  0  0  0  0  0  0  0  0
    1.4307   -1.5283    3.4749 C   0  0  0  0  0  0  0  0  0  0  0  0
    0.8277   -0.9607    4.1870 H   0  0  0  0  0  0  0  0  0  0  0  0
    1.4400   -2.5787    3.7685 H   0  0  0  0  0  0  0  0  0  0  0  0
    2.4503   -1.1392    3.4930 H   0  0  0  0  0  0  0  0  0  0  0  0
  5  6  2  0  0  0  0
  5  7  1  0  0  0  0
  2  3  1  0  0  0  0
  2  4  1  0  0  0  0
  2  5  1  0  0  0  0
  1  2  1  0  0  0  0
 18 19  2  0  0  0  0
 18 20  1  0  0  0  0
 16 17  1  0  0  0  0
 14 15  2  0  0  0  0
 14 16  1  0  0  0  0
 11 12  1  0  0  0  0
 11 13  1  0  0  0  0
 11 14  1  0  0  0  0
  9 10  1  0  0  0  0
  9 11  1  0  0  0  0
  9 18  1  0  0  0  0
  7  8  1  0  0  0  0
  7  9  1  0  0  0  0
 22 23  1  0  0  0  0
 22 24  1  0  0  0  0
 22 25  1  0  0  0  0
 20 21  1  0  0  0  0
 20 22  1  0  0  0  0
M  END
$$$$
default_name
  -OEChem-01062215323D

 25 24  0     1  0  0  0  0  0999 V2000
   -2.7826   -3.8464    0.7821 H   0  0  0  0  0  0  0  0  0  0  0  0
   -2.8156   -2.8034    0.4711 C   0  0  0  0  0  0  0  0  0  0  0  0
   -3.4336   -2.2354    1.1641 H   0  0  0  0  0  0  0  0  0  0  0  0
   -3.2256   -2.7344   -0.5349 H   0  0  0  0  0  0  0  0  0  0  0  0
   -1.4126   -2.2444    0.4801 C   0  0  0  0  0  0  0  0  0  0  0  0
   -0.4686   -2.9534    0.8001 O   0  0  0  0  0  0  0  0  0  0  0  0
   -1.2736   -0.9704    0.1241 N   0  0  0  0  0  0  0  0  0  0  0  0
   -2.0996   -0.4354   -0.1019 H   0  0  0  0  0  0  0  0  0  0  0  0
   -0.0016   -0.2394    0.1271 C   0  0  1  0  0  0  0  0  0  0  0  0
    0.6995   -0.7619   -0.5275 H   0  0  0  0  0  0  0  0  0  0  0  0
   -0.2283    1.1832   -0.4215 C   0  0  0  0  0  0  0  0  0  0  0  0
   -1.0684    1.6436    0.0998 H   0  0  0  0  0  0  0  0  0  0  0  0
    0.6562    1.7935   -0.2361 H   0  0  0  0  0  0  0  0  0  0  0  0
   -0.5562    1.2141   -1.9113 C   0  0  0  0  0  0  0  0  0  0  0  0
   -0.1809    0.3958   -2.7406 O   0  0  0  0  0  0  0  0  0  0  0  0
   -1.3195    2.2525   -2.2998 O   0  0  0  0  0  0  0  0  0  0  0  0
   -1.4615    2.1366   -3.2399 H   0  0  0  0  0  0  0  0  0  0  0  0
    0.5920   -0.2154    1.5497 C   0  0  0  0  0  0  0  0  0  0  0  0
    0.5457    0.8189    2.2143 O   0  0  0  0  0  0  0  0  0  0  0  0
    1.1530   -1.3377    2.0140 N   0  0  0  0  0  0  0  0  0  0  0  0
    1.2081   -2.1288    1.3807 H   0  0  0  0  0  0  0  0  0  0  0  0
    1.7507   -1.4740    3.3405 C   0  0  0  0  0  0  0  0  0  0  0  0
    1.0413   -1.1405    4.1010 H   0  0  0  0  0  0  0  0  0  0  0  0
    2.0152   -2.5156    3.5274 H   0  0  0  0  0  0  0  0  0  0  0  0
    2.6481   -0.8563    3.4056 H   0  0  0  0  0  0  0  0  0  0  0  0
  5  6  2  0  0  0  0
  5  7  1  0  0  0  0
  2  3  1  0  0  0  0
  2  4  1  0  0  0  0
  2  5  1  0  0  0  0
  1  2  1  0  0  0  0
 18 19  2  0  0  0  0
 18 20  1  0  0  0  0
 16 17  1  0  0  0  0
 14 15  2  0  0  0  0
 14 16  1  0  0  0  0
 11 12  1  0  0  0  0
 11 13  1  0  0  0  0
 11 14  1  0  0  0  0
  9 10  1  0  0  0  0
  9 11  1  0  0  0  0
  9 18  1  0  0  0  0
  7  8  1  0  0  0  0
  7  9  1  0  0  0  0
 22 23  1  0  0  0  0
 22 24  1  0  0  0  0
 22 25  1  0  0  0  0
 20 21  1  0  0  0  0
 20 22  1  0  0  0  0
M  END
$$$$
default_name
  -OEChem-01062215323D

 25 24  0     1  0  0  0  0  0999 V2000
   -2.7826   -3.8464    0.7821 H   0  0  0  0  0  0  0  0  0  0  0  0
   -2.8156   -2.8034    0.4711 C   0  0  0  0  0  0  0  0  0  0  0  0
   -3.4336   -2.2354    1.1641 H   0  0  0  0  0  0  0  0  0  0  0  0
   -3.2256   -2.7344   -0.5349 H   0  0  0  0  0  0  0  0  0  0  0  0
   -1.4126   -2.2444    0.4801 C   0  0  0  0  0  0  0  0  0  0  0  0
   -0.4686   -2.9534    0.8001 O   0  0  0  0  0  0  0  0  0  0  0  0
   -1.2736   -0.9704    0.1241 N   0  0  0  0  0  0  0  0  0  0  0  0
   -2.0996   -0.4354   -0.1019 H   0  0  0  0  0  0  0  0  0  0  0  0
   -0.0016   -0.2394    0.1271 C   0  0  1  0  0  0  0  0  0  0  0  0
    0.6995   -0.7619   -0.5275 H   0  0  0  0  0  0  0  0  0  0  0  0
   -0.2283    1.1832   -0.4215 C   0  0  0  0  0  0  0  0  0  0  0  0
   -1.0684    1.6436    0.0998 H   0  0  0  0  0  0  0  0  0  0  0  0
    0.6562    1.7935   -0.2361 H   0  0  0  0  0  0  0  0  0  0  0  0
   -0.5562    1.2141   -1.9113 C   0  0  0  0  0  0  0  0  0  0  0  0
   -0.1809    0.3958   -2.7406 O   0  0  0  0  0  0  0  0  0  0  0  0
   -1.3195    2.2525   -2.2998 O   0  0  0  0  0  0  0  0  0  0  0  0
   -1.4615    2.1366   -3.2399 H   0  0  0  0  0  0  0  0  0  0  0  0
    0.5920   -0.2154    1.5497 C   0  0  0  0  0  0  0  0  0  0  0  0
    0.3109    0.7066    2.3142 O   0  0  0  0  0  0  0  0  0  0  0  0
    1.4120   -1.2114    1.9038 N   0  0  0  0  0  0  0  0  0  0  0  0
    1.6440   -1.8996    1.1949 H   0  0  0  0  0  0  0  0  0  0  0  0
    2.0463   -1.3318    3.2147 C   0  0  0  0  0  0  0  0  0  0  0  0
    1.2902   -1.2546    3.9990 H   0  0  0  0  0  0  0  0  0  0  0  0
    2.5547   -2.2932    3.2986 H   0  0  0  0  0  0  0  0  0  0  0  0
    2.7713   -0.5270    3.3487 H   0  0  0  0  0  0  0  0  0  0  0  0
  5  6  2  0  0  0  0
  5  7  1  0  0  0  0
  2  3  1  0  0  0  0
  2  4  1  0  0  0  0
  2  5  1  0  0  0  0
  1  2  1  0  0  0  0
 18 19  2  0  0  0  0
 18 20  1  0  0  0  0
 16 17  1  0  0  0  0
 14 15  2  0  0  0  0
 14 16  1  0  0  0  0
 11 12  1  0  0  0  0
 11 13  1  0  0  0  0
 11 14  1  0  0  0  0
  9 10  1  0  0  0  0
  9 11  1  0  0  0  0
  9 18  1  0  0  0  0
  7  8  1  0  0  0  0
  7  9  1  0  0  0  0
 22 23  1  0  0  0  0
 22 24  1  0  0  0  0
 22 25  1  0  0  0  0
 20 21  1  0  0  0  0
 20 22  1  0  0  0  0
M  END
$$$$
default_name
  -OEChem-01062215323D

 25 24  0     1  0  0  0  0  0999 V2000
   -2.7826   -3.8464    0.7821 H   0  0  0  0  0  0  0  0  0  0  0  0
   -2.8156   -2.8034    0.4711 C   0  0  0  0  0  0  0  0  0  0  0  0
   -3.4336   -2.2354    1.1641 H   0  0  0  0  0  0  0  0  0  0  0  0
   -3.2256   -2.7344   -0.5349 H   0  0  0  0  0  0  0  0  0  0  0  0
   -1.4126   -2.2444    0.4801 C   0  0  0  0  0  0  0  0  0  0  0  0
   -0.4686   -2.9534    0.8001 O   0  0  0  0  0  0  0  0  0  0  0  0
   -1.2736   -0.9704    0.1241 N   0  0  0  0  0  0  0  0  0  0  0  0
   -2.0996   -0.4354   -0.1019 H   0  0  0  0  0  0  0  0  0  0  0  0
   -0.0016   -0.2394    0.1271 C   0  0  1  0  0  0  0  0  0  0  0  0
    0.6995   -0.7619   -0.5275 H   0  0  0  0  0  0  0  0  0  0  0  0
   -0.2283    1.1832   -0.4215 C   0  0  0  0  0  0  0  0  0  0  0  0
   -1.0684    1.6436    0.0998 H   0  0  0  0  0  0  0  0  0  0  0  0
    0.6562    1.7935   -0.2361 H   0  0  0  0  0  0  0  0  0  0  0  0
   -0.5562    1.2141   -1.9113 C   0  0  0  0  0  0  0  0  0  0  0  0
   -0.1809    0.3958   -2.7406 O   0  0  0  0  0  0  0  0  0  0  0  0
   -1.3195    2.2525   -2.2998 O   0  0  0  0  0  0  0  0  0  0  0  0
   -1.4615    2.1366   -3.2399 H   0  0  0  0  0  0  0  0  0  0  0  0
    0.5920   -0.2154    1.5497 C   0  0  0  0  0  0  0  0  0  0  0  0
    0.1114    0.5322    2.4004 O   0  0  0  0  0  0  0  0  0  0  0  0
    1.6315   -1.0166    1.8089 N   0  0  0  0  0  0  0  0  0  0  0  0
    2.0096   -1.5556    1.0365 H   0  0  0  0  0  0  0  0  0  0  0  0
    2.2974   -1.1113    3.1062 C   0  0  0  0  0  0  0  0  0  0  0  0
    1.5574   -1.2953    3.8882 H   0  0  0  0  0  0  0  0  0  0  0  0
    3.0217   -1.9267    3.0975 H   0  0  0  0  0  0  0  0  0  0  0  0
    2.8115   -0.1739    3.3259 H   0  0  0  0  0  0  0  0  0  0  0  0
  5  6  2  0  0  0  0
  5  7  1  0  0  0  0
  2  3  1  0  0  0  0
  2  4  1  0  0  0  0
  2  5  1  0  0  0  0
  1  2  1  0  0  0  0
 18 19  2  0  0  0  0
 18 20  1  0  0  0  0
 16 17  1  0  0  0  0
 14 15  2  0  0  0  0
 14 16  1  0  0  0  0
 11 12  1  0  0  0  0
 11 13  1  0  0  0  0
 11 14  1  0  0  0  0
  9 10  1  0  0  0  0
  9 11  1  0  0  0  0
  9 18  1  0  0  0  0
  7  8  1  0  0  0  0
  7  9  1  0  0  0  0
 22 23  1  0  0  0  0
 22 24  1  0  0  0  0
 22 25  1  0  0  0  0
 20 21  1  0  0  0  0
 20 22  1  0  0  0  0
M  END
$$$$
default_name
  -OEChem-01062215323D

 25 24  0     1  0  0  0  0  0999 V2000
   -2.7826   -3.8464    0.7821 H   0  0  0  0  0  0  0  0  0  0  0  0
   -2.8156   -2.8034    0.4711 C   0  0  0  0  0  0  0  0  0  0  0  0
   -3.4336   -2.2354    1.1641 H   0  0  0  0  0  0  0  0  0  0  0  0
   -3.2256   -2.7344   -0.5349 H   0  0  0  0  0  0  0  0  0  0  0  0
   -1.4126   -2.2444    0.4801 C   0  0  0  0  0  0  0  0  0  0  0  0
   -0.4686   -2.9534    0.8001 O   0  0  0  0  0  0  0  0  0  0  0  0
   -1.2736   -0.9704    0.1241 N   0  0  0  0  0  0  0  0  0  0  0  0
   -2.0996   -0.4354   -0.1019 H   0  0  0  0  0  0  0  0  0  0  0  0
   -0.0016   -0.2394    0.1271 C   0  0  1  0  0  0  0  0  0  0  0  0
    0.6995   -0.7619   -0.5275 H   0  0  0  0  0  0  0  0  0  0  0  0
   -0.2283    1.1832   -0.4215 C   0  0  0  0  0  0  0  0  0  0  0  0
   -1.0684    1.6436    0.0998 H   0  0  0  0  0  0  0  0  0  0  0  0
    0.6562    1.7935   -0.2361 H   0  0  0  0  0  0  0  0  0  0  0  0
   -0.5562    1.2141   -1.9113 C   0  0  0  0  0  0  0  0  0  0  0  0
   -0.1809    0.3958   -2.7406 O   0  0  0  0  0  0  0  0  0  0  0  0
   -1.3195    2.2525   -2.2998 O   0  0  0  0  0  0  0  0  0  0  0  0
   -1.4615    2.1366   -3.2399 H   0  0  0  0  0  0  0  0  0  0  0  0
    0.5920   -0.2154    1.5497 C   0  0  0  0  0  0  0  0  0  0  0  0
   -0.0393    0.3075    2.4671 O   0  0  0  0  0  0  0  0  0  0  0  0
    1.7967   -0.7665    1.7357 N   0  0  0  0  0  0  0  0  0  0  0  0
    2.2800   -1.1202    0.9164 H   0  0  0  0  0  0  0  0  0  0  0  0
    2.4868   -0.8275    3.0224 C   0  0  0  0  0  0  0  0  0  0  0  0
    1.8248   -1.2596    3.7760 H   0  0  0  0  0  0  0  0  0  0  0  0
    3.3845   -1.4411    2.9379 H   0  0  0  0  0  0  0  0  0  0  0  0
    2.7658    0.1790    3.3390 H   0  0  0  0  0  0  0  0  0  0  0  0
  5  6  2  0  0  0  0
  5  7  1  0  0  0  0
  2  3  1  0  0  0  0
  2  4  1  0  0  0  0
  2  5  1  0  0  0  0
  1  2  1  0  0  0  0
 18 19  2  0  0  0  0
 18 20  1  0  0  0  0
 16 17  1  0  0  0  0
 14 15  2  0  0  0  0
 14 16  1  0  0  0  0
 11 12  1  0  0  0  0
 11 13  1  0  0  0  0
 11 14  1  0  0  0  0
  9 10  1  0  0  0  0
  9 11  1  0  0  0  0
  9 18  1  0  0  0  0
  7  8  1  0  0  0  0
  7  9  1  0  0  0  0
 22 23  1  0  0  0  0
 22 24  1  0  0  0  0
 22 25  1  0  0  0  0
 20 21  1  0  0  0  0
 20 22  1  0  0  0  0
M  END
$$$$
default_name
  -OEChem-01062215323D

 25 24  0     1  0  0  0  0  0999 V2000
   -2.7826   -3.8464    0.7821 H   0  0  0  0  0  0  0  0  0  0  0  0
   -2.8156   -2.8034    0.4711 C   0  0  0  0  0  0  0  0  0  0  0  0
   -3.4336   -2.2354    1.1641 H   0  0  0  0  0  0  0  0  0  0  0  0
   -3.2256   -2.7344   -0.5349 H   0  0  0  0  0  0  0  0  0  0  0  0
   -1.4126   -2.2444    0.4801 C   0  0  0  0  0  0  0  0  0  0  0  0
   -0.4686   -2.9534    0.8001 O   0  0  0  0  0  0  0  0  0  0  0  0
   -1.2736   -0.9704    0.1241 N   0  0  0  0  0  0  0  0  0  0  0  0
   -2.0996   -0.4354   -0.1019 H   0  0  0  0  0  0  0  0  0  0  0  0
   -0.0016   -0.2394    0.1271 C   0  0  1  0  0  0  0  0  0  0  0  0
    0.6995   -0.7619   -0.5275 H   0  0  0  0  0  0  0  0  0  0  0  0
   -0.2283    1.1832   -0.4215 C   0  0  0  0  0  0  0  0  0  0  0  0
   -1.0684    1.6436    0.0998 H   0  0  0  0  0  0  0  0  0  0  0  0
    0.6562    1.7935   -0.2361 H   0  0  0  0  0  0  0  0  0  0  0  0
   -0.5562    1.2141   -1.9113 C   0  0  0  0  0  0  0  0  0  0  0  0
   -0.1809    0.3958   -2.7406 O   0  0  0  0  0  0  0  0  0  0  0  0
   -1.3195    2.2525   -2.2998 O   0  0  0  0  0  0  0  0  0  0  0  0
   -1.4615    2.1366   -3.2399 H   0  0  0  0  0  0  0  0  0  0  0  0
    0.5920   -0.2154    1.5497 C   0  0  0  0  0  0  0  0  0  0  0  0
   -0.1310    0.0478    2.5097 O   0  0  0  0  0  0  0  0  0  0  0  0
    1.8963   -0.4782    1.6893 N   0  0  0  0  0  0  0  0  0  0  0  0
    2.4367   -0.6231    0.8426 H   0  0  0  0  0  0  0  0  0  0  0  0
    2.6016   -0.4998    2.9690 C   0  0  0  0  0  0  0  0  0  0  0  0
    2.0741   -1.1502    3.6701 H   0  0  0  0  0  0  0  0  0  0  0  0
    3.6184   -0.8696    2.8306 H   0  0  0  0  0  0  0  0  0  0  0  0
    2.6375    0.5077    3.3870 H   0  0  0  0  0  0  0  0  0  0  0  0
  5  6  2  0  0  0  0
  5  7  1  0  0  0  0
  2  3  1  0  0  0  0
  2  4  1  0  0  0  0
  2  5  1  0  0  0  0
  1  2  1  0  0  0  0
 18 19  2  0  0  0  0
 18 20  1  0  0  0  0
 16 17  1  0  0  0  0
 14 15  2  0  0  0  0
 14 16  1  0  0  0  0
 11 12  1  0  0  0  0
 11 13  1  0  0  0  0
 11 14  1  0  0  0  0
  9 10  1  0  0  0  0
  9 11  1  0  0  0  0
  9 18  1  0  0  0  0
  7  8  1  0  0  0  0
  7  9  1  0  0  0  0
 22 23  1  0  0  0  0
 22 24  1  0  0  0  0
 22 25  1  0  0  0  0
 20 21  1  0  0  0  0
 20 22  1  0  0  0  0
M  END
$$$$
default_name
  -OEChem-01062215323D

 25 24  0     1  0  0  0  0  0999 V2000
   -2.7826   -3.8464    0.7821 H   0  0  0  0  0  0  0  0  0  0  0  0
   -2.8156   -2.8034    0.4711 C   0  0  0  0  0  0  0  0  0  0  0  0
   -3.4336   -2.2354    1.1641 H   0  0  0  0  0  0  0  0  0  0  0  0
   -3.2256   -2.7344   -0.5349 H   0  0  0  0  0  0  0  0  0  0  0  0
   -1.4126   -2.2444    0.4801 C   0  0  0  0  0  0  0  0  0  0  0  0
   -0.4686   -2.9534    0.8001 O   0  0  0  0  0  0  0  0  0  0  0  0
   -1.2736   -0.9704    0.1241 N   0  0  0  0  0  0  0  0  0  0  0  0
   -2.0996   -0.4354   -0.1019 H   0  0  0  0  0  0  0  0  0  0  0  0
   -0.0016   -0.2394    0.1271 C   0  0  1  0  0  0  0  0  0  0  0  0
    0.6995   -0.7619   -0.5275 H   0  0  0  0  0  0  0  0  0  0  0  0
   -0.2283    1.1832   -0.4215 C   0  0  0  0  0  0  0  0  0  0  0  0
   -1.0684    1.6436    0.0998 H   0  0  0  0  0  0  0  0  0  0  0  0
    0.6562    1.7935   -0.2361 H   0  0  0  0  0  0  0  0  0  0  0  0
   -0.5562    1.2141   -1.9113 C   0  0  0  0  0  0  0  0  0  0  0  0
   -0.1809    0.3958   -2.7406 O   0  0  0  0  0  0  0  0  0  0  0  0
   -1.3195    2.2525   -2.2998 O   0  0  0  0  0  0  0  0  0  0  0  0
   -1.4615    2.1366   -3.2399 H   0  0  0  0  0  0  0  0  0  0  0  0
    0.5920   -0.2154    1.5497 C   0  0  0  0  0  0  0  0  0  0  0  0
   -0.1573   -0.2292    2.5254 O   0  0  0  0  0  0  0  0  0  0  0  0
    1.9234   -0.1714    1.6728 N   0  0  0  0  0  0  0  0  0  0  0  0
    2.4690   -0.0981    0.8202 H   0  0  0  0  0  0  0  0  0  0  0  0
    2.6341   -0.1505    2.9495 C   0  0  0  0  0  0  0  0  0  0  0  0
    2.2884   -0.9744    3.5777 H   0  0  0  0  0  0  0  0  0  0  0  0
    3.7073   -0.2509    2.7831 H   0  0  0  0  0  0  0  0  0  0  0  0
    2.4352    0.7898    3.4667 H   0  0  0  0  0  0  0  0  0  0  0  0
  5  6  2  0  0  0  0
  5  7  1  0  0  0  0
  2  3  1  0  0  0  0
  2  4  1  0  0  0  0
  2  5  1  0  0  0  0
  1  2  1  0  0  0  0
 18 19  2  0  0  0  0
 18 20  1  0  0  0  0
 16 17  1  0  0  0  0
 14 15  2  0  0  0  0
 14 16  1  0  0  0  0
 11 12  1  0  0  0  0
 11 13  1  0  0  0  0
 11 14  1  0  0  0  0
  9 10  1  0  0  0  0
  9 11  1  0  0  0  0
  9 18  1  0  0  0  0
  7  8  1  0  0  0  0
  7  9  1  0  0  0  0
 22 23  1  0  0  0  0
 22 24  1  0  0  0  0
 22 25  1  0  0  0  0
 20 21  1  0  0  0  0
 20 22  1  0  0  0  0
M  END
$$$$
default_name
  -OEChem-01062215323D

 25 24  0     1  0  0  0  0  0999 V2000
   -2.7826   -3.8464    0.7821 H   0  0  0  0  0  0  0  0  0  0  0  0
   -2.8156   -2.8034    0.4711 C   0  0  0  0  0  0  0  0  0  0  0  0
   -3.4336   -2.2354    1.1641 H   0  0  0  0  0  0  0  0  0  0  0  0
   -3.2256   -2.7344   -0.5349 H   0  0  0  0  0  0  0  0  0  0  0  0
   -1.4126   -2.2444    0.4801 C   0  0  0  0  0  0  0  0  0  0  0  0
   -0.4686   -2.9534    0.8001 O   0  0  0  0  0  0  0  0  0  0  0  0
   -1.2736   -0.9704    0.1241 N   0  0  0  0  0  0  0  0  0  0  0  0
   -2.0996   -0.4354   -0.1019 H   0  0  0  0  0  0  0  0  0  0  0  0
   -0.0016   -0.2394    0.1271 C   0  0  1  0  0  0  0  0  0  0  0  0
    0.6995   -0.7619   -0.5275 H   0  0  0  0  0  0  0  0  0  0  0  0
   -0.2283    1.1832   -0.4215 C   0  0  0  0  0  0  0  0  0  0  0  0
   -1.0684    1.6436    0.0998 H   0  0  0  0  0  0  0  0  0  0  0  0
    0.6562    1.7935   -0.2361 H   0  0  0  0  0  0  0  0  0  0  0  0
   -0.5562    1.2141   -1.9113 C   0  0  0  0  0  0  0  0  0  0  0  0
   -0.1809    0.3958   -2.7406 O   0  0  0  0  0  0  0  0  0  0  0  0
   -1.3195    2.2525   -2.2998 O   0  0  0  0  0  0  0  0  0  0  0  0
   -1.4615    2.1366   -3.2399 H   0  0  0  0  0  0  0  0  0  0  0  0
    0.5920   -0.2154    1.5497 C   0  0  0  0  0  0  0  0  0  0  0  0
   -0.1165   -0.5046    2.5130 O   0  0  0  0  0  0  0  0  0  0  0  0
    1.8762    0.1332    1.6873 N   0  0  0  0  0  0  0  0  0  0  0  0
    2.3748    0.4189    0.8508 H   0  0  0  0  0  0  0  0  0  0  0  0
    2.5819    0.1966    2.9654 C   0  0  0  0  0  0  0  0  0  0  0  0
    2.4530   -0.7441    3.5051 H   0  0  0  0  0  0  0  0  0  0  0  0
    3.6453    0.3726    2.7984 H   0  0  0  0  0  0  0  0  0  0  0  0
    2.1728    1.0060    3.5726 H   0  0  0  0  0  0  0  0  0  0  0  0
  5  6  2  0  0  0  0
  5  7  1  0  0  0  0
  2  3  1  0  0  0  0
  2  4  1  0  0  0  0
  2  5  1  0  0  0  0
  1  2  1  0  0  0  0
 18 19  2  0  0  0  0
 18 20  1  0  0  0  0
 16 17  1  0  0  0  0
 14 15  2  0  0  0  0
 14 16  1  0  0  0  0
 11 12  1  0  0  0  0
 11 13  1  0  0  0  0
 11 14  1  0  0  0  0
  9 10  1  0  0  0  0
  9 11  1  0  0  0  0
  9 18  1  0  0  0  0
  7  8  1  0  0  0  0
  7  9  1  0  0  0  0
 22 23  1  0  0  0  0
 22 24  1  0  0  0  0
 22 25  1  0  0  0  0
 20 21  1  0  0  0  0
 20 22  1  0  0  0  0
M  END
$$$$
default_name
  -OEChem-01062215323D

 25 24  0     1  0  0  0  0  0999 V2000
   -2.7826   -3.8464    0.7821 H   0  0  0  0  0  0  0  0  0  0  0  0
   -2.8156   -2.8034    0.4711 C   0  0  0  0  0  0  0  0  0  0  0  0
   -3.4336   -2.2354    1.1641 H   0  0  0  0  0  0  0  0  0  0  0  0
   -3.2256   -2.7344   -0.5349 H   0  0  0  0  0  0  0  0  0  0  0  0
   -1.4126   -2.2444    0.4801 C   0  0  0  0  0  0  0  0  0  0  0  0
   -0.4686   -2.9534    0.8001 O   0  0  0  0  0  0  0  0  0  0  0  0
   -1.2736   -0.9704    0.1241 N   0  0  0  0  0  0  0  0  0  0  0  0
   -2.0996   -0.4354   -0.1019 H   0  0  0  0  0  0  0  0  0  0  0  0
   -0.0016   -0.2394    0.1271 C   0  0  1  0  0  0  0  0  0  0  0  0
    0.6017   -0.5910   -0.7128 H   0  0  0  0  0  0  0  0  0  0  0  0
   -0.2770    1.2664   -0.0543 C   0  0  0  0  0  0  0  0  0  0  0  0
   -1.0362    1.5852    0.6608 H   0  0  0  0  0  0  0  0  0  0  0  0
    0.6327    1.8330    0.1478 H   0  0  0  0  0  0  0  0  0  0  0  0
   -0.7939    1.6257   -1.4441 C   0  0  0  0  0  0  0  0  0  0  0  0
   -0.5403    1.0202   -2.4772 O   0  0  0  0  0  0  0  0  0  0  0  0
   -1.5861    2.7131   -1.4880 O   0  0  0  0  0  0  0  0  0  0  0  0
   -1.8499    2.8089   -2.4037 H   0  0  0  0  0  0  0  0  0  0  0  0
    0.7709   -0.5262    1.4301 C   0  0  0  0  0  0  0  0  0  0  0  0
    0.2840   -1.2729    2.2780 O   0  0  0  0  0  0  0  0  0  0  0  0
    1.9595    0.0646    1.5972 N   0  0  0  0  0  0  0  0  0  0  0  0
    2.2620    0.7160    0.8803 H   0  0  0  0  0  0  0  0  0  0  0  0
    2.8114   -0.1123    2.7713 C   0  0  0  0  0  0  0  0  0  0  0  0
    2.9614   -1.1774    2.9612 H   0  0  0  0  0  0  0  0  0  0  0  0
    3.7790    0.3636    2.6077 H   0  0  0  0  0  0  0  0  0  0  0  0
    2.3325    0.3337    3.6447 H   0  0  0  0  0  0  0  0  0  0  0  0
  5  6  2  0  0  0  0
  5  7  1  0  0  0  0
  2  3  1  0  0  0  0
  2  4  1  0  0  0  0
  2  5  1  0  0  0  0
  1  2  1  0  0  0  0
 18 19  2  0  0  0  0
 18 20  1  0  0  0  0
 16 17  1  0  0  0  0
 14 15  2  0  0  0  0
 14 16  1  0  0  0  0
 11 12  1  0  0  0  0
 11 13  1  0  0  0  0
 11 14  1  0  0  0  0
  9 10  1  0  0  0  0
  9 11  1  0  0  0  0
  9 18  1  0  0  0  0
  7  8  1  0  0  0  0
  7  9  1  0  0  0  0
 22 23  1  0  0  0  0
 22 24  1  0  0  0  0
 22 25  1  0  0  0  0
 20 21  1  0  0  0  0
 20 22  1  0  0  0  0
M  END
$$$$
default_name
  -OEChem-01062215323D

 25 24  0     1  0  0  0  0  0999 V2000
   -2.7826   -3.8464    0.7821 H   0  0  0  0  0  0  0  0  0  0  0  0
   -2.8156   -2.8034    0.4711 C   0  0  0  0  0  0  0  0  0  0  0  0
   -3.4336   -2.2354    1.1641 H   0  0  0  0  0  0  0  0  0  0  0  0
   -3.2256   -2.7344   -0.5349 H   0  0  0  0  0  0  0  0  0  0  0  0
   -1.4126   -2.2444    0.4801 C   0  0  0  0  0  0  0  0  0  0  0  0
   -0.4686   -2.9534    0.8001 O   0  0  0  0  0  0  0  0  0  0  0  0
   -1.2736   -0.9704    0.1241 N   0  0  0  0  0  0  0  0  0  0  0  0
   -2.0996   -0.4354   -0.1019 H   0  0  0  0  0  0  0  0  0  0  0  0
   -0.0016   -0.2394    0.1271 C   0  0  1  0  0  0  0  0  0  0  0  0
    0.6017   -0.5910   -0.7128 H   0  0  0  0  0  0  0  0  0  0  0  0
   -0.2770    1.2664   -0.0543 C   0  0  0  0  0  0  0  0  0  0  0  0
   -1.0362    1.5852    0.6608 H   0  0  0  0  0  0  0  0  0  0  0  0
    0.6327    1.8330    0.1478 H   0  0  0  0  0  0  0  0  0  0  0  0
   -0.7939    1.6257   -1.4441 C   0  0  0  0  0  0  0  0  0  0  0  0
   -0.5403    1.0202   -2.4772 O   0  0  0  0  0  0  0  0  0  0  0  0
   -1.5861    2.7131   -1.4880 O   0  0  0  0  0  0  0  0  0  0  0  0
   -1.8499    2.8089   -2.4037 H   0  0  0  0  0  0  0  0  0  0  0  0
    0.7709   -0.5262    1.4301 C   0  0  0  0  0  0  0  0  0  0  0  0
    0.4336   -1.4678    2.1464 O   0  0  0  0  0  0  0  0  0  0  0  0
    1.7924    0.2788    1.7434 N   0  0  0  0  0  0  0  0  0  0  0  0
    1.9669    1.0709    1.1334 H   0  0  0  0  0  0  0  0  0  0  0  0
    2.6222    0.1328    2.9374 C   0  0  0  0  0  0  0  0  0  0  0  0
    2.9984   -0.8905    3.0023 H   0  0  0  0  0  0  0  0  0  0  0  0
    3.4651    0.8238    2.8951 H   0  0  0  0  0  0  0  0  0  0  0  0
    2.0272    0.3430    3.8278 H   0  0  0  0  0  0  0  0  0  0  0  0
  5  6  2  0  0  0  0
  5  7  1  0  0  0  0
  2  3  1  0  0  0  0
  2  4  1  0  0  0  0
  2  5  1  0  0  0  0
  1  2  1  0  0  0  0
 18 19  2  0  0  0  0
 18 20  1  0  0  0  0
 16 17  1  0  0  0  0
 14 15  2  0  0  0  0
 14 16  1  0  0  0  0
 11 12  1  0  0  0  0
 11 13  1  0  0  0  0
 11 14  1  0  0  0  0
  9 10  1  0  0  0  0
  9 11  1  0  0  0  0
  9 18  1  0  0  0  0
  7  8  1  0  0  0  0
  7  9  1  0  0  0  0
 22 23  1  0  0  0  0
 22 24  1  0  0  0  0
 22 25  1  0  0  0  0
 20 21  1  0  0  0  0
 20 22  1  0  0  0  0
M  END
$$$$
default_name
  -OEChem-01062215323D

 25 24  0     1  0  0  0  0  0999 V2000
   -2.7826   -3.8464    0.7821 H   0  0  0  0  0  0  0  0  0  0  0  0
   -2.8156   -2.8034    0.4711 C   0  0  0  0  0  0  0  0  0  0  0  0
   -3.4336   -2.2354    1.1641 H   0  0  0  0  0  0  0  0  0  0  0  0
   -3.2256   -2.7344   -0.5349 H   0  0  0  0  0  0  0  0  0  0  0  0
   -1.4126   -2.2444    0.4801 C   0  0  0  0  0  0  0  0  0  0  0  0
   -0.4686   -2.9534    0.8001 O   0  0  0  0  0  0  0  0  0  0  0  0
   -1.2736   -0.9704    0.1241 N   0  0  0  0  0  0  0  0  0  0  0  0
   -2.0996   -0.4354   -0.1019 H   0  0  0  0  0  0  0  0  0  0  0  0
   -0.0016   -0.2394    0.1271 C   0  0  1  0  0  0  0  0  0  0  0  0
    0.6017   -0.5910   -0.7128 H   0  0  0  0  0  0  0  0  0  0  0  0
   -0.2770    1.2664   -0.0543 C   0  0  0  0  0  0  0  0  0  0  0  0
   -1.0362    1.5852    0.6608 H   0  0  0  0  0  0  0  0  0  0  0  0
    0.6327    1.8330    0.1478 H   0  0  0  0  0  0  0  0  0  0  0  0
   -0.7939    1.6257   -1.4441 C   0  0  0  0  0  0  0  0  0  0  0  0
   -0.5403    1.0202   -2.4772 O   0  0  0  0  0  0  0  0  0  0  0  0
   -1.5861    2.7131   -1.4880 O   0  0  0  0  0  0  0  0  0  0  0  0
   -1.8499    2.8089   -2.4037 H   0  0  0  0  0  0  0  0  0  0  0  0
    0.7709   -0.5262    1.4301 C   0  0  0  0  0  0  0  0  0  0  0  0
    0.6270   -1.6063    2.0013 O   0  0  0  0  0  0  0  0  0  0  0  0
    1.5771    0.4302    1.9044 N   0  0  0  0  0  0  0  0  0  0  0  0
    1.5919    1.3162    1.4097 H   0  0  0  0  0  0  0  0  0  0  0  0
    2.3780    0.3067    3.1205 C   0  0  0  0  0  0  0  0  0  0  0  0
    2.9694   -0.6107    3.0811 H   0  0  0  0  0  0  0  0  0  0  0  0
    3.0474    1.1623    3.2172 H   0  0  0  0  0  0  0  0  0  0  0  0
    1.7214    0.2614    3.9911 H   0  0  0  0  0  0  0  0  0  0  0  0
  5  6  2  0  0  0  0
  5  7  1  0  0  0  0
  2  3  1  0  0  0  0
  2  4  1  0  0  0  0
  2  5  1  0  0  0  0
  1  2  1  0  0  0  0
 18 19  2  0  0  0  0
 18 20  1  0  0  0  0
 16 17  1  0  0  0  0
 14 15  2  0  0  0  0
 14 16  1  0  0  0  0
 11 12  1  0  0  0  0
 11 13  1  0  0  0  0
 11 14  1  0  0  0  0
  9 10  1  0  0  0  0
  9 11  1  0  0  0  0
  9 18  1  0  0  0  0
  7  8  1  0  0  0  0
  7  9  1  0  0  0  0
 22 23  1  0  0  0  0
 22 24  1  0  0  0  0
 22 25  1  0  0  0  0
 20 21  1  0  0  0  0
 20 22  1  0  0  0  0
M  END
$$$$
default_name
  -OEChem-01062215323D

 25 24  0     1  0  0  0  0  0999 V2000
   -2.7826   -3.8464    0.7821 H   0  0  0  0  0  0  0  0  0  0  0  0
   -2.8156   -2.8034    0.4711 C   0  0  0  0  0  0  0  0  0  0  0  0
   -3.4336   -2.2354    1.1641 H   0  0  0  0  0  0  0  0  0  0  0  0
   -3.2256   -2.7344   -0.5349 H   0  0  0  0  0  0  0  0  0  0  0  0
   -1.4126   -2.2444    0.4801 C   0  0  0  0  0  0  0  0  0  0  0  0
   -0.4686   -2.9534    0.8001 O   0  0  0  0  0  0  0  0  0  0  0  0
   -1.2736   -0.9704    0.1241 N   0  0  0  0  0  0  0  0  0  0  0  0
   -2.0996   -0.4354   -0.1019 H   0  0  0  0  0  0  0  0  0  0  0  0
   -0.0016   -0.2394    0.1271 C   0  0  1  0  0  0  0  0  0  0  0  0
    0.6017   -0.5910   -0.7128 H   0  0  0  0  0  0  0  0  0  0  0  0
   -0.2770    1.2664   -0.0543 C   0  0  0  0  0  0  0  0  0  0  0  0
   -1.0362    1.5852    0.6608 H   0  0  0  0  0  0  0  0  0  0  0  0
    0.6327    1.8330    0.1478 H   0  0  0  0  0  0  0  0  0  0  0  0
   -0.7939    1.6257   -1.4441 C   0  0  0  0  0  0  0  0  0  0  0  0
   -0.5403    1.0202   -2.4772 O   0  0  0  0  0  0  0  0  0  0  0  0
   -1.5861    2.7131   -1.4880 O   0  0  0  0  0  0  0  0  0  0  0  0
   -1.8499    2.8089   -2.4037 H   0  0  0  0  0  0  0  0  0  0  0  0
    0.7709   -0.5262    1.4301 C   0  0  0  0  0  0  0  0  0  0  0  0
    0.8511   -1.6789    1.8524 O   0  0  0  0  0  0  0  0  0  0  0  0
    1.3283    0.5085    2.0691 N   0  0  0  0  0  0  0  0  0  0  0  0
    1.1628    1.4353    1.6903 H   0  0  0  0  0  0  0  0  0  0  0  0
    2.0951    0.3974    3.3081 C   0  0  0  0  0  0  0  0  0  0  0  0
    2.8764   -0.3569    3.1921 H   0  0  0  0  0  0  0  0  0  0  0  0
    2.5544    1.3562    3.5522 H   0  0  0  0  0  0  0  0  0  0  0  0
    1.4360    0.0946    4.1236 H   0  0  0  0  0  0  0  0  0  0  0  0
  5  6  2  0  0  0  0
  5  7  1  0  0  0  0
  2  3  1  0  0  0  0
  2  4  1  0  0  0  0
  2  5  1  0  0  0  0
  1  2  1  0  0  0  0
 18 19  2  0  0  0  0
 18 20  1  0  0  0  0
 16 17  1  0  0  0  0
 14 15  2  0  0  0  0
 14 16  1  0  0  0  0
 11 12  1  0  0  0  0
 11 13  1  0  0  0  0
 11 14  1  0  0  0  0
  9 10  1  0  0  0  0
  9 11  1  0  0  0  0
  9 18  1  0  0  0  0
  7  8  1  0  0  0  0
  7  9  1  0  0  0  0
 22 23  1  0  0  0  0
 22 24  1  0  0  0  0
 22 25  1  0  0  0  0
 20 21  1  0  0  0  0
 20 22  1  0  0  0  0
M  END
$$$$
default_name
  -OEChem-01062215323D

 25 24  0     1  0  0  0  0  0999 V2000
   -2.7826   -3.8464    0.7821 H   0  0  0  0  0  0  0  0  0  0  0  0
   -2.8156   -2.8034    0.4711 C   0  0  0  0  0  0  0  0  0  0  0  0
   -3.4336   -2.2354    1.1641 H   0  0  0  0  0  0  0  0  0  0  0  0
   -3.2256   -2.7344   -0.5349 H   0  0  0  0  0  0  0  0  0  0  0  0
   -1.4126   -2.2444    0.4801 C   0  0  0  0  0  0  0  0  0  0  0  0
   -0.4686   -2.9534    0.8001 O   0  0  0  0  0  0  0  0  0  0  0  0
   -1.2736   -0.9704    0.1241 N   0  0  0  0  0  0  0  0  0  0  0  0
   -2.0996   -0.4354   -0.1019 H   0  0  0  0  0  0  0  0  0  0  0  0
   -0.0016   -0.2394    0.1271 C   0  0  1  0  0  0  0  0  0  0  0  0
    0.6017   -0.5910   -0.7128 H   0  0  0  0  0  0  0  0  0  0  0  0
   -0.2770    1.2664   -0.0543 C   0  0  0  0  0  0  0  0  0  0  0  0
   -1.0362    1.5852    0.6608 H   0  0  0  0  0  0  0  0  0  0  0  0
    0.6327    1.8330    0.1478 H   0  0  0  0  0  0  0  0  0  0  0  0
   -0.7939    1.6257   -1.4441 C   0  0  0  0  0  0  0  0  0  0  0  0
   -0.5403    1.0202   -2.4772 O   0  0  0  0  0  0  0  0  0  0  0  0
   -1.5861    2.7131   -1.4880 O   0  0  0  0  0  0  0  0  0  0  0  0
   -1.8499    2.8089   -2.4037 H   0  0  0  0  0  0  0  0  0  0  0  0
    0.7709   -0.5262    1.4301 C   0  0  0  0  0  0  0  0  0  0  0  0
    1.0907   -1.6807    1.7100 O   0  0  0  0  0  0  0  0  0  0  0  0
    1.0629    0.5084    2.2264 N   0  0  0  0  0  0  0  0  0  0  0  0
    0.7087    1.4202    1.9562 H   0  0  0  0  0  0  0  0  0  0  0  0
    1.7931    0.3989    3.4875 C   0  0  0  0  0  0  0  0  0  0  0  0
    2.7257   -0.1465    3.3277 H   0  0  0  0  0  0  0  0  0  0  0  0
    2.0196    1.3921    3.8772 H   0  0  0  0  0  0  0  0  0  0  0  0
    1.1905   -0.1462    4.2162 H   0  0  0  0  0  0  0  0  0  0  0  0
  5  6  2  0  0  0  0
  5  7  1  0  0  0  0
  2  3  1  0  0  0  0
  2  4  1  0  0  0  0
  2  5  1  0  0  0  0
  1  2  1  0  0  0  0
 18 19  2  0  0  0  0
 18 20  1  0  0  0  0
 16 17  1  0  0  0  0
 14 15  2  0  0  0  0
 14 16  1  0  0  0  0
 11 12  1  0  0  0  0
 11 13  1  0  0  0  0
 11 14  1  0  0  0  0
  9 10  1  0  0  0  0
  9 11  1  0  0  0  0
  9 18  1  0  0  0  0
  7  8  1  0  0  0  0
  7  9  1  0  0  0  0
 22 23  1  0  0  0  0
 22 24  1  0  0  0  0
 22 25  1  0  0  0  0
 20 21  1  0  0  0  0
 20 22  1  0  0  0  0
M  END
$$$$
default_name
  -OEChem-01062215323D

 25 24  0     1  0  0  0  0  0999 V2000
   -2.7826   -3.8464    0.7821 H   0  0  0  0  0  0  0  0  0  0  0  0
   -2.8156   -2.8034    0.4711 C   0  0  0  0  0  0  0  0  0  0  0  0
   -3.4336   -2.2354    1.1641 H   0  0  0  0  0  0  0  0  0  0  0  0
   -3.2256   -2.7344   -0.5349 H   0  0  0  0  0  0  0  0  0  0  0  0
   -1.4126   -2.2444    0.4801 C   0  0  0  0  0  0  0  0  0  0  0  0
   -0.4686   -2.9534    0.8001 O   0  0  0  0  0  0  0  0  0  0  0  0
   -1.2736   -0.9704    0.1241 N   0  0  0  0  0  0  0  0  0  0  0  0
   -2.0996   -0.4354   -0.1019 H   0  0  0  0  0  0  0  0  0  0  0  0
   -0.0016   -0.2394    0.1271 C   0  0  1  0  0  0  0  0  0  0  0  0
    0.6017   -0.5910   -0.7128 H   0  0  0  0  0  0  0  0  0  0  0  0
   -0.2770    1.2664   -0.0543 C   0  0  0  0  0  0  0  0  0  0  0  0
   -1.0362    1.5852    0.6608 H   0  0  0  0  0  0  0  0  0  0  0  0
    0.6327    1.8330    0.1478 H   0  0  0  0  0  0  0  0  0  0  0  0
   -0.7939    1.6257   -1.4441 C   0  0  0  0  0  0  0  0  0  0  0  0
   -0.5403    1.0202   -2.4772 O   0  0  0  0  0  0  0  0  0  0  0  0
   -1.5861    2.7131   -1.4880 O   0  0  0  0  0  0  0  0  0  0  0  0
   -1.8499    2.8089   -2.4037 H   0  0  0  0  0  0  0  0  0  0  0  0
    0.7709   -0.5262    1.4301 C   0  0  0  0  0  0  0  0  0  0  0  0
    1.3293   -1.6116    1.5837 O   0  0  0  0  0  0  0  0  0  0  0  0
    0.7990    0.4297    2.3656 N   0  0  0  0  0  0  0  0  0  0  0  0
    0.2606    1.2717    2.1892 H   0  0  0  0  0  0  0  0  0  0  0  0
    1.4924    0.3110    3.6465 C   0  0  0  0  0  0  0  0  0  0  0  0
    2.5276    0.0061    3.4788 H   0  0  0  0  0  0  0  0  0  0  0  0
    1.4795    1.2677    4.1700 H   0  0  0  0  0  0  0  0  0  0  0  0
    1.0016   -0.4445    4.2625 H   0  0  0  0  0  0  0  0  0  0  0  0
  5  6  2  0  0  0  0
  5  7  1  0  0  0  0
  2  3  1  0  0  0  0
  2  4  1  0  0  0  0
  2  5  1  0  0  0  0
  1  2  1  0  0  0  0
 18 19  2  0  0  0  0
 18 20  1  0  0  0  0
 16 17  1  0  0  0  0
 14 15  2  0  0  0  0
 14 16  1  0  0  0  0
 11 12  1  0  0  0  0
 11 13  1  0  0  0  0
 11 14  1  0  0  0  0
  9 10  1  0  0  0  0
  9 11  1  0  0  0  0
  9 18  1  0  0  0  0
  7  8  1  0  0  0  0
  7  9  1  0  0  0  0
 22 23  1  0  0  0  0
 22 24  1  0  0  0  0
 22 25  1  0  0  0  0
 20 21  1  0  0  0  0
 20 22  1  0  0  0  0
M  END
$$$$
default_name
  -OEChem-01062215323D

 25 24  0     1  0  0  0  0  0999 V2000
   -2.7826   -3.8464    0.7821 H   0  0  0  0  0  0  0  0  0  0  0  0
   -2.8156   -2.8034    0.4711 C   0  0  0  0  0  0  0  0  0  0  0  0
   -3.4336   -2.2354    1.1641 H   0  0  0  0  0  0  0  0  0  0  0  0
   -3.2256   -2.7344   -0.5349 H   0  0  0  0  0  0  0  0  0  0  0  0
   -1.4126   -2.2444    0.4801 C   0  0  0  0  0  0  0  0  0  0  0  0
   -0.4686   -2.9534    0.8001 O   0  0  0  0  0  0  0  0  0  0  0  0
   -1.2736   -0.9704    0.1241 N   0  0  0  0  0  0  0  0  0  0  0  0
   -2.0996   -0.4354   -0.1019 H   0  0  0  0  0  0  0  0  0  0  0  0
   -0.0016   -0.2394    0.1271 C   0  0  1  0  0  0  0  0  0  0  0  0
    0.6017   -0.5910   -0.7128 H   0  0  0  0  0  0  0  0  0  0  0  0
   -0.2770    1.2664   -0.0543 C   0  0  0  0  0  0  0  0  0  0  0  0
   -1.0362    1.5852    0.6608 H   0  0  0  0  0  0  0  0  0  0  0  0
    0.6327    1.8330    0.1478 H   0  0  0  0  0  0  0  0  0  0  0  0
   -0.7939    1.6257   -1.4441 C   0  0  0  0  0  0  0  0  0  0  0  0
   -0.5403    1.0202   -2.4772 O   0  0  0  0  0  0  0  0  0  0  0  0
   -1.5861    2.7131   -1.4880 O   0  0  0  0  0  0  0  0  0  0  0  0
   -1.8499    2.8089   -2.4037 H   0  0  0  0  0  0  0  0  0  0  0  0
    0.7709   -0.5262    1.4301 C   0  0  0  0  0  0  0  0  0  0  0  0
    1.5508   -1.4763    1.4822 O   0  0  0  0  0  0  0  0  0  0  0  0
    0.5547    0.2780    2.4771 N   0  0  0  0  0  0  0  0  0  0  0  0
   -0.1509    1.0000    2.3734 H   0  0  0  0  0  0  0  0  0  0  0  0
    1.2135    0.1396    3.7741 C   0  0  0  0  0  0  0  0  0  0  0  0
    2.2956    0.0906    3.6349 H   0  0  0  0  0  0  0  0  0  0  0  0
    0.9710    0.9915    4.4107 H   0  0  0  0  0  0  0  0  0  0  0  0
    0.8821   -0.7800    4.2596 H   0  0  0  0  0  0  0  0  0  0  0  0
  5  6  2  0  0  0  0
  5  7  1  0  0  0  0
  2  3  1  0  0  0  0
  2  4  1  0  0  0  0
  2  5  1  0  0  0  0
  1  2  1  0  0  0  0
 18 19  2  0  0  0  0
 18 20  1  0  0  0  0
 16 17  1  0  0  0  0
 14 15  2  0  0  0  0
 14 16  1  0  0  0  0
 11 12  1  0  0  0  0
 11 13  1  0  0  0  0
 11 14  1  0  0  0  0
  9 10  1  0  0  0  0
  9 11  1  0  0  0  0
  9 18  1  0  0  0  0
  7  8  1  0  0  0  0
  7  9  1  0  0  0  0
 22 23  1  0  0  0  0
 22 24  1  0  0  0  0
 22 25  1  0  0  0  0
 20 21  1  0  0  0  0
 20 22  1  0  0  0  0
M  END
$$$$
default_name
  -OEChem-01062215323D

 25 24  0     1  0  0  0  0  0999 V2000
   -2.7826   -3.8464    0.7821 H   0  0  0  0  0  0  0  0  0  0  0  0
   -2.8156   -2.8034    0.4711 C   0  0  0  0  0  0  0  0  0  0  0  0
   -3.4336   -2.2354    1.1641 H   0  0  0  0  0  0  0  0  0  0  0  0
   -3.2256   -2.7344   -0.5349 H   0  0  0  0  0  0  0  0  0  0  0  0
   -1.4126   -2.2444    0.4801 C   0  0  0  0  0  0  0  0  0  0  0  0
   -0.4686   -2.9534    0.8001 O   0  0  0  0  0  0  0  0  0  0  0  0
   -1.2736   -0.9704    0.1241 N   0  0  0  0  0  0  0  0  0  0  0  0
   -2.0996   -0.4354   -0.1019 H   0  0  0  0  0  0  0  0  0  0  0  0
   -0.0016   -0.2394    0.1271 C   0  0  1  0  0  0  0  0  0  0  0  0
    0.6017   -0.5910   -0.7128 H   0  0  0  0  0  0  0  0  0  0  0  0
   -0.2770    1.2664   -0.0543 C   0  0  0  0  0  0  0  0  0  0  0  0
   -1.0362    1.5852    0.6608 H   0  0  0  0  0  0  0  0  0  0  0  0
    0.6327    1.8330    0.1478 H   0  0  0  0  0  0  0  0  0  0  0  0
   -0.7939    1.6257   -1.4441 C   0  0  0  0  0  0  0  0  0  0  0  0
   -0.5403    1.0202   -2.4772 O   0  0  0  0  0  0  0  0  0  0  0  0
   -1.5861    2.7131   -1.4880 O   0  0  0  0  0  0  0  0  0  0  0  0
   -1.8499    2.8089   -2.4037 H   0  0  0  0  0  0  0  0  0  0  0  0
    0.7709   -0.5262    1.4301 C   0  0  0  0  0  0  0  0  0  0  0  0
    1.7399   -1.2839    1.4124 O   0  0  0  0  0  0  0  0  0  0  0  0
    0.3464    0.0636    2.5533 N   0  0  0  0  0  0  0  0  0  0  0  0
   -0.4979    0.6237    2.4963 H   0  0  0  0  0  0  0  0  0  0  0  0
    0.9754   -0.1034    3.8618 C   0  0  0  0  0  0  0  0  0  0  0  0
    2.0455    0.1013    3.7855 H   0  0  0  0  0  0  0  0  0  0  0  0
    0.5286    0.5821    4.5829 H   0  0  0  0  0  0  0  0  0  0  0  0
    0.8402   -1.1298    4.2074 H   0  0  0  0  0  0  0  0  0  0  0  0
  5  6  2  0  0  0  0
  5  7  1  0  0  0  0
  2  3  1  0  0  0  0
  2  4  1  0  0  0  0
  2  5  1  0  0  0  0
  1  2  1  0  0  0  0
 18 19  2  0  0  0  0
 18 20  1  0  0  0  0
 16 17  1  0  0  0  0
 14 15  2  0  0  0  0
 14 16  1  0  0  0  0
 11 12  1  0  0  0  0
 11 13  1  0  0  0  0
 11 14  1  0  0  0  0
  9 10  1  0  0  0  0
  9 11  1  0  0  0  0
  9 18  1  0  0  0  0
  7  8  1  0  0  0  0
  7  9  1  0  0  0  0
 22 23  1  0  0  0  0
 22 24  1  0  0  0  0
 22 25  1  0  0  0  0
 20 21  1  0  0  0  0
 20 22  1  0  0  0  0
M  END
$$$$
default_name
  -OEChem-01062215323D

 25 24  0     1  0  0  0  0  0999 V2000
   -2.7826   -3.8464    0.7821 H   0  0  0  0  0  0  0  0  0  0  0  0
   -2.8156   -2.8034    0.4711 C   0  0  0  0  0  0  0  0  0  0  0  0
   -3.4336   -2.2354    1.1641 H   0  0  0  0  0  0  0  0  0  0  0  0
   -3.2256   -2.7344   -0.5349 H   0  0  0  0  0  0  0  0  0  0  0  0
   -1.4126   -2.2444    0.4801 C   0  0  0  0  0  0  0  0  0  0  0  0
   -0.4686   -2.9534    0.8001 O   0  0  0  0  0  0  0  0  0  0  0  0
   -1.2736   -0.9704    0.1241 N   0  0  0  0  0  0  0  0  0  0  0  0
   -2.0996   -0.4354   -0.1019 H   0  0  0  0  0  0  0  0  0  0  0  0
   -0.0016   -0.2394    0.1271 C   0  0  1  0  0  0  0  0  0  0  0  0
    0.6017   -0.5910   -0.7128 H   0  0  0  0  0  0  0  0  0  0  0  0
   -0.2770    1.2664   -0.0543 C   0  0  0  0  0  0  0  0  0  0  0  0
   -1.0362    1.5852    0.6608 H   0  0  0  0  0  0  0  0  0  0  0  0
    0.6327    1.8330    0.1478 H   0  0  0  0  0  0  0  0  0  0  0  0
   -0.7939    1.6257   -1.4441 C   0  0  0  0  0  0  0  0  0  0  0  0
   -0.5403    1.0202   -2.4772 O   0  0  0  0  0  0  0  0  0  0  0  0
   -1.5861    2.7131   -1.4880 O   0  0  0  0  0  0  0  0  0  0  0  0
   -1.8499    2.8089   -2.4037 H   0  0  0  0  0  0  0  0  0  0  0  0
    0.7709   -0.5262    1.4301 C   0  0  0  0  0  0  0  0  0  0  0  0
    1.8840   -1.0477    1.3790 O   0  0  0  0  0  0  0  0  0  0  0  0
    0.1885   -0.1990    2.5892 N   0  0  0  0  0  0  0  0  0  0  0  0
   -0.7566    0.1684    2.5495 H   0  0  0  0  0  0  0  0  0  0  0  0
    0.7944   -0.4016    3.9035 C   0  0  0  0  0  0  0  0  0  0  0  0
    1.7944    0.0373    3.9204 H   0  0  0  0  0  0  0  0  0  0  0  0
    0.1825    0.0677    4.6749 H   0  0  0  0  0  0  0  0  0  0  0  0
    0.8788   -1.4700    4.1097 H   0  0  0  0  0  0  0  0  0  0  0  0
  5  6  2  0  0  0  0
  5  7  1  0  0  0  0
  2  3  1  0  0  0  0
  2  4  1  0  0  0  0
  2  5  1  0  0  0  0
  1  2  1  0  0  0  0
 18 19  2  0  0  0  0
 18 20  1  0  0  0  0
 16 17  1  0  0  0  0
 14 15  2  0  0  0  0
 14 16  1  0  0  0  0
 11 12  1  0  0  0  0
 11 13  1  0  0  0  0
 11 14  1  0  0  0  0
  9 10  1  0  0  0  0
  9 11  1  0  0  0  0
  9 18  1  0  0  0  0
  7  8  1  0  0  0  0
  7  9  1  0  0  0  0
 22 23  1  0  0  0  0
 22 24  1  0  0  0  0
 22 25  1  0  0  0  0
 20 21  1  0  0  0  0
 20 22  1  0  0  0  0
M  END
$$$$
default_name
  -OEChem-01062215323D

 25 24  0     1  0  0  0  0  0999 V2000
   -2.7826   -3.8464    0.7821 H   0  0  0  0  0  0  0  0  0  0  0  0
   -2.8156   -2.8034    0.4711 C   0  0  0  0  0  0  0  0  0  0  0  0
   -3.4336   -2.2354    1.1641 H   0  0  0  0  0  0  0  0  0  0  0  0
   -3.2256   -2.7344   -0.5349 H   0  0  0  0  0  0  0  0  0  0  0  0
   -1.4126   -2.2444    0.4801 C   0  0  0  0  0  0  0  0  0  0  0  0
   -0.4686   -2.9534    0.8001 O   0  0  0  0  0  0  0  0  0  0  0  0
   -1.2736   -0.9704    0.1241 N   0  0  0  0  0  0  0  0  0  0  0  0
   -2.0996   -0.4354   -0.1019 H   0  0  0  0  0  0  0  0  0  0  0  0
   -0.0016   -0.2394    0.1271 C   0  0  1  0  0  0  0  0  0  0  0  0
    0.6017   -0.5910   -0.7128 H   0  0  0  0  0  0  0  0  0  0  0  0
   -0.2770    1.2664   -0.0543 C   0  0  0  0  0  0  0  0  0  0  0  0
   -1.0362    1.5852    0.6608 H   0  0  0  0  0  0  0  0  0  0  0  0
    0.6327    1.8330    0.1478 H   0  0  0  0  0  0  0  0  0  0  0  0
   -0.7939    1.6257   -1.4441 C   0  0  0  0  0  0  0  0  0  0  0  0
   -0.5403    1.0202   -2.4772 O   0  0  0  0  0  0  0  0  0  0  0  0
   -1.5861    2.7131   -1.4880 O   0  0  0  0  0  0  0  0  0  0  0  0
   -1.8499    2.8089   -2.4037 H   0  0  0  0  0  0  0  0  0  0  0  0
    0.7709   -0.5262    1.4301 C   0  0  0  0  0  0  0  0  0  0  0  0
    1.9730   -0.7837    1.3842 O   0  0  0  0  0  0  0  0  0  0  0  0
    0.0917   -0.4919    2.5821 N   0  0  0  0  0  0  0  0  0  0  0  0
   -0.9095   -0.3349    2.5294 H   0  0  0  0  0  0  0  0  0  0  0  0
    0.6828   -0.7347    3.8963 C   0  0  0  0  0  0  0  0  0  0  0  0
    1.5592   -0.0969    4.0302 H   0  0  0  0  0  0  0  0  0  0  0  0
   -0.0436   -0.5169    4.6803 H   0  0  0  0  0  0  0  0  0  0  0  0
    0.9952   -1.7776    3.9730 H   0  0  0  0  0  0  0  0  0  0  0  0
  5  6  2  0  0  0  0
  5  7  1  0  0  0  0
  2  3  1  0  0  0  0
  2  4  1  0  0  0  0
  2  5  1  0  0  0  0
  1  2  1  0  0  0  0
 18 19  2  0  0  0  0
 18 20  1  0  0  0  0
 16 17  1  0  0  0  0
 14 15  2  0  0  0  0
 14 16  1  0  0  0  0
 11 12  1  0  0  0  0
 11 13  1  0  0  0  0
 11 14  1  0  0  0  0
  9 10  1  0  0  0  0
  9 11  1  0  0  0  0
  9 18  1  0  0  0  0
  7  8  1  0  0  0  0
  7  9  1  0  0  0  0
 22 23  1  0  0  0  0
 22 24  1  0  0  0  0
 22 25  1  0  0  0  0
 20 21  1  0  0  0  0
 20 22  1  0  0  0  0
M  END
$$$$
default_name
  -OEChem-01062215323D

 25 24  0     1  0  0  0  0  0999 V2000
   -2.7826   -3.8464    0.7821 H   0  0  0  0  0  0  0  0  0  0  0  0
   -2.8156   -2.8034    0.4711 C   0  0  0  0  0  0  0  0  0  0  0  0
   -3.4336   -2.2354    1.1641 H   0  0  0  0  0  0  0  0  0  0  0  0
   -3.2256   -2.7344   -0.5349 H   0  0  0  0  0  0  0  0  0  0  0  0
   -1.4126   -2.2444    0.4801 C   0  0  0  0  0  0  0  0  0  0  0  0
   -0.4686   -2.9534    0.8001 O   0  0  0  0  0  0  0  0  0  0  0  0
   -1.2736   -0.9704    0.1241 N   0  0  0  0  0  0  0  0  0  0  0  0
   -2.0996   -0.4354   -0.1019 H   0  0  0  0  0  0  0  0  0  0  0  0
   -0.0016   -0.2394    0.1271 C   0  0  1  0  0  0  0  0  0  0  0  0
    0.6017   -0.5910   -0.7128 H   0  0  0  0  0  0  0  0  0  0  0  0
   -0.2770    1.2664   -0.0543 C   0  0  0  0  0  0  0  0  0  0  0  0
   -1.0362    1.5852    0.6608 H   0  0  0  0  0  0  0  0  0  0  0  0
    0.6327    1.8330    0.1478 H   0  0  0  0  0  0  0  0  0  0  0  0
   -0.7939    1.6257   -1.4441 C   0  0  0  0  0  0  0  0  0  0  0  0
   -0.5403    1.0202   -2.4772 O   0  0  0  0  0  0  0  0  0  0  0  0
   -1.5861    2.7131   -1.4880 O   0  0  0  0  0  0  0  0  0  0  0  0
   -1.8499    2.8089   -2.4037 H   0  0  0  0  0  0  0  0  0  0  0  0
    0.7709   -0.5262    1.4301 C   0  0  0  0  0  0  0  0  0  0  0  0
    2.0011   -0.5099    1.4279 O   0  0  0  0  0  0  0  0  0  0  0  0
    0.0626   -0.7950    2.5327 N   0  0  0  0  0  0  0  0  0  0  0  0
   -0.9461   -0.8519    2.4373 H   0  0  0  0  0  0  0  0  0  0  0  0
    0.6482   -1.0799    3.8409 C   0  0  0  0  0  0  0  0  0  0  0  0
    1.3562   -0.2922    4.1076 H   0  0  0  0  0  0  0  0  0  0  0  0
   -0.1344   -1.1317    4.5989 H   0  0  0  0  0  0  0  0  0  0  0  0
    1.1815   -2.0315    3.8067 H   0  0  0  0  0  0  0  0  0  0  0  0
  5  6  2  0  0  0  0
  5  7  1  0  0  0  0
  2  3  1  0  0  0  0
  2  4  1  0  0  0  0
  2  5  1  0  0  0  0
  1  2  1  0  0  0  0
 18 19  2  0  0  0  0
 18 20  1  0  0  0  0
 16 17  1  0  0  0  0
 14 15  2  0  0  0  0
 14 16  1  0  0  0  0
 11 12  1  0  0  0  0
 11 13  1  0  0  0  0
 11 14  1  0  0  0  0
  9 10  1  0  0  0  0
  9 11  1  0  0  0  0
  9 18  1  0  0  0  0
  7  8  1  0  0  0  0
  7  9  1  0  0  0  0
 22 23  1  0  0  0  0
 22 24  1  0  0  0  0
 22 25  1  0  0  0  0
 20 21  1  0  0  0  0
 20 22  1  0  0  0  0
M  END
$$$$
default_name
  -OEChem-01062215323D

 25 24  0     1  0  0  0  0  0999 V2000
   -2.7826   -3.8464    0.7821 H   0  0  0  0  0  0  0  0  0  0  0  0
   -2.8156   -2.8034    0.4711 C   0  0  0  0  0  0  0  0  0  0  0  0
   -3.4336   -2.2354    1.1641 H   0  0  0  0  0  0  0  0  0  0  0  0
   -3.2256   -2.7344   -0.5349 H   0  0  0  0  0  0  0  0  0  0  0  0
   -1.4126   -2.2444    0.4801 C   0  0  0  0  0  0  0  0  0  0  0  0
   -0.4686   -2.9534    0.8001 O   0  0  0  0  0  0  0  0  0  0  0  0
   -1.2736   -0.9704    0.1241 N   0  0  0  0  0  0  0  0  0  0  0  0
   -2.0996   -0.4354   -0.1019 H   0  0  0  0  0  0  0  0  0  0  0  0
   -0.0016   -0.2394    0.1271 C   0  0  1  0  0  0  0  0  0  0  0  0
    0.6017   -0.5910   -0.7128 H   0  0  0  0  0  0  0  0  0  0  0  0
   -0.2770    1.2664   -0.0543 C   0  0  0  0  0  0  0  0  0  0  0  0
   -1.0362    1.5852    0.6608 H   0  0  0  0  0  0  0  0  0  0  0  0
    0.6327    1.8330    0.1478 H   0  0  0  0  0  0  0  0  0  0  0  0
   -0.7939    1.6257   -1.4441 C   0  0  0  0  0  0  0  0  0  0  0  0
   -0.5403    1.0202   -2.4772 O   0  0  0  0  0  0  0  0  0  0  0  0
   -1.5861    2.7131   -1.4880 O   0  0  0  0  0  0  0  0  0  0  0  0
   -1.8499    2.8089   -2.4037 H   0  0  0  0  0  0  0  0  0  0  0  0
    0.7709   -0.5262    1.4301 C   0  0  0  0  0  0  0  0  0  0  0  0
    1.9661   -0.2450    1.5069 O   0  0  0  0  0  0  0  0  0  0  0  0
    0.1032   -1.0877    2.4442 N   0  0  0  0  0  0  0  0  0  0  0  0
   -0.8640   -1.3474    2.2796 H   0  0  0  0  0  0  0  0  0  0  0  0
    0.6929   -1.4137    3.7409 C   0  0  0  0  0  0  0  0  0  0  0  0
    1.1991   -0.5353    4.1473 H   0  0  0  0  0  0  0  0  0  0  0  0
   -0.0837   -1.7349    4.4361 H   0  0  0  0  0  0  0  0  0  0  0  0
    1.4250   -2.2144    3.6221 H   0  0  0  0  0  0  0  0  0  0  0  0
  5  6  2  0  0  0  0
  5  7  1  0  0  0  0
  2  3  1  0  0  0  0
  2  4  1  0  0  0  0
  2  5  1  0  0  0  0
  1  2  1  0  0  0  0
 18 19  2  0  0  0  0
 18 20  1  0  0  0  0
 16 17  1  0  0  0  0
 14 15  2  0  0  0  0
 14 16  1  0  0  0  0
 11 12  1  0  0  0  0
 11 13  1  0  0  0  0
 11 14  1  0  0  0  0
  9 10  1  0  0  0  0
  9 11  1  0  0  0  0
  9 18  1  0  0  0  0
  7  8  1  0  0  0  0
  7  9  1  0  0  0  0
 22 23  1  0  0  0  0
 22 24  1  0  0  0  0
 22 25  1  0  0  0  0
 20 21  1  0  0  0  0
 20 22  1  0  0  0  0
M  END
$$$$
default_name
  -OEChem-01062215323D

 25 24  0     1  0  0  0  0  0999 V2000
   -2.7826   -3.8464    0.7821 H   0  0  0  0  0  0  0  0  0  0  0  0
   -2.8156   -2.8034    0.4711 C   0  0  0  0  0  0  0  0  0  0  0  0
   -3.4336   -2.2354    1.1641 H   0  0  0  0  0  0  0  0  0  0  0  0
   -3.2256   -2.7344   -0.5349 H   0  0  0  0  0  0  0  0  0  0  0  0
   -1.4126   -2.2444    0.4801 C   0  0  0  0  0  0  0  0  0  0  0  0
   -0.4686   -2.9534    0.8001 O   0  0  0  0  0  0  0  0  0  0  0  0
   -1.2736   -0.9704    0.1241 N   0  0  0  0  0  0  0  0  0  0  0  0
   -2.0996   -0.4354   -0.1019 H   0  0  0  0  0  0  0  0  0  0  0  0
   -0.0016   -0.2394    0.1271 C   0  0  1  0  0  0  0  0  0  0  0  0
    0.6017   -0.5910   -0.7128 H   0  0  0  0  0  0  0  0  0  0  0  0
   -0.2770    1.2664   -0.0543 C   0  0  0  0  0  0  0  0  0  0  0  0
   -1.0362    1.5852    0.6608 H   0  0  0  0  0  0  0  0  0  0  0  0
    0.6327    1.8330    0.1478 H   0  0  0  0  0  0  0  0  0  0  0  0
   -0.7939    1.6257   -1.4441 C   0  0  0  0  0  0  0  0  0  0  0  0
   -0.5403    1.0202   -2.4772 O   0  0  0  0  0  0  0  0  0  0  0  0
   -1.5861    2.7131   -1.4880 O   0  0  0  0  0  0  0  0  0  0  0  0
   -1.8499    2.8089   -2.4037 H   0  0  0  0  0  0  0  0  0  0  0  0
    0.7709   -0.5262    1.4301 C   0  0  0  0  0  0  0  0  0  0  0  0
    1.8706   -0.0069    1.6159 O   0  0  0  0  0  0  0  0  0  0  0  0
    0.2106   -1.3502    2.3227 N   0  0  0  0  0  0  0  0  0  0  0  0
   -0.6687   -1.7875    2.0669 H   0  0  0  0  0  0  0  0  0  0  0  0
    0.8140   -1.7134    3.6032 C   0  0  0  0  0  0  0  0  0  0  0  0
    1.0986   -0.8097    4.1465 H   0  0  0  0  0  0  0  0  0  0  0  0
    0.1050   -2.2853    4.2031 H   0  0  0  0  0  0  0  0  0  0  0  0
    1.7090   -2.3139    3.4317 H   0  0  0  0  0  0  0  0  0  0  0  0
  5  6  2  0  0  0  0
  5  7  1  0  0  0  0
  2  3  1  0  0  0  0
  2  4  1  0  0  0  0
  2  5  1  0  0  0  0
  1  2  1  0  0  0  0
 18 19  2  0  0  0  0
 18 20  1  0  0  0  0
 16 17  1  0  0  0  0
 14 15  2  0  0  0  0
 14 16  1  0  0  0  0
 11 12  1  0  0  0  0
 11 13  1  0  0  0  0
 11 14  1  0  0  0  0
  9 10  1  0  0  0  0
  9 11  1  0  0  0  0
  9 18  1  0  0  0  0
  7  8  1  0  0  0  0
  7  9  1  0  0  0  0
 22 23  1  0  0  0  0
 22 24  1  0  0  0  0
 22 25  1  0  0  0  0
 20 21  1  0  0  0  0
 20 22  1  0  0  0  0
M  END
$$$$
default_name
  -OEChem-01062215323D

 25 24  0     1  0  0  0  0  0999 V2000
   -2.7826   -3.8464    0.7821 H   0  0  0  0  0  0  0  0  0  0  0  0
   -2.8156   -2.8034    0.4711 C   0  0  0  0  0  0  0  0  0  0  0  0
   -3.4336   -2.2354    1.1641 H   0  0  0  0  0  0  0  0  0  0  0  0
   -3.2256   -2.7344   -0.5349 H   0  0  0  0  0  0  0  0  0  0  0  0
   -1.4126   -2.2444    0.4801 C   0  0  0  0  0  0  0  0  0  0  0  0
   -0.4686   -2.9534    0.8001 O   0  0  0  0  0  0  0  0  0  0  0  0
   -1.2736   -0.9704    0.1241 N   0  0  0  0  0  0  0  0  0  0  0  0
   -2.0996   -0.4354   -0.1019 H   0  0  0  0  0  0  0  0  0  0  0  0
   -0.0016   -0.2394    0.1271 C   0  0  1  0  0  0  0  0  0  0  0  0
    0.6017   -0.5910   -0.7128 H   0  0  0  0  0  0  0  0  0  0  0  0
   -0.2770    1.2664   -0.0543 C   0  0  0  0  0  0  0  0  0  0  0  0
   -1.0362    1.5852    0.6608 H   0  0  0  0  0  0  0  0  0  0  0  0
    0.6327    1.8330    0.1478 H   0  0  0  0  0  0  0  0  0  0  0  0
   -0.7939    1.6257   -1.4441 C   0  0  0  0  0  0  0  0  0  0  0  0
   -0.5403    1.0202   -2.4772 O   0  0  0  0  0  0  0  0  0  0  0  0
   -1.5861    2.7131   -1.4880 O   0  0  0  0  0  0  0  0  0  0  0  0
   -1.8499    2.8089   -2.4037 H   0  0  0  0  0  0  0  0  0  0  0  0
    0.7709   -0.5262    1.4301 C   0  0  0  0  0  0  0  0  0  0  0  0
    1.7211    0.1880    1.7475 O   0  0  0  0  0  0  0  0  0  0  0  0
    0.3777   -1.5644    2.1765 N   0  0  0  0  0  0  0  0  0  0  0  0
   -0.3735   -2.1424    1.8138 H   0  0  0  0  0  0  0  0  0  0  0  0
    1.0031   -1.9585    3.4371 C   0  0  0  0  0  0  0  0  0  0  0  0
    1.0616   -1.0965    4.1053 H   0  0  0  0  0  0  0  0  0  0  0  0
    0.4189   -2.7455    3.9157 H   0  0  0  0  0  0  0  0  0  0  0  0
    2.0144   -2.3232    3.2487 H   0  0  0  0  0  0  0  0  0  0  0  0
  5  6  2  0  0  0  0
  5  7  1  0  0  0  0
  2  3  1  0  0  0  0
  2  4  1  0  0  0  0
  2  5  1  0  0  0  0
  1  2  1  0  0  0  0
 18 19  2  0  0  0  0
 18 20  1  0  0  0  0
 16 17  1  0  0  0  0
 14 15  2  0  0  0  0
 14 16  1  0  0  0  0
 11 12  1  0  0  0  0
 11 13  1  0  0  0  0
 11 14  1  0  0  0  0
  9 10  1  0  0  0  0
  9 11  1  0  0  0  0
  9 18  1  0  0  0  0
  7  8  1  0  0  0  0
  7  9  1  0  0  0  0
 22 23  1  0  0  0  0
 22 24  1  0  0  0  0
 22 25  1  0  0  0  0
 20 21  1  0  0  0  0
 20 22  1  0  0  0  0
M  END
$$$$
default_name
  -OEChem-01062215323D

 25 24  0     1  0  0  0  0  0999 V2000
   -2.7826   -3.8464    0.7821 H   0  0  0  0  0  0  0  0  0  0  0  0
   -2.8156   -2.8034    0.4711 C   0  0  0  0  0  0  0  0  0  0  0  0
   -3.4336   -2.2354    1.1641 H   0  0  0  0  0  0  0  0  0  0  0  0
   -3.2256   -2.7344   -0.5349 H   0  0  0  0  0  0  0  0  0  0  0  0
   -1.4126   -2.2444    0.4801 C   0  0  0  0  0  0  0  0  0  0  0  0
   -0.4686   -2.9534    0.8001 O   0  0  0  0  0  0  0  0  0  0  0  0
   -1.2736   -0.9704    0.1241 N   0  0  0  0  0  0  0  0  0  0  0  0
   -2.0996   -0.4354   -0.1019 H   0  0  0  0  0  0  0  0  0  0  0  0
   -0.0016   -0.2394    0.1271 C   0  0  1  0  0  0  0  0  0  0  0  0
    0.6017   -0.5910   -0.7128 H   0  0  0  0  0  0  0  0  0  0  0  0
   -0.2770    1.2664   -0.0543 C   0  0  0  0  0  0  0  0  0  0  0  0
   -1.0362    1.5852    0.6608 H   0  0  0  0  0  0  0  0  0  0  0  0
    0.6327    1.8330    0.1478 H   0  0  0  0  0  0  0  0  0  0  0  0
   -0.7939    1.6257   -1.4441 C   0  0  0  0  0  0  0  0  0  0  0  0
   -0.5403    1.0202   -2.4772 O   0  0  0  0  0  0  0  0  0  0  0  0
   -1.5861    2.7131   -1.4880 O   0  0  0  0  0  0  0  0  0  0  0  0
   -1.8499    2.8089   -2.4037 H   0  0  0  0  0  0  0  0  0  0  0  0
    0.7709   -0.5262    1.4301 C   0  0  0  0  0  0  0  0  0  0  0  0
    1.5276    0.3265    1.8926 O   0  0  0  0  0  0  0  0  0  0  0  0
    0.5930   -1.7158    2.0156 N   0  0  0  0  0  0  0  0  0  0  0  0
    0.0015   -2.3877    1.5375 H   0  0  0  0  0  0  0  0  0  0  0  0
    1.2474   -2.1324    3.2540 C   0  0  0  0  0  0  0  0  0  0  0  0
    1.0906   -1.3764    4.0265 H   0  0  0  0  0  0  0  0  0  0  0  0
    0.8366   -3.0840    3.5935 H   0  0  0  0  0  0  0  0  0  0  0  0
    2.3201   -2.2416    3.0853 H   0  0  0  0  0  0  0  0  0  0  0  0
  5  6  2  0  0  0  0
  5  7  1  0  0  0  0
  2  3  1  0  0  0  0
  2  4  1  0  0  0  0
  2  5  1  0  0  0  0
  1  2  1  0  0  0  0
 18 19  2  0  0  0  0
 18 20  1  0  0  0  0
 16 17  1  0  0  0  0
 14 15  2  0  0  0  0
 14 16  1  0  0  0  0
 11 12  1  0  0  0  0
 11 13  1  0  0  0  0
 11 14  1  0  0  0  0
  9 10  1  0  0  0  0
  9 11  1  0  0  0  0
  9 18  1  0  0  0  0
  7  8  1  0  0  0  0
  7  9  1  0  0  0  0
 22 23  1  0  0  0  0
 22 24  1  0  0  0  0
 22 25  1  0  0  0  0
 20 21  1  0  0  0  0
 20 22  1  0  0  0  0
M  END
$$$$
default_name
  -OEChem-01062215323D

 25 24  0     1  0  0  0  0  0999 V2000
   -2.7826   -3.8464    0.7821 H   0  0  0  0  0  0  0  0  0  0  0  0
   -2.8156   -2.8034    0.4711 C   0  0  0  0  0  0  0  0  0  0  0  0
   -3.4336   -2.2354    1.1641 H   0  0  0  0  0  0  0  0  0  0  0  0
   -3.2256   -2.7344   -0.5349 H   0  0  0  0  0  0  0  0  0  0  0  0
   -1.4126   -2.2444    0.4801 C   0  0  0  0  0  0  0  0  0  0  0  0
   -0.4686   -2.9534    0.8001 O   0  0  0  0  0  0  0  0  0  0  0  0
   -1.2736   -0.9704    0.1241 N   0  0  0  0  0  0  0  0  0  0  0  0
   -2.0996   -0.4354   -0.1019 H   0  0  0  0  0  0  0  0  0  0  0  0
   -0.0016   -0.2394    0.1271 C   0  0  1  0  0  0  0  0  0  0  0  0
    0.6017   -0.5910   -0.7128 H   0  0  0  0  0  0  0  0  0  0  0  0
   -0.2770    1.2664   -0.0543 C   0  0  0  0  0  0  0  0  0  0  0  0
   -1.0362    1.5852    0.6608 H   0  0  0  0  0  0  0  0  0  0  0  0
    0.6327    1.8330    0.1478 H   0  0  0  0  0  0  0  0  0  0  0  0
   -0.7939    1.6257   -1.4441 C   0  0  0  0  0  0  0  0  0  0  0  0
   -0.5403    1.0202   -2.4772 O   0  0  0  0  0  0  0  0  0  0  0  0
   -1.5861    2.7131   -1.4880 O   0  0  0  0  0  0  0  0  0  0  0  0
   -1.8499    2.8089   -2.4037 H   0  0  0  0  0  0  0  0  0  0  0  0
    0.7709   -0.5262    1.4301 C   0  0  0  0  0  0  0  0  0  0  0  0
    1.3035    0.3991    2.0415 O   0  0  0  0  0  0  0  0  0  0  0  0
    0.8418   -1.7941    1.8508 N   0  0  0  0  0  0  0  0  0  0  0  0
    0.4306   -2.5069    1.2569 H   0  0  0  0  0  0  0  0  0  0  0  0
    1.5302   -2.2231    3.0664 C   0  0  0  0  0  0  0  0  0  0  0  0
    1.1836   -1.6301    3.9155 H   0  0  0  0  0  0  0  0  0  0  0  0
    1.3297   -3.2779    3.2586 H   0  0  0  0  0  0  0  0  0  0  0  0
    2.6055   -2.0747    2.9529 H   0  0  0  0  0  0  0  0  0  0  0  0
  5  6  2  0  0  0  0
  5  7  1  0  0  0  0
  2  3  1  0  0  0  0
  2  4  1  0  0  0  0
  2  5  1  0  0  0  0
  1  2  1  0  0  0  0
 18 19  2  0  0  0  0
 18 20  1  0  0  0  0
 16 17  1  0  0  0  0
 14 15  2  0  0  0  0
 14 16  1  0  0  0  0
 11 12  1  0  0  0  0
 11 13  1  0  0  0  0
 11 14  1  0  0  0  0
  9 10  1  0  0  0  0
  9 11  1  0  0  0  0
  9 18  1  0  0  0  0
  7  8  1  0  0  0  0
  7  9  1  0  0  0  0
 22 23  1  0  0  0  0
 22 24  1  0  0  0  0
 22 25  1  0  0  0  0
 20 21  1  0  0  0  0
 20 22  1  0  0  0  0
M  END
$$$$
default_name
  -OEChem-01062215323D

 25 24  0     1  0  0  0  0  0999 V2000
   -2.7826   -3.8464    0.7821 H   0  0  0  0  0  0  0  0  0  0  0  0
   -2.8156   -2.8034    0.4711 C   0  0  0  0  0  0  0  0  0  0  0  0
   -3.4336   -2.2354    1.1641 H   0  0  0  0  0  0  0  0  0  0  0  0
   -3.2256   -2.7344   -0.5349 H   0  0  0  0  0  0  0  0  0  0  0  0
   -1.4126   -2.2444    0.4801 C   0  0  0  0  0  0  0  0  0  0  0  0
   -0.4686   -2.9534    0.8001 O   0  0  0  0  0  0  0  0  0  0  0  0
   -1.2736   -0.9704    0.1241 N   0  0  0  0  0  0  0  0  0  0  0  0
   -2.0996   -0.4354   -0.1019 H   0  0  0  0  0  0  0  0  0  0  0  0
   -0.0016   -0.2394    0.1271 C   0  0  1  0  0  0  0  0  0  0  0  0
    0.6017   -0.5910   -0.7128 H   0  0  0  0  0  0  0  0  0  0  0  0
   -0.2770    1.2664   -0.0543 C   0  0  0  0  0  0  0  0  0  0  0  0
   -1.0362    1.5852    0.6608 H   0  0  0  0  0  0  0  0  0  0  0  0
    0.6327    1.8330    0.1478 H   0  0  0  0  0  0  0  0  0  0  0  0
   -0.7939    1.6257   -1.4441 C   0  0  0  0  0  0  0  0  0  0  0  0
   -0.5403    1.0202   -2.4772 O   0  0  0  0  0  0  0  0  0  0  0  0
   -1.5861    2.7131   -1.4880 O   0  0  0  0  0  0  0  0  0  0  0  0
   -1.8499    2.8089   -2.4037 H   0  0  0  0  0  0  0  0  0  0  0  0
    0.7709   -0.5262    1.4301 C   0  0  0  0  0  0  0  0  0  0  0  0
    1.0640    0.4009    2.1839 O   0  0  0  0  0  0  0  0  0  0  0  0
    1.1072   -1.7939    1.6935 N   0  0  0  0  0  0  0  0  0  0  0  0
    0.8847   -2.4917    0.9910 H   0  0  0  0  0  0  0  0  0  0  0  0
    1.8323   -2.2246    2.8870 C   0  0  0  0  0  0  0  0  0  0  0  0
    1.3343   -1.8405    3.7799 H   0  0  0  0  0  0  0  0  0  0  0  0
    1.8645   -3.3139    2.9336 H   0  0  0  0  0  0  0  0  0  0  0  0
    2.8510   -1.8339    2.8603 H   0  0  0  0  0  0  0  0  0  0  0  0
  5  6  2  0  0  0  0
  5  7  1  0  0  0  0
  2  3  1  0  0  0  0
  2  4  1  0  0  0  0
  2  5  1  0  0  0  0
  1  2  1  0  0  0  0
 18 19  2  0  0  0  0
 18 20  1  0  0  0  0
 16 17  1  0  0  0  0
 14 15  2  0  0  0  0
 14 16  1  0  0  0  0
 11 12  1  0  0  0  0
 11 13  1  0  0  0  0
 11 14  1  0  0  0  0
  9 10  1  0  0  0  0
  9 11  1  0  0  0  0
  9 18  1  0  0  0  0
  7  8  1  0  0  0  0
  7  9  1  0  0  0  0
 22 23  1  0  0  0  0
 22 24  1  0  0  0  0
 22 25  1  0  0  0  0
 20 21  1  0  0  0  0
 20 22  1  0  0  0  0
M  END
$$$$
default_name
  -OEChem-01062215323D

 25 24  0     1  0  0  0  0  0999 V2000
   -2.7826   -3.8464    0.7821 H   0  0  0  0  0  0  0  0  0  0  0  0
   -2.8156   -2.8034    0.4711 C   0  0  0  0  0  0  0  0  0  0  0  0
   -3.4336   -2.2354    1.1641 H   0  0  0  0  0  0  0  0  0  0  0  0
   -3.2256   -2.7344   -0.5349 H   0  0  0  0  0  0  0  0  0  0  0  0
   -1.4126   -2.2444    0.4801 C   0  0  0  0  0  0  0  0  0  0  0  0
   -0.4686   -2.9534    0.8001 O   0  0  0  0  0  0  0  0  0  0  0  0
   -1.2736   -0.9704    0.1241 N   0  0  0  0  0  0  0  0  0  0  0  0
   -2.0996   -0.4354   -0.1019 H   0  0  0  0  0  0  0  0  0  0  0  0
   -0.0016   -0.2394    0.1271 C   0  0  1  0  0  0  0  0  0  0  0  0
    0.6017   -0.5910   -0.7128 H   0  0  0  0  0  0  0  0  0  0  0  0
   -0.2770    1.2664   -0.0543 C   0  0  0  0  0  0  0  0  0  0  0  0
   -1.0362    1.5852    0.6608 H   0  0  0  0  0  0  0  0  0  0  0  0
    0.6327    1.8330    0.1478 H   0  0  0  0  0  0  0  0  0  0  0  0
   -0.7939    1.6257   -1.4441 C   0  0  0  0  0  0  0  0  0  0  0  0
   -0.5403    1.0202   -2.4772 O   0  0  0  0  0  0  0  0  0  0  0  0
   -1.5861    2.7131   -1.4880 O   0  0  0  0  0  0  0  0  0  0  0  0
   -1.8499    2.8089   -2.4037 H   0  0  0  0  0  0  0  0  0  0  0  0
    0.7709   -0.5262    1.4301 C   0  0  0  0  0  0  0  0  0  0  0  0
    0.8254    0.3318    2.3102 O   0  0  0  0  0  0  0  0  0  0  0  0
    1.3711   -1.7153    1.5544 N   0  0  0  0  0  0  0  0  0  0  0  0
    1.3328   -2.3432    0.7580 H   0  0  0  0  0  0  0  0  0  0  0  0
    2.1330   -2.1367    2.7280 C   0  0  0  0  0  0  0  0  0  0  0  0
    1.5324   -1.9931    3.6289 H   0  0  0  0  0  0  0  0  0  0  0  0
    2.4045   -3.1895    2.6408 H   0  0  0  0  0  0  0  0  0  0  0  0
    3.0399   -1.5357    2.8139 H   0  0  0  0  0  0  0  0  0  0  0  0
  5  6  2  0  0  0  0
  5  7  1  0  0  0  0
  2  3  1  0  0  0  0
  2  4  1  0  0  0  0
  2  5  1  0  0  0  0
  1  2  1  0  0  0  0
 18 19  2  0  0  0  0
 18 20  1  0  0  0  0
 16 17  1  0  0  0  0
 14 15  2  0  0  0  0
 14 16  1  0  0  0  0
 11 12  1  0  0  0  0
 11 13  1  0  0  0  0
 11 14  1  0  0  0  0
  9 10  1  0  0  0  0
  9 11  1  0  0  0  0
  9 18  1  0  0  0  0
  7  8  1  0  0  0  0
  7  9  1  0  0  0  0
 22 23  1  0  0  0  0
 22 24  1  0  0  0  0
 22 25  1  0  0  0  0
 20 21  1  0  0  0  0
 20 22  1  0  0  0  0
M  END
$$$$
default_name
  -OEChem-01062215323D

 25 24  0     1  0  0  0  0  0999 V2000
   -2.7826   -3.8464    0.7821 H   0  0  0  0  0  0  0  0  0  0  0  0
   -2.8156   -2.8034    0.4711 C   0  0  0  0  0  0  0  0  0  0  0  0
   -3.4336   -2.2354    1.1641 H   0  0  0  0  0  0  0  0  0  0  0  0
   -3.2256   -2.7344   -0.5349 H   0  0  0  0  0  0  0  0  0  0  0  0
   -1.4126   -2.2444    0.4801 C   0  0  0  0  0  0  0  0  0  0  0  0
   -0.4686   -2.9534    0.8001 O   0  0  0  0  0  0  0  0  0  0  0  0
   -1.2736   -0.9704    0.1241 N   0  0  0  0  0  0  0  0  0  0  0  0
   -2.0996   -0.4354   -0.1019 H   0  0  0  0  0  0  0  0  0  0  0  0
   -0.0016   -0.2394    0.1271 C   0  0  1  0  0  0  0  0  0  0  0  0
    0.6017   -0.5910   -0.7128 H   0  0  0  0  0  0  0  0  0  0  0  0
   -0.2770    1.2664   -0.0543 C   0  0  0  0  0  0  0  0  0  0  0  0
   -1.0362    1.5852    0.6608 H   0  0  0  0  0  0  0  0  0  0  0  0
    0.6327    1.8330    0.1478 H   0  0  0  0  0  0  0  0  0  0  0  0
   -0.7939    1.6257   -1.4441 C   0  0  0  0  0  0  0  0  0  0  0  0
   -0.5403    1.0202   -2.4772 O   0  0  0  0  0  0  0  0  0  0  0  0
   -1.5861    2.7131   -1.4880 O   0  0  0  0  0  0  0  0  0  0  0  0
   -1.8499    2.8089   -2.4037 H   0  0  0  0  0  0  0  0  0  0  0  0
    0.7709   -0.5262    1.4301 C   0  0  0  0  0  0  0  0  0  0  0  0
    0.6039    0.1965    2.4117 O   0  0  0  0  0  0  0  0  0  0  0  0
    1.6154   -1.5636    1.4429 N   0  0  0  0  0  0  0  0  0  0  0  0
    1.7443   -2.0715    0.5738 H   0  0  0  0  0  0  0  0  0  0  0  0
    2.4119   -1.9653    2.6004 C   0  0  0  0  0  0  0  0  0  0  0  0
    1.7644   -2.0777    3.4727 H   0  0  0  0  0  0  0  0  0  0  0  0
    2.9131   -2.9132    2.4001 H   0  0  0  0  0  0  0  0  0  0  0  0
    3.1594   -1.2002    2.8169 H   0  0  0  0  0  0  0  0  0  0  0  0
  5  6  2  0  0  0  0
  5  7  1  0  0  0  0
  2  3  1  0  0  0  0
  2  4  1  0  0  0  0
  2  5  1  0  0  0  0
  1  2  1  0  0  0  0
 18 19  2  0  0  0  0
 18 20  1  0  0  0  0
 16 17  1  0  0  0  0
 14 15  2  0  0  0  0
 14 16  1  0  0  0  0
 11 12  1  0  0  0  0
 11 13  1  0  0  0  0
 11 14  1  0  0  0  0
  9 10  1  0  0  0  0
  9 11  1  0  0  0  0
  9 18  1  0  0  0  0
  7  8  1  0  0  0  0
  7  9  1  0  0  0  0
 22 23  1  0  0  0  0
 22 24  1  0  0  0  0
 22 25  1  0  0  0  0
 20 21  1  0  0  0  0
 20 22  1  0  0  0  0
M  END
$$$$
default_name
  -OEChem-01062215323D

 25 24  0     1  0  0  0  0  0999 V2000
   -2.7826   -3.8464    0.7821 H   0  0  0  0  0  0  0  0  0  0  0  0
   -2.8156   -2.8034    0.4711 C   0  0  0  0  0  0  0  0  0  0  0  0
   -3.4336   -2.2354    1.1641 H   0  0  0  0  0  0  0  0  0  0  0  0
   -3.2256   -2.7344   -0.5349 H   0  0  0  0  0  0  0  0  0  0  0  0
   -1.4126   -2.2444    0.4801 C   0  0  0  0  0  0  0  0  0  0  0  0
   -0.4686   -2.9534    0.8001 O   0  0  0  0  0  0  0  0  0  0  0  0
   -1.2736   -0.9704    0.1241 N   0  0  0  0  0  0  0  0  0  0  0  0
   -2.0996   -0.4354   -0.1019 H   0  0  0  0  0  0  0  0  0  0  0  0
   -0.0016   -0.2394    0.1271 C   0  0  1  0  0  0  0  0  0  0  0  0
    0.6017   -0.5910   -0.7128 H   0  0  0  0  0  0  0  0  0  0  0  0
   -0.2770    1.2664   -0.0543 C   0  0  0  0  0  0  0  0  0  0  0  0
   -1.0362    1.5852    0.6608 H   0  0  0  0  0  0  0  0  0  0  0  0
    0.6327    1.8330    0.1478 H   0  0  0  0  0  0  0  0  0  0  0  0
   -0.7939    1.6257   -1.4441 C   0  0  0  0  0  0  0  0  0  0  0  0
   -0.5403    1.0202   -2.4772 O   0  0  0  0  0  0  0  0  0  0  0  0
   -1.5861    2.7131   -1.4880 O   0  0  0  0  0  0  0  0  0  0  0  0
   -1.8499    2.8089   -2.4037 H   0  0  0  0  0  0  0  0  0  0  0  0
    0.7709   -0.5262    1.4301 C   0  0  0  0  0  0  0  0  0  0  0  0
    0.4147    0.0041    2.4815 O   0  0  0  0  0  0  0  0  0  0  0  0
    1.8237   -1.3491    1.3666 N   0  0  0  0  0  0  0  0  0  0  0  0
    2.0913   -1.6952    0.4509 H   0  0  0  0  0  0  0  0  0  0  0  0
    2.6500   -1.7223    2.5127 C   0  0  0  0  0  0  0  0  0  0  0  0
    2.0145   -2.0883    3.3221 H   0  0  0  0  0  0  0  0  0  0  0  0
    3.3554   -2.5039    2.2279 H   0  0  0  0  0  0  0  0  0  0  0  0
    3.2013   -0.8504    2.8690 H   0  0  0  0  0  0  0  0  0  0  0  0
  5  6  2  0  0  0  0
  5  7  1  0  0  0  0
  2  3  1  0  0  0  0
  2  4  1  0  0  0  0
  2  5  1  0  0  0  0
  1  2  1  0  0  0  0
 18 19  2  0  0  0  0
 18 20  1  0  0  0  0
 16 17  1  0  0  0  0
 14 15  2  0  0  0  0
 14 16  1  0  0  0  0
 11 12  1  0  0  0  0
 11 13  1  0  0  0  0
 11 14  1  0  0  0  0
  9 10  1  0  0  0  0
  9 11  1  0  0  0  0
  9 18  1  0  0  0  0
  7  8  1  0  0  0  0
  7  9  1  0  0  0  0
 22 23  1  0  0  0  0
 22 24  1  0  0  0  0
 22 25  1  0  0  0  0
 20 21  1  0  0  0  0
 20 22  1  0  0  0  0
M  END
$$$$
default_name
  -OEChem-01062215323D

 25 24  0     1  0  0  0  0  0999 V2000
   -2.7826   -3.8464    0.7821 H   0  0  0  0  0  0  0  0  0  0  0  0
   -2.8156   -2.8034    0.4711 C   0  0  0  0  0  0  0  0  0  0  0  0
   -3.4336   -2.2354    1.1641 H   0  0  0  0  0  0  0  0  0  0  0  0
   -3.2256   -2.7344   -0.5349 H   0  0  0  0  0  0  0  0  0  0  0  0
   -1.4126   -2.2444    0.4801 C   0  0  0  0  0  0  0  0  0  0  0  0
   -0.4686   -2.9534    0.8001 O   0  0  0  0  0  0  0  0  0  0  0  0
   -1.2736   -0.9704    0.1241 N   0  0  0  0  0  0  0  0  0  0  0  0
   -2.0996   -0.4354   -0.1019 H   0  0  0  0  0  0  0  0  0  0  0  0
   -0.0016   -0.2394    0.1271 C   0  0  1  0  0  0  0  0  0  0  0  0
    0.6017   -0.5910   -0.7128 H   0  0  0  0  0  0  0  0  0  0  0  0
   -0.2770    1.2664   -0.0543 C   0  0  0  0  0  0  0  0  0  0  0  0
   -1.0362    1.5852    0.6608 H   0  0  0  0  0  0  0  0  0  0  0  0
    0.6327    1.8330    0.1478 H   0  0  0  0  0  0  0  0  0  0  0  0
   -0.7939    1.6257   -1.4441 C   0  0  0  0  0  0  0  0  0  0  0  0
   -0.5403    1.0202   -2.4772 O   0  0  0  0  0  0  0  0  0  0  0  0
   -1.5861    2.7131   -1.4880 O   0  0  0  0  0  0  0  0  0  0  0  0
   -1.8499    2.8089   -2.4037 H   0  0  0  0  0  0  0  0  0  0  0  0
    0.7709   -0.5262    1.4301 C   0  0  0  0  0  0  0  0  0  0  0  0
    0.2707   -0.2321    2.5149 O   0  0  0  0  0  0  0  0  0  0  0  0
    1.9816   -1.0865    1.3308 N   0  0  0  0  0  0  0  0  0  0  0  0
    2.3500   -1.2399    0.3977 H   0  0  0  0  0  0  0  0  0  0  0  0
    2.8310   -1.4241    2.4710 C   0  0  0  0  0  0  0  0  0  0  0  0
    2.2657   -2.0243    3.1873 H   0  0  0  0  0  0  0  0  0  0  0  0
    3.7015   -1.9894    2.1359 H   0  0  0  0  0  0  0  0  0  0  0  0
    3.1627   -0.5101    2.9668 H   0  0  0  0  0  0  0  0  0  0  0  0
  5  6  2  0  0  0  0
  5  7  1  0  0  0  0
  2  3  1  0  0  0  0
  2  4  1  0  0  0  0
  2  5  1  0  0  0  0
  1  2  1  0  0  0  0
 18 19  2  0  0  0  0
 18 20  1  0  0  0  0
 16 17  1  0  0  0  0
 14 15  2  0  0  0  0
 14 16  1  0  0  0  0
 11 12  1  0  0  0  0
 11 13  1  0  0  0  0
 11 14  1  0  0  0  0
  9 10  1  0  0  0  0
  9 11  1  0  0  0  0
  9 18  1  0  0  0  0
  7  8  1  0  0  0  0
  7  9  1  0  0  0  0
 22 23  1  0  0  0  0
 22 24  1  0  0  0  0
 22 25  1  0  0  0  0
 20 21  1  0  0  0  0
 20 22  1  0  0  0  0
M  END
$$$$
default_name
  -OEChem-01062215323D

 25 24  0     1  0  0  0  0  0999 V2000
   -2.7826   -3.8464    0.7821 H   0  0  0  0  0  0  0  0  0  0  0  0
   -2.8156   -2.8034    0.4711 C   0  0  0  0  0  0  0  0  0  0  0  0
   -3.4336   -2.2354    1.1641 H   0  0  0  0  0  0  0  0  0  0  0  0
   -3.2256   -2.7344   -0.5349 H   0  0  0  0  0  0  0  0  0  0  0  0
   -1.4126   -2.2444    0.4801 C   0  0  0  0  0  0  0  0  0  0  0  0
   -0.4686   -2.9534    0.8001 O   0  0  0  0  0  0  0  0  0  0  0  0
   -1.2736   -0.9704    0.1241 N   0  0  0  0  0  0  0  0  0  0  0  0
   -2.0996   -0.4354   -0.1019 H   0  0  0  0  0  0  0  0  0  0  0  0
   -0.0016   -0.2394    0.1271 C   0  0  1  0  0  0  0  0  0  0  0  0
    0.6017   -0.5910   -0.7128 H   0  0  0  0  0  0  0  0  0  0  0  0
   -0.2770    1.2664   -0.0543 C   0  0  0  0  0  0  0  0  0  0  0  0
   -1.0362    1.5852    0.6608 H   0  0  0  0  0  0  0  0  0  0  0  0
    0.6327    1.8330    0.1478 H   0  0  0  0  0  0  0  0  0  0  0  0
   -0.7939    1.6257   -1.4441 C   0  0  0  0  0  0  0  0  0  0  0  0
   -0.5403    1.0202   -2.4772 O   0  0  0  0  0  0  0  0  0  0  0  0
   -1.5861    2.7131   -1.4880 O   0  0  0  0  0  0  0  0  0  0  0  0
   -1.8499    2.8089   -2.4037 H   0  0  0  0  0  0  0  0  0  0  0  0
    0.7709   -0.5262    1.4301 C   0  0  0  0  0  0  0  0  0  0  0  0
    0.1816   -0.4961    2.5096 O   0  0  0  0  0  0  0  0  0  0  0  0
    2.0784   -0.7937    1.3378 N   0  0  0  0  0  0  0  0  0  0  0  0
    2.5029   -0.7366    0.4178 H   0  0  0  0  0  0  0  0  0  0  0  0
    2.9426   -1.0910    2.4781 C   0  0  0  0  0  0  0  0  0  0  0  0
    2.5008   -1.8901    3.0774 H   0  0  0  0  0  0  0  0  0  0  0  0
    3.9276   -1.4048    2.1305 H   0  0  0  0  0  0  0  0  0  0  0  0
    3.0463   -0.2026    3.1035 H   0  0  0  0  0  0  0  0  0  0  0  0
  5  6  2  0  0  0  0
  5  7  1  0  0  0  0
  2  3  1  0  0  0  0
  2  4  1  0  0  0  0
  2  5  1  0  0  0  0
  1  2  1  0  0  0  0
 18 19  2  0  0  0  0
 18 20  1  0  0  0  0
 16 17  1  0  0  0  0
 14 15  2  0  0  0  0
 14 16  1  0  0  0  0
 11 12  1  0  0  0  0
 11 13  1  0  0  0  0
 11 14  1  0  0  0  0
  9 10  1  0  0  0  0
  9 11  1  0  0  0  0
  9 18  1  0  0  0  0
  7  8  1  0  0  0  0
  7  9  1  0  0  0  0
 22 23  1  0  0  0  0
 22 24  1  0  0  0  0
 22 25  1  0  0  0  0
 20 21  1  0  0  0  0
 20 22  1  0  0  0  0
M  END
$$$$
default_name
  -OEChem-01062215323D

 25 24  0     1  0  0  0  0  0999 V2000
   -2.7826   -3.8464    0.7821 H   0  0  0  0  0  0  0  0  0  0  0  0
   -2.8156   -2.8034    0.4711 C   0  0  0  0  0  0  0  0  0  0  0  0
   -3.4336   -2.2354    1.1641 H   0  0  0  0  0  0  0  0  0  0  0  0
   -3.2256   -2.7344   -0.5349 H   0  0  0  0  0  0  0  0  0  0  0  0
   -1.4126   -2.2444    0.4801 C   0  0  0  0  0  0  0  0  0  0  0  0
   -0.4686   -2.9534    0.8001 O   0  0  0  0  0  0  0  0  0  0  0  0
   -1.2736   -0.9704    0.1241 N   0  0  0  0  0  0  0  0  0  0  0  0
   -2.0996   -0.4354   -0.1019 H   0  0  0  0  0  0  0  0  0  0  0  0
   -0.0016   -0.2394    0.1271 C   0  0  1  0  0  0  0  0  0  0  0  0
    0.6017   -0.5910   -0.7128 H   0  0  0  0  0  0  0  0  0  0  0  0
   -0.2770    1.2664   -0.0543 C   0  0  0  0  0  0  0  0  0  0  0  0
   -1.0362    1.5852    0.6608 H   0  0  0  0  0  0  0  0  0  0  0  0
    0.6327    1.8330    0.1478 H   0  0  0  0  0  0  0  0  0  0  0  0
   -0.7939    1.6257   -1.4441 C   0  0  0  0  0  0  0  0  0  0  0  0
   -0.5403    1.0202   -2.4772 O   0  0  0  0  0  0  0  0  0  0  0  0
   -1.5861    2.7131   -1.4880 O   0  0  0  0  0  0  0  0  0  0  0  0
   -1.8499    2.8089   -2.4037 H   0  0  0  0  0  0  0  0  0  0  0  0
    0.7709   -0.5262    1.4301 C   0  0  0  0  0  0  0  0  0  0  0  0
    0.1536   -0.7699    2.4660 O   0  0  0  0  0  0  0  0  0  0  0  0
    2.1075   -0.4906    1.3873 N   0  0  0  0  0  0  0  0  0  0  0  0
    2.5395   -0.2196    0.5099 H   0  0  0  0  0  0  0  0  0  0  0  0
    2.9772   -0.7458    2.5336 C   0  0  0  0  0  0  0  0  0  0  0  0
    2.7038   -1.6948    3.0000 H   0  0  0  0  0  0  0  0  0  0  0  0
    4.0185   -0.7900    2.2119 H   0  0  0  0  0  0  0  0  0  0  0  0
    2.8601    0.0513    3.2698 H   0  0  0  0  0  0  0  0  0  0  0  0
  5  6  2  0  0  0  0
  5  7  1  0  0  0  0
  2  3  1  0  0  0  0
  2  4  1  0  0  0  0
  2  5  1  0  0  0  0
  1  2  1  0  0  0  0
 18 19  2  0  0  0  0
 18 20  1  0  0  0  0
 16 17  1  0  0  0  0
 14 15  2  0  0  0  0
 14 16  1  0  0  0  0
 11 12  1  0  0  0  0
 11 13  1  0  0  0  0
 11 14  1  0  0  0  0
  9 10  1  0  0  0  0
  9 11  1  0  0  0  0
  9 18  1  0  0  0  0
  7  8  1  0  0  0  0
  7  9  1  0  0  0  0
 22 23  1  0  0  0  0
 22 24  1  0  0  0  0
 22 25  1  0  0  0  0
 20 21  1  0  0  0  0
 20 22  1  0  0  0  0
M  END
$$$$
default_name
  -OEChem-01062215323D

 25 24  0     1  0  0  0  0  0999 V2000
   -2.7826   -3.8464    0.7821 H   0  0  0  0  0  0  0  0  0  0  0  0
   -2.8156   -2.8034    0.4711 C   0  0  0  0  0  0  0  0  0  0  0  0
   -3.4336   -2.2354    1.1641 H   0  0  0  0  0  0  0  0  0  0  0  0
   -3.2256   -2.7344   -0.5349 H   0  0  0  0  0  0  0  0  0  0  0  0
   -1.4126   -2.2444    0.4801 C   0  0  0  0  0  0  0  0  0  0  0  0
   -0.4686   -2.9534    0.8001 O   0  0  0  0  0  0  0  0  0  0  0  0
   -1.2736   -0.9704    0.1241 N   0  0  0  0  0  0  0  0  0  0  0  0
   -2.0996   -0.4354   -0.1019 H   0  0  0  0  0  0  0  0  0  0  0  0
   -0.0016   -0.2394    0.1271 C   0  0  1  0  0  0  0  0  0  0  0  0
    0.6017   -0.5910   -0.7128 H   0  0  0  0  0  0  0  0  0  0  0  0
   -0.2770    1.2664   -0.0543 C   0  0  0  0  0  0  0  0  0  0  0  0
   -1.0362    1.5852    0.6608 H   0  0  0  0  0  0  0  0  0  0  0  0
    0.6327    1.8330    0.1478 H   0  0  0  0  0  0  0  0  0  0  0  0
   -0.7939    1.6257   -1.4441 C   0  0  0  0  0  0  0  0  0  0  0  0
   -0.5403    1.0202   -2.4772 O   0  0  0  0  0  0  0  0  0  0  0  0
   -1.5861    2.7131   -1.4880 O   0  0  0  0  0  0  0  0  0  0  0  0
   -1.8499    2.8089   -2.4037 H   0  0  0  0  0  0  0  0  0  0  0  0
    0.7709   -0.5262    1.4301 C   0  0  0  0  0  0  0  0  0  0  0  0
    0.1885   -1.0349    2.3870 O   0  0  0  0  0  0  0  0  0  0  0  0
    2.0669   -0.1978    1.4757 N   0  0  0  0  0  0  0  0  0  0  0  0
    2.4574    0.2759    0.6676 H   0  0  0  0  0  0  0  0  0  0  0  0
    2.9324   -0.4120    2.6336 C   0  0  0  0  0  0  0  0  0  0  0  0
    2.8609   -1.4517    2.9604 H   0  0  0  0  0  0  0  0  0  0  0  0
    3.9678   -0.1868    2.3747 H   0  0  0  0  0  0  0  0  0  0  0  0
    2.6166    0.2342    3.4544 H   0  0  0  0  0  0  0  0  0  0  0  0
  5  6  2  0  0  0  0
  5  7  1  0  0  0  0
  2  3  1  0  0  0  0
  2  4  1  0  0  0  0
  2  5  1  0  0  0  0
  1  2  1  0  0  0  0
 18 19  2  0  0  0  0
 18 20  1  0  0  0  0
 16 17  1  0  0  0  0
 14 15  2  0  0  0  0
 14 16  1  0  0  0  0
 11 12  1  0  0  0  0
 11 13  1  0  0  0  0
 11 14  1  0  0  0  0
  9 10  1  0  0  0  0
  9 11  1  0  0  0  0
  9 18  1  0  0  0  0
  7  8  1  0  0  0  0
  7  9  1  0  0  0  0
 22 23  1  0  0  0  0
 22 24  1  0  0  0  0
 22 25  1  0  0  0  0
 20 21  1  0  0  0  0
 20 22  1  0  0  0  0
M  END
$$$$
default_name
  -OEChem-01062215323D

 25 24  0     1  0  0  0  0  0999 V2000
   -2.7826   -3.8464    0.7821 H   0  0  0  0  0  0  0  0  0  0  0  0
   -2.8156   -2.8034    0.4711 C   0  0  0  0  0  0  0  0  0  0  0  0
   -3.4336   -2.2354    1.1641 H   0  0  0  0  0  0  0  0  0  0  0  0
   -3.2256   -2.7344   -0.5349 H   0  0  0  0  0  0  0  0  0  0  0  0
   -1.4126   -2.2444    0.4801 C   0  0  0  0  0  0  0  0  0  0  0  0
   -0.4686   -2.9534    0.8001 O   0  0  0  0  0  0  0  0  0  0  0  0
   -1.2736   -0.9704    0.1241 N   0  0  0  0  0  0  0  0  0  0  0  0
   -2.0996   -0.4354   -0.1019 H   0  0  0  0  0  0  0  0  0  0  0  0
   -0.0016   -0.2394    0.1271 C   0  0  1  0  0  0  0  0  0  0  0  0
    0.4833   -0.3843   -0.8409 H   0  0  0  0  0  0  0  0  0  0  0  0
   -0.2767    1.2643    0.3253 C   0  0  0  0  0  0  0  0  0  0  0  0
   -0.9327    1.4030    1.1855 H   0  0  0  0  0  0  0  0  0  0  0  0
    0.6594    1.7849    0.5305 H   0  0  0  0  0  0  0  0  0  0  0  0
   -0.9635    1.9184   -0.8698 C   0  0  0  0  0  0  0  0  0  0  0  0
   -0.8539    1.5641   -2.0363 O   0  0  0  0  0  0  0  0  0  0  0  0
   -1.7392    2.9757   -0.5661 O   0  0  0  0  0  0  0  0  0  0  0  0
   -2.1175    3.2704   -1.3950 H   0  0  0  0  0  0  0  0  0  0  0  0
    0.9284   -0.7994    1.2218 C   0  0  0  0  0  0  0  0  0  0  0  0
    0.5444   -1.7247    1.9359 O   0  0  0  0  0  0  0  0  0  0  0  0
    2.1369   -0.2431    1.3626 N   0  0  0  0  0  0  0  0  0  0  0  0
    2.3536    0.5571    0.7773 H   0  0  0  0  0  0  0  0  0  0  0  0
    3.1305   -0.6660    2.3471 C   0  0  0  0  0  0  0  0  0  0  0  0
    3.2887   -1.7440    2.2722 H   0  0  0  0  0  0  0  0  0  0  0  0
    4.0757   -0.1507    2.1712 H   0  0  0  0  0  0  0  0  0  0  0  0
    2.7747   -0.4346    3.3526 H   0  0  0  0  0  0  0  0  0  0  0  0
  5  6  2  0  0  0  0
  5  7  1  0  0  0  0
  2  3  1  0  0  0  0
  2  4  1  0  0  0  0
  2  5  1  0  0  0  0
  1  2  1  0  0  0  0
 18 19  2  0  0  0  0
 18 20  1  0  0  0  0
 16 17  1  0  0  0  0
 14 15  2  0  0  0  0
 14 16  1  0  0  0  0
 11 12  1  0  0  0  0
 11 13  1  0  0  0  0
 11 14  1  0  0  0  0
  9 10  1  0  0  0  0
  9 11  1  0  0  0  0
  9 18  1  0  0  0  0
  7  8  1  0  0  0  0
  7  9  1  0  0  0  0
 22 23  1  0  0  0  0
 22 24  1  0  0  0  0
 22 25  1  0  0  0  0
 20 21  1  0  0  0  0
 20 22  1  0  0  0  0
M  END
$$$$
default_name
  -OEChem-01062215323D

 25 24  0     1  0  0  0  0  0999 V2000
   -2.7826   -3.8464    0.7821 H   0  0  0  0  0  0  0  0  0  0  0  0
   -2.8156   -2.8034    0.4711 C   0  0  0  0  0  0  0  0  0  0  0  0
   -3.4336   -2.2354    1.1641 H   0  0  0  0  0  0  0  0  0  0  0  0
   -3.2256   -2.7344   -0.5349 H   0  0  0  0  0  0  0  0  0  0  0  0
   -1.4126   -2.2444    0.4801 C   0  0  0  0  0  0  0  0  0  0  0  0
   -0.4686   -2.9534    0.8001 O   0  0  0  0  0  0  0  0  0  0  0  0
   -1.2736   -0.9704    0.1241 N   0  0  0  0  0  0  0  0  0  0  0  0
   -2.0996   -0.4354   -0.1019 H   0  0  0  0  0  0  0  0  0  0  0  0
   -0.0016   -0.2394    0.1271 C   0  0  1  0  0  0  0  0  0  0  0  0
    0.4833   -0.3843   -0.8409 H   0  0  0  0  0  0  0  0  0  0  0  0
   -0.2767    1.2643    0.3253 C   0  0  0  0  0  0  0  0  0  0  0  0
   -0.9327    1.4030    1.1855 H   0  0  0  0  0  0  0  0  0  0  0  0
    0.6594    1.7849    0.5305 H   0  0  0  0  0  0  0  0  0  0  0  0
   -0.9635    1.9184   -0.8698 C   0  0  0  0  0  0  0  0  0  0  0  0
   -0.8539    1.5641   -2.0363 O   0  0  0  0  0  0  0  0  0  0  0  0
   -1.7392    2.9757   -0.5661 O   0  0  0  0  0  0  0  0  0  0  0  0
   -2.1175    3.2704   -1.3950 H   0  0  0  0  0  0  0  0  0  0  0  0
    0.9284   -0.7994    1.2218 C   0  0  0  0  0  0  0  0  0  0  0  0
    0.6730   -1.8828    1.7458 O   0  0  0  0  0  0  0  0  0  0  0  0
    1.9931   -0.0697    1.5734 N   0  0  0  0  0  0  0  0  0  0  0  0
    2.0986    0.8415    1.1394 H   0  0  0  0  0  0  0  0  0  0  0  0
    2.9679   -0.4673    2.5869 C   0  0  0  0  0  0  0  0  0  0  0  0
    3.3348   -1.4732    2.3715 H   0  0  0  0  0  0  0  0  0  0  0  0
    3.8080    0.2284    2.5925 H   0  0  0  0  0  0  0  0  0  0  0  0
    2.4957   -0.4713    3.5709 H   0  0  0  0  0  0  0  0  0  0  0  0
  5  6  2  0  0  0  0
  5  7  1  0  0  0  0
  2  3  1  0  0  0  0
  2  4  1  0  0  0  0
  2  5  1  0  0  0  0
  1  2  1  0  0  0  0
 18 19  2  0  0  0  0
 18 20  1  0  0  0  0
 16 17  1  0  0  0  0
 14 15  2  0  0  0  0
 14 16  1  0  0  0  0
 11 12  1  0  0  0  0
 11 13  1  0  0  0  0
 11 14  1  0  0  0  0
  9 10  1  0  0  0  0
  9 11  1  0  0  0  0
  9 18  1  0  0  0  0
  7  8  1  0  0  0  0
  7  9  1  0  0  0  0
 22 23  1  0  0  0  0
 22 24  1  0  0  0  0
 22 25  1  0  0  0  0
 20 21  1  0  0  0  0
 20 22  1  0  0  0  0
M  END
$$$$
default_name
  -OEChem-01062215323D

 25 24  0     1  0  0  0  0  0999 V2000
   -2.7826   -3.8464    0.7821 H   0  0  0  0  0  0  0  0  0  0  0  0
   -2.8156   -2.8034    0.4711 C   0  0  0  0  0  0  0  0  0  0  0  0
   -3.4336   -2.2354    1.1641 H   0  0  0  0  0  0  0  0  0  0  0  0
   -3.2256   -2.7344   -0.5349 H   0  0  0  0  0  0  0  0  0  0  0  0
   -1.4126   -2.2444    0.4801 C   0  0  0  0  0  0  0  0  0  0  0  0
   -0.4686   -2.9534    0.8001 O   0  0  0  0  0  0  0  0  0  0  0  0
   -1.2736   -0.9704    0.1241 N   0  0  0  0  0  0  0  0  0  0  0  0
   -2.0996   -0.4354   -0.1019 H   0  0  0  0  0  0  0  0  0  0  0  0
   -0.0016   -0.2394    0.1271 C   0  0  1  0  0  0  0  0  0  0  0  0
    0.4833   -0.3843   -0.8409 H   0  0  0  0  0  0  0  0  0  0  0  0
   -0.2767    1.2643    0.3253 C   0  0  0  0  0  0  0  0  0  0  0  0
   -0.9327    1.4030    1.1855 H   0  0  0  0  0  0  0  0  0  0  0  0
    0.6594    1.7849    0.5305 H   0  0  0  0  0  0  0  0  0  0  0  0
   -0.9635    1.9184   -0.8698 C   0  0  0  0  0  0  0  0  0  0  0  0
   -0.8539    1.5641   -2.0363 O   0  0  0  0  0  0  0  0  0  0  0  0
   -1.7392    2.9757   -0.5661 O   0  0  0  0  0  0  0  0  0  0  0  0
   -2.1175    3.2704   -1.3950 H   0  0  0  0  0  0  0  0  0  0  0  0
    0.9284   -0.7994    1.2218 C   0  0  0  0  0  0  0  0  0  0  0  0
    0.8441   -1.9822    1.5496 O   0  0  0  0  0  0  0  0  0  0  0  0
    1.8026    0.0384    1.7906 N   0  0  0  0  0  0  0  0  0  0  0  0
    1.7660    1.0129    1.5097 H   0  0  0  0  0  0  0  0  0  0  0  0
    2.7518   -0.3426    2.8343 C   0  0  0  0  0  0  0  0  0  0  0  0
    3.3201   -1.2186    2.5142 H   0  0  0  0  0  0  0  0  0  0  0  0
    3.4402    0.4796    3.0335 H   0  0  0  0  0  0  0  0  0  0  0  0
    2.2125   -0.5921    3.7498 H   0  0  0  0  0  0  0  0  0  0  0  0
  5  6  2  0  0  0  0
  5  7  1  0  0  0  0
  2  3  1  0  0  0  0
  2  4  1  0  0  0  0
  2  5  1  0  0  0  0
  1  2  1  0  0  0  0
 18 19  2  0  0  0  0
 18 20  1  0  0  0  0
 16 17  1  0  0  0  0
 14 15  2  0  0  0  0
 14 16  1  0  0  0  0
 11 12  1  0  0  0  0
 11 13  1  0  0  0  0
 11 14  1  0  0  0  0
  9 10  1  0  0  0  0
  9 11  1  0  0  0  0
  9 18  1  0  0  0  0
  7  8  1  0  0  0  0
  7  9  1  0  0  0  0
 22 23  1  0  0  0  0
 22 24  1  0  0  0  0
 22 25  1  0  0  0  0
 20 21  1  0  0  0  0
 20 22  1  0  0  0  0
M  END
$$$$
default_name
  -OEChem-01062215323D

 25 24  0     1  0  0  0  0  0999 V2000
   -2.7826   -3.8464    0.7821 H   0  0  0  0  0  0  0  0  0  0  0  0
   -2.8156   -2.8034    0.4711 C   0  0  0  0  0  0  0  0  0  0  0  0
   -3.4336   -2.2354    1.1641 H   0  0  0  0  0  0  0  0  0  0  0  0
   -3.2256   -2.7344   -0.5349 H   0  0  0  0  0  0  0  0  0  0  0  0
   -1.4126   -2.2444    0.4801 C   0  0  0  0  0  0  0  0  0  0  0  0
   -0.4686   -2.9534    0.8001 O   0  0  0  0  0  0  0  0  0  0  0  0
   -1.2736   -0.9704    0.1241 N   0  0  0  0  0  0  0  0  0  0  0  0
   -2.0996   -0.4354   -0.1019 H   0  0  0  0  0  0  0  0  0  0  0  0
   -0.0016   -0.2394    0.1271 C   0  0  1  0  0  0  0  0  0  0  0  0
    0.4833   -0.3843   -0.8409 H   0  0  0  0  0  0  0  0  0  0  0  0
   -0.2767    1.2643    0.3253 C   0  0  0  0  0  0  0  0  0  0  0  0
   -0.9327    1.4030    1.1855 H   0  0  0  0  0  0  0  0  0  0  0  0
    0.6594    1.7849    0.5305 H   0  0  0  0  0  0  0  0  0  0  0  0
   -0.9635    1.9184   -0.8698 C   0  0  0  0  0  0  0  0  0  0  0  0
   -0.8539    1.5641   -2.0363 O   0  0  0  0  0  0  0  0  0  0  0  0
   -1.7392    2.9757   -0.5661 O   0  0  0  0  0  0  0  0  0  0  0  0
   -2.1175    3.2704   -1.3950 H   0  0  0  0  0  0  0  0  0  0  0  0
    0.9284   -0.7994    1.2218 C   0  0  0  0  0  0  0  0  0  0  0  0
    1.0461   -2.0161    1.3606 O   0  0  0  0  0  0  0  0  0  0  0  0
    1.5782    0.0739    1.9994 N   0  0  0  0  0  0  0  0  0  0  0  0
    1.3784    1.0595    1.8628 H   0  0  0  0  0  0  0  0  0  0  0  0
    2.4969   -0.3006    3.0724 C   0  0  0  0  0  0  0  0  0  0  0  0
    3.2459   -0.9977    2.6903 H   0  0  0  0  0  0  0  0  0  0  0  0
    2.9973    0.5858    3.4642 H   0  0  0  0  0  0  0  0  0  0  0  0
    1.9443   -0.7888    3.8771 H   0  0  0  0  0  0  0  0  0  0  0  0
  5  6  2  0  0  0  0
  5  7  1  0  0  0  0
  2  3  1  0  0  0  0
  2  4  1  0  0  0  0
  2  5  1  0  0  0  0
  1  2  1  0  0  0  0
 18 19  2  0  0  0  0
 18 20  1  0  0  0  0
 16 17  1  0  0  0  0
 14 15  2  0  0  0  0
 14 16  1  0  0  0  0
 11 12  1  0  0  0  0
 11 13  1  0  0  0  0
 11 14  1  0  0  0  0
  9 10  1  0  0  0  0
  9 11  1  0  0  0  0
  9 18  1  0  0  0  0
  7  8  1  0  0  0  0
  7  9  1  0  0  0  0
 22 23  1  0  0  0  0
 22 24  1  0  0  0  0
 22 25  1  0  0  0  0
 20 21  1  0  0  0  0
 20 22  1  0  0  0  0
M  END
$$$$
default_name
  -OEChem-01062215323D

 25 24  0     1  0  0  0  0  0999 V2000
   -2.7826   -3.8464    0.7821 H   0  0  0  0  0  0  0  0  0  0  0  0
   -2.8156   -2.8034    0.4711 C   0  0  0  0  0  0  0  0  0  0  0  0
   -3.4336   -2.2354    1.1641 H   0  0  0  0  0  0  0  0  0  0  0  0
   -3.2256   -2.7344   -0.5349 H   0  0  0  0  0  0  0  0  0  0  0  0
   -1.4126   -2.2444    0.4801 C   0  0  0  0  0  0  0  0  0  0  0  0
   -0.4686   -2.9534    0.8001 O   0  0  0  0  0  0  0  0  0  0  0  0
   -1.2736   -0.9704    0.1241 N   0  0  0  0  0  0  0  0  0  0  0  0
   -2.0996   -0.4354   -0.1019 H   0  0  0  0  0  0  0  0  0  0  0  0
   -0.0016   -0.2394    0.1271 C   0  0  1  0  0  0  0  0  0  0  0  0
    0.4833   -0.3843   -0.8409 H   0  0  0  0  0  0  0  0  0  0  0  0
   -0.2767    1.2643    0.3253 C   0  0  0  0  0  0  0  0  0  0  0  0
   -0.9327    1.4030    1.1855 H   0  0  0  0  0  0  0  0  0  0  0  0
    0.6594    1.7849    0.5305 H   0  0  0  0  0  0  0  0  0  0  0  0
   -0.9635    1.9184   -0.8698 C   0  0  0  0  0  0  0  0  0  0  0  0
   -0.8539    1.5641   -2.0363 O   0  0  0  0  0  0  0  0  0  0  0  0
   -1.7392    2.9757   -0.5661 O   0  0  0  0  0  0  0  0  0  0  0  0
   -2.1175    3.2704   -1.3950 H   0  0  0  0  0  0  0  0  0  0  0  0
    0.9284   -0.7994    1.2218 C   0  0  0  0  0  0  0  0  0  0  0  0
    1.2652   -1.9823    1.1918 O   0  0  0  0  0  0  0  0  0  0  0  0
    1.3354    0.0344    2.1855 N   0  0  0  0  0  0  0  0  0  0  0  0
    0.9622    0.9781    2.1748 H   0  0  0  0  0  0  0  0  0  0  0  0
    2.2205   -0.3441    3.2849 C   0  0  0  0  0  0  0  0  0  0  0  0
    3.1169   -0.8255    2.8880 H   0  0  0  0  0  0  0  0  0  0  0  0
    2.5095    0.5398    3.8551 H   0  0  0  0  0  0  0  0  0  0  0  0
    1.7093   -1.0479    3.9441 H   0  0  0  0  0  0  0  0  0  0  0  0
  5  6  2  0  0  0  0
  5  7  1  0  0  0  0
  2  3  1  0  0  0  0
  2  4  1  0  0  0  0
  2  5  1  0  0  0  0
  1  2  1  0  0  0  0
 18 19  2  0  0  0  0
 18 20  1  0  0  0  0
 16 17  1  0  0  0  0
 14 15  2  0  0  0  0
 14 16  1  0  0  0  0
 11 12  1  0  0  0  0
 11 13  1  0  0  0  0
 11 14  1  0  0  0  0
  9 10  1  0  0  0  0
  9 11  1  0  0  0  0
  9 18  1  0  0  0  0
  7  8  1  0  0  0  0
  7  9  1  0  0  0  0
 22 23  1  0  0  0  0
 22 24  1  0  0  0  0
 22 25  1  0  0  0  0
 20 21  1  0  0  0  0
 20 22  1  0  0  0  0
M  END
$$$$
default_name
  -OEChem-01062215323D

 25 24  0     1  0  0  0  0  0999 V2000
   -2.7826   -3.8464    0.7821 H   0  0  0  0  0  0  0  0  0  0  0  0
   -2.8156   -2.8034    0.4711 C   0  0  0  0  0  0  0  0  0  0  0  0
   -3.4336   -2.2354    1.1641 H   0  0  0  0  0  0  0  0  0  0  0  0
   -3.2256   -2.7344   -0.5349 H   0  0  0  0  0  0  0  0  0  0  0  0
   -1.4126   -2.2444    0.4801 C   0  0  0  0  0  0  0  0  0  0  0  0
   -0.4686   -2.9534    0.8001 O   0  0  0  0  0  0  0  0  0  0  0  0
   -1.2736   -0.9704    0.1241 N   0  0  0  0  0  0  0  0  0  0  0  0
   -2.0996   -0.4354   -0.1019 H   0  0  0  0  0  0  0  0  0  0  0  0
   -0.0016   -0.2394    0.1271 C   0  0  1  0  0  0  0  0  0  0  0  0
    0.4833   -0.3843   -0.8409 H   0  0  0  0  0  0  0  0  0  0  0  0
   -0.2767    1.2643    0.3253 C   0  0  0  0  0  0  0  0  0  0  0  0
   -0.9327    1.4030    1.1855 H   0  0  0  0  0  0  0  0  0  0  0  0
    0.6594    1.7849    0.5305 H   0  0  0  0  0  0  0  0  0  0  0  0
   -0.9635    1.9184   -0.8698 C   0  0  0  0  0  0  0  0  0  0  0  0
   -0.8539    1.5641   -2.0363 O   0  0  0  0  0  0  0  0  0  0  0  0
   -1.7392    2.9757   -0.5661 O   0  0  0  0  0  0  0  0  0  0  0  0
   -2.1175    3.2704   -1.3950 H   0  0  0  0  0  0  0  0  0  0  0  0
    0.9284   -0.7994    1.2218 C   0  0  0  0  0  0  0  0  0  0  0  0
    1.4865   -1.8830    1.0546 O   0  0  0  0  0  0  0  0  0  0  0  0
    1.0906   -0.0774    2.3363 N   0  0  0  0  0  0  0  0  0  0  0  0
    0.5459    0.7743    2.4243 H   0  0  0  0  0  0  0  0  0  0  0  0
    1.9416   -0.4700    3.4575 C   0  0  0  0  0  0  0  0  0  0  0  0
    2.9422   -0.7136    3.0936 H   0  0  0  0  0  0  0  0  0  0  0  0
    2.0100    0.3446    4.1796 H   0  0  0  0  0  0  0  0  0  0  0  0
    1.5238   -1.3518    3.9463 H   0  0  0  0  0  0  0  0  0  0  0  0
  5  6  2  0  0  0  0
  5  7  1  0  0  0  0
  2  3  1  0  0  0  0
  2  4  1  0  0  0  0
  2  5  1  0  0  0  0
  1  2  1  0  0  0  0
 18 19  2  0  0  0  0
 18 20  1  0  0  0  0
 16 17  1  0  0  0  0
 14 15  2  0  0  0  0
 14 16  1  0  0  0  0
 11 12  1  0  0  0  0
 11 13  1  0  0  0  0
 11 14  1  0  0  0  0
  9 10  1  0  0  0  0
  9 11  1  0  0  0  0
  9 18  1  0  0  0  0
  7  8  1  0  0  0  0
  7  9  1  0  0  0  0
 22 23  1  0  0  0  0
 22 24  1  0  0  0  0
 22 25  1  0  0  0  0
 20 21  1  0  0  0  0
 20 22  1  0  0  0  0
M  END
$$$$
default_name
  -OEChem-01062215323D

 25 24  0     1  0  0  0  0  0999 V2000
   -2.7826   -3.8464    0.7821 H   0  0  0  0  0  0  0  0  0  0  0  0
   -2.8156   -2.8034    0.4711 C   0  0  0  0  0  0  0  0  0  0  0  0
   -3.4336   -2.2354    1.1641 H   0  0  0  0  0  0  0  0  0  0  0  0
   -3.2256   -2.7344   -0.5349 H   0  0  0  0  0  0  0  0  0  0  0  0
   -1.4126   -2.2444    0.4801 C   0  0  0  0  0  0  0  0  0  0  0  0
   -0.4686   -2.9534    0.8001 O   0  0  0  0  0  0  0  0  0  0  0  0
   -1.2736   -0.9704    0.1241 N   0  0  0  0  0  0  0  0  0  0  0  0
   -2.0996   -0.4354   -0.1019 H   0  0  0  0  0  0  0  0  0  0  0  0
   -0.0016   -0.2394    0.1271 C   0  0  1  0  0  0  0  0  0  0  0  0
    0.4833   -0.3843   -0.8409 H   0  0  0  0  0  0  0  0  0  0  0  0
   -0.2767    1.2643    0.3253 C   0  0  0  0  0  0  0  0  0  0  0  0
   -0.9327    1.4030    1.1855 H   0  0  0  0  0  0  0  0  0  0  0  0
    0.6594    1.7849    0.5305 H   0  0  0  0  0  0  0  0  0  0  0  0
   -0.9635    1.9184   -0.8698 C   0  0  0  0  0  0  0  0  0  0  0  0
   -0.8539    1.5641   -2.0363 O   0  0  0  0  0  0  0  0  0  0  0  0
   -1.7392    2.9757   -0.5661 O   0  0  0  0  0  0  0  0  0  0  0  0
   -2.1175    3.2704   -1.3950 H   0  0  0  0  0  0  0  0  0  0  0  0
    0.9284   -0.7994    1.2218 C   0  0  0  0  0  0  0  0  0  0  0  0
    1.6949   -1.7250    0.9583 O   0  0  0  0  0  0  0  0  0  0  0  0
    0.8605   -0.2540    2.4414 N   0  0  0  0  0  0  0  0  0  0  0  0
    0.1578    0.4620    2.5943 H   0  0  0  0  0  0  0  0  0  0  0  0
    1.6791   -0.6698    3.5783 C   0  0  0  0  0  0  0  0  0  0  0  0
    2.7335   -0.6698    3.2934 H   0  0  0  0  0  0  0  0  0  0  0  0
    1.5329    0.0137    4.4157 H   0  0  0  0  0  0  0  0  0  0  0  0
    1.4001   -1.6799    3.8835 H   0  0  0  0  0  0  0  0  0  0  0  0
  5  6  2  0  0  0  0
  5  7  1  0  0  0  0
  2  3  1  0  0  0  0
  2  4  1  0  0  0  0
  2  5  1  0  0  0  0
  1  2  1  0  0  0  0
 18 19  2  0  0  0  0
 18 20  1  0  0  0  0
 16 17  1  0  0  0  0
 14 15  2  0  0  0  0
 14 16  1  0  0  0  0
 11 12  1  0  0  0  0
 11 13  1  0  0  0  0
 11 14  1  0  0  0  0
  9 10  1  0  0  0  0
  9 11  1  0  0  0  0
  9 18  1  0  0  0  0
  7  8  1  0  0  0  0
  7  9  1  0  0  0  0
 22 23  1  0  0  0  0
 22 24  1  0  0  0  0
 22 25  1  0  0  0  0
 20 21  1  0  0  0  0
 20 22  1  0  0  0  0
M  END
$$$$
default_name
  -OEChem-01062215323D

 25 24  0     1  0  0  0  0  0999 V2000
   -2.7826   -3.8464    0.7821 H   0  0  0  0  0  0  0  0  0  0  0  0
   -2.8156   -2.8034    0.4711 C   0  0  0  0  0  0  0  0  0  0  0  0
   -3.4336   -2.2354    1.1641 H   0  0  0  0  0  0  0  0  0  0  0  0
   -3.2256   -2.7344   -0.5349 H   0  0  0  0  0  0  0  0  0  0  0  0
   -1.4126   -2.2444    0.4801 C   0  0  0  0  0  0  0  0  0  0  0  0
   -0.4686   -2.9534    0.8001 O   0  0  0  0  0  0  0  0  0  0  0  0
   -1.2736   -0.9704    0.1241 N   0  0  0  0  0  0  0  0  0  0  0  0
   -2.0996   -0.4354   -0.1019 H   0  0  0  0  0  0  0  0  0  0  0  0
   -0.0016   -0.2394    0.1271 C   0  0  1  0  0  0  0  0  0  0  0  0
    0.4833   -0.3843   -0.8409 H   0  0  0  0  0  0  0  0  0  0  0  0
   -0.2767    1.2643    0.3253 C   0  0  0  0  0  0  0  0  0  0  0  0
   -0.9327    1.4030    1.1855 H   0  0  0  0  0  0  0  0  0  0  0  0
    0.6594    1.7849    0.5305 H   0  0  0  0  0  0  0  0  0  0  0  0
   -0.9635    1.9184   -0.8698 C   0  0  0  0  0  0  0  0  0  0  0  0
   -0.8539    1.5641   -2.0363 O   0  0  0  0  0  0  0  0  0  0  0  0
   -1.7392    2.9757   -0.5661 O   0  0  0  0  0  0  0  0  0  0  0  0
   -2.1175    3.2704   -1.3950 H   0  0  0  0  0  0  0  0  0  0  0  0
    0.9284   -0.7994    1.2218 C   0  0  0  0  0  0  0  0  0  0  0  0
    1.8762   -1.5190    0.9097 O   0  0  0  0  0  0  0  0  0  0  0  0
    0.6608   -0.4833    2.4938 N   0  0  0  0  0  0  0  0  0  0  0  0
   -0.1758    0.0625    2.6733 H   0  0  0  0  0  0  0  0  0  0  0  0
    1.4509   -0.9299    3.6391 C   0  0  0  0  0  0  0  0  0  0  0  0
    2.5051   -0.6971    3.4735 H   0  0  0  0  0  0  0  0  0  0  0  0
    1.1107   -0.4306    4.5472 H   0  0  0  0  0  0  0  0  0  0  0  0
    1.3469   -2.0096    3.7600 H   0  0  0  0  0  0  0  0  0  0  0  0
  5  6  2  0  0  0  0
  5  7  1  0  0  0  0
  2  3  1  0  0  0  0
  2  4  1  0  0  0  0
  2  5  1  0  0  0  0
  1  2  1  0  0  0  0
 18 19  2  0  0  0  0
 18 20  1  0  0  0  0
 16 17  1  0  0  0  0
 14 15  2  0  0  0  0
 14 16  1  0  0  0  0
 11 12  1  0  0  0  0
 11 13  1  0  0  0  0
 11 14  1  0  0  0  0
  9 10  1  0  0  0  0
  9 11  1  0  0  0  0
  9 18  1  0  0  0  0
  7  8  1  0  0  0  0
  7  9  1  0  0  0  0
 22 23  1  0  0  0  0
 22 24  1  0  0  0  0
 22 25  1  0  0  0  0
 20 21  1  0  0  0  0
 20 22  1  0  0  0  0
M  END
$$$$
default_name
  -OEChem-01062215323D

 25 24  0     1  0  0  0  0  0999 V2000
   -2.7826   -3.8464    0.7821 H   0  0  0  0  0  0  0  0  0  0  0  0
   -2.8156   -2.8034    0.4711 C   0  0  0  0  0  0  0  0  0  0  0  0
   -3.4336   -2.2354    1.1641 H   0  0  0  0  0  0  0  0  0  0  0  0
   -3.2256   -2.7344   -0.5349 H   0  0  0  0  0  0  0  0  0  0  0  0
   -1.4126   -2.2444    0.4801 C   0  0  0  0  0  0  0  0  0  0  0  0
   -0.4686   -2.9534    0.8001 O   0  0  0  0  0  0  0  0  0  0  0  0
   -1.2736   -0.9704    0.1241 N   0  0  0  0  0  0  0  0  0  0  0  0
   -2.0996   -0.4354   -0.1019 H   0  0  0  0  0  0  0  0  0  0  0  0
   -0.0016   -0.2394    0.1271 C   0  0  1  0  0  0  0  0  0  0  0  0
    0.4833   -0.3843   -0.8409 H   0  0  0  0  0  0  0  0  0  0  0  0
   -0.2767    1.2643    0.3253 C   0  0  0  0  0  0  0  0  0  0  0  0
   -0.9327    1.4030    1.1855 H   0  0  0  0  0  0  0  0  0  0  0  0
    0.6594    1.7849    0.5305 H   0  0  0  0  0  0  0  0  0  0  0  0
   -0.9635    1.9184   -0.8698 C   0  0  0  0  0  0  0  0  0  0  0  0
   -0.8539    1.5641   -2.0363 O   0  0  0  0  0  0  0  0  0  0  0  0
   -1.7392    2.9757   -0.5661 O   0  0  0  0  0  0  0  0  0  0  0  0
   -2.1175    3.2704   -1.3950 H   0  0  0  0  0  0  0  0  0  0  0  0
    0.9284   -0.7994    1.2218 C   0  0  0  0  0  0  0  0  0  0  0  0
    2.0181   -1.2791    0.9118 O   0  0  0  0  0  0  0  0  0  0  0  0
    0.5051   -0.7496    2.4898 N   0  0  0  0  0  0  0  0  0  0  0  0
   -0.4319   -0.3971    2.6558 H   0  0  0  0  0  0  0  0  0  0  0  0
    1.2726   -1.2326    3.6358 C   0  0  0  0  0  0  0  0  0  0  0  0
    2.2725   -0.7935    3.6217 H   0  0  0  0  0  0  0  0  0  0  0  0
    0.7721   -0.9578    4.5651 H   0  0  0  0  0  0  0  0  0  0  0  0
    1.3677   -2.3187    3.5843 H   0  0  0  0  0  0  0  0  0  0  0  0
  5  6  2  0  0  0  0
  5  7  1  0  0  0  0
  2  3  1  0  0  0  0
  2  4  1  0  0  0  0
  2  5  1  0  0  0  0
  1  2  1  0  0  0  0
 18 19  2  0  0  0  0
 18 20  1  0  0  0  0
 16 17  1  0  0  0  0
 14 15  2  0  0  0  0
 14 16  1  0  0  0  0
 11 12  1  0  0  0  0
 11 13  1  0  0  0  0
 11 14  1  0  0  0  0
  9 10  1  0  0  0  0
  9 11  1  0  0  0  0
  9 18  1  0  0  0  0
  7  8  1  0  0  0  0
  7  9  1  0  0  0  0
 22 23  1  0  0  0  0
 22 24  1  0  0  0  0
 22 25  1  0  0  0  0
 20 21  1  0  0  0  0
 20 22  1  0  0  0  0
M  END
$$$$
default_name
  -OEChem-01062215323D

 25 24  0     1  0  0  0  0  0999 V2000
   -2.7826   -3.8464    0.7821 H   0  0  0  0  0  0  0  0  0  0  0  0
   -2.8156   -2.8034    0.4711 C   0  0  0  0  0  0  0  0  0  0  0  0
   -3.4336   -2.2354    1.1641 H   0  0  0  0  0  0  0  0  0  0  0  0
   -3.2256   -2.7344   -0.5349 H   0  0  0  0  0  0  0  0  0  0  0  0
   -1.4126   -2.2444    0.4801 C   0  0  0  0  0  0  0  0  0  0  0  0
   -0.4686   -2.9534    0.8001 O   0  0  0  0  0  0  0  0  0  0  0  0
   -1.2736   -0.9704    0.1241 N   0  0  0  0  0  0  0  0  0  0  0  0
   -2.0996   -0.4354   -0.1019 H   0  0  0  0  0  0  0  0  0  0  0  0
   -0.0016   -0.2394    0.1271 C   0  0  1  0  0  0  0  0  0  0  0  0
    0.4833   -0.3843   -0.8409 H   0  0  0  0  0  0  0  0  0  0  0  0
   -0.2767    1.2643    0.3253 C   0  0  0  0  0  0  0  0  0  0  0  0
   -0.9327    1.4030    1.1855 H   0  0  0  0  0  0  0  0  0  0  0  0
    0.6594    1.7849    0.5305 H   0  0  0  0  0  0  0  0  0  0  0  0
   -0.9635    1.9184   -0.8698 C   0  0  0  0  0  0  0  0  0  0  0  0
   -0.8539    1.5641   -2.0363 O   0  0  0  0  0  0  0  0  0  0  0  0
   -1.7392    2.9757   -0.5661 O   0  0  0  0  0  0  0  0  0  0  0  0
   -2.1175    3.2704   -1.3950 H   0  0  0  0  0  0  0  0  0  0  0  0
    0.9284   -0.7994    1.2218 C   0  0  0  0  0  0  0  0  0  0  0  0
    2.1108   -1.0217    0.9647 O   0  0  0  0  0  0  0  0  0  0  0  0
    0.4041   -1.0348    2.4298 N   0  0  0  0  0  0  0  0  0  0  0  0
   -0.5933   -0.8853    2.5431 H   0  0  0  0  0  0  0  0  0  0  0  0
    1.1563   -1.5572    3.5685 C   0  0  0  0  0  0  0  0  0  0  0  0
    2.0517   -0.9525    3.7280 H   0  0  0  0  0  0  0  0  0  0  0  0
    0.5403   -1.5320    4.4683 H   0  0  0  0  0  0  0  0  0  0  0  0
    1.4611   -2.5859    3.3682 H   0  0  0  0  0  0  0  0  0  0  0  0
  5  6  2  0  0  0  0
  5  7  1  0  0  0  0
  2  3  1  0  0  0  0
  2  4  1  0  0  0  0
  2  5  1  0  0  0  0
  1  2  1  0  0  0  0
 18 19  2  0  0  0  0
 18 20  1  0  0  0  0
 16 17  1  0  0  0  0
 14 15  2  0  0  0  0
 14 16  1  0  0  0  0
 11 12  1  0  0  0  0
 11 13  1  0  0  0  0
 11 14  1  0  0  0  0
  9 10  1  0  0  0  0
  9 11  1  0  0  0  0
  9 18  1  0  0  0  0
  7  8  1  0  0  0  0
  7  9  1  0  0  0  0
 22 23  1  0  0  0  0
 22 24  1  0  0  0  0
 22 25  1  0  0  0  0
 20 21  1  0  0  0  0
 20 22  1  0  0  0  0
M  END
$$$$
default_name
  -OEChem-01062215323D

 25 24  0     1  0  0  0  0  0999 V2000
   -2.7826   -3.8464    0.7821 H   0  0  0  0  0  0  0  0  0  0  0  0
   -2.8156   -2.8034    0.4711 C   0  0  0  0  0  0  0  0  0  0  0  0
   -3.4336   -2.2354    1.1641 H   0  0  0  0  0  0  0  0  0  0  0  0
   -3.2256   -2.7344   -0.5349 H   0  0  0  0  0  0  0  0  0  0  0  0
   -1.4126   -2.2444    0.4801 C   0  0  0  0  0  0  0  0  0  0  0  0
   -0.4686   -2.9534    0.8001 O   0  0  0  0  0  0  0  0  0  0  0  0
   -1.2736   -0.9704    0.1241 N   0  0  0  0  0  0  0  0  0  0  0  0
   -2.0996   -0.4354   -0.1019 H   0  0  0  0  0  0  0  0  0  0  0  0
   -0.0016   -0.2394    0.1271 C   0  0  1  0  0  0  0  0  0  0  0  0
    0.4833   -0.3843   -0.8409 H   0  0  0  0  0  0  0  0  0  0  0  0
   -0.2767    1.2643    0.3253 C   0  0  0  0  0  0  0  0  0  0  0  0
   -0.9327    1.4030    1.1855 H   0  0  0  0  0  0  0  0  0  0  0  0
    0.6594    1.7849    0.5305 H   0  0  0  0  0  0  0  0  0  0  0  0
   -0.9635    1.9184   -0.8698 C   0  0  0  0  0  0  0  0  0  0  0  0
   -0.8539    1.5641   -2.0363 O   0  0  0  0  0  0  0  0  0  0  0  0
   -1.7392    2.9757   -0.5661 O   0  0  0  0  0  0  0  0  0  0  0  0
   -2.1175    3.2704   -1.3950 H   0  0  0  0  0  0  0  0  0  0  0  0
    0.9284   -0.7994    1.2218 C   0  0  0  0  0  0  0  0  0  0  0  0
    2.1481   -0.7643    1.0647 O   0  0  0  0  0  0  0  0  0  0  0  0
    0.3645   -1.3195    2.3177 N   0  0  0  0  0  0  0  0  0  0  0  0
   -0.6488   -1.3690    2.3429 H   0  0  0  0  0  0  0  0  0  0  0  0
    1.1099   -1.8817    3.4420 C   0  0  0  0  0  0  0  0  0  0  0  0
    1.8576   -1.1633    3.7851 H   0  0  0  0  0  0  0  0  0  0  0  0
    0.4310   -2.1142    4.2634 H   0  0  0  0  0  0  0  0  0  0  0  0
    1.6208   -2.7931    3.1266 H   0  0  0  0  0  0  0  0  0  0  0  0
  5  6  2  0  0  0  0
  5  7  1  0  0  0  0
  2  3  1  0  0  0  0
  2  4  1  0  0  0  0
  2  5  1  0  0  0  0
  1  2  1  0  0  0  0
 18 19  2  0  0  0  0
 18 20  1  0  0  0  0
 16 17  1  0  0  0  0
 14 15  2  0  0  0  0
 14 16  1  0  0  0  0
 11 12  1  0  0  0  0
 11 13  1  0  0  0  0
 11 14  1  0  0  0  0
  9 10  1  0  0  0  0
  9 11  1  0  0  0  0
  9 18  1  0  0  0  0
  7  8  1  0  0  0  0
  7  9  1  0  0  0  0
 22 23  1  0  0  0  0
 22 24  1  0  0  0  0
 22 25  1  0  0  0  0
 20 21  1  0  0  0  0
 20 22  1  0  0  0  0
M  END
$$$$
default_name
  -OEChem-01062215323D

 25 24  0     1  0  0  0  0  0999 V2000
   -2.7826   -3.8464    0.7821 H   0  0  0  0  0  0  0  0  0  0  0  0
   -2.8156   -2.8034    0.4711 C   0  0  0  0  0  0  0  0  0  0  0  0
   -3.4336   -2.2354    1.1641 H   0  0  0  0  0  0  0  0  0  0  0  0
   -3.2256   -2.7344   -0.5349 H   0  0  0  0  0  0  0  0  0  0  0  0
   -1.4126   -2.2444    0.4801 C   0  0  0  0  0  0  0  0  0  0  0  0
   -0.4686   -2.9534    0.8001 O   0  0  0  0  0  0  0  0  0  0  0  0
   -1.2736   -0.9704    0.1241 N   0  0  0  0  0  0  0  0  0  0  0  0
   -2.0996   -0.4354   -0.1019 H   0  0  0  0  0  0  0  0  0  0  0  0
   -0.0016   -0.2394    0.1271 C   0  0  1  0  0  0  0  0  0  0  0  0
    0.4833   -0.3843   -0.8409 H   0  0  0  0  0  0  0  0  0  0  0  0
   -0.2767    1.2643    0.3253 C   0  0  0  0  0  0  0  0  0  0  0  0
   -0.9327    1.4030    1.1855 H   0  0  0  0  0  0  0  0  0  0  0  0
    0.6594    1.7849    0.5305 H   0  0  0  0  0  0  0  0  0  0  0  0
   -0.9635    1.9184   -0.8698 C   0  0  0  0  0  0  0  0  0  0  0  0
   -0.8539    1.5641   -2.0363 O   0  0  0  0  0  0  0  0  0  0  0  0
   -1.7392    2.9757   -0.5661 O   0  0  0  0  0  0  0  0  0  0  0  0
   -2.1175    3.2704   -1.3950 H   0  0  0  0  0  0  0  0  0  0  0  0
    0.9284   -0.7994    1.2218 C   0  0  0  0  0  0  0  0  0  0  0  0
    2.1274   -0.5244    1.2050 O   0  0  0  0  0  0  0  0  0  0  0  0
    0.3892   -1.5843    2.1614 N   0  0  0  0  0  0  0  0  0  0  0  0
   -0.5947   -1.8151    2.0687 H   0  0  0  0  0  0  0  0  0  0  0  0
    1.1366   -2.1838    3.2647 C   0  0  0  0  0  0  0  0  0  0  0  0
    1.7035   -1.4114    3.7891 H   0  0  0  0  0  0  0  0  0  0  0  0
    0.4517   -2.6647    3.9642 H   0  0  0  0  0  0  0  0  0  0  0  0
    1.8358   -2.9262    2.8758 H   0  0  0  0  0  0  0  0  0  0  0  0
  5  6  2  0  0  0  0
  5  7  1  0  0  0  0
  2  3  1  0  0  0  0
  2  4  1  0  0  0  0
  2  5  1  0  0  0  0
  1  2  1  0  0  0  0
 18 19  2  0  0  0  0
 18 20  1  0  0  0  0
 16 17  1  0  0  0  0
 14 15  2  0  0  0  0
 14 16  1  0  0  0  0
 11 12  1  0  0  0  0
 11 13  1  0  0  0  0
 11 14  1  0  0  0  0
  9 10  1  0  0  0  0
  9 11  1  0  0  0  0
  9 18  1  0  0  0  0
  7  8  1  0  0  0  0
  7  9  1  0  0  0  0
 22 23  1  0  0  0  0
 22 24  1  0  0  0  0
 22 25  1  0  0  0  0
 20 21  1  0  0  0  0
 20 22  1  0  0  0  0
M  END
$$$$
default_name
  -OEChem-01062215323D

 25 24  0     1  0  0  0  0  0999 V2000
   -2.7826   -3.8464    0.7821 H   0  0  0  0  0  0  0  0  0  0  0  0
   -2.8156   -2.8034    0.4711 C   0  0  0  0  0  0  0  0  0  0  0  0
   -3.4336   -2.2354    1.1641 H   0  0  0  0  0  0  0  0  0  0  0  0
   -3.2256   -2.7344   -0.5349 H   0  0  0  0  0  0  0  0  0  0  0  0
   -1.4126   -2.2444    0.4801 C   0  0  0  0  0  0  0  0  0  0  0  0
   -0.4686   -2.9534    0.8001 O   0  0  0  0  0  0  0  0  0  0  0  0
   -1.2736   -0.9704    0.1241 N   0  0  0  0  0  0  0  0  0  0  0  0
   -2.0996   -0.4354   -0.1019 H   0  0  0  0  0  0  0  0  0  0  0  0
   -0.0016   -0.2394    0.1271 C   0  0  1  0  0  0  0  0  0  0  0  0
    0.4833   -0.3843   -0.8409 H   0  0  0  0  0  0  0  0  0  0  0  0
   -0.2767    1.2643    0.3253 C   0  0  0  0  0  0  0  0  0  0  0  0
   -0.9327    1.4030    1.1855 H   0  0  0  0  0  0  0  0  0  0  0  0
    0.6594    1.7849    0.5305 H   0  0  0  0  0  0  0  0  0  0  0  0
   -0.9635    1.9184   -0.8698 C   0  0  0  0  0  0  0  0  0  0  0  0
   -0.8539    1.5641   -2.0363 O   0  0  0  0  0  0  0  0  0  0  0  0
   -1.7392    2.9757   -0.5661 O   0  0  0  0  0  0  0  0  0  0  0  0
   -2.1175    3.2704   -1.3950 H   0  0  0  0  0  0  0  0  0  0  0  0
    0.9284   -0.7994    1.2218 C   0  0  0  0  0  0  0  0  0  0  0  0
    2.0502   -0.3184    1.3760 O   0  0  0  0  0  0  0  0  0  0  0  0
    0.4764   -1.8111    1.9713 N   0  0  0  0  0  0  0  0  0  0  0  0
   -0.4347   -2.1933    1.7394 H   0  0  0  0  0  0  0  0  0  0  0  0
    1.2347   -2.4431    3.0488 C   0  0  0  0  0  0  0  0  0  0  0  0
    1.5998   -1.6801    3.7397 H   0  0  0  0  0  0  0  0  0  0  0  0
    0.6009   -3.1458    3.5913 H   0  0  0  0  0  0  0  0  0  0  0  0
    2.0915   -2.9761    2.6330 H   0  0  0  0  0  0  0  0  0  0  0  0
  5  6  2  0  0  0  0
  5  7  1  0  0  0  0
  2  3  1  0  0  0  0
  2  4  1  0  0  0  0
  2  5  1  0  0  0  0
  1  2  1  0  0  0  0
 18 19  2  0  0  0  0
 18 20  1  0  0  0  0
 16 17  1  0  0  0  0
 14 15  2  0  0  0  0
 14 16  1  0  0  0  0
 11 12  1  0  0  0  0
 11 13  1  0  0  0  0
 11 14  1  0  0  0  0
  9 10  1  0  0  0  0
  9 11  1  0  0  0  0
  9 18  1  0  0  0  0
  7  8  1  0  0  0  0
  7  9  1  0  0  0  0
 22 23  1  0  0  0  0
 22 24  1  0  0  0  0
 22 25  1  0  0  0  0
 20 21  1  0  0  0  0
 20 22  1  0  0  0  0
M  END
$$$$
default_name
  -OEChem-01062215323D

 25 24  0     1  0  0  0  0  0999 V2000
   -2.7826   -3.8464    0.7821 H   0  0  0  0  0  0  0  0  0  0  0  0
   -2.8156   -2.8034    0.4711 C   0  0  0  0  0  0  0  0  0  0  0  0
   -3.4336   -2.2354    1.1641 H   0  0  0  0  0  0  0  0  0  0  0  0
   -3.2256   -2.7344   -0.5349 H   0  0  0  0  0  0  0  0  0  0  0  0
   -1.4126   -2.2444    0.4801 C   0  0  0  0  0  0  0  0  0  0  0  0
   -0.4686   -2.9534    0.8001 O   0  0  0  0  0  0  0  0  0  0  0  0
   -1.2736   -0.9704    0.1241 N   0  0  0  0  0  0  0  0  0  0  0  0
   -2.0996   -0.4354   -0.1019 H   0  0  0  0  0  0  0  0  0  0  0  0
   -0.0016   -0.2394    0.1271 C   0  0  1  0  0  0  0  0  0  0  0  0
    0.4833   -0.3843   -0.8409 H   0  0  0  0  0  0  0  0  0  0  0  0
   -0.2767    1.2643    0.3253 C   0  0  0  0  0  0  0  0  0  0  0  0
   -0.9327    1.4030    1.1855 H   0  0  0  0  0  0  0  0  0  0  0  0
    0.6594    1.7849    0.5305 H   0  0  0  0  0  0  0  0  0  0  0  0
   -0.9635    1.9184   -0.8698 C   0  0  0  0  0  0  0  0  0  0  0  0
   -0.8539    1.5641   -2.0363 O   0  0  0  0  0  0  0  0  0  0  0  0
   -1.7392    2.9757   -0.5661 O   0  0  0  0  0  0  0  0  0  0  0  0
   -2.1175    3.2704   -1.3950 H   0  0  0  0  0  0  0  0  0  0  0  0
    0.9284   -0.7994    1.2218 C   0  0  0  0  0  0  0  0  0  0  0  0
    1.9216   -0.1603    1.5661 O   0  0  0  0  0  0  0  0  0  0  0  0
    0.6201   -1.9845    1.7604 N   0  0  0  0  0  0  0  0  0  0  0  0
   -0.1797   -2.4777    1.3772 H   0  0  0  0  0  0  0  0  0  0  0  0
    1.3973   -2.6418    2.8090 C   0  0  0  0  0  0  0  0  0  0  0  0
    1.5537   -1.9509    3.6403 H   0  0  0  0  0  0  0  0  0  0  0  0
    0.8686   -3.5249    3.1699 H   0  0  0  0  0  0  0  0  0  0  0  0
    2.3705   -2.9394    2.4148 H   0  0  0  0  0  0  0  0  0  0  0  0
  5  6  2  0  0  0  0
  5  7  1  0  0  0  0
  2  3  1  0  0  0  0
  2  4  1  0  0  0  0
  2  5  1  0  0  0  0
  1  2  1  0  0  0  0
 18 19  2  0  0  0  0
 18 20  1  0  0  0  0
 16 17  1  0  0  0  0
 14 15  2  0  0  0  0
 14 16  1  0  0  0  0
 11 12  1  0  0  0  0
 11 13  1  0  0  0  0
 11 14  1  0  0  0  0
  9 10  1  0  0  0  0
  9 11  1  0  0  0  0
  9 18  1  0  0  0  0
  7  8  1  0  0  0  0
  7  9  1  0  0  0  0
 22 23  1  0  0  0  0
 22 24  1  0  0  0  0
 22 25  1  0  0  0  0
 20 21  1  0  0  0  0
 20 22  1  0  0  0  0
M  END
$$$$
default_name
  -OEChem-01062215323D

 25 24  0     1  0  0  0  0  0999 V2000
   -2.7826   -3.8464    0.7821 H   0  0  0  0  0  0  0  0  0  0  0  0
   -2.8156   -2.8034    0.4711 C   0  0  0  0  0  0  0  0  0  0  0  0
   -3.4336   -2.2354    1.1641 H   0  0  0  0  0  0  0  0  0  0  0  0
   -3.2256   -2.7344   -0.5349 H   0  0  0  0  0  0  0  0  0  0  0  0
   -1.4126   -2.2444    0.4801 C   0  0  0  0  0  0  0  0  0  0  0  0
   -0.4686   -2.9534    0.8001 O   0  0  0  0  0  0  0  0  0  0  0  0
   -1.2736   -0.9704    0.1241 N   0  0  0  0  0  0  0  0  0  0  0  0
   -2.0996   -0.4354   -0.1019 H   0  0  0  0  0  0  0  0  0  0  0  0
   -0.0016   -0.2394    0.1271 C   0  0  1  0  0  0  0  0  0  0  0  0
    0.4833   -0.3843   -0.8409 H   0  0  0  0  0  0  0  0  0  0  0  0
   -0.2767    1.2643    0.3253 C   0  0  0  0  0  0  0  0  0  0  0  0
   -0.9327    1.4030    1.1855 H   0  0  0  0  0  0  0  0  0  0  0  0
    0.6594    1.7849    0.5305 H   0  0  0  0  0  0  0  0  0  0  0  0
   -0.9635    1.9184   -0.8698 C   0  0  0  0  0  0  0  0  0  0  0  0
   -0.8539    1.5641   -2.0363 O   0  0  0  0  0  0  0  0  0  0  0  0
   -1.7392    2.9757   -0.5661 O   0  0  0  0  0  0  0  0  0  0  0  0
   -2.1175    3.2704   -1.3950 H   0  0  0  0  0  0  0  0  0  0  0  0
    0.9284   -0.7994    1.2218 C   0  0  0  0  0  0  0  0  0  0  0  0
    1.7505   -0.0608    1.7623 O   0  0  0  0  0  0  0  0  0  0  0  0
    0.8107   -2.0926    1.5432 N   0  0  0  0  0  0  0  0  0  0  0  0
    0.1529   -2.6491    1.0069 H   0  0  0  0  0  0  0  0  0  0  0  0
    1.6134   -2.7664    2.5616 C   0  0  0  0  0  0  0  0  0  0  0  0
    1.5683   -2.2055    3.4977 H   0  0  0  0  0  0  0  0  0  0  0  0
    1.2364   -3.7762    2.7289 H   0  0  0  0  0  0  0  0  0  0  0  0
    2.6538   -2.8186    2.2359 H   0  0  0  0  0  0  0  0  0  0  0  0
  5  6  2  0  0  0  0
  5  7  1  0  0  0  0
  2  3  1  0  0  0  0
  2  4  1  0  0  0  0
  2  5  1  0  0  0  0
  1  2  1  0  0  0  0
 18 19  2  0  0  0  0
 18 20  1  0  0  0  0
 16 17  1  0  0  0  0
 14 15  2  0  0  0  0
 14 16  1  0  0  0  0
 11 12  1  0  0  0  0
 11 13  1  0  0  0  0
 11 14  1  0  0  0  0
  9 10  1  0  0  0  0
  9 11  1  0  0  0  0
  9 18  1  0  0  0  0
  7  8  1  0  0  0  0
  7  9  1  0  0  0  0
 22 23  1  0  0  0  0
 22 24  1  0  0  0  0
 22 25  1  0  0  0  0
 20 21  1  0  0  0  0
 20 22  1  0  0  0  0
M  END
$$$$
default_name
  -OEChem-01062215323D

 25 24  0     1  0  0  0  0  0999 V2000
   -2.7826   -3.8464    0.7821 H   0  0  0  0  0  0  0  0  0  0  0  0
   -2.8156   -2.8034    0.4711 C   0  0  0  0  0  0  0  0  0  0  0  0
   -3.4336   -2.2354    1.1641 H   0  0  0  0  0  0  0  0  0  0  0  0
   -3.2256   -2.7344   -0.5349 H   0  0  0  0  0  0  0  0  0  0  0  0
   -1.4126   -2.2444    0.4801 C   0  0  0  0  0  0  0  0  0  0  0  0
   -0.4686   -2.9534    0.8001 O   0  0  0  0  0  0  0  0  0  0  0  0
   -1.2736   -0.9704    0.1241 N   0  0  0  0  0  0  0  0  0  0  0  0
   -2.0996   -0.4354   -0.1019 H   0  0  0  0  0  0  0  0  0  0  0  0
   -0.0016   -0.2394    0.1271 C   0  0  1  0  0  0  0  0  0  0  0  0
    0.4833   -0.3843   -0.8409 H   0  0  0  0  0  0  0  0  0  0  0  0
   -0.2767    1.2643    0.3253 C   0  0  0  0  0  0  0  0  0  0  0  0
   -0.9327    1.4030    1.1855 H   0  0  0  0  0  0  0  0  0  0  0  0
    0.6594    1.7849    0.5305 H   0  0  0  0  0  0  0  0  0  0  0  0
   -0.9635    1.9184   -0.8698 C   0  0  0  0  0  0  0  0  0  0  0  0
   -0.8539    1.5641   -2.0363 O   0  0  0  0  0  0  0  0  0  0  0  0
   -1.7392    2.9757   -0.5661 O   0  0  0  0  0  0  0  0  0  0  0  0
   -2.1175    3.2704   -1.3950 H   0  0  0  0  0  0  0  0  0  0  0  0
    0.9284   -0.7994    1.2218 C   0  0  0  0  0  0  0  0  0  0  0  0
    1.5485   -0.0269    1.9513 O   0  0  0  0  0  0  0  0  0  0  0  0
    1.0350   -2.1282    1.3345 N   0  0  0  0  0  0  0  0  0  0  0  0
    0.5405   -2.6957    0.6538 H   0  0  0  0  0  0  0  0  0  0  0  0
    1.8683   -2.8084    2.3236 C   0  0  0  0  0  0  0  0  0  0  0  0
    1.6426   -2.4264    3.3216 H   0  0  0  0  0  0  0  0  0  0  0  0
    1.6793   -3.8824    2.2983 H   0  0  0  0  0  0  0  0  0  0  0  0
    2.9220   -2.6220    2.1086 H   0  0  0  0  0  0  0  0  0  0  0  0
  5  6  2  0  0  0  0
  5  7  1  0  0  0  0
  2  3  1  0  0  0  0
  2  4  1  0  0  0  0
  2  5  1  0  0  0  0
  1  2  1  0  0  0  0
 18 19  2  0  0  0  0
 18 20  1  0  0  0  0
 16 17  1  0  0  0  0
 14 15  2  0  0  0  0
 14 16  1  0  0  0  0
 11 12  1  0  0  0  0
 11 13  1  0  0  0  0
 11 14  1  0  0  0  0
  9 10  1  0  0  0  0
  9 11  1  0  0  0  0
  9 18  1  0  0  0  0
  7  8  1  0  0  0  0
  7  9  1  0  0  0  0
 22 23  1  0  0  0  0
 22 24  1  0  0  0  0
 22 25  1  0  0  0  0
 20 21  1  0  0  0  0
 20 22  1  0  0  0  0
M  END
$$$$
default_name
  -OEChem-01062215323D

 25 24  0     1  0  0  0  0  0999 V2000
   -2.7826   -3.8464    0.7821 H   0  0  0  0  0  0  0  0  0  0  0  0
   -2.8156   -2.8034    0.4711 C   0  0  0  0  0  0  0  0  0  0  0  0
   -3.4336   -2.2354    1.1641 H   0  0  0  0  0  0  0  0  0  0  0  0
   -3.2256   -2.7344   -0.5349 H   0  0  0  0  0  0  0  0  0  0  0  0
   -1.4126   -2.2444    0.4801 C   0  0  0  0  0  0  0  0  0  0  0  0
   -0.4686   -2.9534    0.8001 O   0  0  0  0  0  0  0  0  0  0  0  0
   -1.2736   -0.9704    0.1241 N   0  0  0  0  0  0  0  0  0  0  0  0
   -2.0996   -0.4354   -0.1019 H   0  0  0  0  0  0  0  0  0  0  0  0
   -0.0016   -0.2394    0.1271 C   0  0  1  0  0  0  0  0  0  0  0  0
    0.4833   -0.3843   -0.8409 H   0  0  0  0  0  0  0  0  0  0  0  0
   -0.2767    1.2643    0.3253 C   0  0  0  0  0  0  0  0  0  0  0  0
   -0.9327    1.4030    1.1855 H   0  0  0  0  0  0  0  0  0  0  0  0
    0.6594    1.7849    0.5305 H   0  0  0  0  0  0  0  0  0  0  0  0
   -0.9635    1.9184   -0.8698 C   0  0  0  0  0  0  0  0  0  0  0  0
   -0.8539    1.5641   -2.0363 O   0  0  0  0  0  0  0  0  0  0  0  0
   -1.7392    2.9757   -0.5661 O   0  0  0  0  0  0  0  0  0  0  0  0
   -2.1175    3.2704   -1.3950 H   0  0  0  0  0  0  0  0  0  0  0  0
    0.9284   -0.7994    1.2218 C   0  0  0  0  0  0  0  0  0  0  0  0
    1.3294   -0.0607    2.1202 O   0  0  0  0  0  0  0  0  0  0  0  0
    1.2778   -2.0887    1.1484 N   0  0  0  0  0  0  0  0  0  0  0  0
    0.9567   -2.6143    0.3419 H   0  0  0  0  0  0  0  0  0  0  0  0
    2.1447   -2.7650    2.1110 C   0  0  0  0  0  0  0  0  0  0  0  0
    1.7716   -2.5987    3.1239 H   0  0  0  0  0  0  0  0  0  0  0  0
    2.1671   -3.8363    1.9074 H   0  0  0  0  0  0  0  0  0  0  0  0
    3.1569   -2.3628    2.0416 H   0  0  0  0  0  0  0  0  0  0  0  0
  5  6  2  0  0  0  0
  5  7  1  0  0  0  0
  2  3  1  0  0  0  0
  2  4  1  0  0  0  0
  2  5  1  0  0  0  0
  1  2  1  0  0  0  0
 18 19  2  0  0  0  0
 18 20  1  0  0  0  0
 16 17  1  0  0  0  0
 14 15  2  0  0  0  0
 14 16  1  0  0  0  0
 11 12  1  0  0  0  0
 11 13  1  0  0  0  0
 11 14  1  0  0  0  0
  9 10  1  0  0  0  0
  9 11  1  0  0  0  0
  9 18  1  0  0  0  0
  7  8  1  0  0  0  0
  7  9  1  0  0  0  0
 22 23  1  0  0  0  0
 22 24  1  0  0  0  0
 22 25  1  0  0  0  0
 20 21  1  0  0  0  0
 20 22  1  0  0  0  0
M  END
$$$$
default_name
  -OEChem-01062215323D

 25 24  0     1  0  0  0  0  0999 V2000
   -2.7826   -3.8464    0.7821 H   0  0  0  0  0  0  0  0  0  0  0  0
   -2.8156   -2.8034    0.4711 C   0  0  0  0  0  0  0  0  0  0  0  0
   -3.4336   -2.2354    1.1641 H   0  0  0  0  0  0  0  0  0  0  0  0
   -3.2256   -2.7344   -0.5349 H   0  0  0  0  0  0  0  0  0  0  0  0
   -1.4126   -2.2444    0.4801 C   0  0  0  0  0  0  0  0  0  0  0  0
   -0.4686   -2.9534    0.8001 O   0  0  0  0  0  0  0  0  0  0  0  0
   -1.2736   -0.9704    0.1241 N   0  0  0  0  0  0  0  0  0  0  0  0
   -2.0996   -0.4354   -0.1019 H   0  0  0  0  0  0  0  0  0  0  0  0
   -0.0016   -0.2394    0.1271 C   0  0  1  0  0  0  0  0  0  0  0  0
    0.4833   -0.3843   -0.8409 H   0  0  0  0  0  0  0  0  0  0  0  0
   -0.2767    1.2643    0.3253 C   0  0  0  0  0  0  0  0  0  0  0  0
   -0.9327    1.4030    1.1855 H   0  0  0  0  0  0  0  0  0  0  0  0
    0.6594    1.7849    0.5305 H   0  0  0  0  0  0  0  0  0  0  0  0
   -0.9635    1.9184   -0.8698 C   0  0  0  0  0  0  0  0  0  0  0  0
   -0.8539    1.5641   -2.0363 O   0  0  0  0  0  0  0  0  0  0  0  0
   -1.7392    2.9757   -0.5661 O   0  0  0  0  0  0  0  0  0  0  0  0
   -2.1175    3.2704   -1.3950 H   0  0  0  0  0  0  0  0  0  0  0  0
    0.9284   -0.7994    1.2218 C   0  0  0  0  0  0  0  0  0  0  0  0
    1.1081   -0.1600    2.2574 O   0  0  0  0  0  0  0  0  0  0  0  0
    1.5227   -1.9768    0.9976 N   0  0  0  0  0  0  0  0  0  0  0  0
    1.3730   -2.4105    0.0924 H   0  0  0  0  0  0  0  0  0  0  0  0
    2.4236   -2.6391    1.9384 C   0  0  0  0  0  0  0  0  0  0  0  0
    1.9463   -2.7105    2.9182 H   0  0  0  0  0  0  0  0  0  0  0  0
    2.6666   -3.6412    1.5829 H   0  0  0  0  0  0  0  0  0  0  0  0
    3.3425   -2.0589    2.0394 H   0  0  0  0  0  0  0  0  0  0  0  0
  5  6  2  0  0  0  0
  5  7  1  0  0  0  0
  2  3  1  0  0  0  0
  2  4  1  0  0  0  0
  2  5  1  0  0  0  0
  1  2  1  0  0  0  0
 18 19  2  0  0  0  0
 18 20  1  0  0  0  0
 16 17  1  0  0  0  0
 14 15  2  0  0  0  0
 14 16  1  0  0  0  0
 11 12  1  0  0  0  0
 11 13  1  0  0  0  0
 11 14  1  0  0  0  0
  9 10  1  0  0  0  0
  9 11  1  0  0  0  0
  9 18  1  0  0  0  0
  7  8  1  0  0  0  0
  7  9  1  0  0  0  0
 22 23  1  0  0  0  0
 22 24  1  0  0  0  0
 22 25  1  0  0  0  0
 20 21  1  0  0  0  0
 20 22  1  0  0  0  0
M  END
$$$$
default_name
  -OEChem-01062215323D

 25 24  0     1  0  0  0  0  0999 V2000
   -2.7826   -3.8464    0.7821 H   0  0  0  0  0  0  0  0  0  0  0  0
   -2.8156   -2.8034    0.4711 C   0  0  0  0  0  0  0  0  0  0  0  0
   -3.4336   -2.2354    1.1641 H   0  0  0  0  0  0  0  0  0  0  0  0
   -3.2256   -2.7344   -0.5349 H   0  0  0  0  0  0  0  0  0  0  0  0
   -1.4126   -2.2444    0.4801 C   0  0  0  0  0  0  0  0  0  0  0  0
   -0.4686   -2.9534    0.8001 O   0  0  0  0  0  0  0  0  0  0  0  0
   -1.2736   -0.9704    0.1241 N   0  0  0  0  0  0  0  0  0  0  0  0
   -2.0996   -0.4354   -0.1019 H   0  0  0  0  0  0  0  0  0  0  0  0
   -0.0016   -0.2394    0.1271 C   0  0  1  0  0  0  0  0  0  0  0  0
    0.4833   -0.3843   -0.8409 H   0  0  0  0  0  0  0  0  0  0  0  0
   -0.2767    1.2643    0.3253 C   0  0  0  0  0  0  0  0  0  0  0  0
   -0.9327    1.4030    1.1855 H   0  0  0  0  0  0  0  0  0  0  0  0
    0.6594    1.7849    0.5305 H   0  0  0  0  0  0  0  0  0  0  0  0
   -0.9635    1.9184   -0.8698 C   0  0  0  0  0  0  0  0  0  0  0  0
   -0.8539    1.5641   -2.0363 O   0  0  0  0  0  0  0  0  0  0  0  0
   -1.7392    2.9757   -0.5661 O   0  0  0  0  0  0  0  0  0  0  0  0
   -2.1175    3.2704   -1.3950 H   0  0  0  0  0  0  0  0  0  0  0  0
    0.9284   -0.7994    1.2218 C   0  0  0  0  0  0  0  0  0  0  0  0
    0.8997   -0.3181    2.3536 O   0  0  0  0  0  0  0  0  0  0  0  0
    1.7527   -1.8002    0.8924 N   0  0  0  0  0  0  0  0  0  0  0  0
    1.7612   -2.0982   -0.0776 H   0  0  0  0  0  0  0  0  0  0  0  0
    2.6861   -2.4393    1.8176 C   0  0  0  0  0  0  0  0  0  0  0  0
    2.1550   -2.7543    2.7185 H   0  0  0  0  0  0  0  0  0  0  0  0
    3.1437   -3.3102    1.3468 H   0  0  0  0  0  0  0  0  0  0  0  0
    3.4661   -1.7309    2.1022 H   0  0  0  0  0  0  0  0  0  0  0  0
  5  6  2  0  0  0  0
  5  7  1  0  0  0  0
  2  3  1  0  0  0  0
  2  4  1  0  0  0  0
  2  5  1  0  0  0  0
  1  2  1  0  0  0  0
 18 19  2  0  0  0  0
 18 20  1  0  0  0  0
 16 17  1  0  0  0  0
 14 15  2  0  0  0  0
 14 16  1  0  0  0  0
 11 12  1  0  0  0  0
 11 13  1  0  0  0  0
 11 14  1  0  0  0  0
  9 10  1  0  0  0  0
  9 11  1  0  0  0  0
  9 18  1  0  0  0  0
  7  8  1  0  0  0  0
  7  9  1  0  0  0  0
 22 23  1  0  0  0  0
 22 24  1  0  0  0  0
 22 25  1  0  0  0  0
 20 21  1  0  0  0  0
 20 22  1  0  0  0  0
M  END
$$$$
default_name
  -OEChem-01062215323D

 25 24  0     1  0  0  0  0  0999 V2000
   -2.7826   -3.8464    0.7821 H   0  0  0  0  0  0  0  0  0  0  0  0
   -2.8156   -2.8034    0.4711 C   0  0  0  0  0  0  0  0  0  0  0  0
   -3.4336   -2.2354    1.1641 H   0  0  0  0  0  0  0  0  0  0  0  0
   -3.2256   -2.7344   -0.5349 H   0  0  0  0  0  0  0  0  0  0  0  0
   -1.4126   -2.2444    0.4801 C   0  0  0  0  0  0  0  0  0  0  0  0
   -0.4686   -2.9534    0.8001 O   0  0  0  0  0  0  0  0  0  0  0  0
   -1.2736   -0.9704    0.1241 N   0  0  0  0  0  0  0  0  0  0  0  0
   -2.0996   -0.4354   -0.1019 H   0  0  0  0  0  0  0  0  0  0  0  0
   -0.0016   -0.2394    0.1271 C   0  0  1  0  0  0  0  0  0  0  0  0
    0.4833   -0.3843   -0.8409 H   0  0  0  0  0  0  0  0  0  0  0  0
   -0.2767    1.2643    0.3253 C   0  0  0  0  0  0  0  0  0  0  0  0
   -0.9327    1.4030    1.1855 H   0  0  0  0  0  0  0  0  0  0  0  0
    0.6594    1.7849    0.5305 H   0  0  0  0  0  0  0  0  0  0  0  0
   -0.9635    1.9184   -0.8698 C   0  0  0  0  0  0  0  0  0  0  0  0
   -0.8539    1.5641   -2.0363 O   0  0  0  0  0  0  0  0  0  0  0  0
   -1.7392    2.9757   -0.5661 O   0  0  0  0  0  0  0  0  0  0  0  0
   -2.1175    3.2704   -1.3950 H   0  0  0  0  0  0  0  0  0  0  0  0
    0.9284   -0.7994    1.2218 C   0  0  0  0  0  0  0  0  0  0  0  0
    0.7184   -0.5240    2.4023 O   0  0  0  0  0  0  0  0  0  0  0  0
    1.9524   -1.5710    0.8400 N   0  0  0  0  0  0  0  0  0  0  0  0
    2.0947   -1.6987   -0.1566 H   0  0  0  0  0  0  0  0  0  0  0  0
    2.9143   -2.1791    1.7568 C   0  0  0  0  0  0  0  0  0  0  0  0
    2.3834   -2.7271    2.5384 H   0  0  0  0  0  0  0  0  0  0  0  0
    3.5659   -2.8660    1.2153 H   0  0  0  0  0  0  0  0  0  0  0  0
    3.5193   -1.4011    2.2256 H   0  0  0  0  0  0  0  0  0  0  0  0
  5  6  2  0  0  0  0
  5  7  1  0  0  0  0
  2  3  1  0  0  0  0
  2  4  1  0  0  0  0
  2  5  1  0  0  0  0
  1  2  1  0  0  0  0
 18 19  2  0  0  0  0
 18 20  1  0  0  0  0
 16 17  1  0  0  0  0
 14 15  2  0  0  0  0
 14 16  1  0  0  0  0
 11 12  1  0  0  0  0
 11 13  1  0  0  0  0
 11 14  1  0  0  0  0
  9 10  1  0  0  0  0
  9 11  1  0  0  0  0
  9 18  1  0  0  0  0
  7  8  1  0  0  0  0
  7  9  1  0  0  0  0
 22 23  1  0  0  0  0
 22 24  1  0  0  0  0
 22 25  1  0  0  0  0
 20 21  1  0  0  0  0
 20 22  1  0  0  0  0
M  END
$$$$
default_name
  -OEChem-01062215323D

 25 24  0     1  0  0  0  0  0999 V2000
   -2.7826   -3.8464    0.7821 H   0  0  0  0  0  0  0  0  0  0  0  0
   -2.8156   -2.8034    0.4711 C   0  0  0  0  0  0  0  0  0  0  0  0
   -3.4336   -2.2354    1.1641 H   0  0  0  0  0  0  0  0  0  0  0  0
   -3.2256   -2.7344   -0.5349 H   0  0  0  0  0  0  0  0  0  0  0  0
   -1.4126   -2.2444    0.4801 C   0  0  0  0  0  0  0  0  0  0  0  0
   -0.4686   -2.9534    0.8001 O   0  0  0  0  0  0  0  0  0  0  0  0
   -1.2736   -0.9704    0.1241 N   0  0  0  0  0  0  0  0  0  0  0  0
   -2.0996   -0.4354   -0.1019 H   0  0  0  0  0  0  0  0  0  0  0  0
   -0.0016   -0.2394    0.1271 C   0  0  1  0  0  0  0  0  0  0  0  0
    0.4833   -0.3843   -0.8409 H   0  0  0  0  0  0  0  0  0  0  0  0
   -0.2767    1.2643    0.3253 C   0  0  0  0  0  0  0  0  0  0  0  0
   -0.9327    1.4030    1.1855 H   0  0  0  0  0  0  0  0  0  0  0  0
    0.6594    1.7849    0.5305 H   0  0  0  0  0  0  0  0  0  0  0  0
   -0.9635    1.9184   -0.8698 C   0  0  0  0  0  0  0  0  0  0  0  0
   -0.8539    1.5641   -2.0363 O   0  0  0  0  0  0  0  0  0  0  0  0
   -1.7392    2.9757   -0.5661 O   0  0  0  0  0  0  0  0  0  0  0  0
   -2.1175    3.2704   -1.3950 H   0  0  0  0  0  0  0  0  0  0  0  0
    0.9284   -0.7994    1.2218 C   0  0  0  0  0  0  0  0  0  0  0  0
    0.5766   -0.7639    2.4001 O   0  0  0  0  0  0  0  0  0  0  0  0
    2.1081   -1.3047    0.8440 N   0  0  0  0  0  0  0  0  0  0  0  0
    2.3509   -1.2391   -0.1392 H   0  0  0  0  0  0  0  0  0  0  0  0
    3.0926   -1.8764    1.7601 C   0  0  0  0  0  0  0  0  0  0  0  0
    2.6160   -2.6307    2.3901 H   0  0  0  0  0  0  0  0  0  0  0  0
    3.9045   -2.3388    1.1974 H   0  0  0  0  0  0  0  0  0  0  0  0
    3.4985   -1.0921    2.4014 H   0  0  0  0  0  0  0  0  0  0  0  0
  5  6  2  0  0  0  0
  5  7  1  0  0  0  0
  2  3  1  0  0  0  0
  2  4  1  0  0  0  0
  2  5  1  0  0  0  0
  1  2  1  0  0  0  0
 18 19  2  0  0  0  0
 18 20  1  0  0  0  0
 16 17  1  0  0  0  0
 14 15  2  0  0  0  0
 14 16  1  0  0  0  0
 11 12  1  0  0  0  0
 11 13  1  0  0  0  0
 11 14  1  0  0  0  0
  9 10  1  0  0  0  0
  9 11  1  0  0  0  0
  9 18  1  0  0  0  0
  7  8  1  0  0  0  0
  7  9  1  0  0  0  0
 22 23  1  0  0  0  0
 22 24  1  0  0  0  0
 22 25  1  0  0  0  0
 20 21  1  0  0  0  0
 20 22  1  0  0  0  0
M  END
$$$$
default_name
  -OEChem-01062215323D

 25 24  0     1  0  0  0  0  0999 V2000
   -2.7826   -3.8464    0.7821 H   0  0  0  0  0  0  0  0  0  0  0  0
   -2.8156   -2.8034    0.4711 C   0  0  0  0  0  0  0  0  0  0  0  0
   -3.4336   -2.2354    1.1641 H   0  0  0  0  0  0  0  0  0  0  0  0
   -3.2256   -2.7344   -0.5349 H   0  0  0  0  0  0  0  0  0  0  0  0
   -1.4126   -2.2444    0.4801 C   0  0  0  0  0  0  0  0  0  0  0  0
   -0.4686   -2.9534    0.8001 O   0  0  0  0  0  0  0  0  0  0  0  0
   -1.2736   -0.9704    0.1241 N   0  0  0  0  0  0  0  0  0  0  0  0
   -2.0996   -0.4354   -0.1019 H   0  0  0  0  0  0  0  0  0  0  0  0
   -0.0016   -0.2394    0.1271 C   0  0  1  0  0  0  0  0  0  0  0  0
    0.4833   -0.3843   -0.8409 H   0  0  0  0  0  0  0  0  0  0  0  0
   -0.2767    1.2643    0.3253 C   0  0  0  0  0  0  0  0  0  0  0  0
   -0.9327    1.4030    1.1855 H   0  0  0  0  0  0  0  0  0  0  0  0
    0.6594    1.7849    0.5305 H   0  0  0  0  0  0  0  0  0  0  0  0
   -0.9635    1.9184   -0.8698 C   0  0  0  0  0  0  0  0  0  0  0  0
   -0.8539    1.5641   -2.0363 O   0  0  0  0  0  0  0  0  0  0  0  0
   -1.7392    2.9757   -0.5661 O   0  0  0  0  0  0  0  0  0  0  0  0
   -2.1175    3.2704   -1.3950 H   0  0  0  0  0  0  0  0  0  0  0  0
    0.9284   -0.7994    1.2218 C   0  0  0  0  0  0  0  0  0  0  0  0
    0.4838   -1.0213    2.3472 O   0  0  0  0  0  0  0  0  0  0  0  0
    2.2092   -1.0194    0.9041 N   0  0  0  0  0  0  0  0  0  0  0  0
    2.5122   -0.7509   -0.0265 H   0  0  0  0  0  0  0  0  0  0  0  0
    3.2089   -1.5518    1.8274 C   0  0  0  0  0  0  0  0  0  0  0  0
    2.8368   -2.4716    2.2838 H   0  0  0  0  0  0  0  0  0  0  0  0
    4.1363   -1.7645    1.2942 H   0  0  0  0  0  0  0  0  0  0  0  0
    3.4051   -0.8248    2.6174 H   0  0  0  0  0  0  0  0  0  0  0  0
  5  6  2  0  0  0  0
  5  7  1  0  0  0  0
  2  3  1  0  0  0  0
  2  4  1  0  0  0  0
  2  5  1  0  0  0  0
  1  2  1  0  0  0  0
 18 19  2  0  0  0  0
 18 20  1  0  0  0  0
 16 17  1  0  0  0  0
 14 15  2  0  0  0  0
 14 16  1  0  0  0  0
 11 12  1  0  0  0  0
 11 13  1  0  0  0  0
 11 14  1  0  0  0  0
  9 10  1  0  0  0  0
  9 11  1  0  0  0  0
  9 18  1  0  0  0  0
  7  8  1  0  0  0  0
  7  9  1  0  0  0  0
 22 23  1  0  0  0  0
 22 24  1  0  0  0  0
 22 25  1  0  0  0  0
 20 21  1  0  0  0  0
 20 22  1  0  0  0  0
M  END
$$$$
default_name
  -OEChem-01062215323D

 25 24  0     1  0  0  0  0  0999 V2000
   -2.7826   -3.8464    0.7821 H   0  0  0  0  0  0  0  0  0  0  0  0
   -2.8156   -2.8034    0.4711 C   0  0  0  0  0  0  0  0  0  0  0  0
   -3.4336   -2.2354    1.1641 H   0  0  0  0  0  0  0  0  0  0  0  0
   -3.2256   -2.7344   -0.5349 H   0  0  0  0  0  0  0  0  0  0  0  0
   -1.4126   -2.2444    0.4801 C   0  0  0  0  0  0  0  0  0  0  0  0
   -0.4686   -2.9534    0.8001 O   0  0  0  0  0  0  0  0  0  0  0  0
   -1.2736   -0.9704    0.1241 N   0  0  0  0  0  0  0  0  0  0  0  0
   -2.0996   -0.4354   -0.1019 H   0  0  0  0  0  0  0  0  0  0  0  0
   -0.0016   -0.2394    0.1271 C   0  0  1  0  0  0  0  0  0  0  0  0
    0.4833   -0.3843   -0.8409 H   0  0  0  0  0  0  0  0  0  0  0  0
   -0.2767    1.2643    0.3253 C   0  0  0  0  0  0  0  0  0  0  0  0
   -0.9327    1.4030    1.1855 H   0  0  0  0  0  0  0  0  0  0  0  0
    0.6594    1.7849    0.5305 H   0  0  0  0  0  0  0  0  0  0  0  0
   -0.9635    1.9184   -0.8698 C   0  0  0  0  0  0  0  0  0  0  0  0
   -0.8539    1.5641   -2.0363 O   0  0  0  0  0  0  0  0  0  0  0  0
   -1.7392    2.9757   -0.5661 O   0  0  0  0  0  0  0  0  0  0  0  0
   -2.1175    3.2704   -1.3950 H   0  0  0  0  0  0  0  0  0  0  0  0
    0.9284   -0.7994    1.2218 C   0  0  0  0  0  0  0  0  0  0  0  0
    0.4465   -1.2787    2.2472 O   0  0  0  0  0  0  0  0  0  0  0  0
    2.2487   -0.7347    1.0161 N   0  0  0  0  0  0  0  0  0  0  0  0
    2.5677   -0.2672    0.1737 H   0  0  0  0  0  0  0  0  0  0  0  0
    3.2553   -1.2274    1.9540 C   0  0  0  0  0  0  0  0  0  0  0  0
    3.0309   -2.2609    2.2268 H   0  0  0  0  0  0  0  0  0  0  0  0
    4.2456   -1.1823    1.4991 H   0  0  0  0  0  0  0  0  0  0  0  0
    3.2455   -0.6176    2.8591 H   0  0  0  0  0  0  0  0  0  0  0  0
  5  6  2  0  0  0  0
  5  7  1  0  0  0  0
  2  3  1  0  0  0  0
  2  4  1  0  0  0  0
  2  5  1  0  0  0  0
  1  2  1  0  0  0  0
 18 19  2  0  0  0  0
 18 20  1  0  0  0  0
 16 17  1  0  0  0  0
 14 15  2  0  0  0  0
 14 16  1  0  0  0  0
 11 12  1  0  0  0  0
 11 13  1  0  0  0  0
 11 14  1  0  0  0  0
  9 10  1  0  0  0  0
  9 11  1  0  0  0  0
  9 18  1  0  0  0  0
  7  8  1  0  0  0  0
  7  9  1  0  0  0  0
 22 23  1  0  0  0  0
 22 24  1  0  0  0  0
 22 25  1  0  0  0  0
 20 21  1  0  0  0  0
 20 22  1  0  0  0  0
M  END
$$$$
default_name
  -OEChem-01062215323D

 25 24  0     1  0  0  0  0  0999 V2000
   -2.7826   -3.8464    0.7821 H   0  0  0  0  0  0  0  0  0  0  0  0
   -2.8156   -2.8034    0.4711 C   0  0  0  0  0  0  0  0  0  0  0  0
   -3.4336   -2.2354    1.1641 H   0  0  0  0  0  0  0  0  0  0  0  0
   -3.2256   -2.7344   -0.5349 H   0  0  0  0  0  0  0  0  0  0  0  0
   -1.4126   -2.2444    0.4801 C   0  0  0  0  0  0  0  0  0  0  0  0
   -0.4686   -2.9534    0.8001 O   0  0  0  0  0  0  0  0  0  0  0  0
   -1.2736   -0.9704    0.1241 N   0  0  0  0  0  0  0  0  0  0  0  0
   -2.0996   -0.4354   -0.1019 H   0  0  0  0  0  0  0  0  0  0  0  0
   -0.0016   -0.2394    0.1271 C   0  0  1  0  0  0  0  0  0  0  0  0
    0.4833   -0.3843   -0.8409 H   0  0  0  0  0  0  0  0  0  0  0  0
   -0.2767    1.2643    0.3253 C   0  0  0  0  0  0  0  0  0  0  0  0
   -0.9327    1.4030    1.1855 H   0  0  0  0  0  0  0  0  0  0  0  0
    0.6594    1.7849    0.5305 H   0  0  0  0  0  0  0  0  0  0  0  0
   -0.9635    1.9184   -0.8698 C   0  0  0  0  0  0  0  0  0  0  0  0
   -0.8539    1.5641   -2.0363 O   0  0  0  0  0  0  0  0  0  0  0  0
   -1.7392    2.9757   -0.5661 O   0  0  0  0  0  0  0  0  0  0  0  0
   -2.1175    3.2704   -1.3950 H   0  0  0  0  0  0  0  0  0  0  0  0
    0.9284   -0.7994    1.2218 C   0  0  0  0  0  0  0  0  0  0  0  0
    0.4672   -1.5187    2.1070 O   0  0  0  0  0  0  0  0  0  0  0  0
    2.2240   -0.4699    1.1725 N   0  0  0  0  0  0  0  0  0  0  0  0
    2.5136    0.1789    0.4479 H   0  0  0  0  0  0  0  0  0  0  0  0
    3.2285   -0.9252    2.1312 C   0  0  0  0  0  0  0  0  0  0  0  0
    3.1850   -2.0127    2.2228 H   0  0  0  0  0  0  0  0  0  0  0  0
    4.2249   -0.6319    1.7983 H   0  0  0  0  0  0  0  0  0  0  0  0
    3.0305   -0.4845    3.1098 H   0  0  0  0  0  0  0  0  0  0  0  0
  5  6  2  0  0  0  0
  5  7  1  0  0  0  0
  2  3  1  0  0  0  0
  2  4  1  0  0  0  0
  2  5  1  0  0  0  0
  1  2  1  0  0  0  0
 18 19  2  0  0  0  0
 18 20  1  0  0  0  0
 16 17  1  0  0  0  0
 14 15  2  0  0  0  0
 14 16  1  0  0  0  0
 11 12  1  0  0  0  0
 11 13  1  0  0  0  0
 11 14  1  0  0  0  0
  9 10  1  0  0  0  0
  9 11  1  0  0  0  0
  9 18  1  0  0  0  0
  7  8  1  0  0  0  0
  7  9  1  0  0  0  0
 22 23  1  0  0  0  0
 22 24  1  0  0  0  0
 22 25  1  0  0  0  0
 20 21  1  0  0  0  0
 20 22  1  0  0  0  0
M  END
$$$$
default_name
  -OEChem-01062215323D

 25 24  0     1  0  0  0  0  0999 V2000
   -2.7826   -3.8464    0.7821 H   0  0  0  0  0  0  0  0  0  0  0  0
   -2.8156   -2.8034    0.4711 C   0  0  0  0  0  0  0  0  0  0  0  0
   -3.4336   -2.2354    1.1641 H   0  0  0  0  0  0  0  0  0  0  0  0
   -3.2256   -2.7344   -0.5349 H   0  0  0  0  0  0  0  0  0  0  0  0
   -1.4126   -2.2444    0.4801 C   0  0  0  0  0  0  0  0  0  0  0  0
   -0.4686   -2.9534    0.8001 O   0  0  0  0  0  0  0  0  0  0  0  0
   -1.2736   -0.9704    0.1241 N   0  0  0  0  0  0  0  0  0  0  0  0
   -2.0996   -0.4354   -0.1019 H   0  0  0  0  0  0  0  0  0  0  0  0
   -0.0016   -0.2394    0.1271 C   0  0  1  0  0  0  0  0  0  0  0  0
    0.3522   -0.1560   -0.9029 H   0  0  0  0  0  0  0  0  0  0  0  0
   -0.2274    1.1771    0.6915 C   0  0  0  0  0  0  0  0  0  0  0  0
   -0.7650    1.1092    1.6381 H   0  0  0  0  0  0  0  0  0  0  0  0
    0.7346    1.6526    0.8858 H   0  0  0  0  0  0  0  0  0  0  0  0
   -1.0533    2.0721   -0.2276 C   0  0  0  0  0  0  0  0  0  0  0  0
   -1.1002    1.9903   -1.4480 O   0  0  0  0  0  0  0  0  0  0  0  0
   -1.7683    3.0224    0.4031 O   0  0  0  0  0  0  0  0  0  0  0  0
   -2.2462    3.4898   -0.2827 H   0  0  0  0  0  0  0  0  0  0  0  0
    1.0539   -1.0165    0.9389 C   0  0  0  0  0  0  0  0  0  0  0  0
    0.7521   -2.0842    1.4706 O   0  0  0  0  0  0  0  0  0  0  0  0
    2.2781   -0.4876    1.0440 N   0  0  0  0  0  0  0  0  0  0  0  0
    2.4289    0.4267    0.6303 H   0  0  0  0  0  0  0  0  0  0  0  0
    3.3844   -1.1054    1.7720 C   0  0  0  0  0  0  0  0  0  0  0  0
    3.5162   -2.1366    1.4373 H   0  0  0  0  0  0  0  0  0  0  0  0
    4.3062   -0.5495    1.5959 H   0  0  0  0  0  0  0  0  0  0  0  0
    3.1646   -1.1110    2.8410 H   0  0  0  0  0  0  0  0  0  0  0  0
  5  6  2  0  0  0  0
  5  7  1  0  0  0  0
  2  3  1  0  0  0  0
  2  4  1  0  0  0  0
  2  5  1  0  0  0  0
  1  2  1  0  0  0  0
 18 19  2  0  0  0  0
 18 20  1  0  0  0  0
 16 17  1  0  0  0  0
 14 15  2  0  0  0  0
 14 16  1  0  0  0  0
 11 12  1  0  0  0  0
 11 13  1  0  0  0  0
 11 14  1  0  0  0  0
  9 10  1  0  0  0  0
  9 11  1  0  0  0  0
  9 18  1  0  0  0  0
  7  8  1  0  0  0  0
  7  9  1  0  0  0  0
 22 23  1  0  0  0  0
 22 24  1  0  0  0  0
 22 25  1  0  0  0  0
 20 21  1  0  0  0  0
 20 22  1  0  0  0  0
M  END
$$$$
default_name
  -OEChem-01062215323D

 25 24  0     1  0  0  0  0  0999 V2000
   -2.7826   -3.8464    0.7821 H   0  0  0  0  0  0  0  0  0  0  0  0
   -2.8156   -2.8034    0.4711 C   0  0  0  0  0  0  0  0  0  0  0  0
   -3.4336   -2.2354    1.1641 H   0  0  0  0  0  0  0  0  0  0  0  0
   -3.2256   -2.7344   -0.5349 H   0  0  0  0  0  0  0  0  0  0  0  0
   -1.4126   -2.2444    0.4801 C   0  0  0  0  0  0  0  0  0  0  0  0
   -0.4686   -2.9534    0.8001 O   0  0  0  0  0  0  0  0  0  0  0  0
   -1.2736   -0.9704    0.1241 N   0  0  0  0  0  0  0  0  0  0  0  0
   -2.0996   -0.4354   -0.1019 H   0  0  0  0  0  0  0  0  0  0  0  0
   -0.0016   -0.2394    0.1271 C   0  0  1  0  0  0  0  0  0  0  0  0
    0.3522   -0.1560   -0.9029 H   0  0  0  0  0  0  0  0  0  0  0  0
   -0.2274    1.1771    0.6915 C   0  0  0  0  0  0  0  0  0  0  0  0
   -0.7650    1.1092    1.6381 H   0  0  0  0  0  0  0  0  0  0  0  0
    0.7346    1.6526    0.8858 H   0  0  0  0  0  0  0  0  0  0  0  0
   -1.0533    2.0721   -0.2276 C   0  0  0  0  0  0  0  0  0  0  0  0
   -1.1002    1.9903   -1.4480 O   0  0  0  0  0  0  0  0  0  0  0  0
   -1.7683    3.0224    0.4031 O   0  0  0  0  0  0  0  0  0  0  0  0
   -2.2462    3.4898   -0.2827 H   0  0  0  0  0  0  0  0  0  0  0  0
    1.0539   -1.0165    0.9389 C   0  0  0  0  0  0  0  0  0  0  0  0
    0.8528   -2.1936    1.2349 O   0  0  0  0  0  0  0  0  0  0  0  0
    2.1653   -0.3682    1.3051 N   0  0  0  0  0  0  0  0  0  0  0  0
    2.2268    0.6187    1.0768 H   0  0  0  0  0  0  0  0  0  0  0  0
    3.2569   -0.9680    2.0692 C   0  0  0  0  0  0  0  0  0  0  0  0
    3.5786   -1.8943    1.5881 H   0  0  0  0  0  0  0  0  0  0  0  0
    4.1005   -0.2787    2.1225 H   0  0  0  0  0  0  0  0  0  0  0  0
    2.9156   -1.2000    3.0796 H   0  0  0  0  0  0  0  0  0  0  0  0
  5  6  2  0  0  0  0
  5  7  1  0  0  0  0
  2  3  1  0  0  0  0
  2  4  1  0  0  0  0
  2  5  1  0  0  0  0
  1  2  1  0  0  0  0
 18 19  2  0  0  0  0
 18 20  1  0  0  0  0
 16 17  1  0  0  0  0
 14 15  2  0  0  0  0
 14 16  1  0  0  0  0
 11 12  1  0  0  0  0
 11 13  1  0  0  0  0
 11 14  1  0  0  0  0
  9 10  1  0  0  0  0
  9 11  1  0  0  0  0
  9 18  1  0  0  0  0
  7  8  1  0  0  0  0
  7  9  1  0  0  0  0
 22 23  1  0  0  0  0
 22 24  1  0  0  0  0
 22 25  1  0  0  0  0
 20 21  1  0  0  0  0
 20 22  1  0  0  0  0
M  END
$$$$
default_name
  -OEChem-01062215323D

 25 24  0     1  0  0  0  0  0999 V2000
   -2.7826   -3.8464    0.7821 H   0  0  0  0  0  0  0  0  0  0  0  0
   -2.8156   -2.8034    0.4711 C   0  0  0  0  0  0  0  0  0  0  0  0
   -3.4336   -2.2354    1.1641 H   0  0  0  0  0  0  0  0  0  0  0  0
   -3.2256   -2.7344   -0.5349 H   0  0  0  0  0  0  0  0  0  0  0  0
   -1.4126   -2.2444    0.4801 C   0  0  0  0  0  0  0  0  0  0  0  0
   -0.4686   -2.9534    0.8001 O   0  0  0  0  0  0  0  0  0  0  0  0
   -1.2736   -0.9704    0.1241 N   0  0  0  0  0  0  0  0  0  0  0  0
   -2.0996   -0.4354   -0.1019 H   0  0  0  0  0  0  0  0  0  0  0  0
   -0.0016   -0.2394    0.1271 C   0  0  1  0  0  0  0  0  0  0  0  0
    0.3522   -0.1560   -0.9029 H   0  0  0  0  0  0  0  0  0  0  0  0
   -0.2274    1.1771    0.6915 C   0  0  0  0  0  0  0  0  0  0  0  0
   -0.7650    1.1092    1.6381 H   0  0  0  0  0  0  0  0  0  0  0  0
    0.7346    1.6526    0.8858 H   0  0  0  0  0  0  0  0  0  0  0  0
   -1.0533    2.0721   -0.2276 C   0  0  0  0  0  0  0  0  0  0  0  0
   -1.1002    1.9903   -1.4480 O   0  0  0  0  0  0  0  0  0  0  0  0
   -1.7683    3.0224    0.4031 O   0  0  0  0  0  0  0  0  0  0  0  0
   -2.2462    3.4898   -0.2827 H   0  0  0  0  0  0  0  0  0  0  0  0
    1.0539   -1.0165    0.9389 C   0  0  0  0  0  0  0  0  0  0  0  0
    0.9958   -2.2438    1.0010 O   0  0  0  0  0  0  0  0  0  0  0  0
    2.0059   -0.3144    1.5637 N   0  0  0  0  0  0  0  0  0  0  0  0
    1.9472    0.6976    1.5158 H   0  0  0  0  0  0  0  0  0  0  0  0
    3.0763   -0.9054    2.3640 C   0  0  0  0  0  0  0  0  0  0  0  0
    3.5861   -1.6785    1.7849 H   0  0  0  0  0  0  0  0  0  0  0  0
    3.7963   -0.1385    2.6522 H   0  0  0  0  0  0  0  0  0  0  0  0
    2.6561   -1.3621    3.2618 H   0  0  0  0  0  0  0  0  0  0  0  0
  5  6  2  0  0  0  0
  5  7  1  0  0  0  0
  2  3  1  0  0  0  0
  2  4  1  0  0  0  0
  2  5  1  0  0  0  0
  1  2  1  0  0  0  0
 18 19  2  0  0  0  0
 18 20  1  0  0  0  0
 16 17  1  0  0  0  0
 14 15  2  0  0  0  0
 14 16  1  0  0  0  0
 11 12  1  0  0  0  0
 11 13  1  0  0  0  0
 11 14  1  0  0  0  0
  9 10  1  0  0  0  0
  9 11  1  0  0  0  0
  9 18  1  0  0  0  0
  7  8  1  0  0  0  0
  7  9  1  0  0  0  0
 22 23  1  0  0  0  0
 22 24  1  0  0  0  0
 22 25  1  0  0  0  0
 20 21  1  0  0  0  0
 20 22  1  0  0  0  0
M  END
$$$$
default_name
  -OEChem-01062215323D

 25 24  0     1  0  0  0  0  0999 V2000
   -2.7826   -3.8464    0.7821 H   0  0  0  0  0  0  0  0  0  0  0  0
   -2.8156   -2.8034    0.4711 C   0  0  0  0  0  0  0  0  0  0  0  0
   -3.4336   -2.2354    1.1641 H   0  0  0  0  0  0  0  0  0  0  0  0
   -3.2256   -2.7344   -0.5349 H   0  0  0  0  0  0  0  0  0  0  0  0
   -1.4126   -2.2444    0.4801 C   0  0  0  0  0  0  0  0  0  0  0  0
   -0.4686   -2.9534    0.8001 O   0  0  0  0  0  0  0  0  0  0  0  0
   -1.2736   -0.9704    0.1241 N   0  0  0  0  0  0  0  0  0  0  0  0
   -2.0996   -0.4354   -0.1019 H   0  0  0  0  0  0  0  0  0  0  0  0
   -0.0016   -0.2394    0.1271 C   0  0  1  0  0  0  0  0  0  0  0  0
    0.3522   -0.1560   -0.9029 H   0  0  0  0  0  0  0  0  0  0  0  0
   -0.2274    1.1771    0.6915 C   0  0  0  0  0  0  0  0  0  0  0  0
   -0.7650    1.1092    1.6381 H   0  0  0  0  0  0  0  0  0  0  0  0
    0.7346    1.6526    0.8858 H   0  0  0  0  0  0  0  0  0  0  0  0
   -1.0533    2.0721   -0.2276 C   0  0  0  0  0  0  0  0  0  0  0  0
   -1.1002    1.9903   -1.4480 O   0  0  0  0  0  0  0  0  0  0  0  0
   -1.7683    3.0224    0.4031 O   0  0  0  0  0  0  0  0  0  0  0  0
   -2.2462    3.4898   -0.2827 H   0  0  0  0  0  0  0  0  0  0  0  0
    1.0539   -1.0165    0.9389 C   0  0  0  0  0  0  0  0  0  0  0  0
    1.1712   -2.2314    0.7848 O   0  0  0  0  0  0  0  0  0  0  0  0
    1.8109   -0.3301    1.8023 N   0  0  0  0  0  0  0  0  0  0  0  0
    1.6091    0.6578    1.9173 H   0  0  0  0  0  0  0  0  0  0  0  0
    2.8549   -0.9218    2.6362 C   0  0  0  0  0  0  0  0  0  0  0  0
    3.5383   -1.5039    2.0142 H   0  0  0  0  0  0  0  0  0  0  0  0
    3.4142   -0.1383    3.1491 H   0  0  0  0  0  0  0  0  0  0  0  0
    2.4038   -1.5864    3.3752 H   0  0  0  0  0  0  0  0  0  0  0  0
  5  6  2  0  0  0  0
  5  7  1  0  0  0  0
  2  3  1  0  0  0  0
  2  4  1  0  0  0  0
  2  5  1  0  0  0  0
  1  2  1  0  0  0  0
 18 19  2  0  0  0  0
 18 20  1  0  0  0  0
 16 17  1  0  0  0  0
 14 15  2  0  0  0  0
 14 16  1  0  0  0  0
 11 12  1  0  0  0  0
 11 13  1  0  0  0  0
 11 14  1  0  0  0  0
  9 10  1  0  0  0  0
  9 11  1  0  0  0  0
  9 18  1  0  0  0  0
  7  8  1  0  0  0  0
  7  9  1  0  0  0  0
 22 23  1  0  0  0  0
 22 24  1  0  0  0  0
 22 25  1  0  0  0  0
 20 21  1  0  0  0  0
 20 22  1  0  0  0  0
M  END
$$$$
default_name
  -OEChem-01062215323D

 25 24  0     1  0  0  0  0  0999 V2000
   -2.7826   -3.8464    0.7821 H   0  0  0  0  0  0  0  0  0  0  0  0
   -2.8156   -2.8034    0.4711 C   0  0  0  0  0  0  0  0  0  0  0  0
   -3.4336   -2.2354    1.1641 H   0  0  0  0  0  0  0  0  0  0  0  0
   -3.2256   -2.7344   -0.5349 H   0  0  0  0  0  0  0  0  0  0  0  0
   -1.4126   -2.2444    0.4801 C   0  0  0  0  0  0  0  0  0  0  0  0
   -0.4686   -2.9534    0.8001 O   0  0  0  0  0  0  0  0  0  0  0  0
   -1.2736   -0.9704    0.1241 N   0  0  0  0  0  0  0  0  0  0  0  0
   -2.0996   -0.4354   -0.1019 H   0  0  0  0  0  0  0  0  0  0  0  0
   -0.0016   -0.2394    0.1271 C   0  0  1  0  0  0  0  0  0  0  0  0
    0.3522   -0.1560   -0.9029 H   0  0  0  0  0  0  0  0  0  0  0  0
   -0.2274    1.1771    0.6915 C   0  0  0  0  0  0  0  0  0  0  0  0
   -0.7650    1.1092    1.6381 H   0  0  0  0  0  0  0  0  0  0  0  0
    0.7346    1.6526    0.8858 H   0  0  0  0  0  0  0  0  0  0  0  0
   -1.0533    2.0721   -0.2276 C   0  0  0  0  0  0  0  0  0  0  0  0
   -1.1002    1.9903   -1.4480 O   0  0  0  0  0  0  0  0  0  0  0  0
   -1.7683    3.0224    0.4031 O   0  0  0  0  0  0  0  0  0  0  0  0
   -2.2462    3.4898   -0.2827 H   0  0  0  0  0  0  0  0  0  0  0  0
    1.0539   -1.0165    0.9389 C   0  0  0  0  0  0  0  0  0  0  0  0
    1.3671   -2.1572    0.6010 O   0  0  0  0  0  0  0  0  0  0  0  0
    1.5935   -0.4141    2.0045 N   0  0  0  0  0  0  0  0  0  0  0  0
    1.2356    0.5022    2.2540 H   0  0  0  0  0  0  0  0  0  0  0  0
    2.6077   -1.0160    2.8674 C   0  0  0  0  0  0  0  0  0  0  0  0
    3.4384   -1.3823    2.2604 H   0  0  0  0  0  0  0  0  0  0  0  0
    2.9803   -0.2783    3.5792 H   0  0  0  0  0  0  0  0  0  0  0  0
    2.1759   -1.8575    3.4120 H   0  0  0  0  0  0  0  0  0  0  0  0
  5  6  2  0  0  0  0
  5  7  1  0  0  0  0
  2  3  1  0  0  0  0
  2  4  1  0  0  0  0
  2  5  1  0  0  0  0
  1  2  1  0  0  0  0
 18 19  2  0  0  0  0
 18 20  1  0  0  0  0
 16 17  1  0  0  0  0
 14 15  2  0  0  0  0
 14 16  1  0  0  0  0
 11 12  1  0  0  0  0
 11 13  1  0  0  0  0
 11 14  1  0  0  0  0
  9 10  1  0  0  0  0
  9 11  1  0  0  0  0
  9 18  1  0  0  0  0
  7  8  1  0  0  0  0
  7  9  1  0  0  0  0
 22 23  1  0  0  0  0
 22 24  1  0  0  0  0
 22 25  1  0  0  0  0
 20 21  1  0  0  0  0
 20 22  1  0  0  0  0
M  END
$$$$
default_name
  -OEChem-01062215323D

 25 24  0     1  0  0  0  0  0999 V2000
   -2.7826   -3.8464    0.7821 H   0  0  0  0  0  0  0  0  0  0  0  0
   -2.8156   -2.8034    0.4711 C   0  0  0  0  0  0  0  0  0  0  0  0
   -3.4336   -2.2354    1.1641 H   0  0  0  0  0  0  0  0  0  0  0  0
   -3.2256   -2.7344   -0.5349 H   0  0  0  0  0  0  0  0  0  0  0  0
   -1.4126   -2.2444    0.4801 C   0  0  0  0  0  0  0  0  0  0  0  0
   -0.4686   -2.9534    0.8001 O   0  0  0  0  0  0  0  0  0  0  0  0
   -1.2736   -0.9704    0.1241 N   0  0  0  0  0  0  0  0  0  0  0  0
   -2.0996   -0.4354   -0.1019 H   0  0  0  0  0  0  0  0  0  0  0  0
   -0.0016   -0.2394    0.1271 C   0  0  1  0  0  0  0  0  0  0  0  0
    0.3522   -0.1560   -0.9029 H   0  0  0  0  0  0  0  0  0  0  0  0
   -0.2274    1.1771    0.6915 C   0  0  0  0  0  0  0  0  0  0  0  0
   -0.7650    1.1092    1.6381 H   0  0  0  0  0  0  0  0  0  0  0  0
    0.7346    1.6526    0.8858 H   0  0  0  0  0  0  0  0  0  0  0  0
   -1.0533    2.0721   -0.2276 C   0  0  0  0  0  0  0  0  0  0  0  0
   -1.1002    1.9903   -1.4480 O   0  0  0  0  0  0  0  0  0  0  0  0
   -1.7683    3.0224    0.4031 O   0  0  0  0  0  0  0  0  0  0  0  0
   -2.2462    3.4898   -0.2827 H   0  0  0  0  0  0  0  0  0  0  0  0
    1.0539   -1.0165    0.9389 C   0  0  0  0  0  0  0  0  0  0  0  0
    1.5703   -2.0263    0.4623 O   0  0  0  0  0  0  0  0  0  0  0  0
    1.3687   -0.5606    2.1566 N   0  0  0  0  0  0  0  0  0  0  0  0
    0.8520    0.2413    2.5029 H   0  0  0  0  0  0  0  0  0  0  0  0
    2.3516   -1.1817    3.0418 C   0  0  0  0  0  0  0  0  0  0  0  0
    3.2933   -1.3222    2.5067 H   0  0  0  0  0  0  0  0  0  0  0  0
    2.5241   -0.5489    3.9133 H   0  0  0  0  0  0  0  0  0  0  0  0
    1.9878   -2.1570    3.3699 H   0  0  0  0  0  0  0  0  0  0  0  0
  5  6  2  0  0  0  0
  5  7  1  0  0  0  0
  2  3  1  0  0  0  0
  2  4  1  0  0  0  0
  2  5  1  0  0  0  0
  1  2  1  0  0  0  0
 18 19  2  0  0  0  0
 18 20  1  0  0  0  0
 16 17  1  0  0  0  0
 14 15  2  0  0  0  0
 14 16  1  0  0  0  0
 11 12  1  0  0  0  0
 11 13  1  0  0  0  0
 11 14  1  0  0  0  0
  9 10  1  0  0  0  0
  9 11  1  0  0  0  0
  9 18  1  0  0  0  0
  7  8  1  0  0  0  0
  7  9  1  0  0  0  0
 22 23  1  0  0  0  0
 22 24  1  0  0  0  0
 22 25  1  0  0  0  0
 20 21  1  0  0  0  0
 20 22  1  0  0  0  0
M  END
$$$$
default_name
  -OEChem-01062215323D

 25 24  0     1  0  0  0  0  0999 V2000
   -2.7826   -3.8464    0.7821 H   0  0  0  0  0  0  0  0  0  0  0  0
   -2.8156   -2.8034    0.4711 C   0  0  0  0  0  0  0  0  0  0  0  0
   -3.4336   -2.2354    1.1641 H   0  0  0  0  0  0  0  0  0  0  0  0
   -3.2256   -2.7344   -0.5349 H   0  0  0  0  0  0  0  0  0  0  0  0
   -1.4126   -2.2444    0.4801 C   0  0  0  0  0  0  0  0  0  0  0  0
   -0.4686   -2.9534    0.8001 O   0  0  0  0  0  0  0  0  0  0  0  0
   -1.2736   -0.9704    0.1241 N   0  0  0  0  0  0  0  0  0  0  0  0
   -2.0996   -0.4354   -0.1019 H   0  0  0  0  0  0  0  0  0  0  0  0
   -0.0016   -0.2394    0.1271 C   0  0  1  0  0  0  0  0  0  0  0  0
    0.3522   -0.1560   -0.9029 H   0  0  0  0  0  0  0  0  0  0  0  0
   -0.2274    1.1771    0.6915 C   0  0  0  0  0  0  0  0  0  0  0  0
   -0.7650    1.1092    1.6381 H   0  0  0  0  0  0  0  0  0  0  0  0
    0.7346    1.6526    0.8858 H   0  0  0  0  0  0  0  0  0  0  0  0
   -1.0533    2.0721   -0.2276 C   0  0  0  0  0  0  0  0  0  0  0  0
   -1.1002    1.9903   -1.4480 O   0  0  0  0  0  0  0  0  0  0  0  0
   -1.7683    3.0224    0.4031 O   0  0  0  0  0  0  0  0  0  0  0  0
   -2.2462    3.4898   -0.2827 H   0  0  0  0  0  0  0  0  0  0  0  0
    1.0539   -1.0165    0.9389 C   0  0  0  0  0  0  0  0  0  0  0  0
    1.7667   -1.8476    0.3779 O   0  0  0  0  0  0  0  0  0  0  0  0
    1.1516   -0.7597    2.2482 N   0  0  0  0  0  0  0  0  0  0  0  0
    0.4847   -0.1071    2.6471 H   0  0  0  0  0  0  0  0  0  0  0  0
    2.1041   -1.4075    3.1475 C   0  0  0  0  0  0  0  0  0  0  0  0
    3.1127   -1.3275    2.7363 H   0  0  0  0  0  0  0  0  0  0  0  0
    2.0768   -0.9316    4.1285 H   0  0  0  0  0  0  0  0  0  0  0  0
    1.8525   -2.4644    3.2515 H   0  0  0  0  0  0  0  0  0  0  0  0
  5  6  2  0  0  0  0
  5  7  1  0  0  0  0
  2  3  1  0  0  0  0
  2  4  1  0  0  0  0
  2  5  1  0  0  0  0
  1  2  1  0  0  0  0
 18 19  2  0  0  0  0
 18 20  1  0  0  0  0
 16 17  1  0  0  0  0
 14 15  2  0  0  0  0
 14 16  1  0  0  0  0
 11 12  1  0  0  0  0
 11 13  1  0  0  0  0
 11 14  1  0  0  0  0
  9 10  1  0  0  0  0
  9 11  1  0  0  0  0
  9 18  1  0  0  0  0
  7  8  1  0  0  0  0
  7  9  1  0  0  0  0
 22 23  1  0  0  0  0
 22 24  1  0  0  0  0
 22 25  1  0  0  0  0
 20 21  1  0  0  0  0
 20 22  1  0  0  0  0
M  END
$$$$
default_name
  -OEChem-01062215323D

 25 24  0     1  0  0  0  0  0999 V2000
   -2.7826   -3.8464    0.7821 H   0  0  0  0  0  0  0  0  0  0  0  0
   -2.8156   -2.8034    0.4711 C   0  0  0  0  0  0  0  0  0  0  0  0
   -3.4336   -2.2354    1.1641 H   0  0  0  0  0  0  0  0  0  0  0  0
   -3.2256   -2.7344   -0.5349 H   0  0  0  0  0  0  0  0  0  0  0  0
   -1.4126   -2.2444    0.4801 C   0  0  0  0  0  0  0  0  0  0  0  0
   -0.4686   -2.9534    0.8001 O   0  0  0  0  0  0  0  0  0  0  0  0
   -1.2736   -0.9704    0.1241 N   0  0  0  0  0  0  0  0  0  0  0  0
   -2.0996   -0.4354   -0.1019 H   0  0  0  0  0  0  0  0  0  0  0  0
   -0.0016   -0.2394    0.1271 C   0  0  1  0  0  0  0  0  0  0  0  0
    0.3522   -0.1560   -0.9029 H   0  0  0  0  0  0  0  0  0  0  0  0
   -0.2274    1.1771    0.6915 C   0  0  0  0  0  0  0  0  0  0  0  0
   -0.7650    1.1092    1.6381 H   0  0  0  0  0  0  0  0  0  0  0  0
    0.7346    1.6526    0.8858 H   0  0  0  0  0  0  0  0  0  0  0  0
   -1.0533    2.0721   -0.2276 C   0  0  0  0  0  0  0  0  0  0  0  0
   -1.1002    1.9903   -1.4480 O   0  0  0  0  0  0  0  0  0  0  0  0
   -1.7683    3.0224    0.4031 O   0  0  0  0  0  0  0  0  0  0  0  0
   -2.2462    3.4898   -0.2827 H   0  0  0  0  0  0  0  0  0  0  0  0
    1.0539   -1.0165    0.9389 C   0  0  0  0  0  0  0  0  0  0  0  0
    1.9431   -1.6332    0.3538 O   0  0  0  0  0  0  0  0  0  0  0  0
    0.9571   -0.9979    2.2731 N   0  0  0  0  0  0  0  0  0  0  0  0
    0.1585   -0.5192    2.6767 H   0  0  0  0  0  0  0  0  0  0  0  0
    1.8819   -1.6781    3.1772 C   0  0  0  0  0  0  0  0  0  0  0  0
    2.9091   -1.3979    2.9336 H   0  0  0  0  0  0  0  0  0  0  0  0
    1.6688   -1.4004    4.2103 H   0  0  0  0  0  0  0  0  0  0  0  0
    1.7791   -2.7588    3.0651 H   0  0  0  0  0  0  0  0  0  0  0  0
  5  6  2  0  0  0  0
  5  7  1  0  0  0  0
  2  3  1  0  0  0  0
  2  4  1  0  0  0  0
  2  5  1  0  0  0  0
  1  2  1  0  0  0  0
 18 19  2  0  0  0  0
 18 20  1  0  0  0  0
 16 17  1  0  0  0  0
 14 15  2  0  0  0  0
 14 16  1  0  0  0  0
 11 12  1  0  0  0  0
 11 13  1  0  0  0  0
 11 14  1  0  0  0  0
  9 10  1  0  0  0  0
  9 11  1  0  0  0  0
  9 18  1  0  0  0  0
  7  8  1  0  0  0  0
  7  9  1  0  0  0  0
 22 23  1  0  0  0  0
 22 24  1  0  0  0  0
 22 25  1  0  0  0  0
 20 21  1  0  0  0  0
 20 22  1  0  0  0  0
M  END
$$$$
default_name
  -OEChem-01062215323D

 25 24  0     1  0  0  0  0  0999 V2000
   -2.7826   -3.8464    0.7821 H   0  0  0  0  0  0  0  0  0  0  0  0
   -2.8156   -2.8034    0.4711 C   0  0  0  0  0  0  0  0  0  0  0  0
   -3.4336   -2.2354    1.1641 H   0  0  0  0  0  0  0  0  0  0  0  0
   -3.2256   -2.7344   -0.5349 H   0  0  0  0  0  0  0  0  0  0  0  0
   -1.4126   -2.2444    0.4801 C   0  0  0  0  0  0  0  0  0  0  0  0
   -0.4686   -2.9534    0.8001 O   0  0  0  0  0  0  0  0  0  0  0  0
   -1.2736   -0.9704    0.1241 N   0  0  0  0  0  0  0  0  0  0  0  0
   -2.0996   -0.4354   -0.1019 H   0  0  0  0  0  0  0  0  0  0  0  0
   -0.0016   -0.2394    0.1271 C   0  0  1  0  0  0  0  0  0  0  0  0
    0.3522   -0.1560   -0.9029 H   0  0  0  0  0  0  0  0  0  0  0  0
   -0.2274    1.1771    0.6915 C   0  0  0  0  0  0  0  0  0  0  0  0
   -0.7650    1.1092    1.6381 H   0  0  0  0  0  0  0  0  0  0  0  0
    0.7346    1.6526    0.8858 H   0  0  0  0  0  0  0  0  0  0  0  0
   -1.0533    2.0721   -0.2276 C   0  0  0  0  0  0  0  0  0  0  0  0
   -1.1002    1.9903   -1.4480 O   0  0  0  0  0  0  0  0  0  0  0  0
   -1.7683    3.0224    0.4031 O   0  0  0  0  0  0  0  0  0  0  0  0
   -2.2462    3.4898   -0.2827 H   0  0  0  0  0  0  0  0  0  0  0  0
    1.0539   -1.0165    0.9389 C   0  0  0  0  0  0  0  0  0  0  0  0
    2.0875   -1.3978    0.3914 O   0  0  0  0  0  0  0  0  0  0  0  0
    0.7985   -1.2589    2.2295 N   0  0  0  0  0  0  0  0  0  0  0  0
   -0.1043   -0.9670    2.5897 H   0  0  0  0  0  0  0  0  0  0  0  0
    1.7004   -1.9750    3.1291 C   0  0  0  0  0  0  0  0  0  0  0  0
    2.6963   -1.5287    3.0852 H   0  0  0  0  0  0  0  0  0  0  0  0
    1.3280   -1.9233    4.1529 H   0  0  0  0  0  0  0  0  0  0  0  0
    1.7727   -3.0202    2.8233 H   0  0  0  0  0  0  0  0  0  0  0  0
  5  6  2  0  0  0  0
  5  7  1  0  0  0  0
  2  3  1  0  0  0  0
  2  4  1  0  0  0  0
  2  5  1  0  0  0  0
  1  2  1  0  0  0  0
 18 19  2  0  0  0  0
 18 20  1  0  0  0  0
 16 17  1  0  0  0  0
 14 15  2  0  0  0  0
 14 16  1  0  0  0  0
 11 12  1  0  0  0  0
 11 13  1  0  0  0  0
 11 14  1  0  0  0  0
  9 10  1  0  0  0  0
  9 11  1  0  0  0  0
  9 18  1  0  0  0  0
  7  8  1  0  0  0  0
  7  9  1  0  0  0  0
 22 23  1  0  0  0  0
 22 24  1  0  0  0  0
 22 25  1  0  0  0  0
 20 21  1  0  0  0  0
 20 22  1  0  0  0  0
M  END
$$$$
default_name
  -OEChem-01062215323D

 25 24  0     1  0  0  0  0  0999 V2000
   -2.7826   -3.8464    0.7821 H   0  0  0  0  0  0  0  0  0  0  0  0
   -2.8156   -2.8034    0.4711 C   0  0  0  0  0  0  0  0  0  0  0  0
   -3.4336   -2.2354    1.1641 H   0  0  0  0  0  0  0  0  0  0  0  0
   -3.2256   -2.7344   -0.5349 H   0  0  0  0  0  0  0  0  0  0  0  0
   -1.4126   -2.2444    0.4801 C   0  0  0  0  0  0  0  0  0  0  0  0
   -0.4686   -2.9534    0.8001 O   0  0  0  0  0  0  0  0  0  0  0  0
   -1.2736   -0.9704    0.1241 N   0  0  0  0  0  0  0  0  0  0  0  0
   -2.0996   -0.4354   -0.1019 H   0  0  0  0  0  0  0  0  0  0  0  0
   -0.0016   -0.2394    0.1271 C   0  0  1  0  0  0  0  0  0  0  0  0
    0.3522   -0.1560   -0.9029 H   0  0  0  0  0  0  0  0  0  0  0  0
   -0.2274    1.1771    0.6915 C   0  0  0  0  0  0  0  0  0  0  0  0
   -0.7650    1.1092    1.6381 H   0  0  0  0  0  0  0  0  0  0  0  0
    0.7346    1.6526    0.8858 H   0  0  0  0  0  0  0  0  0  0  0  0
   -1.0533    2.0721   -0.2276 C   0  0  0  0  0  0  0  0  0  0  0  0
   -1.1002    1.9903   -1.4480 O   0  0  0  0  0  0  0  0  0  0  0  0
   -1.7683    3.0224    0.4031 O   0  0  0  0  0  0  0  0  0  0  0  0
   -2.2462    3.4898   -0.2827 H   0  0  0  0  0  0  0  0  0  0  0  0
    1.0539   -1.0165    0.9389 C   0  0  0  0  0  0  0  0  0  0  0  0
    2.1899   -1.1574    0.4883 O   0  0  0  0  0  0  0  0  0  0  0  0
    0.6865   -1.5249    2.1205 N   0  0  0  0  0  0  0  0  0  0  0  0
   -0.2857   -1.4199    2.3921 H   0  0  0  0  0  0  0  0  0  0  0  0
    1.5718   -2.2780    3.0063 C   0  0  0  0  0  0  0  0  0  0  0  0
    2.4888   -1.7108    3.1806 H   0  0  0  0  0  0  0  0  0  0  0  0
    1.0775   -2.4647    3.9604 H   0  0  0  0  0  0  0  0  0  0  0  0
    1.8336   -3.2307    2.5426 H   0  0  0  0  0  0  0  0  0  0  0  0
  5  6  2  0  0  0  0
  5  7  1  0  0  0  0
  2  3  1  0  0  0  0
  2  4  1  0  0  0  0
  2  5  1  0  0  0  0
  1  2  1  0  0  0  0
 18 19  2  0  0  0  0
 18 20  1  0  0  0  0
 16 17  1  0  0  0  0
 14 15  2  0  0  0  0
 14 16  1  0  0  0  0
 11 12  1  0  0  0  0
 11 13  1  0  0  0  0
 11 14  1  0  0  0  0
  9 10  1  0  0  0  0
  9 11  1  0  0  0  0
  9 18  1  0  0  0  0
  7  8  1  0  0  0  0
  7  9  1  0  0  0  0
 22 23  1  0  0  0  0
 22 24  1  0  0  0  0
 22 25  1  0  0  0  0
 20 21  1  0  0  0  0
 20 22  1  0  0  0  0
M  END
$$$$
default_name
  -OEChem-01062215323D

 25 24  0     1  0  0  0  0  0999 V2000
   -2.7826   -3.8464    0.7821 H   0  0  0  0  0  0  0  0  0  0  0  0
   -2.8156   -2.8034    0.4711 C   0  0  0  0  0  0  0  0  0  0  0  0
   -3.4336   -2.2354    1.1641 H   0  0  0  0  0  0  0  0  0  0  0  0
   -3.2256   -2.7344   -0.5349 H   0  0  0  0  0  0  0  0  0  0  0  0
   -1.4126   -2.2444    0.4801 C   0  0  0  0  0  0  0  0  0  0  0  0
   -0.4686   -2.9534    0.8001 O   0  0  0  0  0  0  0  0  0  0  0  0
   -1.2736   -0.9704    0.1241 N   0  0  0  0  0  0  0  0  0  0  0  0
   -2.0996   -0.4354   -0.1019 H   0  0  0  0  0  0  0  0  0  0  0  0
   -0.0016   -0.2394    0.1271 C   0  0  1  0  0  0  0  0  0  0  0  0
    0.3522   -0.1560   -0.9029 H   0  0  0  0  0  0  0  0  0  0  0  0
   -0.2274    1.1771    0.6915 C   0  0  0  0  0  0  0  0  0  0  0  0
   -0.7650    1.1092    1.6381 H   0  0  0  0  0  0  0  0  0  0  0  0
    0.7346    1.6526    0.8858 H   0  0  0  0  0  0  0  0  0  0  0  0
   -1.0533    2.0721   -0.2276 C   0  0  0  0  0  0  0  0  0  0  0  0
   -1.1002    1.9903   -1.4480 O   0  0  0  0  0  0  0  0  0  0  0  0
   -1.7683    3.0224    0.4031 O   0  0  0  0  0  0  0  0  0  0  0  0
   -2.2462    3.4898   -0.2827 H   0  0  0  0  0  0  0  0  0  0  0  0
    1.0539   -1.0165    0.9389 C   0  0  0  0  0  0  0  0  0  0  0  0
    2.2435   -0.9284    0.6379 O   0  0  0  0  0  0  0  0  0  0  0  0
    0.6288   -1.7778    1.9535 N   0  0  0  0  0  0  0  0  0  0  0  0
   -0.3734   -1.8471    2.0973 H   0  0  0  0  0  0  0  0  0  0  0  0
    1.5049   -2.5664    2.8172 C   0  0  0  0  0  0  0  0  0  0  0  0
    2.3007   -1.9320    3.2135 H   0  0  0  0  0  0  0  0  0  0  0  0
    0.9344   -2.9876    3.6459 H   0  0  0  0  0  0  0  0  0  0  0  0
    1.9578   -3.3760    2.2421 H   0  0  0  0  0  0  0  0  0  0  0  0
  5  6  2  0  0  0  0
  5  7  1  0  0  0  0
  2  3  1  0  0  0  0
  2  4  1  0  0  0  0
  2  5  1  0  0  0  0
  1  2  1  0  0  0  0
 18 19  2  0  0  0  0
 18 20  1  0  0  0  0
 16 17  1  0  0  0  0
 14 15  2  0  0  0  0
 14 16  1  0  0  0  0
 11 12  1  0  0  0  0
 11 13  1  0  0  0  0
 11 14  1  0  0  0  0
  9 10  1  0  0  0  0
  9 11  1  0  0  0  0
  9 18  1  0  0  0  0
  7  8  1  0  0  0  0
  7  9  1  0  0  0  0
 22 23  1  0  0  0  0
 22 24  1  0  0  0  0
 22 25  1  0  0  0  0
 20 21  1  0  0  0  0
 20 22  1  0  0  0  0
M  END
$$$$
default_name
  -OEChem-01062215323D

 25 24  0     1  0  0  0  0  0999 V2000
   -2.7826   -3.8464    0.7821 H   0  0  0  0  0  0  0  0  0  0  0  0
   -2.8156   -2.8034    0.4711 C   0  0  0  0  0  0  0  0  0  0  0  0
   -3.4336   -2.2354    1.1641 H   0  0  0  0  0  0  0  0  0  0  0  0
   -3.2256   -2.7344   -0.5349 H   0  0  0  0  0  0  0  0  0  0  0  0
   -1.4126   -2.2444    0.4801 C   0  0  0  0  0  0  0  0  0  0  0  0
   -0.4686   -2.9534    0.8001 O   0  0  0  0  0  0  0  0  0  0  0  0
   -1.2736   -0.9704    0.1241 N   0  0  0  0  0  0  0  0  0  0  0  0
   -2.0996   -0.4354   -0.1019 H   0  0  0  0  0  0  0  0  0  0  0  0
   -0.0016   -0.2394    0.1271 C   0  0  1  0  0  0  0  0  0  0  0  0
    0.3522   -0.1560   -0.9029 H   0  0  0  0  0  0  0  0  0  0  0  0
   -0.2274    1.1771    0.6915 C   0  0  0  0  0  0  0  0  0  0  0  0
   -0.7650    1.1092    1.6381 H   0  0  0  0  0  0  0  0  0  0  0  0
    0.7346    1.6526    0.8858 H   0  0  0  0  0  0  0  0  0  0  0  0
   -1.0533    2.0721   -0.2276 C   0  0  0  0  0  0  0  0  0  0  0  0
   -1.1002    1.9903   -1.4480 O   0  0  0  0  0  0  0  0  0  0  0  0
   -1.7683    3.0224    0.4031 O   0  0  0  0  0  0  0  0  0  0  0  0
   -2.2462    3.4898   -0.2827 H   0  0  0  0  0  0  0  0  0  0  0  0
    1.0539   -1.0165    0.9389 C   0  0  0  0  0  0  0  0  0  0  0  0
    2.2445   -0.7265    0.8299 O   0  0  0  0  0  0  0  0  0  0  0  0
    0.6293   -2.0003    1.7398 N   0  0  0  0  0  0  0  0  0  0  0  0
   -0.3615   -2.2194    1.7254 H   0  0  0  0  0  0  0  0  0  0  0  0
    1.5042   -2.8207    2.5747 C   0  0  0  0  0  0  0  0  0  0  0  0
    2.1449   -2.1771    3.1815 H   0  0  0  0  0  0  0  0  0  0  0  0
    0.9085   -3.4565    3.2307 H   0  0  0  0  0  0  0  0  0  0  0  0
    2.1368   -3.4461    1.9423 H   0  0  0  0  0  0  0  0  0  0  0  0
  5  6  2  0  0  0  0
  5  7  1  0  0  0  0
  2  3  1  0  0  0  0
  2  4  1  0  0  0  0
  2  5  1  0  0  0  0
  1  2  1  0  0  0  0
 18 19  2  0  0  0  0
 18 20  1  0  0  0  0
 16 17  1  0  0  0  0
 14 15  2  0  0  0  0
 14 16  1  0  0  0  0
 11 12  1  0  0  0  0
 11 13  1  0  0  0  0
 11 14  1  0  0  0  0
  9 10  1  0  0  0  0
  9 11  1  0  0  0  0
  9 18  1  0  0  0  0
  7  8  1  0  0  0  0
  7  9  1  0  0  0  0
 22 23  1  0  0  0  0
 22 24  1  0  0  0  0
 22 25  1  0  0  0  0
 20 21  1  0  0  0  0
 20 22  1  0  0  0  0
M  END
$$$$
default_name
  -OEChem-01062215323D

 25 24  0     1  0  0  0  0  0999 V2000
   -2.7826   -3.8464    0.7821 H   0  0  0  0  0  0  0  0  0  0  0  0
   -2.8156   -2.8034    0.4711 C   0  0  0  0  0  0  0  0  0  0  0  0
   -3.4336   -2.2354    1.1641 H   0  0  0  0  0  0  0  0  0  0  0  0
   -3.2256   -2.7344   -0.5349 H   0  0  0  0  0  0  0  0  0  0  0  0
   -1.4126   -2.2444    0.4801 C   0  0  0  0  0  0  0  0  0  0  0  0
   -0.4686   -2.9534    0.8001 O   0  0  0  0  0  0  0  0  0  0  0  0
   -1.2736   -0.9704    0.1241 N   0  0  0  0  0  0  0  0  0  0  0  0
   -2.0996   -0.4354   -0.1019 H   0  0  0  0  0  0  0  0  0  0  0  0
   -0.0016   -0.2394    0.1271 C   0  0  1  0  0  0  0  0  0  0  0  0
    0.3522   -0.1560   -0.9029 H   0  0  0  0  0  0  0  0  0  0  0  0
   -0.2274    1.1771    0.6915 C   0  0  0  0  0  0  0  0  0  0  0  0
   -0.7650    1.1092    1.6381 H   0  0  0  0  0  0  0  0  0  0  0  0
    0.7346    1.6526    0.8858 H   0  0  0  0  0  0  0  0  0  0  0  0
   -1.0533    2.0721   -0.2276 C   0  0  0  0  0  0  0  0  0  0  0  0
   -1.1002    1.9903   -1.4480 O   0  0  0  0  0  0  0  0  0  0  0  0
   -1.7683    3.0224    0.4031 O   0  0  0  0  0  0  0  0  0  0  0  0
   -2.2462    3.4898   -0.2827 H   0  0  0  0  0  0  0  0  0  0  0  0
    1.0539   -1.0165    0.9389 C   0  0  0  0  0  0  0  0  0  0  0  0
    2.1928   -0.5653    1.0513 O   0  0  0  0  0  0  0  0  0  0  0  0
    0.6880   -2.1773    1.4941 N   0  0  0  0  0  0  0  0  0  0  0  0
   -0.2507   -2.5116    1.3017 H   0  0  0  0  0  0  0  0  0  0  0  0
    1.5699   -3.0233    2.2953 C   0  0  0  0  0  0  0  0  0  0  0  0
    2.0319   -2.4293    3.0869 H   0  0  0  0  0  0  0  0  0  0  0  0
    1.0016   -3.8394    2.7433 H   0  0  0  0  0  0  0  0  0  0  0  0
    2.3583   -3.4364    1.6636 H   0  0  0  0  0  0  0  0  0  0  0  0
  5  6  2  0  0  0  0
  5  7  1  0  0  0  0
  2  3  1  0  0  0  0
  2  4  1  0  0  0  0
  2  5  1  0  0  0  0
  1  2  1  0  0  0  0
 18 19  2  0  0  0  0
 18 20  1  0  0  0  0
 16 17  1  0  0  0  0
 14 15  2  0  0  0  0
 14 16  1  0  0  0  0
 11 12  1  0  0  0  0
 11 13  1  0  0  0  0
 11 14  1  0  0  0  0
  9 10  1  0  0  0  0
  9 11  1  0  0  0  0
  9 18  1  0  0  0  0
  7  8  1  0  0  0  0
  7  9  1  0  0  0  0
 22 23  1  0  0  0  0
 22 24  1  0  0  0  0
 22 25  1  0  0  0  0
 20 21  1  0  0  0  0
 20 22  1  0  0  0  0
M  END
$$$$
default_name
  -OEChem-01062215323D

 25 24  0     1  0  0  0  0  0999 V2000
   -2.7826   -3.8464    0.7821 H   0  0  0  0  0  0  0  0  0  0  0  0
   -2.8156   -2.8034    0.4711 C   0  0  0  0  0  0  0  0  0  0  0  0
   -3.4336   -2.2354    1.1641 H   0  0  0  0  0  0  0  0  0  0  0  0
   -3.2256   -2.7344   -0.5349 H   0  0  0  0  0  0  0  0  0  0  0  0
   -1.4126   -2.2444    0.4801 C   0  0  0  0  0  0  0  0  0  0  0  0
   -0.4686   -2.9534    0.8001 O   0  0  0  0  0  0  0  0  0  0  0  0
   -1.2736   -0.9704    0.1241 N   0  0  0  0  0  0  0  0  0  0  0  0
   -2.0996   -0.4354   -0.1019 H   0  0  0  0  0  0  0  0  0  0  0  0
   -0.0016   -0.2394    0.1271 C   0  0  1  0  0  0  0  0  0  0  0  0
    0.3522   -0.1560   -0.9029 H   0  0  0  0  0  0  0  0  0  0  0  0
   -0.2274    1.1771    0.6915 C   0  0  0  0  0  0  0  0  0  0  0  0
   -0.7650    1.1092    1.6381 H   0  0  0  0  0  0  0  0  0  0  0  0
    0.7346    1.6526    0.8858 H   0  0  0  0  0  0  0  0  0  0  0  0
   -1.0533    2.0721   -0.2276 C   0  0  0  0  0  0  0  0  0  0  0  0
   -1.1002    1.9903   -1.4480 O   0  0  0  0  0  0  0  0  0  0  0  0
   -1.7683    3.0224    0.4031 O   0  0  0  0  0  0  0  0  0  0  0  0
   -2.2462    3.4898   -0.2827 H   0  0  0  0  0  0  0  0  0  0  0  0
    1.0539   -1.0165    0.9389 C   0  0  0  0  0  0  0  0  0  0  0  0
    2.0921   -0.4558    1.2870 O   0  0  0  0  0  0  0  0  0  0  0  0
    0.8008   -2.2968    1.2330 N   0  0  0  0  0  0  0  0  0  0  0  0
   -0.0487   -2.7036    0.8552 H   0  0  0  0  0  0  0  0  0  0  0  0
    1.6974   -3.1607    1.9981 C   0  0  0  0  0  0  0  0  0  0  0  0
    1.9696   -2.6716    2.9360 H   0  0  0  0  0  0  0  0  0  0  0  0
    1.2072   -4.1102    2.2167 H   0  0  0  0  0  0  0  0  0  0  0  0
    2.6073   -3.3474    1.4251 H   0  0  0  0  0  0  0  0  0  0  0  0
  5  6  2  0  0  0  0
  5  7  1  0  0  0  0
  2  3  1  0  0  0  0
  2  4  1  0  0  0  0
  2  5  1  0  0  0  0
  1  2  1  0  0  0  0
 18 19  2  0  0  0  0
 18 20  1  0  0  0  0
 16 17  1  0  0  0  0
 14 15  2  0  0  0  0
 14 16  1  0  0  0  0
 11 12  1  0  0  0  0
 11 13  1  0  0  0  0
 11 14  1  0  0  0  0
  9 10  1  0  0  0  0
  9 11  1  0  0  0  0
  9 18  1  0  0  0  0
  7  8  1  0  0  0  0
  7  9  1  0  0  0  0
 22 23  1  0  0  0  0
 22 24  1  0  0  0  0
 22 25  1  0  0  0  0
 20 21  1  0  0  0  0
 20 22  1  0  0  0  0
M  END
$$$$
default_name
  -OEChem-01062215323D

 25 24  0     1  0  0  0  0  0999 V2000
   -2.7826   -3.8464    0.7821 H   0  0  0  0  0  0  0  0  0  0  0  0
   -2.8156   -2.8034    0.4711 C   0  0  0  0  0  0  0  0  0  0  0  0
   -3.4336   -2.2354    1.1641 H   0  0  0  0  0  0  0  0  0  0  0  0
   -3.2256   -2.7344   -0.5349 H   0  0  0  0  0  0  0  0  0  0  0  0
   -1.4126   -2.2444    0.4801 C   0  0  0  0  0  0  0  0  0  0  0  0
   -0.4686   -2.9534    0.8001 O   0  0  0  0  0  0  0  0  0  0  0  0
   -1.2736   -0.9704    0.1241 N   0  0  0  0  0  0  0  0  0  0  0  0
   -2.0996   -0.4354   -0.1019 H   0  0  0  0  0  0  0  0  0  0  0  0
   -0.0016   -0.2394    0.1271 C   0  0  1  0  0  0  0  0  0  0  0  0
    0.3522   -0.1560   -0.9029 H   0  0  0  0  0  0  0  0  0  0  0  0
   -0.2274    1.1771    0.6915 C   0  0  0  0  0  0  0  0  0  0  0  0
   -0.7650    1.1092    1.6381 H   0  0  0  0  0  0  0  0  0  0  0  0
    0.7346    1.6526    0.8858 H   0  0  0  0  0  0  0  0  0  0  0  0
   -1.0533    2.0721   -0.2276 C   0  0  0  0  0  0  0  0  0  0  0  0
   -1.1002    1.9903   -1.4480 O   0  0  0  0  0  0  0  0  0  0  0  0
   -1.7683    3.0224    0.4031 O   0  0  0  0  0  0  0  0  0  0  0  0
   -2.2462    3.4898   -0.2827 H   0  0  0  0  0  0  0  0  0  0  0  0
    1.0539   -1.0165    0.9389 C   0  0  0  0  0  0  0  0  0  0  0  0
    1.9492   -0.4056    1.5209 O   0  0  0  0  0  0  0  0  0  0  0  0
    0.9602   -2.3505    0.9744 N   0  0  0  0  0  0  0  0  0  0  0  0
    0.2310   -2.7824    0.4162 H   0  0  0  0  0  0  0  0  0  0  0  0
    1.8780   -3.2233    1.7034 C   0  0  0  0  0  0  0  0  0  0  0  0
    1.9620   -2.8875    2.7392 H   0  0  0  0  0  0  0  0  0  0  0  0
    1.5114   -4.2505    1.6869 H   0  0  0  0  0  0  0  0  0  0  0  0
    2.8668   -3.1852    1.2429 H   0  0  0  0  0  0  0  0  0  0  0  0
  5  6  2  0  0  0  0
  5  7  1  0  0  0  0
  2  3  1  0  0  0  0
  2  4  1  0  0  0  0
  2  5  1  0  0  0  0
  1  2  1  0  0  0  0
 18 19  2  0  0  0  0
 18 20  1  0  0  0  0
 16 17  1  0  0  0  0
 14 15  2  0  0  0  0
 14 16  1  0  0  0  0
 11 12  1  0  0  0  0
 11 13  1  0  0  0  0
 11 14  1  0  0  0  0
  9 10  1  0  0  0  0
  9 11  1  0  0  0  0
  9 18  1  0  0  0  0
  7  8  1  0  0  0  0
  7  9  1  0  0  0  0
 22 23  1  0  0  0  0
 22 24  1  0  0  0  0
 22 25  1  0  0  0  0
 20 21  1  0  0  0  0
 20 22  1  0  0  0  0
M  END
$$$$
default_name
  -OEChem-01062215323D

 25 24  0     1  0  0  0  0  0999 V2000
   -2.7826   -3.8464    0.7821 H   0  0  0  0  0  0  0  0  0  0  0  0
   -2.8156   -2.8034    0.4711 C   0  0  0  0  0  0  0  0  0  0  0  0
   -3.4336   -2.2354    1.1641 H   0  0  0  0  0  0  0  0  0  0  0  0
   -3.2256   -2.7344   -0.5349 H   0  0  0  0  0  0  0  0  0  0  0  0
   -1.4126   -2.2444    0.4801 C   0  0  0  0  0  0  0  0  0  0  0  0
   -0.4686   -2.9534    0.8001 O   0  0  0  0  0  0  0  0  0  0  0  0
   -1.2736   -0.9704    0.1241 N   0  0  0  0  0  0  0  0  0  0  0  0
   -2.0996   -0.4354   -0.1019 H   0  0  0  0  0  0  0  0  0  0  0  0
   -0.0016   -0.2394    0.1271 C   0  0  1  0  0  0  0  0  0  0  0  0
    0.3522   -0.1560   -0.9029 H   0  0  0  0  0  0  0  0  0  0  0  0
   -0.2274    1.1771    0.6915 C   0  0  0  0  0  0  0  0  0  0  0  0
   -0.7650    1.1092    1.6381 H   0  0  0  0  0  0  0  0  0  0  0  0
    0.7346    1.6526    0.8858 H   0  0  0  0  0  0  0  0  0  0  0  0
   -1.0533    2.0721   -0.2276 C   0  0  0  0  0  0  0  0  0  0  0  0
   -1.1002    1.9903   -1.4480 O   0  0  0  0  0  0  0  0  0  0  0  0
   -1.7683    3.0224    0.4031 O   0  0  0  0  0  0  0  0  0  0  0  0
   -2.2462    3.4898   -0.2827 H   0  0  0  0  0  0  0  0  0  0  0  0
    1.0539   -1.0165    0.9389 C   0  0  0  0  0  0  0  0  0  0  0  0
    1.7738   -0.4180    1.7370 O   0  0  0  0  0  0  0  0  0  0  0  0
    1.1552   -2.3349    0.7358 N   0  0  0  0  0  0  0  0  0  0  0  0
    0.5691   -2.7427    0.0147 H   0  0  0  0  0  0  0  0  0  0  0  0
    2.0994   -3.2069    1.4311 C   0  0  0  0  0  0  0  0  0  0  0  0
    2.0099   -3.0621    2.5099 H   0  0  0  0  0  0  0  0  0  0  0  0
    1.8935   -4.2506    1.1900 H   0  0  0  0  0  0  0  0  0  0  0  0
    3.1191   -2.9610    1.1295 H   0  0  0  0  0  0  0  0  0  0  0  0
  5  6  2  0  0  0  0
  5  7  1  0  0  0  0
  2  3  1  0  0  0  0
  2  4  1  0  0  0  0
  2  5  1  0  0  0  0
  1  2  1  0  0  0  0
 18 19  2  0  0  0  0
 18 20  1  0  0  0  0
 16 17  1  0  0  0  0
 14 15  2  0  0  0  0
 14 16  1  0  0  0  0
 11 12  1  0  0  0  0
 11 13  1  0  0  0  0
 11 14  1  0  0  0  0
  9 10  1  0  0  0  0
  9 11  1  0  0  0  0
  9 18  1  0  0  0  0
  7  8  1  0  0  0  0
  7  9  1  0  0  0  0
 22 23  1  0  0  0  0
 22 24  1  0  0  0  0
 22 25  1  0  0  0  0
 20 21  1  0  0  0  0
 20 22  1  0  0  0  0
M  END
$$$$
default_name
  -OEChem-01062215323D

 25 24  0     1  0  0  0  0  0999 V2000
   -2.7826   -3.8464    0.7821 H   0  0  0  0  0  0  0  0  0  0  0  0
   -2.8156   -2.8034    0.4711 C   0  0  0  0  0  0  0  0  0  0  0  0
   -3.4336   -2.2354    1.1641 H   0  0  0  0  0  0  0  0  0  0  0  0
   -3.2256   -2.7344   -0.5349 H   0  0  0  0  0  0  0  0  0  0  0  0
   -1.4126   -2.2444    0.4801 C   0  0  0  0  0  0  0  0  0  0  0  0
   -0.4686   -2.9534    0.8001 O   0  0  0  0  0  0  0  0  0  0  0  0
   -1.2736   -0.9704    0.1241 N   0  0  0  0  0  0  0  0  0  0  0  0
   -2.0996   -0.4354   -0.1019 H   0  0  0  0  0  0  0  0  0  0  0  0
   -0.0016   -0.2394    0.1271 C   0  0  1  0  0  0  0  0  0  0  0  0
    0.3522   -0.1560   -0.9029 H   0  0  0  0  0  0  0  0  0  0  0  0
   -0.2274    1.1771    0.6915 C   0  0  0  0  0  0  0  0  0  0  0  0
   -0.7650    1.1092    1.6381 H   0  0  0  0  0  0  0  0  0  0  0  0
    0.7346    1.6526    0.8858 H   0  0  0  0  0  0  0  0  0  0  0  0
   -1.0533    2.0721   -0.2276 C   0  0  0  0  0  0  0  0  0  0  0  0
   -1.1002    1.9903   -1.4480 O   0  0  0  0  0  0  0  0  0  0  0  0
   -1.7683    3.0224    0.4031 O   0  0  0  0  0  0  0  0  0  0  0  0
   -2.2462    3.4898   -0.2827 H   0  0  0  0  0  0  0  0  0  0  0  0
    1.0539   -1.0165    0.9389 C   0  0  0  0  0  0  0  0  0  0  0  0
    1.5779   -0.4922    1.9208 O   0  0  0  0  0  0  0  0  0  0  0  0
    1.3725   -2.2509    0.5336 N   0  0  0  0  0  0  0  0  0  0  0  0
    0.9426   -2.5870   -0.3220 H   0  0  0  0  0  0  0  0  0  0  0  0
    2.3466   -3.1127    1.1999 C   0  0  0  0  0  0  0  0  0  0  0  0
    2.1097   -3.1836    2.2637 H   0  0  0  0  0  0  0  0  0  0  0  0
    2.3274   -4.1106    0.7599 H   0  0  0  0  0  0  0  0  0  0  0  0
    3.3471   -2.6898    1.0927 H   0  0  0  0  0  0  0  0  0  0  0  0
  5  6  2  0  0  0  0
  5  7  1  0  0  0  0
  2  3  1  0  0  0  0
  2  4  1  0  0  0  0
  2  5  1  0  0  0  0
  1  2  1  0  0  0  0
 18 19  2  0  0  0  0
 18 20  1  0  0  0  0
 16 17  1  0  0  0  0
 14 15  2  0  0  0  0
 14 16  1  0  0  0  0
 11 12  1  0  0  0  0
 11 13  1  0  0  0  0
 11 14  1  0  0  0  0
  9 10  1  0  0  0  0
  9 11  1  0  0  0  0
  9 18  1  0  0  0  0
  7  8  1  0  0  0  0
  7  9  1  0  0  0  0
 22 23  1  0  0  0  0
 22 24  1  0  0  0  0
 22 25  1  0  0  0  0
 20 21  1  0  0  0  0
 20 22  1  0  0  0  0
M  END
$$$$
default_name
  -OEChem-01062215323D

 25 24  0     1  0  0  0  0  0999 V2000
   -2.7826   -3.8464    0.7821 H   0  0  0  0  0  0  0  0  0  0  0  0
   -2.8156   -2.8034    0.4711 C   0  0  0  0  0  0  0  0  0  0  0  0
   -3.4336   -2.2354    1.1641 H   0  0  0  0  0  0  0  0  0  0  0  0
   -3.2256   -2.7344   -0.5349 H   0  0  0  0  0  0  0  0  0  0  0  0
   -1.4126   -2.2444    0.4801 C   0  0  0  0  0  0  0  0  0  0  0  0
   -0.4686   -2.9534    0.8001 O   0  0  0  0  0  0  0  0  0  0  0  0
   -1.2736   -0.9704    0.1241 N   0  0  0  0  0  0  0  0  0  0  0  0
   -2.0996   -0.4354   -0.1019 H   0  0  0  0  0  0  0  0  0  0  0  0
   -0.0016   -0.2394    0.1271 C   0  0  1  0  0  0  0  0  0  0  0  0
    0.3522   -0.1560   -0.9029 H   0  0  0  0  0  0  0  0  0  0  0  0
   -0.2274    1.1771    0.6915 C   0  0  0  0  0  0  0  0  0  0  0  0
   -0.7650    1.1092    1.6381 H   0  0  0  0  0  0  0  0  0  0  0  0
    0.7346    1.6526    0.8858 H   0  0  0  0  0  0  0  0  0  0  0  0
   -1.0533    2.0721   -0.2276 C   0  0  0  0  0  0  0  0  0  0  0  0
   -1.1002    1.9903   -1.4480 O   0  0  0  0  0  0  0  0  0  0  0  0
   -1.7683    3.0224    0.4031 O   0  0  0  0  0  0  0  0  0  0  0  0
   -2.2462    3.4898   -0.2827 H   0  0  0  0  0  0  0  0  0  0  0  0
    1.0539   -1.0165    0.9389 C   0  0  0  0  0  0  0  0  0  0  0  0
    1.3747   -0.6231    2.0596 O   0  0  0  0  0  0  0  0  0  0  0  0
    1.5974   -2.1044    0.3815 N   0  0  0  0  0  0  0  0  0  0  0  0
    1.3261   -2.3262   -0.5709 H   0  0  0  0  0  0  0  0  0  0  0  0
    2.6027   -2.9470    1.0255 C   0  0  0  0  0  0  0  0  0  0  0  0
    2.2549   -3.2438    2.0174 H   0  0  0  0  0  0  0  0  0  0  0  0
    2.7836   -3.8400    0.4258 H   0  0  0  0  0  0  0  0  0  0  0  0
    3.5351   -2.3904    1.1348 H   0  0  0  0  0  0  0  0  0  0  0  0
  5  6  2  0  0  0  0
  5  7  1  0  0  0  0
  2  3  1  0  0  0  0
  2  4  1  0  0  0  0
  2  5  1  0  0  0  0
  1  2  1  0  0  0  0
 18 19  2  0  0  0  0
 18 20  1  0  0  0  0
 16 17  1  0  0  0  0
 14 15  2  0  0  0  0
 14 16  1  0  0  0  0
 11 12  1  0  0  0  0
 11 13  1  0  0  0  0
 11 14  1  0  0  0  0
  9 10  1  0  0  0  0
  9 11  1  0  0  0  0
  9 18  1  0  0  0  0
  7  8  1  0  0  0  0
  7  9  1  0  0  0  0
 22 23  1  0  0  0  0
 22 24  1  0  0  0  0
 22 25  1  0  0  0  0
 20 21  1  0  0  0  0
 20 22  1  0  0  0  0
M  END
$$$$
default_name
  -OEChem-01062215323D

 25 24  0     1  0  0  0  0  0999 V2000
   -2.7826   -3.8464    0.7821 H   0  0  0  0  0  0  0  0  0  0  0  0
   -2.8156   -2.8034    0.4711 C   0  0  0  0  0  0  0  0  0  0  0  0
   -3.4336   -2.2354    1.1641 H   0  0  0  0  0  0  0  0  0  0  0  0
   -3.2256   -2.7344   -0.5349 H   0  0  0  0  0  0  0  0  0  0  0  0
   -1.4126   -2.2444    0.4801 C   0  0  0  0  0  0  0  0  0  0  0  0
   -0.4686   -2.9534    0.8001 O   0  0  0  0  0  0  0  0  0  0  0  0
   -1.2736   -0.9704    0.1241 N   0  0  0  0  0  0  0  0  0  0  0  0
   -2.0996   -0.4354   -0.1019 H   0  0  0  0  0  0  0  0  0  0  0  0
   -0.0016   -0.2394    0.1271 C   0  0  1  0  0  0  0  0  0  0  0  0
    0.3522   -0.1560   -0.9029 H   0  0  0  0  0  0  0  0  0  0  0  0
   -0.2274    1.1771    0.6915 C   0  0  0  0  0  0  0  0  0  0  0  0
   -0.7650    1.1092    1.6381 H   0  0  0  0  0  0  0  0  0  0  0  0
    0.7346    1.6526    0.8858 H   0  0  0  0  0  0  0  0  0  0  0  0
   -1.0533    2.0721   -0.2276 C   0  0  0  0  0  0  0  0  0  0  0  0
   -1.1002    1.9903   -1.4480 O   0  0  0  0  0  0  0  0  0  0  0  0
   -1.7683    3.0224    0.4031 O   0  0  0  0  0  0  0  0  0  0  0  0
   -2.2462    3.4898   -0.2827 H   0  0  0  0  0  0  0  0  0  0  0  0
    1.0539   -1.0165    0.9389 C   0  0  0  0  0  0  0  0  0  0  0  0
    1.1783   -0.8019    2.1439 O   0  0  0  0  0  0  0  0  0  0  0  0
    1.8145   -1.9052    0.2899 N   0  0  0  0  0  0  0  0  0  0  0  0
    1.6935   -1.9778   -0.7151 H   0  0  0  0  0  0  0  0  0  0  0  0
    2.8502   -2.7212    0.9199 C   0  0  0  0  0  0  0  0  0  0  0  0
    2.4354   -3.2384    1.7878 H   0  0  0  0  0  0  0  0  0  0  0  0
    3.2309   -3.4573    0.2106 H   0  0  0  0  0  0  0  0  0  0  0  0
    3.6704   -2.0829    1.2531 H   0  0  0  0  0  0  0  0  0  0  0  0
  5  6  2  0  0  0  0
  5  7  1  0  0  0  0
  2  3  1  0  0  0  0
  2  4  1  0  0  0  0
  2  5  1  0  0  0  0
  1  2  1  0  0  0  0
 18 19  2  0  0  0  0
 18 20  1  0  0  0  0
 16 17  1  0  0  0  0
 14 15  2  0  0  0  0
 14 16  1  0  0  0  0
 11 12  1  0  0  0  0
 11 13  1  0  0  0  0
 11 14  1  0  0  0  0
  9 10  1  0  0  0  0
  9 11  1  0  0  0  0
  9 18  1  0  0  0  0
  7  8  1  0  0  0  0
  7  9  1  0  0  0  0
 22 23  1  0  0  0  0
 22 24  1  0  0  0  0
 22 25  1  0  0  0  0
 20 21  1  0  0  0  0
 20 22  1  0  0  0  0
M  END
$$$$
default_name
  -OEChem-01062215323D

 25 24  0     1  0  0  0  0  0999 V2000
   -2.7826   -3.8464    0.7821 H   0  0  0  0  0  0  0  0  0  0  0  0
   -2.8156   -2.8034    0.4711 C   0  0  0  0  0  0  0  0  0  0  0  0
   -3.4336   -2.2354    1.1641 H   0  0  0  0  0  0  0  0  0  0  0  0
   -3.2256   -2.7344   -0.5349 H   0  0  0  0  0  0  0  0  0  0  0  0
   -1.4126   -2.2444    0.4801 C   0  0  0  0  0  0  0  0  0  0  0  0
   -0.4686   -2.9534    0.8001 O   0  0  0  0  0  0  0  0  0  0  0  0
   -1.2736   -0.9704    0.1241 N   0  0  0  0  0  0  0  0  0  0  0  0
   -2.0996   -0.4354   -0.1019 H   0  0  0  0  0  0  0  0  0  0  0  0
   -0.0016   -0.2394    0.1271 C   0  0  1  0  0  0  0  0  0  0  0  0
    0.3522   -0.1560   -0.9029 H   0  0  0  0  0  0  0  0  0  0  0  0
   -0.2274    1.1771    0.6915 C   0  0  0  0  0  0  0  0  0  0  0  0
   -0.7650    1.1092    1.6381 H   0  0  0  0  0  0  0  0  0  0  0  0
    0.7346    1.6526    0.8858 H   0  0  0  0  0  0  0  0  0  0  0  0
   -1.0533    2.0721   -0.2276 C   0  0  0  0  0  0  0  0  0  0  0  0
   -1.1002    1.9903   -1.4480 O   0  0  0  0  0  0  0  0  0  0  0  0
   -1.7683    3.0224    0.4031 O   0  0  0  0  0  0  0  0  0  0  0  0
   -2.2462    3.4898   -0.2827 H   0  0  0  0  0  0  0  0  0  0  0  0
    1.0539   -1.0165    0.9389 C   0  0  0  0  0  0  0  0  0  0  0  0
    1.0018   -1.0162    2.1681 O   0  0  0  0  0  0  0  0  0  0  0  0
    2.0090   -1.6670    0.2650 N   0  0  0  0  0  0  0  0  0  0  0  0
    2.0197   -1.5657   -0.7447 H   0  0  0  0  0  0  0  0  0  0  0  0
    3.0724   -2.4506    0.8901 C   0  0  0  0  0  0  0  0  0  0  0  0
    2.6391   -3.1680    1.5905 H   0  0  0  0  0  0  0  0  0  0  0  0
    3.6389   -2.9885    0.1289 H   0  0  0  0  0  0  0  0  0  0  0  0
    3.7438   -1.7885    1.4396 H   0  0  0  0  0  0  0  0  0  0  0  0
  5  6  2  0  0  0  0
  5  7  1  0  0  0  0
  2  3  1  0  0  0  0
  2  4  1  0  0  0  0
  2  5  1  0  0  0  0
  1  2  1  0  0  0  0
 18 19  2  0  0  0  0
 18 20  1  0  0  0  0
 16 17  1  0  0  0  0
 14 15  2  0  0  0  0
 14 16  1  0  0  0  0
 11 12  1  0  0  0  0
 11 13  1  0  0  0  0
 11 14  1  0  0  0  0
  9 10  1  0  0  0  0
  9 11  1  0  0  0  0
  9 18  1  0  0  0  0
  7  8  1  0  0  0  0
  7  9  1  0  0  0  0
 22 23  1  0  0  0  0
 22 24  1  0  0  0  0
 22 25  1  0  0  0  0
 20 21  1  0  0  0  0
 20 22  1  0  0  0  0
M  END
$$$$
default_name
  -OEChem-01062215323D

 25 24  0     1  0  0  0  0  0999 V2000
   -2.7826   -3.8464    0.7821 H   0  0  0  0  0  0  0  0  0  0  0  0
   -2.8156   -2.8034    0.4711 C   0  0  0  0  0  0  0  0  0  0  0  0
   -3.4336   -2.2354    1.1641 H   0  0  0  0  0  0  0  0  0  0  0  0
   -3.2256   -2.7344   -0.5349 H   0  0  0  0  0  0  0  0  0  0  0  0
   -1.4126   -2.2444    0.4801 C   0  0  0  0  0  0  0  0  0  0  0  0
   -0.4686   -2.9534    0.8001 O   0  0  0  0  0  0  0  0  0  0  0  0
   -1.2736   -0.9704    0.1241 N   0  0  0  0  0  0  0  0  0  0  0  0
   -2.0996   -0.4354   -0.1019 H   0  0  0  0  0  0  0  0  0  0  0  0
   -0.0016   -0.2394    0.1271 C   0  0  1  0  0  0  0  0  0  0  0  0
    0.3522   -0.1560   -0.9029 H   0  0  0  0  0  0  0  0  0  0  0  0
   -0.2274    1.1771    0.6915 C   0  0  0  0  0  0  0  0  0  0  0  0
   -0.7650    1.1092    1.6381 H   0  0  0  0  0  0  0  0  0  0  0  0
    0.7346    1.6526    0.8858 H   0  0  0  0  0  0  0  0  0  0  0  0
   -1.0533    2.0721   -0.2276 C   0  0  0  0  0  0  0  0  0  0  0  0
   -1.1002    1.9903   -1.4480 O   0  0  0  0  0  0  0  0  0  0  0  0
   -1.7683    3.0224    0.4031 O   0  0  0  0  0  0  0  0  0  0  0  0
   -2.2462    3.4898   -0.2827 H   0  0  0  0  0  0  0  0  0  0  0  0
    1.0539   -1.0165    0.9389 C   0  0  0  0  0  0  0  0  0  0  0  0
    0.8575   -1.2516    2.1304 O   0  0  0  0  0  0  0  0  0  0  0  0
    2.1676   -1.4061    0.3086 N   0  0  0  0  0  0  0  0  0  0  0  0
    2.2824   -1.1179   -0.6577 H   0  0  0  0  0  0  0  0  0  0  0  0
    3.2539   -2.1537    0.9383 C   0  0  0  0  0  0  0  0  0  0  0  0
    2.8519   -3.0372    1.4389 H   0  0  0  0  0  0  0  0  0  0  0  0
    3.9798   -2.4656    0.1862 H   0  0  0  0  0  0  0  0  0  0  0  0
    3.7502   -1.5271    1.6814 H   0  0  0  0  0  0  0  0  0  0  0  0
  5  6  2  0  0  0  0
  5  7  1  0  0  0  0
  2  3  1  0  0  0  0
  2  4  1  0  0  0  0
  2  5  1  0  0  0  0
  1  2  1  0  0  0  0
 18 19  2  0  0  0  0
 18 20  1  0  0  0  0
 16 17  1  0  0  0  0
 14 15  2  0  0  0  0
 14 16  1  0  0  0  0
 11 12  1  0  0  0  0
 11 13  1  0  0  0  0
 11 14  1  0  0  0  0
  9 10  1  0  0  0  0
  9 11  1  0  0  0  0
  9 18  1  0  0  0  0
  7  8  1  0  0  0  0
  7  9  1  0  0  0  0
 22 23  1  0  0  0  0
 22 24  1  0  0  0  0
 22 25  1  0  0  0  0
 20 21  1  0  0  0  0
 20 22  1  0  0  0  0
M  END
$$$$
default_name
  -OEChem-01062215323D

 25 24  0     1  0  0  0  0  0999 V2000
   -2.7826   -3.8464    0.7821 H   0  0  0  0  0  0  0  0  0  0  0  0
   -2.8156   -2.8034    0.4711 C   0  0  0  0  0  0  0  0  0  0  0  0
   -3.4336   -2.2354    1.1641 H   0  0  0  0  0  0  0  0  0  0  0  0
   -3.2256   -2.7344   -0.5349 H   0  0  0  0  0  0  0  0  0  0  0  0
   -1.4126   -2.2444    0.4801 C   0  0  0  0  0  0  0  0  0  0  0  0
   -0.4686   -2.9534    0.8001 O   0  0  0  0  0  0  0  0  0  0  0  0
   -1.2736   -0.9704    0.1241 N   0  0  0  0  0  0  0  0  0  0  0  0
   -2.0996   -0.4354   -0.1019 H   0  0  0  0  0  0  0  0  0  0  0  0
   -0.0016   -0.2394    0.1271 C   0  0  1  0  0  0  0  0  0  0  0  0
    0.3522   -0.1560   -0.9029 H   0  0  0  0  0  0  0  0  0  0  0  0
   -0.2274    1.1771    0.6915 C   0  0  0  0  0  0  0  0  0  0  0  0
   -0.7650    1.1092    1.6381 H   0  0  0  0  0  0  0  0  0  0  0  0
    0.7346    1.6526    0.8858 H   0  0  0  0  0  0  0  0  0  0  0  0
   -1.0533    2.0721   -0.2276 C   0  0  0  0  0  0  0  0  0  0  0  0
   -1.1002    1.9903   -1.4480 O   0  0  0  0  0  0  0  0  0  0  0  0
   -1.7683    3.0224    0.4031 O   0  0  0  0  0  0  0  0  0  0  0  0
   -2.2462    3.4898   -0.2827 H   0  0  0  0  0  0  0  0  0  0  0  0
    1.0539   -1.0165    0.9389 C   0  0  0  0  0  0  0  0  0  0  0  0
    0.7551   -1.4920    2.0335 O   0  0  0  0  0  0  0  0  0  0  0  0
    2.2796   -1.1401    0.4176 N   0  0  0  0  0  0  0  0  0  0  0  0
    2.4638   -0.6650   -0.4601 H   0  0  0  0  0  0  0  0  0  0  0  0
    3.3825   -1.8507    1.0611 C   0  0  0  0  0  0  0  0  0  0  0  0
    3.0594   -2.8551    1.3435 H   0  0  0  0  0  0  0  0  0  0  0  0
    4.2303   -1.9242    0.3787 H   0  0  0  0  0  0  0  0  0  0  0  0
    3.6893   -1.3167    1.9621 H   0  0  0  0  0  0  0  0  0  0  0  0
  5  6  2  0  0  0  0
  5  7  1  0  0  0  0
  2  3  1  0  0  0  0
  2  4  1  0  0  0  0
  2  5  1  0  0  0  0
  1  2  1  0  0  0  0
 18 19  2  0  0  0  0
 18 20  1  0  0  0  0
 16 17  1  0  0  0  0
 14 15  2  0  0  0  0
 14 16  1  0  0  0  0
 11 12  1  0  0  0  0
 11 13  1  0  0  0  0
 11 14  1  0  0  0  0
  9 10  1  0  0  0  0
  9 11  1  0  0  0  0
  9 18  1  0  0  0  0
  7  8  1  0  0  0  0
  7  9  1  0  0  0  0
 22 23  1  0  0  0  0
 22 24  1  0  0  0  0
 22 25  1  0  0  0  0
 20 21  1  0  0  0  0
 20 22  1  0  0  0  0
M  END
$$$$
default_name
  -OEChem-01062215323D

 25 24  0     1  0  0  0  0  0999 V2000
   -2.7826   -3.8464    0.7821 H   0  0  0  0  0  0  0  0  0  0  0  0
   -2.8156   -2.8034    0.4711 C   0  0  0  0  0  0  0  0  0  0  0  0
   -3.4336   -2.2354    1.1641 H   0  0  0  0  0  0  0  0  0  0  0  0
   -3.2256   -2.7344   -0.5349 H   0  0  0  0  0  0  0  0  0  0  0  0
   -1.4126   -2.2444    0.4801 C   0  0  0  0  0  0  0  0  0  0  0  0
   -0.4686   -2.9534    0.8001 O   0  0  0  0  0  0  0  0  0  0  0  0
   -1.2736   -0.9704    0.1241 N   0  0  0  0  0  0  0  0  0  0  0  0
   -2.0996   -0.4354   -0.1019 H   0  0  0  0  0  0  0  0  0  0  0  0
   -0.0016   -0.2394    0.1271 C   0  0  1  0  0  0  0  0  0  0  0  0
    0.3522   -0.1560   -0.9029 H   0  0  0  0  0  0  0  0  0  0  0  0
   -0.2274    1.1771    0.6915 C   0  0  0  0  0  0  0  0  0  0  0  0
   -0.7650    1.1092    1.6381 H   0  0  0  0  0  0  0  0  0  0  0  0
    0.7346    1.6526    0.8858 H   0  0  0  0  0  0  0  0  0  0  0  0
   -1.0533    2.0721   -0.2276 C   0  0  0  0  0  0  0  0  0  0  0  0
   -1.1002    1.9903   -1.4480 O   0  0  0  0  0  0  0  0  0  0  0  0
   -1.7683    3.0224    0.4031 O   0  0  0  0  0  0  0  0  0  0  0  0
   -2.2462    3.4898   -0.2827 H   0  0  0  0  0  0  0  0  0  0  0  0
    1.0539   -1.0165    0.9389 C   0  0  0  0  0  0  0  0  0  0  0  0
    0.7015   -1.7210    1.8840 O   0  0  0  0  0  0  0  0  0  0  0  0
    2.3373   -0.8872    0.5846 N   0  0  0  0  0  0  0  0  0  0  0  0
    2.5516   -0.2378   -0.1653 H   0  0  0  0  0  0  0  0  0  0  0  0
    3.4494   -1.5623    1.2502 C   0  0  0  0  0  0  0  0  0  0  0  0
    3.2475   -2.6339    1.3106 H   0  0  0  0  0  0  0  0  0  0  0  0
    4.3733   -1.4013    0.6933 H   0  0  0  0  0  0  0  0  0  0  0  0
    3.5651   -1.1714    2.2626 H   0  0  0  0  0  0  0  0  0  0  0  0
  5  6  2  0  0  0  0
  5  7  1  0  0  0  0
  2  3  1  0  0  0  0
  2  4  1  0  0  0  0
  2  5  1  0  0  0  0
  1  2  1  0  0  0  0
 18 19  2  0  0  0  0
 18 20  1  0  0  0  0
 16 17  1  0  0  0  0
 14 15  2  0  0  0  0
 14 16  1  0  0  0  0
 11 12  1  0  0  0  0
 11 13  1  0  0  0  0
 11 14  1  0  0  0  0
  9 10  1  0  0  0  0
  9 11  1  0  0  0  0
  9 18  1  0  0  0  0
  7  8  1  0  0  0  0
  7  9  1  0  0  0  0
 22 23  1  0  0  0  0
 22 24  1  0  0  0  0
 22 25  1  0  0  0  0
 20 21  1  0  0  0  0
 20 22  1  0  0  0  0
M  END
$$$$
default_name
  -OEChem-01062215323D

 25 24  0     1  0  0  0  0  0999 V2000
   -2.7826   -3.8464    0.7821 H   0  0  0  0  0  0  0  0  0  0  0  0
   -2.8156   -2.8034    0.4711 C   0  0  0  0  0  0  0  0  0  0  0  0
   -3.4336   -2.2354    1.1641 H   0  0  0  0  0  0  0  0  0  0  0  0
   -3.2256   -2.7344   -0.5349 H   0  0  0  0  0  0  0  0  0  0  0  0
   -1.4126   -2.2444    0.4801 C   0  0  0  0  0  0  0  0  0  0  0  0
   -0.4686   -2.9534    0.8001 O   0  0  0  0  0  0  0  0  0  0  0  0
   -1.2736   -0.9704    0.1241 N   0  0  0  0  0  0  0  0  0  0  0  0
   -2.0996   -0.4354   -0.1019 H   0  0  0  0  0  0  0  0  0  0  0  0
   -0.0016   -0.2394    0.1271 C   0  0  1  0  0  0  0  0  0  0  0  0
    0.3522   -0.1560   -0.9029 H   0  0  0  0  0  0  0  0  0  0  0  0
   -0.2274    1.1771    0.6915 C   0  0  0  0  0  0  0  0  0  0  0  0
   -0.7650    1.1092    1.6381 H   0  0  0  0  0  0  0  0  0  0  0  0
    0.7346    1.6526    0.8858 H   0  0  0  0  0  0  0  0  0  0  0  0
   -1.0533    2.0721   -0.2276 C   0  0  0  0  0  0  0  0  0  0  0  0
   -1.1002    1.9903   -1.4480 O   0  0  0  0  0  0  0  0  0  0  0  0
   -1.7683    3.0224    0.4031 O   0  0  0  0  0  0  0  0  0  0  0  0
   -2.2462    3.4898   -0.2827 H   0  0  0  0  0  0  0  0  0  0  0  0
    1.0539   -1.0165    0.9389 C   0  0  0  0  0  0  0  0  0  0  0  0
    0.7005   -1.9230    1.6920 O   0  0  0  0  0  0  0  0  0  0  0  0
    2.3368   -0.6647    0.7982 N   0  0  0  0  0  0  0  0  0  0  0  0
    2.5397    0.1346    0.2066 H   0  0  0  0  0  0  0  0  0  0  0  0
    3.4501   -1.3081    1.4927 C   0  0  0  0  0  0  0  0  0  0  0  0
    3.4033   -2.3889    1.3426 H   0  0  0  0  0  0  0  0  0  0  0  0
    4.3992   -0.9324    1.1084 H   0  0  0  0  0  0  0  0  0  0  0  0
    3.3862   -1.1012    2.5624 H   0  0  0  0  0  0  0  0  0  0  0  0
  5  6  2  0  0  0  0
  5  7  1  0  0  0  0
  2  3  1  0  0  0  0
  2  4  1  0  0  0  0
  2  5  1  0  0  0  0
  1  2  1  0  0  0  0
 18 19  2  0  0  0  0
 18 20  1  0  0  0  0
 16 17  1  0  0  0  0
 14 15  2  0  0  0  0
 14 16  1  0  0  0  0
 11 12  1  0  0  0  0
 11 13  1  0  0  0  0
 11 14  1  0  0  0  0
  9 10  1  0  0  0  0
  9 11  1  0  0  0  0
  9 18  1  0  0  0  0
  7  8  1  0  0  0  0
  7  9  1  0  0  0  0
 22 23  1  0  0  0  0
 22 24  1  0  0  0  0
 22 25  1  0  0  0  0
 20 21  1  0  0  0  0
 20 22  1  0  0  0  0
M  END
$$$$
default_name
  -OEChem-01062215323D

 25 24  0     1  0  0  0  0  0999 V2000
   -2.7826   -3.8464    0.7821 H   0  0  0  0  0  0  0  0  0  0  0  0
   -2.8156   -2.8034    0.4711 C   0  0  0  0  0  0  0  0  0  0  0  0
   -3.4336   -2.2354    1.1641 H   0  0  0  0  0  0  0  0  0  0  0  0
   -3.2256   -2.7344   -0.5349 H   0  0  0  0  0  0  0  0  0  0  0  0
   -1.4126   -2.2444    0.4801 C   0  0  0  0  0  0  0  0  0  0  0  0
   -0.4686   -2.9534    0.8001 O   0  0  0  0  0  0  0  0  0  0  0  0
   -1.2736   -0.9704    0.1241 N   0  0  0  0  0  0  0  0  0  0  0  0
   -2.0996   -0.4354   -0.1019 H   0  0  0  0  0  0  0  0  0  0  0  0
   -0.0016   -0.2394    0.1271 C   0  0  1  0  0  0  0  0  0  0  0  0
    0.2175    0.0783   -0.8947 H   0  0  0  0  0  0  0  0  0  0  0  0
   -0.1326    1.0108    1.0193 C   0  0  0  0  0  0  0  0  0  0  0  0
   -0.5444    0.7240    1.9877 H   0  0  0  0  0  0  0  0  0  0  0  0
    0.8531    1.4452    1.1897 H   0  0  0  0  0  0  0  0  0  0  0  0
   -1.0574    2.0765    0.4389 C   0  0  0  0  0  0  0  0  0  0  0  0
   -1.2625    2.2698   -0.7523 O   0  0  0  0  0  0  0  0  0  0  0  0
   -1.6715    2.8499    1.3535 O   0  0  0  0  0  0  0  0  0  0  0  0
   -2.2271    3.4520    0.8576 H   0  0  0  0  0  0  0  0  0  0  0  0
    1.1386   -1.1627    0.6008 C   0  0  0  0  0  0  0  0  0  0  0  0
    0.8929   -2.3268    0.9136 O   0  0  0  0  0  0  0  0  0  0  0  0
    2.3736   -0.6522    0.6632 N   0  0  0  0  0  0  0  0  0  0  0  0
    2.4827    0.3338    0.4494 H   0  0  0  0  0  0  0  0  0  0  0  0
    3.5557   -1.4006    1.0852 C   0  0  0  0  0  0  0  0  0  0  0  0
    3.6286   -2.3283    0.5134 H   0  0  0  0  0  0  0  0  0  0  0  0
    4.4548   -0.8054    0.9210 H   0  0  0  0  0  0  0  0  0  0  0  0
    3.4756   -1.6493    2.1448 H   0  0  0  0  0  0  0  0  0  0  0  0
  5  6  2  0  0  0  0
  5  7  1  0  0  0  0
  2  3  1  0  0  0  0
  2  4  1  0  0  0  0
  2  5  1  0  0  0  0
  1  2  1  0  0  0  0
 18 19  2  0  0  0  0
 18 20  1  0  0  0  0
 16 17  1  0  0  0  0
 14 15  2  0  0  0  0
 14 16  1  0  0  0  0
 11 12  1  0  0  0  0
 11 13  1  0  0  0  0
 11 14  1  0  0  0  0
  9 10  1  0  0  0  0
  9 11  1  0  0  0  0
  9 18  1  0  0  0  0
  7  8  1  0  0  0  0
  7  9  1  0  0  0  0
 22 23  1  0  0  0  0
 22 24  1  0  0  0  0
 22 25  1  0  0  0  0
 20 21  1  0  0  0  0
 20 22  1  0  0  0  0
M  END
$$$$
default_name
  -OEChem-01062215323D

 25 24  0     1  0  0  0  0  0999 V2000
   -2.7826   -3.8464    0.7821 H   0  0  0  0  0  0  0  0  0  0  0  0
   -2.8156   -2.8034    0.4711 C   0  0  0  0  0  0  0  0  0  0  0  0
   -3.4336   -2.2354    1.1641 H   0  0  0  0  0  0  0  0  0  0  0  0
   -3.2256   -2.7344   -0.5349 H   0  0  0  0  0  0  0  0  0  0  0  0
   -1.4126   -2.2444    0.4801 C   0  0  0  0  0  0  0  0  0  0  0  0
   -0.4686   -2.9534    0.8001 O   0  0  0  0  0  0  0  0  0  0  0  0
   -1.2736   -0.9704    0.1241 N   0  0  0  0  0  0  0  0  0  0  0  0
   -2.0996   -0.4354   -0.1019 H   0  0  0  0  0  0  0  0  0  0  0  0
   -0.0016   -0.2394    0.1271 C   0  0  1  0  0  0  0  0  0  0  0  0
    0.2175    0.0783   -0.8947 H   0  0  0  0  0  0  0  0  0  0  0  0
   -0.1326    1.0108    1.0193 C   0  0  0  0  0  0  0  0  0  0  0  0
   -0.5444    0.7240    1.9877 H   0  0  0  0  0  0  0  0  0  0  0  0
    0.8531    1.4452    1.1897 H   0  0  0  0  0  0  0  0  0  0  0  0
   -1.0574    2.0765    0.4389 C   0  0  0  0  0  0  0  0  0  0  0  0
   -1.2625    2.2698   -0.7523 O   0  0  0  0  0  0  0  0  0  0  0  0
   -1.6715    2.8499    1.3535 O   0  0  0  0  0  0  0  0  0  0  0  0
   -2.2271    3.4520    0.8576 H   0  0  0  0  0  0  0  0  0  0  0  0
    1.1386   -1.1627    0.6008 C   0  0  0  0  0  0  0  0  0  0  0  0
    0.9608   -2.3791    0.6484 O   0  0  0  0  0  0  0  0  0  0  0  0
    2.2971   -0.5961    0.9567 N   0  0  0  0  0  0  0  0  0  0  0  0
    2.3427    0.4176    0.9498 H   0  0  0  0  0  0  0  0  0  0  0  0
    3.4696   -1.3354    1.4195 C   0  0  0  0  0  0  0  0  0  0  0  0
    3.7133   -2.1251    0.7054 H   0  0  0  0  0  0  0  0  0  0  0  0
    4.3227   -0.6628    1.5169 H   0  0  0  0  0  0  0  0  0  0  0  0
    3.2583   -1.7933    2.3874 H   0  0  0  0  0  0  0  0  0  0  0  0
  5  6  2  0  0  0  0
  5  7  1  0  0  0  0
  2  3  1  0  0  0  0
  2  4  1  0  0  0  0
  2  5  1  0  0  0  0
  1  2  1  0  0  0  0
 18 19  2  0  0  0  0
 18 20  1  0  0  0  0
 16 17  1  0  0  0  0
 14 15  2  0  0  0  0
 14 16  1  0  0  0  0
 11 12  1  0  0  0  0
 11 13  1  0  0  0  0
 11 14  1  0  0  0  0
  9 10  1  0  0  0  0
  9 11  1  0  0  0  0
  9 18  1  0  0  0  0
  7  8  1  0  0  0  0
  7  9  1  0  0  0  0
 22 23  1  0  0  0  0
 22 24  1  0  0  0  0
 22 25  1  0  0  0  0
 20 21  1  0  0  0  0
 20 22  1  0  0  0  0
M  END
$$$$
default_name
  -OEChem-01062215323D

 25 24  0     1  0  0  0  0  0999 V2000
   -2.7826   -3.8464    0.7821 H   0  0  0  0  0  0  0  0  0  0  0  0
   -2.8156   -2.8034    0.4711 C   0  0  0  0  0  0  0  0  0  0  0  0
   -3.4336   -2.2354    1.1641 H   0  0  0  0  0  0  0  0  0  0  0  0
   -3.2256   -2.7344   -0.5349 H   0  0  0  0  0  0  0  0  0  0  0  0
   -1.4126   -2.2444    0.4801 C   0  0  0  0  0  0  0  0  0  0  0  0
   -0.4686   -2.9534    0.8001 O   0  0  0  0  0  0  0  0  0  0  0  0
   -1.2736   -0.9704    0.1241 N   0  0  0  0  0  0  0  0  0  0  0  0
   -2.0996   -0.4354   -0.1019 H   0  0  0  0  0  0  0  0  0  0  0  0
   -0.0016   -0.2394    0.1271 C   0  0  1  0  0  0  0  0  0  0  0  0
    0.2175    0.0783   -0.8947 H   0  0  0  0  0  0  0  0  0  0  0  0
   -0.1326    1.0108    1.0193 C   0  0  0  0  0  0  0  0  0  0  0  0
   -0.5444    0.7240    1.9877 H   0  0  0  0  0  0  0  0  0  0  0  0
    0.8531    1.4452    1.1897 H   0  0  0  0  0  0  0  0  0  0  0  0
   -1.0574    2.0765    0.4389 C   0  0  0  0  0  0  0  0  0  0  0  0
   -1.2625    2.2698   -0.7523 O   0  0  0  0  0  0  0  0  0  0  0  0
   -1.6715    2.8499    1.3535 O   0  0  0  0  0  0  0  0  0  0  0  0
   -2.2271    3.4520    0.8576 H   0  0  0  0  0  0  0  0  0  0  0  0
    1.1386   -1.1627    0.6008 C   0  0  0  0  0  0  0  0  0  0  0  0
    1.0716   -2.3734    0.3928 O   0  0  0  0  0  0  0  0  0  0  0  0
    2.1732   -0.6042    1.2392 N   0  0  0  0  0  0  0  0  0  0  0  0
    2.1232    0.3917    1.4276 H   0  0  0  0  0  0  0  0  0  0  0  0
    3.3294   -1.3433    1.7415 C   0  0  0  0  0  0  0  0  0  0  0  0
    3.7493   -1.9589    0.9430 H   0  0  0  0  0  0  0  0  0  0  0  0
    4.0914   -0.6497    2.0993 H   0  0  0  0  0  0  0  0  0  0  0  0
    3.0222   -1.9961    2.5604 H   0  0  0  0  0  0  0  0  0  0  0  0
  5  6  2  0  0  0  0
  5  7  1  0  0  0  0
  2  3  1  0  0  0  0
  2  4  1  0  0  0  0
  2  5  1  0  0  0  0
  1  2  1  0  0  0  0
 18 19  2  0  0  0  0
 18 20  1  0  0  0  0
 16 17  1  0  0  0  0
 14 15  2  0  0  0  0
 14 16  1  0  0  0  0
 11 12  1  0  0  0  0
 11 13  1  0  0  0  0
 11 14  1  0  0  0  0
  9 10  1  0  0  0  0
  9 11  1  0  0  0  0
  9 18  1  0  0  0  0
  7  8  1  0  0  0  0
  7  9  1  0  0  0  0
 22 23  1  0  0  0  0
 22 24  1  0  0  0  0
 22 25  1  0  0  0  0
 20 21  1  0  0  0  0
 20 22  1  0  0  0  0
M  END
$$$$
default_name
  -OEChem-01062215323D

 25 24  0     1  0  0  0  0  0999 V2000
   -2.7826   -3.8464    0.7821 H   0  0  0  0  0  0  0  0  0  0  0  0
   -2.8156   -2.8034    0.4711 C   0  0  0  0  0  0  0  0  0  0  0  0
   -3.4336   -2.2354    1.1641 H   0  0  0  0  0  0  0  0  0  0  0  0
   -3.2256   -2.7344   -0.5349 H   0  0  0  0  0  0  0  0  0  0  0  0
   -1.4126   -2.2444    0.4801 C   0  0  0  0  0  0  0  0  0  0  0  0
   -0.4686   -2.9534    0.8001 O   0  0  0  0  0  0  0  0  0  0  0  0
   -1.2736   -0.9704    0.1241 N   0  0  0  0  0  0  0  0  0  0  0  0
   -2.0996   -0.4354   -0.1019 H   0  0  0  0  0  0  0  0  0  0  0  0
   -0.0016   -0.2394    0.1271 C   0  0  1  0  0  0  0  0  0  0  0  0
    0.2175    0.0783   -0.8947 H   0  0  0  0  0  0  0  0  0  0  0  0
   -0.1326    1.0108    1.0193 C   0  0  0  0  0  0  0  0  0  0  0  0
   -0.5444    0.7240    1.9877 H   0  0  0  0  0  0  0  0  0  0  0  0
    0.8531    1.4452    1.1897 H   0  0  0  0  0  0  0  0  0  0  0  0
   -1.0574    2.0765    0.4389 C   0  0  0  0  0  0  0  0  0  0  0  0
   -1.2625    2.2698   -0.7523 O   0  0  0  0  0  0  0  0  0  0  0  0
   -1.6715    2.8499    1.3535 O   0  0  0  0  0  0  0  0  0  0  0  0
   -2.2271    3.4520    0.8576 H   0  0  0  0  0  0  0  0  0  0  0  0
    1.1386   -1.1627    0.6008 C   0  0  0  0  0  0  0  0  0  0  0  0
    1.2178   -2.3101    0.1641 O   0  0  0  0  0  0  0  0  0  0  0  0
    2.0104   -0.6760    1.4912 N   0  0  0  0  0  0  0  0  0  0  0  0
    1.8392    0.2577    1.8501 H   0  0  0  0  0  0  0  0  0  0  0  0
    3.1447   -1.4237    2.0294 C   0  0  0  0  0  0  0  0  0  0  0  0
    3.7339   -1.8409    1.2098 H   0  0  0  0  0  0  0  0  0  0  0  0
    3.7766   -0.7669    2.6285 H   0  0  0  0  0  0  0  0  0  0  0  0
    2.7834   -2.2440    2.6521 H   0  0  0  0  0  0  0  0  0  0  0  0
  5  6  2  0  0  0  0
  5  7  1  0  0  0  0
  2  3  1  0  0  0  0
  2  4  1  0  0  0  0
  2  5  1  0  0  0  0
  1  2  1  0  0  0  0
 18 19  2  0  0  0  0
 18 20  1  0  0  0  0
 16 17  1  0  0  0  0
 14 15  2  0  0  0  0
 14 16  1  0  0  0  0
 11 12  1  0  0  0  0
 11 13  1  0  0  0  0
 11 14  1  0  0  0  0
  9 10  1  0  0  0  0
  9 11  1  0  0  0  0
  9 18  1  0  0  0  0
  7  8  1  0  0  0  0
  7  9  1  0  0  0  0
 22 23  1  0  0  0  0
 22 24  1  0  0  0  0
 22 25  1  0  0  0  0
 20 21  1  0  0  0  0
 20 22  1  0  0  0  0
M  END
$$$$
default_name
  -OEChem-01062215323D

 25 24  0     1  0  0  0  0  0999 V2000
   -2.7826   -3.8464    0.7821 H   0  0  0  0  0  0  0  0  0  0  0  0
   -2.8156   -2.8034    0.4711 C   0  0  0  0  0  0  0  0  0  0  0  0
   -3.4336   -2.2354    1.1641 H   0  0  0  0  0  0  0  0  0  0  0  0
   -3.2256   -2.7344   -0.5349 H   0  0  0  0  0  0  0  0  0  0  0  0
   -1.4126   -2.2444    0.4801 C   0  0  0  0  0  0  0  0  0  0  0  0
   -0.4686   -2.9534    0.8001 O   0  0  0  0  0  0  0  0  0  0  0  0
   -1.2736   -0.9704    0.1241 N   0  0  0  0  0  0  0  0  0  0  0  0
   -2.0996   -0.4354   -0.1019 H   0  0  0  0  0  0  0  0  0  0  0  0
   -0.0016   -0.2394    0.1271 C   0  0  1  0  0  0  0  0  0  0  0  0
    0.2175    0.0783   -0.8947 H   0  0  0  0  0  0  0  0  0  0  0  0
   -0.1326    1.0108    1.0193 C   0  0  0  0  0  0  0  0  0  0  0  0
   -0.5444    0.7240    1.9877 H   0  0  0  0  0  0  0  0  0  0  0  0
    0.8531    1.4452    1.1897 H   0  0  0  0  0  0  0  0  0  0  0  0
   -1.0574    2.0765    0.4389 C   0  0  0  0  0  0  0  0  0  0  0  0
   -1.2625    2.2698   -0.7523 O   0  0  0  0  0  0  0  0  0  0  0  0
   -1.6715    2.8499    1.3535 O   0  0  0  0  0  0  0  0  0  0  0  0
   -2.2271    3.4520    0.8576 H   0  0  0  0  0  0  0  0  0  0  0  0
    1.1386   -1.1627    0.6008 C   0  0  0  0  0  0  0  0  0  0  0  0
    1.3895   -2.1936   -0.0220 O   0  0  0  0  0  0  0  0  0  0  0  0
    1.8198   -0.8065    1.6957 N   0  0  0  0  0  0  0  0  0  0  0  0
    1.5100    0.0248    2.1885 H   0  0  0  0  0  0  0  0  0  0  0  0
    2.9281   -1.5712    2.2634 C   0  0  0  0  0  0  0  0  0  0  0  0
    3.6684   -1.7792    1.4878 H   0  0  0  0  0  0  0  0  0  0  0  0
    3.3999   -1.0064    3.0685 H   0  0  0  0  0  0  0  0  0  0  0  0
    2.5583   -2.5199    2.6563 H   0  0  0  0  0  0  0  0  0  0  0  0
  5  6  2  0  0  0  0
  5  7  1  0  0  0  0
  2  3  1  0  0  0  0
  2  4  1  0  0  0  0
  2  5  1  0  0  0  0
  1  2  1  0  0  0  0
 18 19  2  0  0  0  0
 18 20  1  0  0  0  0
 16 17  1  0  0  0  0
 14 15  2  0  0  0  0
 14 16  1  0  0  0  0
 11 12  1  0  0  0  0
 11 13  1  0  0  0  0
 11 14  1  0  0  0  0
  9 10  1  0  0  0  0
  9 11  1  0  0  0  0
  9 18  1  0  0  0  0
  7  8  1  0  0  0  0
  7  9  1  0  0  0  0
 22 23  1  0  0  0  0
 22 24  1  0  0  0  0
 22 25  1  0  0  0  0
 20 21  1  0  0  0  0
 20 22  1  0  0  0  0
M  END
$$$$
default_name
  -OEChem-01062215323D

 25 24  0     1  0  0  0  0  0999 V2000
   -2.7826   -3.8464    0.7821 H   0  0  0  0  0  0  0  0  0  0  0  0
   -2.8156   -2.8034    0.4711 C   0  0  0  0  0  0  0  0  0  0  0  0
   -3.4336   -2.2354    1.1641 H   0  0  0  0  0  0  0  0  0  0  0  0
   -3.2256   -2.7344   -0.5349 H   0  0  0  0  0  0  0  0  0  0  0  0
   -1.4126   -2.2444    0.4801 C   0  0  0  0  0  0  0  0  0  0  0  0
   -0.4686   -2.9534    0.8001 O   0  0  0  0  0  0  0  0  0  0  0  0
   -1.2736   -0.9704    0.1241 N   0  0  0  0  0  0  0  0  0  0  0  0
   -2.0996   -0.4354   -0.1019 H   0  0  0  0  0  0  0  0  0  0  0  0
   -0.0016   -0.2394    0.1271 C   0  0  1  0  0  0  0  0  0  0  0  0
    0.2175    0.0783   -0.8947 H   0  0  0  0  0  0  0  0  0  0  0  0
   -0.1326    1.0108    1.0193 C   0  0  0  0  0  0  0  0  0  0  0  0
   -0.5444    0.7240    1.9877 H   0  0  0  0  0  0  0  0  0  0  0  0
    0.8531    1.4452    1.1897 H   0  0  0  0  0  0  0  0  0  0  0  0
   -1.0574    2.0765    0.4389 C   0  0  0  0  0  0  0  0  0  0  0  0
   -1.2625    2.2698   -0.7523 O   0  0  0  0  0  0  0  0  0  0  0  0
   -1.6715    2.8499    1.3535 O   0  0  0  0  0  0  0  0  0  0  0  0
   -2.2271    3.4520    0.8576 H   0  0  0  0  0  0  0  0  0  0  0  0
    1.1386   -1.1627    0.6008 C   0  0  0  0  0  0  0  0  0  0  0  0
    1.5748   -2.0318   -0.1528 O   0  0  0  0  0  0  0  0  0  0  0  0
    1.6144   -0.9868    1.8387 N   0  0  0  0  0  0  0  0  0  0  0  0
    1.1582   -0.2911    2.4198 H   0  0  0  0  0  0  0  0  0  0  0  0
    2.6944   -1.7756    2.4277 C   0  0  0  0  0  0  0  0  0  0  0  0
    3.5571   -1.7781    1.7579 H   0  0  0  0  0  0  0  0  0  0  0  0
    2.9869   -1.3520    3.3893 H   0  0  0  0  0  0  0  0  0  0  0  0
    2.3622   -2.8051    2.5726 H   0  0  0  0  0  0  0  0  0  0  0  0
  5  6  2  0  0  0  0
  5  7  1  0  0  0  0
  2  3  1  0  0  0  0
  2  4  1  0  0  0  0
  2  5  1  0  0  0  0
  1  2  1  0  0  0  0
 18 19  2  0  0  0  0
 18 20  1  0  0  0  0
 16 17  1  0  0  0  0
 14 15  2  0  0  0  0
 14 16  1  0  0  0  0
 11 12  1  0  0  0  0
 11 13  1  0  0  0  0
 11 14  1  0  0  0  0
  9 10  1  0  0  0  0
  9 11  1  0  0  0  0
  9 18  1  0  0  0  0
  7  8  1  0  0  0  0
  7  9  1  0  0  0  0
 22 23  1  0  0  0  0
 22 24  1  0  0  0  0
 22 25  1  0  0  0  0
 20 21  1  0  0  0  0
 20 22  1  0  0  0  0
M  END
$$$$
default_name
  -OEChem-01062215323D

 25 24  0     1  0  0  0  0  0999 V2000
   -2.7826   -3.8464    0.7821 H   0  0  0  0  0  0  0  0  0  0  0  0
   -2.8156   -2.8034    0.4711 C   0  0  0  0  0  0  0  0  0  0  0  0
   -3.4336   -2.2354    1.1641 H   0  0  0  0  0  0  0  0  0  0  0  0
   -3.2256   -2.7344   -0.5349 H   0  0  0  0  0  0  0  0  0  0  0  0
   -1.4126   -2.2444    0.4801 C   0  0  0  0  0  0  0  0  0  0  0  0
   -0.4686   -2.9534    0.8001 O   0  0  0  0  0  0  0  0  0  0  0  0
   -1.2736   -0.9704    0.1241 N   0  0  0  0  0  0  0  0  0  0  0  0
   -2.0996   -0.4354   -0.1019 H   0  0  0  0  0  0  0  0  0  0  0  0
   -0.0016   -0.2394    0.1271 C   0  0  1  0  0  0  0  0  0  0  0  0
    0.2175    0.0783   -0.8947 H   0  0  0  0  0  0  0  0  0  0  0  0
   -0.1326    1.0108    1.0193 C   0  0  0  0  0  0  0  0  0  0  0  0
   -0.5444    0.7240    1.9877 H   0  0  0  0  0  0  0  0  0  0  0  0
    0.8531    1.4452    1.1897 H   0  0  0  0  0  0  0  0  0  0  0  0
   -1.0574    2.0765    0.4389 C   0  0  0  0  0  0  0  0  0  0  0  0
   -1.2625    2.2698   -0.7523 O   0  0  0  0  0  0  0  0  0  0  0  0
   -1.6715    2.8499    1.3535 O   0  0  0  0  0  0  0  0  0  0  0  0
   -2.2271    3.4520    0.8576 H   0  0  0  0  0  0  0  0  0  0  0  0
    1.1386   -1.1627    0.6008 C   0  0  0  0  0  0  0  0  0  0  0  0
    1.7613   -1.8357   -0.2195 O   0  0  0  0  0  0  0  0  0  0  0  0
    1.4081   -1.2047    1.9105 N   0  0  0  0  0  0  0  0  0  0  0  0
    0.8076   -0.6685    2.5282 H   0  0  0  0  0  0  0  0  0  0  0  0
    2.4594   -2.0231    2.5110 C   0  0  0  0  0  0  0  0  0  0  0  0
    3.4076   -1.8376    2.0018 H   0  0  0  0  0  0  0  0  0  0  0  0
    2.5657   -1.7800    3.5689 H   0  0  0  0  0  0  0  0  0  0  0  0
    2.2084   -3.0802    2.4067 H   0  0  0  0  0  0  0  0  0  0  0  0
  5  6  2  0  0  0  0
  5  7  1  0  0  0  0
  2  3  1  0  0  0  0
  2  4  1  0  0  0  0
  2  5  1  0  0  0  0
  1  2  1  0  0  0  0
 18 19  2  0  0  0  0
 18 20  1  0  0  0  0
 16 17  1  0  0  0  0
 14 15  2  0  0  0  0
 14 16  1  0  0  0  0
 11 12  1  0  0  0  0
 11 13  1  0  0  0  0
 11 14  1  0  0  0  0
  9 10  1  0  0  0  0
  9 11  1  0  0  0  0
  9 18  1  0  0  0  0
  7  8  1  0  0  0  0
  7  9  1  0  0  0  0
 22 23  1  0  0  0  0
 22 24  1  0  0  0  0
 22 25  1  0  0  0  0
 20 21  1  0  0  0  0
 20 22  1  0  0  0  0
M  END
$$$$
default_name
  -OEChem-01062215323D

 25 24  0     1  0  0  0  0  0999 V2000
   -2.7826   -3.8464    0.7821 H   0  0  0  0  0  0  0  0  0  0  0  0
   -2.8156   -2.8034    0.4711 C   0  0  0  0  0  0  0  0  0  0  0  0
   -3.4336   -2.2354    1.1641 H   0  0  0  0  0  0  0  0  0  0  0  0
   -3.2256   -2.7344   -0.5349 H   0  0  0  0  0  0  0  0  0  0  0  0
   -1.4126   -2.2444    0.4801 C   0  0  0  0  0  0  0  0  0  0  0  0
   -0.4686   -2.9534    0.8001 O   0  0  0  0  0  0  0  0  0  0  0  0
   -1.2736   -0.9704    0.1241 N   0  0  0  0  0  0  0  0  0  0  0  0
   -2.0996   -0.4354   -0.1019 H   0  0  0  0  0  0  0  0  0  0  0  0
   -0.0016   -0.2394    0.1271 C   0  0  1  0  0  0  0  0  0  0  0  0
    0.2175    0.0783   -0.8947 H   0  0  0  0  0  0  0  0  0  0  0  0
   -0.1326    1.0108    1.0193 C   0  0  0  0  0  0  0  0  0  0  0  0
   -0.5444    0.7240    1.9877 H   0  0  0  0  0  0  0  0  0  0  0  0
    0.8531    1.4452    1.1897 H   0  0  0  0  0  0  0  0  0  0  0  0
   -1.0574    2.0765    0.4389 C   0  0  0  0  0  0  0  0  0  0  0  0
   -1.2625    2.2698   -0.7523 O   0  0  0  0  0  0  0  0  0  0  0  0
   -1.6715    2.8499    1.3535 O   0  0  0  0  0  0  0  0  0  0  0  0
   -2.2271    3.4520    0.8576 H   0  0  0  0  0  0  0  0  0  0  0  0
    1.1386   -1.1627    0.6008 C   0  0  0  0  0  0  0  0  0  0  0  0
    1.9362   -1.6187   -0.2175 O   0  0  0  0  0  0  0  0  0  0  0  0
    1.2151   -1.4454    1.9061 N   0  0  0  0  0  0  0  0  0  0  0  0
    0.4821   -1.0816    2.5064 H   0  0  0  0  0  0  0  0  0  0  0  0
    2.2391   -2.2969    2.5076 C   0  0  0  0  0  0  0  0  0  0  0  0
    3.2301   -1.9536    2.2028 H   0  0  0  0  0  0  0  0  0  0  0  0
    2.1650   -2.2613    3.5953 H   0  0  0  0  0  0  0  0  0  0  0  0
    2.1074   -3.3263    2.1700 H   0  0  0  0  0  0  0  0  0  0  0  0
  5  6  2  0  0  0  0
  5  7  1  0  0  0  0
  2  3  1  0  0  0  0
  2  4  1  0  0  0  0
  2  5  1  0  0  0  0
  1  2  1  0  0  0  0
 18 19  2  0  0  0  0
 18 20  1  0  0  0  0
 16 17  1  0  0  0  0
 14 15  2  0  0  0  0
 14 16  1  0  0  0  0
 11 12  1  0  0  0  0
 11 13  1  0  0  0  0
 11 14  1  0  0  0  0
  9 10  1  0  0  0  0
  9 11  1  0  0  0  0
  9 18  1  0  0  0  0
  7  8  1  0  0  0  0
  7  9  1  0  0  0  0
 22 23  1  0  0  0  0
 22 24  1  0  0  0  0
 22 25  1  0  0  0  0
 20 21  1  0  0  0  0
 20 22  1  0  0  0  0
M  END
$$$$
default_name
  -OEChem-01062215323D

 25 24  0     1  0  0  0  0  0999 V2000
   -2.7826   -3.8464    0.7821 H   0  0  0  0  0  0  0  0  0  0  0  0
   -2.8156   -2.8034    0.4711 C   0  0  0  0  0  0  0  0  0  0  0  0
   -3.4336   -2.2354    1.1641 H   0  0  0  0  0  0  0  0  0  0  0  0
   -3.2256   -2.7344   -0.5349 H   0  0  0  0  0  0  0  0  0  0  0  0
   -1.4126   -2.2444    0.4801 C   0  0  0  0  0  0  0  0  0  0  0  0
   -0.4686   -2.9534    0.8001 O   0  0  0  0  0  0  0  0  0  0  0  0
   -1.2736   -0.9704    0.1241 N   0  0  0  0  0  0  0  0  0  0  0  0
   -2.0996   -0.4354   -0.1019 H   0  0  0  0  0  0  0  0  0  0  0  0
   -0.0016   -0.2394    0.1271 C   0  0  1  0  0  0  0  0  0  0  0  0
    0.2175    0.0783   -0.8947 H   0  0  0  0  0  0  0  0  0  0  0  0
   -0.1326    1.0108    1.0193 C   0  0  0  0  0  0  0  0  0  0  0  0
   -0.5444    0.7240    1.9877 H   0  0  0  0  0  0  0  0  0  0  0  0
    0.8531    1.4452    1.1897 H   0  0  0  0  0  0  0  0  0  0  0  0
   -1.0574    2.0765    0.4389 C   0  0  0  0  0  0  0  0  0  0  0  0
   -1.2625    2.2698   -0.7523 O   0  0  0  0  0  0  0  0  0  0  0  0
   -1.6715    2.8499    1.3535 O   0  0  0  0  0  0  0  0  0  0  0  0
   -2.2271    3.4520    0.8576 H   0  0  0  0  0  0  0  0  0  0  0  0
    1.1386   -1.1627    0.6008 C   0  0  0  0  0  0  0  0  0  0  0  0
    2.0875   -1.3956   -0.1469 O   0  0  0  0  0  0  0  0  0  0  0  0
    1.0485   -1.6923    1.8259 N   0  0  0  0  0  0  0  0  0  0  0  0
    0.2040   -1.5024    2.3558 H   0  0  0  0  0  0  0  0  0  0  0  0
    2.0487   -2.5781    2.4179 C   0  0  0  0  0  0  0  0  0  0  0  0
    3.0368   -2.1182    2.3473 H   0  0  0  0  0  0  0  0  0  0  0  0
    1.8122   -2.7632    3.4664 H   0  0  0  0  0  0  0  0  0  0  0  0
    2.0661   -3.5269    1.8786 H   0  0  0  0  0  0  0  0  0  0  0  0
  5  6  2  0  0  0  0
  5  7  1  0  0  0  0
  2  3  1  0  0  0  0
  2  4  1  0  0  0  0
  2  5  1  0  0  0  0
  1  2  1  0  0  0  0
 18 19  2  0  0  0  0
 18 20  1  0  0  0  0
 16 17  1  0  0  0  0
 14 15  2  0  0  0  0
 14 16  1  0  0  0  0
 11 12  1  0  0  0  0
 11 13  1  0  0  0  0
 11 14  1  0  0  0  0
  9 10  1  0  0  0  0
  9 11  1  0  0  0  0
  9 18  1  0  0  0  0
  7  8  1  0  0  0  0
  7  9  1  0  0  0  0
 22 23  1  0  0  0  0
 22 24  1  0  0  0  0
 22 25  1  0  0  0  0
 20 21  1  0  0  0  0
 20 22  1  0  0  0  0
M  END
$$$$
default_name
  -OEChem-01062215323D

 25 24  0     1  0  0  0  0  0999 V2000
   -2.7826   -3.8464    0.7821 H   0  0  0  0  0  0  0  0  0  0  0  0
   -2.8156   -2.8034    0.4711 C   0  0  0  0  0  0  0  0  0  0  0  0
   -3.4336   -2.2354    1.1641 H   0  0  0  0  0  0  0  0  0  0  0  0
   -3.2256   -2.7344   -0.5349 H   0  0  0  0  0  0  0  0  0  0  0  0
   -1.4126   -2.2444    0.4801 C   0  0  0  0  0  0  0  0  0  0  0  0
   -0.4686   -2.9534    0.8001 O   0  0  0  0  0  0  0  0  0  0  0  0
   -1.2736   -0.9704    0.1241 N   0  0  0  0  0  0  0  0  0  0  0  0
   -2.0996   -0.4354   -0.1019 H   0  0  0  0  0  0  0  0  0  0  0  0
   -0.0016   -0.2394    0.1271 C   0  0  1  0  0  0  0  0  0  0  0  0
    0.2175    0.0783   -0.8947 H   0  0  0  0  0  0  0  0  0  0  0  0
   -0.1326    1.0108    1.0193 C   0  0  0  0  0  0  0  0  0  0  0  0
   -0.5444    0.7240    1.9877 H   0  0  0  0  0  0  0  0  0  0  0  0
    0.8531    1.4452    1.1897 H   0  0  0  0  0  0  0  0  0  0  0  0
   -1.0574    2.0765    0.4389 C   0  0  0  0  0  0  0  0  0  0  0  0
   -1.2625    2.2698   -0.7523 O   0  0  0  0  0  0  0  0  0  0  0  0
   -1.6715    2.8499    1.3535 O   0  0  0  0  0  0  0  0  0  0  0  0
   -2.2271    3.4520    0.8576 H   0  0  0  0  0  0  0  0  0  0  0  0
    1.1386   -1.1627    0.6008 C   0  0  0  0  0  0  0  0  0  0  0  0
    2.2050   -1.1815   -0.0125 O   0  0  0  0  0  0  0  0  0  0  0  0
    0.9196   -1.9287    1.6754 N   0  0  0  0  0  0  0  0  0  0  0  0
   -0.0078   -1.9022    2.0866 H   0  0  0  0  0  0  0  0  0  0  0  0
    1.9010   -2.8478    2.2478 C   0  0  0  0  0  0  0  0  0  0  0  0
    2.8408   -2.3203    2.4253 H   0  0  0  0  0  0  0  0  0  0  0  0
    1.5313   -3.2513    3.1913 H   0  0  0  0  0  0  0  0  0  0  0  0
    2.0873   -3.6680    1.5524 H   0  0  0  0  0  0  0  0  0  0  0  0
  5  6  2  0  0  0  0
  5  7  1  0  0  0  0
  2  3  1  0  0  0  0
  2  4  1  0  0  0  0
  2  5  1  0  0  0  0
  1  2  1  0  0  0  0
 18 19  2  0  0  0  0
 18 20  1  0  0  0  0
 16 17  1  0  0  0  0
 14 15  2  0  0  0  0
 14 16  1  0  0  0  0
 11 12  1  0  0  0  0
 11 13  1  0  0  0  0
 11 14  1  0  0  0  0
  9 10  1  0  0  0  0
  9 11  1  0  0  0  0
  9 18  1  0  0  0  0
  7  8  1  0  0  0  0
  7  9  1  0  0  0  0
 22 23  1  0  0  0  0
 22 24  1  0  0  0  0
 22 25  1  0  0  0  0
 20 21  1  0  0  0  0
 20 22  1  0  0  0  0
M  END
$$$$
default_name
  -OEChem-01062215323D

 25 24  0     1  0  0  0  0  0999 V2000
   -2.7826   -3.8464    0.7821 H   0  0  0  0  0  0  0  0  0  0  0  0
   -2.8156   -2.8034    0.4711 C   0  0  0  0  0  0  0  0  0  0  0  0
   -3.4336   -2.2354    1.1641 H   0  0  0  0  0  0  0  0  0  0  0  0
   -3.2256   -2.7344   -0.5349 H   0  0  0  0  0  0  0  0  0  0  0  0
   -1.4126   -2.2444    0.4801 C   0  0  0  0  0  0  0  0  0  0  0  0
   -0.4686   -2.9534    0.8001 O   0  0  0  0  0  0  0  0  0  0  0  0
   -1.2736   -0.9704    0.1241 N   0  0  0  0  0  0  0  0  0  0  0  0
   -2.0996   -0.4354   -0.1019 H   0  0  0  0  0  0  0  0  0  0  0  0
   -0.0016   -0.2394    0.1271 C   0  0  1  0  0  0  0  0  0  0  0  0
    0.2175    0.0783   -0.8947 H   0  0  0  0  0  0  0  0  0  0  0  0
   -0.1326    1.0108    1.0193 C   0  0  0  0  0  0  0  0  0  0  0  0
   -0.5444    0.7240    1.9877 H   0  0  0  0  0  0  0  0  0  0  0  0
    0.8531    1.4452    1.1897 H   0  0  0  0  0  0  0  0  0  0  0  0
   -1.0574    2.0765    0.4389 C   0  0  0  0  0  0  0  0  0  0  0  0
   -1.2625    2.2698   -0.7523 O   0  0  0  0  0  0  0  0  0  0  0  0
   -1.6715    2.8499    1.3535 O   0  0  0  0  0  0  0  0  0  0  0  0
   -2.2271    3.4520    0.8576 H   0  0  0  0  0  0  0  0  0  0  0  0
    1.1386   -1.1627    0.6008 C   0  0  0  0  0  0  0  0  0  0  0  0
    2.2806   -0.9912    0.1764 O   0  0  0  0  0  0  0  0  0  0  0  0
    0.8372   -2.1386    1.4647 N   0  0  0  0  0  0  0  0  0  0  0  0
   -0.1389   -2.2536    1.7173 H   0  0  0  0  0  0  0  0  0  0  0  0
    1.8062   -3.0874    2.0090 C   0  0  0  0  0  0  0  0  0  0  0  0
    2.6554   -2.5460    2.4317 H   0  0  0  0  0  0  0  0  0  0  0  0
    1.3415   -3.6925    2.7885 H   0  0  0  0  0  0  0  0  0  0  0  0
    2.1696   -3.7403    1.2135 H   0  0  0  0  0  0  0  0  0  0  0  0
  5  6  2  0  0  0  0
  5  7  1  0  0  0  0
  2  3  1  0  0  0  0
  2  4  1  0  0  0  0
  2  5  1  0  0  0  0
  1  2  1  0  0  0  0
 18 19  2  0  0  0  0
 18 20  1  0  0  0  0
 16 17  1  0  0  0  0
 14 15  2  0  0  0  0
 14 16  1  0  0  0  0
 11 12  1  0  0  0  0
 11 13  1  0  0  0  0
 11 14  1  0  0  0  0
  9 10  1  0  0  0  0
  9 11  1  0  0  0  0
  9 18  1  0  0  0  0
  7  8  1  0  0  0  0
  7  9  1  0  0  0  0
 22 23  1  0  0  0  0
 22 24  1  0  0  0  0
 22 25  1  0  0  0  0
 20 21  1  0  0  0  0
 20 22  1  0  0  0  0
M  END
$$$$
default_name
  -OEChem-01062215323D

 25 24  0     1  0  0  0  0  0999 V2000
   -2.7826   -3.8464    0.7821 H   0  0  0  0  0  0  0  0  0  0  0  0
   -2.8156   -2.8034    0.4711 C   0  0  0  0  0  0  0  0  0  0  0  0
   -3.4336   -2.2354    1.1641 H   0  0  0  0  0  0  0  0  0  0  0  0
   -3.2256   -2.7344   -0.5349 H   0  0  0  0  0  0  0  0  0  0  0  0
   -1.4126   -2.2444    0.4801 C   0  0  0  0  0  0  0  0  0  0  0  0
   -0.4686   -2.9534    0.8001 O   0  0  0  0  0  0  0  0  0  0  0  0
   -1.2736   -0.9704    0.1241 N   0  0  0  0  0  0  0  0  0  0  0  0
   -2.0996   -0.4354   -0.1019 H   0  0  0  0  0  0  0  0  0  0  0  0
   -0.0016   -0.2394    0.1271 C   0  0  1  0  0  0  0  0  0  0  0  0
    0.2175    0.0783   -0.8947 H   0  0  0  0  0  0  0  0  0  0  0  0
   -0.1326    1.0108    1.0193 C   0  0  0  0  0  0  0  0  0  0  0  0
   -0.5444    0.7240    1.9877 H   0  0  0  0  0  0  0  0  0  0  0  0
    0.8531    1.4452    1.1897 H   0  0  0  0  0  0  0  0  0  0  0  0
   -1.0574    2.0765    0.4389 C   0  0  0  0  0  0  0  0  0  0  0  0
   -1.2625    2.2698   -0.7523 O   0  0  0  0  0  0  0  0  0  0  0  0
   -1.6715    2.8499    1.3535 O   0  0  0  0  0  0  0  0  0  0  0  0
   -2.2271    3.4520    0.8576 H   0  0  0  0  0  0  0  0  0  0  0  0
    1.1386   -1.1627    0.6008 C   0  0  0  0  0  0  0  0  0  0  0  0
    2.3092   -0.8374    0.4071 O   0  0  0  0  0  0  0  0  0  0  0  0
    0.8070   -2.3074    1.2083 N   0  0  0  0  0  0  0  0  0  0  0  0
   -0.1804   -2.5328    1.2729 H   0  0  0  0  0  0  0  0  0  0  0  0
    1.7707   -3.2807    1.7178 C   0  0  0  0  0  0  0  0  0  0  0  0
    2.4933   -2.7800    2.3659 H   0  0  0  0  0  0  0  0  0  0  0  0
    1.2556   -4.0566    2.2856 H   0  0  0  0  0  0  0  0  0  0  0  0
    2.3074   -3.7386    0.8851 H   0  0  0  0  0  0  0  0  0  0  0  0
  5  6  2  0  0  0  0
  5  7  1  0  0  0  0
  2  3  1  0  0  0  0
  2  4  1  0  0  0  0
  2  5  1  0  0  0  0
  1  2  1  0  0  0  0
 18 19  2  0  0  0  0
 18 20  1  0  0  0  0
 16 17  1  0  0  0  0
 14 15  2  0  0  0  0
 14 16  1  0  0  0  0
 11 12  1  0  0  0  0
 11 13  1  0  0  0  0
 11 14  1  0  0  0  0
  9 10  1  0  0  0  0
  9 11  1  0  0  0  0
  9 18  1  0  0  0  0
  7  8  1  0  0  0  0
  7  9  1  0  0  0  0
 22 23  1  0  0  0  0
 22 24  1  0  0  0  0
 22 25  1  0  0  0  0
 20 21  1  0  0  0  0
 20 22  1  0  0  0  0
M  END
$$$$
default_name
  -OEChem-01062215323D

 25 24  0     1  0  0  0  0  0999 V2000
   -2.7826   -3.8464    0.7821 H   0  0  0  0  0  0  0  0  0  0  0  0
   -2.8156   -2.8034    0.4711 C   0  0  0  0  0  0  0  0  0  0  0  0
   -3.4336   -2.2354    1.1641 H   0  0  0  0  0  0  0  0  0  0  0  0
   -3.2256   -2.7344   -0.5349 H   0  0  0  0  0  0  0  0  0  0  0  0
   -1.4126   -2.2444    0.4801 C   0  0  0  0  0  0  0  0  0  0  0  0
   -0.4686   -2.9534    0.8001 O   0  0  0  0  0  0  0  0  0  0  0  0
   -1.2736   -0.9704    0.1241 N   0  0  0  0  0  0  0  0  0  0  0  0
   -2.0996   -0.4354   -0.1019 H   0  0  0  0  0  0  0  0  0  0  0  0
   -0.0016   -0.2394    0.1271 C   0  0  1  0  0  0  0  0  0  0  0  0
    0.2175    0.0783   -0.8947 H   0  0  0  0  0  0  0  0  0  0  0  0
   -0.1326    1.0108    1.0193 C   0  0  0  0  0  0  0  0  0  0  0  0
   -0.5444    0.7240    1.9877 H   0  0  0  0  0  0  0  0  0  0  0  0
    0.8531    1.4452    1.1897 H   0  0  0  0  0  0  0  0  0  0  0  0
   -1.0574    2.0765    0.4389 C   0  0  0  0  0  0  0  0  0  0  0  0
   -1.2625    2.2698   -0.7523 O   0  0  0  0  0  0  0  0  0  0  0  0
   -1.6715    2.8499    1.3535 O   0  0  0  0  0  0  0  0  0  0  0  0
   -2.2271    3.4520    0.8576 H   0  0  0  0  0  0  0  0  0  0  0  0
    1.1386   -1.1627    0.6008 C   0  0  0  0  0  0  0  0  0  0  0  0
    2.2889   -0.7308    0.6638 O   0  0  0  0  0  0  0  0  0  0  0  0
    0.8310   -2.4239    0.9237 N   0  0  0  0  0  0  0  0  0  0  0  0
   -0.1293   -2.7207    0.7839 H   0  0  0  0  0  0  0  0  0  0  0  0
    1.7968   -3.4145    1.3941 C   0  0  0  0  0  0  0  0  0  0  0  0
    2.3655   -3.0063    2.2324 H   0  0  0  0  0  0  0  0  0  0  0  0
    1.2795   -4.3189    1.7168 H   0  0  0  0  0  0  0  0  0  0  0  0
    2.4912   -3.6632    0.5896 H   0  0  0  0  0  0  0  0  0  0  0  0
  5  6  2  0  0  0  0
  5  7  1  0  0  0  0
  2  3  1  0  0  0  0
  2  4  1  0  0  0  0
  2  5  1  0  0  0  0
  1  2  1  0  0  0  0
 18 19  2  0  0  0  0
 18 20  1  0  0  0  0
 16 17  1  0  0  0  0
 14 15  2  0  0  0  0
 14 16  1  0  0  0  0
 11 12  1  0  0  0  0
 11 13  1  0  0  0  0
 11 14  1  0  0  0  0
  9 10  1  0  0  0  0
  9 11  1  0  0  0  0
  9 18  1  0  0  0  0
  7  8  1  0  0  0  0
  7  9  1  0  0  0  0
 22 23  1  0  0  0  0
 22 24  1  0  0  0  0
 22 25  1  0  0  0  0
 20 21  1  0  0  0  0
 20 22  1  0  0  0  0
M  END
$$$$
default_name
  -OEChem-01062215323D

 25 24  0     1  0  0  0  0  0999 V2000
   -2.7826   -3.8464    0.7821 H   0  0  0  0  0  0  0  0  0  0  0  0
   -2.8156   -2.8034    0.4711 C   0  0  0  0  0  0  0  0  0  0  0  0
   -3.4336   -2.2354    1.1641 H   0  0  0  0  0  0  0  0  0  0  0  0
   -3.2256   -2.7344   -0.5349 H   0  0  0  0  0  0  0  0  0  0  0  0
   -1.4126   -2.2444    0.4801 C   0  0  0  0  0  0  0  0  0  0  0  0
   -0.4686   -2.9534    0.8001 O   0  0  0  0  0  0  0  0  0  0  0  0
   -1.2736   -0.9704    0.1241 N   0  0  0  0  0  0  0  0  0  0  0  0
   -2.0996   -0.4354   -0.1019 H   0  0  0  0  0  0  0  0  0  0  0  0
   -0.0016   -0.2394    0.1271 C   0  0  1  0  0  0  0  0  0  0  0  0
    0.2175    0.0783   -0.8947 H   0  0  0  0  0  0  0  0  0  0  0  0
   -0.1326    1.0108    1.0193 C   0  0  0  0  0  0  0  0  0  0  0  0
   -0.5444    0.7240    1.9877 H   0  0  0  0  0  0  0  0  0  0  0  0
    0.8531    1.4452    1.1897 H   0  0  0  0  0  0  0  0  0  0  0  0
   -1.0574    2.0765    0.4389 C   0  0  0  0  0  0  0  0  0  0  0  0
   -1.2625    2.2698   -0.7523 O   0  0  0  0  0  0  0  0  0  0  0  0
   -1.6715    2.8499    1.3535 O   0  0  0  0  0  0  0  0  0  0  0  0
   -2.2271    3.4520    0.8576 H   0  0  0  0  0  0  0  0  0  0  0  0
    1.1386   -1.1627    0.6008 C   0  0  0  0  0  0  0  0  0  0  0  0
    2.2210   -0.6786    0.9290 O   0  0  0  0  0  0  0  0  0  0  0  0
    0.9075   -2.4800    0.6301 N   0  0  0  0  0  0  0  0  0  0  0  0
    0.0107   -2.8046    0.2834 H   0  0  0  0  0  0  0  0  0  0  0  0
    1.8829   -3.4797    1.0597 C   0  0  0  0  0  0  0  0  0  0  0  0
    2.2808   -3.2095    2.0403 H   0  0  0  0  0  0  0  0  0  0  0  0
    1.4117   -4.4615    1.1209 H   0  0  0  0  0  0  0  0  0  0  0  0
    2.7086   -3.5192    0.3470 H   0  0  0  0  0  0  0  0  0  0  0  0
  5  6  2  0  0  0  0
  5  7  1  0  0  0  0
  2  3  1  0  0  0  0
  2  4  1  0  0  0  0
  2  5  1  0  0  0  0
  1  2  1  0  0  0  0
 18 19  2  0  0  0  0
 18 20  1  0  0  0  0
 16 17  1  0  0  0  0
 14 15  2  0  0  0  0
 14 16  1  0  0  0  0
 11 12  1  0  0  0  0
 11 13  1  0  0  0  0
 11 14  1  0  0  0  0
  9 10  1  0  0  0  0
  9 11  1  0  0  0  0
  9 18  1  0  0  0  0
  7  8  1  0  0  0  0
  7  9  1  0  0  0  0
 22 23  1  0  0  0  0
 22 24  1  0  0  0  0
 22 25  1  0  0  0  0
 20 21  1  0  0  0  0
 20 22  1  0  0  0  0
M  END
$$$$
default_name
  -OEChem-01062215323D

 25 24  0     1  0  0  0  0  0999 V2000
   -2.7826   -3.8464    0.7821 H   0  0  0  0  0  0  0  0  0  0  0  0
   -2.8156   -2.8034    0.4711 C   0  0  0  0  0  0  0  0  0  0  0  0
   -3.4336   -2.2354    1.1641 H   0  0  0  0  0  0  0  0  0  0  0  0
   -3.2256   -2.7344   -0.5349 H   0  0  0  0  0  0  0  0  0  0  0  0
   -1.4126   -2.2444    0.4801 C   0  0  0  0  0  0  0  0  0  0  0  0
   -0.4686   -2.9534    0.8001 O   0  0  0  0  0  0  0  0  0  0  0  0
   -1.2736   -0.9704    0.1241 N   0  0  0  0  0  0  0  0  0  0  0  0
   -2.0996   -0.4354   -0.1019 H   0  0  0  0  0  0  0  0  0  0  0  0
   -0.0016   -0.2394    0.1271 C   0  0  1  0  0  0  0  0  0  0  0  0
    0.2175    0.0783   -0.8947 H   0  0  0  0  0  0  0  0  0  0  0  0
   -0.1326    1.0108    1.0193 C   0  0  0  0  0  0  0  0  0  0  0  0
   -0.5444    0.7240    1.9877 H   0  0  0  0  0  0  0  0  0  0  0  0
    0.8531    1.4452    1.1897 H   0  0  0  0  0  0  0  0  0  0  0  0
   -1.0574    2.0765    0.4389 C   0  0  0  0  0  0  0  0  0  0  0  0
   -1.2625    2.2698   -0.7523 O   0  0  0  0  0  0  0  0  0  0  0  0
   -1.6715    2.8499    1.3535 O   0  0  0  0  0  0  0  0  0  0  0  0
   -2.2271    3.4520    0.8576 H   0  0  0  0  0  0  0  0  0  0  0  0
    1.1386   -1.1627    0.6008 C   0  0  0  0  0  0  0  0  0  0  0  0
    2.1102   -0.6843    1.1846 O   0  0  0  0  0  0  0  0  0  0  0  0
    1.0314   -2.4719    0.3477 N   0  0  0  0  0  0  0  0  0  0  0  0
    0.2302   -2.7786   -0.1944 H   0  0  0  0  0  0  0  0  0  0  0  0
    2.0231   -3.4719    0.7377 C   0  0  0  0  0  0  0  0  0  0  0  0
    2.2449   -3.3758    1.8028 H   0  0  0  0  0  0  0  0  0  0  0  0
    1.6430   -4.4746    0.5385 H   0  0  0  0  0  0  0  0  0  0  0  0
    2.9447   -3.3164    0.1740 H   0  0  0  0  0  0  0  0  0  0  0  0
  5  6  2  0  0  0  0
  5  7  1  0  0  0  0
  2  3  1  0  0  0  0
  2  4  1  0  0  0  0
  2  5  1  0  0  0  0
  1  2  1  0  0  0  0
 18 19  2  0  0  0  0
 18 20  1  0  0  0  0
 16 17  1  0  0  0  0
 14 15  2  0  0  0  0
 14 16  1  0  0  0  0
 11 12  1  0  0  0  0
 11 13  1  0  0  0  0
 11 14  1  0  0  0  0
  9 10  1  0  0  0  0
  9 11  1  0  0  0  0
  9 18  1  0  0  0  0
  7  8  1  0  0  0  0
  7  9  1  0  0  0  0
 22 23  1  0  0  0  0
 22 24  1  0  0  0  0
 22 25  1  0  0  0  0
 20 21  1  0  0  0  0
 20 22  1  0  0  0  0
M  END
$$$$
default_name
  -OEChem-01062215323D

 25 24  0     1  0  0  0  0  0999 V2000
   -2.7826   -3.8464    0.7821 H   0  0  0  0  0  0  0  0  0  0  0  0
   -2.8156   -2.8034    0.4711 C   0  0  0  0  0  0  0  0  0  0  0  0
   -3.4336   -2.2354    1.1641 H   0  0  0  0  0  0  0  0  0  0  0  0
   -3.2256   -2.7344   -0.5349 H   0  0  0  0  0  0  0  0  0  0  0  0
   -1.4126   -2.2444    0.4801 C   0  0  0  0  0  0  0  0  0  0  0  0
   -0.4686   -2.9534    0.8001 O   0  0  0  0  0  0  0  0  0  0  0  0
   -1.2736   -0.9704    0.1241 N   0  0  0  0  0  0  0  0  0  0  0  0
   -2.0996   -0.4354   -0.1019 H   0  0  0  0  0  0  0  0  0  0  0  0
   -0.0016   -0.2394    0.1271 C   0  0  1  0  0  0  0  0  0  0  0  0
    0.2175    0.0783   -0.8947 H   0  0  0  0  0  0  0  0  0  0  0  0
   -0.1326    1.0108    1.0193 C   0  0  0  0  0  0  0  0  0  0  0  0
   -0.5444    0.7240    1.9877 H   0  0  0  0  0  0  0  0  0  0  0  0
    0.8531    1.4452    1.1897 H   0  0  0  0  0  0  0  0  0  0  0  0
   -1.0574    2.0765    0.4389 C   0  0  0  0  0  0  0  0  0  0  0  0
   -1.2625    2.2698   -0.7523 O   0  0  0  0  0  0  0  0  0  0  0  0
   -1.6715    2.8499    1.3535 O   0  0  0  0  0  0  0  0  0  0  0  0
   -2.2271    3.4520    0.8576 H   0  0  0  0  0  0  0  0  0  0  0  0
    1.1386   -1.1627    0.6008 C   0  0  0  0  0  0  0  0  0  0  0  0
    1.9640   -0.7476    1.4133 O   0  0  0  0  0  0  0  0  0  0  0  0
    1.1942   -2.4001    0.0957 N   0  0  0  0  0  0  0  0  0  0  0  0
    0.5142   -2.6446   -0.6168 H   0  0  0  0  0  0  0  0  0  0  0  0
    2.2078   -3.3915    0.4498 C   0  0  0  0  0  0  0  0  0  0  0  0
    2.2602   -3.4937    1.5359 H   0  0  0  0  0  0  0  0  0  0  0  0
    1.9577   -4.3574    0.0093 H   0  0  0  0  0  0  0  0  0  0  0  0
    3.1834   -3.0686    0.0823 H   0  0  0  0  0  0  0  0  0  0  0  0
  5  6  2  0  0  0  0
  5  7  1  0  0  0  0
  2  3  1  0  0  0  0
  2  4  1  0  0  0  0
  2  5  1  0  0  0  0
  1  2  1  0  0  0  0
 18 19  2  0  0  0  0
 18 20  1  0  0  0  0
 16 17  1  0  0  0  0
 14 15  2  0  0  0  0
 14 16  1  0  0  0  0
 11 12  1  0  0  0  0
 11 13  1  0  0  0  0
 11 14  1  0  0  0  0
  9 10  1  0  0  0  0
  9 11  1  0  0  0  0
  9 18  1  0  0  0  0
  7  8  1  0  0  0  0
  7  9  1  0  0  0  0
 22 23  1  0  0  0  0
 22 24  1  0  0  0  0
 22 25  1  0  0  0  0
 20 21  1  0  0  0  0
 20 22  1  0  0  0  0
M  END
$$$$
default_name
  -OEChem-01062215323D

 25 24  0     1  0  0  0  0  0999 V2000
   -2.7826   -3.8464    0.7821 H   0  0  0  0  0  0  0  0  0  0  0  0
   -2.8156   -2.8034    0.4711 C   0  0  0  0  0  0  0  0  0  0  0  0
   -3.4336   -2.2354    1.1641 H   0  0  0  0  0  0  0  0  0  0  0  0
   -3.2256   -2.7344   -0.5349 H   0  0  0  0  0  0  0  0  0  0  0  0
   -1.4126   -2.2444    0.4801 C   0  0  0  0  0  0  0  0  0  0  0  0
   -0.4686   -2.9534    0.8001 O   0  0  0  0  0  0  0  0  0  0  0  0
   -1.2736   -0.9704    0.1241 N   0  0  0  0  0  0  0  0  0  0  0  0
   -2.0996   -0.4354   -0.1019 H   0  0  0  0  0  0  0  0  0  0  0  0
   -0.0016   -0.2394    0.1271 C   0  0  1  0  0  0  0  0  0  0  0  0
    0.2175    0.0783   -0.8947 H   0  0  0  0  0  0  0  0  0  0  0  0
   -0.1326    1.0108    1.0193 C   0  0  0  0  0  0  0  0  0  0  0  0
   -0.5444    0.7240    1.9877 H   0  0  0  0  0  0  0  0  0  0  0  0
    0.8531    1.4452    1.1897 H   0  0  0  0  0  0  0  0  0  0  0  0
   -1.0574    2.0765    0.4389 C   0  0  0  0  0  0  0  0  0  0  0  0
   -1.2625    2.2698   -0.7523 O   0  0  0  0  0  0  0  0  0  0  0  0
   -1.6715    2.8499    1.3535 O   0  0  0  0  0  0  0  0  0  0  0  0
   -2.2271    3.4520    0.8576 H   0  0  0  0  0  0  0  0  0  0  0  0
    1.1386   -1.1627    0.6008 C   0  0  0  0  0  0  0  0  0  0  0  0
    1.7923   -0.8641    1.5993 O   0  0  0  0  0  0  0  0  0  0  0  0
    1.3848   -2.2696   -0.1088 N   0  0  0  0  0  0  0  0  0  0  0  0
    0.8433   -2.4118   -0.9553 H   0  0  0  0  0  0  0  0  0  0  0  0
    2.4244   -3.2440    0.2158 C   0  0  0  0  0  0  0  0  0  0  0  0
    2.3258   -3.5554    1.2580 H   0  0  0  0  0  0  0  0  0  0  0  0
    2.3345   -4.1179   -0.4307 H   0  0  0  0  0  0  0  0  0  0  0  0
    3.4085   -2.7927    0.0781 H   0  0  0  0  0  0  0  0  0  0  0  0
  5  6  2  0  0  0  0
  5  7  1  0  0  0  0
  2  3  1  0  0  0  0
  2  4  1  0  0  0  0
  2  5  1  0  0  0  0
  1  2  1  0  0  0  0
 18 19  2  0  0  0  0
 18 20  1  0  0  0  0
 16 17  1  0  0  0  0
 14 15  2  0  0  0  0
 14 16  1  0  0  0  0
 11 12  1  0  0  0  0
 11 13  1  0  0  0  0
 11 14  1  0  0  0  0
  9 10  1  0  0  0  0
  9 11  1  0  0  0  0
  9 18  1  0  0  0  0
  7  8  1  0  0  0  0
  7  9  1  0  0  0  0
 22 23  1  0  0  0  0
 22 24  1  0  0  0  0
 22 25  1  0  0  0  0
 20 21  1  0  0  0  0
 20 22  1  0  0  0  0
M  END
$$$$
default_name
  -OEChem-01062215323D

 25 24  0     1  0  0  0  0  0999 V2000
   -2.7826   -3.8464    0.7821 H   0  0  0  0  0  0  0  0  0  0  0  0
   -2.8156   -2.8034    0.4711 C   0  0  0  0  0  0  0  0  0  0  0  0
   -3.4336   -2.2354    1.1641 H   0  0  0  0  0  0  0  0  0  0  0  0
   -3.2256   -2.7344   -0.5349 H   0  0  0  0  0  0  0  0  0  0  0  0
   -1.4126   -2.2444    0.4801 C   0  0  0  0  0  0  0  0  0  0  0  0
   -0.4686   -2.9534    0.8001 O   0  0  0  0  0  0  0  0  0  0  0  0
   -1.2736   -0.9704    0.1241 N   0  0  0  0  0  0  0  0  0  0  0  0
   -2.0996   -0.4354   -0.1019 H   0  0  0  0  0  0  0  0  0  0  0  0
   -0.0016   -0.2394    0.1271 C   0  0  1  0  0  0  0  0  0  0  0  0
    0.2175    0.0783   -0.8947 H   0  0  0  0  0  0  0  0  0  0  0  0
   -0.1326    1.0108    1.0193 C   0  0  0  0  0  0  0  0  0  0  0  0
   -0.5444    0.7240    1.9877 H   0  0  0  0  0  0  0  0  0  0  0  0
    0.8531    1.4452    1.1897 H   0  0  0  0  0  0  0  0  0  0  0  0
   -1.0574    2.0765    0.4389 C   0  0  0  0  0  0  0  0  0  0  0  0
   -1.2625    2.2698   -0.7523 O   0  0  0  0  0  0  0  0  0  0  0  0
   -1.6715    2.8499    1.3535 O   0  0  0  0  0  0  0  0  0  0  0  0
   -2.2271    3.4520    0.8576 H   0  0  0  0  0  0  0  0  0  0  0  0
    1.1386   -1.1627    0.6008 C   0  0  0  0  0  0  0  0  0  0  0  0
    1.6070   -1.0259    1.7302 O   0  0  0  0  0  0  0  0  0  0  0  0
    1.5903   -2.0893   -0.2518 N   0  0  0  0  0  0  0  0  0  0  0  0
    1.1952   -2.0959   -1.1866 H   0  0  0  0  0  0  0  0  0  0  0  0
    2.6582   -3.0396    0.0515 C   0  0  0  0  0  0  0  0  0  0  0  0
    2.4371   -3.5565    0.9879 H   0  0  0  0  0  0  0  0  0  0  0  0
    2.7475   -3.7723   -0.7514 H   0  0  0  0  0  0  0  0  0  0  0  0
    3.6047   -2.5074    0.1618 H   0  0  0  0  0  0  0  0  0  0  0  0
  5  6  2  0  0  0  0
  5  7  1  0  0  0  0
  2  3  1  0  0  0  0
  2  4  1  0  0  0  0
  2  5  1  0  0  0  0
  1  2  1  0  0  0  0
 18 19  2  0  0  0  0
 18 20  1  0  0  0  0
 16 17  1  0  0  0  0
 14 15  2  0  0  0  0
 14 16  1  0  0  0  0
 11 12  1  0  0  0  0
 11 13  1  0  0  0  0
 11 14  1  0  0  0  0
  9 10  1  0  0  0  0
  9 11  1  0  0  0  0
  9 18  1  0  0  0  0
  7  8  1  0  0  0  0
  7  9  1  0  0  0  0
 22 23  1  0  0  0  0
 22 24  1  0  0  0  0
 22 25  1  0  0  0  0
 20 21  1  0  0  0  0
 20 22  1  0  0  0  0
M  END
$$$$
default_name
  -OEChem-01062215323D

 25 24  0     1  0  0  0  0  0999 V2000
   -2.7826   -3.8464    0.7821 H   0  0  0  0  0  0  0  0  0  0  0  0
   -2.8156   -2.8034    0.4711 C   0  0  0  0  0  0  0  0  0  0  0  0
   -3.4336   -2.2354    1.1641 H   0  0  0  0  0  0  0  0  0  0  0  0
   -3.2256   -2.7344   -0.5349 H   0  0  0  0  0  0  0  0  0  0  0  0
   -1.4126   -2.2444    0.4801 C   0  0  0  0  0  0  0  0  0  0  0  0
   -0.4686   -2.9534    0.8001 O   0  0  0  0  0  0  0  0  0  0  0  0
   -1.2736   -0.9704    0.1241 N   0  0  0  0  0  0  0  0  0  0  0  0
   -2.0996   -0.4354   -0.1019 H   0  0  0  0  0  0  0  0  0  0  0  0
   -0.0016   -0.2394    0.1271 C   0  0  1  0  0  0  0  0  0  0  0  0
    0.2175    0.0783   -0.8947 H   0  0  0  0  0  0  0  0  0  0  0  0
   -0.1326    1.0108    1.0193 C   0  0  0  0  0  0  0  0  0  0  0  0
   -0.5444    0.7240    1.9877 H   0  0  0  0  0  0  0  0  0  0  0  0
    0.8531    1.4452    1.1897 H   0  0  0  0  0  0  0  0  0  0  0  0
   -1.0574    2.0765    0.4389 C   0  0  0  0  0  0  0  0  0  0  0  0
   -1.2625    2.2698   -0.7523 O   0  0  0  0  0  0  0  0  0  0  0  0
   -1.6715    2.8499    1.3535 O   0  0  0  0  0  0  0  0  0  0  0  0
   -2.2271    3.4520    0.8576 H   0  0  0  0  0  0  0  0  0  0  0  0
    1.1386   -1.1627    0.6008 C   0  0  0  0  0  0  0  0  0  0  0  0
    1.4205   -1.2220    1.7969 O   0  0  0  0  0  0  0  0  0  0  0  0
    1.7965   -1.8714   -0.3236 N   0  0  0  0  0  0  0  0  0  0  0  0
    1.5458   -1.7185   -1.2950 H   0  0  0  0  0  0  0  0  0  0  0  0
    2.8932   -2.7920   -0.0318 C   0  0  0  0  0  0  0  0  0  0  0  0
    2.5865   -3.4971    0.7440 H   0  0  0  0  0  0  0  0  0  0  0  0
    3.1687   -3.3443   -0.9311 H   0  0  0  0  0  0  0  0  0  0  0  0
    3.7585   -2.2324    0.3277 H   0  0  0  0  0  0  0  0  0  0  0  0
  5  6  2  0  0  0  0
  5  7  1  0  0  0  0
  2  3  1  0  0  0  0
  2  4  1  0  0  0  0
  2  5  1  0  0  0  0
  1  2  1  0  0  0  0
 18 19  2  0  0  0  0
 18 20  1  0  0  0  0
 16 17  1  0  0  0  0
 14 15  2  0  0  0  0
 14 16  1  0  0  0  0
 11 12  1  0  0  0  0
 11 13  1  0  0  0  0
 11 14  1  0  0  0  0
  9 10  1  0  0  0  0
  9 11  1  0  0  0  0
  9 18  1  0  0  0  0
  7  8  1  0  0  0  0
  7  9  1  0  0  0  0
 22 23  1  0  0  0  0
 22 24  1  0  0  0  0
 22 25  1  0  0  0  0
 20 21  1  0  0  0  0
 20 22  1  0  0  0  0
M  END
$$$$
default_name
  -OEChem-01062215323D

 25 24  0     1  0  0  0  0  0999 V2000
   -2.7826   -3.8464    0.7821 H   0  0  0  0  0  0  0  0  0  0  0  0
   -2.8156   -2.8034    0.4711 C   0  0  0  0  0  0  0  0  0  0  0  0
   -3.4336   -2.2354    1.1641 H   0  0  0  0  0  0  0  0  0  0  0  0
   -3.2256   -2.7344   -0.5349 H   0  0  0  0  0  0  0  0  0  0  0  0
   -1.4126   -2.2444    0.4801 C   0  0  0  0  0  0  0  0  0  0  0  0
   -0.4686   -2.9534    0.8001 O   0  0  0  0  0  0  0  0  0  0  0  0
   -1.2736   -0.9704    0.1241 N   0  0  0  0  0  0  0  0  0  0  0  0
   -2.0996   -0.4354   -0.1019 H   0  0  0  0  0  0  0  0  0  0  0  0
   -0.0016   -0.2394    0.1271 C   0  0  1  0  0  0  0  0  0  0  0  0
    0.2175    0.0783   -0.8947 H   0  0  0  0  0  0  0  0  0  0  0  0
   -0.1326    1.0108    1.0193 C   0  0  0  0  0  0  0  0  0  0  0  0
   -0.5444    0.7240    1.9877 H   0  0  0  0  0  0  0  0  0  0  0  0
    0.8531    1.4452    1.1897 H   0  0  0  0  0  0  0  0  0  0  0  0
   -1.0574    2.0765    0.4389 C   0  0  0  0  0  0  0  0  0  0  0  0
   -1.2625    2.2698   -0.7523 O   0  0  0  0  0  0  0  0  0  0  0  0
   -1.6715    2.8499    1.3535 O   0  0  0  0  0  0  0  0  0  0  0  0
   -2.2271    3.4520    0.8576 H   0  0  0  0  0  0  0  0  0  0  0  0
    1.1386   -1.1627    0.6008 C   0  0  0  0  0  0  0  0  0  0  0  0
    1.2457   -1.4390    1.7948 O   0  0  0  0  0  0  0  0  0  0  0  0
    1.9895   -1.6308   -0.3193 N   0  0  0  0  0  0  0  0  0  0  0  0
    1.8713   -1.3053   -1.2732 H   0  0  0  0  0  0  0  0  0  0  0  0
    3.1134   -2.5183   -0.0284 C   0  0  0  0  0  0  0  0  0  0  0  0
    2.7640   -3.3810    0.5430 H   0  0  0  0  0  0  0  0  0  0  0  0
    3.5693   -2.8630   -0.9574 H   0  0  0  0  0  0  0  0  0  0  0  0
    3.8595   -1.9862    0.5644 H   0  0  0  0  0  0  0  0  0  0  0  0
  5  6  2  0  0  0  0
  5  7  1  0  0  0  0
  2  3  1  0  0  0  0
  2  4  1  0  0  0  0
  2  5  1  0  0  0  0
  1  2  1  0  0  0  0
 18 19  2  0  0  0  0
 18 20  1  0  0  0  0
 16 17  1  0  0  0  0
 14 15  2  0  0  0  0
 14 16  1  0  0  0  0
 11 12  1  0  0  0  0
 11 13  1  0  0  0  0
 11 14  1  0  0  0  0
  9 10  1  0  0  0  0
  9 11  1  0  0  0  0
  9 18  1  0  0  0  0
  7  8  1  0  0  0  0
  7  9  1  0  0  0  0
 22 23  1  0  0  0  0
 22 24  1  0  0  0  0
 22 25  1  0  0  0  0
 20 21  1  0  0  0  0
 20 22  1  0  0  0  0
M  END
$$$$
default_name
  -OEChem-01062215323D

 25 24  0     1  0  0  0  0  0999 V2000
   -2.7826   -3.8464    0.7821 H   0  0  0  0  0  0  0  0  0  0  0  0
   -2.8156   -2.8034    0.4711 C   0  0  0  0  0  0  0  0  0  0  0  0
   -3.4336   -2.2354    1.1641 H   0  0  0  0  0  0  0  0  0  0  0  0
   -3.2256   -2.7344   -0.5349 H   0  0  0  0  0  0  0  0  0  0  0  0
   -1.4126   -2.2444    0.4801 C   0  0  0  0  0  0  0  0  0  0  0  0
   -0.4686   -2.9534    0.8001 O   0  0  0  0  0  0  0  0  0  0  0  0
   -1.2736   -0.9704    0.1241 N   0  0  0  0  0  0  0  0  0  0  0  0
   -2.0996   -0.4354   -0.1019 H   0  0  0  0  0  0  0  0  0  0  0  0
   -0.0016   -0.2394    0.1271 C   0  0  1  0  0  0  0  0  0  0  0  0
    0.2175    0.0783   -0.8947 H   0  0  0  0  0  0  0  0  0  0  0  0
   -0.1326    1.0108    1.0193 C   0  0  0  0  0  0  0  0  0  0  0  0
   -0.5444    0.7240    1.9877 H   0  0  0  0  0  0  0  0  0  0  0  0
    0.8531    1.4452    1.1897 H   0  0  0  0  0  0  0  0  0  0  0  0
   -1.0574    2.0765    0.4389 C   0  0  0  0  0  0  0  0  0  0  0  0
   -1.2625    2.2698   -0.7523 O   0  0  0  0  0  0  0  0  0  0  0  0
   -1.6715    2.8499    1.3535 O   0  0  0  0  0  0  0  0  0  0  0  0
   -2.2271    3.4520    0.8576 H   0  0  0  0  0  0  0  0  0  0  0  0
    1.1386   -1.1627    0.6008 C   0  0  0  0  0  0  0  0  0  0  0  0
    1.0943   -1.6621    1.7243 O   0  0  0  0  0  0  0  0  0  0  0  0
    2.1561   -1.3838   -0.2391 N   0  0  0  0  0  0  0  0  0  0  0  0
    2.1494   -0.8845   -1.1225 H   0  0  0  0  0  0  0  0  0  0  0  0
    3.3038   -2.2371    0.0613 C   0  0  0  0  0  0  0  0  0  0  0  0
    2.9573   -3.2164    0.3985 H   0  0  0  0  0  0  0  0  0  0  0  0
    3.9221   -2.3611   -0.8286 H   0  0  0  0  0  0  0  0  0  0  0  0
    3.9008   -1.7857    0.8558 H   0  0  0  0  0  0  0  0  0  0  0  0
  5  6  2  0  0  0  0
  5  7  1  0  0  0  0
  2  3  1  0  0  0  0
  2  4  1  0  0  0  0
  2  5  1  0  0  0  0
  1  2  1  0  0  0  0
 18 19  2  0  0  0  0
 18 20  1  0  0  0  0
 16 17  1  0  0  0  0
 14 15  2  0  0  0  0
 14 16  1  0  0  0  0
 11 12  1  0  0  0  0
 11 13  1  0  0  0  0
 11 14  1  0  0  0  0
  9 10  1  0  0  0  0
  9 11  1  0  0  0  0
  9 18  1  0  0  0  0
  7  8  1  0  0  0  0
  7  9  1  0  0  0  0
 22 23  1  0  0  0  0
 22 24  1  0  0  0  0
 22 25  1  0  0  0  0
 20 21  1  0  0  0  0
 20 22  1  0  0  0  0
M  END
$$$$
default_name
  -OEChem-01062215323D

 25 24  0     1  0  0  0  0  0999 V2000
   -2.7826   -3.8464    0.7821 H   0  0  0  0  0  0  0  0  0  0  0  0
   -2.8156   -2.8034    0.4711 C   0  0  0  0  0  0  0  0  0  0  0  0
   -3.4336   -2.2354    1.1641 H   0  0  0  0  0  0  0  0  0  0  0  0
   -3.2256   -2.7344   -0.5349 H   0  0  0  0  0  0  0  0  0  0  0  0
   -1.4126   -2.2444    0.4801 C   0  0  0  0  0  0  0  0  0  0  0  0
   -0.4686   -2.9534    0.8001 O   0  0  0  0  0  0  0  0  0  0  0  0
   -1.2736   -0.9704    0.1241 N   0  0  0  0  0  0  0  0  0  0  0  0
   -2.0996   -0.4354   -0.1019 H   0  0  0  0  0  0  0  0  0  0  0  0
   -0.0016   -0.2394    0.1271 C   0  0  1  0  0  0  0  0  0  0  0  0
    0.2175    0.0783   -0.8947 H   0  0  0  0  0  0  0  0  0  0  0  0
   -0.1326    1.0108    1.0193 C   0  0  0  0  0  0  0  0  0  0  0  0
   -0.5444    0.7240    1.9877 H   0  0  0  0  0  0  0  0  0  0  0  0
    0.8531    1.4452    1.1897 H   0  0  0  0  0  0  0  0  0  0  0  0
   -1.0574    2.0765    0.4389 C   0  0  0  0  0  0  0  0  0  0  0  0
   -1.2625    2.2698   -0.7523 O   0  0  0  0  0  0  0  0  0  0  0  0
   -1.6715    2.8499    1.3535 O   0  0  0  0  0  0  0  0  0  0  0  0
   -2.2271    3.4520    0.8576 H   0  0  0  0  0  0  0  0  0  0  0  0
    1.1386   -1.1627    0.6008 C   0  0  0  0  0  0  0  0  0  0  0  0
    0.9769   -1.8761    1.5899 O   0  0  0  0  0  0  0  0  0  0  0  0
    2.2850   -1.1474   -0.0885 N   0  0  0  0  0  0  0  0  0  0  0  0
    2.3612   -0.4848   -0.8534 H   0  0  0  0  0  0  0  0  0  0  0  0
    3.4515   -1.9674    0.2314 C   0  0  0  0  0  0  0  0  0  0  0  0
    3.1533   -3.0143    0.3204 H   0  0  0  0  0  0  0  0  0  0  0  0
    4.2030   -1.8730   -0.5535 H   0  0  0  0  0  0  0  0  0  0  0  0
    3.8795   -1.6445    1.1820 H   0  0  0  0  0  0  0  0  0  0  0  0
  5  6  2  0  0  0  0
  5  7  1  0  0  0  0
  2  3  1  0  0  0  0
  2  4  1  0  0  0  0
  2  5  1  0  0  0  0
  1  2  1  0  0  0  0
 18 19  2  0  0  0  0
 18 20  1  0  0  0  0
 16 17  1  0  0  0  0
 14 15  2  0  0  0  0
 14 16  1  0  0  0  0
 11 12  1  0  0  0  0
 11 13  1  0  0  0  0
 11 14  1  0  0  0  0
  9 10  1  0  0  0  0
  9 11  1  0  0  0  0
  9 18  1  0  0  0  0
  7  8  1  0  0  0  0
  7  9  1  0  0  0  0
 22 23  1  0  0  0  0
 22 24  1  0  0  0  0
 22 25  1  0  0  0  0
 20 21  1  0  0  0  0
 20 22  1  0  0  0  0
M  END
$$$$
default_name
  -OEChem-01062215323D

 25 24  0     1  0  0  0  0  0999 V2000
   -2.7826   -3.8464    0.7821 H   0  0  0  0  0  0  0  0  0  0  0  0
   -2.8156   -2.8034    0.4711 C   0  0  0  0  0  0  0  0  0  0  0  0
   -3.4336   -2.2354    1.1641 H   0  0  0  0  0  0  0  0  0  0  0  0
   -3.2256   -2.7344   -0.5349 H   0  0  0  0  0  0  0  0  0  0  0  0
   -1.4126   -2.2444    0.4801 C   0  0  0  0  0  0  0  0  0  0  0  0
   -0.4686   -2.9534    0.8001 O   0  0  0  0  0  0  0  0  0  0  0  0
   -1.2736   -0.9704    0.1241 N   0  0  0  0  0  0  0  0  0  0  0  0
   -2.0996   -0.4354   -0.1019 H   0  0  0  0  0  0  0  0  0  0  0  0
   -0.0016   -0.2394    0.1271 C   0  0  1  0  0  0  0  0  0  0  0  0
    0.2175    0.0783   -0.8947 H   0  0  0  0  0  0  0  0  0  0  0  0
   -0.1326    1.0108    1.0193 C   0  0  0  0  0  0  0  0  0  0  0  0
   -0.5444    0.7240    1.9877 H   0  0  0  0  0  0  0  0  0  0  0  0
    0.8531    1.4452    1.1897 H   0  0  0  0  0  0  0  0  0  0  0  0
   -1.0574    2.0765    0.4389 C   0  0  0  0  0  0  0  0  0  0  0  0
   -1.2625    2.2698   -0.7523 O   0  0  0  0  0  0  0  0  0  0  0  0
   -1.6715    2.8499    1.3535 O   0  0  0  0  0  0  0  0  0  0  0  0
   -2.2271    3.4520    0.8576 H   0  0  0  0  0  0  0  0  0  0  0  0
    1.1386   -1.1627    0.6008 C   0  0  0  0  0  0  0  0  0  0  0  0
    0.9012   -2.0665    1.4010 O   0  0  0  0  0  0  0  0  0  0  0  0
    2.3674   -0.9376    0.1221 N   0  0  0  0  0  0  0  0  0  0  0  0
    2.4923   -0.1333   -0.4841 H   0  0  0  0  0  0  0  0  0  0  0  0
    3.5463   -1.7278    0.4702 C   0  0  0  0  0  0  0  0  0  0  0  0
    3.3387   -2.7886    0.3141 H   0  0  0  0  0  0  0  0  0  0  0  0
    4.3929   -1.4318   -0.1507 H   0  0  0  0  0  0  0  0  0  0  0  0
    3.7972   -1.5723    1.5209 H   0  0  0  0  0  0  0  0  0  0  0  0
  5  6  2  0  0  0  0
  5  7  1  0  0  0  0
  2  3  1  0  0  0  0
  2  4  1  0  0  0  0
  2  5  1  0  0  0  0
  1  2  1  0  0  0  0
 18 19  2  0  0  0  0
 18 20  1  0  0  0  0
 16 17  1  0  0  0  0
 14 15  2  0  0  0  0
 14 16  1  0  0  0  0
 11 12  1  0  0  0  0
 11 13  1  0  0  0  0
 11 14  1  0  0  0  0
  9 10  1  0  0  0  0
  9 11  1  0  0  0  0
  9 18  1  0  0  0  0
  7  8  1  0  0  0  0
  7  9  1  0  0  0  0
 22 23  1  0  0  0  0
 22 24  1  0  0  0  0
 22 25  1  0  0  0  0
 20 21  1  0  0  0  0
 20 22  1  0  0  0  0
M  END
$$$$
default_name
  -OEChem-01062215323D

 25 24  0     1  0  0  0  0  0999 V2000
   -2.7826   -3.8464    0.7821 H   0  0  0  0  0  0  0  0  0  0  0  0
   -2.8156   -2.8034    0.4711 C   0  0  0  0  0  0  0  0  0  0  0  0
   -3.4336   -2.2354    1.1641 H   0  0  0  0  0  0  0  0  0  0  0  0
   -3.2256   -2.7344   -0.5349 H   0  0  0  0  0  0  0  0  0  0  0  0
   -1.4126   -2.2444    0.4801 C   0  0  0  0  0  0  0  0  0  0  0  0
   -0.4686   -2.9534    0.8001 O   0  0  0  0  0  0  0  0  0  0  0  0
   -1.2736   -0.9704    0.1241 N   0  0  0  0  0  0  0  0  0  0  0  0
   -2.0996   -0.4354   -0.1019 H   0  0  0  0  0  0  0  0  0  0  0  0
   -0.0016   -0.2394    0.1271 C   0  0  1  0  0  0  0  0  0  0  0  0
    0.2175    0.0783   -0.8947 H   0  0  0  0  0  0  0  0  0  0  0  0
   -0.1326    1.0108    1.0193 C   0  0  0  0  0  0  0  0  0  0  0  0
   -0.5444    0.7240    1.9877 H   0  0  0  0  0  0  0  0  0  0  0  0
    0.8531    1.4452    1.1897 H   0  0  0  0  0  0  0  0  0  0  0  0
   -1.0574    2.0765    0.4389 C   0  0  0  0  0  0  0  0  0  0  0  0
   -1.2625    2.2698   -0.7523 O   0  0  0  0  0  0  0  0  0  0  0  0
   -1.6715    2.8499    1.3535 O   0  0  0  0  0  0  0  0  0  0  0  0
   -2.2271    3.4520    0.8576 H   0  0  0  0  0  0  0  0  0  0  0  0
    1.1386   -1.1627    0.6008 C   0  0  0  0  0  0  0  0  0  0  0  0
    0.8726   -2.2202    1.1703 O   0  0  0  0  0  0  0  0  0  0  0  0
    2.3976   -0.7687    0.3785 N   0  0  0  0  0  0  0  0  0  0  0  0
    2.5337    0.1459   -0.0397 H   0  0  0  0  0  0  0  0  0  0  0  0
    3.5819   -1.5344    0.7614 C   0  0  0  0  0  0  0  0  0  0  0  0
    3.5008   -2.5546    0.3799 H   0  0  0  0  0  0  0  0  0  0  0  0
    4.4788   -1.0677    0.3522 H   0  0  0  0  0  0  0  0  0  0  0  0
    3.6595   -1.5739    1.8493 H   0  0  0  0  0  0  0  0  0  0  0  0
  5  6  2  0  0  0  0
  5  7  1  0  0  0  0
  2  3  1  0  0  0  0
  2  4  1  0  0  0  0
  2  5  1  0  0  0  0
  1  2  1  0  0  0  0
 18 19  2  0  0  0  0
 18 20  1  0  0  0  0
 16 17  1  0  0  0  0
 14 15  2  0  0  0  0
 14 16  1  0  0  0  0
 11 12  1  0  0  0  0
 11 13  1  0  0  0  0
 11 14  1  0  0  0  0
  9 10  1  0  0  0  0
  9 11  1  0  0  0  0
  9 18  1  0  0  0  0
  7  8  1  0  0  0  0
  7  9  1  0  0  0  0
 22 23  1  0  0  0  0
 22 24  1  0  0  0  0
 22 25  1  0  0  0  0
 20 21  1  0  0  0  0
 20 22  1  0  0  0  0
M  END
$$$$
default_name
  -OEChem-01062215323D

 25 24  0     1  0  0  0  0  0999 V2000
   -2.7826   -3.8464    0.7821 H   0  0  0  0  0  0  0  0  0  0  0  0
   -2.8156   -2.8034    0.4711 C   0  0  0  0  0  0  0  0  0  0  0  0
   -3.4336   -2.2354    1.1641 H   0  0  0  0  0  0  0  0  0  0  0  0
   -3.2256   -2.7344   -0.5349 H   0  0  0  0  0  0  0  0  0  0  0  0
   -1.4126   -2.2444    0.4801 C   0  0  0  0  0  0  0  0  0  0  0  0
   -0.4686   -2.9534    0.8001 O   0  0  0  0  0  0  0  0  0  0  0  0
   -1.2736   -0.9704    0.1241 N   0  0  0  0  0  0  0  0  0  0  0  0
   -2.0996   -0.4354   -0.1019 H   0  0  0  0  0  0  0  0  0  0  0  0
   -0.0016   -0.2394    0.1271 C   0  0  1  0  0  0  0  0  0  0  0  0
    0.0884    0.3028   -0.8168 H   0  0  0  0  0  0  0  0  0  0  0  0
    0.0014    0.7766    1.2864 C   0  0  0  0  0  0  0  0  0  0  0  0
   -0.2861    0.2736    2.2105 H   0  0  0  0  0  0  0  0  0  0  0  0
    1.0069    1.1766    1.4214 H   0  0  0  0  0  0  0  0  0  0  0  0
   -0.9753    1.9311    1.0841 C   0  0  0  0  0  0  0  0  0  0  0  0
   -1.3297    2.3836    0.0034 O   0  0  0  0  0  0  0  0  0  0  0  0
   -1.4553    2.4702    2.2203 O   0  0  0  0  0  0  0  0  0  0  0  0
   -2.0617    3.1596    1.9480 H   0  0  0  0  0  0  0  0  0  0  0  0
    1.1770   -1.2279    0.2305 C   0  0  0  0  0  0  0  0  0  0  0  0
    0.9572   -2.4362    0.3030 O   0  0  0  0  0  0  0  0  0  0  0  0
    2.4168   -0.7257    0.2461 N   0  0  0  0  0  0  0  0  0  0  0  0
    2.5114    0.2847    0.2468 H   0  0  0  0  0  0  0  0  0  0  0  0
    3.6327   -1.5316    0.3334 C   0  0  0  0  0  0  0  0  0  0  0  0
    3.6181   -2.3061   -0.4366 H   0  0  0  0  0  0  0  0  0  0  0  0
    4.5115   -0.9011    0.1925 H   0  0  0  0  0  0  0  0  0  0  0  0
    3.6866   -2.0129    1.3114 H   0  0  0  0  0  0  0  0  0  0  0  0
  5  6  2  0  0  0  0
  5  7  1  0  0  0  0
  2  3  1  0  0  0  0
  2  4  1  0  0  0  0
  2  5  1  0  0  0  0
  1  2  1  0  0  0  0
 18 19  2  0  0  0  0
 18 20  1  0  0  0  0
 16 17  1  0  0  0  0
 14 15  2  0  0  0  0
 14 16  1  0  0  0  0
 11 12  1  0  0  0  0
 11 13  1  0  0  0  0
 11 14  1  0  0  0  0
  9 10  1  0  0  0  0
  9 11  1  0  0  0  0
  9 18  1  0  0  0  0
  7  8  1  0  0  0  0
  7  9  1  0  0  0  0
 22 23  1  0  0  0  0
 22 24  1  0  0  0  0
 22 25  1  0  0  0  0
 20 21  1  0  0  0  0
 20 22  1  0  0  0  0
M  END
$$$$
default_name
  -OEChem-01062215323D

 25 24  0     1  0  0  0  0  0999 V2000
   -2.7826   -3.8464    0.7821 H   0  0  0  0  0  0  0  0  0  0  0  0
   -2.8156   -2.8034    0.4711 C   0  0  0  0  0  0  0  0  0  0  0  0
   -3.4336   -2.2354    1.1641 H   0  0  0  0  0  0  0  0  0  0  0  0
   -3.2256   -2.7344   -0.5349 H   0  0  0  0  0  0  0  0  0  0  0  0
   -1.4126   -2.2444    0.4801 C   0  0  0  0  0  0  0  0  0  0  0  0
   -0.4686   -2.9534    0.8001 O   0  0  0  0  0  0  0  0  0  0  0  0
   -1.2736   -0.9704    0.1241 N   0  0  0  0  0  0  0  0  0  0  0  0
   -2.0996   -0.4354   -0.1019 H   0  0  0  0  0  0  0  0  0  0  0  0
   -0.0016   -0.2394    0.1271 C   0  0  1  0  0  0  0  0  0  0  0  0
    0.0884    0.3028   -0.8168 H   0  0  0  0  0  0  0  0  0  0  0  0
    0.0014    0.7766    1.2864 C   0  0  0  0  0  0  0  0  0  0  0  0
   -0.2861    0.2736    2.2105 H   0  0  0  0  0  0  0  0  0  0  0  0
    1.0069    1.1766    1.4214 H   0  0  0  0  0  0  0  0  0  0  0  0
   -0.9753    1.9311    1.0841 C   0  0  0  0  0  0  0  0  0  0  0  0
   -1.3297    2.3836    0.0034 O   0  0  0  0  0  0  0  0  0  0  0  0
   -1.4553    2.4702    2.2203 O   0  0  0  0  0  0  0  0  0  0  0  0
   -2.0617    3.1596    1.9480 H   0  0  0  0  0  0  0  0  0  0  0  0
    1.1770   -1.2279    0.2305 C   0  0  0  0  0  0  0  0  0  0  0  0
    0.9896   -2.4266    0.0264 O   0  0  0  0  0  0  0  0  0  0  0  0
    2.3796   -0.7381    0.5521 N   0  0  0  0  0  0  0  0  0  0  0  0
    2.4383    0.2520    0.7671 H   0  0  0  0  0  0  0  0  0  0  0  0
    3.5914   -1.5444    0.6820 C   0  0  0  0  0  0  0  0  0  0  0  0
    3.7298   -2.1499   -0.2164 H   0  0  0  0  0  0  0  0  0  0  0  0
    4.4594   -0.8979    0.8171 H   0  0  0  0  0  0  0  0  0  0  0  0
    3.5003   -2.2109    1.5414 H   0  0  0  0  0  0  0  0  0  0  0  0
  5  6  2  0  0  0  0
  5  7  1  0  0  0  0
  2  3  1  0  0  0  0
  2  4  1  0  0  0  0
  2  5  1  0  0  0  0
  1  2  1  0  0  0  0
 18 19  2  0  0  0  0
 18 20  1  0  0  0  0
 16 17  1  0  0  0  0
 14 15  2  0  0  0  0
 14 16  1  0  0  0  0
 11 12  1  0  0  0  0
 11 13  1  0  0  0  0
 11 14  1  0  0  0  0
  9 10  1  0  0  0  0
  9 11  1  0  0  0  0
  9 18  1  0  0  0  0
  7  8  1  0  0  0  0
  7  9  1  0  0  0  0
 22 23  1  0  0  0  0
 22 24  1  0  0  0  0
 22 25  1  0  0  0  0
 20 21  1  0  0  0  0
 20 22  1  0  0  0  0
M  END
$$$$
default_name
  -OEChem-01062215323D

 25 24  0     1  0  0  0  0  0999 V2000
   -2.7826   -3.8464    0.7821 H   0  0  0  0  0  0  0  0  0  0  0  0
   -2.8156   -2.8034    0.4711 C   0  0  0  0  0  0  0  0  0  0  0  0
   -3.4336   -2.2354    1.1641 H   0  0  0  0  0  0  0  0  0  0  0  0
   -3.2256   -2.7344   -0.5349 H   0  0  0  0  0  0  0  0  0  0  0  0
   -1.4126   -2.2444    0.4801 C   0  0  0  0  0  0  0  0  0  0  0  0
   -0.4686   -2.9534    0.8001 O   0  0  0  0  0  0  0  0  0  0  0  0
   -1.2736   -0.9704    0.1241 N   0  0  0  0  0  0  0  0  0  0  0  0
   -2.0996   -0.4354   -0.1019 H   0  0  0  0  0  0  0  0  0  0  0  0
   -0.0016   -0.2394    0.1271 C   0  0  1  0  0  0  0  0  0  0  0  0
    0.0884    0.3028   -0.8168 H   0  0  0  0  0  0  0  0  0  0  0  0
    0.0014    0.7766    1.2864 C   0  0  0  0  0  0  0  0  0  0  0  0
   -0.2861    0.2736    2.2105 H   0  0  0  0  0  0  0  0  0  0  0  0
    1.0069    1.1766    1.4214 H   0  0  0  0  0  0  0  0  0  0  0  0
   -0.9753    1.9311    1.0841 C   0  0  0  0  0  0  0  0  0  0  0  0
   -1.3297    2.3836    0.0034 O   0  0  0  0  0  0  0  0  0  0  0  0
   -1.4553    2.4702    2.2203 O   0  0  0  0  0  0  0  0  0  0  0  0
   -2.0617    3.1596    1.9480 H   0  0  0  0  0  0  0  0  0  0  0  0
    1.1770   -1.2279    0.2305 C   0  0  0  0  0  0  0  0  0  0  0  0
    1.0665   -2.3619   -0.2335 O   0  0  0  0  0  0  0  0  0  0  0  0
    2.2931   -0.8112    0.8391 N   0  0  0  0  0  0  0  0  0  0  0  0
    2.2820    0.1161    1.2510 H   0  0  0  0  0  0  0  0  0  0  0  0
    3.4939   -1.6265    1.0094 C   0  0  0  0  0  0  0  0  0  0  0  0
    3.7984   -2.0407    0.0458 H   0  0  0  0  0  0  0  0  0  0  0  0
    4.3054   -1.0193    1.4124 H   0  0  0  0  0  0  0  0  0  0  0  0
    3.2856   -2.4510    1.6935 H   0  0  0  0  0  0  0  0  0  0  0  0
  5  6  2  0  0  0  0
  5  7  1  0  0  0  0
  2  3  1  0  0  0  0
  2  4  1  0  0  0  0
  2  5  1  0  0  0  0
  1  2  1  0  0  0  0
 18 19  2  0  0  0  0
 18 20  1  0  0  0  0
 16 17  1  0  0  0  0
 14 15  2  0  0  0  0
 14 16  1  0  0  0  0
 11 12  1  0  0  0  0
 11 13  1  0  0  0  0
 11 14  1  0  0  0  0
  9 10  1  0  0  0  0
  9 11  1  0  0  0  0
  9 18  1  0  0  0  0
  7  8  1  0  0  0  0
  7  9  1  0  0  0  0
 22 23  1  0  0  0  0
 22 24  1  0  0  0  0
 22 25  1  0  0  0  0
 20 21  1  0  0  0  0
 20 22  1  0  0  0  0
M  END
$$$$
default_name
  -OEChem-01062215323D

 25 24  0     1  0  0  0  0  0999 V2000
   -2.7826   -3.8464    0.7821 H   0  0  0  0  0  0  0  0  0  0  0  0
   -2.8156   -2.8034    0.4711 C   0  0  0  0  0  0  0  0  0  0  0  0
   -3.4336   -2.2354    1.1641 H   0  0  0  0  0  0  0  0  0  0  0  0
   -3.2256   -2.7344   -0.5349 H   0  0  0  0  0  0  0  0  0  0  0  0
   -1.4126   -2.2444    0.4801 C   0  0  0  0  0  0  0  0  0  0  0  0
   -0.4686   -2.9534    0.8001 O   0  0  0  0  0  0  0  0  0  0  0  0
   -1.2736   -0.9704    0.1241 N   0  0  0  0  0  0  0  0  0  0  0  0
   -2.0996   -0.4354   -0.1019 H   0  0  0  0  0  0  0  0  0  0  0  0
   -0.0016   -0.2394    0.1271 C   0  0  1  0  0  0  0  0  0  0  0  0
    0.0884    0.3028   -0.8168 H   0  0  0  0  0  0  0  0  0  0  0  0
    0.0014    0.7766    1.2864 C   0  0  0  0  0  0  0  0  0  0  0  0
   -0.2861    0.2736    2.2105 H   0  0  0  0  0  0  0  0  0  0  0  0
    1.0069    1.1766    1.4214 H   0  0  0  0  0  0  0  0  0  0  0  0
   -0.9753    1.9311    1.0841 C   0  0  0  0  0  0  0  0  0  0  0  0
   -1.3297    2.3836    0.0034 O   0  0  0  0  0  0  0  0  0  0  0  0
   -1.4553    2.4702    2.2203 O   0  0  0  0  0  0  0  0  0  0  0  0
   -2.0617    3.1596    1.9480 H   0  0  0  0  0  0  0  0  0  0  0  0
    1.1770   -1.2279    0.2305 C   0  0  0  0  0  0  0  0  0  0  0  0
    1.1829   -2.2468   -0.4591 O   0  0  0  0  0  0  0  0  0  0  0  0
    2.1632   -0.9402    1.0874 N   0  0  0  0  0  0  0  0  0  0  0  0
    2.0530   -0.1135    1.6657 H   0  0  0  0  0  0  0  0  0  0  0  0
    3.3468   -1.7722    1.2932 C   0  0  0  0  0  0  0  0  0  0  0  0
    3.8193   -1.9858    0.3320 H   0  0  0  0  0  0  0  0  0  0  0  0
    4.0599   -1.2570    1.9379 H   0  0  0  0  0  0  0  0  0  0  0  0
    3.0572   -2.7167    1.7572 H   0  0  0  0  0  0  0  0  0  0  0  0
  5  6  2  0  0  0  0
  5  7  1  0  0  0  0
  2  3  1  0  0  0  0
  2  4  1  0  0  0  0
  2  5  1  0  0  0  0
  1  2  1  0  0  0  0
 18 19  2  0  0  0  0
 18 20  1  0  0  0  0
 16 17  1  0  0  0  0
 14 15  2  0  0  0  0
 14 16  1  0  0  0  0
 11 12  1  0  0  0  0
 11 13  1  0  0  0  0
 11 14  1  0  0  0  0
  9 10  1  0  0  0  0
  9 11  1  0  0  0  0
  9 18  1  0  0  0  0
  7  8  1  0  0  0  0
  7  9  1  0  0  0  0
 22 23  1  0  0  0  0
 22 24  1  0  0  0  0
 22 25  1  0  0  0  0
 20 21  1  0  0  0  0
 20 22  1  0  0  0  0
M  END
$$$$
default_name
  -OEChem-01062215323D

 25 24  0     1  0  0  0  0  0999 V2000
   -2.7826   -3.8464    0.7821 H   0  0  0  0  0  0  0  0  0  0  0  0
   -2.8156   -2.8034    0.4711 C   0  0  0  0  0  0  0  0  0  0  0  0
   -3.4336   -2.2354    1.1641 H   0  0  0  0  0  0  0  0  0  0  0  0
   -3.2256   -2.7344   -0.5349 H   0  0  0  0  0  0  0  0  0  0  0  0
   -1.4126   -2.2444    0.4801 C   0  0  0  0  0  0  0  0  0  0  0  0
   -0.4686   -2.9534    0.8001 O   0  0  0  0  0  0  0  0  0  0  0  0
   -1.2736   -0.9704    0.1241 N   0  0  0  0  0  0  0  0  0  0  0  0
   -2.0996   -0.4354   -0.1019 H   0  0  0  0  0  0  0  0  0  0  0  0
   -0.0016   -0.2394    0.1271 C   0  0  1  0  0  0  0  0  0  0  0  0
    0.0884    0.3028   -0.8168 H   0  0  0  0  0  0  0  0  0  0  0  0
    0.0014    0.7766    1.2864 C   0  0  0  0  0  0  0  0  0  0  0  0
   -0.2861    0.2736    2.2105 H   0  0  0  0  0  0  0  0  0  0  0  0
    1.0069    1.1766    1.4214 H   0  0  0  0  0  0  0  0  0  0  0  0
   -0.9753    1.9311    1.0841 C   0  0  0  0  0  0  0  0  0  0  0  0
   -1.3297    2.3836    0.0034 O   0  0  0  0  0  0  0  0  0  0  0  0
   -1.4553    2.4702    2.2203 O   0  0  0  0  0  0  0  0  0  0  0  0
   -2.0617    3.1596    1.9480 H   0  0  0  0  0  0  0  0  0  0  0  0
    1.1770   -1.2279    0.2305 C   0  0  0  0  0  0  0  0  0  0  0  0
    1.3308   -2.0889   -0.6348 O   0  0  0  0  0  0  0  0  0  0  0  0
    1.9987   -1.1161    1.2802 N   0  0  0  0  0  0  0  0  0  0  0  0
    1.7670   -0.4214    1.9827 H   0  0  0  0  0  0  0  0  0  0  0  0
    3.1601   -1.9717    1.5141 C   0  0  0  0  0  0  0  0  0  0  0  0
    3.7910   -1.9891    0.6227 H   0  0  0  0  0  0  0  0  0  0  0  0
    3.7397   -1.5949    2.3577 H   0  0  0  0  0  0  0  0  0  0  0  0
    2.8306   -2.9899    1.7283 H   0  0  0  0  0  0  0  0  0  0  0  0
  5  6  2  0  0  0  0
  5  7  1  0  0  0  0
  2  3  1  0  0  0  0
  2  4  1  0  0  0  0
  2  5  1  0  0  0  0
  1  2  1  0  0  0  0
 18 19  2  0  0  0  0
 18 20  1  0  0  0  0
 16 17  1  0  0  0  0
 14 15  2  0  0  0  0
 14 16  1  0  0  0  0
 11 12  1  0  0  0  0
 11 13  1  0  0  0  0
 11 14  1  0  0  0  0
  9 10  1  0  0  0  0
  9 11  1  0  0  0  0
  9 18  1  0  0  0  0
  7  8  1  0  0  0  0
  7  9  1  0  0  0  0
 22 23  1  0  0  0  0
 22 24  1  0  0  0  0
 22 25  1  0  0  0  0
 20 21  1  0  0  0  0
 20 22  1  0  0  0  0
M  END
$$$$
default_name
  -OEChem-01062215323D

 25 24  0     1  0  0  0  0  0999 V2000
   -2.7826   -3.8464    0.7821 H   0  0  0  0  0  0  0  0  0  0  0  0
   -2.8156   -2.8034    0.4711 C   0  0  0  0  0  0  0  0  0  0  0  0
   -3.4336   -2.2354    1.1641 H   0  0  0  0  0  0  0  0  0  0  0  0
   -3.2256   -2.7344   -0.5349 H   0  0  0  0  0  0  0  0  0  0  0  0
   -1.4126   -2.2444    0.4801 C   0  0  0  0  0  0  0  0  0  0  0  0
   -0.4686   -2.9534    0.8001 O   0  0  0  0  0  0  0  0  0  0  0  0
   -1.2736   -0.9704    0.1241 N   0  0  0  0  0  0  0  0  0  0  0  0
   -2.0996   -0.4354   -0.1019 H   0  0  0  0  0  0  0  0  0  0  0  0
   -0.0016   -0.2394    0.1271 C   0  0  1  0  0  0  0  0  0  0  0  0
    0.0884    0.3028   -0.8168 H   0  0  0  0  0  0  0  0  0  0  0  0
    0.0014    0.7766    1.2864 C   0  0  0  0  0  0  0  0  0  0  0  0
   -0.2861    0.2736    2.2105 H   0  0  0  0  0  0  0  0  0  0  0  0
    1.0069    1.1766    1.4214 H   0  0  0  0  0  0  0  0  0  0  0  0
   -0.9753    1.9311    1.0841 C   0  0  0  0  0  0  0  0  0  0  0  0
   -1.3297    2.3836    0.0034 O   0  0  0  0  0  0  0  0  0  0  0  0
   -1.4553    2.4702    2.2203 O   0  0  0  0  0  0  0  0  0  0  0  0
   -2.0617    3.1596    1.9480 H   0  0  0  0  0  0  0  0  0  0  0  0
    1.1770   -1.2279    0.2305 C   0  0  0  0  0  0  0  0  0  0  0  0
    1.5000   -1.8990   -0.7487 O   0  0  0  0  0  0  0  0  0  0  0  0
    1.8109   -1.3271    1.4043 N   0  0  0  0  0  0  0  0  0  0  0  0
    1.4434   -0.7865    2.1806 H   0  0  0  0  0  0  0  0  0  0  0  0
    2.9466   -2.2113    1.6570 C   0  0  0  0  0  0  0  0  0  0  0  0
    3.7155   -2.0503    0.8983 H   0  0  0  0  0  0  0  0  0  0  0  0
    3.3667   -2.0098    2.6432 H   0  0  0  0  0  0  0  0  0  0  0  0
    2.6213   -3.2520    1.6087 H   0  0  0  0  0  0  0  0  0  0  0  0
  5  6  2  0  0  0  0
  5  7  1  0  0  0  0
  2  3  1  0  0  0  0
  2  4  1  0  0  0  0
  2  5  1  0  0  0  0
  1  2  1  0  0  0  0
 18 19  2  0  0  0  0
 18 20  1  0  0  0  0
 16 17  1  0  0  0  0
 14 15  2  0  0  0  0
 14 16  1  0  0  0  0
 11 12  1  0  0  0  0
 11 13  1  0  0  0  0
 11 14  1  0  0  0  0
  9 10  1  0  0  0  0
  9 11  1  0  0  0  0
  9 18  1  0  0  0  0
  7  8  1  0  0  0  0
  7  9  1  0  0  0  0
 22 23  1  0  0  0  0
 22 24  1  0  0  0  0
 22 25  1  0  0  0  0
 20 21  1  0  0  0  0
 20 22  1  0  0  0  0
M  END
$$$$
default_name
  -OEChem-01062215323D

 25 24  0     1  0  0  0  0  0999 V2000
   -2.7826   -3.8464    0.7821 H   0  0  0  0  0  0  0  0  0  0  0  0
   -2.8156   -2.8034    0.4711 C   0  0  0  0  0  0  0  0  0  0  0  0
   -3.4336   -2.2354    1.1641 H   0  0  0  0  0  0  0  0  0  0  0  0
   -3.2256   -2.7344   -0.5349 H   0  0  0  0  0  0  0  0  0  0  0  0
   -1.4126   -2.2444    0.4801 C   0  0  0  0  0  0  0  0  0  0  0  0
   -0.4686   -2.9534    0.8001 O   0  0  0  0  0  0  0  0  0  0  0  0
   -1.2736   -0.9704    0.1241 N   0  0  0  0  0  0  0  0  0  0  0  0
   -2.0996   -0.4354   -0.1019 H   0  0  0  0  0  0  0  0  0  0  0  0
   -0.0016   -0.2394    0.1271 C   0  0  1  0  0  0  0  0  0  0  0  0
    0.0884    0.3028   -0.8168 H   0  0  0  0  0  0  0  0  0  0  0  0
    0.0014    0.7766    1.2864 C   0  0  0  0  0  0  0  0  0  0  0  0
   -0.2861    0.2736    2.2105 H   0  0  0  0  0  0  0  0  0  0  0  0
    1.0069    1.1766    1.4214 H   0  0  0  0  0  0  0  0  0  0  0  0
   -0.9753    1.9311    1.0841 C   0  0  0  0  0  0  0  0  0  0  0  0
   -1.3297    2.3836    0.0034 O   0  0  0  0  0  0  0  0  0  0  0  0
   -1.4553    2.4702    2.2203 O   0  0  0  0  0  0  0  0  0  0  0  0
   -2.0617    3.1596    1.9480 H   0  0  0  0  0  0  0  0  0  0  0  0
    1.1770   -1.2279    0.2305 C   0  0  0  0  0  0  0  0  0  0  0  0
    1.6790   -1.6902   -0.7932 O   0  0  0  0  0  0  0  0  0  0  0  0
    1.6126   -1.5586    1.4513 N   0  0  0  0  0  0  0  0  0  0  0  0
    1.1044   -1.1839    2.2458 H   0  0  0  0  0  0  0  0  0  0  0  0
    2.7208   -2.4748    1.7122 C   0  0  0  0  0  0  0  0  0  0  0  0
    3.5979   -2.1653    1.1398 H   0  0  0  0  0  0  0  0  0  0  0  0
    2.9662   -2.4736    2.7750 H   0  0  0  0  0  0  0  0  0  0  0  0
    2.4435   -3.4852    1.4066 H   0  0  0  0  0  0  0  0  0  0  0  0
  5  6  2  0  0  0  0
  5  7  1  0  0  0  0
  2  3  1  0  0  0  0
  2  4  1  0  0  0  0
  2  5  1  0  0  0  0
  1  2  1  0  0  0  0
 18 19  2  0  0  0  0
 18 20  1  0  0  0  0
 16 17  1  0  0  0  0
 14 15  2  0  0  0  0
 14 16  1  0  0  0  0
 11 12  1  0  0  0  0
 11 13  1  0  0  0  0
 11 14  1  0  0  0  0
  9 10  1  0  0  0  0
  9 11  1  0  0  0  0
  9 18  1  0  0  0  0
  7  8  1  0  0  0  0
  7  9  1  0  0  0  0
 22 23  1  0  0  0  0
 22 24  1  0  0  0  0
 22 25  1  0  0  0  0
 20 21  1  0  0  0  0
 20 22  1  0  0  0  0
M  END
$$$$
default_name
  -OEChem-01062215323D

 25 24  0     1  0  0  0  0  0999 V2000
   -2.7826   -3.8464    0.7821 H   0  0  0  0  0  0  0  0  0  0  0  0
   -2.8156   -2.8034    0.4711 C   0  0  0  0  0  0  0  0  0  0  0  0
   -3.4336   -2.2354    1.1641 H   0  0  0  0  0  0  0  0  0  0  0  0
   -3.2256   -2.7344   -0.5349 H   0  0  0  0  0  0  0  0  0  0  0  0
   -1.4126   -2.2444    0.4801 C   0  0  0  0  0  0  0  0  0  0  0  0
   -0.4686   -2.9534    0.8001 O   0  0  0  0  0  0  0  0  0  0  0  0
   -1.2736   -0.9704    0.1241 N   0  0  0  0  0  0  0  0  0  0  0  0
   -2.0996   -0.4354   -0.1019 H   0  0  0  0  0  0  0  0  0  0  0  0
   -0.0016   -0.2394    0.1271 C   0  0  1  0  0  0  0  0  0  0  0  0
    0.0884    0.3028   -0.8168 H   0  0  0  0  0  0  0  0  0  0  0  0
    0.0014    0.7766    1.2864 C   0  0  0  0  0  0  0  0  0  0  0  0
   -0.2861    0.2736    2.2105 H   0  0  0  0  0  0  0  0  0  0  0  0
    1.0069    1.1766    1.4214 H   0  0  0  0  0  0  0  0  0  0  0  0
   -0.9753    1.9311    1.0841 C   0  0  0  0  0  0  0  0  0  0  0  0
   -1.3297    2.3836    0.0034 O   0  0  0  0  0  0  0  0  0  0  0  0
   -1.4553    2.4702    2.2203 O   0  0  0  0  0  0  0  0  0  0  0  0
   -2.0617    3.1596    1.9480 H   0  0  0  0  0  0  0  0  0  0  0  0
    1.1770   -1.2279    0.2305 C   0  0  0  0  0  0  0  0  0  0  0  0
    1.8557   -1.4765   -0.7651 O   0  0  0  0  0  0  0  0  0  0  0  0
    1.4172   -1.7951    1.4180 N   0  0  0  0  0  0  0  0  0  0  0  0
    0.7731   -1.5865    2.1739 H   0  0  0  0  0  0  0  0  0  0  0  0
    2.4981   -2.7441    1.6759 C   0  0  0  0  0  0  0  0  0  0  0  0
    3.4463   -2.3261    1.3308 H   0  0  0  0  0  0  0  0  0  0  0  0
    2.5655   -2.9547    2.7440 H   0  0  0  0  0  0  0  0  0  0  0  0
    2.3093   -3.6735    1.1358 H   0  0  0  0  0  0  0  0  0  0  0  0
  5  6  2  0  0  0  0
  5  7  1  0  0  0  0
  2  3  1  0  0  0  0
  2  4  1  0  0  0  0
  2  5  1  0  0  0  0
  1  2  1  0  0  0  0
 18 19  2  0  0  0  0
 18 20  1  0  0  0  0
 16 17  1  0  0  0  0
 14 15  2  0  0  0  0
 14 16  1  0  0  0  0
 11 12  1  0  0  0  0
 11 13  1  0  0  0  0
 11 14  1  0  0  0  0
  9 10  1  0  0  0  0
  9 11  1  0  0  0  0
  9 18  1  0  0  0  0
  7  8  1  0  0  0  0
  7  9  1  0  0  0  0
 22 23  1  0  0  0  0
 22 24  1  0  0  0  0
 22 25  1  0  0  0  0
 20 21  1  0  0  0  0
 20 22  1  0  0  0  0
M  END
$$$$
default_name
  -OEChem-01062215323D

 25 24  0     1  0  0  0  0  0999 V2000
   -2.7826   -3.8464    0.7821 H   0  0  0  0  0  0  0  0  0  0  0  0
   -2.8156   -2.8034    0.4711 C   0  0  0  0  0  0  0  0  0  0  0  0
   -3.4336   -2.2354    1.1641 H   0  0  0  0  0  0  0  0  0  0  0  0
   -3.2256   -2.7344   -0.5349 H   0  0  0  0  0  0  0  0  0  0  0  0
   -1.4126   -2.2444    0.4801 C   0  0  0  0  0  0  0  0  0  0  0  0
   -0.4686   -2.9534    0.8001 O   0  0  0  0  0  0  0  0  0  0  0  0
   -1.2736   -0.9704    0.1241 N   0  0  0  0  0  0  0  0  0  0  0  0
   -2.0996   -0.4354   -0.1019 H   0  0  0  0  0  0  0  0  0  0  0  0
   -0.0016   -0.2394    0.1271 C   0  0  1  0  0  0  0  0  0  0  0  0
    0.0884    0.3028   -0.8168 H   0  0  0  0  0  0  0  0  0  0  0  0
    0.0014    0.7766    1.2864 C   0  0  0  0  0  0  0  0  0  0  0  0
   -0.2861    0.2736    2.2105 H   0  0  0  0  0  0  0  0  0  0  0  0
    1.0069    1.1766    1.4214 H   0  0  0  0  0  0  0  0  0  0  0  0
   -0.9753    1.9311    1.0841 C   0  0  0  0  0  0  0  0  0  0  0  0
   -1.3297    2.3836    0.0034 O   0  0  0  0  0  0  0  0  0  0  0  0
   -1.4553    2.4702    2.2203 O   0  0  0  0  0  0  0  0  0  0  0  0
   -2.0617    3.1596    1.9480 H   0  0  0  0  0  0  0  0  0  0  0  0
    1.1770   -1.2279    0.2305 C   0  0  0  0  0  0  0  0  0  0  0  0
    2.0180   -1.2726   -0.6663 O   0  0  0  0  0  0  0  0  0  0  0  0
    1.2382   -2.0203    1.3066 N   0  0  0  0  0  0  0  0  0  0  0  0
    0.4719   -1.9670    1.9699 H   0  0  0  0  0  0  0  0  0  0  0  0
    2.2937   -3.0009    1.5506 C   0  0  0  0  0  0  0  0  0  0  0  0
    3.2709   -2.5219    1.4583 H   0  0  0  0  0  0  0  0  0  0  0  0
    2.1919   -3.4201    2.5524 H   0  0  0  0  0  0  0  0  0  0  0  0
    2.2279   -3.8041    0.8146 H   0  0  0  0  0  0  0  0  0  0  0  0
  5  6  2  0  0  0  0
  5  7  1  0  0  0  0
  2  3  1  0  0  0  0
  2  4  1  0  0  0  0
  2  5  1  0  0  0  0
  1  2  1  0  0  0  0
 18 19  2  0  0  0  0
 18 20  1  0  0  0  0
 16 17  1  0  0  0  0
 14 15  2  0  0  0  0
 14 16  1  0  0  0  0
 11 12  1  0  0  0  0
 11 13  1  0  0  0  0
 11 14  1  0  0  0  0
  9 10  1  0  0  0  0
  9 11  1  0  0  0  0
  9 18  1  0  0  0  0
  7  8  1  0  0  0  0
  7  9  1  0  0  0  0
 22 23  1  0  0  0  0
 22 24  1  0  0  0  0
 22 25  1  0  0  0  0
 20 21  1  0  0  0  0
 20 22  1  0  0  0  0
M  END
$$$$
default_name
  -OEChem-01062215323D

 25 24  0     1  0  0  0  0  0999 V2000
   -2.7826   -3.8464    0.7821 H   0  0  0  0  0  0  0  0  0  0  0  0
   -2.8156   -2.8034    0.4711 C   0  0  0  0  0  0  0  0  0  0  0  0
   -3.4336   -2.2354    1.1641 H   0  0  0  0  0  0  0  0  0  0  0  0
   -3.2256   -2.7344   -0.5349 H   0  0  0  0  0  0  0  0  0  0  0  0
   -1.4126   -2.2444    0.4801 C   0  0  0  0  0  0  0  0  0  0  0  0
   -0.4686   -2.9534    0.8001 O   0  0  0  0  0  0  0  0  0  0  0  0
   -1.2736   -0.9704    0.1241 N   0  0  0  0  0  0  0  0  0  0  0  0
   -2.0996   -0.4354   -0.1019 H   0  0  0  0  0  0  0  0  0  0  0  0
   -0.0016   -0.2394    0.1271 C   0  0  1  0  0  0  0  0  0  0  0  0
    0.0884    0.3028   -0.8168 H   0  0  0  0  0  0  0  0  0  0  0  0
    0.0014    0.7766    1.2864 C   0  0  0  0  0  0  0  0  0  0  0  0
   -0.2861    0.2736    2.2105 H   0  0  0  0  0  0  0  0  0  0  0  0
    1.0069    1.1766    1.4214 H   0  0  0  0  0  0  0  0  0  0  0  0
   -0.9753    1.9311    1.0841 C   0  0  0  0  0  0  0  0  0  0  0  0
   -1.3297    2.3836    0.0034 O   0  0  0  0  0  0  0  0  0  0  0  0
   -1.4553    2.4702    2.2203 O   0  0  0  0  0  0  0  0  0  0  0  0
   -2.0617    3.1596    1.9480 H   0  0  0  0  0  0  0  0  0  0  0  0
    1.1770   -1.2279    0.2305 C   0  0  0  0  0  0  0  0  0  0  0  0
    2.1549   -1.0924   -0.5036 O   0  0  0  0  0  0  0  0  0  0  0  0
    1.0876   -2.2188    1.1247 N   0  0  0  0  0  0  0  0  0  0  0  0
    0.2215   -2.2993    1.6475 H   0  0  0  0  0  0  0  0  0  0  0  0
    2.1215   -3.2278    1.3449 C   0  0  0  0  0  0  0  0  0  0  0  0
    3.0837   -2.7393    1.5136 H   0  0  0  0  0  0  0  0  0  0  0  0
    1.8710   -3.8383    2.2133 H   0  0  0  0  0  0  0  0  0  0  0  0
    2.2049   -3.8682    0.4651 H   0  0  0  0  0  0  0  0  0  0  0  0
  5  6  2  0  0  0  0
  5  7  1  0  0  0  0
  2  3  1  0  0  0  0
  2  4  1  0  0  0  0
  2  5  1  0  0  0  0
  1  2  1  0  0  0  0
 18 19  2  0  0  0  0
 18 20  1  0  0  0  0
 16 17  1  0  0  0  0
 14 15  2  0  0  0  0
 14 16  1  0  0  0  0
 11 12  1  0  0  0  0
 11 13  1  0  0  0  0
 11 14  1  0  0  0  0
  9 10  1  0  0  0  0
  9 11  1  0  0  0  0
  9 18  1  0  0  0  0
  7  8  1  0  0  0  0
  7  9  1  0  0  0  0
 22 23  1  0  0  0  0
 22 24  1  0  0  0  0
 22 25  1  0  0  0  0
 20 21  1  0  0  0  0
 20 22  1  0  0  0  0
M  END
$$$$
default_name
  -OEChem-01062215323D

 25 24  0     1  0  0  0  0  0999 V2000
   -2.7826   -3.8464    0.7821 H   0  0  0  0  0  0  0  0  0  0  0  0
   -2.8156   -2.8034    0.4711 C   0  0  0  0  0  0  0  0  0  0  0  0
   -3.4336   -2.2354    1.1641 H   0  0  0  0  0  0  0  0  0  0  0  0
   -3.2256   -2.7344   -0.5349 H   0  0  0  0  0  0  0  0  0  0  0  0
   -1.4126   -2.2444    0.4801 C   0  0  0  0  0  0  0  0  0  0  0  0
   -0.4686   -2.9534    0.8001 O   0  0  0  0  0  0  0  0  0  0  0  0
   -1.2736   -0.9704    0.1241 N   0  0  0  0  0  0  0  0  0  0  0  0
   -2.0996   -0.4354   -0.1019 H   0  0  0  0  0  0  0  0  0  0  0  0
   -0.0016   -0.2394    0.1271 C   0  0  1  0  0  0  0  0  0  0  0  0
    0.0884    0.3028   -0.8168 H   0  0  0  0  0  0  0  0  0  0  0  0
    0.0014    0.7766    1.2864 C   0  0  0  0  0  0  0  0  0  0  0  0
   -0.2861    0.2736    2.2105 H   0  0  0  0  0  0  0  0  0  0  0  0
    1.0069    1.1766    1.4214 H   0  0  0  0  0  0  0  0  0  0  0  0
   -0.9753    1.9311    1.0841 C   0  0  0  0  0  0  0  0  0  0  0  0
   -1.3297    2.3836    0.0034 O   0  0  0  0  0  0  0  0  0  0  0  0
   -1.4553    2.4702    2.2203 O   0  0  0  0  0  0  0  0  0  0  0  0
   -2.0617    3.1596    1.9480 H   0  0  0  0  0  0  0  0  0  0  0  0
    1.1770   -1.2279    0.2305 C   0  0  0  0  0  0  0  0  0  0  0  0
    2.2570   -0.9482   -0.2881 O   0  0  0  0  0  0  0  0  0  0  0  0
    0.9758   -2.3772    0.8848 N   0  0  0  0  0  0  0  0  0  0  0  0
    0.0388   -2.5609    1.2287 H   0  0  0  0  0  0  0  0  0  0  0  0
    1.9933   -3.4091    1.0727 C   0  0  0  0  0  0  0  0  0  0  0  0
    2.8975   -2.9635    1.4930 H   0  0  0  0  0  0  0  0  0  0  0  0
    1.6245   -4.1807    1.7497 H   0  0  0  0  0  0  0  0  0  0  0  0
    2.2417   -3.8613    0.1109 H   0  0  0  0  0  0  0  0  0  0  0  0
  5  6  2  0  0  0  0
  5  7  1  0  0  0  0
  2  3  1  0  0  0  0
  2  4  1  0  0  0  0
  2  5  1  0  0  0  0
  1  2  1  0  0  0  0
 18 19  2  0  0  0  0
 18 20  1  0  0  0  0
 16 17  1  0  0  0  0
 14 15  2  0  0  0  0
 14 16  1  0  0  0  0
 11 12  1  0  0  0  0
 11 13  1  0  0  0  0
 11 14  1  0  0  0  0
  9 10  1  0  0  0  0
  9 11  1  0  0  0  0
  9 18  1  0  0  0  0
  7  8  1  0  0  0  0
  7  9  1  0  0  0  0
 22 23  1  0  0  0  0
 22 24  1  0  0  0  0
 22 25  1  0  0  0  0
 20 21  1  0  0  0  0
 20 22  1  0  0  0  0
M  END
$$$$
default_name
  -OEChem-01062215323D

 25 24  0     1  0  0  0  0  0999 V2000
   -2.7826   -3.8464    0.7821 H   0  0  0  0  0  0  0  0  0  0  0  0
   -2.8156   -2.8034    0.4711 C   0  0  0  0  0  0  0  0  0  0  0  0
   -3.4336   -2.2354    1.1641 H   0  0  0  0  0  0  0  0  0  0  0  0
   -3.2256   -2.7344   -0.5349 H   0  0  0  0  0  0  0  0  0  0  0  0
   -1.4126   -2.2444    0.4801 C   0  0  0  0  0  0  0  0  0  0  0  0
   -0.4686   -2.9534    0.8001 O   0  0  0  0  0  0  0  0  0  0  0  0
   -1.2736   -0.9704    0.1241 N   0  0  0  0  0  0  0  0  0  0  0  0
   -2.0996   -0.4354   -0.1019 H   0  0  0  0  0  0  0  0  0  0  0  0
   -0.0016   -0.2394    0.1271 C   0  0  1  0  0  0  0  0  0  0  0  0
    0.0884    0.3028   -0.8168 H   0  0  0  0  0  0  0  0  0  0  0  0
    0.0014    0.7766    1.2864 C   0  0  0  0  0  0  0  0  0  0  0  0
   -0.2861    0.2736    2.2105 H   0  0  0  0  0  0  0  0  0  0  0  0
    1.0069    1.1766    1.4214 H   0  0  0  0  0  0  0  0  0  0  0  0
   -0.9753    1.9311    1.0841 C   0  0  0  0  0  0  0  0  0  0  0  0
   -1.3297    2.3836    0.0034 O   0  0  0  0  0  0  0  0  0  0  0  0
   -1.4553    2.4702    2.2203 O   0  0  0  0  0  0  0  0  0  0  0  0
   -2.0617    3.1596    1.9480 H   0  0  0  0  0  0  0  0  0  0  0  0
    1.1770   -1.2279    0.2305 C   0  0  0  0  0  0  0  0  0  0  0  0
    2.3173   -0.8497   -0.0345 O   0  0  0  0  0  0  0  0  0  0  0  0
    0.9103   -2.4847    0.6031 N   0  0  0  0  0  0  0  0  0  0  0  0
   -0.0636   -2.7339    0.7422 H   0  0  0  0  0  0  0  0  0  0  0  0
    1.9177   -3.5327    0.7526 C   0  0  0  0  0  0  0  0  0  0  0  0
    2.7250   -3.1792    1.3978 H   0  0  0  0  0  0  0  0  0  0  0  0
    1.4693   -4.4240    1.1933 H   0  0  0  0  0  0  0  0  0  0  0  0
    2.3360   -3.7839   -0.2237 H   0  0  0  0  0  0  0  0  0  0  0  0
  5  6  2  0  0  0  0
  5  7  1  0  0  0  0
  2  3  1  0  0  0  0
  2  4  1  0  0  0  0
  2  5  1  0  0  0  0
  1  2  1  0  0  0  0
 18 19  2  0  0  0  0
 18 20  1  0  0  0  0
 16 17  1  0  0  0  0
 14 15  2  0  0  0  0
 14 16  1  0  0  0  0
 11 12  1  0  0  0  0
 11 13  1  0  0  0  0
 11 14  1  0  0  0  0
  9 10  1  0  0  0  0
  9 11  1  0  0  0  0
  9 18  1  0  0  0  0
  7  8  1  0  0  0  0
  7  9  1  0  0  0  0
 22 23  1  0  0  0  0
 22 24  1  0  0  0  0
 22 25  1  0  0  0  0
 20 21  1  0  0  0  0
 20 22  1  0  0  0  0
M  END
$$$$
default_name
  -OEChem-01062215323D

 25 24  0     1  0  0  0  0  0999 V2000
   -2.7826   -3.8464    0.7821 H   0  0  0  0  0  0  0  0  0  0  0  0
   -2.8156   -2.8034    0.4711 C   0  0  0  0  0  0  0  0  0  0  0  0
   -3.4336   -2.2354    1.1641 H   0  0  0  0  0  0  0  0  0  0  0  0
   -3.2256   -2.7344   -0.5349 H   0  0  0  0  0  0  0  0  0  0  0  0
   -1.4126   -2.2444    0.4801 C   0  0  0  0  0  0  0  0  0  0  0  0
   -0.4686   -2.9534    0.8001 O   0  0  0  0  0  0  0  0  0  0  0  0
   -1.2736   -0.9704    0.1241 N   0  0  0  0  0  0  0  0  0  0  0  0
   -2.0996   -0.4354   -0.1019 H   0  0  0  0  0  0  0  0  0  0  0  0
   -0.0016   -0.2394    0.1271 C   0  0  1  0  0  0  0  0  0  0  0  0
    0.0884    0.3028   -0.8168 H   0  0  0  0  0  0  0  0  0  0  0  0
    0.0014    0.7766    1.2864 C   0  0  0  0  0  0  0  0  0  0  0  0
   -0.2861    0.2736    2.2105 H   0  0  0  0  0  0  0  0  0  0  0  0
    1.0069    1.1766    1.4214 H   0  0  0  0  0  0  0  0  0  0  0  0
   -0.9753    1.9311    1.0841 C   0  0  0  0  0  0  0  0  0  0  0  0
   -1.3297    2.3836    0.0034 O   0  0  0  0  0  0  0  0  0  0  0  0
   -1.4553    2.4702    2.2203 O   0  0  0  0  0  0  0  0  0  0  0  0
   -2.0617    3.1596    1.9480 H   0  0  0  0  0  0  0  0  0  0  0  0
    1.1770   -1.2279    0.2305 C   0  0  0  0  0  0  0  0  0  0  0  0
    2.3318   -0.8037    0.2400 O   0  0  0  0  0  0  0  0  0  0  0  0
    0.8957   -2.5340    0.2989 N   0  0  0  0  0  0  0  0  0  0  0  0
   -0.0787   -2.8065    0.2211 H   0  0  0  0  0  0  0  0  0  0  0  0
    1.9000   -3.5901    0.4064 C   0  0  0  0  0  0  0  0  0  0  0  0
    2.5779   -3.3717    1.2345 H   0  0  0  0  0  0  0  0  0  0  0  0
    1.4159   -4.5516    0.5819 H   0  0  0  0  0  0  0  0  0  0  0  0
    2.4812   -3.6413   -0.5159 H   0  0  0  0  0  0  0  0  0  0  0  0
  5  6  2  0  0  0  0
  5  7  1  0  0  0  0
  2  3  1  0  0  0  0
  2  4  1  0  0  0  0
  2  5  1  0  0  0  0
  1  2  1  0  0  0  0
 18 19  2  0  0  0  0
 18 20  1  0  0  0  0
 16 17  1  0  0  0  0
 14 15  2  0  0  0  0
 14 16  1  0  0  0  0
 11 12  1  0  0  0  0
 11 13  1  0  0  0  0
 11 14  1  0  0  0  0
  9 10  1  0  0  0  0
  9 11  1  0  0  0  0
  9 18  1  0  0  0  0
  7  8  1  0  0  0  0
  7  9  1  0  0  0  0
 22 23  1  0  0  0  0
 22 24  1  0  0  0  0
 22 25  1  0  0  0  0
 20 21  1  0  0  0  0
 20 22  1  0  0  0  0
M  END
$$$$
default_name
  -OEChem-01062215323D

 25 24  0     1  0  0  0  0  0999 V2000
   -2.7826   -3.8464    0.7821 H   0  0  0  0  0  0  0  0  0  0  0  0
   -2.8156   -2.8034    0.4711 C   0  0  0  0  0  0  0  0  0  0  0  0
   -3.4336   -2.2354    1.1641 H   0  0  0  0  0  0  0  0  0  0  0  0
   -3.2256   -2.7344   -0.5349 H   0  0  0  0  0  0  0  0  0  0  0  0
   -1.4126   -2.2444    0.4801 C   0  0  0  0  0  0  0  0  0  0  0  0
   -0.4686   -2.9534    0.8001 O   0  0  0  0  0  0  0  0  0  0  0  0
   -1.2736   -0.9704    0.1241 N   0  0  0  0  0  0  0  0  0  0  0  0
   -2.0996   -0.4354   -0.1019 H   0  0  0  0  0  0  0  0  0  0  0  0
   -0.0016   -0.2394    0.1271 C   0  0  1  0  0  0  0  0  0  0  0  0
    0.0884    0.3028   -0.8168 H   0  0  0  0  0  0  0  0  0  0  0  0
    0.0014    0.7766    1.2864 C   0  0  0  0  0  0  0  0  0  0  0  0
   -0.2861    0.2736    2.2105 H   0  0  0  0  0  0  0  0  0  0  0  0
    1.0069    1.1766    1.4214 H   0  0  0  0  0  0  0  0  0  0  0  0
   -0.9753    1.9311    1.0841 C   0  0  0  0  0  0  0  0  0  0  0  0
   -1.3297    2.3836    0.0034 O   0  0  0  0  0  0  0  0  0  0  0  0
   -1.4553    2.4702    2.2203 O   0  0  0  0  0  0  0  0  0  0  0  0
   -2.0617    3.1596    1.9480 H   0  0  0  0  0  0  0  0  0  0  0  0
    1.1770   -1.2279    0.2305 C   0  0  0  0  0  0  0  0  0  0  0  0
    2.2994   -0.8134    0.5166 O   0  0  0  0  0  0  0  0  0  0  0  0
    0.9330   -2.5216   -0.0071 N   0  0  0  0  0  0  0  0  0  0  0  0
   -0.0056   -2.7738   -0.2992 H   0  0  0  0  0  0  0  0  0  0  0  0
    1.9413   -3.5773    0.0578 C   0  0  0  0  0  0  0  0  0  0  0  0
    2.4662   -3.5279    1.0143 H   0  0  0  0  0  0  0  0  0  0  0  0
    1.4680   -4.5548   -0.0427 H   0  0  0  0  0  0  0  0  0  0  0  0
    2.6675   -3.4432   -0.7459 H   0  0  0  0  0  0  0  0  0  0  0  0
  5  6  2  0  0  0  0
  5  7  1  0  0  0  0
  2  3  1  0  0  0  0
  2  4  1  0  0  0  0
  2  5  1  0  0  0  0
  1  2  1  0  0  0  0
 18 19  2  0  0  0  0
 18 20  1  0  0  0  0
 16 17  1  0  0  0  0
 14 15  2  0  0  0  0
 14 16  1  0  0  0  0
 11 12  1  0  0  0  0
 11 13  1  0  0  0  0
 11 14  1  0  0  0  0
  9 10  1  0  0  0  0
  9 11  1  0  0  0  0
  9 18  1  0  0  0  0
  7  8  1  0  0  0  0
  7  9  1  0  0  0  0
 22 23  1  0  0  0  0
 22 24  1  0  0  0  0
 22 25  1  0  0  0  0
 20 21  1  0  0  0  0
 20 22  1  0  0  0  0
M  END
$$$$
default_name
  -OEChem-01062215323D

 25 24  0     1  0  0  0  0  0999 V2000
   -2.7826   -3.8464    0.7821 H   0  0  0  0  0  0  0  0  0  0  0  0
   -2.8156   -2.8034    0.4711 C   0  0  0  0  0  0  0  0  0  0  0  0
   -3.4336   -2.2354    1.1641 H   0  0  0  0  0  0  0  0  0  0  0  0
   -3.2256   -2.7344   -0.5349 H   0  0  0  0  0  0  0  0  0  0  0  0
   -1.4126   -2.2444    0.4801 C   0  0  0  0  0  0  0  0  0  0  0  0
   -0.4686   -2.9534    0.8001 O   0  0  0  0  0  0  0  0  0  0  0  0
   -1.2736   -0.9704    0.1241 N   0  0  0  0  0  0  0  0  0  0  0  0
   -2.0996   -0.4354   -0.1019 H   0  0  0  0  0  0  0  0  0  0  0  0
   -0.0016   -0.2394    0.1271 C   0  0  1  0  0  0  0  0  0  0  0  0
    0.0884    0.3028   -0.8168 H   0  0  0  0  0  0  0  0  0  0  0  0
    0.0014    0.7766    1.2864 C   0  0  0  0  0  0  0  0  0  0  0  0
   -0.2861    0.2736    2.2105 H   0  0  0  0  0  0  0  0  0  0  0  0
    1.0069    1.1766    1.4214 H   0  0  0  0  0  0  0  0  0  0  0  0
   -0.9753    1.9311    1.0841 C   0  0  0  0  0  0  0  0  0  0  0  0
   -1.3297    2.3836    0.0034 O   0  0  0  0  0  0  0  0  0  0  0  0
   -1.4553    2.4702    2.2203 O   0  0  0  0  0  0  0  0  0  0  0  0
   -2.0617    3.1596    1.9480 H   0  0  0  0  0  0  0  0  0  0  0  0
    1.1770   -1.2279    0.2305 C   0  0  0  0  0  0  0  0  0  0  0  0
    2.2224   -0.8780    0.7765 O   0  0  0  0  0  0  0  0  0  0  0  0
    1.0195   -2.4484   -0.2940 N   0  0  0  0  0  0  0  0  0  0  0  0
    0.1507   -2.6379   -0.7832 H   0  0  0  0  0  0  0  0  0  0  0  0
    2.0389   -3.4952   -0.2696 C   0  0  0  0  0  0  0  0  0  0  0  0
    2.3976   -3.6371    0.7522 H   0  0  0  0  0  0  0  0  0  0  0  0
    1.6220   -4.4334   -0.6380 H   0  0  0  0  0  0  0  0  0  0  0  0
    2.8821   -3.2032   -0.8980 H   0  0  0  0  0  0  0  0  0  0  0  0
  5  6  2  0  0  0  0
  5  7  1  0  0  0  0
  2  3  1  0  0  0  0
  2  4  1  0  0  0  0
  2  5  1  0  0  0  0
  1  2  1  0  0  0  0
 18 19  2  0  0  0  0
 18 20  1  0  0  0  0
 16 17  1  0  0  0  0
 14 15  2  0  0  0  0
 14 16  1  0  0  0  0
 11 12  1  0  0  0  0
 11 13  1  0  0  0  0
 11 14  1  0  0  0  0
  9 10  1  0  0  0  0
  9 11  1  0  0  0  0
  9 18  1  0  0  0  0
  7  8  1  0  0  0  0
  7  9  1  0  0  0  0
 22 23  1  0  0  0  0
 22 24  1  0  0  0  0
 22 25  1  0  0  0  0
 20 21  1  0  0  0  0
 20 22  1  0  0  0  0
M  END
$$$$
default_name
  -OEChem-01062215323D

 25 24  0     1  0  0  0  0  0999 V2000
   -2.7826   -3.8464    0.7821 H   0  0  0  0  0  0  0  0  0  0  0  0
   -2.8156   -2.8034    0.4711 C   0  0  0  0  0  0  0  0  0  0  0  0
   -3.4336   -2.2354    1.1641 H   0  0  0  0  0  0  0  0  0  0  0  0
   -3.2256   -2.7344   -0.5349 H   0  0  0  0  0  0  0  0  0  0  0  0
   -1.4126   -2.2444    0.4801 C   0  0  0  0  0  0  0  0  0  0  0  0
   -0.4686   -2.9534    0.8001 O   0  0  0  0  0  0  0  0  0  0  0  0
   -1.2736   -0.9704    0.1241 N   0  0  0  0  0  0  0  0  0  0  0  0
   -2.0996   -0.4354   -0.1019 H   0  0  0  0  0  0  0  0  0  0  0  0
   -0.0016   -0.2394    0.1271 C   0  0  1  0  0  0  0  0  0  0  0  0
    0.0884    0.3028   -0.8168 H   0  0  0  0  0  0  0  0  0  0  0  0
    0.0014    0.7766    1.2864 C   0  0  0  0  0  0  0  0  0  0  0  0
   -0.2861    0.2736    2.2105 H   0  0  0  0  0  0  0  0  0  0  0  0
    1.0069    1.1766    1.4214 H   0  0  0  0  0  0  0  0  0  0  0  0
   -0.9753    1.9311    1.0841 C   0  0  0  0  0  0  0  0  0  0  0  0
   -1.3297    2.3836    0.0034 O   0  0  0  0  0  0  0  0  0  0  0  0
   -1.4553    2.4702    2.2203 O   0  0  0  0  0  0  0  0  0  0  0  0
   -2.0617    3.1596    1.9480 H   0  0  0  0  0  0  0  0  0  0  0  0
    1.1770   -1.2279    0.2305 C   0  0  0  0  0  0  0  0  0  0  0  0
    2.1061   -0.9932    1.0020 O   0  0  0  0  0  0  0  0  0  0  0  0
    1.1494   -2.3195   -0.5424 N   0  0  0  0  0  0  0  0  0  0  0  0
    0.3797   -2.4082   -1.1978 H   0  0  0  0  0  0  0  0  0  0  0  0
    2.1860   -3.3494   -0.5534 C   0  0  0  0  0  0  0  0  0  0  0  0
    2.3767   -3.6920    0.4660 H   0  0  0  0  0  0  0  0  0  0  0  0
    1.8675   -4.1956   -1.1635 H   0  0  0  0  0  0  0  0  0  0  0  0
    3.1105   -2.9375   -0.9617 H   0  0  0  0  0  0  0  0  0  0  0  0
  5  6  2  0  0  0  0
  5  7  1  0  0  0  0
  2  3  1  0  0  0  0
  2  4  1  0  0  0  0
  2  5  1  0  0  0  0
  1  2  1  0  0  0  0
 18 19  2  0  0  0  0
 18 20  1  0  0  0  0
 16 17  1  0  0  0  0
 14 15  2  0  0  0  0
 14 16  1  0  0  0  0
 11 12  1  0  0  0  0
 11 13  1  0  0  0  0
 11 14  1  0  0  0  0
  9 10  1  0  0  0  0
  9 11  1  0  0  0  0
  9 18  1  0  0  0  0
  7  8  1  0  0  0  0
  7  9  1  0  0  0  0
 22 23  1  0  0  0  0
 22 24  1  0  0  0  0
 22 25  1  0  0  0  0
 20 21  1  0  0  0  0
 20 22  1  0  0  0  0
M  END
$$$$
default_name
  -OEChem-01062215323D

 25 24  0     1  0  0  0  0  0999 V2000
   -2.7826   -3.8464    0.7821 H   0  0  0  0  0  0  0  0  0  0  0  0
   -2.8156   -2.8034    0.4711 C   0  0  0  0  0  0  0  0  0  0  0  0
   -3.4336   -2.2354    1.1641 H   0  0  0  0  0  0  0  0  0  0  0  0
   -3.2256   -2.7344   -0.5349 H   0  0  0  0  0  0  0  0  0  0  0  0
   -1.4126   -2.2444    0.4801 C   0  0  0  0  0  0  0  0  0  0  0  0
   -0.4686   -2.9534    0.8001 O   0  0  0  0  0  0  0  0  0  0  0  0
   -1.2736   -0.9704    0.1241 N   0  0  0  0  0  0  0  0  0  0  0  0
   -2.0996   -0.4354   -0.1019 H   0  0  0  0  0  0  0  0  0  0  0  0
   -0.0016   -0.2394    0.1271 C   0  0  1  0  0  0  0  0  0  0  0  0
    0.0884    0.3028   -0.8168 H   0  0  0  0  0  0  0  0  0  0  0  0
    0.0014    0.7766    1.2864 C   0  0  0  0  0  0  0  0  0  0  0  0
   -0.2861    0.2736    2.2105 H   0  0  0  0  0  0  0  0  0  0  0  0
    1.0069    1.1766    1.4214 H   0  0  0  0  0  0  0  0  0  0  0  0
   -0.9753    1.9311    1.0841 C   0  0  0  0  0  0  0  0  0  0  0  0
   -1.3297    2.3836    0.0034 O   0  0  0  0  0  0  0  0  0  0  0  0
   -1.4553    2.4702    2.2203 O   0  0  0  0  0  0  0  0  0  0  0  0
   -2.0617    3.1596    1.9480 H   0  0  0  0  0  0  0  0  0  0  0  0
    1.1770   -1.2279    0.2305 C   0  0  0  0  0  0  0  0  0  0  0  0
    1.9582   -1.1511    1.1777 O   0  0  0  0  0  0  0  0  0  0  0  0
    1.3138   -2.1436   -0.7352 N   0  0  0  0  0  0  0  0  0  0  0  0
    0.6657   -2.1004   -1.5149 H   0  0  0  0  0  0  0  0  0  0  0  0
    2.3727   -3.1500   -0.7743 C   0  0  0  0  0  0  0  0  0  0  0  0
    2.4049   -3.6887    0.1752 H   0  0  0  0  0  0  0  0  0  0  0  0
    2.1877   -3.8578   -1.5833 H   0  0  0  0  0  0  0  0  0  0  0  0
    3.3371   -2.6643   -0.9328 H   0  0  0  0  0  0  0  0  0  0  0  0
  5  6  2  0  0  0  0
  5  7  1  0  0  0  0
  2  3  1  0  0  0  0
  2  4  1  0  0  0  0
  2  5  1  0  0  0  0
  1  2  1  0  0  0  0
 18 19  2  0  0  0  0
 18 20  1  0  0  0  0
 16 17  1  0  0  0  0
 14 15  2  0  0  0  0
 14 16  1  0  0  0  0
 11 12  1  0  0  0  0
 11 13  1  0  0  0  0
 11 14  1  0  0  0  0
  9 10  1  0  0  0  0
  9 11  1  0  0  0  0
  9 18  1  0  0  0  0
  7  8  1  0  0  0  0
  7  9  1  0  0  0  0
 22 23  1  0  0  0  0
 22 24  1  0  0  0  0
 22 25  1  0  0  0  0
 20 21  1  0  0  0  0
 20 22  1  0  0  0  0
M  END
$$$$
default_name
  -OEChem-01062215323D

 25 24  0     1  0  0  0  0  0999 V2000
   -2.7826   -3.8464    0.7821 H   0  0  0  0  0  0  0  0  0  0  0  0
   -2.8156   -2.8034    0.4711 C   0  0  0  0  0  0  0  0  0  0  0  0
   -3.4336   -2.2354    1.1641 H   0  0  0  0  0  0  0  0  0  0  0  0
   -3.2256   -2.7344   -0.5349 H   0  0  0  0  0  0  0  0  0  0  0  0
   -1.4126   -2.2444    0.4801 C   0  0  0  0  0  0  0  0  0  0  0  0
   -0.4686   -2.9534    0.8001 O   0  0  0  0  0  0  0  0  0  0  0  0
   -1.2736   -0.9704    0.1241 N   0  0  0  0  0  0  0  0  0  0  0  0
   -2.0996   -0.4354   -0.1019 H   0  0  0  0  0  0  0  0  0  0  0  0
   -0.0016   -0.2394    0.1271 C   0  0  1  0  0  0  0  0  0  0  0  0
    0.0884    0.3028   -0.8168 H   0  0  0  0  0  0  0  0  0  0  0  0
    0.0014    0.7766    1.2864 C   0  0  0  0  0  0  0  0  0  0  0  0
   -0.2861    0.2736    2.2105 H   0  0  0  0  0  0  0  0  0  0  0  0
    1.0069    1.1766    1.4214 H   0  0  0  0  0  0  0  0  0  0  0  0
   -0.9753    1.9311    1.0841 C   0  0  0  0  0  0  0  0  0  0  0  0
   -1.3297    2.3836    0.0034 O   0  0  0  0  0  0  0  0  0  0  0  0
   -1.4553    2.4702    2.2203 O   0  0  0  0  0  0  0  0  0  0  0  0
   -2.0617    3.1596    1.9480 H   0  0  0  0  0  0  0  0  0  0  0  0
    1.1770   -1.2279    0.2305 C   0  0  0  0  0  0  0  0  0  0  0  0
    1.7890   -1.3409    1.2917 O   0  0  0  0  0  0  0  0  0  0  0  0
    1.5016   -1.9326   -0.8593 N   0  0  0  0  0  0  0  0  0  0  0  0
    0.9892   -1.7353   -1.7128 H   0  0  0  0  0  0  0  0  0  0  0  0
    2.5862   -2.9103   -0.9172 C   0  0  0  0  0  0  0  0  0  0  0  0
    2.4804   -3.6275   -0.1003 H   0  0  0  0  0  0  0  0  0  0  0  0
    2.5608   -3.4428   -1.8688 H   0  0  0  0  0  0  0  0  0  0  0  0
    3.5465   -2.4022   -0.8132 H   0  0  0  0  0  0  0  0  0  0  0  0
  5  6  2  0  0  0  0
  5  7  1  0  0  0  0
  2  3  1  0  0  0  0
  2  4  1  0  0  0  0
  2  5  1  0  0  0  0
  1  2  1  0  0  0  0
 18 19  2  0  0  0  0
 18 20  1  0  0  0  0
 16 17  1  0  0  0  0
 14 15  2  0  0  0  0
 14 16  1  0  0  0  0
 11 12  1  0  0  0  0
 11 13  1  0  0  0  0
 11 14  1  0  0  0  0
  9 10  1  0  0  0  0
  9 11  1  0  0  0  0
  9 18  1  0  0  0  0
  7  8  1  0  0  0  0
  7  9  1  0  0  0  0
 22 23  1  0  0  0  0
 22 24  1  0  0  0  0
 22 25  1  0  0  0  0
 20 21  1  0  0  0  0
 20 22  1  0  0  0  0
M  END
$$$$
default_name
  -OEChem-01062215323D

 25 24  0     1  0  0  0  0  0999 V2000
   -2.7826   -3.8464    0.7821 H   0  0  0  0  0  0  0  0  0  0  0  0
   -2.8156   -2.8034    0.4711 C   0  0  0  0  0  0  0  0  0  0  0  0
   -3.4336   -2.2354    1.1641 H   0  0  0  0  0  0  0  0  0  0  0  0
   -3.2256   -2.7344   -0.5349 H   0  0  0  0  0  0  0  0  0  0  0  0
   -1.4126   -2.2444    0.4801 C   0  0  0  0  0  0  0  0  0  0  0  0
   -0.4686   -2.9534    0.8001 O   0  0  0  0  0  0  0  0  0  0  0  0
   -1.2736   -0.9704    0.1241 N   0  0  0  0  0  0  0  0  0  0  0  0
   -2.0996   -0.4354   -0.1019 H   0  0  0  0  0  0  0  0  0  0  0  0
   -0.0016   -0.2394    0.1271 C   0  0  1  0  0  0  0  0  0  0  0  0
    0.0884    0.3028   -0.8168 H   0  0  0  0  0  0  0  0  0  0  0  0
    0.0014    0.7766    1.2864 C   0  0  0  0  0  0  0  0  0  0  0  0
   -0.2861    0.2736    2.2105 H   0  0  0  0  0  0  0  0  0  0  0  0
    1.0069    1.1766    1.4214 H   0  0  0  0  0  0  0  0  0  0  0  0
   -0.9753    1.9311    1.0841 C   0  0  0  0  0  0  0  0  0  0  0  0
   -1.3297    2.3836    0.0034 O   0  0  0  0  0  0  0  0  0  0  0  0
   -1.4553    2.4702    2.2203 O   0  0  0  0  0  0  0  0  0  0  0  0
   -2.0617    3.1596    1.9480 H   0  0  0  0  0  0  0  0  0  0  0  0
    1.1770   -1.2279    0.2305 C   0  0  0  0  0  0  0  0  0  0  0  0
    1.6100   -1.5498    1.3361 O   0  0  0  0  0  0  0  0  0  0  0  0
    1.7000   -1.7010   -0.9063 N   0  0  0  0  0  0  0  0  0  0  0  0
    1.3282   -1.3379   -1.7780 H   0  0  0  0  0  0  0  0  0  0  0  0
    2.8120   -2.6469   -0.9724 C   0  0  0  0  0  0  0  0  0  0  0  0
    2.5980   -3.5126   -0.3418 H   0  0  0  0  0  0  0  0  0  0  0  0
    2.9613   -2.9790   -2.0005 H   0  0  0  0  0  0  0  0  0  0  0  0
    3.7243   -2.1690   -0.6111 H   0  0  0  0  0  0  0  0  0  0  0  0
  5  6  2  0  0  0  0
  5  7  1  0  0  0  0
  2  3  1  0  0  0  0
  2  4  1  0  0  0  0
  2  5  1  0  0  0  0
  1  2  1  0  0  0  0
 18 19  2  0  0  0  0
 18 20  1  0  0  0  0
 16 17  1  0  0  0  0
 14 15  2  0  0  0  0
 14 16  1  0  0  0  0
 11 12  1  0  0  0  0
 11 13  1  0  0  0  0
 11 14  1  0  0  0  0
  9 10  1  0  0  0  0
  9 11  1  0  0  0  0
  9 18  1  0  0  0  0
  7  8  1  0  0  0  0
  7  9  1  0  0  0  0
 22 23  1  0  0  0  0
 22 24  1  0  0  0  0
 22 25  1  0  0  0  0
 20 21  1  0  0  0  0
 20 22  1  0  0  0  0
M  END
$$$$
default_name
  -OEChem-01062215323D

 25 24  0     1  0  0  0  0  0999 V2000
   -2.7826   -3.8464    0.7821 H   0  0  0  0  0  0  0  0  0  0  0  0
   -2.8156   -2.8034    0.4711 C   0  0  0  0  0  0  0  0  0  0  0  0
   -3.4336   -2.2354    1.1641 H   0  0  0  0  0  0  0  0  0  0  0  0
   -3.2256   -2.7344   -0.5349 H   0  0  0  0  0  0  0  0  0  0  0  0
   -1.4126   -2.2444    0.4801 C   0  0  0  0  0  0  0  0  0  0  0  0
   -0.4686   -2.9534    0.8001 O   0  0  0  0  0  0  0  0  0  0  0  0
   -1.2736   -0.9704    0.1241 N   0  0  0  0  0  0  0  0  0  0  0  0
   -2.0996   -0.4354   -0.1019 H   0  0  0  0  0  0  0  0  0  0  0  0
   -0.0016   -0.2394    0.1271 C   0  0  1  0  0  0  0  0  0  0  0  0
    0.0884    0.3028   -0.8168 H   0  0  0  0  0  0  0  0  0  0  0  0
    0.0014    0.7766    1.2864 C   0  0  0  0  0  0  0  0  0  0  0  0
   -0.2861    0.2736    2.2105 H   0  0  0  0  0  0  0  0  0  0  0  0
    1.0069    1.1766    1.4214 H   0  0  0  0  0  0  0  0  0  0  0  0
   -0.9753    1.9311    1.0841 C   0  0  0  0  0  0  0  0  0  0  0  0
   -1.3297    2.3836    0.0034 O   0  0  0  0  0  0  0  0  0  0  0  0
   -1.4553    2.4702    2.2203 O   0  0  0  0  0  0  0  0  0  0  0  0
   -2.0617    3.1596    1.9480 H   0  0  0  0  0  0  0  0  0  0  0  0
    1.1770   -1.2279    0.2305 C   0  0  0  0  0  0  0  0  0  0  0  0
    1.4333   -1.7634    1.3080 O   0  0  0  0  0  0  0  0  0  0  0  0
    1.8953   -1.4646   -0.8730 N   0  0  0  0  0  0  0  0  0  0  0  0
    1.6596   -0.9353   -1.7061 H   0  0  0  0  0  0  0  0  0  0  0  0
    3.0347   -2.3776   -0.9361 C   0  0  0  0  0  0  0  0  0  0  0  0
    2.7497   -3.3517   -0.5328 H   0  0  0  0  0  0  0  0  0  0  0  0
    3.3620   -2.4980   -1.9696 H   0  0  0  0  0  0  0  0  0  0  0  0
    3.8584   -1.9807   -0.3403 H   0  0  0  0  0  0  0  0  0  0  0  0
  5  6  2  0  0  0  0
  5  7  1  0  0  0  0
  2  3  1  0  0  0  0
  2  4  1  0  0  0  0
  2  5  1  0  0  0  0
  1  2  1  0  0  0  0
 18 19  2  0  0  0  0
 18 20  1  0  0  0  0
 16 17  1  0  0  0  0
 14 15  2  0  0  0  0
 14 16  1  0  0  0  0
 11 12  1  0  0  0  0
 11 13  1  0  0  0  0
 11 14  1  0  0  0  0
  9 10  1  0  0  0  0
  9 11  1  0  0  0  0
  9 18  1  0  0  0  0
  7  8  1  0  0  0  0
  7  9  1  0  0  0  0
 22 23  1  0  0  0  0
 22 24  1  0  0  0  0
 22 25  1  0  0  0  0
 20 21  1  0  0  0  0
 20 22  1  0  0  0  0
M  END
$$$$
default_name
  -OEChem-01062215323D

 25 24  0     1  0  0  0  0  0999 V2000
   -2.7826   -3.8464    0.7821 H   0  0  0  0  0  0  0  0  0  0  0  0
   -2.8156   -2.8034    0.4711 C   0  0  0  0  0  0  0  0  0  0  0  0
   -3.4336   -2.2354    1.1641 H   0  0  0  0  0  0  0  0  0  0  0  0
   -3.2256   -2.7344   -0.5349 H   0  0  0  0  0  0  0  0  0  0  0  0
   -1.4126   -2.2444    0.4801 C   0  0  0  0  0  0  0  0  0  0  0  0
   -0.4686   -2.9534    0.8001 O   0  0  0  0  0  0  0  0  0  0  0  0
   -1.2736   -0.9704    0.1241 N   0  0  0  0  0  0  0  0  0  0  0  0
   -2.0996   -0.4354   -0.1019 H   0  0  0  0  0  0  0  0  0  0  0  0
   -0.0016   -0.2394    0.1271 C   0  0  1  0  0  0  0  0  0  0  0  0
    0.0884    0.3028   -0.8168 H   0  0  0  0  0  0  0  0  0  0  0  0
    0.0014    0.7766    1.2864 C   0  0  0  0  0  0  0  0  0  0  0  0
   -0.2861    0.2736    2.2105 H   0  0  0  0  0  0  0  0  0  0  0  0
    1.0069    1.1766    1.4214 H   0  0  0  0  0  0  0  0  0  0  0  0
   -0.9753    1.9311    1.0841 C   0  0  0  0  0  0  0  0  0  0  0  0
   -1.3297    2.3836    0.0034 O   0  0  0  0  0  0  0  0  0  0  0  0
   -1.4553    2.4702    2.2203 O   0  0  0  0  0  0  0  0  0  0  0  0
   -2.0617    3.1596    1.9480 H   0  0  0  0  0  0  0  0  0  0  0  0
    1.1770   -1.2279    0.2305 C   0  0  0  0  0  0  0  0  0  0  0  0
    1.2709   -1.9673    1.2093 O   0  0  0  0  0  0  0  0  0  0  0  0
    2.0744   -1.2394   -0.7616 N   0  0  0  0  0  0  0  0  0  0  0  0
    1.9608   -0.5548   -1.5020 H   0  0  0  0  0  0  0  0  0  0  0  0
    3.2391   -2.1207   -0.8108 C   0  0  0  0  0  0  0  0  0  0  0  0
    2.9250   -3.1559   -0.6603 H   0  0  0  0  0  0  0  0  0  0  0  0
    3.7355   -2.0325   -1.7780 H   0  0  0  0  0  0  0  0  0  0  0  0
    3.9398   -1.8501   -0.0191 H   0  0  0  0  0  0  0  0  0  0  0  0
  5  6  2  0  0  0  0
  5  7  1  0  0  0  0
  2  3  1  0  0  0  0
  2  4  1  0  0  0  0
  2  5  1  0  0  0  0
  1  2  1  0  0  0  0
 18 19  2  0  0  0  0
 18 20  1  0  0  0  0
 16 17  1  0  0  0  0
 14 15  2  0  0  0  0
 14 16  1  0  0  0  0
 11 12  1  0  0  0  0
 11 13  1  0  0  0  0
 11 14  1  0  0  0  0
  9 10  1  0  0  0  0
  9 11  1  0  0  0  0
  9 18  1  0  0  0  0
  7  8  1  0  0  0  0
  7  9  1  0  0  0  0
 22 23  1  0  0  0  0
 22 24  1  0  0  0  0
 22 25  1  0  0  0  0
 20 21  1  0  0  0  0
 20 22  1  0  0  0  0
M  END
$$$$
default_name
  -OEChem-01062215323D

 25 24  0     1  0  0  0  0  0999 V2000
   -2.7826   -3.8464    0.7821 H   0  0  0  0  0  0  0  0  0  0  0  0
   -2.8156   -2.8034    0.4711 C   0  0  0  0  0  0  0  0  0  0  0  0
   -3.4336   -2.2354    1.1641 H   0  0  0  0  0  0  0  0  0  0  0  0
   -3.2256   -2.7344   -0.5349 H   0  0  0  0  0  0  0  0  0  0  0  0
   -1.4126   -2.2444    0.4801 C   0  0  0  0  0  0  0  0  0  0  0  0
   -0.4686   -2.9534    0.8001 O   0  0  0  0  0  0  0  0  0  0  0  0
   -1.2736   -0.9704    0.1241 N   0  0  0  0  0  0  0  0  0  0  0  0
   -2.0996   -0.4354   -0.1019 H   0  0  0  0  0  0  0  0  0  0  0  0
   -0.0016   -0.2394    0.1271 C   0  0  1  0  0  0  0  0  0  0  0  0
    0.0884    0.3028   -0.8168 H   0  0  0  0  0  0  0  0  0  0  0  0
    0.0014    0.7766    1.2864 C   0  0  0  0  0  0  0  0  0  0  0  0
   -0.2861    0.2736    2.2105 H   0  0  0  0  0  0  0  0  0  0  0  0
    1.0069    1.1766    1.4214 H   0  0  0  0  0  0  0  0  0  0  0  0
   -0.9753    1.9311    1.0841 C   0  0  0  0  0  0  0  0  0  0  0  0
   -1.3297    2.3836    0.0034 O   0  0  0  0  0  0  0  0  0  0  0  0
   -1.4553    2.4702    2.2203 O   0  0  0  0  0  0  0  0  0  0  0  0
   -2.0617    3.1596    1.9480 H   0  0  0  0  0  0  0  0  0  0  0  0
    1.1770   -1.2279    0.2305 C   0  0  0  0  0  0  0  0  0  0  0  0
    1.1341   -2.1475    1.0466 O   0  0  0  0  0  0  0  0  0  0  0  0
    2.2250   -1.0409   -0.5797 N   0  0  0  0  0  0  0  0  0  0  0  0
    2.2112   -0.2225   -1.1796 H   0  0  0  0  0  0  0  0  0  0  0  0
    3.4112   -1.8939   -0.6051 C   0  0  0  0  0  0  0  0  0  0  0  0
    3.1122   -2.9385   -0.7156 H   0  0  0  0  0  0  0  0  0  0  0  0
    4.0565   -1.6143   -1.4389 H   0  0  0  0  0  0  0  0  0  0  0  0
    3.9629   -1.7860    0.3304 H   0  0  0  0  0  0  0  0  0  0  0  0
  5  6  2  0  0  0  0
  5  7  1  0  0  0  0
  2  3  1  0  0  0  0
  2  4  1  0  0  0  0
  2  5  1  0  0  0  0
  1  2  1  0  0  0  0
 18 19  2  0  0  0  0
 18 20  1  0  0  0  0
 16 17  1  0  0  0  0
 14 15  2  0  0  0  0
 14 16  1  0  0  0  0
 11 12  1  0  0  0  0
 11 13  1  0  0  0  0
 11 14  1  0  0  0  0
  9 10  1  0  0  0  0
  9 11  1  0  0  0  0
  9 18  1  0  0  0  0
  7  8  1  0  0  0  0
  7  9  1  0  0  0  0
 22 23  1  0  0  0  0
 22 24  1  0  0  0  0
 22 25  1  0  0  0  0
 20 21  1  0  0  0  0
 20 22  1  0  0  0  0
M  END
$$$$
default_name
  -OEChem-01062215323D

 25 24  0     1  0  0  0  0  0999 V2000
   -2.7826   -3.8464    0.7821 H   0  0  0  0  0  0  0  0  0  0  0  0
   -2.8156   -2.8034    0.4711 C   0  0  0  0  0  0  0  0  0  0  0  0
   -3.4336   -2.2354    1.1641 H   0  0  0  0  0  0  0  0  0  0  0  0
   -3.2256   -2.7344   -0.5349 H   0  0  0  0  0  0  0  0  0  0  0  0
   -1.4126   -2.2444    0.4801 C   0  0  0  0  0  0  0  0  0  0  0  0
   -0.4686   -2.9534    0.8001 O   0  0  0  0  0  0  0  0  0  0  0  0
   -1.2736   -0.9704    0.1241 N   0  0  0  0  0  0  0  0  0  0  0  0
   -2.0996   -0.4354   -0.1019 H   0  0  0  0  0  0  0  0  0  0  0  0
   -0.0016   -0.2394    0.1271 C   0  0  1  0  0  0  0  0  0  0  0  0
    0.0884    0.3028   -0.8168 H   0  0  0  0  0  0  0  0  0  0  0  0
    0.0014    0.7766    1.2864 C   0  0  0  0  0  0  0  0  0  0  0  0
   -0.2861    0.2736    2.2105 H   0  0  0  0  0  0  0  0  0  0  0  0
    1.0069    1.1766    1.4214 H   0  0  0  0  0  0  0  0  0  0  0  0
   -0.9753    1.9311    1.0841 C   0  0  0  0  0  0  0  0  0  0  0  0
   -1.3297    2.3836    0.0034 O   0  0  0  0  0  0  0  0  0  0  0  0
   -1.4553    2.4702    2.2203 O   0  0  0  0  0  0  0  0  0  0  0  0
   -2.0617    3.1596    1.9480 H   0  0  0  0  0  0  0  0  0  0  0  0
    1.1770   -1.2279    0.2305 C   0  0  0  0  0  0  0  0  0  0  0  0
    1.0320   -2.2917    0.8311 O   0  0  0  0  0  0  0  0  0  0  0  0
    2.3368   -0.8824   -0.3398 N   0  0  0  0  0  0  0  0  0  0  0  0
    2.3939    0.0391   -0.7609 H   0  0  0  0  0  0  0  0  0  0  0  0
    3.5395   -1.7125   -0.3329 C   0  0  0  0  0  0  0  0  0  0  0  0
    3.2984   -2.7143   -0.6950 H   0  0  0  0  0  0  0  0  0  0  0  0
    4.3029   -1.2719   -0.9753 H   0  0  0  0  0  0  0  0  0  0  0  0
    3.9260   -1.7929    0.6846 H   0  0  0  0  0  0  0  0  0  0  0  0
  5  6  2  0  0  0  0
  5  7  1  0  0  0  0
  2  3  1  0  0  0  0
  2  4  1  0  0  0  0
  2  5  1  0  0  0  0
  1  2  1  0  0  0  0
 18 19  2  0  0  0  0
 18 20  1  0  0  0  0
 16 17  1  0  0  0  0
 14 15  2  0  0  0  0
 14 16  1  0  0  0  0
 11 12  1  0  0  0  0
 11 13  1  0  0  0  0
 11 14  1  0  0  0  0
  9 10  1  0  0  0  0
  9 11  1  0  0  0  0
  9 18  1  0  0  0  0
  7  8  1  0  0  0  0
  7  9  1  0  0  0  0
 22 23  1  0  0  0  0
 22 24  1  0  0  0  0
 22 25  1  0  0  0  0
 20 21  1  0  0  0  0
 20 22  1  0  0  0  0
M  END
$$$$
default_name
  -OEChem-01062215323D

 25 24  0     1  0  0  0  0  0999 V2000
   -2.7826   -3.8464    0.7821 H   0  0  0  0  0  0  0  0  0  0  0  0
   -2.8156   -2.8034    0.4711 C   0  0  0  0  0  0  0  0  0  0  0  0
   -3.4336   -2.2354    1.1641 H   0  0  0  0  0  0  0  0  0  0  0  0
   -3.2256   -2.7344   -0.5349 H   0  0  0  0  0  0  0  0  0  0  0  0
   -1.4126   -2.2444    0.4801 C   0  0  0  0  0  0  0  0  0  0  0  0
   -0.4686   -2.9534    0.8001 O   0  0  0  0  0  0  0  0  0  0  0  0
   -1.2736   -0.9704    0.1241 N   0  0  0  0  0  0  0  0  0  0  0  0
   -2.0996   -0.4354   -0.1019 H   0  0  0  0  0  0  0  0  0  0  0  0
   -0.0016   -0.2394    0.1271 C   0  0  1  0  0  0  0  0  0  0  0  0
    0.0884    0.3028   -0.8168 H   0  0  0  0  0  0  0  0  0  0  0  0
    0.0014    0.7766    1.2864 C   0  0  0  0  0  0  0  0  0  0  0  0
   -0.2861    0.2736    2.2105 H   0  0  0  0  0  0  0  0  0  0  0  0
    1.0069    1.1766    1.4214 H   0  0  0  0  0  0  0  0  0  0  0  0
   -0.9753    1.9311    1.0841 C   0  0  0  0  0  0  0  0  0  0  0  0
   -1.3297    2.3836    0.0034 O   0  0  0  0  0  0  0  0  0  0  0  0
   -1.4553    2.4702    2.2203 O   0  0  0  0  0  0  0  0  0  0  0  0
   -2.0617    3.1596    1.9480 H   0  0  0  0  0  0  0  0  0  0  0  0
    1.1770   -1.2279    0.2305 C   0  0  0  0  0  0  0  0  0  0  0  0
    0.9717   -2.3902    0.5775 O   0  0  0  0  0  0  0  0  0  0  0  0
    2.4022   -0.7750   -0.0581 N   0  0  0  0  0  0  0  0  0  0  0  0
    2.4962    0.2121   -0.2744 H   0  0  0  0  0  0  0  0  0  0  0  0
    3.6150   -1.5889   -0.0128 C   0  0  0  0  0  0  0  0  0  0  0  0
    3.4710   -2.4986   -0.5998 H   0  0  0  0  0  0  0  0  0  0  0  0
    4.4582   -1.0287   -0.4189 H   0  0  0  0  0  0  0  0  0  0  0  0
    3.8318   -1.8703    1.0192 H   0  0  0  0  0  0  0  0  0  0  0  0
  5  6  2  0  0  0  0
  5  7  1  0  0  0  0
  2  3  1  0  0  0  0
  2  4  1  0  0  0  0
  2  5  1  0  0  0  0
  1  2  1  0  0  0  0
 18 19  2  0  0  0  0
 18 20  1  0  0  0  0
 16 17  1  0  0  0  0
 14 15  2  0  0  0  0
 14 16  1  0  0  0  0
 11 12  1  0  0  0  0
 11 13  1  0  0  0  0
 11 14  1  0  0  0  0
  9 10  1  0  0  0  0
  9 11  1  0  0  0  0
  9 18  1  0  0  0  0
  7  8  1  0  0  0  0
  7  9  1  0  0  0  0
 22 23  1  0  0  0  0
 22 24  1  0  0  0  0
 22 25  1  0  0  0  0
 20 21  1  0  0  0  0
 20 22  1  0  0  0  0
M  END
$$$$
default_name
  -OEChem-01062215323D

 25 24  0     1  0  0  0  0  0999 V2000
   -2.7826   -3.8464    0.7821 H   0  0  0  0  0  0  0  0  0  0  0  0
   -2.8156   -2.8034    0.4711 C   0  0  0  0  0  0  0  0  0  0  0  0
   -3.4336   -2.2354    1.1641 H   0  0  0  0  0  0  0  0  0  0  0  0
   -3.2256   -2.7344   -0.5349 H   0  0  0  0  0  0  0  0  0  0  0  0
   -1.4126   -2.2444    0.4801 C   0  0  0  0  0  0  0  0  0  0  0  0
   -0.4686   -2.9534    0.8001 O   0  0  0  0  0  0  0  0  0  0  0  0
   -1.2736   -0.9704    0.1241 N   0  0  0  0  0  0  0  0  0  0  0  0
   -2.0996   -0.4354   -0.1019 H   0  0  0  0  0  0  0  0  0  0  0  0
   -0.0016   -0.2394    0.1271 C   0  0  1  0  0  0  0  0  0  0  0  0
   -0.0265    0.5020   -0.6746 H   0  0  0  0  0  0  0  0  0  0  0  0
    0.1653    0.4905    1.4745 C   0  0  0  0  0  0  0  0  0  0  0  0
   -0.0076   -0.2113    2.2913 H   0  0  0  0  0  0  0  0  0  0  0  0
    1.1854    0.8653    1.5652 H   0  0  0  0  0  0  0  0  0  0  0  0
   -0.8128    1.6459    1.6642 C   0  0  0  0  0  0  0  0  0  0  0  0
   -1.2972    2.3239    0.7675 O   0  0  0  0  0  0  0  0  0  0  0  0
   -1.1344    1.9089    2.9445 O   0  0  0  0  0  0  0  0  0  0  0  0
   -1.7611    2.6326    2.9144 H   0  0  0  0  0  0  0  0  0  0  0  0
    1.1664   -1.2078   -0.1468 C   0  0  0  0  0  0  0  0  0  0  0  0
    0.9406   -2.4048   -0.3196 O   0  0  0  0  0  0  0  0  0  0  0  0
    2.4048   -0.7031   -0.1788 N   0  0  0  0  0  0  0  0  0  0  0  0
    2.5130    0.2827    0.0364 H   0  0  0  0  0  0  0  0  0  0  0  0
    3.6103   -1.4894   -0.4322 C   0  0  0  0  0  0  0  0  0  0  0  0
    3.4854   -2.0715   -1.3478 H   0  0  0  0  0  0  0  0  0  0  0  0
    4.4724   -0.8300   -0.5400 H   0  0  0  0  0  0  0  0  0  0  0  0
    3.7830   -2.1769    0.3976 H   0  0  0  0  0  0  0  0  0  0  0  0
  5  6  2  0  0  0  0
  5  7  1  0  0  0  0
  2  3  1  0  0  0  0
  2  4  1  0  0  0  0
  2  5  1  0  0  0  0
  1  2  1  0  0  0  0
 18 19  2  0  0  0  0
 18 20  1  0  0  0  0
 16 17  1  0  0  0  0
 14 15  2  0  0  0  0
 14 16  1  0  0  0  0
 11 12  1  0  0  0  0
 11 13  1  0  0  0  0
 11 14  1  0  0  0  0
  9 10  1  0  0  0  0
  9 11  1  0  0  0  0
  9 18  1  0  0  0  0
  7  8  1  0  0  0  0
  7  9  1  0  0  0  0
 22 23  1  0  0  0  0
 22 24  1  0  0  0  0
 22 25  1  0  0  0  0
 20 21  1  0  0  0  0
 20 22  1  0  0  0  0
M  END
$$$$
default_name
  -OEChem-01062215323D

 25 24  0     1  0  0  0  0  0999 V2000
   -2.7826   -3.8464    0.7821 H   0  0  0  0  0  0  0  0  0  0  0  0
   -2.8156   -2.8034    0.4711 C   0  0  0  0  0  0  0  0  0  0  0  0
   -3.4336   -2.2354    1.1641 H   0  0  0  0  0  0  0  0  0  0  0  0
   -3.2256   -2.7344   -0.5349 H   0  0  0  0  0  0  0  0  0  0  0  0
   -1.4126   -2.2444    0.4801 C   0  0  0  0  0  0  0  0  0  0  0  0
   -0.4686   -2.9534    0.8001 O   0  0  0  0  0  0  0  0  0  0  0  0
   -1.2736   -0.9704    0.1241 N   0  0  0  0  0  0  0  0  0  0  0  0
   -2.0996   -0.4354   -0.1019 H   0  0  0  0  0  0  0  0  0  0  0  0
   -0.0016   -0.2394    0.1271 C   0  0  1  0  0  0  0  0  0  0  0  0
   -0.0265    0.5020   -0.6746 H   0  0  0  0  0  0  0  0  0  0  0  0
    0.1653    0.4905    1.4745 C   0  0  0  0  0  0  0  0  0  0  0  0
   -0.0076   -0.2113    2.2913 H   0  0  0  0  0  0  0  0  0  0  0  0
    1.1854    0.8653    1.5652 H   0  0  0  0  0  0  0  0  0  0  0  0
   -0.8128    1.6459    1.6642 C   0  0  0  0  0  0  0  0  0  0  0  0
   -1.2972    2.3239    0.7675 O   0  0  0  0  0  0  0  0  0  0  0  0
   -1.1344    1.9089    2.9445 O   0  0  0  0  0  0  0  0  0  0  0  0
   -1.7611    2.6326    2.9144 H   0  0  0  0  0  0  0  0  0  0  0  0
    1.1664   -1.2078   -0.1468 C   0  0  0  0  0  0  0  0  0  0  0  0
    0.9371   -2.3328   -0.5888 O   0  0  0  0  0  0  0  0  0  0  0  0
    2.4072   -0.7844    0.1188 N   0  0  0  0  0  0  0  0  0  0  0  0
    2.5072    0.1330    0.5410 H   0  0  0  0  0  0  0  0  0  0  0  0
    3.6141   -1.5807   -0.0929 C   0  0  0  0  0  0  0  0  0  0  0  0
    3.6268   -1.9670   -1.1144 H   0  0  0  0  0  0  0  0  0  0  0  0
    4.5014   -0.9678    0.0708 H   0  0  0  0  0  0  0  0  0  0  0  0
    3.6251   -2.4244    0.5993 H   0  0  0  0  0  0  0  0  0  0  0  0
  5  6  2  0  0  0  0
  5  7  1  0  0  0  0
  2  3  1  0  0  0  0
  2  4  1  0  0  0  0
  2  5  1  0  0  0  0
  1  2  1  0  0  0  0
 18 19  2  0  0  0  0
 18 20  1  0  0  0  0
 16 17  1  0  0  0  0
 14 15  2  0  0  0  0
 14 16  1  0  0  0  0
 11 12  1  0  0  0  0
 11 13  1  0  0  0  0
 11 14  1  0  0  0  0
  9 10  1  0  0  0  0
  9 11  1  0  0  0  0
  9 18  1  0  0  0  0
  7  8  1  0  0  0  0
  7  9  1  0  0  0  0
 22 23  1  0  0  0  0
 22 24  1  0  0  0  0
 22 25  1  0  0  0  0
 20 21  1  0  0  0  0
 20 22  1  0  0  0  0
M  END
$$$$
default_name
  -OEChem-01062215323D

 25 24  0     1  0  0  0  0  0999 V2000
   -2.7826   -3.8464    0.7821 H   0  0  0  0  0  0  0  0  0  0  0  0
   -2.8156   -2.8034    0.4711 C   0  0  0  0  0  0  0  0  0  0  0  0
   -3.4336   -2.2354    1.1641 H   0  0  0  0  0  0  0  0  0  0  0  0
   -3.2256   -2.7344   -0.5349 H   0  0  0  0  0  0  0  0  0  0  0  0
   -1.4126   -2.2444    0.4801 C   0  0  0  0  0  0  0  0  0  0  0  0
   -0.4686   -2.9534    0.8001 O   0  0  0  0  0  0  0  0  0  0  0  0
   -1.2736   -0.9704    0.1241 N   0  0  0  0  0  0  0  0  0  0  0  0
   -2.0996   -0.4354   -0.1019 H   0  0  0  0  0  0  0  0  0  0  0  0
   -0.0016   -0.2394    0.1271 C   0  0  1  0  0  0  0  0  0  0  0  0
   -0.0265    0.5020   -0.6746 H   0  0  0  0  0  0  0  0  0  0  0  0
    0.1653    0.4905    1.4745 C   0  0  0  0  0  0  0  0  0  0  0  0
   -0.0076   -0.2113    2.2913 H   0  0  0  0  0  0  0  0  0  0  0  0
    1.1854    0.8653    1.5652 H   0  0  0  0  0  0  0  0  0  0  0  0
   -0.8128    1.6459    1.6642 C   0  0  0  0  0  0  0  0  0  0  0  0
   -1.2972    2.3239    0.7675 O   0  0  0  0  0  0  0  0  0  0  0  0
   -1.1344    1.9089    2.9445 O   0  0  0  0  0  0  0  0  0  0  0  0
   -1.7611    2.6326    2.9144 H   0  0  0  0  0  0  0  0  0  0  0  0
    1.1664   -1.2078   -0.1468 C   0  0  0  0  0  0  0  0  0  0  0  0
    0.9809   -2.2104   -0.8353 O   0  0  0  0  0  0  0  0  0  0  0  0
    2.3574   -0.9214    0.3907 N   0  0  0  0  0  0  0  0  0  0  0  0
    2.4127   -0.1103    0.9982 H   0  0  0  0  0  0  0  0  0  0  0  0
    3.5585   -1.7356    0.2175 C   0  0  0  0  0  0  0  0  0  0  0  0
    3.7302   -1.9184   -0.8456 H   0  0  0  0  0  0  0  0  0  0  0  0
    4.4237   -1.2220    0.6384 H   0  0  0  0  0  0  0  0  0  0  0  0
    3.4285   -2.6957    0.7200 H   0  0  0  0  0  0  0  0  0  0  0  0
  5  6  2  0  0  0  0
  5  7  1  0  0  0  0
  2  3  1  0  0  0  0
  2  4  1  0  0  0  0
  2  5  1  0  0  0  0
  1  2  1  0  0  0  0
 18 19  2  0  0  0  0
 18 20  1  0  0  0  0
 16 17  1  0  0  0  0
 14 15  2  0  0  0  0
 14 16  1  0  0  0  0
 11 12  1  0  0  0  0
 11 13  1  0  0  0  0
 11 14  1  0  0  0  0
  9 10  1  0  0  0  0
  9 11  1  0  0  0  0
  9 18  1  0  0  0  0
  7  8  1  0  0  0  0
  7  9  1  0  0  0  0
 22 23  1  0  0  0  0
 22 24  1  0  0  0  0
 22 25  1  0  0  0  0
 20 21  1  0  0  0  0
 20 22  1  0  0  0  0
M  END
$$$$
default_name
  -OEChem-01062215323D

 25 24  0     1  0  0  0  0  0999 V2000
   -2.7826   -3.8464    0.7821 H   0  0  0  0  0  0  0  0  0  0  0  0
   -2.8156   -2.8034    0.4711 C   0  0  0  0  0  0  0  0  0  0  0  0
   -3.4336   -2.2354    1.1641 H   0  0  0  0  0  0  0  0  0  0  0  0
   -3.2256   -2.7344   -0.5349 H   0  0  0  0  0  0  0  0  0  0  0  0
   -1.4126   -2.2444    0.4801 C   0  0  0  0  0  0  0  0  0  0  0  0
   -0.4686   -2.9534    0.8001 O   0  0  0  0  0  0  0  0  0  0  0  0
   -1.2736   -0.9704    0.1241 N   0  0  0  0  0  0  0  0  0  0  0  0
   -2.0996   -0.4354   -0.1019 H   0  0  0  0  0  0  0  0  0  0  0  0
   -0.0016   -0.2394    0.1271 C   0  0  1  0  0  0  0  0  0  0  0  0
   -0.0265    0.5020   -0.6746 H   0  0  0  0  0  0  0  0  0  0  0  0
    0.1653    0.4905    1.4745 C   0  0  0  0  0  0  0  0  0  0  0  0
   -0.0076   -0.2113    2.2913 H   0  0  0  0  0  0  0  0  0  0  0  0
    1.1854    0.8653    1.5652 H   0  0  0  0  0  0  0  0  0  0  0  0
   -0.8128    1.6459    1.6642 C   0  0  0  0  0  0  0  0  0  0  0  0
   -1.2972    2.3239    0.7675 O   0  0  0  0  0  0  0  0  0  0  0  0
   -1.1344    1.9089    2.9445 O   0  0  0  0  0  0  0  0  0  0  0  0
   -1.7611    2.6326    2.9144 H   0  0  0  0  0  0  0  0  0  0  0  0
    1.1664   -1.2078   -0.1468 C   0  0  0  0  0  0  0  0  0  0  0  0
    1.0688   -2.0458   -1.0423 O   0  0  0  0  0  0  0  0  0  0  0  0
    2.2588   -1.1047    0.6183 N   0  0  0  0  0  0  0  0  0  0  0  0
    2.2359   -0.4306    1.3766 H   0  0  0  0  0  0  0  0  0  0  0  0
    3.4471   -1.9435    0.4778 C   0  0  0  0  0  0  0  0  0  0  0  0
    3.7886   -1.9288   -0.5595 H   0  0  0  0  0  0  0  0  0  0  0  0
    4.2448   -1.5753    1.1243 H   0  0  0  0  0  0  0  0  0  0  0  0
    3.2065   -2.9723    0.7514 H   0  0  0  0  0  0  0  0  0  0  0  0
  5  6  2  0  0  0  0
  5  7  1  0  0  0  0
  2  3  1  0  0  0  0
  2  4  1  0  0  0  0
  2  5  1  0  0  0  0
  1  2  1  0  0  0  0
 18 19  2  0  0  0  0
 18 20  1  0  0  0  0
 16 17  1  0  0  0  0
 14 15  2  0  0  0  0
 14 16  1  0  0  0  0
 11 12  1  0  0  0  0
 11 13  1  0  0  0  0
 11 14  1  0  0  0  0
  9 10  1  0  0  0  0
  9 11  1  0  0  0  0
  9 18  1  0  0  0  0
  7  8  1  0  0  0  0
  7  9  1  0  0  0  0
 22 23  1  0  0  0  0
 22 24  1  0  0  0  0
 22 25  1  0  0  0  0
 20 21  1  0  0  0  0
 20 22  1  0  0  0  0
M  END
$$$$
default_name
  -OEChem-01062215323D

 25 24  0     1  0  0  0  0  0999 V2000
   -2.7826   -3.8464    0.7821 H   0  0  0  0  0  0  0  0  0  0  0  0
   -2.8156   -2.8034    0.4711 C   0  0  0  0  0  0  0  0  0  0  0  0
   -3.4336   -2.2354    1.1641 H   0  0  0  0  0  0  0  0  0  0  0  0
   -3.2256   -2.7344   -0.5349 H   0  0  0  0  0  0  0  0  0  0  0  0
   -1.4126   -2.2444    0.4801 C   0  0  0  0  0  0  0  0  0  0  0  0
   -0.4686   -2.9534    0.8001 O   0  0  0  0  0  0  0  0  0  0  0  0
   -1.2736   -0.9704    0.1241 N   0  0  0  0  0  0  0  0  0  0  0  0
   -2.0996   -0.4354   -0.1019 H   0  0  0  0  0  0  0  0  0  0  0  0
   -0.0016   -0.2394    0.1271 C   0  0  1  0  0  0  0  0  0  0  0  0
   -0.0265    0.5020   -0.6746 H   0  0  0  0  0  0  0  0  0  0  0  0
    0.1653    0.4905    1.4745 C   0  0  0  0  0  0  0  0  0  0  0  0
   -0.0076   -0.2113    2.2913 H   0  0  0  0  0  0  0  0  0  0  0  0
    1.1854    0.8653    1.5652 H   0  0  0  0  0  0  0  0  0  0  0  0
   -0.8128    1.6459    1.6642 C   0  0  0  0  0  0  0  0  0  0  0  0
   -1.2972    2.3239    0.7675 O   0  0  0  0  0  0  0  0  0  0  0  0
   -1.1344    1.9089    2.9445 O   0  0  0  0  0  0  0  0  0  0  0  0
   -1.7611    2.6326    2.9144 H   0  0  0  0  0  0  0  0  0  0  0  0
    1.1664   -1.2078   -0.1468 C   0  0  0  0  0  0  0  0  0  0  0  0
    1.1949   -1.8502   -1.1956 O   0  0  0  0  0  0  0  0  0  0  0  0
    2.1181   -1.3219    0.7863 N   0  0  0  0  0  0  0  0  0  0  0  0
    1.9888   -0.8061    1.6507 H   0  0  0  0  0  0  0  0  0  0  0  0
    3.2877   -2.1903    0.6705 C   0  0  0  0  0  0  0  0  0  0  0  0
    3.7981   -1.9977   -0.2757 H   0  0  0  0  0  0  0  0  0  0  0  0
    3.9767   -2.0036    1.4952 H   0  0  0  0  0  0  0  0  0  0  0  0
    2.9742   -3.2355    0.6914 H   0  0  0  0  0  0  0  0  0  0  0  0
  5  6  2  0  0  0  0
  5  7  1  0  0  0  0
  2  3  1  0  0  0  0
  2  4  1  0  0  0  0
  2  5  1  0  0  0  0
  1  2  1  0  0  0  0
 18 19  2  0  0  0  0
 18 20  1  0  0  0  0
 16 17  1  0  0  0  0
 14 15  2  0  0  0  0
 14 16  1  0  0  0  0
 11 12  1  0  0  0  0
 11 13  1  0  0  0  0
 11 14  1  0  0  0  0
  9 10  1  0  0  0  0
  9 11  1  0  0  0  0
  9 18  1  0  0  0  0
  7  8  1  0  0  0  0
  7  9  1  0  0  0  0
 22 23  1  0  0  0  0
 22 24  1  0  0  0  0
 22 25  1  0  0  0  0
 20 21  1  0  0  0  0
 20 22  1  0  0  0  0
M  END
$$$$
default_name
  -OEChem-01062215323D

 25 24  0     1  0  0  0  0  0999 V2000
   -2.7826   -3.8464    0.7821 H   0  0  0  0  0  0  0  0  0  0  0  0
   -2.8156   -2.8034    0.4711 C   0  0  0  0  0  0  0  0  0  0  0  0
   -3.4336   -2.2354    1.1641 H   0  0  0  0  0  0  0  0  0  0  0  0
   -3.2256   -2.7344   -0.5349 H   0  0  0  0  0  0  0  0  0  0  0  0
   -1.4126   -2.2444    0.4801 C   0  0  0  0  0  0  0  0  0  0  0  0
   -0.4686   -2.9534    0.8001 O   0  0  0  0  0  0  0  0  0  0  0  0
   -1.2736   -0.9704    0.1241 N   0  0  0  0  0  0  0  0  0  0  0  0
   -2.0996   -0.4354   -0.1019 H   0  0  0  0  0  0  0  0  0  0  0  0
   -0.0016   -0.2394    0.1271 C   0  0  1  0  0  0  0  0  0  0  0  0
   -0.0265    0.5020   -0.6746 H   0  0  0  0  0  0  0  0  0  0  0  0
    0.1653    0.4905    1.4745 C   0  0  0  0  0  0  0  0  0  0  0  0
   -0.0076   -0.2113    2.2913 H   0  0  0  0  0  0  0  0  0  0  0  0
    1.1854    0.8653    1.5652 H   0  0  0  0  0  0  0  0  0  0  0  0
   -0.8128    1.6459    1.6642 C   0  0  0  0  0  0  0  0  0  0  0  0
   -1.2972    2.3239    0.7675 O   0  0  0  0  0  0  0  0  0  0  0  0
   -1.1344    1.9089    2.9445 O   0  0  0  0  0  0  0  0  0  0  0  0
   -1.7611    2.6326    2.9144 H   0  0  0  0  0  0  0  0  0  0  0  0
    1.1664   -1.2078   -0.1468 C   0  0  0  0  0  0  0  0  0  0  0  0
    1.3507   -1.6371   -1.2849 O   0  0  0  0  0  0  0  0  0  0  0  0
    1.9449   -1.5581    0.8831 N   0  0  0  0  0  0  0  0  0  0  0  0
    1.6884   -1.2112    1.8016 H   0  0  0  0  0  0  0  0  0  0  0  0
    3.0910   -2.4591    0.7823 C   0  0  0  0  0  0  0  0  0  0  0  0
    3.7579   -2.1203   -0.0136 H   0  0  0  0  0  0  0  0  0  0  0  0
    3.6377   -2.4777    1.7259 H   0  0  0  0  0  0  0  0  0  0  0  0
    2.7475   -3.4673    0.5440 H   0  0  0  0  0  0  0  0  0  0  0  0
  5  6  2  0  0  0  0
  5  7  1  0  0  0  0
  2  3  1  0  0  0  0
  2  4  1  0  0  0  0
  2  5  1  0  0  0  0
  1  2  1  0  0  0  0
 18 19  2  0  0  0  0
 18 20  1  0  0  0  0
 16 17  1  0  0  0  0
 14 15  2  0  0  0  0
 14 16  1  0  0  0  0
 11 12  1  0  0  0  0
 11 13  1  0  0  0  0
 11 14  1  0  0  0  0
  9 10  1  0  0  0  0
  9 11  1  0  0  0  0
  9 18  1  0  0  0  0
  7  8  1  0  0  0  0
  7  9  1  0  0  0  0
 22 23  1  0  0  0  0
 22 24  1  0  0  0  0
 22 25  1  0  0  0  0
 20 21  1  0  0  0  0
 20 22  1  0  0  0  0
M  END
$$$$
default_name
  -OEChem-01062215323D

 25 24  0     1  0  0  0  0  0999 V2000
   -2.7826   -3.8464    0.7821 H   0  0  0  0  0  0  0  0  0  0  0  0
   -2.8156   -2.8034    0.4711 C   0  0  0  0  0  0  0  0  0  0  0  0
   -3.4336   -2.2354    1.1641 H   0  0  0  0  0  0  0  0  0  0  0  0
   -3.2256   -2.7344   -0.5349 H   0  0  0  0  0  0  0  0  0  0  0  0
   -1.4126   -2.2444    0.4801 C   0  0  0  0  0  0  0  0  0  0  0  0
   -0.4686   -2.9534    0.8001 O   0  0  0  0  0  0  0  0  0  0  0  0
   -1.2736   -0.9704    0.1241 N   0  0  0  0  0  0  0  0  0  0  0  0
   -2.0996   -0.4354   -0.1019 H   0  0  0  0  0  0  0  0  0  0  0  0
   -0.0016   -0.2394    0.1271 C   0  0  1  0  0  0  0  0  0  0  0  0
   -0.0265    0.5020   -0.6746 H   0  0  0  0  0  0  0  0  0  0  0  0
    0.1653    0.4905    1.4745 C   0  0  0  0  0  0  0  0  0  0  0  0
   -0.0076   -0.2113    2.2913 H   0  0  0  0  0  0  0  0  0  0  0  0
    1.1854    0.8653    1.5652 H   0  0  0  0  0  0  0  0  0  0  0  0
   -0.8128    1.6459    1.6642 C   0  0  0  0  0  0  0  0  0  0  0  0
   -1.2972    2.3239    0.7675 O   0  0  0  0  0  0  0  0  0  0  0  0
   -1.1344    1.9089    2.9445 O   0  0  0  0  0  0  0  0  0  0  0  0
   -1.7611    2.6326    2.9144 H   0  0  0  0  0  0  0  0  0  0  0  0
    1.1664   -1.2078   -0.1468 C   0  0  0  0  0  0  0  0  0  0  0  0
    1.5255   -1.4209   -1.3040 O   0  0  0  0  0  0  0  0  0  0  0  0
    1.7511   -1.7974    0.9021 N   0  0  0  0  0  0  0  0  0  0  0  0
    1.3550   -1.6182    1.8191 H   0  0  0  0  0  0  0  0  0  0  0  0
    2.8706   -2.7317    0.8056 C   0  0  0  0  0  0  0  0  0  0  0  0
    3.6708   -2.2883    0.2090 H   0  0  0  0  0  0  0  0  0  0  0  0
    3.2510   -2.9653    1.8008 H   0  0  0  0  0  0  0  0  0  0  0  0
    2.5418   -3.6518    0.3194 H   0  0  0  0  0  0  0  0  0  0  0  0
  5  6  2  0  0  0  0
  5  7  1  0  0  0  0
  2  3  1  0  0  0  0
  2  4  1  0  0  0  0
  2  5  1  0  0  0  0
  1  2  1  0  0  0  0
 18 19  2  0  0  0  0
 18 20  1  0  0  0  0
 16 17  1  0  0  0  0
 14 15  2  0  0  0  0
 14 16  1  0  0  0  0
 11 12  1  0  0  0  0
 11 13  1  0  0  0  0
 11 14  1  0  0  0  0
  9 10  1  0  0  0  0
  9 11  1  0  0  0  0
  9 18  1  0  0  0  0
  7  8  1  0  0  0  0
  7  9  1  0  0  0  0
 22 23  1  0  0  0  0
 22 24  1  0  0  0  0
 22 25  1  0  0  0  0
 20 21  1  0  0  0  0
 20 22  1  0  0  0  0
M  END
$$$$
default_name
  -OEChem-01062215323D

 25 24  0     1  0  0  0  0  0999 V2000
   -2.7826   -3.8464    0.7821 H   0  0  0  0  0  0  0  0  0  0  0  0
   -2.8156   -2.8034    0.4711 C   0  0  0  0  0  0  0  0  0  0  0  0
   -3.4336   -2.2354    1.1641 H   0  0  0  0  0  0  0  0  0  0  0  0
   -3.2256   -2.7344   -0.5349 H   0  0  0  0  0  0  0  0  0  0  0  0
   -1.4126   -2.2444    0.4801 C   0  0  0  0  0  0  0  0  0  0  0  0
   -0.4686   -2.9534    0.8001 O   0  0  0  0  0  0  0  0  0  0  0  0
   -1.2736   -0.9704    0.1241 N   0  0  0  0  0  0  0  0  0  0  0  0
   -2.0996   -0.4354   -0.1019 H   0  0  0  0  0  0  0  0  0  0  0  0
   -0.0016   -0.2394    0.1271 C   0  0  1  0  0  0  0  0  0  0  0  0
   -0.0265    0.5020   -0.6746 H   0  0  0  0  0  0  0  0  0  0  0  0
    0.1653    0.4905    1.4745 C   0  0  0  0  0  0  0  0  0  0  0  0
   -0.0076   -0.2113    2.2913 H   0  0  0  0  0  0  0  0  0  0  0  0
    1.1854    0.8653    1.5652 H   0  0  0  0  0  0  0  0  0  0  0  0
   -0.8128    1.6459    1.6642 C   0  0  0  0  0  0  0  0  0  0  0  0
   -1.2972    2.3239    0.7675 O   0  0  0  0  0  0  0  0  0  0  0  0
   -1.1344    1.9089    2.9445 O   0  0  0  0  0  0  0  0  0  0  0  0
   -1.7611    2.6326    2.9144 H   0  0  0  0  0  0  0  0  0  0  0  0
    1.1664   -1.2078   -0.1468 C   0  0  0  0  0  0  0  0  0  0  0  0
    1.7074   -1.2163   -1.2517 O   0  0  0  0  0  0  0  0  0  0  0  0
    1.5497   -2.0232    0.8420 N   0  0  0  0  0  0  0  0  0  0  0  0
    1.0115   -1.9995    1.7020 H   0  0  0  0  0  0  0  0  0  0  0  0
    2.6413   -2.9893    0.7388 C   0  0  0  0  0  0  0  0  0  0  0  0
    3.5428   -2.4901    0.3770 H   0  0  0  0  0  0  0  0  0  0  0  0
    2.8429   -3.4331    1.7145 H   0  0  0  0  0  0  0  0  0  0  0  0
    2.3712   -3.7766    0.0328 H   0  0  0  0  0  0  0  0  0  0  0  0
  5  6  2  0  0  0  0
  5  7  1  0  0  0  0
  2  3  1  0  0  0  0
  2  4  1  0  0  0  0
  2  5  1  0  0  0  0
  1  2  1  0  0  0  0
 18 19  2  0  0  0  0
 18 20  1  0  0  0  0
 16 17  1  0  0  0  0
 14 15  2  0  0  0  0
 14 16  1  0  0  0  0
 11 12  1  0  0  0  0
 11 13  1  0  0  0  0
 11 14  1  0  0  0  0
  9 10  1  0  0  0  0
  9 11  1  0  0  0  0
  9 18  1  0  0  0  0
  7  8  1  0  0  0  0
  7  9  1  0  0  0  0
 22 23  1  0  0  0  0
 22 24  1  0  0  0  0
 22 25  1  0  0  0  0
 20 21  1  0  0  0  0
 20 22  1  0  0  0  0
M  END
$$$$
default_name
  -OEChem-01062215323D

 25 24  0     1  0  0  0  0  0999 V2000
   -2.7826   -3.8464    0.7821 H   0  0  0  0  0  0  0  0  0  0  0  0
   -2.8156   -2.8034    0.4711 C   0  0  0  0  0  0  0  0  0  0  0  0
   -3.4336   -2.2354    1.1641 H   0  0  0  0  0  0  0  0  0  0  0  0
   -3.2256   -2.7344   -0.5349 H   0  0  0  0  0  0  0  0  0  0  0  0
   -1.4126   -2.2444    0.4801 C   0  0  0  0  0  0  0  0  0  0  0  0
   -0.4686   -2.9534    0.8001 O   0  0  0  0  0  0  0  0  0  0  0  0
   -1.2736   -0.9704    0.1241 N   0  0  0  0  0  0  0  0  0  0  0  0
   -2.0996   -0.4354   -0.1019 H   0  0  0  0  0  0  0  0  0  0  0  0
   -0.0016   -0.2394    0.1271 C   0  0  1  0  0  0  0  0  0  0  0  0
   -0.0265    0.5020   -0.6746 H   0  0  0  0  0  0  0  0  0  0  0  0
    0.1653    0.4905    1.4745 C   0  0  0  0  0  0  0  0  0  0  0  0
   -0.0076   -0.2113    2.2913 H   0  0  0  0  0  0  0  0  0  0  0  0
    1.1854    0.8653    1.5652 H   0  0  0  0  0  0  0  0  0  0  0  0
   -0.8128    1.6459    1.6642 C   0  0  0  0  0  0  0  0  0  0  0  0
   -1.2972    2.3239    0.7675 O   0  0  0  0  0  0  0  0  0  0  0  0
   -1.1344    1.9089    2.9445 O   0  0  0  0  0  0  0  0  0  0  0  0
   -1.7611    2.6326    2.9144 H   0  0  0  0  0  0  0  0  0  0  0  0
    1.1664   -1.2078   -0.1468 C   0  0  0  0  0  0  0  0  0  0  0  0
    1.8839   -1.0374   -1.1315 O   0  0  0  0  0  0  0  0  0  0  0  0
    1.3546   -2.2204    0.7069 N   0  0  0  0  0  0  0  0  0  0  0  0
    0.6811   -2.3290    1.4583 H   0  0  0  0  0  0  0  0  0  0  0  0
    2.4188   -3.2146    0.5865 C   0  0  0  0  0  0  0  0  0  0  0  0
    3.3826   -2.7122    0.4788 H   0  0  0  0  0  0  0  0  0  0  0  0
    2.4412   -3.8494    1.4732 H   0  0  0  0  0  0  0  0  0  0  0  0
    2.2472   -3.8331   -0.2963 H   0  0  0  0  0  0  0  0  0  0  0  0
  5  6  2  0  0  0  0
  5  7  1  0  0  0  0
  2  3  1  0  0  0  0
  2  4  1  0  0  0  0
  2  5  1  0  0  0  0
  1  2  1  0  0  0  0
 18 19  2  0  0  0  0
 18 20  1  0  0  0  0
 16 17  1  0  0  0  0
 14 15  2  0  0  0  0
 14 16  1  0  0  0  0
 11 12  1  0  0  0  0
 11 13  1  0  0  0  0
 11 14  1  0  0  0  0
  9 10  1  0  0  0  0
  9 11  1  0  0  0  0
  9 18  1  0  0  0  0
  7  8  1  0  0  0  0
  7  9  1  0  0  0  0
 22 23  1  0  0  0  0
 22 24  1  0  0  0  0
 22 25  1  0  0  0  0
 20 21  1  0  0  0  0
 20 22  1  0  0  0  0
M  END
$$$$
default_name
  -OEChem-01062215323D

 25 24  0     1  0  0  0  0  0999 V2000
   -2.7826   -3.8464    0.7821 H   0  0  0  0  0  0  0  0  0  0  0  0
   -2.8156   -2.8034    0.4711 C   0  0  0  0  0  0  0  0  0  0  0  0
   -3.4336   -2.2354    1.1641 H   0  0  0  0  0  0  0  0  0  0  0  0
   -3.2256   -2.7344   -0.5349 H   0  0  0  0  0  0  0  0  0  0  0  0
   -1.4126   -2.2444    0.4801 C   0  0  0  0  0  0  0  0  0  0  0  0
   -0.4686   -2.9534    0.8001 O   0  0  0  0  0  0  0  0  0  0  0  0
   -1.2736   -0.9704    0.1241 N   0  0  0  0  0  0  0  0  0  0  0  0
   -2.0996   -0.4354   -0.1019 H   0  0  0  0  0  0  0  0  0  0  0  0
   -0.0016   -0.2394    0.1271 C   0  0  1  0  0  0  0  0  0  0  0  0
   -0.0265    0.5020   -0.6746 H   0  0  0  0  0  0  0  0  0  0  0  0
    0.1653    0.4905    1.4745 C   0  0  0  0  0  0  0  0  0  0  0  0
   -0.0076   -0.2113    2.2913 H   0  0  0  0  0  0  0  0  0  0  0  0
    1.1854    0.8653    1.5652 H   0  0  0  0  0  0  0  0  0  0  0  0
   -0.8128    1.6459    1.6642 C   0  0  0  0  0  0  0  0  0  0  0  0
   -1.2972    2.3239    0.7675 O   0  0  0  0  0  0  0  0  0  0  0  0
   -1.1344    1.9089    2.9445 O   0  0  0  0  0  0  0  0  0  0  0  0
   -1.7611    2.6326    2.9144 H   0  0  0  0  0  0  0  0  0  0  0  0
    1.1664   -1.2078   -0.1468 C   0  0  0  0  0  0  0  0  0  0  0  0
    2.0432   -0.8962   -0.9516 O   0  0  0  0  0  0  0  0  0  0  0  0
    1.1790   -2.3753    0.5061 N   0  0  0  0  0  0  0  0  0  0  0  0
    0.3865   -2.5843    1.1046 H   0  0  0  0  0  0  0  0  0  0  0  0
    2.2183   -3.3921    0.3590 C   0  0  0  0  0  0  0  0  0  0  0  0
    3.2010   -2.9393    0.5076 H   0  0  0  0  0  0  0  0  0  0  0  0
    2.0732   -4.1856    1.0931 H   0  0  0  0  0  0  0  0  0  0  0  0
    2.1783   -3.8174   -0.6453 H   0  0  0  0  0  0  0  0  0  0  0  0
  5  6  2  0  0  0  0
  5  7  1  0  0  0  0
  2  3  1  0  0  0  0
  2  4  1  0  0  0  0
  2  5  1  0  0  0  0
  1  2  1  0  0  0  0
 18 19  2  0  0  0  0
 18 20  1  0  0  0  0
 16 17  1  0  0  0  0
 14 15  2  0  0  0  0
 14 16  1  0  0  0  0
 11 12  1  0  0  0  0
 11 13  1  0  0  0  0
 11 14  1  0  0  0  0
  9 10  1  0  0  0  0
  9 11  1  0  0  0  0
  9 18  1  0  0  0  0
  7  8  1  0  0  0  0
  7  9  1  0  0  0  0
 22 23  1  0  0  0  0
 22 24  1  0  0  0  0
 22 25  1  0  0  0  0
 20 21  1  0  0  0  0
 20 22  1  0  0  0  0
M  END
$$$$
default_name
  -OEChem-01062215323D

 25 24  0     1  0  0  0  0  0999 V2000
   -2.7826   -3.8464    0.7821 H   0  0  0  0  0  0  0  0  0  0  0  0
   -2.8156   -2.8034    0.4711 C   0  0  0  0  0  0  0  0  0  0  0  0
   -3.4336   -2.2354    1.1641 H   0  0  0  0  0  0  0  0  0  0  0  0
   -3.2256   -2.7344   -0.5349 H   0  0  0  0  0  0  0  0  0  0  0  0
   -1.4126   -2.2444    0.4801 C   0  0  0  0  0  0  0  0  0  0  0  0
   -0.4686   -2.9534    0.8001 O   0  0  0  0  0  0  0  0  0  0  0  0
   -1.2736   -0.9704    0.1241 N   0  0  0  0  0  0  0  0  0  0  0  0
   -2.0996   -0.4354   -0.1019 H   0  0  0  0  0  0  0  0  0  0  0  0
   -0.0016   -0.2394    0.1271 C   0  0  1  0  0  0  0  0  0  0  0  0
   -0.0265    0.5020   -0.6746 H   0  0  0  0  0  0  0  0  0  0  0  0
    0.1653    0.4905    1.4745 C   0  0  0  0  0  0  0  0  0  0  0  0
   -0.0076   -0.2113    2.2913 H   0  0  0  0  0  0  0  0  0  0  0  0
    1.1854    0.8653    1.5652 H   0  0  0  0  0  0  0  0  0  0  0  0
   -0.8128    1.6459    1.6642 C   0  0  0  0  0  0  0  0  0  0  0  0
   -1.2972    2.3239    0.7675 O   0  0  0  0  0  0  0  0  0  0  0  0
   -1.1344    1.9089    2.9445 O   0  0  0  0  0  0  0  0  0  0  0  0
   -1.7611    2.6326    2.9144 H   0  0  0  0  0  0  0  0  0  0  0  0
    1.1664   -1.2078   -0.1468 C   0  0  0  0  0  0  0  0  0  0  0  0
    2.1742   -0.8024   -0.7242 O   0  0  0  0  0  0  0  0  0  0  0  0
    1.0349   -2.4776    0.2532 N   0  0  0  0  0  0  0  0  0  0  0  0
    0.1477   -2.7480    0.6650 H   0  0  0  0  0  0  0  0  0  0  0  0
    2.0534   -3.5097    0.0719 C   0  0  0  0  0  0  0  0  0  0  0  0
    3.0106   -3.1560    0.4614 H   0  0  0  0  0  0  0  0  0  0  0  0
    1.7642   -4.4190    0.6003 H   0  0  0  0  0  0  0  0  0  0  0  0
    2.1693   -3.7306   -0.9906 H   0  0  0  0  0  0  0  0  0  0  0  0
  5  6  2  0  0  0  0
  5  7  1  0  0  0  0
  2  3  1  0  0  0  0
  2  4  1  0  0  0  0
  2  5  1  0  0  0  0
  1  2  1  0  0  0  0
 18 19  2  0  0  0  0
 18 20  1  0  0  0  0
 16 17  1  0  0  0  0
 14 15  2  0  0  0  0
 14 16  1  0  0  0  0
 11 12  1  0  0  0  0
 11 13  1  0  0  0  0
 11 14  1  0  0  0  0
  9 10  1  0  0  0  0
  9 11  1  0  0  0  0
  9 18  1  0  0  0  0
  7  8  1  0  0  0  0
  7  9  1  0  0  0  0
 22 23  1  0  0  0  0
 22 24  1  0  0  0  0
 22 25  1  0  0  0  0
 20 21  1  0  0  0  0
 20 22  1  0  0  0  0
M  END
$$$$
default_name
  -OEChem-01062215323D

 25 24  0     1  0  0  0  0  0999 V2000
   -2.7826   -3.8464    0.7821 H   0  0  0  0  0  0  0  0  0  0  0  0
   -2.8156   -2.8034    0.4711 C   0  0  0  0  0  0  0  0  0  0  0  0
   -3.4336   -2.2354    1.1641 H   0  0  0  0  0  0  0  0  0  0  0  0
   -3.2256   -2.7344   -0.5349 H   0  0  0  0  0  0  0  0  0  0  0  0
   -1.4126   -2.2444    0.4801 C   0  0  0  0  0  0  0  0  0  0  0  0
   -0.4686   -2.9534    0.8001 O   0  0  0  0  0  0  0  0  0  0  0  0
   -1.2736   -0.9704    0.1241 N   0  0  0  0  0  0  0  0  0  0  0  0
   -2.0996   -0.4354   -0.1019 H   0  0  0  0  0  0  0  0  0  0  0  0
   -0.0016   -0.2394    0.1271 C   0  0  1  0  0  0  0  0  0  0  0  0
   -0.0265    0.5020   -0.6746 H   0  0  0  0  0  0  0  0  0  0  0  0
    0.1653    0.4905    1.4745 C   0  0  0  0  0  0  0  0  0  0  0  0
   -0.0076   -0.2113    2.2913 H   0  0  0  0  0  0  0  0  0  0  0  0
    1.1854    0.8653    1.5652 H   0  0  0  0  0  0  0  0  0  0  0  0
   -0.8128    1.6459    1.6642 C   0  0  0  0  0  0  0  0  0  0  0  0
   -1.2972    2.3239    0.7675 O   0  0  0  0  0  0  0  0  0  0  0  0
   -1.1344    1.9089    2.9445 O   0  0  0  0  0  0  0  0  0  0  0  0
   -1.7611    2.6326    2.9144 H   0  0  0  0  0  0  0  0  0  0  0  0
    1.1664   -1.2078   -0.1468 C   0  0  0  0  0  0  0  0  0  0  0  0
    2.2682   -0.7624   -0.4649 O   0  0  0  0  0  0  0  0  0  0  0  0
    0.9322   -2.5201   -0.0346 N   0  0  0  0  0  0  0  0  0  0  0  0
   -0.0191   -2.8090    0.1694 H   0  0  0  0  0  0  0  0  0  0  0  0
    1.9355   -3.5594   -0.2552 C   0  0  0  0  0  0  0  0  0  0  0  0
    2.8242   -3.3474    0.3432 H   0  0  0  0  0  0  0  0  0  0  0  0
    1.5350   -4.5336    0.0282 H   0  0  0  0  0  0  0  0  0  0  0  0
    2.2206   -3.5787   -1.3086 H   0  0  0  0  0  0  0  0  0  0  0  0
  5  6  2  0  0  0  0
  5  7  1  0  0  0  0
  2  3  1  0  0  0  0
  2  4  1  0  0  0  0
  2  5  1  0  0  0  0
  1  2  1  0  0  0  0
 18 19  2  0  0  0  0
 18 20  1  0  0  0  0
 16 17  1  0  0  0  0
 14 15  2  0  0  0  0
 14 16  1  0  0  0  0
 11 12  1  0  0  0  0
 11 13  1  0  0  0  0
 11 14  1  0  0  0  0
  9 10  1  0  0  0  0
  9 11  1  0  0  0  0
  9 18  1  0  0  0  0
  7  8  1  0  0  0  0
  7  9  1  0  0  0  0
 22 23  1  0  0  0  0
 22 24  1  0  0  0  0
 22 25  1  0  0  0  0
 20 21  1  0  0  0  0
 20 22  1  0  0  0  0
M  END
$$$$
default_name
  -OEChem-01062215323D

 25 24  0     1  0  0  0  0  0999 V2000
   -2.7826   -3.8464    0.7821 H   0  0  0  0  0  0  0  0  0  0  0  0
   -2.8156   -2.8034    0.4711 C   0  0  0  0  0  0  0  0  0  0  0  0
   -3.4336   -2.2354    1.1641 H   0  0  0  0  0  0  0  0  0  0  0  0
   -3.2256   -2.7344   -0.5349 H   0  0  0  0  0  0  0  0  0  0  0  0
   -1.4126   -2.2444    0.4801 C   0  0  0  0  0  0  0  0  0  0  0  0
   -0.4686   -2.9534    0.8001 O   0  0  0  0  0  0  0  0  0  0  0  0
   -1.2736   -0.9704    0.1241 N   0  0  0  0  0  0  0  0  0  0  0  0
   -2.0996   -0.4354   -0.1019 H   0  0  0  0  0  0  0  0  0  0  0  0
   -0.0016   -0.2394    0.1271 C   0  0  1  0  0  0  0  0  0  0  0  0
   -0.0265    0.5020   -0.6746 H   0  0  0  0  0  0  0  0  0  0  0  0
    0.1653    0.4905    1.4745 C   0  0  0  0  0  0  0  0  0  0  0  0
   -0.0076   -0.2113    2.2913 H   0  0  0  0  0  0  0  0  0  0  0  0
    1.1854    0.8653    1.5652 H   0  0  0  0  0  0  0  0  0  0  0  0
   -0.8128    1.6459    1.6642 C   0  0  0  0  0  0  0  0  0  0  0  0
   -1.2972    2.3239    0.7675 O   0  0  0  0  0  0  0  0  0  0  0  0
   -1.1344    1.9089    2.9445 O   0  0  0  0  0  0  0  0  0  0  0  0
   -1.7611    2.6326    2.9144 H   0  0  0  0  0  0  0  0  0  0  0  0
    1.1664   -1.2078   -0.1468 C   0  0  0  0  0  0  0  0  0  0  0  0
    2.3186   -0.7790   -0.1913 O   0  0  0  0  0  0  0  0  0  0  0  0
    0.8777   -2.5001   -0.3376 N   0  0  0  0  0  0  0  0  0  0  0  0
   -0.1024   -2.7630   -0.3483 H   0  0  0  0  0  0  0  0  0  0  0  0
    1.8724   -3.5379   -0.6002 C   0  0  0  0  0  0  0  0  0  0  0  0
    2.6545   -3.5006    0.1613 H   0  0  0  0  0  0  0  0  0  0  0  0
    1.4014   -4.5216   -0.5841 H   0  0  0  0  0  0  0  0  0  0  0  0
    2.3289   -3.3720   -1.5776 H   0  0  0  0  0  0  0  0  0  0  0  0
  5  6  2  0  0  0  0
  5  7  1  0  0  0  0
  2  3  1  0  0  0  0
  2  4  1  0  0  0  0
  2  5  1  0  0  0  0
  1  2  1  0  0  0  0
 18 19  2  0  0  0  0
 18 20  1  0  0  0  0
 16 17  1  0  0  0  0
 14 15  2  0  0  0  0
 14 16  1  0  0  0  0
 11 12  1  0  0  0  0
 11 13  1  0  0  0  0
 11 14  1  0  0  0  0
  9 10  1  0  0  0  0
  9 11  1  0  0  0  0
  9 18  1  0  0  0  0
  7  8  1  0  0  0  0
  7  9  1  0  0  0  0
 22 23  1  0  0  0  0
 22 24  1  0  0  0  0
 22 25  1  0  0  0  0
 20 21  1  0  0  0  0
 20 22  1  0  0  0  0
M  END
$$$$
default_name
  -OEChem-01062215323D

 25 24  0     1  0  0  0  0  0999 V2000
   -2.7826   -3.8464    0.7821 H   0  0  0  0  0  0  0  0  0  0  0  0
   -2.8156   -2.8034    0.4711 C   0  0  0  0  0  0  0  0  0  0  0  0
   -3.4336   -2.2354    1.1641 H   0  0  0  0  0  0  0  0  0  0  0  0
   -3.2256   -2.7344   -0.5349 H   0  0  0  0  0  0  0  0  0  0  0  0
   -1.4126   -2.2444    0.4801 C   0  0  0  0  0  0  0  0  0  0  0  0
   -0.4686   -2.9534    0.8001 O   0  0  0  0  0  0  0  0  0  0  0  0
   -1.2736   -0.9704    0.1241 N   0  0  0  0  0  0  0  0  0  0  0  0
   -2.0996   -0.4354   -0.1019 H   0  0  0  0  0  0  0  0  0  0  0  0
   -0.0016   -0.2394    0.1271 C   0  0  1  0  0  0  0  0  0  0  0  0
   -0.0265    0.5020   -0.6746 H   0  0  0  0  0  0  0  0  0  0  0  0
    0.1653    0.4905    1.4745 C   0  0  0  0  0  0  0  0  0  0  0  0
   -0.0076   -0.2113    2.2913 H   0  0  0  0  0  0  0  0  0  0  0  0
    1.1854    0.8653    1.5652 H   0  0  0  0  0  0  0  0  0  0  0  0
   -0.8128    1.6459    1.6642 C   0  0  0  0  0  0  0  0  0  0  0  0
   -1.2972    2.3239    0.7675 O   0  0  0  0  0  0  0  0  0  0  0  0
   -1.1344    1.9089    2.9445 O   0  0  0  0  0  0  0  0  0  0  0  0
   -1.7611    2.6326    2.9144 H   0  0  0  0  0  0  0  0  0  0  0  0
    1.1664   -1.2078   -0.1468 C   0  0  0  0  0  0  0  0  0  0  0  0
    2.3221   -0.8510    0.0779 O   0  0  0  0  0  0  0  0  0  0  0  0
    0.8754   -2.4188   -0.6352 N   0  0  0  0  0  0  0  0  0  0  0  0
   -0.0966   -2.6132   -0.8530 H   0  0  0  0  0  0  0  0  0  0  0  0
    1.8686   -3.4466   -0.9394 C   0  0  0  0  0  0  0  0  0  0  0  0
    2.5131   -3.6051   -0.0720 H   0  0  0  0  0  0  0  0  0  0  0  0
    1.3724   -4.3837   -1.1949 H   0  0  0  0  0  0  0  0  0  0  0  0
    2.4868   -3.1246   -1.7793 H   0  0  0  0  0  0  0  0  0  0  0  0
  5  6  2  0  0  0  0
  5  7  1  0  0  0  0
  2  3  1  0  0  0  0
  2  4  1  0  0  0  0
  2  5  1  0  0  0  0
  1  2  1  0  0  0  0
 18 19  2  0  0  0  0
 18 20  1  0  0  0  0
 16 17  1  0  0  0  0
 14 15  2  0  0  0  0
 14 16  1  0  0  0  0
 11 12  1  0  0  0  0
 11 13  1  0  0  0  0
 11 14  1  0  0  0  0
  9 10  1  0  0  0  0
  9 11  1  0  0  0  0
  9 18  1  0  0  0  0
  7  8  1  0  0  0  0
  7  9  1  0  0  0  0
 22 23  1  0  0  0  0
 22 24  1  0  0  0  0
 22 25  1  0  0  0  0
 20 21  1  0  0  0  0
 20 22  1  0  0  0  0
M  END
$$$$
default_name
  -OEChem-01062215323D

 25 24  0     1  0  0  0  0  0999 V2000
   -2.7826   -3.8464    0.7821 H   0  0  0  0  0  0  0  0  0  0  0  0
   -2.8156   -2.8034    0.4711 C   0  0  0  0  0  0  0  0  0  0  0  0
   -3.4336   -2.2354    1.1641 H   0  0  0  0  0  0  0  0  0  0  0  0
   -3.2256   -2.7344   -0.5349 H   0  0  0  0  0  0  0  0  0  0  0  0
   -1.4126   -2.2444    0.4801 C   0  0  0  0  0  0  0  0  0  0  0  0
   -0.4686   -2.9534    0.8001 O   0  0  0  0  0  0  0  0  0  0  0  0
   -1.2736   -0.9704    0.1241 N   0  0  0  0  0  0  0  0  0  0  0  0
   -2.0996   -0.4354   -0.1019 H   0  0  0  0  0  0  0  0  0  0  0  0
   -0.0016   -0.2394    0.1271 C   0  0  1  0  0  0  0  0  0  0  0  0
   -0.0265    0.5020   -0.6746 H   0  0  0  0  0  0  0  0  0  0  0  0
    0.1653    0.4905    1.4745 C   0  0  0  0  0  0  0  0  0  0  0  0
   -0.0076   -0.2113    2.2913 H   0  0  0  0  0  0  0  0  0  0  0  0
    1.1854    0.8653    1.5652 H   0  0  0  0  0  0  0  0  0  0  0  0
   -0.8128    1.6459    1.6642 C   0  0  0  0  0  0  0  0  0  0  0  0
   -1.2972    2.3239    0.7675 O   0  0  0  0  0  0  0  0  0  0  0  0
   -1.1344    1.9089    2.9445 O   0  0  0  0  0  0  0  0  0  0  0  0
   -1.7611    2.6326    2.9144 H   0  0  0  0  0  0  0  0  0  0  0  0
    1.1664   -1.2078   -0.1468 C   0  0  0  0  0  0  0  0  0  0  0  0
    2.2784   -0.9734    0.3244 O   0  0  0  0  0  0  0  0  0  0  0  0
    0.9252   -2.2818   -0.9071 N   0  0  0  0  0  0  0  0  0  0  0  0
   -0.0020   -2.3699   -1.3101 H   0  0  0  0  0  0  0  0  0  0  0  0
    1.9242   -3.2917   -1.2498 C   0  0  0  0  0  0  0  0  0  0  0  0
    2.4097   -3.6538   -0.3409 H   0  0  0  0  0  0  0  0  0  0  0  0
    1.4501   -4.1295   -1.7625 H   0  0  0  0  0  0  0  0  0  0  0  0
    2.6834   -2.8533   -1.8999 H   0  0  0  0  0  0  0  0  0  0  0  0
  5  6  2  0  0  0  0
  5  7  1  0  0  0  0
  2  3  1  0  0  0  0
  2  4  1  0  0  0  0
  2  5  1  0  0  0  0
  1  2  1  0  0  0  0
 18 19  2  0  0  0  0
 18 20  1  0  0  0  0
 16 17  1  0  0  0  0
 14 15  2  0  0  0  0
 14 16  1  0  0  0  0
 11 12  1  0  0  0  0
 11 13  1  0  0  0  0
 11 14  1  0  0  0  0
  9 10  1  0  0  0  0
  9 11  1  0  0  0  0
  9 18  1  0  0  0  0
  7  8  1  0  0  0  0
  7  9  1  0  0  0  0
 22 23  1  0  0  0  0
 22 24  1  0  0  0  0
 22 25  1  0  0  0  0
 20 21  1  0  0  0  0
 20 22  1  0  0  0  0
M  END
$$$$
default_name
  -OEChem-01062215323D

 25 24  0     1  0  0  0  0  0999 V2000
   -2.7826   -3.8464    0.7821 H   0  0  0  0  0  0  0  0  0  0  0  0
   -2.8156   -2.8034    0.4711 C   0  0  0  0  0  0  0  0  0  0  0  0
   -3.4336   -2.2354    1.1641 H   0  0  0  0  0  0  0  0  0  0  0  0
   -3.2256   -2.7344   -0.5349 H   0  0  0  0  0  0  0  0  0  0  0  0
   -1.4126   -2.2444    0.4801 C   0  0  0  0  0  0  0  0  0  0  0  0
   -0.4686   -2.9534    0.8001 O   0  0  0  0  0  0  0  0  0  0  0  0
   -1.2736   -0.9704    0.1241 N   0  0  0  0  0  0  0  0  0  0  0  0
   -2.0996   -0.4354   -0.1019 H   0  0  0  0  0  0  0  0  0  0  0  0
   -0.0016   -0.2394    0.1271 C   0  0  1  0  0  0  0  0  0  0  0  0
   -0.0265    0.5020   -0.6746 H   0  0  0  0  0  0  0  0  0  0  0  0
    0.1653    0.4905    1.4745 C   0  0  0  0  0  0  0  0  0  0  0  0
   -0.0076   -0.2113    2.2913 H   0  0  0  0  0  0  0  0  0  0  0  0
    1.1854    0.8653    1.5652 H   0  0  0  0  0  0  0  0  0  0  0  0
   -0.8128    1.6459    1.6642 C   0  0  0  0  0  0  0  0  0  0  0  0
   -1.2972    2.3239    0.7675 O   0  0  0  0  0  0  0  0  0  0  0  0
   -1.1344    1.9089    2.9445 O   0  0  0  0  0  0  0  0  0  0  0  0
   -1.7611    2.6326    2.9144 H   0  0  0  0  0  0  0  0  0  0  0  0
    1.1664   -1.2078   -0.1468 C   0  0  0  0  0  0  0  0  0  0  0  0
    2.1904   -1.1380    0.5314 O   0  0  0  0  0  0  0  0  0  0  0  0
    1.0238   -2.0985   -1.1348 N   0  0  0  0  0  0  0  0  0  0  0  0
    0.1748   -2.0496   -1.6886 H   0  0  0  0  0  0  0  0  0  0  0  0
    2.0356   -3.0837   -1.5102 C   0  0  0  0  0  0  0  0  0  0  0  0
    2.3513   -3.6433   -0.6270 H   0  0  0  0  0  0  0  0  0  0  0  0
    1.6291   -3.7762   -2.2484 H   0  0  0  0  0  0  0  0  0  0  0  0
    2.9055   -2.5766   -1.9313 H   0  0  0  0  0  0  0  0  0  0  0  0
  5  6  2  0  0  0  0
  5  7  1  0  0  0  0
  2  3  1  0  0  0  0
  2  4  1  0  0  0  0
  2  5  1  0  0  0  0
  1  2  1  0  0  0  0
 18 19  2  0  0  0  0
 18 20  1  0  0  0  0
 16 17  1  0  0  0  0
 14 15  2  0  0  0  0
 14 16  1  0  0  0  0
 11 12  1  0  0  0  0
 11 13  1  0  0  0  0
 11 14  1  0  0  0  0
  9 10  1  0  0  0  0
  9 11  1  0  0  0  0
  9 18  1  0  0  0  0
  7  8  1  0  0  0  0
  7  9  1  0  0  0  0
 22 23  1  0  0  0  0
 22 24  1  0  0  0  0
 22 25  1  0  0  0  0
 20 21  1  0  0  0  0
 20 22  1  0  0  0  0
M  END
$$$$
default_name
  -OEChem-01062215323D

 25 24  0     1  0  0  0  0  0999 V2000
   -2.7826   -3.8464    0.7821 H   0  0  0  0  0  0  0  0  0  0  0  0
   -2.8156   -2.8034    0.4711 C   0  0  0  0  0  0  0  0  0  0  0  0
   -3.4336   -2.2354    1.1641 H   0  0  0  0  0  0  0  0  0  0  0  0
   -3.2256   -2.7344   -0.5349 H   0  0  0  0  0  0  0  0  0  0  0  0
   -1.4126   -2.2444    0.4801 C   0  0  0  0  0  0  0  0  0  0  0  0
   -0.4686   -2.9534    0.8001 O   0  0  0  0  0  0  0  0  0  0  0  0
   -1.2736   -0.9704    0.1241 N   0  0  0  0  0  0  0  0  0  0  0  0
   -2.0996   -0.4354   -0.1019 H   0  0  0  0  0  0  0  0  0  0  0  0
   -0.0016   -0.2394    0.1271 C   0  0  1  0  0  0  0  0  0  0  0  0
   -0.0265    0.5020   -0.6746 H   0  0  0  0  0  0  0  0  0  0  0  0
    0.1653    0.4905    1.4745 C   0  0  0  0  0  0  0  0  0  0  0  0
   -0.0076   -0.2113    2.2913 H   0  0  0  0  0  0  0  0  0  0  0  0
    1.1854    0.8653    1.5652 H   0  0  0  0  0  0  0  0  0  0  0  0
   -0.8128    1.6459    1.6642 C   0  0  0  0  0  0  0  0  0  0  0  0
   -1.2972    2.3239    0.7675 O   0  0  0  0  0  0  0  0  0  0  0  0
   -1.1344    1.9089    2.9445 O   0  0  0  0  0  0  0  0  0  0  0  0
   -1.7611    2.6326    2.9144 H   0  0  0  0  0  0  0  0  0  0  0  0
    1.1664   -1.2078   -0.1468 C   0  0  0  0  0  0  0  0  0  0  0  0
    2.0643   -1.3336    0.6847 O   0  0  0  0  0  0  0  0  0  0  0  0
    1.1645   -1.8813   -1.3027 N   0  0  0  0  0  0  0  0  0  0  0  0
    0.4218   -1.6741   -1.9626 H   0  0  0  0  0  0  0  0  0  0  0  0
    2.1950   -2.8370   -1.7029 C   0  0  0  0  0  0  0  0  0  0  0  0
    2.3418   -3.5745   -0.9108 H   0  0  0  0  0  0  0  0  0  0  0  0
    1.8972   -3.3480   -2.6193 H   0  0  0  0  0  0  0  0  0  0  0  0
    3.1377   -2.3134   -1.8713 H   0  0  0  0  0  0  0  0  0  0  0  0
  5  6  2  0  0  0  0
  5  7  1  0  0  0  0
  2  3  1  0  0  0  0
  2  4  1  0  0  0  0
  2  5  1  0  0  0  0
  1  2  1  0  0  0  0
 18 19  2  0  0  0  0
 18 20  1  0  0  0  0
 16 17  1  0  0  0  0
 14 15  2  0  0  0  0
 14 16  1  0  0  0  0
 11 12  1  0  0  0  0
 11 13  1  0  0  0  0
 11 14  1  0  0  0  0
  9 10  1  0  0  0  0
  9 11  1  0  0  0  0
  9 18  1  0  0  0  0
  7  8  1  0  0  0  0
  7  9  1  0  0  0  0
 22 23  1  0  0  0  0
 22 24  1  0  0  0  0
 22 25  1  0  0  0  0
 20 21  1  0  0  0  0
 20 22  1  0  0  0  0
M  END
$$$$
default_name
  -OEChem-01062215323D

 25 24  0     1  0  0  0  0  0999 V2000
   -2.7826   -3.8464    0.7821 H   0  0  0  0  0  0  0  0  0  0  0  0
   -2.8156   -2.8034    0.4711 C   0  0  0  0  0  0  0  0  0  0  0  0
   -3.4336   -2.2354    1.1641 H   0  0  0  0  0  0  0  0  0  0  0  0
   -3.2256   -2.7344   -0.5349 H   0  0  0  0  0  0  0  0  0  0  0  0
   -1.4126   -2.2444    0.4801 C   0  0  0  0  0  0  0  0  0  0  0  0
   -0.4686   -2.9534    0.8001 O   0  0  0  0  0  0  0  0  0  0  0  0
   -1.2736   -0.9704    0.1241 N   0  0  0  0  0  0  0  0  0  0  0  0
   -2.0996   -0.4354   -0.1019 H   0  0  0  0  0  0  0  0  0  0  0  0
   -0.0016   -0.2394    0.1271 C   0  0  1  0  0  0  0  0  0  0  0  0
   -0.0265    0.5020   -0.6746 H   0  0  0  0  0  0  0  0  0  0  0  0
    0.1653    0.4905    1.4745 C   0  0  0  0  0  0  0  0  0  0  0  0
   -0.0076   -0.2113    2.2913 H   0  0  0  0  0  0  0  0  0  0  0  0
    1.1854    0.8653    1.5652 H   0  0  0  0  0  0  0  0  0  0  0  0
   -0.8128    1.6459    1.6642 C   0  0  0  0  0  0  0  0  0  0  0  0
   -1.2972    2.3239    0.7675 O   0  0  0  0  0  0  0  0  0  0  0  0
   -1.1344    1.9089    2.9445 O   0  0  0  0  0  0  0  0  0  0  0  0
   -1.7611    2.6326    2.9144 H   0  0  0  0  0  0  0  0  0  0  0  0
    1.1664   -1.2078   -0.1468 C   0  0  0  0  0  0  0  0  0  0  0  0
    1.9085   -1.5467    0.7740 O   0  0  0  0  0  0  0  0  0  0  0  0
    1.3376   -1.6450   -1.3995 N   0  0  0  0  0  0  0  0  0  0  0  0
    0.7223   -1.2691   -2.1135 H   0  0  0  0  0  0  0  0  0  0  0  0
    2.3917   -2.5681   -1.8146 C   0  0  0  0  0  0  0  0  0  0  0  0
    2.3820   -3.4519   -1.1729 H   0  0  0  0  0  0  0  0  0  0  0  0
    2.2361   -2.8739   -2.8500 H   0  0  0  0  0  0  0  0  0  0  0  0
    3.3644   -2.0817   -1.7239 H   0  0  0  0  0  0  0  0  0  0  0  0
  5  6  2  0  0  0  0
  5  7  1  0  0  0  0
  2  3  1  0  0  0  0
  2  4  1  0  0  0  0
  2  5  1  0  0  0  0
  1  2  1  0  0  0  0
 18 19  2  0  0  0  0
 18 20  1  0  0  0  0
 16 17  1  0  0  0  0
 14 15  2  0  0  0  0
 14 16  1  0  0  0  0
 11 12  1  0  0  0  0
 11 13  1  0  0  0  0
 11 14  1  0  0  0  0
  9 10  1  0  0  0  0
  9 11  1  0  0  0  0
  9 18  1  0  0  0  0
  7  8  1  0  0  0  0
  7  9  1  0  0  0  0
 22 23  1  0  0  0  0
 22 24  1  0  0  0  0
 22 25  1  0  0  0  0
 20 21  1  0  0  0  0
 20 22  1  0  0  0  0
M  END
$$$$
default_name
  -OEChem-01062215323D

 25 24  0     1  0  0  0  0  0999 V2000
   -2.7826   -3.8464    0.7821 H   0  0  0  0  0  0  0  0  0  0  0  0
   -2.8156   -2.8034    0.4711 C   0  0  0  0  0  0  0  0  0  0  0  0
   -3.4336   -2.2354    1.1641 H   0  0  0  0  0  0  0  0  0  0  0  0
   -3.2256   -2.7344   -0.5349 H   0  0  0  0  0  0  0  0  0  0  0  0
   -1.4126   -2.2444    0.4801 C   0  0  0  0  0  0  0  0  0  0  0  0
   -0.4686   -2.9534    0.8001 O   0  0  0  0  0  0  0  0  0  0  0  0
   -1.2736   -0.9704    0.1241 N   0  0  0  0  0  0  0  0  0  0  0  0
   -2.0996   -0.4354   -0.1019 H   0  0  0  0  0  0  0  0  0  0  0  0
   -0.0016   -0.2394    0.1271 C   0  0  1  0  0  0  0  0  0  0  0  0
   -0.0265    0.5020   -0.6746 H   0  0  0  0  0  0  0  0  0  0  0  0
    0.1653    0.4905    1.4745 C   0  0  0  0  0  0  0  0  0  0  0  0
   -0.0076   -0.2113    2.2913 H   0  0  0  0  0  0  0  0  0  0  0  0
    1.1854    0.8653    1.5652 H   0  0  0  0  0  0  0  0  0  0  0  0
   -0.8128    1.6459    1.6642 C   0  0  0  0  0  0  0  0  0  0  0  0
   -1.2972    2.3239    0.7675 O   0  0  0  0  0  0  0  0  0  0  0  0
   -1.1344    1.9089    2.9445 O   0  0  0  0  0  0  0  0  0  0  0  0
   -1.7611    2.6326    2.9144 H   0  0  0  0  0  0  0  0  0  0  0  0
    1.1664   -1.2078   -0.1468 C   0  0  0  0  0  0  0  0  0  0  0  0
    1.7337   -1.7629    0.7931 O   0  0  0  0  0  0  0  0  0  0  0  0
    1.5315   -1.4058   -1.4185 N   0  0  0  0  0  0  0  0  0  0  0  0
    1.0556   -0.8621   -2.1310 H   0  0  0  0  0  0  0  0  0  0  0  0
    2.6122   -2.2956   -1.8379 C   0  0  0  0  0  0  0  0  0  0  0  0
    2.4691   -3.2839   -1.3955 H   0  0  0  0  0  0  0  0  0  0  0  0
    2.6228   -2.3863   -2.9248 H   0  0  0  0  0  0  0  0  0  0  0  0
    3.5701   -1.8971   -1.4993 H   0  0  0  0  0  0  0  0  0  0  0  0
  5  6  2  0  0  0  0
  5  7  1  0  0  0  0
  2  3  1  0  0  0  0
  2  4  1  0  0  0  0
  2  5  1  0  0  0  0
  1  2  1  0  0  0  0
 18 19  2  0  0  0  0
 18 20  1  0  0  0  0
 16 17  1  0  0  0  0
 14 15  2  0  0  0  0
 14 16  1  0  0  0  0
 11 12  1  0  0  0  0
 11 13  1  0  0  0  0
 11 14  1  0  0  0  0
  9 10  1  0  0  0  0
  9 11  1  0  0  0  0
  9 18  1  0  0  0  0
  7  8  1  0  0  0  0
  7  9  1  0  0  0  0
 22 23  1  0  0  0  0
 22 24  1  0  0  0  0
 22 25  1  0  0  0  0
 20 21  1  0  0  0  0
 20 22  1  0  0  0  0
M  END
$$$$
default_name
  -OEChem-01062215323D

 25 24  0     1  0  0  0  0  0999 V2000
   -2.7826   -3.8464    0.7821 H   0  0  0  0  0  0  0  0  0  0  0  0
   -2.8156   -2.8034    0.4711 C   0  0  0  0  0  0  0  0  0  0  0  0
   -3.4336   -2.2354    1.1641 H   0  0  0  0  0  0  0  0  0  0  0  0
   -3.2256   -2.7344   -0.5349 H   0  0  0  0  0  0  0  0  0  0  0  0
   -1.4126   -2.2444    0.4801 C   0  0  0  0  0  0  0  0  0  0  0  0
   -0.4686   -2.9534    0.8001 O   0  0  0  0  0  0  0  0  0  0  0  0
   -1.2736   -0.9704    0.1241 N   0  0  0  0  0  0  0  0  0  0  0  0
   -2.0996   -0.4354   -0.1019 H   0  0  0  0  0  0  0  0  0  0  0  0
   -0.0016   -0.2394    0.1271 C   0  0  1  0  0  0  0  0  0  0  0  0
   -0.0265    0.5020   -0.6746 H   0  0  0  0  0  0  0  0  0  0  0  0
    0.1653    0.4905    1.4745 C   0  0  0  0  0  0  0  0  0  0  0  0
   -0.0076   -0.2113    2.2913 H   0  0  0  0  0  0  0  0  0  0  0  0
    1.1854    0.8653    1.5652 H   0  0  0  0  0  0  0  0  0  0  0  0
   -0.8128    1.6459    1.6642 C   0  0  0  0  0  0  0  0  0  0  0  0
   -1.2972    2.3239    0.7675 O   0  0  0  0  0  0  0  0  0  0  0  0
   -1.1344    1.9089    2.9445 O   0  0  0  0  0  0  0  0  0  0  0  0
   -1.7611    2.6326    2.9144 H   0  0  0  0  0  0  0  0  0  0  0  0
    1.1664   -1.2078   -0.1468 C   0  0  0  0  0  0  0  0  0  0  0  0
    1.5519   -1.9675    0.7408 O   0  0  0  0  0  0  0  0  0  0  0  0
    1.7329   -1.1799   -1.3584 N   0  0  0  0  0  0  0  0  0  0  0  0
    1.3992   -0.4808   -2.0139 H   0  0  0  0  0  0  0  0  0  0  0  0
    2.8415   -2.0379   -1.7711 C   0  0  0  0  0  0  0  0  0  0  0  0
    2.5971   -3.0820   -1.5635 H   0  0  0  0  0  0  0  0  0  0  0  0
    3.0309   -1.9184   -2.8386 H   0  0  0  0  0  0  0  0  0  0  0  0
    3.7408   -1.7724   -1.2127 H   0  0  0  0  0  0  0  0  0  0  0  0
  5  6  2  0  0  0  0
  5  7  1  0  0  0  0
  2  3  1  0  0  0  0
  2  4  1  0  0  0  0
  2  5  1  0  0  0  0
  1  2  1  0  0  0  0
 18 19  2  0  0  0  0
 18 20  1  0  0  0  0
 16 17  1  0  0  0  0
 14 15  2  0  0  0  0
 14 16  1  0  0  0  0
 11 12  1  0  0  0  0
 11 13  1  0  0  0  0
 11 14  1  0  0  0  0
  9 10  1  0  0  0  0
  9 11  1  0  0  0  0
  9 18  1  0  0  0  0
  7  8  1  0  0  0  0
  7  9  1  0  0  0  0
 22 23  1  0  0  0  0
 22 24  1  0  0  0  0
 22 25  1  0  0  0  0
 20 21  1  0  0  0  0
 20 22  1  0  0  0  0
M  END
$$$$
default_name
  -OEChem-01062215323D

 25 24  0     1  0  0  0  0  0999 V2000
   -2.7826   -3.8464    0.7821 H   0  0  0  0  0  0  0  0  0  0  0  0
   -2.8156   -2.8034    0.4711 C   0  0  0  0  0  0  0  0  0  0  0  0
   -3.4336   -2.2354    1.1641 H   0  0  0  0  0  0  0  0  0  0  0  0
   -3.2256   -2.7344   -0.5349 H   0  0  0  0  0  0  0  0  0  0  0  0
   -1.4126   -2.2444    0.4801 C   0  0  0  0  0  0  0  0  0  0  0  0
   -0.4686   -2.9534    0.8001 O   0  0  0  0  0  0  0  0  0  0  0  0
   -1.2736   -0.9704    0.1241 N   0  0  0  0  0  0  0  0  0  0  0  0
   -2.0996   -0.4354   -0.1019 H   0  0  0  0  0  0  0  0  0  0  0  0
   -0.0016   -0.2394    0.1271 C   0  0  1  0  0  0  0  0  0  0  0  0
   -0.0265    0.5020   -0.6746 H   0  0  0  0  0  0  0  0  0  0  0  0
    0.1653    0.4905    1.4745 C   0  0  0  0  0  0  0  0  0  0  0  0
   -0.0076   -0.2113    2.2913 H   0  0  0  0  0  0  0  0  0  0  0  0
    1.1854    0.8653    1.5652 H   0  0  0  0  0  0  0  0  0  0  0  0
   -0.8128    1.6459    1.6642 C   0  0  0  0  0  0  0  0  0  0  0  0
   -1.2972    2.3239    0.7675 O   0  0  0  0  0  0  0  0  0  0  0  0
   -1.1344    1.9089    2.9445 O   0  0  0  0  0  0  0  0  0  0  0  0
   -1.7611    2.6326    2.9144 H   0  0  0  0  0  0  0  0  0  0  0  0
    1.1664   -1.2078   -0.1468 C   0  0  0  0  0  0  0  0  0  0  0  0
    1.3753   -2.1464    0.6206 O   0  0  0  0  0  0  0  0  0  0  0  0
    1.9280   -0.9828   -1.2233 N   0  0  0  0  0  0  0  0  0  0  0  0
    1.7295   -0.1513   -1.7702 H   0  0  0  0  0  0  0  0  0  0  0  0
    3.0639   -1.8127   -1.6188 C   0  0  0  0  0  0  0  0  0  0  0  0
    2.7573   -2.8599   -1.6653 H   0  0  0  0  0  0  0  0  0  0  0  0
    3.4327   -1.5022   -2.5973 H   0  0  0  0  0  0  0  0  0  0  0  0
    3.8648   -1.7159   -0.8837 H   0  0  0  0  0  0  0  0  0  0  0  0
  5  6  2  0  0  0  0
  5  7  1  0  0  0  0
  2  3  1  0  0  0  0
  2  4  1  0  0  0  0
  2  5  1  0  0  0  0
  1  2  1  0  0  0  0
 18 19  2  0  0  0  0
 18 20  1  0  0  0  0
 16 17  1  0  0  0  0
 14 15  2  0  0  0  0
 14 16  1  0  0  0  0
 11 12  1  0  0  0  0
 11 13  1  0  0  0  0
 11 14  1  0  0  0  0
  9 10  1  0  0  0  0
  9 11  1  0  0  0  0
  9 18  1  0  0  0  0
  7  8  1  0  0  0  0
  7  9  1  0  0  0  0
 22 23  1  0  0  0  0
 22 24  1  0  0  0  0
 22 25  1  0  0  0  0
 20 21  1  0  0  0  0
 20 22  1  0  0  0  0
M  END
$$$$
default_name
  -OEChem-01062215323D

 25 24  0     1  0  0  0  0  0999 V2000
   -2.7826   -3.8464    0.7821 H   0  0  0  0  0  0  0  0  0  0  0  0
   -2.8156   -2.8034    0.4711 C   0  0  0  0  0  0  0  0  0  0  0  0
   -3.4336   -2.2354    1.1641 H   0  0  0  0  0  0  0  0  0  0  0  0
   -3.2256   -2.7344   -0.5349 H   0  0  0  0  0  0  0  0  0  0  0  0
   -1.4126   -2.2444    0.4801 C   0  0  0  0  0  0  0  0  0  0  0  0
   -0.4686   -2.9534    0.8001 O   0  0  0  0  0  0  0  0  0  0  0  0
   -1.2736   -0.9704    0.1241 N   0  0  0  0  0  0  0  0  0  0  0  0
   -2.0996   -0.4354   -0.1019 H   0  0  0  0  0  0  0  0  0  0  0  0
   -0.0016   -0.2394    0.1271 C   0  0  1  0  0  0  0  0  0  0  0  0
   -0.0265    0.5020   -0.6746 H   0  0  0  0  0  0  0  0  0  0  0  0
    0.1653    0.4905    1.4745 C   0  0  0  0  0  0  0  0  0  0  0  0
   -0.0076   -0.2113    2.2913 H   0  0  0  0  0  0  0  0  0  0  0  0
    1.1854    0.8653    1.5652 H   0  0  0  0  0  0  0  0  0  0  0  0
   -0.8128    1.6459    1.6642 C   0  0  0  0  0  0  0  0  0  0  0  0
   -1.2972    2.3239    0.7675 O   0  0  0  0  0  0  0  0  0  0  0  0
   -1.1344    1.9089    2.9445 O   0  0  0  0  0  0  0  0  0  0  0  0
   -1.7611    2.6326    2.9144 H   0  0  0  0  0  0  0  0  0  0  0  0
    1.1664   -1.2078   -0.1468 C   0  0  0  0  0  0  0  0  0  0  0  0
    1.2160   -2.2876    0.4406 O   0  0  0  0  0  0  0  0  0  0  0  0
    2.1036   -0.8278   -1.0225 N   0  0  0  0  0  0  0  0  0  0  0  0
    2.0242    0.1040   -1.4165 H   0  0  0  0  0  0  0  0  0  0  0  0
    3.2644   -1.6352   -1.3914 C   0  0  0  0  0  0  0  0  0  0  0  0
    2.9388   -2.6328   -1.6941 H   0  0  0  0  0  0  0  0  0  0  0  0
    3.8006   -1.1659   -2.2172 H   0  0  0  0  0  0  0  0  0  0  0  0
    3.9336   -1.7316   -0.5346 H   0  0  0  0  0  0  0  0  0  0  0  0
  5  6  2  0  0  0  0
  5  7  1  0  0  0  0
  2  3  1  0  0  0  0
  2  4  1  0  0  0  0
  2  5  1  0  0  0  0
  1  2  1  0  0  0  0
 18 19  2  0  0  0  0
 18 20  1  0  0  0  0
 16 17  1  0  0  0  0
 14 15  2  0  0  0  0
 14 16  1  0  0  0  0
 11 12  1  0  0  0  0
 11 13  1  0  0  0  0
 11 14  1  0  0  0  0
  9 10  1  0  0  0  0
  9 11  1  0  0  0  0
  9 18  1  0  0  0  0
  7  8  1  0  0  0  0
  7  9  1  0  0  0  0
 22 23  1  0  0  0  0
 22 24  1  0  0  0  0
 22 25  1  0  0  0  0
 20 21  1  0  0  0  0
 20 22  1  0  0  0  0
M  END
$$$$
default_name
  -OEChem-01062215323D

 25 24  0     1  0  0  0  0  0999 V2000
   -2.7826   -3.8464    0.7821 H   0  0  0  0  0  0  0  0  0  0  0  0
   -2.8156   -2.8034    0.4711 C   0  0  0  0  0  0  0  0  0  0  0  0
   -3.4336   -2.2354    1.1641 H   0  0  0  0  0  0  0  0  0  0  0  0
   -3.2256   -2.7344   -0.5349 H   0  0  0  0  0  0  0  0  0  0  0  0
   -1.4126   -2.2444    0.4801 C   0  0  0  0  0  0  0  0  0  0  0  0
   -0.4686   -2.9534    0.8001 O   0  0  0  0  0  0  0  0  0  0  0  0
   -1.2736   -0.9704    0.1241 N   0  0  0  0  0  0  0  0  0  0  0  0
   -2.0996   -0.4354   -0.1019 H   0  0  0  0  0  0  0  0  0  0  0  0
   -0.0016   -0.2394    0.1271 C   0  0  1  0  0  0  0  0  0  0  0  0
   -0.0265    0.5020   -0.6746 H   0  0  0  0  0  0  0  0  0  0  0  0
    0.1653    0.4905    1.4745 C   0  0  0  0  0  0  0  0  0  0  0  0
   -0.0076   -0.2113    2.2913 H   0  0  0  0  0  0  0  0  0  0  0  0
    1.1854    0.8653    1.5652 H   0  0  0  0  0  0  0  0  0  0  0  0
   -0.8128    1.6459    1.6642 C   0  0  0  0  0  0  0  0  0  0  0  0
   -1.2972    2.3239    0.7675 O   0  0  0  0  0  0  0  0  0  0  0  0
   -1.1344    1.9089    2.9445 O   0  0  0  0  0  0  0  0  0  0  0  0
   -1.7611    2.6326    2.9144 H   0  0  0  0  0  0  0  0  0  0  0  0
    1.1664   -1.2078   -0.1468 C   0  0  0  0  0  0  0  0  0  0  0  0
    1.0850   -2.3814    0.2133 O   0  0  0  0  0  0  0  0  0  0  0  0
    2.2477   -0.7256   -0.7696 N   0  0  0  0  0  0  0  0  0  0  0  0
    2.2630    0.2677   -0.9769 H   0  0  0  0  0  0  0  0  0  0  0  0
    3.4293   -1.5176   -1.1043 C   0  0  0  0  0  0  0  0  0  0  0  0
    3.1293   -2.4162   -1.6478 H   0  0  0  0  0  0  0  0  0  0  0  0
    4.1096   -0.9325   -1.7243 H   0  0  0  0  0  0  0  0  0  0  0  0
    3.9427   -1.8183   -0.1893 H   0  0  0  0  0  0  0  0  0  0  0  0
  5  6  2  0  0  0  0
  5  7  1  0  0  0  0
  2  3  1  0  0  0  0
  2  4  1  0  0  0  0
  2  5  1  0  0  0  0
  1  2  1  0  0  0  0
 18 19  2  0  0  0  0
 18 20  1  0  0  0  0
 16 17  1  0  0  0  0
 14 15  2  0  0  0  0
 14 16  1  0  0  0  0
 11 12  1  0  0  0  0
 11 13  1  0  0  0  0
 11 14  1  0  0  0  0
  9 10  1  0  0  0  0
  9 11  1  0  0  0  0
  9 18  1  0  0  0  0
  7  8  1  0  0  0  0
  7  9  1  0  0  0  0
 22 23  1  0  0  0  0
 22 24  1  0  0  0  0
 22 25  1  0  0  0  0
 20 21  1  0  0  0  0
 20 22  1  0  0  0  0
M  END
$$$$
default_name
  -OEChem-01062215323D

 25 24  0     1  0  0  0  0  0999 V2000
   -2.7826   -3.8464    0.7821 H   0  0  0  0  0  0  0  0  0  0  0  0
   -2.8156   -2.8034    0.4711 C   0  0  0  0  0  0  0  0  0  0  0  0
   -3.4336   -2.2354    1.1641 H   0  0  0  0  0  0  0  0  0  0  0  0
   -3.2256   -2.7344   -0.5349 H   0  0  0  0  0  0  0  0  0  0  0  0
   -1.4126   -2.2444    0.4801 C   0  0  0  0  0  0  0  0  0  0  0  0
   -0.4686   -2.9534    0.8001 O   0  0  0  0  0  0  0  0  0  0  0  0
   -1.2736   -0.9704    0.1241 N   0  0  0  0  0  0  0  0  0  0  0  0
   -2.0996   -0.4354   -0.1019 H   0  0  0  0  0  0  0  0  0  0  0  0
   -0.0016   -0.2394    0.1271 C   0  0  1  0  0  0  0  0  0  0  0  0
   -0.0265    0.5020   -0.6746 H   0  0  0  0  0  0  0  0  0  0  0  0
    0.1653    0.4905    1.4745 C   0  0  0  0  0  0  0  0  0  0  0  0
   -0.0076   -0.2113    2.2913 H   0  0  0  0  0  0  0  0  0  0  0  0
    1.1854    0.8653    1.5652 H   0  0  0  0  0  0  0  0  0  0  0  0
   -0.8128    1.6459    1.6642 C   0  0  0  0  0  0  0  0  0  0  0  0
   -1.2972    2.3239    0.7675 O   0  0  0  0  0  0  0  0  0  0  0  0
   -1.1344    1.9089    2.9445 O   0  0  0  0  0  0  0  0  0  0  0  0
   -1.7611    2.6326    2.9144 H   0  0  0  0  0  0  0  0  0  0  0  0
    1.1664   -1.2078   -0.1468 C   0  0  0  0  0  0  0  0  0  0  0  0
    0.9910   -2.4213   -0.0460 O   0  0  0  0  0  0  0  0  0  0  0  0
    2.3504   -0.6830   -0.4818 N   0  0  0  0  0  0  0  0  0  0  0  0
    2.4297    0.3287   -0.4813 H   0  0  0  0  0  0  0  0  0  0  0  0
    3.5472   -1.4678   -0.7771 C   0  0  0  0  0  0  0  0  0  0  0  0
    3.3157   -2.2247   -1.5297 H   0  0  0  0  0  0  0  0  0  0  0  0
    4.3388   -0.8179   -1.1523 H   0  0  0  0  0  0  0  0  0  0  0  0
    3.8913   -1.9702    0.1286 H   0  0  0  0  0  0  0  0  0  0  0  0
  5  6  2  0  0  0  0
  5  7  1  0  0  0  0
  2  3  1  0  0  0  0
  2  4  1  0  0  0  0
  2  5  1  0  0  0  0
  1  2  1  0  0  0  0
 18 19  2  0  0  0  0
 18 20  1  0  0  0  0
 16 17  1  0  0  0  0
 14 15  2  0  0  0  0
 14 16  1  0  0  0  0
 11 12  1  0  0  0  0
 11 13  1  0  0  0  0
 11 14  1  0  0  0  0
  9 10  1  0  0  0  0
  9 11  1  0  0  0  0
  9 18  1  0  0  0  0
  7  8  1  0  0  0  0
  7  9  1  0  0  0  0
 22 23  1  0  0  0  0
 22 24  1  0  0  0  0
 22 25  1  0  0  0  0
 20 21  1  0  0  0  0
 20 22  1  0  0  0  0
M  END
$$$$
default_name
  -OEChem-01062215323D

 25 24  0     1  0  0  0  0  0999 V2000
   -2.7826   -3.8464    0.7821 H   0  0  0  0  0  0  0  0  0  0  0  0
   -2.8156   -2.8034    0.4711 C   0  0  0  0  0  0  0  0  0  0  0  0
   -3.4336   -2.2354    1.1641 H   0  0  0  0  0  0  0  0  0  0  0  0
   -3.2256   -2.7344   -0.5349 H   0  0  0  0  0  0  0  0  0  0  0  0
   -1.4126   -2.2444    0.4801 C   0  0  0  0  0  0  0  0  0  0  0  0
   -0.4686   -2.9534    0.8001 O   0  0  0  0  0  0  0  0  0  0  0  0
   -1.2736   -0.9704    0.1241 N   0  0  0  0  0  0  0  0  0  0  0  0
   -2.0996   -0.4354   -0.1019 H   0  0  0  0  0  0  0  0  0  0  0  0
   -0.0016   -0.2394    0.1271 C   0  0  1  0  0  0  0  0  0  0  0  0
   -0.1192    0.6625   -0.4776 H   0  0  0  0  0  0  0  0  0  0  0  0
    0.3481    0.1720    1.5709 C   0  0  0  0  0  0  0  0  0  0  0  0
    0.2721   -0.6977    2.2246 H   0  0  0  0  0  0  0  0  0  0  0  0
    1.3766    0.5325    1.6111 H   0  0  0  0  0  0  0  0  0  0  0  0
   -0.5809    1.2404    2.1395 C   0  0  0  0  0  0  0  0  0  0  0  0
   -1.1672    2.0948    1.4880 O   0  0  0  0  0  0  0  0  0  0  0  0
   -0.7309    1.2045    3.4767 O   0  0  0  0  0  0  0  0  0  0  0  0
   -1.3458    1.9068    3.6908 H   0  0  0  0  0  0  0  0  0  0  0  0
    1.1074   -1.1037   -0.5054 C   0  0  0  0  0  0  0  0  0  0  0  0
    0.8443   -2.2347   -0.9118 O   0  0  0  0  0  0  0  0  0  0  0  0
    2.3384   -0.5859   -0.5827 N   0  0  0  0  0  0  0  0  0  0  0  0
    2.4875    0.3280   -0.1674 H   0  0  0  0  0  0  0  0  0  0  0  0
    3.4898   -1.2768   -1.1592 C   0  0  0  0  0  0  0  0  0  0  0  0
    3.2396   -1.6405   -2.1582 H   0  0  0  0  0  0  0  0  0  0  0  0
    4.3401   -0.5969   -1.2265 H   0  0  0  0  0  0  0  0  0  0  0  0
    3.7584   -2.1303   -0.5343 H   0  0  0  0  0  0  0  0  0  0  0  0
  5  6  2  0  0  0  0
  5  7  1  0  0  0  0
  2  3  1  0  0  0  0
  2  4  1  0  0  0  0
  2  5  1  0  0  0  0
  1  2  1  0  0  0  0
 18 19  2  0  0  0  0
 18 20  1  0  0  0  0
 16 17  1  0  0  0  0
 14 15  2  0  0  0  0
 14 16  1  0  0  0  0
 11 12  1  0  0  0  0
 11 13  1  0  0  0  0
 11 14  1  0  0  0  0
  9 10  1  0  0  0  0
  9 11  1  0  0  0  0
  9 18  1  0  0  0  0
  7  8  1  0  0  0  0
  7  9  1  0  0  0  0
 22 23  1  0  0  0  0
 22 24  1  0  0  0  0
 22 25  1  0  0  0  0
 20 21  1  0  0  0  0
 20 22  1  0  0  0  0
M  END
$$$$
default_name
  -OEChem-01062215323D

 25 24  0     1  0  0  0  0  0999 V2000
   -2.7826   -3.8464    0.7821 H   0  0  0  0  0  0  0  0  0  0  0  0
   -2.8156   -2.8034    0.4711 C   0  0  0  0  0  0  0  0  0  0  0  0
   -3.4336   -2.2354    1.1641 H   0  0  0  0  0  0  0  0  0  0  0  0
   -3.2256   -2.7344   -0.5349 H   0  0  0  0  0  0  0  0  0  0  0  0
   -1.4126   -2.2444    0.4801 C   0  0  0  0  0  0  0  0  0  0  0  0
   -0.4686   -2.9534    0.8001 O   0  0  0  0  0  0  0  0  0  0  0  0
   -1.2736   -0.9704    0.1241 N   0  0  0  0  0  0  0  0  0  0  0  0
   -2.0996   -0.4354   -0.1019 H   0  0  0  0  0  0  0  0  0  0  0  0
   -0.0016   -0.2394    0.1271 C   0  0  1  0  0  0  0  0  0  0  0  0
   -0.1192    0.6625   -0.4776 H   0  0  0  0  0  0  0  0  0  0  0  0
    0.3481    0.1720    1.5709 C   0  0  0  0  0  0  0  0  0  0  0  0
    0.2721   -0.6977    2.2246 H   0  0  0  0  0  0  0  0  0  0  0  0
    1.3766    0.5325    1.6111 H   0  0  0  0  0  0  0  0  0  0  0  0
   -0.5809    1.2404    2.1395 C   0  0  0  0  0  0  0  0  0  0  0  0
   -1.1672    2.0948    1.4880 O   0  0  0  0  0  0  0  0  0  0  0  0
   -0.7309    1.2045    3.4767 O   0  0  0  0  0  0  0  0  0  0  0  0
   -1.3458    1.9068    3.6908 H   0  0  0  0  0  0  0  0  0  0  0  0
    1.1074   -1.1037   -0.5054 C   0  0  0  0  0  0  0  0  0  0  0  0
    0.8071   -2.1043   -1.1553 O   0  0  0  0  0  0  0  0  0  0  0  0
    2.3780   -0.7318   -0.3138 N   0  0  0  0  0  0  0  0  0  0  0  0
    2.5447    0.0688    0.2871 H   0  0  0  0  0  0  0  0  0  0  0  0
    3.5361   -1.4418   -0.8525 C   0  0  0  0  0  0  0  0  0  0  0  0
    3.4114   -1.5889   -1.9276 H   0  0  0  0  0  0  0  0  0  0  0  0
    4.4457   -0.8678   -0.6712 H   0  0  0  0  0  0  0  0  0  0  0  0
    3.6244   -2.4191   -0.3746 H   0  0  0  0  0  0  0  0  0  0  0  0
  5  6  2  0  0  0  0
  5  7  1  0  0  0  0
  2  3  1  0  0  0  0
  2  4  1  0  0  0  0
  2  5  1  0  0  0  0
  1  2  1  0  0  0  0
 18 19  2  0  0  0  0
 18 20  1  0  0  0  0
 16 17  1  0  0  0  0
 14 15  2  0  0  0  0
 14 16  1  0  0  0  0
 11 12  1  0  0  0  0
 11 13  1  0  0  0  0
 11 14  1  0  0  0  0
  9 10  1  0  0  0  0
  9 11  1  0  0  0  0
  9 18  1  0  0  0  0
  7  8  1  0  0  0  0
  7  9  1  0  0  0  0
 22 23  1  0  0  0  0
 22 24  1  0  0  0  0
 22 25  1  0  0  0  0
 20 21  1  0  0  0  0
 20 22  1  0  0  0  0
M  END
$$$$
default_name
  -OEChem-01062215323D

 25 24  0     1  0  0  0  0  0999 V2000
   -2.7826   -3.8464    0.7821 H   0  0  0  0  0  0  0  0  0  0  0  0
   -2.8156   -2.8034    0.4711 C   0  0  0  0  0  0  0  0  0  0  0  0
   -3.4336   -2.2354    1.1641 H   0  0  0  0  0  0  0  0  0  0  0  0
   -3.2256   -2.7344   -0.5349 H   0  0  0  0  0  0  0  0  0  0  0  0
   -1.4126   -2.2444    0.4801 C   0  0  0  0  0  0  0  0  0  0  0  0
   -0.4686   -2.9534    0.8001 O   0  0  0  0  0  0  0  0  0  0  0  0
   -1.2736   -0.9704    0.1241 N   0  0  0  0  0  0  0  0  0  0  0  0
   -2.0996   -0.4354   -0.1019 H   0  0  0  0  0  0  0  0  0  0  0  0
   -0.0016   -0.2394    0.1271 C   0  0  1  0  0  0  0  0  0  0  0  0
   -0.1192    0.6625   -0.4776 H   0  0  0  0  0  0  0  0  0  0  0  0
    0.3481    0.1720    1.5709 C   0  0  0  0  0  0  0  0  0  0  0  0
    0.2721   -0.6977    2.2246 H   0  0  0  0  0  0  0  0  0  0  0  0
    1.3766    0.5325    1.6111 H   0  0  0  0  0  0  0  0  0  0  0  0
   -0.5809    1.2404    2.1395 C   0  0  0  0  0  0  0  0  0  0  0  0
   -1.1672    2.0948    1.4880 O   0  0  0  0  0  0  0  0  0  0  0  0
   -0.7309    1.2045    3.4767 O   0  0  0  0  0  0  0  0  0  0  0  0
   -1.3458    1.9068    3.6908 H   0  0  0  0  0  0  0  0  0  0  0  0
    1.1074   -1.1037   -0.5054 C   0  0  0  0  0  0  0  0  0  0  0  0
    0.8204   -1.9290   -1.3715 O   0  0  0  0  0  0  0  0  0  0  0  0
    2.3618   -0.9270   -0.0754 N   0  0  0  0  0  0  0  0  0  0  0  0
    2.5065   -0.2723    0.6863 H   0  0  0  0  0  0  0  0  0  0  0  0
    3.5188   -1.6633   -0.5803 C   0  0  0  0  0  0  0  0  0  0  0  0
    3.5493   -1.6002   -1.6703 H   0  0  0  0  0  0  0  0  0  0  0  0
    4.4383   -1.2441   -0.1699 H   0  0  0  0  0  0  0  0  0  0  0  0
    3.4411   -2.7135   -0.2936 H   0  0  0  0  0  0  0  0  0  0  0  0
  5  6  2  0  0  0  0
  5  7  1  0  0  0  0
  2  3  1  0  0  0  0
  2  4  1  0  0  0  0
  2  5  1  0  0  0  0
  1  2  1  0  0  0  0
 18 19  2  0  0  0  0
 18 20  1  0  0  0  0
 16 17  1  0  0  0  0
 14 15  2  0  0  0  0
 14 16  1  0  0  0  0
 11 12  1  0  0  0  0
 11 13  1  0  0  0  0
 11 14  1  0  0  0  0
  9 10  1  0  0  0  0
  9 11  1  0  0  0  0
  9 18  1  0  0  0  0
  7  8  1  0  0  0  0
  7  9  1  0  0  0  0
 22 23  1  0  0  0  0
 22 24  1  0  0  0  0
 22 25  1  0  0  0  0
 20 21  1  0  0  0  0
 20 22  1  0  0  0  0
M  END
$$$$
default_name
  -OEChem-01062215323D

 25 24  0     1  0  0  0  0  0999 V2000
   -2.7826   -3.8464    0.7821 H   0  0  0  0  0  0  0  0  0  0  0  0
   -2.8156   -2.8034    0.4711 C   0  0  0  0  0  0  0  0  0  0  0  0
   -3.4336   -2.2354    1.1641 H   0  0  0  0  0  0  0  0  0  0  0  0
   -3.2256   -2.7344   -0.5349 H   0  0  0  0  0  0  0  0  0  0  0  0
   -1.4126   -2.2444    0.4801 C   0  0  0  0  0  0  0  0  0  0  0  0
   -0.4686   -2.9534    0.8001 O   0  0  0  0  0  0  0  0  0  0  0  0
   -1.2736   -0.9704    0.1241 N   0  0  0  0  0  0  0  0  0  0  0  0
   -2.0996   -0.4354   -0.1019 H   0  0  0  0  0  0  0  0  0  0  0  0
   -0.0016   -0.2394    0.1271 C   0  0  1  0  0  0  0  0  0  0  0  0
   -0.1192    0.6625   -0.4776 H   0  0  0  0  0  0  0  0  0  0  0  0
    0.3481    0.1720    1.5709 C   0  0  0  0  0  0  0  0  0  0  0  0
    0.2721   -0.6977    2.2246 H   0  0  0  0  0  0  0  0  0  0  0  0
    1.3766    0.5325    1.6111 H   0  0  0  0  0  0  0  0  0  0  0  0
   -0.5809    1.2404    2.1395 C   0  0  0  0  0  0  0  0  0  0  0  0
   -1.1672    2.0948    1.4880 O   0  0  0  0  0  0  0  0  0  0  0  0
   -0.7309    1.2045    3.4767 O   0  0  0  0  0  0  0  0  0  0  0  0
   -1.3458    1.9068    3.6908 H   0  0  0  0  0  0  0  0  0  0  0  0
    1.1074   -1.1037   -0.5054 C   0  0  0  0  0  0  0  0  0  0  0  0
    0.8832   -1.7208   -1.5458 O   0  0  0  0  0  0  0  0  0  0  0  0
    2.2908   -1.1583    0.1160 N   0  0  0  0  0  0  0  0  0  0  0  0
    2.3755   -0.6720    1.0027 H   0  0  0  0  0  0  0  0  0  0  0  0
    3.4390   -1.9260   -0.3611 C   0  0  0  0  0  0  0  0  0  0  0  0
    3.6440   -1.6737   -1.4038 H   0  0  0  0  0  0  0  0  0  0  0  0
    4.3185   -1.7001    0.2431 H   0  0  0  0  0  0  0  0  0  0  0  0
    3.2211   -2.9935   -0.2968 H   0  0  0  0  0  0  0  0  0  0  0  0
  5  6  2  0  0  0  0
  5  7  1  0  0  0  0
  2  3  1  0  0  0  0
  2  4  1  0  0  0  0
  2  5  1  0  0  0  0
  1  2  1  0  0  0  0
 18 19  2  0  0  0  0
 18 20  1  0  0  0  0
 16 17  1  0  0  0  0
 14 15  2  0  0  0  0
 14 16  1  0  0  0  0
 11 12  1  0  0  0  0
 11 13  1  0  0  0  0
 11 14  1  0  0  0  0
  9 10  1  0  0  0  0
  9 11  1  0  0  0  0
  9 18  1  0  0  0  0
  7  8  1  0  0  0  0
  7  9  1  0  0  0  0
 22 23  1  0  0  0  0
 22 24  1  0  0  0  0
 22 25  1  0  0  0  0
 20 21  1  0  0  0  0
 20 22  1  0  0  0  0
M  END
$$$$
default_name
  -OEChem-01062215323D

 25 24  0     1  0  0  0  0  0999 V2000
   -2.7826   -3.8464    0.7821 H   0  0  0  0  0  0  0  0  0  0  0  0
   -2.8156   -2.8034    0.4711 C   0  0  0  0  0  0  0  0  0  0  0  0
   -3.4336   -2.2354    1.1641 H   0  0  0  0  0  0  0  0  0  0  0  0
   -3.2256   -2.7344   -0.5349 H   0  0  0  0  0  0  0  0  0  0  0  0
   -1.4126   -2.2444    0.4801 C   0  0  0  0  0  0  0  0  0  0  0  0
   -0.4686   -2.9534    0.8001 O   0  0  0  0  0  0  0  0  0  0  0  0
   -1.2736   -0.9704    0.1241 N   0  0  0  0  0  0  0  0  0  0  0  0
   -2.0996   -0.4354   -0.1019 H   0  0  0  0  0  0  0  0  0  0  0  0
   -0.0016   -0.2394    0.1271 C   0  0  1  0  0  0  0  0  0  0  0  0
   -0.1192    0.6625   -0.4776 H   0  0  0  0  0  0  0  0  0  0  0  0
    0.3481    0.1720    1.5709 C   0  0  0  0  0  0  0  0  0  0  0  0
    0.2721   -0.6977    2.2246 H   0  0  0  0  0  0  0  0  0  0  0  0
    1.3766    0.5325    1.6111 H   0  0  0  0  0  0  0  0  0  0  0  0
   -0.5809    1.2404    2.1395 C   0  0  0  0  0  0  0  0  0  0  0  0
   -1.1672    2.0948    1.4880 O   0  0  0  0  0  0  0  0  0  0  0  0
   -0.7309    1.2045    3.4767 O   0  0  0  0  0  0  0  0  0  0  0  0
   -1.3458    1.9068    3.6908 H   0  0  0  0  0  0  0  0  0  0  0  0
    1.1074   -1.1037   -0.5054 C   0  0  0  0  0  0  0  0  0  0  0  0
    0.9913   -1.4940   -1.6663 O   0  0  0  0  0  0  0  0  0  0  0  0
    2.1699   -1.4097    0.2477 N   0  0  0  0  0  0  0  0  0  0  0  0
    2.1605   -1.1031    1.2150 H   0  0  0  0  0  0  0  0  0  0  0  0
    3.3023   -2.2121   -0.2099 C   0  0  0  0  0  0  0  0  0  0  0  0
    3.6890   -1.8043   -1.1464 H   0  0  0  0  0  0  0  0  0  0  0  0
    4.0945   -2.2047    0.5399 H   0  0  0  0  0  0  0  0  0  0  0  0
    2.9793   -3.2400   -0.3839 H   0  0  0  0  0  0  0  0  0  0  0  0
  5  6  2  0  0  0  0
  5  7  1  0  0  0  0
  2  3  1  0  0  0  0
  2  4  1  0  0  0  0
  2  5  1  0  0  0  0
  1  2  1  0  0  0  0
 18 19  2  0  0  0  0
 18 20  1  0  0  0  0
 16 17  1  0  0  0  0
 14 15  2  0  0  0  0
 14 16  1  0  0  0  0
 11 12  1  0  0  0  0
 11 13  1  0  0  0  0
 11 14  1  0  0  0  0
  9 10  1  0  0  0  0
  9 11  1  0  0  0  0
  9 18  1  0  0  0  0
  7  8  1  0  0  0  0
  7  9  1  0  0  0  0
 22 23  1  0  0  0  0
 22 24  1  0  0  0  0
 22 25  1  0  0  0  0
 20 21  1  0  0  0  0
 20 22  1  0  0  0  0
M  END
$$$$
default_name
  -OEChem-01062215323D

 25 24  0     1  0  0  0  0  0999 V2000
   -2.7826   -3.8464    0.7821 H   0  0  0  0  0  0  0  0  0  0  0  0
   -2.8156   -2.8034    0.4711 C   0  0  0  0  0  0  0  0  0  0  0  0
   -3.4336   -2.2354    1.1641 H   0  0  0  0  0  0  0  0  0  0  0  0
   -3.2256   -2.7344   -0.5349 H   0  0  0  0  0  0  0  0  0  0  0  0
   -1.4126   -2.2444    0.4801 C   0  0  0  0  0  0  0  0  0  0  0  0
   -0.4686   -2.9534    0.8001 O   0  0  0  0  0  0  0  0  0  0  0  0
   -1.2736   -0.9704    0.1241 N   0  0  0  0  0  0  0  0  0  0  0  0
   -2.0996   -0.4354   -0.1019 H   0  0  0  0  0  0  0  0  0  0  0  0
   -0.0016   -0.2394    0.1271 C   0  0  1  0  0  0  0  0  0  0  0  0
   -0.1192    0.6625   -0.4776 H   0  0  0  0  0  0  0  0  0  0  0  0
    0.3481    0.1720    1.5709 C   0  0  0  0  0  0  0  0  0  0  0  0
    0.2721   -0.6977    2.2246 H   0  0  0  0  0  0  0  0  0  0  0  0
    1.3766    0.5325    1.6111 H   0  0  0  0  0  0  0  0  0  0  0  0
   -0.5809    1.2404    2.1395 C   0  0  0  0  0  0  0  0  0  0  0  0
   -1.1672    2.0948    1.4880 O   0  0  0  0  0  0  0  0  0  0  0  0
   -0.7309    1.2045    3.4767 O   0  0  0  0  0  0  0  0  0  0  0  0
   -1.3458    1.9068    3.6908 H   0  0  0  0  0  0  0  0  0  0  0  0
    1.1074   -1.1037   -0.5054 C   0  0  0  0  0  0  0  0  0  0  0  0
    1.1373   -1.2639   -1.7248 O   0  0  0  0  0  0  0  0  0  0  0  0
    2.0073   -1.6643    0.3104 N   0  0  0  0  0  0  0  0  0  0  0  0
    1.8764   -1.5362    1.3086 H   0  0  0  0  0  0  0  0  0  0  0  0
    3.1179   -2.5021   -0.1369 C   0  0  0  0  0  0  0  0  0  0  0  0
    3.6812   -1.9832   -0.9155 H   0  0  0  0  0  0  0  0  0  0  0  0
    3.7814   -2.7236    0.7000 H   0  0  0  0  0  0  0  0  0  0  0  0
    2.7322   -3.4362   -0.5490 H   0  0  0  0  0  0  0  0  0  0  0  0
  5  6  2  0  0  0  0
  5  7  1  0  0  0  0
  2  3  1  0  0  0  0
  2  4  1  0  0  0  0
  2  5  1  0  0  0  0
  1  2  1  0  0  0  0
 18 19  2  0  0  0  0
 18 20  1  0  0  0  0
 16 17  1  0  0  0  0
 14 15  2  0  0  0  0
 14 16  1  0  0  0  0
 11 12  1  0  0  0  0
 11 13  1  0  0  0  0
 11 14  1  0  0  0  0
  9 10  1  0  0  0  0
  9 11  1  0  0  0  0
  9 18  1  0  0  0  0
  7  8  1  0  0  0  0
  7  9  1  0  0  0  0
 22 23  1  0  0  0  0
 22 24  1  0  0  0  0
 22 25  1  0  0  0  0
 20 21  1  0  0  0  0
 20 22  1  0  0  0  0
M  END
$$$$
default_name
  -OEChem-01062215323D

 25 24  0     1  0  0  0  0  0999 V2000
   -2.7826   -3.8464    0.7821 H   0  0  0  0  0  0  0  0  0  0  0  0
   -2.8156   -2.8034    0.4711 C   0  0  0  0  0  0  0  0  0  0  0  0
   -3.4336   -2.2354    1.1641 H   0  0  0  0  0  0  0  0  0  0  0  0
   -3.2256   -2.7344   -0.5349 H   0  0  0  0  0  0  0  0  0  0  0  0
   -1.4126   -2.2444    0.4801 C   0  0  0  0  0  0  0  0  0  0  0  0
   -0.4686   -2.9534    0.8001 O   0  0  0  0  0  0  0  0  0  0  0  0
   -1.2736   -0.9704    0.1241 N   0  0  0  0  0  0  0  0  0  0  0  0
   -2.0996   -0.4354   -0.1019 H   0  0  0  0  0  0  0  0  0  0  0  0
   -0.0016   -0.2394    0.1271 C   0  0  1  0  0  0  0  0  0  0  0  0
   -0.1192    0.6625   -0.4776 H   0  0  0  0  0  0  0  0  0  0  0  0
    0.3481    0.1720    1.5709 C   0  0  0  0  0  0  0  0  0  0  0  0
    0.2721   -0.6977    2.2246 H   0  0  0  0  0  0  0  0  0  0  0  0
    1.3766    0.5325    1.6111 H   0  0  0  0  0  0  0  0  0  0  0  0
   -0.5809    1.2404    2.1395 C   0  0  0  0  0  0  0  0  0  0  0  0
   -1.1672    2.0948    1.4880 O   0  0  0  0  0  0  0  0  0  0  0  0
   -0.7309    1.2045    3.4767 O   0  0  0  0  0  0  0  0  0  0  0  0
   -1.3458    1.9068    3.6908 H   0  0  0  0  0  0  0  0  0  0  0  0
    1.1074   -1.1037   -0.5054 C   0  0  0  0  0  0  0  0  0  0  0  0
    1.3112   -1.0462   -1.7173 O   0  0  0  0  0  0  0  0  0  0  0  0
    1.8141   -1.9046    0.3001 N   0  0  0  0  0  0  0  0  0  0  0  0
    1.5423   -1.9418    1.2771 H   0  0  0  0  0  0  0  0  0  0  0  0
    2.8984   -2.7762   -0.1471 C   0  0  0  0  0  0  0  0  0  0  0  0
    3.6213   -2.1982   -0.7270 H   0  0  0  0  0  0  0  0  0  0  0  0
    3.4007   -3.2213    0.7127 H   0  0  0  0  0  0  0  0  0  0  0  0
    2.4967   -3.5688   -0.7809 H   0  0  0  0  0  0  0  0  0  0  0  0
  5  6  2  0  0  0  0
  5  7  1  0  0  0  0
  2  3  1  0  0  0  0
  2  4  1  0  0  0  0
  2  5  1  0  0  0  0
  1  2  1  0  0  0  0
 18 19  2  0  0  0  0
 18 20  1  0  0  0  0
 16 17  1  0  0  0  0
 14 15  2  0  0  0  0
 14 16  1  0  0  0  0
 11 12  1  0  0  0  0
 11 13  1  0  0  0  0
 11 14  1  0  0  0  0
  9 10  1  0  0  0  0
  9 11  1  0  0  0  0
  9 18  1  0  0  0  0
  7  8  1  0  0  0  0
  7  9  1  0  0  0  0
 22 23  1  0  0  0  0
 22 24  1  0  0  0  0
 22 25  1  0  0  0  0
 20 21  1  0  0  0  0
 20 22  1  0  0  0  0
M  END
$$$$
default_name
  -OEChem-01062215323D

 25 24  0     1  0  0  0  0  0999 V2000
   -2.7826   -3.8464    0.7821 H   0  0  0  0  0  0  0  0  0  0  0  0
   -2.8156   -2.8034    0.4711 C   0  0  0  0  0  0  0  0  0  0  0  0
   -3.4336   -2.2354    1.1641 H   0  0  0  0  0  0  0  0  0  0  0  0
   -3.2256   -2.7344   -0.5349 H   0  0  0  0  0  0  0  0  0  0  0  0
   -1.4126   -2.2444    0.4801 C   0  0  0  0  0  0  0  0  0  0  0  0
   -0.4686   -2.9534    0.8001 O   0  0  0  0  0  0  0  0  0  0  0  0
   -1.2736   -0.9704    0.1241 N   0  0  0  0  0  0  0  0  0  0  0  0
   -2.0996   -0.4354   -0.1019 H   0  0  0  0  0  0  0  0  0  0  0  0
   -0.0016   -0.2394    0.1271 C   0  0  1  0  0  0  0  0  0  0  0  0
   -0.1192    0.6625   -0.4776 H   0  0  0  0  0  0  0  0  0  0  0  0
    0.3481    0.1720    1.5709 C   0  0  0  0  0  0  0  0  0  0  0  0
    0.2721   -0.6977    2.2246 H   0  0  0  0  0  0  0  0  0  0  0  0
    1.3766    0.5325    1.6111 H   0  0  0  0  0  0  0  0  0  0  0  0
   -0.5809    1.2404    2.1395 C   0  0  0  0  0  0  0  0  0  0  0  0
   -1.1672    2.0948    1.4880 O   0  0  0  0  0  0  0  0  0  0  0  0
   -0.7309    1.2045    3.4767 O   0  0  0  0  0  0  0  0  0  0  0  0
   -1.3458    1.9068    3.6908 H   0  0  0  0  0  0  0  0  0  0  0  0
    1.1074   -1.1037   -0.5054 C   0  0  0  0  0  0  0  0  0  0  0  0
    1.5011   -0.8559   -1.6443 O   0  0  0  0  0  0  0  0  0  0  0  0
    1.6035   -2.1143    0.2173 N   0  0  0  0  0  0  0  0  0  0  0  0
    1.1811   -2.2923    1.1227 H   0  0  0  0  0  0  0  0  0  0  0  0
    2.6588   -3.0158   -0.2399 C   0  0  0  0  0  0  0  0  0  0  0  0
    3.5131   -2.4345   -0.5935 H   0  0  0  0  0  0  0  0  0  0  0  0
    2.9783   -3.6641    0.5770 H   0  0  0  0  0  0  0  0  0  0  0  0
    2.2887   -3.6286   -1.0637 H   0  0  0  0  0  0  0  0  0  0  0  0
  5  6  2  0  0  0  0
  5  7  1  0  0  0  0
  2  3  1  0  0  0  0
  2  4  1  0  0  0  0
  2  5  1  0  0  0  0
  1  2  1  0  0  0  0
 18 19  2  0  0  0  0
 18 20  1  0  0  0  0
 16 17  1  0  0  0  0
 14 15  2  0  0  0  0
 14 16  1  0  0  0  0
 11 12  1  0  0  0  0
 11 13  1  0  0  0  0
 11 14  1  0  0  0  0
  9 10  1  0  0  0  0
  9 11  1  0  0  0  0
  9 18  1  0  0  0  0
  7  8  1  0  0  0  0
  7  9  1  0  0  0  0
 22 23  1  0  0  0  0
 22 24  1  0  0  0  0
 22 25  1  0  0  0  0
 20 21  1  0  0  0  0
 20 22  1  0  0  0  0
M  END
$$$$
default_name
  -OEChem-01062215323D

 25 24  0     1  0  0  0  0  0999 V2000
   -2.7826   -3.8464    0.7821 H   0  0  0  0  0  0  0  0  0  0  0  0
   -2.8156   -2.8034    0.4711 C   0  0  0  0  0  0  0  0  0  0  0  0
   -3.4336   -2.2354    1.1641 H   0  0  0  0  0  0  0  0  0  0  0  0
   -3.2256   -2.7344   -0.5349 H   0  0  0  0  0  0  0  0  0  0  0  0
   -1.4126   -2.2444    0.4801 C   0  0  0  0  0  0  0  0  0  0  0  0
   -0.4686   -2.9534    0.8001 O   0  0  0  0  0  0  0  0  0  0  0  0
   -1.2736   -0.9704    0.1241 N   0  0  0  0  0  0  0  0  0  0  0  0
   -2.0996   -0.4354   -0.1019 H   0  0  0  0  0  0  0  0  0  0  0  0
   -0.0016   -0.2394    0.1271 C   0  0  1  0  0  0  0  0  0  0  0  0
   -0.1192    0.6625   -0.4776 H   0  0  0  0  0  0  0  0  0  0  0  0
    0.3481    0.1720    1.5709 C   0  0  0  0  0  0  0  0  0  0  0  0
    0.2721   -0.6977    2.2246 H   0  0  0  0  0  0  0  0  0  0  0  0
    1.3766    0.5325    1.6111 H   0  0  0  0  0  0  0  0  0  0  0  0
   -0.5809    1.2404    2.1395 C   0  0  0  0  0  0  0  0  0  0  0  0
   -1.1672    2.0948    1.4880 O   0  0  0  0  0  0  0  0  0  0  0  0
   -0.7309    1.2045    3.4767 O   0  0  0  0  0  0  0  0  0  0  0  0
   -1.3458    1.9068    3.6908 H   0  0  0  0  0  0  0  0  0  0  0  0
    1.1074   -1.1037   -0.5054 C   0  0  0  0  0  0  0  0  0  0  0  0
    1.6943   -0.7058   -1.5107 O   0  0  0  0  0  0  0  0  0  0  0  0
    1.3898   -2.2791    0.0678 N   0  0  0  0  0  0  0  0  0  0  0  0
    0.8175   -2.5637    0.8560 H   0  0  0  0  0  0  0  0  0  0  0  0
    2.4154   -3.2045   -0.4089 C   0  0  0  0  0  0  0  0  0  0  0  0
    3.3642   -2.6762   -0.5244 H   0  0  0  0  0  0  0  0  0  0  0  0
    2.5429   -4.0217    0.3022 H   0  0  0  0  0  0  0  0  0  0  0  0
    2.1225   -3.6117   -1.3782 H   0  0  0  0  0  0  0  0  0  0  0  0
  5  6  2  0  0  0  0
  5  7  1  0  0  0  0
  2  3  1  0  0  0  0
  2  4  1  0  0  0  0
  2  5  1  0  0  0  0
  1  2  1  0  0  0  0
 18 19  2  0  0  0  0
 18 20  1  0  0  0  0
 16 17  1  0  0  0  0
 14 15  2  0  0  0  0
 14 16  1  0  0  0  0
 11 12  1  0  0  0  0
 11 13  1  0  0  0  0
 11 14  1  0  0  0  0
  9 10  1  0  0  0  0
  9 11  1  0  0  0  0
  9 18  1  0  0  0  0
  7  8  1  0  0  0  0
  7  9  1  0  0  0  0
 22 23  1  0  0  0  0
 22 24  1  0  0  0  0
 22 25  1  0  0  0  0
 20 21  1  0  0  0  0
 20 22  1  0  0  0  0
M  END
$$$$
default_name
  -OEChem-01062215323D

 25 24  0     1  0  0  0  0  0999 V2000
   -2.7826   -3.8464    0.7821 H   0  0  0  0  0  0  0  0  0  0  0  0
   -2.8156   -2.8034    0.4711 C   0  0  0  0  0  0  0  0  0  0  0  0
   -3.4336   -2.2354    1.1641 H   0  0  0  0  0  0  0  0  0  0  0  0
   -3.2256   -2.7344   -0.5349 H   0  0  0  0  0  0  0  0  0  0  0  0
   -1.4126   -2.2444    0.4801 C   0  0  0  0  0  0  0  0  0  0  0  0
   -0.4686   -2.9534    0.8001 O   0  0  0  0  0  0  0  0  0  0  0  0
   -1.2736   -0.9704    0.1241 N   0  0  0  0  0  0  0  0  0  0  0  0
   -2.0996   -0.4354   -0.1019 H   0  0  0  0  0  0  0  0  0  0  0  0
   -0.0016   -0.2394    0.1271 C   0  0  1  0  0  0  0  0  0  0  0  0
   -0.1192    0.6625   -0.4776 H   0  0  0  0  0  0  0  0  0  0  0  0
    0.3481    0.1720    1.5709 C   0  0  0  0  0  0  0  0  0  0  0  0
    0.2721   -0.6977    2.2246 H   0  0  0  0  0  0  0  0  0  0  0  0
    1.3766    0.5325    1.6111 H   0  0  0  0  0  0  0  0  0  0  0  0
   -0.5809    1.2404    2.1395 C   0  0  0  0  0  0  0  0  0  0  0  0
   -1.1672    2.0948    1.4880 O   0  0  0  0  0  0  0  0  0  0  0  0
   -0.7309    1.2045    3.4767 O   0  0  0  0  0  0  0  0  0  0  0  0
   -1.3458    1.9068    3.6908 H   0  0  0  0  0  0  0  0  0  0  0  0
    1.1074   -1.1037   -0.5054 C   0  0  0  0  0  0  0  0  0  0  0  0
    1.8774   -0.6062   -1.3258 O   0  0  0  0  0  0  0  0  0  0  0  0
    1.1876   -2.3877   -0.1384 N   0  0  0  0  0  0  0  0  0  0  0  0
    0.4761   -2.7376    0.4950 H   0  0  0  0  0  0  0  0  0  0  0  0
    2.1847   -3.3295   -0.6426 C   0  0  0  0  0  0  0  0  0  0  0  0
    3.1847   -2.9067   -0.5241 H   0  0  0  0  0  0  0  0  0  0  0  0
    2.1243   -4.2697   -0.0929 H   0  0  0  0  0  0  0  0  0  0  0  0
    2.0095   -3.5192   -1.7030 H   0  0  0  0  0  0  0  0  0  0  0  0
  5  6  2  0  0  0  0
  5  7  1  0  0  0  0
  2  3  1  0  0  0  0
  2  4  1  0  0  0  0
  2  5  1  0  0  0  0
  1  2  1  0  0  0  0
 18 19  2  0  0  0  0
 18 20  1  0  0  0  0
 16 17  1  0  0  0  0
 14 15  2  0  0  0  0
 14 16  1  0  0  0  0
 11 12  1  0  0  0  0
 11 13  1  0  0  0  0
 11 14  1  0  0  0  0
  9 10  1  0  0  0  0
  9 11  1  0  0  0  0
  9 18  1  0  0  0  0
  7  8  1  0  0  0  0
  7  9  1  0  0  0  0
 22 23  1  0  0  0  0
 22 24  1  0  0  0  0
 22 25  1  0  0  0  0
 20 21  1  0  0  0  0
 20 22  1  0  0  0  0
M  END
$$$$
default_name
  -OEChem-01062215323D

 25 24  0     1  0  0  0  0  0999 V2000
   -2.7826   -3.8464    0.7821 H   0  0  0  0  0  0  0  0  0  0  0  0
   -2.8156   -2.8034    0.4711 C   0  0  0  0  0  0  0  0  0  0  0  0
   -3.4336   -2.2354    1.1641 H   0  0  0  0  0  0  0  0  0  0  0  0
   -3.2256   -2.7344   -0.5349 H   0  0  0  0  0  0  0  0  0  0  0  0
   -1.4126   -2.2444    0.4801 C   0  0  0  0  0  0  0  0  0  0  0  0
   -0.4686   -2.9534    0.8001 O   0  0  0  0  0  0  0  0  0  0  0  0
   -1.2736   -0.9704    0.1241 N   0  0  0  0  0  0  0  0  0  0  0  0
   -2.0996   -0.4354   -0.1019 H   0  0  0  0  0  0  0  0  0  0  0  0
   -0.0016   -0.2394    0.1271 C   0  0  1  0  0  0  0  0  0  0  0  0
   -0.1192    0.6625   -0.4776 H   0  0  0  0  0  0  0  0  0  0  0  0
    0.3481    0.1720    1.5709 C   0  0  0  0  0  0  0  0  0  0  0  0
    0.2721   -0.6977    2.2246 H   0  0  0  0  0  0  0  0  0  0  0  0
    1.3766    0.5325    1.6111 H   0  0  0  0  0  0  0  0  0  0  0  0
   -0.5809    1.2404    2.1395 C   0  0  0  0  0  0  0  0  0  0  0  0
   -1.1672    2.0948    1.4880 O   0  0  0  0  0  0  0  0  0  0  0  0
   -0.7309    1.2045    3.4767 O   0  0  0  0  0  0  0  0  0  0  0  0
   -1.3458    1.9068    3.6908 H   0  0  0  0  0  0  0  0  0  0  0  0
    1.1074   -1.1037   -0.5054 C   0  0  0  0  0  0  0  0  0  0  0  0
    2.0380   -0.5638   -1.1020 O   0  0  0  0  0  0  0  0  0  0  0  0
    1.0107   -2.4327   -0.3870 N   0  0  0  0  0  0  0  0  0  0  0  0
    0.1802   -2.8021    0.0644 H   0  0  0  0  0  0  0  0  0  0  0  0
    1.9825   -3.3822   -0.9251 C   0  0  0  0  0  0  0  0  0  0  0  0
    2.9868   -3.1103   -0.5929 H   0  0  0  0  0  0  0  0  0  0  0  0
    1.7510   -4.3912   -0.5815 H   0  0  0  0  0  0  0  0  0  0  0  0
    1.9572   -3.3573   -2.0159 H   0  0  0  0  0  0  0  0  0  0  0  0
  5  6  2  0  0  0  0
  5  7  1  0  0  0  0
  2  3  1  0  0  0  0
  2  4  1  0  0  0  0
  2  5  1  0  0  0  0
  1  2  1  0  0  0  0
 18 19  2  0  0  0  0
 18 20  1  0  0  0  0
 16 17  1  0  0  0  0
 14 15  2  0  0  0  0
 14 16  1  0  0  0  0
 11 12  1  0  0  0  0
 11 13  1  0  0  0  0
 11 14  1  0  0  0  0
  9 10  1  0  0  0  0
  9 11  1  0  0  0  0
  9 18  1  0  0  0  0
  7  8  1  0  0  0  0
  7  9  1  0  0  0  0
 22 23  1  0  0  0  0
 22 24  1  0  0  0  0
 22 25  1  0  0  0  0
 20 21  1  0  0  0  0
 20 22  1  0  0  0  0
M  END
$$$$
default_name
  -OEChem-01062215323D

 25 24  0     1  0  0  0  0  0999 V2000
   -2.7826   -3.8464    0.7821 H   0  0  0  0  0  0  0  0  0  0  0  0
   -2.8156   -2.8034    0.4711 C   0  0  0  0  0  0  0  0  0  0  0  0
   -3.4336   -2.2354    1.1641 H   0  0  0  0  0  0  0  0  0  0  0  0
   -3.2256   -2.7344   -0.5349 H   0  0  0  0  0  0  0  0  0  0  0  0
   -1.4126   -2.2444    0.4801 C   0  0  0  0  0  0  0  0  0  0  0  0
   -0.4686   -2.9534    0.8001 O   0  0  0  0  0  0  0  0  0  0  0  0
   -1.2736   -0.9704    0.1241 N   0  0  0  0  0  0  0  0  0  0  0  0
   -2.0996   -0.4354   -0.1019 H   0  0  0  0  0  0  0  0  0  0  0  0
   -0.0016   -0.2394    0.1271 C   0  0  1  0  0  0  0  0  0  0  0  0
   -0.1192    0.6625   -0.4776 H   0  0  0  0  0  0  0  0  0  0  0  0
    0.3481    0.1720    1.5709 C   0  0  0  0  0  0  0  0  0  0  0  0
    0.2721   -0.6977    2.2246 H   0  0  0  0  0  0  0  0  0  0  0  0
    1.3766    0.5325    1.6111 H   0  0  0  0  0  0  0  0  0  0  0  0
   -0.5809    1.2404    2.1395 C   0  0  0  0  0  0  0  0  0  0  0  0
   -1.1672    2.0948    1.4880 O   0  0  0  0  0  0  0  0  0  0  0  0
   -0.7309    1.2045    3.4767 O   0  0  0  0  0  0  0  0  0  0  0  0
   -1.3458    1.9068    3.6908 H   0  0  0  0  0  0  0  0  0  0  0  0
    1.1074   -1.1037   -0.5054 C   0  0  0  0  0  0  0  0  0  0  0  0
    2.1652   -0.5816   -0.8547 O   0  0  0  0  0  0  0  0  0  0  0  0
    0.8711   -2.4112   -0.6613 N   0  0  0  0  0  0  0  0  0  0  0  0
   -0.0499   -2.7529   -0.4065 H   0  0  0  0  0  0  0  0  0  0  0  0
    1.8227   -3.3591   -1.2370 C   0  0  0  0  0  0  0  0  0  0  0  0
    2.7840   -3.2732   -0.7259 H   0  0  0  0  0  0  0  0  0  0  0  0
    1.4483   -4.3780   -1.1303 H   0  0  0  0  0  0  0  0  0  0  0  0
    1.9692   -3.1372   -2.2956 H   0  0  0  0  0  0  0  0  0  0  0  0
  5  6  2  0  0  0  0
  5  7  1  0  0  0  0
  2  3  1  0  0  0  0
  2  4  1  0  0  0  0
  2  5  1  0  0  0  0
  1  2  1  0  0  0  0
 18 19  2  0  0  0  0
 18 20  1  0  0  0  0
 16 17  1  0  0  0  0
 14 15  2  0  0  0  0
 14 16  1  0  0  0  0
 11 12  1  0  0  0  0
 11 13  1  0  0  0  0
 11 14  1  0  0  0  0
  9 10  1  0  0  0  0
  9 11  1  0  0  0  0
  9 18  1  0  0  0  0
  7  8  1  0  0  0  0
  7  9  1  0  0  0  0
 22 23  1  0  0  0  0
 22 24  1  0  0  0  0
 22 25  1  0  0  0  0
 20 21  1  0  0  0  0
 20 22  1  0  0  0  0
M  END
$$$$
default_name
  -OEChem-01062215323D

 25 24  0     1  0  0  0  0  0999 V2000
   -2.7826   -3.8464    0.7821 H   0  0  0  0  0  0  0  0  0  0  0  0
   -2.8156   -2.8034    0.4711 C   0  0  0  0  0  0  0  0  0  0  0  0
   -3.4336   -2.2354    1.1641 H   0  0  0  0  0  0  0  0  0  0  0  0
   -3.2256   -2.7344   -0.5349 H   0  0  0  0  0  0  0  0  0  0  0  0
   -1.4126   -2.2444    0.4801 C   0  0  0  0  0  0  0  0  0  0  0  0
   -0.4686   -2.9534    0.8001 O   0  0  0  0  0  0  0  0  0  0  0  0
   -1.2736   -0.9704    0.1241 N   0  0  0  0  0  0  0  0  0  0  0  0
   -2.0996   -0.4354   -0.1019 H   0  0  0  0  0  0  0  0  0  0  0  0
   -0.0016   -0.2394    0.1271 C   0  0  1  0  0  0  0  0  0  0  0  0
   -0.1192    0.6625   -0.4776 H   0  0  0  0  0  0  0  0  0  0  0  0
    0.3481    0.1720    1.5709 C   0  0  0  0  0  0  0  0  0  0  0  0
    0.2721   -0.6977    2.2246 H   0  0  0  0  0  0  0  0  0  0  0  0
    1.3766    0.5325    1.6111 H   0  0  0  0  0  0  0  0  0  0  0  0
   -0.5809    1.2404    2.1395 C   0  0  0  0  0  0  0  0  0  0  0  0
   -1.1672    2.0948    1.4880 O   0  0  0  0  0  0  0  0  0  0  0  0
   -0.7309    1.2045    3.4767 O   0  0  0  0  0  0  0  0  0  0  0  0
   -1.3458    1.9068    3.6908 H   0  0  0  0  0  0  0  0  0  0  0  0
    1.1074   -1.1037   -0.5054 C   0  0  0  0  0  0  0  0  0  0  0  0
    2.2502   -0.6584   -0.6006 O   0  0  0  0  0  0  0  0  0  0  0  0
    0.7783   -2.3245   -0.9425 N   0  0  0  0  0  0  0  0  0  0  0  0
   -0.1987   -2.5932   -0.8855 H   0  0  0  0  0  0  0  0  0  0  0  0
    1.7159   -3.2617   -1.5573 C   0  0  0  0  0  0  0  0  0  0  0  0
    2.5901   -3.3842   -0.9142 H   0  0  0  0  0  0  0  0  0  0  0  0
    1.2370   -4.2309   -1.7018 H   0  0  0  0  0  0  0  0  0  0  0  0
    2.0448   -2.8738   -2.5230 H   0  0  0  0  0  0  0  0  0  0  0  0
  5  6  2  0  0  0  0
  5  7  1  0  0  0  0
  2  3  1  0  0  0  0
  2  4  1  0  0  0  0
  2  5  1  0  0  0  0
  1  2  1  0  0  0  0
 18 19  2  0  0  0  0
 18 20  1  0  0  0  0
 16 17  1  0  0  0  0
 14 15  2  0  0  0  0
 14 16  1  0  0  0  0
 11 12  1  0  0  0  0
 11 13  1  0  0  0  0
 11 14  1  0  0  0  0
  9 10  1  0  0  0  0
  9 11  1  0  0  0  0
  9 18  1  0  0  0  0
  7  8  1  0  0  0  0
  7  9  1  0  0  0  0
 22 23  1  0  0  0  0
 22 24  1  0  0  0  0
 22 25  1  0  0  0  0
 20 21  1  0  0  0  0
 20 22  1  0  0  0  0
M  END
$$$$
default_name
  -OEChem-01062215323D

 25 24  0     1  0  0  0  0  0999 V2000
   -2.7826   -3.8464    0.7821 H   0  0  0  0  0  0  0  0  0  0  0  0
   -2.8156   -2.8034    0.4711 C   0  0  0  0  0  0  0  0  0  0  0  0
   -3.4336   -2.2354    1.1641 H   0  0  0  0  0  0  0  0  0  0  0  0
   -3.2256   -2.7344   -0.5349 H   0  0  0  0  0  0  0  0  0  0  0  0
   -1.4126   -2.2444    0.4801 C   0  0  0  0  0  0  0  0  0  0  0  0
   -0.4686   -2.9534    0.8001 O   0  0  0  0  0  0  0  0  0  0  0  0
   -1.2736   -0.9704    0.1241 N   0  0  0  0  0  0  0  0  0  0  0  0
   -2.0996   -0.4354   -0.1019 H   0  0  0  0  0  0  0  0  0  0  0  0
   -0.0016   -0.2394    0.1271 C   0  0  1  0  0  0  0  0  0  0  0  0
   -0.1192    0.6625   -0.4776 H   0  0  0  0  0  0  0  0  0  0  0  0
    0.3481    0.1720    1.5709 C   0  0  0  0  0  0  0  0  0  0  0  0
    0.2721   -0.6977    2.2246 H   0  0  0  0  0  0  0  0  0  0  0  0
    1.3766    0.5325    1.6111 H   0  0  0  0  0  0  0  0  0  0  0  0
   -0.5809    1.2404    2.1395 C   0  0  0  0  0  0  0  0  0  0  0  0
   -1.1672    2.0948    1.4880 O   0  0  0  0  0  0  0  0  0  0  0  0
   -0.7309    1.2045    3.4767 O   0  0  0  0  0  0  0  0  0  0  0  0
   -1.3458    1.9068    3.6908 H   0  0  0  0  0  0  0  0  0  0  0  0
    1.1074   -1.1037   -0.5054 C   0  0  0  0  0  0  0  0  0  0  0  0
    2.2874   -0.7888   -0.3572 O   0  0  0  0  0  0  0  0  0  0  0  0
    0.7387   -2.1786   -1.2114 N   0  0  0  0  0  0  0  0  0  0  0  0
   -0.2559   -2.3340   -1.3401 H   0  0  0  0  0  0  0  0  0  0  0  0
    1.6697   -3.0966   -1.8640 C   0  0  0  0  0  0  0  0  0  0  0  0
    2.4184   -3.4359   -1.1448 H   0  0  0  0  0  0  0  0  0  0  0  0
    1.1314   -3.9600   -2.2571 H   0  0  0  0  0  0  0  0  0  0  0  0
    2.1788   -2.5850   -2.6826 H   0  0  0  0  0  0  0  0  0  0  0  0
  5  6  2  0  0  0  0
  5  7  1  0  0  0  0
  2  3  1  0  0  0  0
  2  4  1  0  0  0  0
  2  5  1  0  0  0  0
  1  2  1  0  0  0  0
 18 19  2  0  0  0  0
 18 20  1  0  0  0  0
 16 17  1  0  0  0  0
 14 15  2  0  0  0  0
 14 16  1  0  0  0  0
 11 12  1  0  0  0  0
 11 13  1  0  0  0  0
 11 14  1  0  0  0  0
  9 10  1  0  0  0  0
  9 11  1  0  0  0  0
  9 18  1  0  0  0  0
  7  8  1  0  0  0  0
  7  9  1  0  0  0  0
 22 23  1  0  0  0  0
 22 24  1  0  0  0  0
 22 25  1  0  0  0  0
 20 21  1  0  0  0  0
 20 22  1  0  0  0  0
M  END
$$$$
default_name
  -OEChem-01062215323D

 25 24  0     1  0  0  0  0  0999 V2000
   -2.7826   -3.8464    0.7821 H   0  0  0  0  0  0  0  0  0  0  0  0
   -2.8156   -2.8034    0.4711 C   0  0  0  0  0  0  0  0  0  0  0  0
   -3.4336   -2.2354    1.1641 H   0  0  0  0  0  0  0  0  0  0  0  0
   -3.2256   -2.7344   -0.5349 H   0  0  0  0  0  0  0  0  0  0  0  0
   -1.4126   -2.2444    0.4801 C   0  0  0  0  0  0  0  0  0  0  0  0
   -0.4686   -2.9534    0.8001 O   0  0  0  0  0  0  0  0  0  0  0  0
   -1.2736   -0.9704    0.1241 N   0  0  0  0  0  0  0  0  0  0  0  0
   -2.0996   -0.4354   -0.1019 H   0  0  0  0  0  0  0  0  0  0  0  0
   -0.0016   -0.2394    0.1271 C   0  0  1  0  0  0  0  0  0  0  0  0
   -0.1192    0.6625   -0.4776 H   0  0  0  0  0  0  0  0  0  0  0  0
    0.3481    0.1720    1.5709 C   0  0  0  0  0  0  0  0  0  0  0  0
    0.2721   -0.6977    2.2246 H   0  0  0  0  0  0  0  0  0  0  0  0
    1.3766    0.5325    1.6111 H   0  0  0  0  0  0  0  0  0  0  0  0
   -0.5809    1.2404    2.1395 C   0  0  0  0  0  0  0  0  0  0  0  0
   -1.1672    2.0948    1.4880 O   0  0  0  0  0  0  0  0  0  0  0  0
   -0.7309    1.2045    3.4767 O   0  0  0  0  0  0  0  0  0  0  0  0
   -1.3458    1.9068    3.6908 H   0  0  0  0  0  0  0  0  0  0  0  0
    1.1074   -1.1037   -0.5054 C   0  0  0  0  0  0  0  0  0  0  0  0
    2.2741   -0.9641   -0.1410 O   0  0  0  0  0  0  0  0  0  0  0  0
    0.7549   -1.9833   -1.4497 N   0  0  0  0  0  0  0  0  0  0  0  0
   -0.2177   -1.9929   -1.7392 H   0  0  0  0  0  0  0  0  0  0  0  0
    1.6870   -2.8752   -2.1362 C   0  0  0  0  0  0  0  0  0  0  0  0
    2.2805   -3.4245   -1.4021 H   0  0  0  0  0  0  0  0  0  0  0  0
    1.1388   -3.5838   -2.7583 H   0  0  0  0  0  0  0  0  0  0  0  0
    2.3621   -2.2906   -2.7636 H   0  0  0  0  0  0  0  0  0  0  0  0
  5  6  2  0  0  0  0
  5  7  1  0  0  0  0
  2  3  1  0  0  0  0
  2  4  1  0  0  0  0
  2  5  1  0  0  0  0
  1  2  1  0  0  0  0
 18 19  2  0  0  0  0
 18 20  1  0  0  0  0
 16 17  1  0  0  0  0
 14 15  2  0  0  0  0
 14 16  1  0  0  0  0
 11 12  1  0  0  0  0
 11 13  1  0  0  0  0
 11 14  1  0  0  0  0
  9 10  1  0  0  0  0
  9 11  1  0  0  0  0
  9 18  1  0  0  0  0
  7  8  1  0  0  0  0
  7  9  1  0  0  0  0
 22 23  1  0  0  0  0
 22 24  1  0  0  0  0
 22 25  1  0  0  0  0
 20 21  1  0  0  0  0
 20 22  1  0  0  0  0
M  END
$$$$
default_name
  -OEChem-01062215323D

 25 24  0     1  0  0  0  0  0999 V2000
   -2.7826   -3.8464    0.7821 H   0  0  0  0  0  0  0  0  0  0  0  0
   -2.8156   -2.8034    0.4711 C   0  0  0  0  0  0  0  0  0  0  0  0
   -3.4336   -2.2354    1.1641 H   0  0  0  0  0  0  0  0  0  0  0  0
   -3.2256   -2.7344   -0.5349 H   0  0  0  0  0  0  0  0  0  0  0  0
   -1.4126   -2.2444    0.4801 C   0  0  0  0  0  0  0  0  0  0  0  0
   -0.4686   -2.9534    0.8001 O   0  0  0  0  0  0  0  0  0  0  0  0
   -1.2736   -0.9704    0.1241 N   0  0  0  0  0  0  0  0  0  0  0  0
   -2.0996   -0.4354   -0.1019 H   0  0  0  0  0  0  0  0  0  0  0  0
   -0.0016   -0.2394    0.1271 C   0  0  1  0  0  0  0  0  0  0  0  0
   -0.1192    0.6625   -0.4776 H   0  0  0  0  0  0  0  0  0  0  0  0
    0.3481    0.1720    1.5709 C   0  0  0  0  0  0  0  0  0  0  0  0
    0.2721   -0.6977    2.2246 H   0  0  0  0  0  0  0  0  0  0  0  0
    1.3766    0.5325    1.6111 H   0  0  0  0  0  0  0  0  0  0  0  0
   -0.5809    1.2404    2.1395 C   0  0  0  0  0  0  0  0  0  0  0  0
   -1.1672    2.0948    1.4880 O   0  0  0  0  0  0  0  0  0  0  0  0
   -0.7309    1.2045    3.4767 O   0  0  0  0  0  0  0  0  0  0  0  0
   -1.3458    1.9068    3.6908 H   0  0  0  0  0  0  0  0  0  0  0  0
    1.1074   -1.1037   -0.5054 C   0  0  0  0  0  0  0  0  0  0  0  0
    2.2113   -1.1723    0.0334 O   0  0  0  0  0  0  0  0  0  0  0  0
    0.8259   -1.7521   -1.6412 N   0  0  0  0  0  0  0  0  0  0  0  0
   -0.0867   -1.5932   -2.0557 H   0  0  0  0  0  0  0  0  0  0  0  0
    1.7667   -2.6125   -2.3554 C   0  0  0  0  0  0  0  0  0  0  0  0
    2.1858   -3.3511   -1.6685 H   0  0  0  0  0  0  0  0  0  0  0  0
    1.2586   -3.1278   -3.1714 H   0  0  0  0  0  0  0  0  0  0  0  0
    2.5821   -2.0106   -2.7604 H   0  0  0  0  0  0  0  0  0  0  0  0
  5  6  2  0  0  0  0
  5  7  1  0  0  0  0
  2  3  1  0  0  0  0
  2  4  1  0  0  0  0
  2  5  1  0  0  0  0
  1  2  1  0  0  0  0
 18 19  2  0  0  0  0
 18 20  1  0  0  0  0
 16 17  1  0  0  0  0
 14 15  2  0  0  0  0
 14 16  1  0  0  0  0
 11 12  1  0  0  0  0
 11 13  1  0  0  0  0
 11 14  1  0  0  0  0
  9 10  1  0  0  0  0
  9 11  1  0  0  0  0
  9 18  1  0  0  0  0
  7  8  1  0  0  0  0
  7  9  1  0  0  0  0
 22 23  1  0  0  0  0
 22 24  1  0  0  0  0
 22 25  1  0  0  0  0
 20 21  1  0  0  0  0
 20 22  1  0  0  0  0
M  END
$$$$
default_name
  -OEChem-01062215323D

 25 24  0     1  0  0  0  0  0999 V2000
   -2.7826   -3.8464    0.7821 H   0  0  0  0  0  0  0  0  0  0  0  0
   -2.8156   -2.8034    0.4711 C   0  0  0  0  0  0  0  0  0  0  0  0
   -3.4336   -2.2354    1.1641 H   0  0  0  0  0  0  0  0  0  0  0  0
   -3.2256   -2.7344   -0.5349 H   0  0  0  0  0  0  0  0  0  0  0  0
   -1.4126   -2.2444    0.4801 C   0  0  0  0  0  0  0  0  0  0  0  0
   -0.4686   -2.9534    0.8001 O   0  0  0  0  0  0  0  0  0  0  0  0
   -1.2736   -0.9704    0.1241 N   0  0  0  0  0  0  0  0  0  0  0  0
   -2.0996   -0.4354   -0.1019 H   0  0  0  0  0  0  0  0  0  0  0  0
   -0.0016   -0.2394    0.1271 C   0  0  1  0  0  0  0  0  0  0  0  0
   -0.1192    0.6625   -0.4776 H   0  0  0  0  0  0  0  0  0  0  0  0
    0.3481    0.1720    1.5709 C   0  0  0  0  0  0  0  0  0  0  0  0
    0.2721   -0.6977    2.2246 H   0  0  0  0  0  0  0  0  0  0  0  0
    1.3766    0.5325    1.6111 H   0  0  0  0  0  0  0  0  0  0  0  0
   -0.5809    1.2404    2.1395 C   0  0  0  0  0  0  0  0  0  0  0  0
   -1.1672    2.0948    1.4880 O   0  0  0  0  0  0  0  0  0  0  0  0
   -0.7309    1.2045    3.4767 O   0  0  0  0  0  0  0  0  0  0  0  0
   -1.3458    1.9068    3.6908 H   0  0  0  0  0  0  0  0  0  0  0  0
    1.1074   -1.1037   -0.5054 C   0  0  0  0  0  0  0  0  0  0  0  0
    2.1032   -1.3991    0.1539 O   0  0  0  0  0  0  0  0  0  0  0  0
    0.9468   -1.5006   -1.7728 N   0  0  0  0  0  0  0  0  0  0  0  0
    0.1283   -1.1621   -2.2680 H   0  0  0  0  0  0  0  0  0  0  0  0
    1.9035   -2.3263   -2.5066 C   0  0  0  0  0  0  0  0  0  0  0  0
    2.1408   -3.2204   -1.9260 H   0  0  0  0  0  0  0  0  0  0  0  0
    1.4826   -2.6232   -3.4681 H   0  0  0  0  0  0  0  0  0  0  0  0
    2.8239   -1.7641   -2.6733 H   0  0  0  0  0  0  0  0  0  0  0  0
  5  6  2  0  0  0  0
  5  7  1  0  0  0  0
  2  3  1  0  0  0  0
  2  4  1  0  0  0  0
  2  5  1  0  0  0  0
  1  2  1  0  0  0  0
 18 19  2  0  0  0  0
 18 20  1  0  0  0  0
 16 17  1  0  0  0  0
 14 15  2  0  0  0  0
 14 16  1  0  0  0  0
 11 12  1  0  0  0  0
 11 13  1  0  0  0  0
 11 14  1  0  0  0  0
  9 10  1  0  0  0  0
  9 11  1  0  0  0  0
  9 18  1  0  0  0  0
  7  8  1  0  0  0  0
  7  9  1  0  0  0  0
 22 23  1  0  0  0  0
 22 24  1  0  0  0  0
 22 25  1  0  0  0  0
 20 21  1  0  0  0  0
 20 22  1  0  0  0  0
M  END
$$$$
default_name
  -OEChem-01062215323D

 25 24  0     1  0  0  0  0  0999 V2000
   -2.7826   -3.8464    0.7821 H   0  0  0  0  0  0  0  0  0  0  0  0
   -2.8156   -2.8034    0.4711 C   0  0  0  0  0  0  0  0  0  0  0  0
   -3.4336   -2.2354    1.1641 H   0  0  0  0  0  0  0  0  0  0  0  0
   -3.2256   -2.7344   -0.5349 H   0  0  0  0  0  0  0  0  0  0  0  0
   -1.4126   -2.2444    0.4801 C   0  0  0  0  0  0  0  0  0  0  0  0
   -0.4686   -2.9534    0.8001 O   0  0  0  0  0  0  0  0  0  0  0  0
   -1.2736   -0.9704    0.1241 N   0  0  0  0  0  0  0  0  0  0  0  0
   -2.0996   -0.4354   -0.1019 H   0  0  0  0  0  0  0  0  0  0  0  0
   -0.0016   -0.2394    0.1271 C   0  0  1  0  0  0  0  0  0  0  0  0
   -0.1192    0.6625   -0.4776 H   0  0  0  0  0  0  0  0  0  0  0  0
    0.3481    0.1720    1.5709 C   0  0  0  0  0  0  0  0  0  0  0  0
    0.2721   -0.6977    2.2246 H   0  0  0  0  0  0  0  0  0  0  0  0
    1.3766    0.5325    1.6111 H   0  0  0  0  0  0  0  0  0  0  0  0
   -0.5809    1.2404    2.1395 C   0  0  0  0  0  0  0  0  0  0  0  0
   -1.1672    2.0948    1.4880 O   0  0  0  0  0  0  0  0  0  0  0  0
   -0.7309    1.2045    3.4767 O   0  0  0  0  0  0  0  0  0  0  0  0
   -1.3458    1.9068    3.6908 H   0  0  0  0  0  0  0  0  0  0  0  0
    1.1074   -1.1037   -0.5054 C   0  0  0  0  0  0  0  0  0  0  0  0
    1.9573   -1.6292    0.2123 O   0  0  0  0  0  0  0  0  0  0  0  0
    1.1094   -1.2461   -1.8356 N   0  0  0  0  0  0  0  0  0  0  0  0
    0.4124   -0.7290   -2.3616 H   0  0  0  0  0  0  0  0  0  0  0  0
    2.0879   -2.0363   -2.5796 C   0  0  0  0  0  0  0  0  0  0  0  0
    2.1485   -3.0415   -2.1568 H   0  0  0  0  0  0  0  0  0  0  0  0
    1.7957   -2.1043   -3.6283 H   0  0  0  0  0  0  0  0  0  0  0  0
    3.0710   -1.5679   -2.5082 H   0  0  0  0  0  0  0  0  0  0  0  0
  5  6  2  0  0  0  0
  5  7  1  0  0  0  0
  2  3  1  0  0  0  0
  2  4  1  0  0  0  0
  2  5  1  0  0  0  0
  1  2  1  0  0  0  0
 18 19  2  0  0  0  0
 18 20  1  0  0  0  0
 16 17  1  0  0  0  0
 14 15  2  0  0  0  0
 14 16  1  0  0  0  0
 11 12  1  0  0  0  0
 11 13  1  0  0  0  0
 11 14  1  0  0  0  0
  9 10  1  0  0  0  0
  9 11  1  0  0  0  0
  9 18  1  0  0  0  0
  7  8  1  0  0  0  0
  7  9  1  0  0  0  0
 22 23  1  0  0  0  0
 22 24  1  0  0  0  0
 22 25  1  0  0  0  0
 20 21  1  0  0  0  0
 20 22  1  0  0  0  0
M  END
$$$$
default_name
  -OEChem-01062215323D

 25 24  0     1  0  0  0  0  0999 V2000
   -2.7826   -3.8464    0.7821 H   0  0  0  0  0  0  0  0  0  0  0  0
   -2.8156   -2.8034    0.4711 C   0  0  0  0  0  0  0  0  0  0  0  0
   -3.4336   -2.2354    1.1641 H   0  0  0  0  0  0  0  0  0  0  0  0
   -3.2256   -2.7344   -0.5349 H   0  0  0  0  0  0  0  0  0  0  0  0
   -1.4126   -2.2444    0.4801 C   0  0  0  0  0  0  0  0  0  0  0  0
   -0.4686   -2.9534    0.8001 O   0  0  0  0  0  0  0  0  0  0  0  0
   -1.2736   -0.9704    0.1241 N   0  0  0  0  0  0  0  0  0  0  0  0
   -2.0996   -0.4354   -0.1019 H   0  0  0  0  0  0  0  0  0  0  0  0
   -0.0016   -0.2394    0.1271 C   0  0  1  0  0  0  0  0  0  0  0  0
   -0.1192    0.6625   -0.4776 H   0  0  0  0  0  0  0  0  0  0  0  0
    0.3481    0.1720    1.5709 C   0  0  0  0  0  0  0  0  0  0  0  0
    0.2721   -0.6977    2.2246 H   0  0  0  0  0  0  0  0  0  0  0  0
    1.3766    0.5325    1.6111 H   0  0  0  0  0  0  0  0  0  0  0  0
   -0.5809    1.2404    2.1395 C   0  0  0  0  0  0  0  0  0  0  0  0
   -1.1672    2.0948    1.4880 O   0  0  0  0  0  0  0  0  0  0  0  0
   -0.7309    1.2045    3.4767 O   0  0  0  0  0  0  0  0  0  0  0  0
   -1.3458    1.9068    3.6908 H   0  0  0  0  0  0  0  0  0  0  0  0
    1.1074   -1.1037   -0.5054 C   0  0  0  0  0  0  0  0  0  0  0  0
    1.7834   -1.8469    0.2048 O   0  0  0  0  0  0  0  0  0  0  0  0
    1.3026   -1.0058   -1.8252 N   0  0  0  0  0  0  0  0  0  0  0  0
    0.7465   -0.3233   -2.3301 H   0  0  0  0  0  0  0  0  0  0  0  0
    2.3073   -1.7622   -2.5694 C   0  0  0  0  0  0  0  0  0  0  0  0
    2.2085   -2.8266   -2.3454 H   0  0  0  0  0  0  0  0  0  0  0  0
    2.1764   -1.6065   -3.6410 H   0  0  0  0  0  0  0  0  0  0  0  0
    3.3066   -1.4353   -2.2763 H   0  0  0  0  0  0  0  0  0  0  0  0
  5  6  2  0  0  0  0
  5  7  1  0  0  0  0
  2  3  1  0  0  0  0
  2  4  1  0  0  0  0
  2  5  1  0  0  0  0
  1  2  1  0  0  0  0
 18 19  2  0  0  0  0
 18 20  1  0  0  0  0
 16 17  1  0  0  0  0
 14 15  2  0  0  0  0
 14 16  1  0  0  0  0
 11 12  1  0  0  0  0
 11 13  1  0  0  0  0
 11 14  1  0  0  0  0
  9 10  1  0  0  0  0
  9 11  1  0  0  0  0
  9 18  1  0  0  0  0
  7  8  1  0  0  0  0
  7  9  1  0  0  0  0
 22 23  1  0  0  0  0
 22 24  1  0  0  0  0
 22 25  1  0  0  0  0
 20 21  1  0  0  0  0
 20 22  1  0  0  0  0
M  END
$$$$
default_name
  -OEChem-01062215323D

 25 24  0     1  0  0  0  0  0999 V2000
   -2.7826   -3.8464    0.7821 H   0  0  0  0  0  0  0  0  0  0  0  0
   -2.8156   -2.8034    0.4711 C   0  0  0  0  0  0  0  0  0  0  0  0
   -3.4336   -2.2354    1.1641 H   0  0  0  0  0  0  0  0  0  0  0  0
   -3.2256   -2.7344   -0.5349 H   0  0  0  0  0  0  0  0  0  0  0  0
   -1.4126   -2.2444    0.4801 C   0  0  0  0  0  0  0  0  0  0  0  0
   -0.4686   -2.9534    0.8001 O   0  0  0  0  0  0  0  0  0  0  0  0
   -1.2736   -0.9704    0.1241 N   0  0  0  0  0  0  0  0  0  0  0  0
   -2.0996   -0.4354   -0.1019 H   0  0  0  0  0  0  0  0  0  0  0  0
   -0.0016   -0.2394    0.1271 C   0  0  1  0  0  0  0  0  0  0  0  0
   -0.1192    0.6625   -0.4776 H   0  0  0  0  0  0  0  0  0  0  0  0
    0.3481    0.1720    1.5709 C   0  0  0  0  0  0  0  0  0  0  0  0
    0.2721   -0.6977    2.2246 H   0  0  0  0  0  0  0  0  0  0  0  0
    1.3766    0.5325    1.6111 H   0  0  0  0  0  0  0  0  0  0  0  0
   -0.5809    1.2404    2.1395 C   0  0  0  0  0  0  0  0  0  0  0  0
   -1.1672    2.0948    1.4880 O   0  0  0  0  0  0  0  0  0  0  0  0
   -0.7309    1.2045    3.4767 O   0  0  0  0  0  0  0  0  0  0  0  0
   -1.3458    1.9068    3.6908 H   0  0  0  0  0  0  0  0  0  0  0  0
    1.1074   -1.1037   -0.5054 C   0  0  0  0  0  0  0  0  0  0  0  0
    1.5934   -2.0372    0.1318 O   0  0  0  0  0  0  0  0  0  0  0  0
    1.5132   -0.7961   -1.7424 N   0  0  0  0  0  0  0  0  0  0  0  0
    1.1077    0.0271   -2.1757 H   0  0  0  0  0  0  0  0  0  0  0  0
    2.5470   -1.5226   -2.4766 C   0  0  0  0  0  0  0  0  0  0  0  0
    2.3166   -2.5902   -2.4788 H   0  0  0  0  0  0  0  0  0  0  0  0
    2.5988   -1.1638   -3.5053 H   0  0  0  0  0  0  0  0  0  0  0  0
    3.5145   -1.3754   -1.9935 H   0  0  0  0  0  0  0  0  0  0  0  0
  5  6  2  0  0  0  0
  5  7  1  0  0  0  0
  2  3  1  0  0  0  0
  2  4  1  0  0  0  0
  2  5  1  0  0  0  0
  1  2  1  0  0  0  0
 18 19  2  0  0  0  0
 18 20  1  0  0  0  0
 16 17  1  0  0  0  0
 14 15  2  0  0  0  0
 14 16  1  0  0  0  0
 11 12  1  0  0  0  0
 11 13  1  0  0  0  0
 11 14  1  0  0  0  0
  9 10  1  0  0  0  0
  9 11  1  0  0  0  0
  9 18  1  0  0  0  0
  7  8  1  0  0  0  0
  7  9  1  0  0  0  0
 22 23  1  0  0  0  0
 22 24  1  0  0  0  0
 22 25  1  0  0  0  0
 20 21  1  0  0  0  0
 20 22  1  0  0  0  0
M  END
$$$$
default_name
  -OEChem-01062215323D

 25 24  0     1  0  0  0  0  0999 V2000
   -2.7826   -3.8464    0.7821 H   0  0  0  0  0  0  0  0  0  0  0  0
   -2.8156   -2.8034    0.4711 C   0  0  0  0  0  0  0  0  0  0  0  0
   -3.4336   -2.2354    1.1641 H   0  0  0  0  0  0  0  0  0  0  0  0
   -3.2256   -2.7344   -0.5349 H   0  0  0  0  0  0  0  0  0  0  0  0
   -1.4126   -2.2444    0.4801 C   0  0  0  0  0  0  0  0  0  0  0  0
   -0.4686   -2.9534    0.8001 O   0  0  0  0  0  0  0  0  0  0  0  0
   -1.2736   -0.9704    0.1241 N   0  0  0  0  0  0  0  0  0  0  0  0
   -2.0996   -0.4354   -0.1019 H   0  0  0  0  0  0  0  0  0  0  0  0
   -0.0016   -0.2394    0.1271 C   0  0  1  0  0  0  0  0  0  0  0  0
   -0.1192    0.6625   -0.4776 H   0  0  0  0  0  0  0  0  0  0  0  0
    0.3481    0.1720    1.5709 C   0  0  0  0  0  0  0  0  0  0  0  0
    0.2721   -0.6977    2.2246 H   0  0  0  0  0  0  0  0  0  0  0  0
    1.3766    0.5325    1.6111 H   0  0  0  0  0  0  0  0  0  0  0  0
   -0.5809    1.2404    2.1395 C   0  0  0  0  0  0  0  0  0  0  0  0
   -1.1672    2.0948    1.4880 O   0  0  0  0  0  0  0  0  0  0  0  0
   -0.7309    1.2045    3.4767 O   0  0  0  0  0  0  0  0  0  0  0  0
   -1.3458    1.9068    3.6908 H   0  0  0  0  0  0  0  0  0  0  0  0
    1.1074   -1.1037   -0.5054 C   0  0  0  0  0  0  0  0  0  0  0  0
    1.4002   -2.1873   -0.0017 O   0  0  0  0  0  0  0  0  0  0  0  0
    1.7269   -0.6313   -1.5929 N   0  0  0  0  0  0  0  0  0  0  0  0
    1.4713    0.2986   -1.9089 H   0  0  0  0  0  0  0  0  0  0  0  0
    2.7904   -1.3339   -2.3076 C   0  0  0  0  0  0  0  0  0  0  0  0
    2.4655   -2.3486   -2.5480 H   0  0  0  0  0  0  0  0  0  0  0  0
    3.0342   -0.8062   -3.2305 H   0  0  0  0  0  0  0  0  0  0  0  0
    3.6807   -1.3923   -1.6790 H   0  0  0  0  0  0  0  0  0  0  0  0
  5  6  2  0  0  0  0
  5  7  1  0  0  0  0
  2  3  1  0  0  0  0
  2  4  1  0  0  0  0
  2  5  1  0  0  0  0
  1  2  1  0  0  0  0
 18 19  2  0  0  0  0
 18 20  1  0  0  0  0
 16 17  1  0  0  0  0
 14 15  2  0  0  0  0
 14 16  1  0  0  0  0
 11 12  1  0  0  0  0
 11 13  1  0  0  0  0
 11 14  1  0  0  0  0
  9 10  1  0  0  0  0
  9 11  1  0  0  0  0
  9 18  1  0  0  0  0
  7  8  1  0  0  0  0
  7  9  1  0  0  0  0
 22 23  1  0  0  0  0
 22 24  1  0  0  0  0
 22 25  1  0  0  0  0
 20 21  1  0  0  0  0
 20 22  1  0  0  0  0
M  END
$$$$
default_name
  -OEChem-01062215323D

 25 24  0     1  0  0  0  0  0999 V2000
   -2.7826   -3.8464    0.7821 H   0  0  0  0  0  0  0  0  0  0  0  0
   -2.8156   -2.8034    0.4711 C   0  0  0  0  0  0  0  0  0  0  0  0
   -3.4336   -2.2354    1.1641 H   0  0  0  0  0  0  0  0  0  0  0  0
   -3.2256   -2.7344   -0.5349 H   0  0  0  0  0  0  0  0  0  0  0  0
   -1.4126   -2.2444    0.4801 C   0  0  0  0  0  0  0  0  0  0  0  0
   -0.4686   -2.9534    0.8001 O   0  0  0  0  0  0  0  0  0  0  0  0
   -1.2736   -0.9704    0.1241 N   0  0  0  0  0  0  0  0  0  0  0  0
   -2.0996   -0.4354   -0.1019 H   0  0  0  0  0  0  0  0  0  0  0  0
   -0.0016   -0.2394    0.1271 C   0  0  1  0  0  0  0  0  0  0  0  0
   -0.1192    0.6625   -0.4776 H   0  0  0  0  0  0  0  0  0  0  0  0
    0.3481    0.1720    1.5709 C   0  0  0  0  0  0  0  0  0  0  0  0
    0.2721   -0.6977    2.2246 H   0  0  0  0  0  0  0  0  0  0  0  0
    1.3766    0.5325    1.6111 H   0  0  0  0  0  0  0  0  0  0  0  0
   -0.5809    1.2404    2.1395 C   0  0  0  0  0  0  0  0  0  0  0  0
   -1.1672    2.0948    1.4880 O   0  0  0  0  0  0  0  0  0  0  0  0
   -0.7309    1.2045    3.4767 O   0  0  0  0  0  0  0  0  0  0  0  0
   -1.3458    1.9068    3.6908 H   0  0  0  0  0  0  0  0  0  0  0  0
    1.1074   -1.1037   -0.5054 C   0  0  0  0  0  0  0  0  0  0  0  0
    1.2171   -2.2869   -0.1867 O   0  0  0  0  0  0  0  0  0  0  0  0
    1.9291   -0.5227   -1.3868 N   0  0  0  0  0  0  0  0  0  0  0  0
    1.8127    0.4725   -1.5479 H   0  0  0  0  0  0  0  0  0  0  0  0
    3.0211   -1.2089   -2.0739 C   0  0  0  0  0  0  0  0  0  0  0  0
    2.6450   -2.1181   -2.5482 H   0  0  0  0  0  0  0  0  0  0  0  0
    3.4528   -0.5582   -2.8353 H   0  0  0  0  0  0  0  0  0  0  0  0
    3.7938   -1.4849   -1.3542 H   0  0  0  0  0  0  0  0  0  0  0  0
  5  6  2  0  0  0  0
  5  7  1  0  0  0  0
  2  3  1  0  0  0  0
  2  4  1  0  0  0  0
  2  5  1  0  0  0  0
  1  2  1  0  0  0  0
 18 19  2  0  0  0  0
 18 20  1  0  0  0  0
 16 17  1  0  0  0  0
 14 15  2  0  0  0  0
 14 16  1  0  0  0  0
 11 12  1  0  0  0  0
 11 13  1  0  0  0  0
 11 14  1  0  0  0  0
  9 10  1  0  0  0  0
  9 11  1  0  0  0  0
  9 18  1  0  0  0  0
  7  8  1  0  0  0  0
  7  9  1  0  0  0  0
 22 23  1  0  0  0  0
 22 24  1  0  0  0  0
 22 25  1  0  0  0  0
 20 21  1  0  0  0  0
 20 22  1  0  0  0  0
M  END
$$$$
default_name
  -OEChem-01062215323D

 25 24  0     1  0  0  0  0  0999 V2000
   -2.7826   -3.8464    0.7821 H   0  0  0  0  0  0  0  0  0  0  0  0
   -2.8156   -2.8034    0.4711 C   0  0  0  0  0  0  0  0  0  0  0  0
   -3.4336   -2.2354    1.1641 H   0  0  0  0  0  0  0  0  0  0  0  0
   -3.2256   -2.7344   -0.5349 H   0  0  0  0  0  0  0  0  0  0  0  0
   -1.4126   -2.2444    0.4801 C   0  0  0  0  0  0  0  0  0  0  0  0
   -0.4686   -2.9534    0.8001 O   0  0  0  0  0  0  0  0  0  0  0  0
   -1.2736   -0.9704    0.1241 N   0  0  0  0  0  0  0  0  0  0  0  0
   -2.0996   -0.4354   -0.1019 H   0  0  0  0  0  0  0  0  0  0  0  0
   -0.0016   -0.2394    0.1271 C   0  0  1  0  0  0  0  0  0  0  0  0
   -0.1192    0.6625   -0.4776 H   0  0  0  0  0  0  0  0  0  0  0  0
    0.3481    0.1720    1.5709 C   0  0  0  0  0  0  0  0  0  0  0  0
    0.2721   -0.6977    2.2246 H   0  0  0  0  0  0  0  0  0  0  0  0
    1.3766    0.5325    1.6111 H   0  0  0  0  0  0  0  0  0  0  0  0
   -0.5809    1.2404    2.1395 C   0  0  0  0  0  0  0  0  0  0  0  0
   -1.1672    2.0948    1.4880 O   0  0  0  0  0  0  0  0  0  0  0  0
   -0.7309    1.2045    3.4767 O   0  0  0  0  0  0  0  0  0  0  0  0
   -1.3458    1.9068    3.6908 H   0  0  0  0  0  0  0  0  0  0  0  0
    1.1074   -1.1037   -0.5054 C   0  0  0  0  0  0  0  0  0  0  0  0
    1.0565   -2.3293   -0.4105 O   0  0  0  0  0  0  0  0  0  0  0  0
    2.1060   -0.4776   -1.1381 N   0  0  0  0  0  0  0  0  0  0  0  0
    2.1086    0.5370   -1.1173 H   0  0  0  0  0  0  0  0  0  0  0  0
    3.2232   -1.1562   -1.7914 C   0  0  0  0  0  0  0  0  0  0  0  0
    2.8429   -1.9144   -2.4795 H   0  0  0  0  0  0  0  0  0  0  0  0
    3.8262   -0.4367   -2.3468 H   0  0  0  0  0  0  0  0  0  0  0  0
    3.8461   -1.6467   -1.0413 H   0  0  0  0  0  0  0  0  0  0  0  0
  5  6  2  0  0  0  0
  5  7  1  0  0  0  0
  2  3  1  0  0  0  0
  2  4  1  0  0  0  0
  2  5  1  0  0  0  0
  1  2  1  0  0  0  0
 18 19  2  0  0  0  0
 18 20  1  0  0  0  0
 16 17  1  0  0  0  0
 14 15  2  0  0  0  0
 14 16  1  0  0  0  0
 11 12  1  0  0  0  0
 11 13  1  0  0  0  0
 11 14  1  0  0  0  0
  9 10  1  0  0  0  0
  9 11  1  0  0  0  0
  9 18  1  0  0  0  0
  7  8  1  0  0  0  0
  7  9  1  0  0  0  0
 22 23  1  0  0  0  0
 22 24  1  0  0  0  0
 22 25  1  0  0  0  0
 20 21  1  0  0  0  0
 20 22  1  0  0  0  0
M  END
$$$$
default_name
  -OEChem-01062215323D

 25 24  0     1  0  0  0  0  0999 V2000
   -2.7826   -3.8464    0.7821 H   0  0  0  0  0  0  0  0  0  0  0  0
   -2.8156   -2.8034    0.4711 C   0  0  0  0  0  0  0  0  0  0  0  0
   -3.4336   -2.2354    1.1641 H   0  0  0  0  0  0  0  0  0  0  0  0
   -3.2256   -2.7344   -0.5349 H   0  0  0  0  0  0  0  0  0  0  0  0
   -1.4126   -2.2444    0.4801 C   0  0  0  0  0  0  0  0  0  0  0  0
   -0.4686   -2.9534    0.8001 O   0  0  0  0  0  0  0  0  0  0  0  0
   -1.2736   -0.9704    0.1241 N   0  0  0  0  0  0  0  0  0  0  0  0
   -2.0996   -0.4354   -0.1019 H   0  0  0  0  0  0  0  0  0  0  0  0
   -0.0016   -0.2394    0.1271 C   0  0  1  0  0  0  0  0  0  0  0  0
   -0.1192    0.6625   -0.4776 H   0  0  0  0  0  0  0  0  0  0  0  0
    0.3481    0.1720    1.5709 C   0  0  0  0  0  0  0  0  0  0  0  0
    0.2721   -0.6977    2.2246 H   0  0  0  0  0  0  0  0  0  0  0  0
    1.3766    0.5325    1.6111 H   0  0  0  0  0  0  0  0  0  0  0  0
   -0.5809    1.2404    2.1395 C   0  0  0  0  0  0  0  0  0  0  0  0
   -1.1672    2.0948    1.4880 O   0  0  0  0  0  0  0  0  0  0  0  0
   -0.7309    1.2045    3.4767 O   0  0  0  0  0  0  0  0  0  0  0  0
   -1.3458    1.9068    3.6908 H   0  0  0  0  0  0  0  0  0  0  0  0
    1.1074   -1.1037   -0.5054 C   0  0  0  0  0  0  0  0  0  0  0  0
    0.9293   -2.3115   -0.6578 O   0  0  0  0  0  0  0  0  0  0  0  0
    2.2457   -0.4992   -0.8638 N   0  0  0  0  0  0  0  0  0  0  0  0
    2.3387    0.4877   -0.6465 H   0  0  0  0  0  0  0  0  0  0  0  0
    3.3831   -1.1794   -1.4794 C   0  0  0  0  0  0  0  0  0  0  0  0
    3.0457   -1.7516   -2.3464 H   0  0  0  0  0  0  0  0  0  0  0  0
    4.1288   -0.4499   -1.7980 H   0  0  0  0  0  0  0  0  0  0  0  0
    3.8340   -1.8669   -0.7617 H   0  0  0  0  0  0  0  0  0  0  0  0
  5  6  2  0  0  0  0
  5  7  1  0  0  0  0
  2  3  1  0  0  0  0
  2  4  1  0  0  0  0
  2  5  1  0  0  0  0
  1  2  1  0  0  0  0
 18 19  2  0  0  0  0
 18 20  1  0  0  0  0
 16 17  1  0  0  0  0
 14 15  2  0  0  0  0
 14 16  1  0  0  0  0
 11 12  1  0  0  0  0
 11 13  1  0  0  0  0
 11 14  1  0  0  0  0
  9 10  1  0  0  0  0
  9 11  1  0  0  0  0
  9 18  1  0  0  0  0
  7  8  1  0  0  0  0
  7  9  1  0  0  0  0
 22 23  1  0  0  0  0
 22 24  1  0  0  0  0
 22 25  1  0  0  0  0
 20 21  1  0  0  0  0
 20 22  1  0  0  0  0
M  END
$$$$
default_name
  -OEChem-01062215323D

 25 24  0     1  0  0  0  0  0999 V2000
   -2.7826   -3.8464    0.7821 H   0  0  0  0  0  0  0  0  0  0  0  0
   -2.8156   -2.8034    0.4711 C   0  0  0  0  0  0  0  0  0  0  0  0
   -3.4336   -2.2354    1.1641 H   0  0  0  0  0  0  0  0  0  0  0  0
   -3.2256   -2.7344   -0.5349 H   0  0  0  0  0  0  0  0  0  0  0  0
   -1.4126   -2.2444    0.4801 C   0  0  0  0  0  0  0  0  0  0  0  0
   -0.4686   -2.9534    0.8001 O   0  0  0  0  0  0  0  0  0  0  0  0
   -1.2736   -0.9704    0.1241 N   0  0  0  0  0  0  0  0  0  0  0  0
   -2.0996   -0.4354   -0.1019 H   0  0  0  0  0  0  0  0  0  0  0  0
   -0.0016   -0.2394    0.1271 C   0  0  1  0  0  0  0  0  0  0  0  0
   -0.1834    0.7733   -0.2394 H   0  0  0  0  0  0  0  0  0  0  0  0
    0.5373   -0.1572    1.5689 C   0  0  0  0  0  0  0  0  0  0  0  0
    0.5339   -1.1524    2.0150 H   0  0  0  0  0  0  0  0  0  0  0  0
    1.5674    0.2007    1.5561 H   0  0  0  0  0  0  0  0  0  0  0  0
   -0.2954    0.7421    2.4777 C   0  0  0  0  0  0  0  0  0  0  0  0
   -0.9487    1.7119    2.1157 O   0  0  0  0  0  0  0  0  0  0  0  0
   -0.2720    0.4048    3.7806 O   0  0  0  0  0  0  0  0  0  0  0  0
   -0.8442    1.0317    4.2243 H   0  0  0  0  0  0  0  0  0  0  0  0
    1.0041   -0.9228   -0.8208 C   0  0  0  0  0  0  0  0  0  0  0  0
    0.6748   -1.9376   -1.4333 O   0  0  0  0  0  0  0  0  0  0  0  0
    2.2221   -0.3821   -0.9379 N   0  0  0  0  0  0  0  0  0  0  0  0
    2.4365    0.4175   -0.3509 H   0  0  0  0  0  0  0  0  0  0  0  0
    3.2796   -0.9084   -1.7982 C   0  0  0  0  0  0  0  0  0  0  0  0
    2.8975   -1.0425   -2.8126 H   0  0  0  0  0  0  0  0  0  0  0  0
    4.1237   -0.2179   -1.8203 H   0  0  0  0  0  0  0  0  0  0  0  0
    3.6144   -1.8761   -1.4208 H   0  0  0  0  0  0  0  0  0  0  0  0
  5  6  2  0  0  0  0
  5  7  1  0  0  0  0
  2  3  1  0  0  0  0
  2  4  1  0  0  0  0
  2  5  1  0  0  0  0
  1  2  1  0  0  0  0
 18 19  2  0  0  0  0
 18 20  1  0  0  0  0
 16 17  1  0  0  0  0
 14 15  2  0  0  0  0
 14 16  1  0  0  0  0
 11 12  1  0  0  0  0
 11 13  1  0  0  0  0
 11 14  1  0  0  0  0
  9 10  1  0  0  0  0
  9 11  1  0  0  0  0
  9 18  1  0  0  0  0
  7  8  1  0  0  0  0
  7  9  1  0  0  0  0
 22 23  1  0  0  0  0
 22 24  1  0  0  0  0
 22 25  1  0  0  0  0
 20 21  1  0  0  0  0
 20 22  1  0  0  0  0
M  END
$$$$
default_name
  -OEChem-01062215323D

 25 24  0     1  0  0  0  0  0999 V2000
   -2.7826   -3.8464    0.7821 H   0  0  0  0  0  0  0  0  0  0  0  0
   -2.8156   -2.8034    0.4711 C   0  0  0  0  0  0  0  0  0  0  0  0
   -3.4336   -2.2354    1.1641 H   0  0  0  0  0  0  0  0  0  0  0  0
   -3.2256   -2.7344   -0.5349 H   0  0  0  0  0  0  0  0  0  0  0  0
   -1.4126   -2.2444    0.4801 C   0  0  0  0  0  0  0  0  0  0  0  0
   -0.4686   -2.9534    0.8001 O   0  0  0  0  0  0  0  0  0  0  0  0
   -1.2736   -0.9704    0.1241 N   0  0  0  0  0  0  0  0  0  0  0  0
   -2.0996   -0.4354   -0.1019 H   0  0  0  0  0  0  0  0  0  0  0  0
   -0.0016   -0.2394    0.1271 C   0  0  1  0  0  0  0  0  0  0  0  0
   -0.1834    0.7733   -0.2394 H   0  0  0  0  0  0  0  0  0  0  0  0
    0.5373   -0.1572    1.5689 C   0  0  0  0  0  0  0  0  0  0  0  0
    0.5339   -1.1524    2.0150 H   0  0  0  0  0  0  0  0  0  0  0  0
    1.5674    0.2007    1.5561 H   0  0  0  0  0  0  0  0  0  0  0  0
   -0.2954    0.7421    2.4777 C   0  0  0  0  0  0  0  0  0  0  0  0
   -0.9487    1.7119    2.1157 O   0  0  0  0  0  0  0  0  0  0  0  0
   -0.2720    0.4048    3.7806 O   0  0  0  0  0  0  0  0  0  0  0  0
   -0.8442    1.0317    4.2243 H   0  0  0  0  0  0  0  0  0  0  0  0
    1.0041   -0.9228   -0.8208 C   0  0  0  0  0  0  0  0  0  0  0  0
    0.6084   -1.7564   -1.6344 O   0  0  0  0  0  0  0  0  0  0  0  0
    2.2941   -0.5840   -0.7160 N   0  0  0  0  0  0  0  0  0  0  0  0
    2.5482    0.0639    0.0226 H   0  0  0  0  0  0  0  0  0  0  0  0
    3.3627   -1.1373   -1.5450 C   0  0  0  0  0  0  0  0  0  0  0  0
    3.0983   -1.0413   -2.6004 H   0  0  0  0  0  0  0  0  0  0  0  0
    4.2961   -0.6048   -1.3583 H   0  0  0  0  0  0  0  0  0  0  0  0
    3.4981   -2.1954   -1.3141 H   0  0  0  0  0  0  0  0  0  0  0  0
  5  6  2  0  0  0  0
  5  7  1  0  0  0  0
  2  3  1  0  0  0  0
  2  4  1  0  0  0  0
  2  5  1  0  0  0  0
  1  2  1  0  0  0  0
 18 19  2  0  0  0  0
 18 20  1  0  0  0  0
 16 17  1  0  0  0  0
 14 15  2  0  0  0  0
 14 16  1  0  0  0  0
 11 12  1  0  0  0  0
 11 13  1  0  0  0  0
 11 14  1  0  0  0  0
  9 10  1  0  0  0  0
  9 11  1  0  0  0  0
  9 18  1  0  0  0  0
  7  8  1  0  0  0  0
  7  9  1  0  0  0  0
 22 23  1  0  0  0  0
 22 24  1  0  0  0  0
 22 25  1  0  0  0  0
 20 21  1  0  0  0  0
 20 22  1  0  0  0  0
M  END
$$$$
default_name
  -OEChem-01062215323D

 25 24  0     1  0  0  0  0  0999 V2000
   -2.7826   -3.8464    0.7821 H   0  0  0  0  0  0  0  0  0  0  0  0
   -2.8156   -2.8034    0.4711 C   0  0  0  0  0  0  0  0  0  0  0  0
   -3.4336   -2.2354    1.1641 H   0  0  0  0  0  0  0  0  0  0  0  0
   -3.2256   -2.7344   -0.5349 H   0  0  0  0  0  0  0  0  0  0  0  0
   -1.4126   -2.2444    0.4801 C   0  0  0  0  0  0  0  0  0  0  0  0
   -0.4686   -2.9534    0.8001 O   0  0  0  0  0  0  0  0  0  0  0  0
   -1.2736   -0.9704    0.1241 N   0  0  0  0  0  0  0  0  0  0  0  0
   -2.0996   -0.4354   -0.1019 H   0  0  0  0  0  0  0  0  0  0  0  0
   -0.0016   -0.2394    0.1271 C   0  0  1  0  0  0  0  0  0  0  0  0
   -0.1834    0.7733   -0.2394 H   0  0  0  0  0  0  0  0  0  0  0  0
    0.5373   -0.1572    1.5689 C   0  0  0  0  0  0  0  0  0  0  0  0
    0.5339   -1.1524    2.0150 H   0  0  0  0  0  0  0  0  0  0  0  0
    1.5674    0.2007    1.5561 H   0  0  0  0  0  0  0  0  0  0  0  0
   -0.2954    0.7421    2.4777 C   0  0  0  0  0  0  0  0  0  0  0  0
   -0.9487    1.7119    2.1157 O   0  0  0  0  0  0  0  0  0  0  0  0
   -0.2720    0.4048    3.7806 O   0  0  0  0  0  0  0  0  0  0  0  0
   -0.8442    1.0317    4.2243 H   0  0  0  0  0  0  0  0  0  0  0  0
    1.0041   -0.9228   -0.8208 C   0  0  0  0  0  0  0  0  0  0  0  0
    0.5961   -1.5369   -1.8056 O   0  0  0  0  0  0  0  0  0  0  0  0
    2.3059   -0.8280   -0.5275 N   0  0  0  0  0  0  0  0  0  0  0  0
    2.5570   -0.3586    0.3365 H   0  0  0  0  0  0  0  0  0  0  0  0
    3.3775   -1.4144   -1.3295 C   0  0  0  0  0  0  0  0  0  0  0  0
    3.2681   -1.1079   -2.3721 H   0  0  0  0  0  0  0  0  0  0  0  0
    4.3482   -1.0840   -0.9576 H   0  0  0  0  0  0  0  0  0  0  0  0
    3.3226   -2.5032   -1.2783 H   0  0  0  0  0  0  0  0  0  0  0  0
  5  6  2  0  0  0  0
  5  7  1  0  0  0  0
  2  3  1  0  0  0  0
  2  4  1  0  0  0  0
  2  5  1  0  0  0  0
  1  2  1  0  0  0  0
 18 19  2  0  0  0  0
 18 20  1  0  0  0  0
 16 17  1  0  0  0  0
 14 15  2  0  0  0  0
 14 16  1  0  0  0  0
 11 12  1  0  0  0  0
 11 13  1  0  0  0  0
 11 14  1  0  0  0  0
  9 10  1  0  0  0  0
  9 11  1  0  0  0  0
  9 18  1  0  0  0  0
  7  8  1  0  0  0  0
  7  9  1  0  0  0  0
 22 23  1  0  0  0  0
 22 24  1  0  0  0  0
 22 25  1  0  0  0  0
 20 21  1  0  0  0  0
 20 22  1  0  0  0  0
M  END
$$$$
default_name
  -OEChem-01062215323D

 25 24  0     1  0  0  0  0  0999 V2000
   -2.7826   -3.8464    0.7821 H   0  0  0  0  0  0  0  0  0  0  0  0
   -2.8156   -2.8034    0.4711 C   0  0  0  0  0  0  0  0  0  0  0  0
   -3.4336   -2.2354    1.1641 H   0  0  0  0  0  0  0  0  0  0  0  0
   -3.2256   -2.7344   -0.5349 H   0  0  0  0  0  0  0  0  0  0  0  0
   -1.4126   -2.2444    0.4801 C   0  0  0  0  0  0  0  0  0  0  0  0
   -0.4686   -2.9534    0.8001 O   0  0  0  0  0  0  0  0  0  0  0  0
   -1.2736   -0.9704    0.1241 N   0  0  0  0  0  0  0  0  0  0  0  0
   -2.0996   -0.4354   -0.1019 H   0  0  0  0  0  0  0  0  0  0  0  0
   -0.0016   -0.2394    0.1271 C   0  0  1  0  0  0  0  0  0  0  0  0
   -0.1834    0.7733   -0.2394 H   0  0  0  0  0  0  0  0  0  0  0  0
    0.5373   -0.1572    1.5689 C   0  0  0  0  0  0  0  0  0  0  0  0
    0.5339   -1.1524    2.0150 H   0  0  0  0  0  0  0  0  0  0  0  0
    1.5674    0.2007    1.5561 H   0  0  0  0  0  0  0  0  0  0  0  0
   -0.2954    0.7421    2.4777 C   0  0  0  0  0  0  0  0  0  0  0  0
   -0.9487    1.7119    2.1157 O   0  0  0  0  0  0  0  0  0  0  0  0
   -0.2720    0.4048    3.7806 O   0  0  0  0  0  0  0  0  0  0  0  0
   -0.8442    1.0317    4.2243 H   0  0  0  0  0  0  0  0  0  0  0  0
    1.0041   -0.9228   -0.8208 C   0  0  0  0  0  0  0  0  0  0  0  0
    0.6389   -1.2940   -1.9354 O   0  0  0  0  0  0  0  0  0  0  0  0
    2.2569   -1.0973   -0.3853 N   0  0  0  0  0  0  0  0  0  0  0  0
    2.4622   -0.8211    0.5694 H   0  0  0  0  0  0  0  0  0  0  0  0
    3.3230   -1.7208   -1.1665 C   0  0  0  0  0  0  0  0  0  0  0  0
    3.3953   -1.2379   -2.1435 H   0  0  0  0  0  0  0  0  0  0  0  0
    4.2762   -1.6228   -0.6455 H   0  0  0  0  0  0  0  0  0  0  0  0
    3.1001   -2.7787   -1.3159 H   0  0  0  0  0  0  0  0  0  0  0  0
  5  6  2  0  0  0  0
  5  7  1  0  0  0  0
  2  3  1  0  0  0  0
  2  4  1  0  0  0  0
  2  5  1  0  0  0  0
  1  2  1  0  0  0  0
 18 19  2  0  0  0  0
 18 20  1  0  0  0  0
 16 17  1  0  0  0  0
 14 15  2  0  0  0  0
 14 16  1  0  0  0  0
 11 12  1  0  0  0  0
 11 13  1  0  0  0  0
 11 14  1  0  0  0  0
  9 10  1  0  0  0  0
  9 11  1  0  0  0  0
  9 18  1  0  0  0  0
  7  8  1  0  0  0  0
  7  9  1  0  0  0  0
 22 23  1  0  0  0  0
 22 24  1  0  0  0  0
 22 25  1  0  0  0  0
 20 21  1  0  0  0  0
 20 22  1  0  0  0  0
M  END
$$$$
default_name
  -OEChem-01062215323D

 25 24  0     1  0  0  0  0  0999 V2000
   -2.7826   -3.8464    0.7821 H   0  0  0  0  0  0  0  0  0  0  0  0
   -2.8156   -2.8034    0.4711 C   0  0  0  0  0  0  0  0  0  0  0  0
   -3.4336   -2.2354    1.1641 H   0  0  0  0  0  0  0  0  0  0  0  0
   -3.2256   -2.7344   -0.5349 H   0  0  0  0  0  0  0  0  0  0  0  0
   -1.4126   -2.2444    0.4801 C   0  0  0  0  0  0  0  0  0  0  0  0
   -0.4686   -2.9534    0.8001 O   0  0  0  0  0  0  0  0  0  0  0  0
   -1.2736   -0.9704    0.1241 N   0  0  0  0  0  0  0  0  0  0  0  0
   -2.0996   -0.4354   -0.1019 H   0  0  0  0  0  0  0  0  0  0  0  0
   -0.0016   -0.2394    0.1271 C   0  0  1  0  0  0  0  0  0  0  0  0
   -0.1834    0.7733   -0.2394 H   0  0  0  0  0  0  0  0  0  0  0  0
    0.5373   -0.1572    1.5689 C   0  0  0  0  0  0  0  0  0  0  0  0
    0.5339   -1.1524    2.0150 H   0  0  0  0  0  0  0  0  0  0  0  0
    1.5674    0.2007    1.5561 H   0  0  0  0  0  0  0  0  0  0  0  0
   -0.2954    0.7421    2.4777 C   0  0  0  0  0  0  0  0  0  0  0  0
   -0.9487    1.7119    2.1157 O   0  0  0  0  0  0  0  0  0  0  0  0
   -0.2720    0.4048    3.7806 O   0  0  0  0  0  0  0  0  0  0  0  0
   -0.8442    1.0317    4.2243 H   0  0  0  0  0  0  0  0  0  0  0  0
    1.0041   -0.9228   -0.8208 C   0  0  0  0  0  0  0  0  0  0  0  0
    0.7337   -1.0443   -2.0148 O   0  0  0  0  0  0  0  0  0  0  0  0
    2.1505   -1.3737   -0.2990 N   0  0  0  0  0  0  0  0  0  0  0  0
    2.2704   -1.2921    0.7054 H   0  0  0  0  0  0  0  0  0  0  0  0
    3.2029   -2.0356   -1.0670 C   0  0  0  0  0  0  0  0  0  0  0  0
    3.4713   -1.4222   -1.9299 H   0  0  0  0  0  0  0  0  0  0  0  0
    4.0852   -2.1845   -0.4433 H   0  0  0  0  0  0  0  0  0  0  0  0
    2.8456   -3.0030   -1.4242 H   0  0  0  0  0  0  0  0  0  0  0  0
  5  6  2  0  0  0  0
  5  7  1  0  0  0  0
  2  3  1  0  0  0  0
  2  4  1  0  0  0  0
  2  5  1  0  0  0  0
  1  2  1  0  0  0  0
 18 19  2  0  0  0  0
 18 20  1  0  0  0  0
 16 17  1  0  0  0  0
 14 15  2  0  0  0  0
 14 16  1  0  0  0  0
 11 12  1  0  0  0  0
 11 13  1  0  0  0  0
 11 14  1  0  0  0  0
  9 10  1  0  0  0  0
  9 11  1  0  0  0  0
  9 18  1  0  0  0  0
  7  8  1  0  0  0  0
  7  9  1  0  0  0  0
 22 23  1  0  0  0  0
 22 24  1  0  0  0  0
 22 25  1  0  0  0  0
 20 21  1  0  0  0  0
 20 22  1  0  0  0  0
M  END
$$$$
default_name
  -OEChem-01062215323D

 25 24  0     1  0  0  0  0  0999 V2000
   -2.7826   -3.8464    0.7821 H   0  0  0  0  0  0  0  0  0  0  0  0
   -2.8156   -2.8034    0.4711 C   0  0  0  0  0  0  0  0  0  0  0  0
   -3.4336   -2.2354    1.1641 H   0  0  0  0  0  0  0  0  0  0  0  0
   -3.2256   -2.7344   -0.5349 H   0  0  0  0  0  0  0  0  0  0  0  0
   -1.4126   -2.2444    0.4801 C   0  0  0  0  0  0  0  0  0  0  0  0
   -0.4686   -2.9534    0.8001 O   0  0  0  0  0  0  0  0  0  0  0  0
   -1.2736   -0.9704    0.1241 N   0  0  0  0  0  0  0  0  0  0  0  0
   -2.0996   -0.4354   -0.1019 H   0  0  0  0  0  0  0  0  0  0  0  0
   -0.0016   -0.2394    0.1271 C   0  0  1  0  0  0  0  0  0  0  0  0
   -0.1834    0.7733   -0.2394 H   0  0  0  0  0  0  0  0  0  0  0  0
    0.5373   -0.1572    1.5689 C   0  0  0  0  0  0  0  0  0  0  0  0
    0.5339   -1.1524    2.0150 H   0  0  0  0  0  0  0  0  0  0  0  0
    1.5674    0.2007    1.5561 H   0  0  0  0  0  0  0  0  0  0  0  0
   -0.2954    0.7421    2.4777 C   0  0  0  0  0  0  0  0  0  0  0  0
   -0.9487    1.7119    2.1157 O   0  0  0  0  0  0  0  0  0  0  0  0
   -0.2720    0.4048    3.7806 O   0  0  0  0  0  0  0  0  0  0  0  0
   -0.8442    1.0317    4.2243 H   0  0  0  0  0  0  0  0  0  0  0  0
    1.0041   -0.9228   -0.8208 C   0  0  0  0  0  0  0  0  0  0  0  0
    0.8742   -0.8048   -2.0384 O   0  0  0  0  0  0  0  0  0  0  0  0
    1.9937   -1.6383   -0.2746 N   0  0  0  0  0  0  0  0  0  0  0  0
    1.9945   -1.7395    0.7352 H   0  0  0  0  0  0  0  0  0  0  0  0
    3.0254   -2.3374   -1.0378 C   0  0  0  0  0  0  0  0  0  0  0  0
    3.4908   -1.6485   -1.7461 H   0  0  0  0  0  0  0  0  0  0  0  0
    3.7881   -2.7308   -0.3647 H   0  0  0  0  0  0  0  0  0  0  0  0
    2.5765   -3.1610   -1.5958 H   0  0  0  0  0  0  0  0  0  0  0  0
  5  6  2  0  0  0  0
  5  7  1  0  0  0  0
  2  3  1  0  0  0  0
  2  4  1  0  0  0  0
  2  5  1  0  0  0  0
  1  2  1  0  0  0  0
 18 19  2  0  0  0  0
 18 20  1  0  0  0  0
 16 17  1  0  0  0  0
 14 15  2  0  0  0  0
 14 16  1  0  0  0  0
 11 12  1  0  0  0  0
 11 13  1  0  0  0  0
 11 14  1  0  0  0  0
  9 10  1  0  0  0  0
  9 11  1  0  0  0  0
  9 18  1  0  0  0  0
  7  8  1  0  0  0  0
  7  9  1  0  0  0  0
 22 23  1  0  0  0  0
 22 24  1  0  0  0  0
 22 25  1  0  0  0  0
 20 21  1  0  0  0  0
 20 22  1  0  0  0  0
M  END
$$$$
default_name
  -OEChem-01062215323D

 25 24  0     1  0  0  0  0  0999 V2000
   -2.7826   -3.8464    0.7821 H   0  0  0  0  0  0  0  0  0  0  0  0
   -2.8156   -2.8034    0.4711 C   0  0  0  0  0  0  0  0  0  0  0  0
   -3.4336   -2.2354    1.1641 H   0  0  0  0  0  0  0  0  0  0  0  0
   -3.2256   -2.7344   -0.5349 H   0  0  0  0  0  0  0  0  0  0  0  0
   -1.4126   -2.2444    0.4801 C   0  0  0  0  0  0  0  0  0  0  0  0
   -0.4686   -2.9534    0.8001 O   0  0  0  0  0  0  0  0  0  0  0  0
   -1.2736   -0.9704    0.1241 N   0  0  0  0  0  0  0  0  0  0  0  0
   -2.0996   -0.4354   -0.1019 H   0  0  0  0  0  0  0  0  0  0  0  0
   -0.0016   -0.2394    0.1271 C   0  0  1  0  0  0  0  0  0  0  0  0
   -0.1834    0.7733   -0.2394 H   0  0  0  0  0  0  0  0  0  0  0  0
    0.5373   -0.1572    1.5689 C   0  0  0  0  0  0  0  0  0  0  0  0
    0.5339   -1.1524    2.0150 H   0  0  0  0  0  0  0  0  0  0  0  0
    1.5674    0.2007    1.5561 H   0  0  0  0  0  0  0  0  0  0  0  0
   -0.2954    0.7421    2.4777 C   0  0  0  0  0  0  0  0  0  0  0  0
   -0.9487    1.7119    2.1157 O   0  0  0  0  0  0  0  0  0  0  0  0
   -0.2720    0.4048    3.7806 O   0  0  0  0  0  0  0  0  0  0  0  0
   -0.8442    1.0317    4.2243 H   0  0  0  0  0  0  0  0  0  0  0  0
    1.0041   -0.9228   -0.8208 C   0  0  0  0  0  0  0  0  0  0  0  0
    1.0506   -0.5917   -2.0047 O   0  0  0  0  0  0  0  0  0  0  0  0
    1.7974   -1.8731   -0.3136 N   0  0  0  0  0  0  0  0  0  0  0  0
    1.6535   -2.1327    0.6568 H   0  0  0  0  0  0  0  0  0  0  0  0
    2.8025   -2.6055   -1.0810 C   0  0  0  0  0  0  0  0  0  0  0  0
    3.4526   -1.9011   -1.6045 H   0  0  0  0  0  0  0  0  0  0  0  0
    3.4052   -3.2245   -0.4151 H   0  0  0  0  0  0  0  0  0  0  0  0
    2.3112   -3.2417   -1.8192 H   0  0  0  0  0  0  0  0  0  0  0  0
  5  6  2  0  0  0  0
  5  7  1  0  0  0  0
  2  3  1  0  0  0  0
  2  4  1  0  0  0  0
  2  5  1  0  0  0  0
  1  2  1  0  0  0  0
 18 19  2  0  0  0  0
 18 20  1  0  0  0  0
 16 17  1  0  0  0  0
 14 15  2  0  0  0  0
 14 16  1  0  0  0  0
 11 12  1  0  0  0  0
 11 13  1  0  0  0  0
 11 14  1  0  0  0  0
  9 10  1  0  0  0  0
  9 11  1  0  0  0  0
  9 18  1  0  0  0  0
  7  8  1  0  0  0  0
  7  9  1  0  0  0  0
 22 23  1  0  0  0  0
 22 24  1  0  0  0  0
 22 25  1  0  0  0  0
 20 21  1  0  0  0  0
 20 22  1  0  0  0  0
M  END
$$$$
default_name
  -OEChem-01062215323D

 25 24  0     1  0  0  0  0  0999 V2000
   -2.7826   -3.8464    0.7821 H   0  0  0  0  0  0  0  0  0  0  0  0
   -2.8156   -2.8034    0.4711 C   0  0  0  0  0  0  0  0  0  0  0  0
   -3.4336   -2.2354    1.1641 H   0  0  0  0  0  0  0  0  0  0  0  0
   -3.2256   -2.7344   -0.5349 H   0  0  0  0  0  0  0  0  0  0  0  0
   -1.4126   -2.2444    0.4801 C   0  0  0  0  0  0  0  0  0  0  0  0
   -0.4686   -2.9534    0.8001 O   0  0  0  0  0  0  0  0  0  0  0  0
   -1.2736   -0.9704    0.1241 N   0  0  0  0  0  0  0  0  0  0  0  0
   -2.0996   -0.4354   -0.1019 H   0  0  0  0  0  0  0  0  0  0  0  0
   -0.0016   -0.2394    0.1271 C   0  0  1  0  0  0  0  0  0  0  0  0
   -0.1834    0.7733   -0.2394 H   0  0  0  0  0  0  0  0  0  0  0  0
    0.5373   -0.1572    1.5689 C   0  0  0  0  0  0  0  0  0  0  0  0
    0.5339   -1.1524    2.0150 H   0  0  0  0  0  0  0  0  0  0  0  0
    1.5674    0.2007    1.5561 H   0  0  0  0  0  0  0  0  0  0  0  0
   -0.2954    0.7421    2.4777 C   0  0  0  0  0  0  0  0  0  0  0  0
   -0.9487    1.7119    2.1157 O   0  0  0  0  0  0  0  0  0  0  0  0
   -0.2720    0.4048    3.7806 O   0  0  0  0  0  0  0  0  0  0  0  0
   -0.8442    1.0317    4.2243 H   0  0  0  0  0  0  0  0  0  0  0  0
    1.0041   -0.9228   -0.8208 C   0  0  0  0  0  0  0  0  0  0  0  0
    1.2511   -0.4197   -1.9160 O   0  0  0  0  0  0  0  0  0  0  0  0
    1.5750   -2.0620   -0.4135 N   0  0  0  0  0  0  0  0  0  0  0  0
    1.2705   -2.4451    0.4756 H   0  0  0  0  0  0  0  0  0  0  0  0
    2.5495   -2.8218   -1.1935 C   0  0  0  0  0  0  0  0  0  0  0  0
    3.3593   -2.1630   -1.5147 H   0  0  0  0  0  0  0  0  0  0  0  0
    2.9625   -3.6319   -0.5911 H   0  0  0  0  0  0  0  0  0  0  0  0
    2.0676   -3.2397   -2.0790 H   0  0  0  0  0  0  0  0  0  0  0  0
  5  6  2  0  0  0  0
  5  7  1  0  0  0  0
  2  3  1  0  0  0  0
  2  4  1  0  0  0  0
  2  5  1  0  0  0  0
  1  2  1  0  0  0  0
 18 19  2  0  0  0  0
 18 20  1  0  0  0  0
 16 17  1  0  0  0  0
 14 15  2  0  0  0  0
 14 16  1  0  0  0  0
 11 12  1  0  0  0  0
 11 13  1  0  0  0  0
 11 14  1  0  0  0  0
  9 10  1  0  0  0  0
  9 11  1  0  0  0  0
  9 18  1  0  0  0  0
  7  8  1  0  0  0  0
  7  9  1  0  0  0  0
 22 23  1  0  0  0  0
 22 24  1  0  0  0  0
 22 25  1  0  0  0  0
 20 21  1  0  0  0  0
 20 22  1  0  0  0  0
M  END
$$$$
default_name
  -OEChem-01062215323D

 25 24  0     1  0  0  0  0  0999 V2000
   -2.7826   -3.8464    0.7821 H   0  0  0  0  0  0  0  0  0  0  0  0
   -2.8156   -2.8034    0.4711 C   0  0  0  0  0  0  0  0  0  0  0  0
   -3.4336   -2.2354    1.1641 H   0  0  0  0  0  0  0  0  0  0  0  0
   -3.2256   -2.7344   -0.5349 H   0  0  0  0  0  0  0  0  0  0  0  0
   -1.4126   -2.2444    0.4801 C   0  0  0  0  0  0  0  0  0  0  0  0
   -0.4686   -2.9534    0.8001 O   0  0  0  0  0  0  0  0  0  0  0  0
   -1.2736   -0.9704    0.1241 N   0  0  0  0  0  0  0  0  0  0  0  0
   -2.0996   -0.4354   -0.1019 H   0  0  0  0  0  0  0  0  0  0  0  0
   -0.0016   -0.2394    0.1271 C   0  0  1  0  0  0  0  0  0  0  0  0
   -0.1834    0.7733   -0.2394 H   0  0  0  0  0  0  0  0  0  0  0  0
    0.5373   -0.1572    1.5689 C   0  0  0  0  0  0  0  0  0  0  0  0
    0.5339   -1.1524    2.0150 H   0  0  0  0  0  0  0  0  0  0  0  0
    1.5674    0.2007    1.5561 H   0  0  0  0  0  0  0  0  0  0  0  0
   -0.2954    0.7421    2.4777 C   0  0  0  0  0  0  0  0  0  0  0  0
   -0.9487    1.7119    2.1157 O   0  0  0  0  0  0  0  0  0  0  0  0
   -0.2720    0.4048    3.7806 O   0  0  0  0  0  0  0  0  0  0  0  0
   -0.8442    1.0317    4.2243 H   0  0  0  0  0  0  0  0  0  0  0  0
    1.0041   -0.9228   -0.8208 C   0  0  0  0  0  0  0  0  0  0  0  0
    1.4620   -0.3005   -1.7782 O   0  0  0  0  0  0  0  0  0  0  0  0
    1.3414   -2.1923   -0.5673 N   0  0  0  0  0  0  0  0  0  0  0  0
    0.8716   -2.6552    0.2039 H   0  0  0  0  0  0  0  0  0  0  0  0
    2.2837   -2.9715   -1.3677 C   0  0  0  0  0  0  0  0  0  0  0  0
    3.2171   -2.4163   -1.4829 H   0  0  0  0  0  0  0  0  0  0  0  0
    2.4903   -3.9253   -0.8806 H   0  0  0  0  0  0  0  0  0  0  0  0
    1.8625   -3.1552   -2.3576 H   0  0  0  0  0  0  0  0  0  0  0  0
  5  6  2  0  0  0  0
  5  7  1  0  0  0  0
  2  3  1  0  0  0  0
  2  4  1  0  0  0  0
  2  5  1  0  0  0  0
  1  2  1  0  0  0  0
 18 19  2  0  0  0  0
 18 20  1  0  0  0  0
 16 17  1  0  0  0  0
 14 15  2  0  0  0  0
 14 16  1  0  0  0  0
 11 12  1  0  0  0  0
 11 13  1  0  0  0  0
 11 14  1  0  0  0  0
  9 10  1  0  0  0  0
  9 11  1  0  0  0  0
  9 18  1  0  0  0  0
  7  8  1  0  0  0  0
  7  9  1  0  0  0  0
 22 23  1  0  0  0  0
 22 24  1  0  0  0  0
 22 25  1  0  0  0  0
 20 21  1  0  0  0  0
 20 22  1  0  0  0  0
M  END
$$$$
default_name
  -OEChem-01062215323D

 25 24  0     1  0  0  0  0  0999 V2000
   -2.7826   -3.8464    0.7821 H   0  0  0  0  0  0  0  0  0  0  0  0
   -2.8156   -2.8034    0.4711 C   0  0  0  0  0  0  0  0  0  0  0  0
   -3.4336   -2.2354    1.1641 H   0  0  0  0  0  0  0  0  0  0  0  0
   -3.2256   -2.7344   -0.5349 H   0  0  0  0  0  0  0  0  0  0  0  0
   -1.4126   -2.2444    0.4801 C   0  0  0  0  0  0  0  0  0  0  0  0
   -0.4686   -2.9534    0.8001 O   0  0  0  0  0  0  0  0  0  0  0  0
   -1.2736   -0.9704    0.1241 N   0  0  0  0  0  0  0  0  0  0  0  0
   -2.0996   -0.4354   -0.1019 H   0  0  0  0  0  0  0  0  0  0  0  0
   -0.0016   -0.2394    0.1271 C   0  0  1  0  0  0  0  0  0  0  0  0
   -0.1834    0.7733   -0.2394 H   0  0  0  0  0  0  0  0  0  0  0  0
    0.5373   -0.1572    1.5689 C   0  0  0  0  0  0  0  0  0  0  0  0
    0.5339   -1.1524    2.0150 H   0  0  0  0  0  0  0  0  0  0  0  0
    1.5674    0.2007    1.5561 H   0  0  0  0  0  0  0  0  0  0  0  0
   -0.2954    0.7421    2.4777 C   0  0  0  0  0  0  0  0  0  0  0  0
   -0.9487    1.7119    2.1157 O   0  0  0  0  0  0  0  0  0  0  0  0
   -0.2720    0.4048    3.7806 O   0  0  0  0  0  0  0  0  0  0  0  0
   -0.8442    1.0317    4.2243 H   0  0  0  0  0  0  0  0  0  0  0  0
    1.0041   -0.9228   -0.8208 C   0  0  0  0  0  0  0  0  0  0  0  0
    1.6688   -0.2421   -1.6008 O   0  0  0  0  0  0  0  0  0  0  0  0
    1.1128   -2.2550   -0.7648 N   0  0  0  0  0  0  0  0  0  0  0  0
    0.4840   -2.7489   -0.1398 H   0  0  0  0  0  0  0  0  0  0  0  0
    2.0230   -3.0443   -1.5917 C   0  0  0  0  0  0  0  0  0  0  0  0
    3.0359   -2.6437   -1.5113 H   0  0  0  0  0  0  0  0  0  0  0  0
    2.0208   -4.0847   -1.2640 H   0  0  0  0  0  0  0  0  0  0  0  0
    1.7098   -2.9939   -2.6360 H   0  0  0  0  0  0  0  0  0  0  0  0
  5  6  2  0  0  0  0
  5  7  1  0  0  0  0
  2  3  1  0  0  0  0
  2  4  1  0  0  0  0
  2  5  1  0  0  0  0
  1  2  1  0  0  0  0
 18 19  2  0  0  0  0
 18 20  1  0  0  0  0
 16 17  1  0  0  0  0
 14 15  2  0  0  0  0
 14 16  1  0  0  0  0
 11 12  1  0  0  0  0
 11 13  1  0  0  0  0
 11 14  1  0  0  0  0
  9 10  1  0  0  0  0
  9 11  1  0  0  0  0
  9 18  1  0  0  0  0
  7  8  1  0  0  0  0
  7  9  1  0  0  0  0
 22 23  1  0  0  0  0
 22 24  1  0  0  0  0
 22 25  1  0  0  0  0
 20 21  1  0  0  0  0
 20 22  1  0  0  0  0
M  END
$$$$
default_name
  -OEChem-01062215323D

 25 24  0     1  0  0  0  0  0999 V2000
   -2.7826   -3.8464    0.7821 H   0  0  0  0  0  0  0  0  0  0  0  0
   -2.8156   -2.8034    0.4711 C   0  0  0  0  0  0  0  0  0  0  0  0
   -3.4336   -2.2354    1.1641 H   0  0  0  0  0  0  0  0  0  0  0  0
   -3.2256   -2.7344   -0.5349 H   0  0  0  0  0  0  0  0  0  0  0  0
   -1.4126   -2.2444    0.4801 C   0  0  0  0  0  0  0  0  0  0  0  0
   -0.4686   -2.9534    0.8001 O   0  0  0  0  0  0  0  0  0  0  0  0
   -1.2736   -0.9704    0.1241 N   0  0  0  0  0  0  0  0  0  0  0  0
   -2.0996   -0.4354   -0.1019 H   0  0  0  0  0  0  0  0  0  0  0  0
   -0.0016   -0.2394    0.1271 C   0  0  1  0  0  0  0  0  0  0  0  0
   -0.1834    0.7733   -0.2394 H   0  0  0  0  0  0  0  0  0  0  0  0
    0.5373   -0.1572    1.5689 C   0  0  0  0  0  0  0  0  0  0  0  0
    0.5339   -1.1524    2.0150 H   0  0  0  0  0  0  0  0  0  0  0  0
    1.5674    0.2007    1.5561 H   0  0  0  0  0  0  0  0  0  0  0  0
   -0.2954    0.7421    2.4777 C   0  0  0  0  0  0  0  0  0  0  0  0
   -0.9487    1.7119    2.1157 O   0  0  0  0  0  0  0  0  0  0  0  0
   -0.2720    0.4048    3.7806 O   0  0  0  0  0  0  0  0  0  0  0  0
   -0.8442    1.0317    4.2243 H   0  0  0  0  0  0  0  0  0  0  0  0
    1.0041   -0.9228   -0.8208 C   0  0  0  0  0  0  0  0  0  0  0  0
    1.8576   -0.2486   -1.3958 O   0  0  0  0  0  0  0  0  0  0  0  0
    0.9046   -2.2458   -0.9923 N   0  0  0  0  0  0  0  0  0  0  0  0
    0.1342   -2.7197   -0.5321 H   0  0  0  0  0  0  0  0  0  0  0  0
    1.7854   -3.0354   -1.8503 C   0  0  0  0  0  0  0  0  0  0  0  0
    2.8279   -2.8297   -1.5979 H   0  0  0  0  0  0  0  0  0  0  0  0
    1.5858   -4.0991   -1.7151 H   0  0  0  0  0  0  0  0  0  0  0  0
    1.6199   -2.7668   -2.8951 H   0  0  0  0  0  0  0  0  0  0  0  0
  5  6  2  0  0  0  0
  5  7  1  0  0  0  0
  2  3  1  0  0  0  0
  2  4  1  0  0  0  0
  2  5  1  0  0  0  0
  1  2  1  0  0  0  0
 18 19  2  0  0  0  0
 18 20  1  0  0  0  0
 16 17  1  0  0  0  0
 14 15  2  0  0  0  0
 14 16  1  0  0  0  0
 11 12  1  0  0  0  0
 11 13  1  0  0  0  0
 11 14  1  0  0  0  0
  9 10  1  0  0  0  0
  9 11  1  0  0  0  0
  9 18  1  0  0  0  0
  7  8  1  0  0  0  0
  7  9  1  0  0  0  0
 22 23  1  0  0  0  0
 22 24  1  0  0  0  0
 22 25  1  0  0  0  0
 20 21  1  0  0  0  0
 20 22  1  0  0  0  0
M  END
$$$$
default_name
  -OEChem-01062215323D

 25 24  0     1  0  0  0  0  0999 V2000
   -2.7826   -3.8464    0.7821 H   0  0  0  0  0  0  0  0  0  0  0  0
   -2.8156   -2.8034    0.4711 C   0  0  0  0  0  0  0  0  0  0  0  0
   -3.4336   -2.2354    1.1641 H   0  0  0  0  0  0  0  0  0  0  0  0
   -3.2256   -2.7344   -0.5349 H   0  0  0  0  0  0  0  0  0  0  0  0
   -1.4126   -2.2444    0.4801 C   0  0  0  0  0  0  0  0  0  0  0  0
   -0.4686   -2.9534    0.8001 O   0  0  0  0  0  0  0  0  0  0  0  0
   -1.2736   -0.9704    0.1241 N   0  0  0  0  0  0  0  0  0  0  0  0
   -2.0996   -0.4354   -0.1019 H   0  0  0  0  0  0  0  0  0  0  0  0
   -0.0016   -0.2394    0.1271 C   0  0  1  0  0  0  0  0  0  0  0  0
   -0.1834    0.7733   -0.2394 H   0  0  0  0  0  0  0  0  0  0  0  0
    0.5373   -0.1572    1.5689 C   0  0  0  0  0  0  0  0  0  0  0  0
    0.5339   -1.1524    2.0150 H   0  0  0  0  0  0  0  0  0  0  0  0
    1.5674    0.2007    1.5561 H   0  0  0  0  0  0  0  0  0  0  0  0
   -0.2954    0.7421    2.4777 C   0  0  0  0  0  0  0  0  0  0  0  0
   -0.9487    1.7119    2.1157 O   0  0  0  0  0  0  0  0  0  0  0  0
   -0.2720    0.4048    3.7806 O   0  0  0  0  0  0  0  0  0  0  0  0
   -0.8442    1.0317    4.2243 H   0  0  0  0  0  0  0  0  0  0  0  0
    1.0041   -0.9228   -0.8208 C   0  0  0  0  0  0  0  0  0  0  0  0
    2.0153   -0.3195   -1.1773 O   0  0  0  0  0  0  0  0  0  0  0  0
    0.7311   -2.1654   -1.2343 N   0  0  0  0  0  0  0  0  0  0  0  0
   -0.1540   -2.5695   -0.9462 H   0  0  0  0  0  0  0  0  0  0  0  0
    1.5869   -2.9453   -2.1259 C   0  0  0  0  0  0  0  0  0  0  0  0
    2.6074   -2.9616   -1.7368 H   0  0  0  0  0  0  0  0  0  0  0  0
    1.2151   -3.9678   -2.2032 H   0  0  0  0  0  0  0  0  0  0  0  0
    1.5989   -2.4894   -3.1174 H   0  0  0  0  0  0  0  0  0  0  0  0
  5  6  2  0  0  0  0
  5  7  1  0  0  0  0
  2  3  1  0  0  0  0
  2  4  1  0  0  0  0
  2  5  1  0  0  0  0
  1  2  1  0  0  0  0
 18 19  2  0  0  0  0
 18 20  1  0  0  0  0
 16 17  1  0  0  0  0
 14 15  2  0  0  0  0
 14 16  1  0  0  0  0
 11 12  1  0  0  0  0
 11 13  1  0  0  0  0
 11 14  1  0  0  0  0
  9 10  1  0  0  0  0
  9 11  1  0  0  0  0
  9 18  1  0  0  0  0
  7  8  1  0  0  0  0
  7  9  1  0  0  0  0
 22 23  1  0  0  0  0
 22 24  1  0  0  0  0
 22 25  1  0  0  0  0
 20 21  1  0  0  0  0
 20 22  1  0  0  0  0
M  END
$$$$
default_name
  -OEChem-01062215323D

 25 24  0     1  0  0  0  0  0999 V2000
   -2.7826   -3.8464    0.7821 H   0  0  0  0  0  0  0  0  0  0  0  0
   -2.8156   -2.8034    0.4711 C   0  0  0  0  0  0  0  0  0  0  0  0
   -3.4336   -2.2354    1.1641 H   0  0  0  0  0  0  0  0  0  0  0  0
   -3.2256   -2.7344   -0.5349 H   0  0  0  0  0  0  0  0  0  0  0  0
   -1.4126   -2.2444    0.4801 C   0  0  0  0  0  0  0  0  0  0  0  0
   -0.4686   -2.9534    0.8001 O   0  0  0  0  0  0  0  0  0  0  0  0
   -1.2736   -0.9704    0.1241 N   0  0  0  0  0  0  0  0  0  0  0  0
   -2.0996   -0.4354   -0.1019 H   0  0  0  0  0  0  0  0  0  0  0  0
   -0.0016   -0.2394    0.1271 C   0  0  1  0  0  0  0  0  0  0  0  0
   -0.1834    0.7733   -0.2394 H   0  0  0  0  0  0  0  0  0  0  0  0
    0.5373   -0.1572    1.5689 C   0  0  0  0  0  0  0  0  0  0  0  0
    0.5339   -1.1524    2.0150 H   0  0  0  0  0  0  0  0  0  0  0  0
    1.5674    0.2007    1.5561 H   0  0  0  0  0  0  0  0  0  0  0  0
   -0.2954    0.7421    2.4777 C   0  0  0  0  0  0  0  0  0  0  0  0
   -0.9487    1.7119    2.1157 O   0  0  0  0  0  0  0  0  0  0  0  0
   -0.2720    0.4048    3.7806 O   0  0  0  0  0  0  0  0  0  0  0  0
   -0.8442    1.0317    4.2243 H   0  0  0  0  0  0  0  0  0  0  0  0
    1.0041   -0.9228   -0.8208 C   0  0  0  0  0  0  0  0  0  0  0  0
    2.1314   -0.4500   -0.9601 O   0  0  0  0  0  0  0  0  0  0  0  0
    0.6041   -2.0192   -1.4745 N   0  0  0  0  0  0  0  0  0  0  0  0
   -0.3611   -2.3087   -1.3539 H   0  0  0  0  0  0  0  0  0  0  0  0
    1.4412   -2.7801   -2.3996 C   0  0  0  0  0  0  0  0  0  0  0  0
    2.3893   -3.0305   -1.9186 H   0  0  0  0  0  0  0  0  0  0  0  0
    0.9339   -3.6995   -2.6949 H   0  0  0  0  0  0  0  0  0  0  0  0
    1.6482   -2.1805   -3.2877 H   0  0  0  0  0  0  0  0  0  0  0  0
  5  6  2  0  0  0  0
  5  7  1  0  0  0  0
  2  3  1  0  0  0  0
  2  4  1  0  0  0  0
  2  5  1  0  0  0  0
  1  2  1  0  0  0  0
 18 19  2  0  0  0  0
 18 20  1  0  0  0  0
 16 17  1  0  0  0  0
 14 15  2  0  0  0  0
 14 16  1  0  0  0  0
 11 12  1  0  0  0  0
 11 13  1  0  0  0  0
 11 14  1  0  0  0  0
  9 10  1  0  0  0  0
  9 11  1  0  0  0  0
  9 18  1  0  0  0  0
  7  8  1  0  0  0  0
  7  9  1  0  0  0  0
 22 23  1  0  0  0  0
 22 24  1  0  0  0  0
 22 25  1  0  0  0  0
 20 21  1  0  0  0  0
 20 22  1  0  0  0  0
M  END
$$$$
default_name
  -OEChem-01062215323D

 25 24  0     1  0  0  0  0  0999 V2000
   -2.7826   -3.8464    0.7821 H   0  0  0  0  0  0  0  0  0  0  0  0
   -2.8156   -2.8034    0.4711 C   0  0  0  0  0  0  0  0  0  0  0  0
   -3.4336   -2.2354    1.1641 H   0  0  0  0  0  0  0  0  0  0  0  0
   -3.2256   -2.7344   -0.5349 H   0  0  0  0  0  0  0  0  0  0  0  0
   -1.4126   -2.2444    0.4801 C   0  0  0  0  0  0  0  0  0  0  0  0
   -0.4686   -2.9534    0.8001 O   0  0  0  0  0  0  0  0  0  0  0  0
   -1.2736   -0.9704    0.1241 N   0  0  0  0  0  0  0  0  0  0  0  0
   -2.0996   -0.4354   -0.1019 H   0  0  0  0  0  0  0  0  0  0  0  0
   -0.0016   -0.2394    0.1271 C   0  0  1  0  0  0  0  0  0  0  0  0
   -0.1834    0.7733   -0.2394 H   0  0  0  0  0  0  0  0  0  0  0  0
    0.5373   -0.1572    1.5689 C   0  0  0  0  0  0  0  0  0  0  0  0
    0.5339   -1.1524    2.0150 H   0  0  0  0  0  0  0  0  0  0  0  0
    1.5674    0.2007    1.5561 H   0  0  0  0  0  0  0  0  0  0  0  0
   -0.2954    0.7421    2.4777 C   0  0  0  0  0  0  0  0  0  0  0  0
   -0.9487    1.7119    2.1157 O   0  0  0  0  0  0  0  0  0  0  0  0
   -0.2720    0.4048    3.7806 O   0  0  0  0  0  0  0  0  0  0  0  0
   -0.8442    1.0317    4.2243 H   0  0  0  0  0  0  0  0  0  0  0  0
    1.0041   -0.9228   -0.8208 C   0  0  0  0  0  0  0  0  0  0  0  0
    2.1978   -0.6312   -0.7591 O   0  0  0  0  0  0  0  0  0  0  0  0
    0.5322   -1.8173   -1.6964 N   0  0  0  0  0  0  0  0  0  0  0  0
   -0.4728   -1.9550   -1.7274 H   0  0  0  0  0  0  0  0  0  0  0  0
    1.3581   -2.5512   -2.6528 C   0  0  0  0  0  0  0  0  0  0  0  0
    2.1885   -3.0317   -2.1308 H   0  0  0  0  0  0  0  0  0  0  0  0
    0.7615   -3.3125   -3.1569 H   0  0  0  0  0  0  0  0  0  0  0  0
    1.7646   -1.8613   -3.3944 H   0  0  0  0  0  0  0  0  0  0  0  0
  5  6  2  0  0  0  0
  5  7  1  0  0  0  0
  2  3  1  0  0  0  0
  2  4  1  0  0  0  0
  2  5  1  0  0  0  0
  1  2  1  0  0  0  0
 18 19  2  0  0  0  0
 18 20  1  0  0  0  0
 16 17  1  0  0  0  0
 14 15  2  0  0  0  0
 14 16  1  0  0  0  0
 11 12  1  0  0  0  0
 11 13  1  0  0  0  0
 11 14  1  0  0  0  0
  9 10  1  0  0  0  0
  9 11  1  0  0  0  0
  9 18  1  0  0  0  0
  7  8  1  0  0  0  0
  7  9  1  0  0  0  0
 22 23  1  0  0  0  0
 22 24  1  0  0  0  0
 22 25  1  0  0  0  0
 20 21  1  0  0  0  0
 20 22  1  0  0  0  0
M  END
$$$$
default_name
  -OEChem-01062215323D

 25 24  0     1  0  0  0  0  0999 V2000
   -2.7826   -3.8464    0.7821 H   0  0  0  0  0  0  0  0  0  0  0  0
   -2.8156   -2.8034    0.4711 C   0  0  0  0  0  0  0  0  0  0  0  0
   -3.4336   -2.2354    1.1641 H   0  0  0  0  0  0  0  0  0  0  0  0
   -3.2256   -2.7344   -0.5349 H   0  0  0  0  0  0  0  0  0  0  0  0
   -1.4126   -2.2444    0.4801 C   0  0  0  0  0  0  0  0  0  0  0  0
   -0.4686   -2.9534    0.8001 O   0  0  0  0  0  0  0  0  0  0  0  0
   -1.2736   -0.9704    0.1241 N   0  0  0  0  0  0  0  0  0  0  0  0
   -2.0996   -0.4354   -0.1019 H   0  0  0  0  0  0  0  0  0  0  0  0
   -0.0016   -0.2394    0.1271 C   0  0  1  0  0  0  0  0  0  0  0  0
   -0.1834    0.7733   -0.2394 H   0  0  0  0  0  0  0  0  0  0  0  0
    0.5373   -0.1572    1.5689 C   0  0  0  0  0  0  0  0  0  0  0  0
    0.5339   -1.1524    2.0150 H   0  0  0  0  0  0  0  0  0  0  0  0
    1.5674    0.2007    1.5561 H   0  0  0  0  0  0  0  0  0  0  0  0
   -0.2954    0.7421    2.4777 C   0  0  0  0  0  0  0  0  0  0  0  0
   -0.9487    1.7119    2.1157 O   0  0  0  0  0  0  0  0  0  0  0  0
   -0.2720    0.4048    3.7806 O   0  0  0  0  0  0  0  0  0  0  0  0
   -0.8442    1.0317    4.2243 H   0  0  0  0  0  0  0  0  0  0  0  0
    1.0041   -0.9228   -0.8208 C   0  0  0  0  0  0  0  0  0  0  0  0
    2.2100   -0.8507   -0.5878 O   0  0  0  0  0  0  0  0  0  0  0  0
    0.5203   -1.5734   -1.8849 N   0  0  0  0  0  0  0  0  0  0  0  0
   -0.4815   -1.5325   -2.0413 H   0  0  0  0  0  0  0  0  0  0  0  0
    1.3433   -2.2741   -2.8683 C   0  0  0  0  0  0  0  0  0  0  0  0
    2.0187   -2.9651   -2.3590 H   0  0  0  0  0  0  0  0  0  0  0  0
    0.7094   -2.8333   -3.5576 H   0  0  0  0  0  0  0  0  0  0  0  0
    1.9400   -1.5534   -3.4301 H   0  0  0  0  0  0  0  0  0  0  0  0
  5  6  2  0  0  0  0
  5  7  1  0  0  0  0
  2  3  1  0  0  0  0
  2  4  1  0  0  0  0
  2  5  1  0  0  0  0
  1  2  1  0  0  0  0
 18 19  2  0  0  0  0
 18 20  1  0  0  0  0
 16 17  1  0  0  0  0
 14 15  2  0  0  0  0
 14 16  1  0  0  0  0
 11 12  1  0  0  0  0
 11 13  1  0  0  0  0
 11 14  1  0  0  0  0
  9 10  1  0  0  0  0
  9 11  1  0  0  0  0
  9 18  1  0  0  0  0
  7  8  1  0  0  0  0
  7  9  1  0  0  0  0
 22 23  1  0  0  0  0
 22 24  1  0  0  0  0
 22 25  1  0  0  0  0
 20 21  1  0  0  0  0
 20 22  1  0  0  0  0
M  END
$$$$
default_name
  -OEChem-01062215323D

 25 24  0     1  0  0  0  0  0999 V2000
   -2.7826   -3.8464    0.7821 H   0  0  0  0  0  0  0  0  0  0  0  0
   -2.8156   -2.8034    0.4711 C   0  0  0  0  0  0  0  0  0  0  0  0
   -3.4336   -2.2354    1.1641 H   0  0  0  0  0  0  0  0  0  0  0  0
   -3.2256   -2.7344   -0.5349 H   0  0  0  0  0  0  0  0  0  0  0  0
   -1.4126   -2.2444    0.4801 C   0  0  0  0  0  0  0  0  0  0  0  0
   -0.4686   -2.9534    0.8001 O   0  0  0  0  0  0  0  0  0  0  0  0
   -1.2736   -0.9704    0.1241 N   0  0  0  0  0  0  0  0  0  0  0  0
   -2.0996   -0.4354   -0.1019 H   0  0  0  0  0  0  0  0  0  0  0  0
   -0.0016   -0.2394    0.1271 C   0  0  1  0  0  0  0  0  0  0  0  0
   -0.1834    0.7733   -0.2394 H   0  0  0  0  0  0  0  0  0  0  0  0
    0.5373   -0.1572    1.5689 C   0  0  0  0  0  0  0  0  0  0  0  0
    0.5339   -1.1524    2.0150 H   0  0  0  0  0  0  0  0  0  0  0  0
    1.5674    0.2007    1.5561 H   0  0  0  0  0  0  0  0  0  0  0  0
   -0.2954    0.7421    2.4777 C   0  0  0  0  0  0  0  0  0  0  0  0
   -0.9487    1.7119    2.1157 O   0  0  0  0  0  0  0  0  0  0  0  0
   -0.2720    0.4048    3.7806 O   0  0  0  0  0  0  0  0  0  0  0  0
   -0.8442    1.0317    4.2243 H   0  0  0  0  0  0  0  0  0  0  0  0
    1.0041   -0.9228   -0.8208 C   0  0  0  0  0  0  0  0  0  0  0  0
    2.1672   -1.0936   -0.4581 O   0  0  0  0  0  0  0  0  0  0  0  0
    0.5693   -1.3040   -2.0271 N   0  0  0  0  0  0  0  0  0  0  0  0
   -0.3868   -1.0701   -2.2742 H   0  0  0  0  0  0  0  0  0  0  0  0
    1.3978   -1.9677   -3.0313 C   0  0  0  0  0  0  0  0  0  0  0  0
    1.8915   -2.8351   -2.5877 H   0  0  0  0  0  0  0  0  0  0  0  0
    0.7814   -2.2945   -3.8697 H   0  0  0  0  0  0  0  0  0  0  0  0
    2.1626   -1.2780   -3.3926 H   0  0  0  0  0  0  0  0  0  0  0  0
  5  6  2  0  0  0  0
  5  7  1  0  0  0  0
  2  3  1  0  0  0  0
  2  4  1  0  0  0  0
  2  5  1  0  0  0  0
  1  2  1  0  0  0  0
 18 19  2  0  0  0  0
 18 20  1  0  0  0  0
 16 17  1  0  0  0  0
 14 15  2  0  0  0  0
 14 16  1  0  0  0  0
 11 12  1  0  0  0  0
 11 13  1  0  0  0  0
 11 14  1  0  0  0  0
  9 10  1  0  0  0  0
  9 11  1  0  0  0  0
  9 18  1  0  0  0  0
  7  8  1  0  0  0  0
  7  9  1  0  0  0  0
 22 23  1  0  0  0  0
 22 24  1  0  0  0  0
 22 25  1  0  0  0  0
 20 21  1  0  0  0  0
 20 22  1  0  0  0  0
M  END
$$$$
default_name
  -OEChem-01062215323D

 25 24  0     1  0  0  0  0  0999 V2000
   -2.7826   -3.8464    0.7821 H   0  0  0  0  0  0  0  0  0  0  0  0
   -2.8156   -2.8034    0.4711 C   0  0  0  0  0  0  0  0  0  0  0  0
   -3.4336   -2.2354    1.1641 H   0  0  0  0  0  0  0  0  0  0  0  0
   -3.2256   -2.7344   -0.5349 H   0  0  0  0  0  0  0  0  0  0  0  0
   -1.4126   -2.2444    0.4801 C   0  0  0  0  0  0  0  0  0  0  0  0
   -0.4686   -2.9534    0.8001 O   0  0  0  0  0  0  0  0  0  0  0  0
   -1.2736   -0.9704    0.1241 N   0  0  0  0  0  0  0  0  0  0  0  0
   -2.0996   -0.4354   -0.1019 H   0  0  0  0  0  0  0  0  0  0  0  0
   -0.0016   -0.2394    0.1271 C   0  0  1  0  0  0  0  0  0  0  0  0
   -0.1834    0.7733   -0.2394 H   0  0  0  0  0  0  0  0  0  0  0  0
    0.5373   -0.1572    1.5689 C   0  0  0  0  0  0  0  0  0  0  0  0
    0.5339   -1.1524    2.0150 H   0  0  0  0  0  0  0  0  0  0  0  0
    1.5674    0.2007    1.5561 H   0  0  0  0  0  0  0  0  0  0  0  0
   -0.2954    0.7421    2.4777 C   0  0  0  0  0  0  0  0  0  0  0  0
   -0.9487    1.7119    2.1157 O   0  0  0  0  0  0  0  0  0  0  0  0
   -0.2720    0.4048    3.7806 O   0  0  0  0  0  0  0  0  0  0  0  0
   -0.8442    1.0317    4.2243 H   0  0  0  0  0  0  0  0  0  0  0  0
    1.0041   -0.9228   -0.8208 C   0  0  0  0  0  0  0  0  0  0  0  0
    2.0724   -1.3433   -0.3786 O   0  0  0  0  0  0  0  0  0  0  0  0
    0.6758   -1.0276   -2.1134 N   0  0  0  0  0  0  0  0  0  0  0  0
   -0.1949   -0.5991   -2.4102 H   0  0  0  0  0  0  0  0  0  0  0  0
    1.5179   -1.6529   -3.1308 C   0  0  0  0  0  0  0  0  0  0  0  0
    1.8155   -2.6508   -2.8012 H   0  0  0  0  0  0  0  0  0  0  0  0
    0.9724   -1.7328   -4.0719 H   0  0  0  0  0  0  0  0  0  0  0  0
    2.4171   -1.0536   -3.2843 H   0  0  0  0  0  0  0  0  0  0  0  0
  5  6  2  0  0  0  0
  5  7  1  0  0  0  0
  2  3  1  0  0  0  0
  2  4  1  0  0  0  0
  2  5  1  0  0  0  0
  1  2  1  0  0  0  0
 18 19  2  0  0  0  0
 18 20  1  0  0  0  0
 16 17  1  0  0  0  0
 14 15  2  0  0  0  0
 14 16  1  0  0  0  0
 11 12  1  0  0  0  0
 11 13  1  0  0  0  0
 11 14  1  0  0  0  0
  9 10  1  0  0  0  0
  9 11  1  0  0  0  0
  9 18  1  0  0  0  0
  7  8  1  0  0  0  0
  7  9  1  0  0  0  0
 22 23  1  0  0  0  0
 22 24  1  0  0  0  0
 22 25  1  0  0  0  0
 20 21  1  0  0  0  0
 20 22  1  0  0  0  0
M  END
$$$$
default_name
  -OEChem-01062215323D

 25 24  0     1  0  0  0  0  0999 V2000
   -2.7826   -3.8464    0.7821 H   0  0  0  0  0  0  0  0  0  0  0  0
   -2.8156   -2.8034    0.4711 C   0  0  0  0  0  0  0  0  0  0  0  0
   -3.4336   -2.2354    1.1641 H   0  0  0  0  0  0  0  0  0  0  0  0
   -3.2256   -2.7344   -0.5349 H   0  0  0  0  0  0  0  0  0  0  0  0
   -1.4126   -2.2444    0.4801 C   0  0  0  0  0  0  0  0  0  0  0  0
   -0.4686   -2.9534    0.8001 O   0  0  0  0  0  0  0  0  0  0  0  0
   -1.2736   -0.9704    0.1241 N   0  0  0  0  0  0  0  0  0  0  0  0
   -2.0996   -0.4354   -0.1019 H   0  0  0  0  0  0  0  0  0  0  0  0
   -0.0016   -0.2394    0.1271 C   0  0  1  0  0  0  0  0  0  0  0  0
   -0.1834    0.7733   -0.2394 H   0  0  0  0  0  0  0  0  0  0  0  0
    0.5373   -0.1572    1.5689 C   0  0  0  0  0  0  0  0  0  0  0  0
    0.5339   -1.1524    2.0150 H   0  0  0  0  0  0  0  0  0  0  0  0
    1.5674    0.2007    1.5561 H   0  0  0  0  0  0  0  0  0  0  0  0
   -0.2954    0.7421    2.4777 C   0  0  0  0  0  0  0  0  0  0  0  0
   -0.9487    1.7119    2.1157 O   0  0  0  0  0  0  0  0  0  0  0  0
   -0.2720    0.4048    3.7806 O   0  0  0  0  0  0  0  0  0  0  0  0
   -0.8442    1.0317    4.2243 H   0  0  0  0  0  0  0  0  0  0  0  0
    1.0041   -0.9228   -0.8208 C   0  0  0  0  0  0  0  0  0  0  0  0
    1.9320   -1.5829   -0.3550 O   0  0  0  0  0  0  0  0  0  0  0  0
    0.8325   -0.7630   -2.1378 N   0  0  0  0  0  0  0  0  0  0  0  0
    0.0809   -0.1517   -2.4400 H   0  0  0  0  0  0  0  0  0  0  0  0
    1.6955   -1.3512   -3.1600 C   0  0  0  0  0  0  0  0  0  0  0  0
    1.7959   -2.4246   -2.9851 H   0  0  0  0  0  0  0  0  0  0  0  0
    1.2695   -1.1865   -4.1505 H   0  0  0  0  0  0  0  0  0  0  0  0
    2.6862   -0.8957   -3.1126 H   0  0  0  0  0  0  0  0  0  0  0  0
  5  6  2  0  0  0  0
  5  7  1  0  0  0  0
  2  3  1  0  0  0  0
  2  4  1  0  0  0  0
  2  5  1  0  0  0  0
  1  2  1  0  0  0  0
 18 19  2  0  0  0  0
 18 20  1  0  0  0  0
 16 17  1  0  0  0  0
 14 15  2  0  0  0  0
 14 16  1  0  0  0  0
 11 12  1  0  0  0  0
 11 13  1  0  0  0  0
 11 14  1  0  0  0  0
  9 10  1  0  0  0  0
  9 11  1  0  0  0  0
  9 18  1  0  0  0  0
  7  8  1  0  0  0  0
  7  9  1  0  0  0  0
 22 23  1  0  0  0  0
 22 24  1  0  0  0  0
 22 25  1  0  0  0  0
 20 21  1  0  0  0  0
 20 22  1  0  0  0  0
M  END
$$$$
default_name
  -OEChem-01062215323D

 25 24  0     1  0  0  0  0  0999 V2000
   -2.7826   -3.8464    0.7821 H   0  0  0  0  0  0  0  0  0  0  0  0
   -2.8156   -2.8034    0.4711 C   0  0  0  0  0  0  0  0  0  0  0  0
   -3.4336   -2.2354    1.1641 H   0  0  0  0  0  0  0  0  0  0  0  0
   -3.2256   -2.7344   -0.5349 H   0  0  0  0  0  0  0  0  0  0  0  0
   -1.4126   -2.2444    0.4801 C   0  0  0  0  0  0  0  0  0  0  0  0
   -0.4686   -2.9534    0.8001 O   0  0  0  0  0  0  0  0  0  0  0  0
   -1.2736   -0.9704    0.1241 N   0  0  0  0  0  0  0  0  0  0  0  0
   -2.0996   -0.4354   -0.1019 H   0  0  0  0  0  0  0  0  0  0  0  0
   -0.0016   -0.2394    0.1271 C   0  0  1  0  0  0  0  0  0  0  0  0
   -0.1834    0.7733   -0.2394 H   0  0  0  0  0  0  0  0  0  0  0  0
    0.5373   -0.1572    1.5689 C   0  0  0  0  0  0  0  0  0  0  0  0
    0.5339   -1.1524    2.0150 H   0  0  0  0  0  0  0  0  0  0  0  0
    1.5674    0.2007    1.5561 H   0  0  0  0  0  0  0  0  0  0  0  0
   -0.2954    0.7421    2.4777 C   0  0  0  0  0  0  0  0  0  0  0  0
   -0.9487    1.7119    2.1157 O   0  0  0  0  0  0  0  0  0  0  0  0
   -0.2720    0.4048    3.7806 O   0  0  0  0  0  0  0  0  0  0  0  0
   -0.8442    1.0317    4.2243 H   0  0  0  0  0  0  0  0  0  0  0  0
    1.0041   -0.9228   -0.8208 C   0  0  0  0  0  0  0  0  0  0  0  0
    1.7555   -1.7959   -0.3887 O   0  0  0  0  0  0  0  0  0  0  0  0
    1.0288   -0.5282   -2.0988 N   0  0  0  0  0  0  0  0  0  0  0  0
    0.4219    0.2415   -2.3616 H   0  0  0  0  0  0  0  0  0  0  0  0
    1.9183   -1.0830   -3.1169 C   0  0  0  0  0  0  0  0  0  0  0  0
    1.8341   -2.1719   -3.1267 H   0  0  0  0  0  0  0  0  0  0  0  0
    1.6524   -0.6929   -4.1001 H   0  0  0  0  0  0  0  0  0  0  0  0
    2.9515   -0.8150   -2.8892 H   0  0  0  0  0  0  0  0  0  0  0  0
  5  6  2  0  0  0  0
  5  7  1  0  0  0  0
  2  3  1  0  0  0  0
  2  4  1  0  0  0  0
  2  5  1  0  0  0  0
  1  2  1  0  0  0  0
 18 19  2  0  0  0  0
 18 20  1  0  0  0  0
 16 17  1  0  0  0  0
 14 15  2  0  0  0  0
 14 16  1  0  0  0  0
 11 12  1  0  0  0  0
 11 13  1  0  0  0  0
 11 14  1  0  0  0  0
  9 10  1  0  0  0  0
  9 11  1  0  0  0  0
  9 18  1  0  0  0  0
  7  8  1  0  0  0  0
  7  9  1  0  0  0  0
 22 23  1  0  0  0  0
 22 24  1  0  0  0  0
 22 25  1  0  0  0  0
 20 21  1  0  0  0  0
 20 22  1  0  0  0  0
M  END
$$$$
default_name
  -OEChem-01062215323D

 25 24  0     1  0  0  0  0  0999 V2000
   -2.7826   -3.8464    0.7821 H   0  0  0  0  0  0  0  0  0  0  0  0
   -2.8156   -2.8034    0.4711 C   0  0  0  0  0  0  0  0  0  0  0  0
   -3.4336   -2.2354    1.1641 H   0  0  0  0  0  0  0  0  0  0  0  0
   -3.2256   -2.7344   -0.5349 H   0  0  0  0  0  0  0  0  0  0  0  0
   -1.4126   -2.2444    0.4801 C   0  0  0  0  0  0  0  0  0  0  0  0
   -0.4686   -2.9534    0.8001 O   0  0  0  0  0  0  0  0  0  0  0  0
   -1.2736   -0.9704    0.1241 N   0  0  0  0  0  0  0  0  0  0  0  0
   -2.0996   -0.4354   -0.1019 H   0  0  0  0  0  0  0  0  0  0  0  0
   -0.0016   -0.2394    0.1271 C   0  0  1  0  0  0  0  0  0  0  0  0
   -0.1834    0.7733   -0.2394 H   0  0  0  0  0  0  0  0  0  0  0  0
    0.5373   -0.1572    1.5689 C   0  0  0  0  0  0  0  0  0  0  0  0
    0.5339   -1.1524    2.0150 H   0  0  0  0  0  0  0  0  0  0  0  0
    1.5674    0.2007    1.5561 H   0  0  0  0  0  0  0  0  0  0  0  0
   -0.2954    0.7421    2.4777 C   0  0  0  0  0  0  0  0  0  0  0  0
   -0.9487    1.7119    2.1157 O   0  0  0  0  0  0  0  0  0  0  0  0
   -0.2720    0.4048    3.7806 O   0  0  0  0  0  0  0  0  0  0  0  0
   -0.8442    1.0317    4.2243 H   0  0  0  0  0  0  0  0  0  0  0  0
    1.0041   -0.9228   -0.8208 C   0  0  0  0  0  0  0  0  0  0  0  0
    1.5550   -1.9679   -0.4774 O   0  0  0  0  0  0  0  0  0  0  0  0
    1.2513   -0.3393   -1.9989 N   0  0  0  0  0  0  0  0  0  0  0  0
    0.8050    0.5539   -2.1804 H   0  0  0  0  0  0  0  0  0  0  0  0
    2.1713   -0.8667   -3.0044 C   0  0  0  0  0  0  0  0  0  0  0  0
    1.9275   -1.9100   -3.2164 H   0  0  0  0  0  0  0  0  0  0  0  0
    2.0951   -0.2854   -3.9242 H   0  0  0  0  0  0  0  0  0  0  0  0
    3.1950   -0.8169   -2.6294 H   0  0  0  0  0  0  0  0  0  0  0  0
  5  6  2  0  0  0  0
  5  7  1  0  0  0  0
  2  3  1  0  0  0  0
  2  4  1  0  0  0  0
  2  5  1  0  0  0  0
  1  2  1  0  0  0  0
 18 19  2  0  0  0  0
 18 20  1  0  0  0  0
 16 17  1  0  0  0  0
 14 15  2  0  0  0  0
 14 16  1  0  0  0  0
 11 12  1  0  0  0  0
 11 13  1  0  0  0  0
 11 14  1  0  0  0  0
  9 10  1  0  0  0  0
  9 11  1  0  0  0  0
  9 18  1  0  0  0  0
  7  8  1  0  0  0  0
  7  9  1  0  0  0  0
 22 23  1  0  0  0  0
 22 24  1  0  0  0  0
 22 25  1  0  0  0  0
 20 21  1  0  0  0  0
 20 22  1  0  0  0  0
M  END
$$$$
default_name
  -OEChem-01062215323D

 25 24  0     1  0  0  0  0  0999 V2000
   -2.7826   -3.8464    0.7821 H   0  0  0  0  0  0  0  0  0  0  0  0
   -2.8156   -2.8034    0.4711 C   0  0  0  0  0  0  0  0  0  0  0  0
   -3.4336   -2.2354    1.1641 H   0  0  0  0  0  0  0  0  0  0  0  0
   -3.2256   -2.7344   -0.5349 H   0  0  0  0  0  0  0  0  0  0  0  0
   -1.4126   -2.2444    0.4801 C   0  0  0  0  0  0  0  0  0  0  0  0
   -0.4686   -2.9534    0.8001 O   0  0  0  0  0  0  0  0  0  0  0  0
   -1.2736   -0.9704    0.1241 N   0  0  0  0  0  0  0  0  0  0  0  0
   -2.0996   -0.4354   -0.1019 H   0  0  0  0  0  0  0  0  0  0  0  0
   -0.0016   -0.2394    0.1271 C   0  0  1  0  0  0  0  0  0  0  0  0
   -0.1834    0.7733   -0.2394 H   0  0  0  0  0  0  0  0  0  0  0  0
    0.5373   -0.1572    1.5689 C   0  0  0  0  0  0  0  0  0  0  0  0
    0.5339   -1.1524    2.0150 H   0  0  0  0  0  0  0  0  0  0  0  0
    1.5674    0.2007    1.5561 H   0  0  0  0  0  0  0  0  0  0  0  0
   -0.2954    0.7421    2.4777 C   0  0  0  0  0  0  0  0  0  0  0  0
   -0.9487    1.7119    2.1157 O   0  0  0  0  0  0  0  0  0  0  0  0
   -0.2720    0.4048    3.7806 O   0  0  0  0  0  0  0  0  0  0  0  0
   -0.8442    1.0317    4.2243 H   0  0  0  0  0  0  0  0  0  0  0  0
    1.0041   -0.9228   -0.8208 C   0  0  0  0  0  0  0  0  0  0  0  0
    1.3441   -2.0871   -0.6152 O   0  0  0  0  0  0  0  0  0  0  0  0
    1.4848   -0.2090   -1.8450 N   0  0  0  0  0  0  0  0  0  0  0  0
    1.2038    0.7641   -1.9087 H   0  0  0  0  0  0  0  0  0  0  0  0
    2.4371   -0.7170   -2.8302 C   0  0  0  0  0  0  0  0  0  0  0  0
    2.0696   -1.6567   -3.2482 H   0  0  0  0  0  0  0  0  0  0  0  0
    2.5673    0.0080   -3.6346 H   0  0  0  0  0  0  0  0  0  0  0  0
    3.4002   -0.9014   -2.3508 H   0  0  0  0  0  0  0  0  0  0  0  0
  5  6  2  0  0  0  0
  5  7  1  0  0  0  0
  2  3  1  0  0  0  0
  2  4  1  0  0  0  0
  2  5  1  0  0  0  0
  1  2  1  0  0  0  0
 18 19  2  0  0  0  0
 18 20  1  0  0  0  0
 16 17  1  0  0  0  0
 14 15  2  0  0  0  0
 14 16  1  0  0  0  0
 11 12  1  0  0  0  0
 11 13  1  0  0  0  0
 11 14  1  0  0  0  0
  9 10  1  0  0  0  0
  9 11  1  0  0  0  0
  9 18  1  0  0  0  0
  7  8  1  0  0  0  0
  7  9  1  0  0  0  0
 22 23  1  0  0  0  0
 22 24  1  0  0  0  0
 22 25  1  0  0  0  0
 20 21  1  0  0  0  0
 20 22  1  0  0  0  0
M  END
$$$$
default_name
  -OEChem-01062215323D

 25 24  0     1  0  0  0  0  0999 V2000
   -2.7826   -3.8464    0.7821 H   0  0  0  0  0  0  0  0  0  0  0  0
   -2.8156   -2.8034    0.4711 C   0  0  0  0  0  0  0  0  0  0  0  0
   -3.4336   -2.2354    1.1641 H   0  0  0  0  0  0  0  0  0  0  0  0
   -3.2256   -2.7344   -0.5349 H   0  0  0  0  0  0  0  0  0  0  0  0
   -1.4126   -2.2444    0.4801 C   0  0  0  0  0  0  0  0  0  0  0  0
   -0.4686   -2.9534    0.8001 O   0  0  0  0  0  0  0  0  0  0  0  0
   -1.2736   -0.9704    0.1241 N   0  0  0  0  0  0  0  0  0  0  0  0
   -2.0996   -0.4354   -0.1019 H   0  0  0  0  0  0  0  0  0  0  0  0
   -0.0016   -0.2394    0.1271 C   0  0  1  0  0  0  0  0  0  0  0  0
   -0.1834    0.7733   -0.2394 H   0  0  0  0  0  0  0  0  0  0  0  0
    0.5373   -0.1572    1.5689 C   0  0  0  0  0  0  0  0  0  0  0  0
    0.5339   -1.1524    2.0150 H   0  0  0  0  0  0  0  0  0  0  0  0
    1.5674    0.2007    1.5561 H   0  0  0  0  0  0  0  0  0  0  0  0
   -0.2954    0.7421    2.4777 C   0  0  0  0  0  0  0  0  0  0  0  0
   -0.9487    1.7119    2.1157 O   0  0  0  0  0  0  0  0  0  0  0  0
   -0.2720    0.4048    3.7806 O   0  0  0  0  0  0  0  0  0  0  0  0
   -0.8442    1.0317    4.2243 H   0  0  0  0  0  0  0  0  0  0  0  0
    1.0041   -0.9228   -0.8208 C   0  0  0  0  0  0  0  0  0  0  0  0
    1.1373   -2.1455   -0.7926 O   0  0  0  0  0  0  0  0  0  0  0  0
    1.7134   -0.1464   -1.6476 N   0  0  0  0  0  0  0  0  0  0  0  0
    1.5914    0.8577   -1.5650 H   0  0  0  0  0  0  0  0  0  0  0  0
    2.6978   -0.6442   -2.6061 C   0  0  0  0  0  0  0  0  0  0  0  0
    2.2508   -1.4293   -3.2198 H   0  0  0  0  0  0  0  0  0  0  0  0
    3.0368    0.1673   -3.2512 H   0  0  0  0  0  0  0  0  0  0  0  0
    3.5529   -1.0627   -2.0725 H   0  0  0  0  0  0  0  0  0  0  0  0
  5  6  2  0  0  0  0
  5  7  1  0  0  0  0
  2  3  1  0  0  0  0
  2  4  1  0  0  0  0
  2  5  1  0  0  0  0
  1  2  1  0  0  0  0
 18 19  2  0  0  0  0
 18 20  1  0  0  0  0
 16 17  1  0  0  0  0
 14 15  2  0  0  0  0
 14 16  1  0  0  0  0
 11 12  1  0  0  0  0
 11 13  1  0  0  0  0
 11 14  1  0  0  0  0
  9 10  1  0  0  0  0
  9 11  1  0  0  0  0
  9 18  1  0  0  0  0
  7  8  1  0  0  0  0
  7  9  1  0  0  0  0
 22 23  1  0  0  0  0
 22 24  1  0  0  0  0
 22 25  1  0  0  0  0
 20 21  1  0  0  0  0
 20 22  1  0  0  0  0
M  END
$$$$
default_name
  -OEChem-01062215323D

 25 24  0     1  0  0  0  0  0999 V2000
   -2.7826   -3.8464    0.7821 H   0  0  0  0  0  0  0  0  0  0  0  0
   -2.8156   -2.8034    0.4711 C   0  0  0  0  0  0  0  0  0  0  0  0
   -3.4336   -2.2354    1.1641 H   0  0  0  0  0  0  0  0  0  0  0  0
   -3.2256   -2.7344   -0.5349 H   0  0  0  0  0  0  0  0  0  0  0  0
   -1.4126   -2.2444    0.4801 C   0  0  0  0  0  0  0  0  0  0  0  0
   -0.4686   -2.9534    0.8001 O   0  0  0  0  0  0  0  0  0  0  0  0
   -1.2736   -0.9704    0.1241 N   0  0  0  0  0  0  0  0  0  0  0  0
   -2.0996   -0.4354   -0.1019 H   0  0  0  0  0  0  0  0  0  0  0  0
   -0.0016   -0.2394    0.1271 C   0  0  1  0  0  0  0  0  0  0  0  0
   -0.1834    0.7733   -0.2394 H   0  0  0  0  0  0  0  0  0  0  0  0
    0.5373   -0.1572    1.5689 C   0  0  0  0  0  0  0  0  0  0  0  0
    0.5339   -1.1524    2.0150 H   0  0  0  0  0  0  0  0  0  0  0  0
    1.5674    0.2007    1.5561 H   0  0  0  0  0  0  0  0  0  0  0  0
   -0.2954    0.7421    2.4777 C   0  0  0  0  0  0  0  0  0  0  0  0
   -0.9487    1.7119    2.1157 O   0  0  0  0  0  0  0  0  0  0  0  0
   -0.2720    0.4048    3.7806 O   0  0  0  0  0  0  0  0  0  0  0  0
   -0.8442    1.0317    4.2243 H   0  0  0  0  0  0  0  0  0  0  0  0
    1.0041   -0.9228   -0.8208 C   0  0  0  0  0  0  0  0  0  0  0  0
    0.9485   -2.1390   -0.9976 O   0  0  0  0  0  0  0  0  0  0  0  0
    1.9216   -0.1555   -1.4201 N   0  0  0  0  0  0  0  0  0  0  0  0
    1.9412    0.8285   -1.1727 H   0  0  0  0  0  0  0  0  0  0  0  0
    2.9354   -0.6531   -2.3475 C   0  0  0  0  0  0  0  0  0  0  0  0
    2.4588   -1.2433   -3.1332 H   0  0  0  0  0  0  0  0  0  0  0  0
    3.4718    0.1818   -2.8001 H   0  0  0  0  0  0  0  0  0  0  0  0
    3.6428   -1.2898   -1.8133 H   0  0  0  0  0  0  0  0  0  0  0  0
  5  6  2  0  0  0  0
  5  7  1  0  0  0  0
  2  3  1  0  0  0  0
  2  4  1  0  0  0  0
  2  5  1  0  0  0  0
  1  2  1  0  0  0  0
 18 19  2  0  0  0  0
 18 20  1  0  0  0  0
 16 17  1  0  0  0  0
 14 15  2  0  0  0  0
 14 16  1  0  0  0  0
 11 12  1  0  0  0  0
 11 13  1  0  0  0  0
 11 14  1  0  0  0  0
  9 10  1  0  0  0  0
  9 11  1  0  0  0  0
  9 18  1  0  0  0  0
  7  8  1  0  0  0  0
  7  9  1  0  0  0  0
 22 23  1  0  0  0  0
 22 24  1  0  0  0  0
 22 25  1  0  0  0  0
 20 21  1  0  0  0  0
 20 22  1  0  0  0  0
M  END
$$$$
default_name
  -OEChem-01062215323D

 25 24  0     1  0  0  0  0  0999 V2000
   -2.7826   -3.8464    0.7821 H   0  0  0  0  0  0  0  0  0  0  0  0
   -2.8156   -2.8034    0.4711 C   0  0  0  0  0  0  0  0  0  0  0  0
   -3.4336   -2.2354    1.1641 H   0  0  0  0  0  0  0  0  0  0  0  0
   -3.2256   -2.7344   -0.5349 H   0  0  0  0  0  0  0  0  0  0  0  0
   -1.4126   -2.2444    0.4801 C   0  0  0  0  0  0  0  0  0  0  0  0
   -0.4686   -2.9534    0.8001 O   0  0  0  0  0  0  0  0  0  0  0  0
   -1.2736   -0.9704    0.1241 N   0  0  0  0  0  0  0  0  0  0  0  0
   -2.0996   -0.4354   -0.1019 H   0  0  0  0  0  0  0  0  0  0  0  0
   -0.0016   -0.2394    0.1271 C   0  0  1  0  0  0  0  0  0  0  0  0
   -0.1834    0.7733   -0.2394 H   0  0  0  0  0  0  0  0  0  0  0  0
    0.5373   -0.1572    1.5689 C   0  0  0  0  0  0  0  0  0  0  0  0
    0.5339   -1.1524    2.0150 H   0  0  0  0  0  0  0  0  0  0  0  0
    1.5674    0.2007    1.5561 H   0  0  0  0  0  0  0  0  0  0  0  0
   -0.2954    0.7421    2.4777 C   0  0  0  0  0  0  0  0  0  0  0  0
   -0.9487    1.7119    2.1157 O   0  0  0  0  0  0  0  0  0  0  0  0
   -0.2720    0.4048    3.7806 O   0  0  0  0  0  0  0  0  0  0  0  0
   -0.8442    1.0317    4.2243 H   0  0  0  0  0  0  0  0  0  0  0  0
    1.0041   -0.9228   -0.8208 C   0  0  0  0  0  0  0  0  0  0  0  0
    0.7908   -2.0681   -1.2161 O   0  0  0  0  0  0  0  0  0  0  0  0
    2.0951   -0.2359   -1.1780 N   0  0  0  0  0  0  0  0  0  0  0  0
    2.2294    0.6783   -0.7586 H   0  0  0  0  0  0  0  0  0  0  0  0
    3.1339   -0.7432   -2.0720 C   0  0  0  0  0  0  0  0  0  0  0  0
    2.6794   -1.1114   -2.9943 H   0  0  0  0  0  0  0  0  0  0  0  0
    3.8425    0.0504   -2.3121 H   0  0  0  0  0  0  0  0  0  0  0  0
    3.6638   -1.5673   -1.5910 H   0  0  0  0  0  0  0  0  0  0  0  0
  5  6  2  0  0  0  0
  5  7  1  0  0  0  0
  2  3  1  0  0  0  0
  2  4  1  0  0  0  0
  2  5  1  0  0  0  0
  1  2  1  0  0  0  0
 18 19  2  0  0  0  0
 18 20  1  0  0  0  0
 16 17  1  0  0  0  0
 14 15  2  0  0  0  0
 14 16  1  0  0  0  0
 11 12  1  0  0  0  0
 11 13  1  0  0  0  0
 11 14  1  0  0  0  0
  9 10  1  0  0  0  0
  9 11  1  0  0  0  0
  9 18  1  0  0  0  0
  7  8  1  0  0  0  0
  7  9  1  0  0  0  0
 22 23  1  0  0  0  0
 22 24  1  0  0  0  0
 22 25  1  0  0  0  0
 20 21  1  0  0  0  0
 20 22  1  0  0  0  0
M  END
$$$$
default_name
  -OEChem-01062215323D

 25 24  0     1  0  0  0  0  0999 V2000
   -2.7826   -3.8464    0.7821 H   0  0  0  0  0  0  0  0  0  0  0  0
   -2.8156   -2.8034    0.4711 C   0  0  0  0  0  0  0  0  0  0  0  0
   -3.4336   -2.2354    1.1641 H   0  0  0  0  0  0  0  0  0  0  0  0
   -3.2256   -2.7344   -0.5349 H   0  0  0  0  0  0  0  0  0  0  0  0
   -1.4126   -2.2444    0.4801 C   0  0  0  0  0  0  0  0  0  0  0  0
   -0.4686   -2.9534    0.8001 O   0  0  0  0  0  0  0  0  0  0  0  0
   -1.2736   -0.9704    0.1241 N   0  0  0  0  0  0  0  0  0  0  0  0
   -2.0996   -0.4354   -0.1019 H   0  0  0  0  0  0  0  0  0  0  0  0
   -0.0016   -0.2394    0.1271 C   0  0  1  0  0  0  0  0  0  0  0  0
   -0.2148    0.8268    0.0238 H   0  0  0  0  0  0  0  0  0  0  0  0
    0.7199   -0.4745    1.4688 C   0  0  0  0  0  0  0  0  0  0  0  0
    0.7600   -1.5445    1.6768 H   0  0  0  0  0  0  0  0  0  0  0  0
    1.7447   -0.1072    1.4040 H   0  0  0  0  0  0  0  0  0  0  0  0
    0.0243    0.1851    2.6558 C   0  0  0  0  0  0  0  0  0  0  0  0
   -0.6564    1.2013    2.6080 O   0  0  0  0  0  0  0  0  0  0  0  0
    0.2108   -0.4355    3.8356 O   0  0  0  0  0  0  0  0  0  0  0  0
   -0.2904    0.0670    4.4786 H   0  0  0  0  0  0  0  0  0  0  0  0
    0.8636   -0.6773   -1.0715 C   0  0  0  0  0  0  0  0  0  0  0  0
    0.4436   -1.5337   -1.8484 O   0  0  0  0  0  0  0  0  0  0  0  0
    2.0639   -0.1056   -1.2202 N   0  0  0  0  0  0  0  0  0  0  0  0
    2.3635    0.5451   -0.5014 H   0  0  0  0  0  0  0  0  0  0  0  0
    2.9940   -0.4092   -2.3057 C   0  0  0  0  0  0  0  0  0  0  0  0
    2.4823   -0.3181   -3.2663 H   0  0  0  0  0  0  0  0  0  0  0  0
    3.8378    0.2814   -2.2808 H   0  0  0  0  0  0  0  0  0  0  0  0
    3.3609   -1.4318   -2.2015 H   0  0  0  0  0  0  0  0  0  0  0  0
  5  6  2  0  0  0  0
  5  7  1  0  0  0  0
  2  3  1  0  0  0  0
  2  4  1  0  0  0  0
  2  5  1  0  0  0  0
  1  2  1  0  0  0  0
 18 19  2  0  0  0  0
 18 20  1  0  0  0  0
 16 17  1  0  0  0  0
 14 15  2  0  0  0  0
 14 16  1  0  0  0  0
 11 12  1  0  0  0  0
 11 13  1  0  0  0  0
 11 14  1  0  0  0  0
  9 10  1  0  0  0  0
  9 11  1  0  0  0  0
  9 18  1  0  0  0  0
  7  8  1  0  0  0  0
  7  9  1  0  0  0  0
 22 23  1  0  0  0  0
 22 24  1  0  0  0  0
 22 25  1  0  0  0  0
 20 21  1  0  0  0  0
 20 22  1  0  0  0  0
M  END
$$$$
default_name
  -OEChem-01062215323D

 25 24  0     1  0  0  0  0  0999 V2000
   -2.7826   -3.8464    0.7821 H   0  0  0  0  0  0  0  0  0  0  0  0
   -2.8156   -2.8034    0.4711 C   0  0  0  0  0  0  0  0  0  0  0  0
   -3.4336   -2.2354    1.1641 H   0  0  0  0  0  0  0  0  0  0  0  0
   -3.2256   -2.7344   -0.5349 H   0  0  0  0  0  0  0  0  0  0  0  0
   -1.4126   -2.2444    0.4801 C   0  0  0  0  0  0  0  0  0  0  0  0
   -0.4686   -2.9534    0.8001 O   0  0  0  0  0  0  0  0  0  0  0  0
   -1.2736   -0.9704    0.1241 N   0  0  0  0  0  0  0  0  0  0  0  0
   -2.0996   -0.4354   -0.1019 H   0  0  0  0  0  0  0  0  0  0  0  0
   -0.0016   -0.2394    0.1271 C   0  0  1  0  0  0  0  0  0  0  0  0
   -0.2148    0.8268    0.0238 H   0  0  0  0  0  0  0  0  0  0  0  0
    0.7199   -0.4745    1.4688 C   0  0  0  0  0  0  0  0  0  0  0  0
    0.7600   -1.5445    1.6768 H   0  0  0  0  0  0  0  0  0  0  0  0
    1.7447   -0.1072    1.4040 H   0  0  0  0  0  0  0  0  0  0  0  0
    0.0243    0.1851    2.6558 C   0  0  0  0  0  0  0  0  0  0  0  0
   -0.6564    1.2013    2.6080 O   0  0  0  0  0  0  0  0  0  0  0  0
    0.2108   -0.4355    3.8356 O   0  0  0  0  0  0  0  0  0  0  0  0
   -0.2904    0.0670    4.4786 H   0  0  0  0  0  0  0  0  0  0  0  0
    0.8636   -0.6773   -1.0715 C   0  0  0  0  0  0  0  0  0  0  0  0
    0.3544   -1.3131   -1.9934 O   0  0  0  0  0  0  0  0  0  0  0  0
    2.1610   -0.3510   -1.0605 N   0  0  0  0  0  0  0  0  0  0  0  0
    2.5174    0.1184   -0.2344 H   0  0  0  0  0  0  0  0  0  0  0  0
    3.1058   -0.6878   -2.1232 C   0  0  0  0  0  0  0  0  0  0  0  0
    2.7088   -0.3615   -3.0870 H   0  0  0  0  0  0  0  0  0  0  0  0
    4.0630   -0.1966   -1.9437 H   0  0  0  0  0  0  0  0  0  0  0  0
    3.2548   -1.7685   -2.1551 H   0  0  0  0  0  0  0  0  0  0  0  0
  5  6  2  0  0  0  0
  5  7  1  0  0  0  0
  2  3  1  0  0  0  0
  2  4  1  0  0  0  0
  2  5  1  0  0  0  0
  1  2  1  0  0  0  0
 18 19  2  0  0  0  0
 18 20  1  0  0  0  0
 16 17  1  0  0  0  0
 14 15  2  0  0  0  0
 14 16  1  0  0  0  0
 11 12  1  0  0  0  0
 11 13  1  0  0  0  0
 11 14  1  0  0  0  0
  9 10  1  0  0  0  0
  9 11  1  0  0  0  0
  9 18  1  0  0  0  0
  7  8  1  0  0  0  0
  7  9  1  0  0  0  0
 22 23  1  0  0  0  0
 22 24  1  0  0  0  0
 22 25  1  0  0  0  0
 20 21  1  0  0  0  0
 20 22  1  0  0  0  0
M  END
$$$$
default_name
  -OEChem-01062215323D

 25 24  0     1  0  0  0  0  0999 V2000
   -2.7826   -3.8464    0.7821 H   0  0  0  0  0  0  0  0  0  0  0  0
   -2.8156   -2.8034    0.4711 C   0  0  0  0  0  0  0  0  0  0  0  0
   -3.4336   -2.2354    1.1641 H   0  0  0  0  0  0  0  0  0  0  0  0
   -3.2256   -2.7344   -0.5349 H   0  0  0  0  0  0  0  0  0  0  0  0
   -1.4126   -2.2444    0.4801 C   0  0  0  0  0  0  0  0  0  0  0  0
   -0.4686   -2.9534    0.8001 O   0  0  0  0  0  0  0  0  0  0  0  0
   -1.2736   -0.9704    0.1241 N   0  0  0  0  0  0  0  0  0  0  0  0
   -2.0996   -0.4354   -0.1019 H   0  0  0  0  0  0  0  0  0  0  0  0
   -0.0016   -0.2394    0.1271 C   0  0  1  0  0  0  0  0  0  0  0  0
   -0.2148    0.8268    0.0238 H   0  0  0  0  0  0  0  0  0  0  0  0
    0.7199   -0.4745    1.4688 C   0  0  0  0  0  0  0  0  0  0  0  0
    0.7600   -1.5445    1.6768 H   0  0  0  0  0  0  0  0  0  0  0  0
    1.7447   -0.1072    1.4040 H   0  0  0  0  0  0  0  0  0  0  0  0
    0.0243    0.1851    2.6558 C   0  0  0  0  0  0  0  0  0  0  0  0
   -0.6564    1.2013    2.6080 O   0  0  0  0  0  0  0  0  0  0  0  0
    0.2108   -0.4355    3.8356 O   0  0  0  0  0  0  0  0  0  0  0  0
   -0.2904    0.0670    4.4786 H   0  0  0  0  0  0  0  0  0  0  0  0
    0.8636   -0.6773   -1.0715 C   0  0  0  0  0  0  0  0  0  0  0  0
    0.3233   -1.0609   -2.1080 O   0  0  0  0  0  0  0  0  0  0  0  0
    2.1936   -0.6308   -0.9347 N   0  0  0  0  0  0  0  0  0  0  0  0
    2.5606   -0.3636   -0.0271 H   0  0  0  0  0  0  0  0  0  0  0  0
    3.1443   -1.0059   -1.9792 C   0  0  0  0  0  0  0  0  0  0  0  0
    2.9056   -0.4751   -2.9034 H   0  0  0  0  0  0  0  0  0  0  0  0
    4.1595   -0.7527   -1.6709 H   0  0  0  0  0  0  0  0  0  0  0  0
    3.0811   -2.0792   -2.1670 H   0  0  0  0  0  0  0  0  0  0  0  0
  5  6  2  0  0  0  0
  5  7  1  0  0  0  0
  2  3  1  0  0  0  0
  2  4  1  0  0  0  0
  2  5  1  0  0  0  0
  1  2  1  0  0  0  0
 18 19  2  0  0  0  0
 18 20  1  0  0  0  0
 16 17  1  0  0  0  0
 14 15  2  0  0  0  0
 14 16  1  0  0  0  0
 11 12  1  0  0  0  0
 11 13  1  0  0  0  0
 11 14  1  0  0  0  0
  9 10  1  0  0  0  0
  9 11  1  0  0  0  0
  9 18  1  0  0  0  0
  7  8  1  0  0  0  0
  7  9  1  0  0  0  0
 22 23  1  0  0  0  0
 22 24  1  0  0  0  0
 22 25  1  0  0  0  0
 20 21  1  0  0  0  0
 20 22  1  0  0  0  0
M  END
$$$$
default_name
  -OEChem-01062215323D

 25 24  0     1  0  0  0  0  0999 V2000
   -2.7826   -3.8464    0.7821 H   0  0  0  0  0  0  0  0  0  0  0  0
   -2.8156   -2.8034    0.4711 C   0  0  0  0  0  0  0  0  0  0  0  0
   -3.4336   -2.2354    1.1641 H   0  0  0  0  0  0  0  0  0  0  0  0
   -3.2256   -2.7344   -0.5349 H   0  0  0  0  0  0  0  0  0  0  0  0
   -1.4126   -2.2444    0.4801 C   0  0  0  0  0  0  0  0  0  0  0  0
   -0.4686   -2.9534    0.8001 O   0  0  0  0  0  0  0  0  0  0  0  0
   -1.2736   -0.9704    0.1241 N   0  0  0  0  0  0  0  0  0  0  0  0
   -2.0996   -0.4354   -0.1019 H   0  0  0  0  0  0  0  0  0  0  0  0
   -0.0016   -0.2394    0.1271 C   0  0  1  0  0  0  0  0  0  0  0  0
   -0.2148    0.8268    0.0238 H   0  0  0  0  0  0  0  0  0  0  0  0
    0.7199   -0.4745    1.4688 C   0  0  0  0  0  0  0  0  0  0  0  0
    0.7600   -1.5445    1.6768 H   0  0  0  0  0  0  0  0  0  0  0  0
    1.7447   -0.1072    1.4040 H   0  0  0  0  0  0  0  0  0  0  0  0
    0.0243    0.1851    2.6558 C   0  0  0  0  0  0  0  0  0  0  0  0
   -0.6564    1.2013    2.6080 O   0  0  0  0  0  0  0  0  0  0  0  0
    0.2108   -0.4355    3.8356 O   0  0  0  0  0  0  0  0  0  0  0  0
   -0.2904    0.0670    4.4786 H   0  0  0  0  0  0  0  0  0  0  0  0
    0.8636   -0.6773   -1.0715 C   0  0  0  0  0  0  0  0  0  0  0  0
    0.3524   -0.7945   -2.1843 O   0  0  0  0  0  0  0  0  0  0  0  0
    2.1596   -0.9259   -0.8515 N   0  0  0  0  0  0  0  0  0  0  0  0
    2.4902   -0.8679    0.1062 H   0  0  0  0  0  0  0  0  0  0  0  0
    3.1070   -1.3419   -1.8834 C   0  0  0  0  0  0  0  0  0  0  0  0
    3.0594   -0.6511   -2.7280 H   0  0  0  0  0  0  0  0  0  0  0  0
    4.1207   -1.3488   -1.4811 H   0  0  0  0  0  0  0  0  0  0  0  0
    2.8516   -2.3426   -2.2364 H   0  0  0  0  0  0  0  0  0  0  0  0
  5  6  2  0  0  0  0
  5  7  1  0  0  0  0
  2  3  1  0  0  0  0
  2  4  1  0  0  0  0
  2  5  1  0  0  0  0
  1  2  1  0  0  0  0
 18 19  2  0  0  0  0
 18 20  1  0  0  0  0
 16 17  1  0  0  0  0
 14 15  2  0  0  0  0
 14 16  1  0  0  0  0
 11 12  1  0  0  0  0
 11 13  1  0  0  0  0
 11 14  1  0  0  0  0
  9 10  1  0  0  0  0
  9 11  1  0  0  0  0
  9 18  1  0  0  0  0
  7  8  1  0  0  0  0
  7  9  1  0  0  0  0
 22 23  1  0  0  0  0
 22 24  1  0  0  0  0
 22 25  1  0  0  0  0
 20 21  1  0  0  0  0
 20 22  1  0  0  0  0
M  END
$$$$
default_name
  -OEChem-01062215323D

 25 24  0     1  0  0  0  0  0999 V2000
   -2.7826   -3.8464    0.7821 H   0  0  0  0  0  0  0  0  0  0  0  0
   -2.8156   -2.8034    0.4711 C   0  0  0  0  0  0  0  0  0  0  0  0
   -3.4336   -2.2354    1.1641 H   0  0  0  0  0  0  0  0  0  0  0  0
   -3.2256   -2.7344   -0.5349 H   0  0  0  0  0  0  0  0  0  0  0  0
   -1.4126   -2.2444    0.4801 C   0  0  0  0  0  0  0  0  0  0  0  0
   -0.4686   -2.9534    0.8001 O   0  0  0  0  0  0  0  0  0  0  0  0
   -1.2736   -0.9704    0.1241 N   0  0  0  0  0  0  0  0  0  0  0  0
   -2.0996   -0.4354   -0.1019 H   0  0  0  0  0  0  0  0  0  0  0  0
   -0.0016   -0.2394    0.1271 C   0  0  1  0  0  0  0  0  0  0  0  0
   -0.2148    0.8268    0.0238 H   0  0  0  0  0  0  0  0  0  0  0  0
    0.7199   -0.4745    1.4688 C   0  0  0  0  0  0  0  0  0  0  0  0
    0.7600   -1.5445    1.6768 H   0  0  0  0  0  0  0  0  0  0  0  0
    1.7447   -0.1072    1.4040 H   0  0  0  0  0  0  0  0  0  0  0  0
    0.0243    0.1851    2.6558 C   0  0  0  0  0  0  0  0  0  0  0  0
   -0.6564    1.2013    2.6080 O   0  0  0  0  0  0  0  0  0  0  0  0
    0.2108   -0.4355    3.8356 O   0  0  0  0  0  0  0  0  0  0  0  0
   -0.2904    0.0670    4.4786 H   0  0  0  0  0  0  0  0  0  0  0  0
    0.8636   -0.6773   -1.0715 C   0  0  0  0  0  0  0  0  0  0  0  0
    0.4397   -0.5319   -2.2172 O   0  0  0  0  0  0  0  0  0  0  0  0
    2.0612   -1.2162   -0.8165 N   0  0  0  0  0  0  0  0  0  0  0  0
    2.3108   -1.3602    0.1566 H   0  0  0  0  0  0  0  0  0  0  0  0
    2.9962   -1.6728   -1.8425 C   0  0  0  0  0  0  0  0  0  0  0  0
    3.1597   -0.8775   -2.5730 H   0  0  0  0  0  0  0  0  0  0  0  0
    3.9494   -1.9444   -1.3872 H   0  0  0  0  0  0  0  0  0  0  0  0
    2.5822   -2.5408   -2.3586 H   0  0  0  0  0  0  0  0  0  0  0  0
  5  6  2  0  0  0  0
  5  7  1  0  0  0  0
  2  3  1  0  0  0  0
  2  4  1  0  0  0  0
  2  5  1  0  0  0  0
  1  2  1  0  0  0  0
 18 19  2  0  0  0  0
 18 20  1  0  0  0  0
 16 17  1  0  0  0  0
 14 15  2  0  0  0  0
 14 16  1  0  0  0  0
 11 12  1  0  0  0  0
 11 13  1  0  0  0  0
 11 14  1  0  0  0  0
  9 10  1  0  0  0  0
  9 11  1  0  0  0  0
  9 18  1  0  0  0  0
  7  8  1  0  0  0  0
  7  9  1  0  0  0  0
 22 23  1  0  0  0  0
 22 24  1  0  0  0  0
 22 25  1  0  0  0  0
 20 21  1  0  0  0  0
 20 22  1  0  0  0  0
M  END
$$$$
default_name
  -OEChem-01062215323D

 25 24  0     1  0  0  0  0  0999 V2000
   -2.7826   -3.8464    0.7821 H   0  0  0  0  0  0  0  0  0  0  0  0
   -2.8156   -2.8034    0.4711 C   0  0  0  0  0  0  0  0  0  0  0  0
   -3.4336   -2.2354    1.1641 H   0  0  0  0  0  0  0  0  0  0  0  0
   -3.2256   -2.7344   -0.5349 H   0  0  0  0  0  0  0  0  0  0  0  0
   -1.4126   -2.2444    0.4801 C   0  0  0  0  0  0  0  0  0  0  0  0
   -0.4686   -2.9534    0.8001 O   0  0  0  0  0  0  0  0  0  0  0  0
   -1.2736   -0.9704    0.1241 N   0  0  0  0  0  0  0  0  0  0  0  0
   -2.0996   -0.4354   -0.1019 H   0  0  0  0  0  0  0  0  0  0  0  0
   -0.0016   -0.2394    0.1271 C   0  0  1  0  0  0  0  0  0  0  0  0
   -0.2148    0.8268    0.0238 H   0  0  0  0  0  0  0  0  0  0  0  0
    0.7199   -0.4745    1.4688 C   0  0  0  0  0  0  0  0  0  0  0  0
    0.7600   -1.5445    1.6768 H   0  0  0  0  0  0  0  0  0  0  0  0
    1.7447   -0.1072    1.4040 H   0  0  0  0  0  0  0  0  0  0  0  0
    0.0243    0.1851    2.6558 C   0  0  0  0  0  0  0  0  0  0  0  0
   -0.6564    1.2013    2.6080 O   0  0  0  0  0  0  0  0  0  0  0  0
    0.2108   -0.4355    3.8356 O   0  0  0  0  0  0  0  0  0  0  0  0
   -0.2904    0.0670    4.4786 H   0  0  0  0  0  0  0  0  0  0  0  0
    0.8636   -0.6773   -1.0715 C   0  0  0  0  0  0  0  0  0  0  0  0
    0.5793   -0.2911   -2.2044 O   0  0  0  0  0  0  0  0  0  0  0  0
    1.9052   -1.4819   -0.8320 N   0  0  0  0  0  0  0  0  0  0  0  0
    2.0348   -1.8070    0.1205 H   0  0  0  0  0  0  0  0  0  0  0  0
    2.8197   -1.9761   -1.8592 C   0  0  0  0  0  0  0  0  0  0  0  0
    3.1996   -1.1388   -2.4487 H   0  0  0  0  0  0  0  0  0  0  0  0
    3.6572   -2.4989   -1.3956 H   0  0  0  0  0  0  0  0  0  0  0  0
    2.2909   -2.6602   -2.5252 H   0  0  0  0  0  0  0  0  0  0  0  0
  5  6  2  0  0  0  0
  5  7  1  0  0  0  0
  2  3  1  0  0  0  0
  2  4  1  0  0  0  0
  2  5  1  0  0  0  0
  1  2  1  0  0  0  0
 18 19  2  0  0  0  0
 18 20  1  0  0  0  0
 16 17  1  0  0  0  0
 14 15  2  0  0  0  0
 14 16  1  0  0  0  0
 11 12  1  0  0  0  0
 11 13  1  0  0  0  0
 11 14  1  0  0  0  0
  9 10  1  0  0  0  0
  9 11  1  0  0  0  0
  9 18  1  0  0  0  0
  7  8  1  0  0  0  0
  7  9  1  0  0  0  0
 22 23  1  0  0  0  0
 22 24  1  0  0  0  0
 22 25  1  0  0  0  0
 20 21  1  0  0  0  0
 20 22  1  0  0  0  0
M  END
$$$$
default_name
  -OEChem-01062215323D

 25 24  0     1  0  0  0  0  0999 V2000
   -2.7826   -3.8464    0.7821 H   0  0  0  0  0  0  0  0  0  0  0  0
   -2.8156   -2.8034    0.4711 C   0  0  0  0  0  0  0  0  0  0  0  0
   -3.4336   -2.2354    1.1641 H   0  0  0  0  0  0  0  0  0  0  0  0
   -3.2256   -2.7344   -0.5349 H   0  0  0  0  0  0  0  0  0  0  0  0
   -1.4126   -2.2444    0.4801 C   0  0  0  0  0  0  0  0  0  0  0  0
   -0.4686   -2.9534    0.8001 O   0  0  0  0  0  0  0  0  0  0  0  0
   -1.2736   -0.9704    0.1241 N   0  0  0  0  0  0  0  0  0  0  0  0
   -2.0996   -0.4354   -0.1019 H   0  0  0  0  0  0  0  0  0  0  0  0
   -0.0016   -0.2394    0.1271 C   0  0  1  0  0  0  0  0  0  0  0  0
   -0.2148    0.8268    0.0238 H   0  0  0  0  0  0  0  0  0  0  0  0
    0.7199   -0.4745    1.4688 C   0  0  0  0  0  0  0  0  0  0  0  0
    0.7600   -1.5445    1.6768 H   0  0  0  0  0  0  0  0  0  0  0  0
    1.7447   -0.1072    1.4040 H   0  0  0  0  0  0  0  0  0  0  0  0
    0.0243    0.1851    2.6558 C   0  0  0  0  0  0  0  0  0  0  0  0
   -0.6564    1.2013    2.6080 O   0  0  0  0  0  0  0  0  0  0  0  0
    0.2108   -0.4355    3.8356 O   0  0  0  0  0  0  0  0  0  0  0  0
   -0.2904    0.0670    4.4786 H   0  0  0  0  0  0  0  0  0  0  0  0
    0.8636   -0.6773   -1.0715 C   0  0  0  0  0  0  0  0  0  0  0  0
    0.7617   -0.0884   -2.1468 O   0  0  0  0  0  0  0  0  0  0  0  0
    1.7022   -1.7049   -0.8971 N   0  0  0  0  0  0  0  0  0  0  0  0
    1.6809   -2.1778    0.0005 H   0  0  0  0  0  0  0  0  0  0  0  0
    2.5894   -2.2311   -1.9323 C   0  0  0  0  0  0  0  0  0  0  0  0
    3.1764   -1.4174   -2.3637 H   0  0  0  0  0  0  0  0  0  0  0  0
    3.2641   -2.9744   -1.5057 H   0  0  0  0  0  0  0  0  0  0  0  0
    1.9979   -2.6928   -2.7248 H   0  0  0  0  0  0  0  0  0  0  0  0
  5  6  2  0  0  0  0
  5  7  1  0  0  0  0
  2  3  1  0  0  0  0
  2  4  1  0  0  0  0
  2  5  1  0  0  0  0
  1  2  1  0  0  0  0
 18 19  2  0  0  0  0
 18 20  1  0  0  0  0
 16 17  1  0  0  0  0
 14 15  2  0  0  0  0
 14 16  1  0  0  0  0
 11 12  1  0  0  0  0
 11 13  1  0  0  0  0
 11 14  1  0  0  0  0
  9 10  1  0  0  0  0
  9 11  1  0  0  0  0
  9 18  1  0  0  0  0
  7  8  1  0  0  0  0
  7  9  1  0  0  0  0
 22 23  1  0  0  0  0
 22 24  1  0  0  0  0
 22 25  1  0  0  0  0
 20 21  1  0  0  0  0
 20 22  1  0  0  0  0
M  END
$$$$
default_name
  -OEChem-01062215323D

 25 24  0     1  0  0  0  0  0999 V2000
   -2.7826   -3.8464    0.7821 H   0  0  0  0  0  0  0  0  0  0  0  0
   -2.8156   -2.8034    0.4711 C   0  0  0  0  0  0  0  0  0  0  0  0
   -3.4336   -2.2354    1.1641 H   0  0  0  0  0  0  0  0  0  0  0  0
   -3.2256   -2.7344   -0.5349 H   0  0  0  0  0  0  0  0  0  0  0  0
   -1.4126   -2.2444    0.4801 C   0  0  0  0  0  0  0  0  0  0  0  0
   -0.4686   -2.9534    0.8001 O   0  0  0  0  0  0  0  0  0  0  0  0
   -1.2736   -0.9704    0.1241 N   0  0  0  0  0  0  0  0  0  0  0  0
   -2.0996   -0.4354   -0.1019 H   0  0  0  0  0  0  0  0  0  0  0  0
   -0.0016   -0.2394    0.1271 C   0  0  1  0  0  0  0  0  0  0  0  0
   -0.2148    0.8268    0.0238 H   0  0  0  0  0  0  0  0  0  0  0  0
    0.7199   -0.4745    1.4688 C   0  0  0  0  0  0  0  0  0  0  0  0
    0.7600   -1.5445    1.6768 H   0  0  0  0  0  0  0  0  0  0  0  0
    1.7447   -0.1072    1.4040 H   0  0  0  0  0  0  0  0  0  0  0  0
    0.0243    0.1851    2.6558 C   0  0  0  0  0  0  0  0  0  0  0  0
   -0.6564    1.2013    2.6080 O   0  0  0  0  0  0  0  0  0  0  0  0
    0.2108   -0.4355    3.8356 O   0  0  0  0  0  0  0  0  0  0  0  0
   -0.2904    0.0670    4.4786 H   0  0  0  0  0  0  0  0  0  0  0  0
    0.8636   -0.6773   -1.0715 C   0  0  0  0  0  0  0  0  0  0  0  0
    0.9744    0.0624   -2.0483 O   0  0  0  0  0  0  0  0  0  0  0  0
    1.4660   -1.8700   -1.0073 N   0  0  0  0  0  0  0  0  0  0  0  0
    1.2734   -2.4474   -0.1953 H   0  0  0  0  0  0  0  0  0  0  0  0
    2.3209   -2.4205   -2.0569 C   0  0  0  0  0  0  0  0  0  0  0  0
    3.0917   -1.6941   -2.3237 H   0  0  0  0  0  0  0  0  0  0  0  0
    2.7967   -3.3387   -1.7101 H   0  0  0  0  0  0  0  0  0  0  0  0
    1.7229   -2.6363   -2.9440 H   0  0  0  0  0  0  0  0  0  0  0  0
  5  6  2  0  0  0  0
  5  7  1  0  0  0  0
  2  3  1  0  0  0  0
  2  4  1  0  0  0  0
  2  5  1  0  0  0  0
  1  2  1  0  0  0  0
 18 19  2  0  0  0  0
 18 20  1  0  0  0  0
 16 17  1  0  0  0  0
 14 15  2  0  0  0  0
 14 16  1  0  0  0  0
 11 12  1  0  0  0  0
 11 13  1  0  0  0  0
 11 14  1  0  0  0  0
  9 10  1  0  0  0  0
  9 11  1  0  0  0  0
  9 18  1  0  0  0  0
  7  8  1  0  0  0  0
  7  9  1  0  0  0  0
 22 23  1  0  0  0  0
 22 24  1  0  0  0  0
 22 25  1  0  0  0  0
 20 21  1  0  0  0  0
 20 22  1  0  0  0  0
M  END
$$$$
default_name
  -OEChem-01062215323D

 25 24  0     1  0  0  0  0  0999 V2000
   -2.7826   -3.8464    0.7821 H   0  0  0  0  0  0  0  0  0  0  0  0
   -2.8156   -2.8034    0.4711 C   0  0  0  0  0  0  0  0  0  0  0  0
   -3.4336   -2.2354    1.1641 H   0  0  0  0  0  0  0  0  0  0  0  0
   -3.2256   -2.7344   -0.5349 H   0  0  0  0  0  0  0  0  0  0  0  0
   -1.4126   -2.2444    0.4801 C   0  0  0  0  0  0  0  0  0  0  0  0
   -0.4686   -2.9534    0.8001 O   0  0  0  0  0  0  0  0  0  0  0  0
   -1.2736   -0.9704    0.1241 N   0  0  0  0  0  0  0  0  0  0  0  0
   -2.0996   -0.4354   -0.1019 H   0  0  0  0  0  0  0  0  0  0  0  0
   -0.0016   -0.2394    0.1271 C   0  0  1  0  0  0  0  0  0  0  0  0
   -0.2148    0.8268    0.0238 H   0  0  0  0  0  0  0  0  0  0  0  0
    0.7199   -0.4745    1.4688 C   0  0  0  0  0  0  0  0  0  0  0  0
    0.7600   -1.5445    1.6768 H   0  0  0  0  0  0  0  0  0  0  0  0
    1.7447   -0.1072    1.4040 H   0  0  0  0  0  0  0  0  0  0  0  0
    0.0243    0.1851    2.6558 C   0  0  0  0  0  0  0  0  0  0  0  0
   -0.6564    1.2013    2.6080 O   0  0  0  0  0  0  0  0  0  0  0  0
    0.2108   -0.4355    3.8356 O   0  0  0  0  0  0  0  0  0  0  0  0
   -0.2904    0.0670    4.4786 H   0  0  0  0  0  0  0  0  0  0  0  0
    0.8636   -0.6773   -1.0715 C   0  0  0  0  0  0  0  0  0  0  0  0
    1.2029    0.1509   -1.9156 O   0  0  0  0  0  0  0  0  0  0  0  0
    1.2128   -1.9660   -1.1551 N   0  0  0  0  0  0  0  0  0  0  0  0
    0.8398   -2.5973   -0.4535 H   0  0  0  0  0  0  0  0  0  0  0  0
    2.0327   -2.5313   -2.2245 C   0  0  0  0  0  0  0  0  0  0  0  0
    2.9513   -1.9502   -2.3315 H   0  0  0  0  0  0  0  0  0  0  0  0
    2.2869   -3.5668   -1.9947 H   0  0  0  0  0  0  0  0  0  0  0  0
    1.4848   -2.4946   -3.1677 H   0  0  0  0  0  0  0  0  0  0  0  0
  5  6  2  0  0  0  0
  5  7  1  0  0  0  0
  2  3  1  0  0  0  0
  2  4  1  0  0  0  0
  2  5  1  0  0  0  0
  1  2  1  0  0  0  0
 18 19  2  0  0  0  0
 18 20  1  0  0  0  0
 16 17  1  0  0  0  0
 14 15  2  0  0  0  0
 14 16  1  0  0  0  0
 11 12  1  0  0  0  0
 11 13  1  0  0  0  0
 11 14  1  0  0  0  0
  9 10  1  0  0  0  0
  9 11  1  0  0  0  0
  9 18  1  0  0  0  0
  7  8  1  0  0  0  0
  7  9  1  0  0  0  0
 22 23  1  0  0  0  0
 22 24  1  0  0  0  0
 22 25  1  0  0  0  0
 20 21  1  0  0  0  0
 20 22  1  0  0  0  0
M  END
$$$$
default_name
  -OEChem-01062215323D

 25 24  0     1  0  0  0  0  0999 V2000
   -2.7826   -3.8464    0.7821 H   0  0  0  0  0  0  0  0  0  0  0  0
   -2.8156   -2.8034    0.4711 C   0  0  0  0  0  0  0  0  0  0  0  0
   -3.4336   -2.2354    1.1641 H   0  0  0  0  0  0  0  0  0  0  0  0
   -3.2256   -2.7344   -0.5349 H   0  0  0  0  0  0  0  0  0  0  0  0
   -1.4126   -2.2444    0.4801 C   0  0  0  0  0  0  0  0  0  0  0  0
   -0.4686   -2.9534    0.8001 O   0  0  0  0  0  0  0  0  0  0  0  0
   -1.2736   -0.9704    0.1241 N   0  0  0  0  0  0  0  0  0  0  0  0
   -2.0996   -0.4354   -0.1019 H   0  0  0  0  0  0  0  0  0  0  0  0
   -0.0016   -0.2394    0.1271 C   0  0  1  0  0  0  0  0  0  0  0  0
   -0.2148    0.8268    0.0238 H   0  0  0  0  0  0  0  0  0  0  0  0
    0.7199   -0.4745    1.4688 C   0  0  0  0  0  0  0  0  0  0  0  0
    0.7600   -1.5445    1.6768 H   0  0  0  0  0  0  0  0  0  0  0  0
    1.7447   -0.1072    1.4040 H   0  0  0  0  0  0  0  0  0  0  0  0
    0.0243    0.1851    2.6558 C   0  0  0  0  0  0  0  0  0  0  0  0
   -0.6564    1.2013    2.6080 O   0  0  0  0  0  0  0  0  0  0  0  0
    0.2108   -0.4355    3.8356 O   0  0  0  0  0  0  0  0  0  0  0  0
   -0.2904    0.0670    4.4786 H   0  0  0  0  0  0  0  0  0  0  0  0
    0.8636   -0.6773   -1.0715 C   0  0  0  0  0  0  0  0  0  0  0  0
    1.4317    0.1711   -1.7578 O   0  0  0  0  0  0  0  0  0  0  0  0
    0.9597   -1.9862   -1.3304 N   0  0  0  0  0  0  0  0  0  0  0  0
    0.4099   -2.6173   -0.7566 H   0  0  0  0  0  0  0  0  0  0  0  0
    1.7444   -2.5560   -2.4236 C   0  0  0  0  0  0  0  0  0  0  0  0
    2.7647   -2.1682   -2.3866 H   0  0  0  0  0  0  0  0  0  0  0  0
    1.7696   -3.6432   -2.3403 H   0  0  0  0  0  0  0  0  0  0  0  0
    1.2997   -2.2773   -3.3806 H   0  0  0  0  0  0  0  0  0  0  0  0
  5  6  2  0  0  0  0
  5  7  1  0  0  0  0
  2  3  1  0  0  0  0
  2  4  1  0  0  0  0
  2  5  1  0  0  0  0
  1  2  1  0  0  0  0
 18 19  2  0  0  0  0
 18 20  1  0  0  0  0
 16 17  1  0  0  0  0
 14 15  2  0  0  0  0
 14 16  1  0  0  0  0
 11 12  1  0  0  0  0
 11 13  1  0  0  0  0
 11 14  1  0  0  0  0
  9 10  1  0  0  0  0
  9 11  1  0  0  0  0
  9 18  1  0  0  0  0
  7  8  1  0  0  0  0
  7  9  1  0  0  0  0
 22 23  1  0  0  0  0
 22 24  1  0  0  0  0
 22 25  1  0  0  0  0
 20 21  1  0  0  0  0
 20 22  1  0  0  0  0
M  END
$$$$
default_name
  -OEChem-01062215323D

 25 24  0     1  0  0  0  0  0999 V2000
   -2.7826   -3.8464    0.7821 H   0  0  0  0  0  0  0  0  0  0  0  0
   -2.8156   -2.8034    0.4711 C   0  0  0  0  0  0  0  0  0  0  0  0
   -3.4336   -2.2354    1.1641 H   0  0  0  0  0  0  0  0  0  0  0  0
   -3.2256   -2.7344   -0.5349 H   0  0  0  0  0  0  0  0  0  0  0  0
   -1.4126   -2.2444    0.4801 C   0  0  0  0  0  0  0  0  0  0  0  0
   -0.4686   -2.9534    0.8001 O   0  0  0  0  0  0  0  0  0  0  0  0
   -1.2736   -0.9704    0.1241 N   0  0  0  0  0  0  0  0  0  0  0  0
   -2.0996   -0.4354   -0.1019 H   0  0  0  0  0  0  0  0  0  0  0  0
   -0.0016   -0.2394    0.1271 C   0  0  1  0  0  0  0  0  0  0  0  0
   -0.2148    0.8268    0.0238 H   0  0  0  0  0  0  0  0  0  0  0  0
    0.7199   -0.4745    1.4688 C   0  0  0  0  0  0  0  0  0  0  0  0
    0.7600   -1.5445    1.6768 H   0  0  0  0  0  0  0  0  0  0  0  0
    1.7447   -0.1072    1.4040 H   0  0  0  0  0  0  0  0  0  0  0  0
    0.0243    0.1851    2.6558 C   0  0  0  0  0  0  0  0  0  0  0  0
   -0.6564    1.2013    2.6080 O   0  0  0  0  0  0  0  0  0  0  0  0
    0.2108   -0.4355    3.8356 O   0  0  0  0  0  0  0  0  0  0  0  0
   -0.2904    0.0670    4.4786 H   0  0  0  0  0  0  0  0  0  0  0  0
    0.8636   -0.6773   -1.0715 C   0  0  0  0  0  0  0  0  0  0  0  0
    1.6452    0.1217   -1.5857 O   0  0  0  0  0  0  0  0  0  0  0  0
    0.7241   -1.9294   -1.5212 N   0  0  0  0  0  0  0  0  0  0  0  0
    0.0128   -2.5062   -1.0838 H   0  0  0  0  0  0  0  0  0  0  0  0
    1.4755   -2.4929   -2.6408 C   0  0  0  0  0  0  0  0  0  0  0  0
    2.5447   -2.3331   -2.4852 H   0  0  0  0  0  0  0  0  0  0  0  0
    1.2799   -3.5627   -2.7232 H   0  0  0  0  0  0  0  0  0  0  0  0
    1.1803   -1.9993   -3.5684 H   0  0  0  0  0  0  0  0  0  0  0  0
  5  6  2  0  0  0  0
  5  7  1  0  0  0  0
  2  3  1  0  0  0  0
  2  4  1  0  0  0  0
  2  5  1  0  0  0  0
  1  2  1  0  0  0  0
 18 19  2  0  0  0  0
 18 20  1  0  0  0  0
 16 17  1  0  0  0  0
 14 15  2  0  0  0  0
 14 16  1  0  0  0  0
 11 12  1  0  0  0  0
 11 13  1  0  0  0  0
 11 14  1  0  0  0  0
  9 10  1  0  0  0  0
  9 11  1  0  0  0  0
  9 18  1  0  0  0  0
  7  8  1  0  0  0  0
  7  9  1  0  0  0  0
 22 23  1  0  0  0  0
 22 24  1  0  0  0  0
 22 25  1  0  0  0  0
 20 21  1  0  0  0  0
 20 22  1  0  0  0  0
M  END
$$$$
default_name
  -OEChem-01062215323D

 25 24  0     1  0  0  0  0  0999 V2000
   -2.7826   -3.8464    0.7821 H   0  0  0  0  0  0  0  0  0  0  0  0
   -2.8156   -2.8034    0.4711 C   0  0  0  0  0  0  0  0  0  0  0  0
   -3.4336   -2.2354    1.1641 H   0  0  0  0  0  0  0  0  0  0  0  0
   -3.2256   -2.7344   -0.5349 H   0  0  0  0  0  0  0  0  0  0  0  0
   -1.4126   -2.2444    0.4801 C   0  0  0  0  0  0  0  0  0  0  0  0
   -0.4686   -2.9534    0.8001 O   0  0  0  0  0  0  0  0  0  0  0  0
   -1.2736   -0.9704    0.1241 N   0  0  0  0  0  0  0  0  0  0  0  0
   -2.0996   -0.4354   -0.1019 H   0  0  0  0  0  0  0  0  0  0  0  0
   -0.0016   -0.2394    0.1271 C   0  0  1  0  0  0  0  0  0  0  0  0
   -0.2148    0.8268    0.0238 H   0  0  0  0  0  0  0  0  0  0  0  0
    0.7199   -0.4745    1.4688 C   0  0  0  0  0  0  0  0  0  0  0  0
    0.7600   -1.5445    1.6768 H   0  0  0  0  0  0  0  0  0  0  0  0
    1.7447   -0.1072    1.4040 H   0  0  0  0  0  0  0  0  0  0  0  0
    0.0243    0.1851    2.6558 C   0  0  0  0  0  0  0  0  0  0  0  0
   -0.6564    1.2013    2.6080 O   0  0  0  0  0  0  0  0  0  0  0  0
    0.2108   -0.4355    3.8356 O   0  0  0  0  0  0  0  0  0  0  0  0
   -0.2904    0.0670    4.4786 H   0  0  0  0  0  0  0  0  0  0  0  0
    0.8636   -0.6773   -1.0715 C   0  0  0  0  0  0  0  0  0  0  0  0
    1.8288    0.0059   -1.4108 O   0  0  0  0  0  0  0  0  0  0  0  0
    0.5220   -1.7994   -1.7147 N   0  0  0  0  0  0  0  0  0  0  0  0
   -0.3243   -2.2714   -1.4129 H   0  0  0  0  0  0  0  0  0  0  0  0
    1.2444   -2.3463   -2.8612 C   0  0  0  0  0  0  0  0  0  0  0  0
    2.3062   -2.4339   -2.6206 H   0  0  0  0  0  0  0  0  0  0  0  0
    0.8513   -3.3309   -3.1174 H   0  0  0  0  0  0  0  0  0  0  0  0
    1.1348   -1.6794   -3.7181 H   0  0  0  0  0  0  0  0  0  0  0  0
  5  6  2  0  0  0  0
  5  7  1  0  0  0  0
  2  3  1  0  0  0  0
  2  4  1  0  0  0  0
  2  5  1  0  0  0  0
  1  2  1  0  0  0  0
 18 19  2  0  0  0  0
 18 20  1  0  0  0  0
 16 17  1  0  0  0  0
 14 15  2  0  0  0  0
 14 16  1  0  0  0  0
 11 12  1  0  0  0  0
 11 13  1  0  0  0  0
 11 14  1  0  0  0  0
  9 10  1  0  0  0  0
  9 11  1  0  0  0  0
  9 18  1  0  0  0  0
  7  8  1  0  0  0  0
  7  9  1  0  0  0  0
 22 23  1  0  0  0  0
 22 24  1  0  0  0  0
 22 25  1  0  0  0  0
 20 21  1  0  0  0  0
 20 22  1  0  0  0  0
M  END
$$$$
default_name
  -OEChem-01062215323D

 25 24  0     1  0  0  0  0  0999 V2000
   -2.7826   -3.8464    0.7821 H   0  0  0  0  0  0  0  0  0  0  0  0
   -2.8156   -2.8034    0.4711 C   0  0  0  0  0  0  0  0  0  0  0  0
   -3.4336   -2.2354    1.1641 H   0  0  0  0  0  0  0  0  0  0  0  0
   -3.2256   -2.7344   -0.5349 H   0  0  0  0  0  0  0  0  0  0  0  0
   -1.4126   -2.2444    0.4801 C   0  0  0  0  0  0  0  0  0  0  0  0
   -0.4686   -2.9534    0.8001 O   0  0  0  0  0  0  0  0  0  0  0  0
   -1.2736   -0.9704    0.1241 N   0  0  0  0  0  0  0  0  0  0  0  0
   -2.0996   -0.4354   -0.1019 H   0  0  0  0  0  0  0  0  0  0  0  0
   -0.0016   -0.2394    0.1271 C   0  0  1  0  0  0  0  0  0  0  0  0
   -0.2148    0.8268    0.0238 H   0  0  0  0  0  0  0  0  0  0  0  0
    0.7199   -0.4745    1.4688 C   0  0  0  0  0  0  0  0  0  0  0  0
    0.7600   -1.5445    1.6768 H   0  0  0  0  0  0  0  0  0  0  0  0
    1.7447   -0.1072    1.4040 H   0  0  0  0  0  0  0  0  0  0  0  0
    0.0243    0.1851    2.6558 C   0  0  0  0  0  0  0  0  0  0  0  0
   -0.6564    1.2013    2.6080 O   0  0  0  0  0  0  0  0  0  0  0  0
    0.2108   -0.4355    3.8356 O   0  0  0  0  0  0  0  0  0  0  0  0
   -0.2904    0.0670    4.4786 H   0  0  0  0  0  0  0  0  0  0  0  0
    0.8636   -0.6773   -1.0715 C   0  0  0  0  0  0  0  0  0  0  0  0
    1.9701   -0.1682   -1.2453 O   0  0  0  0  0  0  0  0  0  0  0  0
    0.3671   -1.6051   -1.8975 N   0  0  0  0  0  0  0  0  0  0  0  0
   -0.5785   -1.9289   -1.7215 H   0  0  0  0  0  0  0  0  0  0  0  0
    1.0669   -2.1262   -3.0697 C   0  0  0  0  0  0  0  0  0  0  0  0
    2.0655   -2.4636   -2.7835 H   0  0  0  0  0  0  0  0  0  0  0  0
    0.5128   -2.9634   -3.4959 H   0  0  0  0  0  0  0  0  0  0  0  0
    1.1662   -1.3395   -3.8197 H   0  0  0  0  0  0  0  0  0  0  0  0
  5  6  2  0  0  0  0
  5  7  1  0  0  0  0
  2  3  1  0  0  0  0
  2  4  1  0  0  0  0
  2  5  1  0  0  0  0
  1  2  1  0  0  0  0
 18 19  2  0  0  0  0
 18 20  1  0  0  0  0
 16 17  1  0  0  0  0
 14 15  2  0  0  0  0
 14 16  1  0  0  0  0
 11 12  1  0  0  0  0
 11 13  1  0  0  0  0
 11 14  1  0  0  0  0
  9 10  1  0  0  0  0
  9 11  1  0  0  0  0
  9 18  1  0  0  0  0
  7  8  1  0  0  0  0
  7  9  1  0  0  0  0
 22 23  1  0  0  0  0
 22 24  1  0  0  0  0
 22 25  1  0  0  0  0
 20 21  1  0  0  0  0
 20 22  1  0  0  0  0
M  END
$$$$
default_name
  -OEChem-01062215323D

 25 24  0     1  0  0  0  0  0999 V2000
   -2.7826   -3.8464    0.7821 H   0  0  0  0  0  0  0  0  0  0  0  0
   -2.8156   -2.8034    0.4711 C   0  0  0  0  0  0  0  0  0  0  0  0
   -3.4336   -2.2354    1.1641 H   0  0  0  0  0  0  0  0  0  0  0  0
   -3.2256   -2.7344   -0.5349 H   0  0  0  0  0  0  0  0  0  0  0  0
   -1.4126   -2.2444    0.4801 C   0  0  0  0  0  0  0  0  0  0  0  0
   -0.4686   -2.9534    0.8001 O   0  0  0  0  0  0  0  0  0  0  0  0
   -1.2736   -0.9704    0.1241 N   0  0  0  0  0  0  0  0  0  0  0  0
   -2.0996   -0.4354   -0.1019 H   0  0  0  0  0  0  0  0  0  0  0  0
   -0.0016   -0.2394    0.1271 C   0  0  1  0  0  0  0  0  0  0  0  0
   -0.2148    0.8268    0.0238 H   0  0  0  0  0  0  0  0  0  0  0  0
    0.7199   -0.4745    1.4688 C   0  0  0  0  0  0  0  0  0  0  0  0
    0.7600   -1.5445    1.6768 H   0  0  0  0  0  0  0  0  0  0  0  0
    1.7447   -0.1072    1.4040 H   0  0  0  0  0  0  0  0  0  0  0  0
    0.0243    0.1851    2.6558 C   0  0  0  0  0  0  0  0  0  0  0  0
   -0.6564    1.2013    2.6080 O   0  0  0  0  0  0  0  0  0  0  0  0
    0.2108   -0.4355    3.8356 O   0  0  0  0  0  0  0  0  0  0  0  0
   -0.2904    0.0670    4.4786 H   0  0  0  0  0  0  0  0  0  0  0  0
    0.8636   -0.6773   -1.0715 C   0  0  0  0  0  0  0  0  0  0  0  0
    2.0593   -0.3888   -1.1003 O   0  0  0  0  0  0  0  0  0  0  0  0
    0.2700   -1.3596   -2.0572 N   0  0  0  0  0  0  0  0  0  0  0  0
   -0.7324   -1.5022   -1.9886 H   0  0  0  0  0  0  0  0  0  0  0  0
    0.9551   -1.8476   -3.2522 C   0  0  0  0  0  0  0  0  0  0  0  0
    1.8390   -2.4202   -2.9628 H   0  0  0  0  0  0  0  0  0  0  0  0
    0.2877   -2.4854   -3.8331 H   0  0  0  0  0  0  0  0  0  0  0  0
    1.2723   -1.0027   -3.8660 H   0  0  0  0  0  0  0  0  0  0  0  0
  5  6  2  0  0  0  0
  5  7  1  0  0  0  0
  2  3  1  0  0  0  0
  2  4  1  0  0  0  0
  2  5  1  0  0  0  0
  1  2  1  0  0  0  0
 18 19  2  0  0  0  0
 18 20  1  0  0  0  0
 16 17  1  0  0  0  0
 14 15  2  0  0  0  0
 14 16  1  0  0  0  0
 11 12  1  0  0  0  0
 11 13  1  0  0  0  0
 11 14  1  0  0  0  0
  9 10  1  0  0  0  0
  9 11  1  0  0  0  0
  9 18  1  0  0  0  0
  7  8  1  0  0  0  0
  7  9  1  0  0  0  0
 22 23  1  0  0  0  0
 22 24  1  0  0  0  0
 22 25  1  0  0  0  0
 20 21  1  0  0  0  0
 20 22  1  0  0  0  0
M  END
$$$$
default_name
  -OEChem-01062215323D

 25 24  0     1  0  0  0  0  0999 V2000
   -2.7826   -3.8464    0.7821 H   0  0  0  0  0  0  0  0  0  0  0  0
   -2.8156   -2.8034    0.4711 C   0  0  0  0  0  0  0  0  0  0  0  0
   -3.4336   -2.2354    1.1641 H   0  0  0  0  0  0  0  0  0  0  0  0
   -3.2256   -2.7344   -0.5349 H   0  0  0  0  0  0  0  0  0  0  0  0
   -1.4126   -2.2444    0.4801 C   0  0  0  0  0  0  0  0  0  0  0  0
   -0.4686   -2.9534    0.8001 O   0  0  0  0  0  0  0  0  0  0  0  0
   -1.2736   -0.9704    0.1241 N   0  0  0  0  0  0  0  0  0  0  0  0
   -2.0996   -0.4354   -0.1019 H   0  0  0  0  0  0  0  0  0  0  0  0
   -0.0016   -0.2394    0.1271 C   0  0  1  0  0  0  0  0  0  0  0  0
   -0.2148    0.8268    0.0238 H   0  0  0  0  0  0  0  0  0  0  0  0
    0.7199   -0.4745    1.4688 C   0  0  0  0  0  0  0  0  0  0  0  0
    0.7600   -1.5445    1.6768 H   0  0  0  0  0  0  0  0  0  0  0  0
    1.7447   -0.1072    1.4040 H   0  0  0  0  0  0  0  0  0  0  0  0
    0.0243    0.1851    2.6558 C   0  0  0  0  0  0  0  0  0  0  0  0
   -0.6564    1.2013    2.6080 O   0  0  0  0  0  0  0  0  0  0  0  0
    0.2108   -0.4355    3.8356 O   0  0  0  0  0  0  0  0  0  0  0  0
   -0.2904    0.0670    4.4786 H   0  0  0  0  0  0  0  0  0  0  0  0
    0.8636   -0.6773   -1.0715 C   0  0  0  0  0  0  0  0  0  0  0  0
    2.0904   -0.6409   -0.9857 O   0  0  0  0  0  0  0  0  0  0  0  0
    0.2374   -1.0798   -2.1830 N   0  0  0  0  0  0  0  0  0  0  0  0
   -0.7756   -1.0202   -2.1958 H   0  0  0  0  0  0  0  0  0  0  0  0
    0.9166   -1.5294   -3.3962 C   0  0  0  0  0  0  0  0  0  0  0  0
    1.6421   -2.3066   -3.1464 H   0  0  0  0  0  0  0  0  0  0  0  0
    0.1912   -1.9293   -4.1059 H   0  0  0  0  0  0  0  0  0  0  0  0
    1.4460   -0.6921   -3.8541 H   0  0  0  0  0  0  0  0  0  0  0  0
  5  6  2  0  0  0  0
  5  7  1  0  0  0  0
  2  3  1  0  0  0  0
  2  4  1  0  0  0  0
  2  5  1  0  0  0  0
  1  2  1  0  0  0  0
 18 19  2  0  0  0  0
 18 20  1  0  0  0  0
 16 17  1  0  0  0  0
 14 15  2  0  0  0  0
 14 16  1  0  0  0  0
 11 12  1  0  0  0  0
 11 13  1  0  0  0  0
 11 14  1  0  0  0  0
  9 10  1  0  0  0  0
  9 11  1  0  0  0  0
  9 18  1  0  0  0  0
  7  8  1  0  0  0  0
  7  9  1  0  0  0  0
 22 23  1  0  0  0  0
 22 24  1  0  0  0  0
 22 25  1  0  0  0  0
 20 21  1  0  0  0  0
 20 22  1  0  0  0  0
M  END
$$$$
default_name
  -OEChem-01062215323D

 25 24  0     1  0  0  0  0  0999 V2000
   -2.7826   -3.8464    0.7821 H   0  0  0  0  0  0  0  0  0  0  0  0
   -2.8156   -2.8034    0.4711 C   0  0  0  0  0  0  0  0  0  0  0  0
   -3.4336   -2.2354    1.1641 H   0  0  0  0  0  0  0  0  0  0  0  0
   -3.2256   -2.7344   -0.5349 H   0  0  0  0  0  0  0  0  0  0  0  0
   -1.4126   -2.2444    0.4801 C   0  0  0  0  0  0  0  0  0  0  0  0
   -0.4686   -2.9534    0.8001 O   0  0  0  0  0  0  0  0  0  0  0  0
   -1.2736   -0.9704    0.1241 N   0  0  0  0  0  0  0  0  0  0  0  0
   -2.0996   -0.4354   -0.1019 H   0  0  0  0  0  0  0  0  0  0  0  0
   -0.0016   -0.2394    0.1271 C   0  0  1  0  0  0  0  0  0  0  0  0
   -0.2148    0.8268    0.0238 H   0  0  0  0  0  0  0  0  0  0  0  0
    0.7199   -0.4745    1.4688 C   0  0  0  0  0  0  0  0  0  0  0  0
    0.7600   -1.5445    1.6768 H   0  0  0  0  0  0  0  0  0  0  0  0
    1.7447   -0.1072    1.4040 H   0  0  0  0  0  0  0  0  0  0  0  0
    0.0243    0.1851    2.6558 C   0  0  0  0  0  0  0  0  0  0  0  0
   -0.6564    1.2013    2.6080 O   0  0  0  0  0  0  0  0  0  0  0  0
    0.2108   -0.4355    3.8356 O   0  0  0  0  0  0  0  0  0  0  0  0
   -0.2904    0.0670    4.4786 H   0  0  0  0  0  0  0  0  0  0  0  0
    0.8636   -0.6773   -1.0715 C   0  0  0  0  0  0  0  0  0  0  0  0
    2.0613   -0.9074   -0.9094 O   0  0  0  0  0  0  0  0  0  0  0  0
    0.2714   -0.7847   -2.2662 N   0  0  0  0  0  0  0  0  0  0  0  0
   -0.7051   -0.5159   -2.3292 H   0  0  0  0  0  0  0  0  0  0  0  0
    0.9539   -1.1935   -3.4920 C   0  0  0  0  0  0  0  0  0  0  0  0
    1.4883   -2.1307   -3.3218 H   0  0  0  0  0  0  0  0  0  0  0  0
    0.2299   -1.3332   -4.2957 H   0  0  0  0  0  0  0  0  0  0  0  0
    1.6754   -0.4287   -3.7847 H   0  0  0  0  0  0  0  0  0  0  0  0
  5  6  2  0  0  0  0
  5  7  1  0  0  0  0
  2  3  1  0  0  0  0
  2  4  1  0  0  0  0
  2  5  1  0  0  0  0
  1  2  1  0  0  0  0
 18 19  2  0  0  0  0
 18 20  1  0  0  0  0
 16 17  1  0  0  0  0
 14 15  2  0  0  0  0
 14 16  1  0  0  0  0
 11 12  1  0  0  0  0
 11 13  1  0  0  0  0
 11 14  1  0  0  0  0
  9 10  1  0  0  0  0
  9 11  1  0  0  0  0
  9 18  1  0  0  0  0
  7  8  1  0  0  0  0
  7  9  1  0  0  0  0
 22 23  1  0  0  0  0
 22 24  1  0  0  0  0
 22 25  1  0  0  0  0
 20 21  1  0  0  0  0
 20 22  1  0  0  0  0
M  END
$$$$
default_name
  -OEChem-01062215323D

 25 24  0     1  0  0  0  0  0999 V2000
   -2.7826   -3.8464    0.7821 H   0  0  0  0  0  0  0  0  0  0  0  0
   -2.8156   -2.8034    0.4711 C   0  0  0  0  0  0  0  0  0  0  0  0
   -3.4336   -2.2354    1.1641 H   0  0  0  0  0  0  0  0  0  0  0  0
   -3.2256   -2.7344   -0.5349 H   0  0  0  0  0  0  0  0  0  0  0  0
   -1.4126   -2.2444    0.4801 C   0  0  0  0  0  0  0  0  0  0  0  0
   -0.4686   -2.9534    0.8001 O   0  0  0  0  0  0  0  0  0  0  0  0
   -1.2736   -0.9704    0.1241 N   0  0  0  0  0  0  0  0  0  0  0  0
   -2.0996   -0.4354   -0.1019 H   0  0  0  0  0  0  0  0  0  0  0  0
   -0.0016   -0.2394    0.1271 C   0  0  1  0  0  0  0  0  0  0  0  0
   -0.2148    0.8268    0.0238 H   0  0  0  0  0  0  0  0  0  0  0  0
    0.7199   -0.4745    1.4688 C   0  0  0  0  0  0  0  0  0  0  0  0
    0.7600   -1.5445    1.6768 H   0  0  0  0  0  0  0  0  0  0  0  0
    1.7447   -0.1072    1.4040 H   0  0  0  0  0  0  0  0  0  0  0  0
    0.0243    0.1851    2.6558 C   0  0  0  0  0  0  0  0  0  0  0  0
   -0.6564    1.2013    2.6080 O   0  0  0  0  0  0  0  0  0  0  0  0
    0.2108   -0.4355    3.8356 O   0  0  0  0  0  0  0  0  0  0  0  0
   -0.2904    0.0670    4.4786 H   0  0  0  0  0  0  0  0  0  0  0  0
    0.8636   -0.6773   -1.0715 C   0  0  0  0  0  0  0  0  0  0  0  0
    1.9740   -1.1700   -0.8765 O   0  0  0  0  0  0  0  0  0  0  0  0
    0.3698   -0.4944   -2.3012 N   0  0  0  0  0  0  0  0  0  0  0  0
   -0.5258   -0.0235   -2.3795 H   0  0  0  0  0  0  0  0  0  0  0  0
    1.0647   -0.8626   -3.5329 C   0  0  0  0  0  0  0  0  0  0  0  0
    1.3881   -1.9043   -3.4768 H   0  0  0  0  0  0  0  0  0  0  0  0
    0.4012   -0.7376   -4.3896 H   0  0  0  0  0  0  0  0  0  0  0  0
    1.9449   -0.2305   -3.6626 H   0  0  0  0  0  0  0  0  0  0  0  0
  5  6  2  0  0  0  0
  5  7  1  0  0  0  0
  2  3  1  0  0  0  0
  2  4  1  0  0  0  0
  2  5  1  0  0  0  0
  1  2  1  0  0  0  0
 18 19  2  0  0  0  0
 18 20  1  0  0  0  0
 16 17  1  0  0  0  0
 14 15  2  0  0  0  0
 14 16  1  0  0  0  0
 11 12  1  0  0  0  0
 11 13  1  0  0  0  0
 11 14  1  0  0  0  0
  9 10  1  0  0  0  0
  9 11  1  0  0  0  0
  9 18  1  0  0  0  0
  7  8  1  0  0  0  0
  7  9  1  0  0  0  0
 22 23  1  0  0  0  0
 22 24  1  0  0  0  0
 22 25  1  0  0  0  0
 20 21  1  0  0  0  0
 20 22  1  0  0  0  0
M  END
$$$$
default_name
  -OEChem-01062215323D

 25 24  0     1  0  0  0  0  0999 V2000
   -2.7826   -3.8464    0.7821 H   0  0  0  0  0  0  0  0  0  0  0  0
   -2.8156   -2.8034    0.4711 C   0  0  0  0  0  0  0  0  0  0  0  0
   -3.4336   -2.2354    1.1641 H   0  0  0  0  0  0  0  0  0  0  0  0
   -3.2256   -2.7344   -0.5349 H   0  0  0  0  0  0  0  0  0  0  0  0
   -1.4126   -2.2444    0.4801 C   0  0  0  0  0  0  0  0  0  0  0  0
   -0.4686   -2.9534    0.8001 O   0  0  0  0  0  0  0  0  0  0  0  0
   -1.2736   -0.9704    0.1241 N   0  0  0  0  0  0  0  0  0  0  0  0
   -2.0996   -0.4354   -0.1019 H   0  0  0  0  0  0  0  0  0  0  0  0
   -0.0016   -0.2394    0.1271 C   0  0  1  0  0  0  0  0  0  0  0  0
   -0.2148    0.8268    0.0238 H   0  0  0  0  0  0  0  0  0  0  0  0
    0.7199   -0.4745    1.4688 C   0  0  0  0  0  0  0  0  0  0  0  0
    0.7600   -1.5445    1.6768 H   0  0  0  0  0  0  0  0  0  0  0  0
    1.7447   -0.1072    1.4040 H   0  0  0  0  0  0  0  0  0  0  0  0
    0.0243    0.1851    2.6558 C   0  0  0  0  0  0  0  0  0  0  0  0
   -0.6564    1.2013    2.6080 O   0  0  0  0  0  0  0  0  0  0  0  0
    0.2108   -0.4355    3.8356 O   0  0  0  0  0  0  0  0  0  0  0  0
   -0.2904    0.0670    4.4786 H   0  0  0  0  0  0  0  0  0  0  0  0
    0.8636   -0.6773   -1.0715 C   0  0  0  0  0  0  0  0  0  0  0  0
    1.8344   -1.4108   -0.8893 O   0  0  0  0  0  0  0  0  0  0  0  0
    0.5258   -0.2287   -2.2857 N   0  0  0  0  0  0  0  0  0  0  0  0
   -0.2498    0.4233   -2.3435 H   0  0  0  0  0  0  0  0  0  0  0  0
    1.2412   -0.5593   -3.5163 C   0  0  0  0  0  0  0  0  0  0  0  0
    1.3482   -1.6429   -3.6011 H   0  0  0  0  0  0  0  0  0  0  0  0
    0.6934   -0.1831   -4.3812 H   0  0  0  0  0  0  0  0  0  0  0  0
    2.2361   -0.1110   -3.4960 H   0  0  0  0  0  0  0  0  0  0  0  0
  5  6  2  0  0  0  0
  5  7  1  0  0  0  0
  2  3  1  0  0  0  0
  2  4  1  0  0  0  0
  2  5  1  0  0  0  0
  1  2  1  0  0  0  0
 18 19  2  0  0  0  0
 18 20  1  0  0  0  0
 16 17  1  0  0  0  0
 14 15  2  0  0  0  0
 14 16  1  0  0  0  0
 11 12  1  0  0  0  0
 11 13  1  0  0  0  0
 11 14  1  0  0  0  0
  9 10  1  0  0  0  0
  9 11  1  0  0  0  0
  9 18  1  0  0  0  0
  7  8  1  0  0  0  0
  7  9  1  0  0  0  0
 22 23  1  0  0  0  0
 22 24  1  0  0  0  0
 22 25  1  0  0  0  0
 20 21  1  0  0  0  0
 20 22  1  0  0  0  0
M  END
$$$$
default_name
  -OEChem-01062215323D

 25 24  0     1  0  0  0  0  0999 V2000
   -2.7826   -3.8464    0.7821 H   0  0  0  0  0  0  0  0  0  0  0  0
   -2.8156   -2.8034    0.4711 C   0  0  0  0  0  0  0  0  0  0  0  0
   -3.4336   -2.2354    1.1641 H   0  0  0  0  0  0  0  0  0  0  0  0
   -3.2256   -2.7344   -0.5349 H   0  0  0  0  0  0  0  0  0  0  0  0
   -1.4126   -2.2444    0.4801 C   0  0  0  0  0  0  0  0  0  0  0  0
   -0.4686   -2.9534    0.8001 O   0  0  0  0  0  0  0  0  0  0  0  0
   -1.2736   -0.9704    0.1241 N   0  0  0  0  0  0  0  0  0  0  0  0
   -2.0996   -0.4354   -0.1019 H   0  0  0  0  0  0  0  0  0  0  0  0
   -0.0016   -0.2394    0.1271 C   0  0  1  0  0  0  0  0  0  0  0  0
   -0.2148    0.8268    0.0238 H   0  0  0  0  0  0  0  0  0  0  0  0
    0.7199   -0.4745    1.4688 C   0  0  0  0  0  0  0  0  0  0  0  0
    0.7600   -1.5445    1.6768 H   0  0  0  0  0  0  0  0  0  0  0  0
    1.7447   -0.1072    1.4040 H   0  0  0  0  0  0  0  0  0  0  0  0
    0.0243    0.1851    2.6558 C   0  0  0  0  0  0  0  0  0  0  0  0
   -0.6564    1.2013    2.6080 O   0  0  0  0  0  0  0  0  0  0  0  0
    0.2108   -0.4355    3.8356 O   0  0  0  0  0  0  0  0  0  0  0  0
   -0.2904    0.0670    4.4786 H   0  0  0  0  0  0  0  0  0  0  0  0
    0.8636   -0.6773   -1.0715 C   0  0  0  0  0  0  0  0  0  0  0  0
    1.6520   -1.6135   -0.9469 O   0  0  0  0  0  0  0  0  0  0  0  0
    0.7288   -0.0057   -2.2206 N   0  0  0  0  0  0  0  0  0  0  0  0
    0.1041    0.7941   -2.2235 H   0  0  0  0  0  0  0  0  0  0  0  0
    1.4715   -0.3043   -3.4431 C   0  0  0  0  0  0  0  0  0  0  0  0
    1.3714   -1.3644   -3.6862 H   0  0  0  0  0  0  0  0  0  0  0  0
    1.0866    0.2924   -4.2711 H   0  0  0  0  0  0  0  0  0  0  0  0
    2.5292   -0.0784   -3.2963 H   0  0  0  0  0  0  0  0  0  0  0  0
  5  6  2  0  0  0  0
  5  7  1  0  0  0  0
  2  3  1  0  0  0  0
  2  4  1  0  0  0  0
  2  5  1  0  0  0  0
  1  2  1  0  0  0  0
 18 19  2  0  0  0  0
 18 20  1  0  0  0  0
 16 17  1  0  0  0  0
 14 15  2  0  0  0  0
 14 16  1  0  0  0  0
 11 12  1  0  0  0  0
 11 13  1  0  0  0  0
 11 14  1  0  0  0  0
  9 10  1  0  0  0  0
  9 11  1  0  0  0  0
  9 18  1  0  0  0  0
  7  8  1  0  0  0  0
  7  9  1  0  0  0  0
 22 23  1  0  0  0  0
 22 24  1  0  0  0  0
 22 25  1  0  0  0  0
 20 21  1  0  0  0  0
 20 22  1  0  0  0  0
M  END
$$$$
default_name
  -OEChem-01062215323D

 25 24  0     1  0  0  0  0  0999 V2000
   -2.7826   -3.8464    0.7821 H   0  0  0  0  0  0  0  0  0  0  0  0
   -2.8156   -2.8034    0.4711 C   0  0  0  0  0  0  0  0  0  0  0  0
   -3.4336   -2.2354    1.1641 H   0  0  0  0  0  0  0  0  0  0  0  0
   -3.2256   -2.7344   -0.5349 H   0  0  0  0  0  0  0  0  0  0  0  0
   -1.4126   -2.2444    0.4801 C   0  0  0  0  0  0  0  0  0  0  0  0
   -0.4686   -2.9534    0.8001 O   0  0  0  0  0  0  0  0  0  0  0  0
   -1.2736   -0.9704    0.1241 N   0  0  0  0  0  0  0  0  0  0  0  0
   -2.0996   -0.4354   -0.1019 H   0  0  0  0  0  0  0  0  0  0  0  0
   -0.0016   -0.2394    0.1271 C   0  0  1  0  0  0  0  0  0  0  0  0
   -0.2148    0.8268    0.0238 H   0  0  0  0  0  0  0  0  0  0  0  0
    0.7199   -0.4745    1.4688 C   0  0  0  0  0  0  0  0  0  0  0  0
    0.7600   -1.5445    1.6768 H   0  0  0  0  0  0  0  0  0  0  0  0
    1.7447   -0.1072    1.4040 H   0  0  0  0  0  0  0  0  0  0  0  0
    0.0243    0.1851    2.6558 C   0  0  0  0  0  0  0  0  0  0  0  0
   -0.6564    1.2013    2.6080 O   0  0  0  0  0  0  0  0  0  0  0  0
    0.2108   -0.4355    3.8356 O   0  0  0  0  0  0  0  0  0  0  0  0
   -0.2904    0.0670    4.4786 H   0  0  0  0  0  0  0  0  0  0  0  0
    0.8636   -0.6773   -1.0715 C   0  0  0  0  0  0  0  0  0  0  0  0
    1.4393   -1.7642   -1.0454 O   0  0  0  0  0  0  0  0  0  0  0  0
    0.9650    0.1594   -2.1104 N   0  0  0  0  0  0  0  0  0  0  0  0
    0.5117    1.0636   -2.0277 H   0  0  0  0  0  0  0  0  0  0  0  0
    1.7400   -0.1149   -3.3185 C   0  0  0  0  0  0  0  0  0  0  0  0
    1.4560   -1.0876   -3.7261 H   0  0  0  0  0  0  0  0  0  0  0  0
    1.5540    0.6567   -4.0667 H   0  0  0  0  0  0  0  0  0  0  0  0
    2.8042   -0.1349   -3.0772 H   0  0  0  0  0  0  0  0  0  0  0  0
  5  6  2  0  0  0  0
  5  7  1  0  0  0  0
  2  3  1  0  0  0  0
  2  4  1  0  0  0  0
  2  5  1  0  0  0  0
  1  2  1  0  0  0  0
 18 19  2  0  0  0  0
 18 20  1  0  0  0  0
 16 17  1  0  0  0  0
 14 15  2  0  0  0  0
 14 16  1  0  0  0  0
 11 12  1  0  0  0  0
 11 13  1  0  0  0  0
 11 14  1  0  0  0  0
  9 10  1  0  0  0  0
  9 11  1  0  0  0  0
  9 18  1  0  0  0  0
  7  8  1  0  0  0  0
  7  9  1  0  0  0  0
 22 23  1  0  0  0  0
 22 24  1  0  0  0  0
 22 25  1  0  0  0  0
 20 21  1  0  0  0  0
 20 22  1  0  0  0  0
M  END
$$$$
default_name
  -OEChem-01062215323D

 25 24  0     1  0  0  0  0  0999 V2000
   -2.7826   -3.8464    0.7821 H   0  0  0  0  0  0  0  0  0  0  0  0
   -2.8156   -2.8034    0.4711 C   0  0  0  0  0  0  0  0  0  0  0  0
   -3.4336   -2.2354    1.1641 H   0  0  0  0  0  0  0  0  0  0  0  0
   -3.2256   -2.7344   -0.5349 H   0  0  0  0  0  0  0  0  0  0  0  0
   -1.4126   -2.2444    0.4801 C   0  0  0  0  0  0  0  0  0  0  0  0
   -0.4686   -2.9534    0.8001 O   0  0  0  0  0  0  0  0  0  0  0  0
   -1.2736   -0.9704    0.1241 N   0  0  0  0  0  0  0  0  0  0  0  0
   -2.0996   -0.4354   -0.1019 H   0  0  0  0  0  0  0  0  0  0  0  0
   -0.0016   -0.2394    0.1271 C   0  0  1  0  0  0  0  0  0  0  0  0
   -0.2148    0.8268    0.0238 H   0  0  0  0  0  0  0  0  0  0  0  0
    0.7199   -0.4745    1.4688 C   0  0  0  0  0  0  0  0  0  0  0  0
    0.7600   -1.5445    1.6768 H   0  0  0  0  0  0  0  0  0  0  0  0
    1.7447   -0.1072    1.4040 H   0  0  0  0  0  0  0  0  0  0  0  0
    0.0243    0.1851    2.6558 C   0  0  0  0  0  0  0  0  0  0  0  0
   -0.6564    1.2013    2.6080 O   0  0  0  0  0  0  0  0  0  0  0  0
    0.2108   -0.4355    3.8356 O   0  0  0  0  0  0  0  0  0  0  0  0
   -0.2904    0.0670    4.4786 H   0  0  0  0  0  0  0  0  0  0  0  0
    0.8636   -0.6773   -1.0715 C   0  0  0  0  0  0  0  0  0  0  0  0
    1.2107   -1.8527   -1.1781 O   0  0  0  0  0  0  0  0  0  0  0  0
    1.2182    0.2553   -1.9626 N   0  0  0  0  0  0  0  0  0  0  0  0
    0.9452    1.2135   -1.7695 H   0  0  0  0  0  0  0  0  0  0  0  0
    2.0282   -0.0041   -3.1509 C   0  0  0  0  0  0  0  0  0  0  0  0
    1.5965   -0.8315   -3.7183 H   0  0  0  0  0  0  0  0  0  0  0  0
    2.0637    0.8848   -3.7820 H   0  0  0  0  0  0  0  0  0  0  0  0
    3.0423   -0.2766   -2.8535 H   0  0  0  0  0  0  0  0  0  0  0  0
  5  6  2  0  0  0  0
  5  7  1  0  0  0  0
  2  3  1  0  0  0  0
  2  4  1  0  0  0  0
  2  5  1  0  0  0  0
  1  2  1  0  0  0  0
 18 19  2  0  0  0  0
 18 20  1  0  0  0  0
 16 17  1  0  0  0  0
 14 15  2  0  0  0  0
 14 16  1  0  0  0  0
 11 12  1  0  0  0  0
 11 13  1  0  0  0  0
 11 14  1  0  0  0  0
  9 10  1  0  0  0  0
  9 11  1  0  0  0  0
  9 18  1  0  0  0  0
  7  8  1  0  0  0  0
  7  9  1  0  0  0  0
 22 23  1  0  0  0  0
 22 24  1  0  0  0  0
 22 25  1  0  0  0  0
 20 21  1  0  0  0  0
 20 22  1  0  0  0  0
M  END
$$$$
default_name
  -OEChem-01062215323D

 25 24  0     1  0  0  0  0  0999 V2000
   -2.7826   -3.8464    0.7821 H   0  0  0  0  0  0  0  0  0  0  0  0
   -2.8156   -2.8034    0.4711 C   0  0  0  0  0  0  0  0  0  0  0  0
   -3.4336   -2.2354    1.1641 H   0  0  0  0  0  0  0  0  0  0  0  0
   -3.2256   -2.7344   -0.5349 H   0  0  0  0  0  0  0  0  0  0  0  0
   -1.4126   -2.2444    0.4801 C   0  0  0  0  0  0  0  0  0  0  0  0
   -0.4686   -2.9534    0.8001 O   0  0  0  0  0  0  0  0  0  0  0  0
   -1.2736   -0.9704    0.1241 N   0  0  0  0  0  0  0  0  0  0  0  0
   -2.0996   -0.4354   -0.1019 H   0  0  0  0  0  0  0  0  0  0  0  0
   -0.0016   -0.2394    0.1271 C   0  0  1  0  0  0  0  0  0  0  0  0
   -0.2148    0.8268    0.0238 H   0  0  0  0  0  0  0  0  0  0  0  0
    0.7199   -0.4745    1.4688 C   0  0  0  0  0  0  0  0  0  0  0  0
    0.7600   -1.5445    1.6768 H   0  0  0  0  0  0  0  0  0  0  0  0
    1.7447   -0.1072    1.4040 H   0  0  0  0  0  0  0  0  0  0  0  0
    0.0243    0.1851    2.6558 C   0  0  0  0  0  0  0  0  0  0  0  0
   -0.6564    1.2013    2.6080 O   0  0  0  0  0  0  0  0  0  0  0  0
    0.2108   -0.4355    3.8356 O   0  0  0  0  0  0  0  0  0  0  0  0
   -0.2904    0.0670    4.4786 H   0  0  0  0  0  0  0  0  0  0  0  0
    0.8636   -0.6773   -1.0715 C   0  0  0  0  0  0  0  0  0  0  0  0
    0.9819   -1.8730   -1.3359 O   0  0  0  0  0  0  0  0  0  0  0  0
    1.4713    0.2756   -1.7873 N   0  0  0  0  0  0  0  0  0  0  0  0
    1.3752    1.2335   -1.4664 H   0  0  0  0  0  0  0  0  0  0  0  0
    2.3165    0.0206   -2.9518 C   0  0  0  0  0  0  0  0  0  0  0  0
    1.7831   -0.6136   -3.6632 H   0  0  0  0  0  0  0  0  0  0  0  0
    2.5810    0.9612   -3.4365 H   0  0  0  0  0  0  0  0  0  0  0  0
    3.2273   -0.4939   -2.6405 H   0  0  0  0  0  0  0  0  0  0  0  0
  5  6  2  0  0  0  0
  5  7  1  0  0  0  0
  2  3  1  0  0  0  0
  2  4  1  0  0  0  0
  2  5  1  0  0  0  0
  1  2  1  0  0  0  0
 18 19  2  0  0  0  0
 18 20  1  0  0  0  0
 16 17  1  0  0  0  0
 14 15  2  0  0  0  0
 14 16  1  0  0  0  0
 11 12  1  0  0  0  0
 11 13  1  0  0  0  0
 11 14  1  0  0  0  0
  9 10  1  0  0  0  0
  9 11  1  0  0  0  0
  9 18  1  0  0  0  0
  7  8  1  0  0  0  0
  7  9  1  0  0  0  0
 22 23  1  0  0  0  0
 22 24  1  0  0  0  0
 22 25  1  0  0  0  0
 20 21  1  0  0  0  0
 20 22  1  0  0  0  0
M  END
$$$$
default_name
  -OEChem-01062215323D

 25 24  0     1  0  0  0  0  0999 V2000
   -2.7826   -3.8464    0.7821 H   0  0  0  0  0  0  0  0  0  0  0  0
   -2.8156   -2.8034    0.4711 C   0  0  0  0  0  0  0  0  0  0  0  0
   -3.4336   -2.2354    1.1641 H   0  0  0  0  0  0  0  0  0  0  0  0
   -3.2256   -2.7344   -0.5349 H   0  0  0  0  0  0  0  0  0  0  0  0
   -1.4126   -2.2444    0.4801 C   0  0  0  0  0  0  0  0  0  0  0  0
   -0.4686   -2.9534    0.8001 O   0  0  0  0  0  0  0  0  0  0  0  0
   -1.2736   -0.9704    0.1241 N   0  0  0  0  0  0  0  0  0  0  0  0
   -2.0996   -0.4354   -0.1019 H   0  0  0  0  0  0  0  0  0  0  0  0
   -0.0016   -0.2394    0.1271 C   0  0  1  0  0  0  0  0  0  0  0  0
   -0.2148    0.8268    0.0238 H   0  0  0  0  0  0  0  0  0  0  0  0
    0.7199   -0.4745    1.4688 C   0  0  0  0  0  0  0  0  0  0  0  0
    0.7600   -1.5445    1.6768 H   0  0  0  0  0  0  0  0  0  0  0  0
    1.7447   -0.1072    1.4040 H   0  0  0  0  0  0  0  0  0  0  0  0
    0.0243    0.1851    2.6558 C   0  0  0  0  0  0  0  0  0  0  0  0
   -0.6564    1.2013    2.6080 O   0  0  0  0  0  0  0  0  0  0  0  0
    0.2108   -0.4355    3.8356 O   0  0  0  0  0  0  0  0  0  0  0  0
   -0.2904    0.0670    4.4786 H   0  0  0  0  0  0  0  0  0  0  0  0
    0.8636   -0.6773   -1.0715 C   0  0  0  0  0  0  0  0  0  0  0  0
    0.7684   -1.8235   -1.5081 O   0  0  0  0  0  0  0  0  0  0  0  0
    1.7069    0.2188   -1.5965 N   0  0  0  0  0  0  0  0  0  0  0  0
    1.7722    1.1224   -1.1392 H   0  0  0  0  0  0  0  0  0  0  0  0
    2.5854   -0.0425   -2.7346 C   0  0  0  0  0  0  0  0  0  0  0  0
    2.0031   -0.4486   -3.5646 H   0  0  0  0  0  0  0  0  0  0  0  0
    3.0707    0.8808   -3.0536 H   0  0  0  0  0  0  0  0  0  0  0  0
    3.3467   -0.7720   -2.4527 H   0  0  0  0  0  0  0  0  0  0  0  0
  5  6  2  0  0  0  0
  5  7  1  0  0  0  0
  2  3  1  0  0  0  0
  2  4  1  0  0  0  0
  2  5  1  0  0  0  0
  1  2  1  0  0  0  0
 18 19  2  0  0  0  0
 18 20  1  0  0  0  0
 16 17  1  0  0  0  0
 14 15  2  0  0  0  0
 14 16  1  0  0  0  0
 11 12  1  0  0  0  0
 11 13  1  0  0  0  0
 11 14  1  0  0  0  0
  9 10  1  0  0  0  0
  9 11  1  0  0  0  0
  9 18  1  0  0  0  0
  7  8  1  0  0  0  0
  7  9  1  0  0  0  0
 22 23  1  0  0  0  0
 22 24  1  0  0  0  0
 22 25  1  0  0  0  0
 20 21  1  0  0  0  0
 20 22  1  0  0  0  0
M  END
$$$$
default_name
  -OEChem-01062215323D

 25 24  0     1  0  0  0  0  0999 V2000
   -2.7826   -3.8464    0.7821 H   0  0  0  0  0  0  0  0  0  0  0  0
   -2.8156   -2.8034    0.4711 C   0  0  0  0  0  0  0  0  0  0  0  0
   -3.4336   -2.2354    1.1641 H   0  0  0  0  0  0  0  0  0  0  0  0
   -3.2256   -2.7344   -0.5349 H   0  0  0  0  0  0  0  0  0  0  0  0
   -1.4126   -2.2444    0.4801 C   0  0  0  0  0  0  0  0  0  0  0  0
   -0.4686   -2.9534    0.8001 O   0  0  0  0  0  0  0  0  0  0  0  0
   -1.2736   -0.9704    0.1241 N   0  0  0  0  0  0  0  0  0  0  0  0
   -2.0996   -0.4354   -0.1019 H   0  0  0  0  0  0  0  0  0  0  0  0
   -0.0016   -0.2394    0.1271 C   0  0  1  0  0  0  0  0  0  0  0  0
   -0.2148    0.8268    0.0238 H   0  0  0  0  0  0  0  0  0  0  0  0
    0.7199   -0.4745    1.4688 C   0  0  0  0  0  0  0  0  0  0  0  0
    0.7600   -1.5445    1.6768 H   0  0  0  0  0  0  0  0  0  0  0  0
    1.7447   -0.1072    1.4040 H   0  0  0  0  0  0  0  0  0  0  0  0
    0.0243    0.1851    2.6558 C   0  0  0  0  0  0  0  0  0  0  0  0
   -0.6564    1.2013    2.6080 O   0  0  0  0  0  0  0  0  0  0  0  0
    0.2108   -0.4355    3.8356 O   0  0  0  0  0  0  0  0  0  0  0  0
   -0.2904    0.0670    4.4786 H   0  0  0  0  0  0  0  0  0  0  0  0
    0.8636   -0.6773   -1.0715 C   0  0  0  0  0  0  0  0  0  0  0  0
    0.5848   -1.7078   -1.6829 O   0  0  0  0  0  0  0  0  0  0  0  0
    1.9090    0.0888   -1.4030 N   0  0  0  0  0  0  0  0  0  0  0  0
    2.1093    0.8876   -0.8100 H   0  0  0  0  0  0  0  0  0  0  0  0
    2.8165   -0.1891   -2.5143 C   0  0  0  0  0  0  0  0  0  0  0  0
    2.2416   -0.3478   -3.4292 H   0  0  0  0  0  0  0  0  0  0  0  0
    3.4994    0.6489   -2.6594 H   0  0  0  0  0  0  0  0  0  0  0  0
    3.3923   -1.0919   -2.3030 H   0  0  0  0  0  0  0  0  0  0  0  0
  5  6  2  0  0  0  0
  5  7  1  0  0  0  0
  2  3  1  0  0  0  0
  2  4  1  0  0  0  0
  2  5  1  0  0  0  0
  1  2  1  0  0  0  0
 18 19  2  0  0  0  0
 18 20  1  0  0  0  0
 16 17  1  0  0  0  0
 14 15  2  0  0  0  0
 14 16  1  0  0  0  0
 11 12  1  0  0  0  0
 11 13  1  0  0  0  0
 11 14  1  0  0  0  0
  9 10  1  0  0  0  0
  9 11  1  0  0  0  0
  9 18  1  0  0  0  0
  7  8  1  0  0  0  0
  7  9  1  0  0  0  0
 22 23  1  0  0  0  0
 22 24  1  0  0  0  0
 22 25  1  0  0  0  0
 20 21  1  0  0  0  0
 20 22  1  0  0  0  0
M  END
$$$$
default_name
  -OEChem-01062215323D

 25 24  0     1  0  0  0  0  0999 V2000
   -2.7826   -3.8464    0.7821 H   0  0  0  0  0  0  0  0  0  0  0  0
   -2.8156   -2.8034    0.4711 C   0  0  0  0  0  0  0  0  0  0  0  0
   -3.4336   -2.2354    1.1641 H   0  0  0  0  0  0  0  0  0  0  0  0
   -3.2256   -2.7344   -0.5349 H   0  0  0  0  0  0  0  0  0  0  0  0
   -1.4126   -2.2444    0.4801 C   0  0  0  0  0  0  0  0  0  0  0  0
   -0.4686   -2.9534    0.8001 O   0  0  0  0  0  0  0  0  0  0  0  0
   -1.2736   -0.9704    0.1241 N   0  0  0  0  0  0  0  0  0  0  0  0
   -2.0996   -0.4354   -0.1019 H   0  0  0  0  0  0  0  0  0  0  0  0
   -0.0016   -0.2394    0.1271 C   0  0  1  0  0  0  0  0  0  0  0  0
   -0.2112    0.8195    0.2941 H   0  0  0  0  0  0  0  0  0  0  0  0
    0.8836   -0.7586    1.2773 C   0  0  0  0  0  0  0  0  0  0  0  0
    0.9350   -1.8471    1.2329 H   0  0  0  0  0  0  0  0  0  0  0  0
    1.8966   -0.3705    1.1650 H   0  0  0  0  0  0  0  0  0  0  0  0
    0.3564   -0.3927    2.6615 C   0  0  0  0  0  0  0  0  0  0  0  0
   -0.3103    0.5977    2.9312 O   0  0  0  0  0  0  0  0  0  0  0  0
    0.6847   -1.2593    3.6378 O   0  0  0  0  0  0  0  0  0  0  0  0
    0.2778   -0.9216    4.4363 H   0  0  0  0  0  0  0  0  0  0  0  0
    0.6955   -0.3839   -1.2404 C   0  0  0  0  0  0  0  0  0  0  0  0
    0.1666   -1.0505   -2.1290 O   0  0  0  0  0  0  0  0  0  0  0  0
    1.8745    0.2248   -1.4105 N   0  0  0  0  0  0  0  0  0  0  0  0
    2.2735    0.7021   -0.6088 H   0  0  0  0  0  0  0  0  0  0  0  0
    2.6523    0.1867   -2.6471 C   0  0  0  0  0  0  0  0  0  0  0  0
    2.0223    0.4831   -3.4885 H   0  0  0  0  0  0  0  0  0  0  0  0
    3.5021    0.8669   -2.5768 H   0  0  0  0  0  0  0  0  0  0  0  0
    3.0151   -0.8275   -2.8232 H   0  0  0  0  0  0  0  0  0  0  0  0
  5  6  2  0  0  0  0
  5  7  1  0  0  0  0
  2  3  1  0  0  0  0
  2  4  1  0  0  0  0
  2  5  1  0  0  0  0
  1  2  1  0  0  0  0
 18 19  2  0  0  0  0
 18 20  1  0  0  0  0
 16 17  1  0  0  0  0
 14 15  2  0  0  0  0
 14 16  1  0  0  0  0
 11 12  1  0  0  0  0
 11 13  1  0  0  0  0
 11 14  1  0  0  0  0
  9 10  1  0  0  0  0
  9 11  1  0  0  0  0
  9 18  1  0  0  0  0
  7  8  1  0  0  0  0
  7  9  1  0  0  0  0
 22 23  1  0  0  0  0
 22 24  1  0  0  0  0
 22 25  1  0  0  0  0
 20 21  1  0  0  0  0
 20 22  1  0  0  0  0
M  END
$$$$
default_name
  -OEChem-01062215323D

 25 24  0     1  0  0  0  0  0999 V2000
   -2.7826   -3.8464    0.7821 H   0  0  0  0  0  0  0  0  0  0  0  0
   -2.8156   -2.8034    0.4711 C   0  0  0  0  0  0  0  0  0  0  0  0
   -3.4336   -2.2354    1.1641 H   0  0  0  0  0  0  0  0  0  0  0  0
   -3.2256   -2.7344   -0.5349 H   0  0  0  0  0  0  0  0  0  0  0  0
   -1.4126   -2.2444    0.4801 C   0  0  0  0  0  0  0  0  0  0  0  0
   -0.4686   -2.9534    0.8001 O   0  0  0  0  0  0  0  0  0  0  0  0
   -1.2736   -0.9704    0.1241 N   0  0  0  0  0  0  0  0  0  0  0  0
   -2.0996   -0.4354   -0.1019 H   0  0  0  0  0  0  0  0  0  0  0  0
   -0.0016   -0.2394    0.1271 C   0  0  1  0  0  0  0  0  0  0  0  0
   -0.2112    0.8195    0.2941 H   0  0  0  0  0  0  0  0  0  0  0  0
    0.8836   -0.7586    1.2773 C   0  0  0  0  0  0  0  0  0  0  0  0
    0.9350   -1.8471    1.2329 H   0  0  0  0  0  0  0  0  0  0  0  0
    1.8966   -0.3705    1.1650 H   0  0  0  0  0  0  0  0  0  0  0  0
    0.3564   -0.3927    2.6615 C   0  0  0  0  0  0  0  0  0  0  0  0
   -0.3103    0.5977    2.9312 O   0  0  0  0  0  0  0  0  0  0  0  0
    0.6847   -1.2593    3.6378 O   0  0  0  0  0  0  0  0  0  0  0  0
    0.2778   -0.9216    4.4363 H   0  0  0  0  0  0  0  0  0  0  0  0
    0.6955   -0.3839   -1.2404 C   0  0  0  0  0  0  0  0  0  0  0  0
    0.0626   -0.8044   -2.2080 O   0  0  0  0  0  0  0  0  0  0  0  0
    1.9879   -0.0487   -1.3238 N   0  0  0  0  0  0  0  0  0  0  0  0
    2.4546    0.2288   -0.4665 H   0  0  0  0  0  0  0  0  0  0  0  0
    2.7828   -0.1241   -2.5477 C   0  0  0  0  0  0  0  0  0  0  0  0
    2.2694    0.4041   -3.3542 H   0  0  0  0  0  0  0  0  0  0  0  0
    3.7620    0.3289   -2.3874 H   0  0  0  0  0  0  0  0  0  0  0  0
    2.9111   -1.1677   -2.8403 H   0  0  0  0  0  0  0  0  0  0  0  0
  5  6  2  0  0  0  0
  5  7  1  0  0  0  0
  2  3  1  0  0  0  0
  2  4  1  0  0  0  0
  2  5  1  0  0  0  0
  1  2  1  0  0  0  0
 18 19  2  0  0  0  0
 18 20  1  0  0  0  0
 16 17  1  0  0  0  0
 14 15  2  0  0  0  0
 14 16  1  0  0  0  0
 11 12  1  0  0  0  0
 11 13  1  0  0  0  0
 11 14  1  0  0  0  0
  9 10  1  0  0  0  0
  9 11  1  0  0  0  0
  9 18  1  0  0  0  0
  7  8  1  0  0  0  0
  7  9  1  0  0  0  0
 22 23  1  0  0  0  0
 22 24  1  0  0  0  0
 22 25  1  0  0  0  0
 20 21  1  0  0  0  0
 20 22  1  0  0  0  0
M  END
$$$$
default_name
  -OEChem-01062215323D

 25 24  0     1  0  0  0  0  0999 V2000
   -2.7826   -3.8464    0.7821 H   0  0  0  0  0  0  0  0  0  0  0  0
   -2.8156   -2.8034    0.4711 C   0  0  0  0  0  0  0  0  0  0  0  0
   -3.4336   -2.2354    1.1641 H   0  0  0  0  0  0  0  0  0  0  0  0
   -3.2256   -2.7344   -0.5349 H   0  0  0  0  0  0  0  0  0  0  0  0
   -1.4126   -2.2444    0.4801 C   0  0  0  0  0  0  0  0  0  0  0  0
   -0.4686   -2.9534    0.8001 O   0  0  0  0  0  0  0  0  0  0  0  0
   -1.2736   -0.9704    0.1241 N   0  0  0  0  0  0  0  0  0  0  0  0
   -2.0996   -0.4354   -0.1019 H   0  0  0  0  0  0  0  0  0  0  0  0
   -0.0016   -0.2394    0.1271 C   0  0  1  0  0  0  0  0  0  0  0  0
   -0.2112    0.8195    0.2941 H   0  0  0  0  0  0  0  0  0  0  0  0
    0.8836   -0.7586    1.2773 C   0  0  0  0  0  0  0  0  0  0  0  0
    0.9350   -1.8471    1.2329 H   0  0  0  0  0  0  0  0  0  0  0  0
    1.8966   -0.3705    1.1650 H   0  0  0  0  0  0  0  0  0  0  0  0
    0.3564   -0.3927    2.6615 C   0  0  0  0  0  0  0  0  0  0  0  0
   -0.3103    0.5977    2.9312 O   0  0  0  0  0  0  0  0  0  0  0  0
    0.6847   -1.2593    3.6378 O   0  0  0  0  0  0  0  0  0  0  0  0
    0.2778   -0.9216    4.4363 H   0  0  0  0  0  0  0  0  0  0  0  0
    0.6955   -0.3839   -1.2404 C   0  0  0  0  0  0  0  0  0  0  0  0
    0.0205   -0.5335   -2.2581 O   0  0  0  0  0  0  0  0  0  0  0  0
    2.0325   -0.3491   -1.2694 N   0  0  0  0  0  0  0  0  0  0  0  0
    2.5173   -0.2867   -0.3800 H   0  0  0  0  0  0  0  0  0  0  0  0
    2.8351   -0.4658   -2.4850 C   0  0  0  0  0  0  0  0  0  0  0  0
    2.4867    0.2552   -3.2277 H   0  0  0  0  0  0  0  0  0  0  0  0
    3.8850   -0.2727   -2.2612 H   0  0  0  0  0  0  0  0  0  0  0  0
    2.7329   -1.4704   -2.8991 H   0  0  0  0  0  0  0  0  0  0  0  0
  5  6  2  0  0  0  0
  5  7  1  0  0  0  0
  2  3  1  0  0  0  0
  2  4  1  0  0  0  0
  2  5  1  0  0  0  0
  1  2  1  0  0  0  0
 18 19  2  0  0  0  0
 18 20  1  0  0  0  0
 16 17  1  0  0  0  0
 14 15  2  0  0  0  0
 14 16  1  0  0  0  0
 11 12  1  0  0  0  0
 11 13  1  0  0  0  0
 11 14  1  0  0  0  0
  9 10  1  0  0  0  0
  9 11  1  0  0  0  0
  9 18  1  0  0  0  0
  7  8  1  0  0  0  0
  7  9  1  0  0  0  0
 22 23  1  0  0  0  0
 22 24  1  0  0  0  0
 22 25  1  0  0  0  0
 20 21  1  0  0  0  0
 20 22  1  0  0  0  0
M  END
$$$$
default_name
  -OEChem-01062215323D

 25 24  0     1  0  0  0  0  0999 V2000
   -2.7826   -3.8464    0.7821 H   0  0  0  0  0  0  0  0  0  0  0  0
   -2.8156   -2.8034    0.4711 C   0  0  0  0  0  0  0  0  0  0  0  0
   -3.4336   -2.2354    1.1641 H   0  0  0  0  0  0  0  0  0  0  0  0
   -3.2256   -2.7344   -0.5349 H   0  0  0  0  0  0  0  0  0  0  0  0
   -1.4126   -2.2444    0.4801 C   0  0  0  0  0  0  0  0  0  0  0  0
   -0.4686   -2.9534    0.8001 O   0  0  0  0  0  0  0  0  0  0  0  0
   -1.2736   -0.9704    0.1241 N   0  0  0  0  0  0  0  0  0  0  0  0
   -2.0996   -0.4354   -0.1019 H   0  0  0  0  0  0  0  0  0  0  0  0
   -0.0016   -0.2394    0.1271 C   0  0  1  0  0  0  0  0  0  0  0  0
   -0.2112    0.8195    0.2941 H   0  0  0  0  0  0  0  0  0  0  0  0
    0.8836   -0.7586    1.2773 C   0  0  0  0  0  0  0  0  0  0  0  0
    0.9350   -1.8471    1.2329 H   0  0  0  0  0  0  0  0  0  0  0  0
    1.8966   -0.3705    1.1650 H   0  0  0  0  0  0  0  0  0  0  0  0
    0.3564   -0.3927    2.6615 C   0  0  0  0  0  0  0  0  0  0  0  0
   -0.3103    0.5977    2.9312 O   0  0  0  0  0  0  0  0  0  0  0  0
    0.6847   -1.2593    3.6378 O   0  0  0  0  0  0  0  0  0  0  0  0
    0.2778   -0.9216    4.4363 H   0  0  0  0  0  0  0  0  0  0  0  0
    0.6955   -0.3839   -1.2404 C   0  0  0  0  0  0  0  0  0  0  0  0
    0.0433   -0.2563   -2.2758 O   0  0  0  0  0  0  0  0  0  0  0  0
    2.0053   -0.6558   -1.2508 N   0  0  0  0  0  0  0  0  0  0  0  0
    2.4575   -0.8091   -0.3553 H   0  0  0  0  0  0  0  0  0  0  0  0
    2.8056   -0.8152   -2.4631 C   0  0  0  0  0  0  0  0  0  0  0  0
    2.6593    0.0468   -3.1177 H   0  0  0  0  0  0  0  0  0  0  0  0
    3.8626   -0.8967   -2.2066 H   0  0  0  0  0  0  0  0  0  0  0  0
    2.4927   -1.7149   -2.9957 H   0  0  0  0  0  0  0  0  0  0  0  0
  5  6  2  0  0  0  0
  5  7  1  0  0  0  0
  2  3  1  0  0  0  0
  2  4  1  0  0  0  0
  2  5  1  0  0  0  0
  1  2  1  0  0  0  0
 18 19  2  0  0  0  0
 18 20  1  0  0  0  0
 16 17  1  0  0  0  0
 14 15  2  0  0  0  0
 14 16  1  0  0  0  0
 11 12  1  0  0  0  0
 11 13  1  0  0  0  0
 11 14  1  0  0  0  0
  9 10  1  0  0  0  0
  9 11  1  0  0  0  0
  9 18  1  0  0  0  0
  7  8  1  0  0  0  0
  7  9  1  0  0  0  0
 22 23  1  0  0  0  0
 22 24  1  0  0  0  0
 22 25  1  0  0  0  0
 20 21  1  0  0  0  0
 20 22  1  0  0  0  0
M  END
$$$$
default_name
  -OEChem-01062215323D

 25 24  0     1  0  0  0  0  0999 V2000
   -2.7826   -3.8464    0.7821 H   0  0  0  0  0  0  0  0  0  0  0  0
   -2.8156   -2.8034    0.4711 C   0  0  0  0  0  0  0  0  0  0  0  0
   -3.4336   -2.2354    1.1641 H   0  0  0  0  0  0  0  0  0  0  0  0
   -3.2256   -2.7344   -0.5349 H   0  0  0  0  0  0  0  0  0  0  0  0
   -1.4126   -2.2444    0.4801 C   0  0  0  0  0  0  0  0  0  0  0  0
   -0.4686   -2.9534    0.8001 O   0  0  0  0  0  0  0  0  0  0  0  0
   -1.2736   -0.9704    0.1241 N   0  0  0  0  0  0  0  0  0  0  0  0
   -2.0996   -0.4354   -0.1019 H   0  0  0  0  0  0  0  0  0  0  0  0
   -0.0016   -0.2394    0.1271 C   0  0  1  0  0  0  0  0  0  0  0  0
   -0.2112    0.8195    0.2941 H   0  0  0  0  0  0  0  0  0  0  0  0
    0.8836   -0.7586    1.2773 C   0  0  0  0  0  0  0  0  0  0  0  0
    0.9350   -1.8471    1.2329 H   0  0  0  0  0  0  0  0  0  0  0  0
    1.8966   -0.3705    1.1650 H   0  0  0  0  0  0  0  0  0  0  0  0
    0.3564   -0.3927    2.6615 C   0  0  0  0  0  0  0  0  0  0  0  0
   -0.3103    0.5977    2.9312 O   0  0  0  0  0  0  0  0  0  0  0  0
    0.6847   -1.2593    3.6378 O   0  0  0  0  0  0  0  0  0  0  0  0
    0.2778   -0.9216    4.4363 H   0  0  0  0  0  0  0  0  0  0  0  0
    0.6955   -0.3839   -1.2404 C   0  0  0  0  0  0  0  0  0  0  0  0
    0.1294    0.0083   -2.2599 O   0  0  0  0  0  0  0  0  0  0  0  0
    1.9081   -0.9480   -1.2695 N   0  0  0  0  0  0  0  0  0  0  0  0
    2.2791   -1.3029   -0.3941 H   0  0  0  0  0  0  0  0  0  0  0  0
    2.6964   -1.1485   -2.4835 C   0  0  0  0  0  0  0  0  0  0  0  0
    2.7755   -0.2071   -3.0316 H   0  0  0  0  0  0  0  0  0  0  0  0
    3.6965   -1.5007   -2.2275 H   0  0  0  0  0  0  0  0  0  0  0  0
    2.2069   -1.8847   -3.1234 H   0  0  0  0  0  0  0  0  0  0  0  0
  5  6  2  0  0  0  0
  5  7  1  0  0  0  0
  2  3  1  0  0  0  0
  2  4  1  0  0  0  0
  2  5  1  0  0  0  0
  1  2  1  0  0  0  0
 18 19  2  0  0  0  0
 18 20  1  0  0  0  0
 16 17  1  0  0  0  0
 14 15  2  0  0  0  0
 14 16  1  0  0  0  0
 11 12  1  0  0  0  0
 11 13  1  0  0  0  0
 11 14  1  0  0  0  0
  9 10  1  0  0  0  0
  9 11  1  0  0  0  0
  9 18  1  0  0  0  0
  7  8  1  0  0  0  0
  7  9  1  0  0  0  0
 22 23  1  0  0  0  0
 22 24  1  0  0  0  0
 22 25  1  0  0  0  0
 20 21  1  0  0  0  0
 20 22  1  0  0  0  0
M  END
$$$$
default_name
  -OEChem-01062215323D

 25 24  0     1  0  0  0  0  0999 V2000
   -2.7826   -3.8464    0.7821 H   0  0  0  0  0  0  0  0  0  0  0  0
   -2.8156   -2.8034    0.4711 C   0  0  0  0  0  0  0  0  0  0  0  0
   -3.4336   -2.2354    1.1641 H   0  0  0  0  0  0  0  0  0  0  0  0
   -3.2256   -2.7344   -0.5349 H   0  0  0  0  0  0  0  0  0  0  0  0
   -1.4126   -2.2444    0.4801 C   0  0  0  0  0  0  0  0  0  0  0  0
   -0.4686   -2.9534    0.8001 O   0  0  0  0  0  0  0  0  0  0  0  0
   -1.2736   -0.9704    0.1241 N   0  0  0  0  0  0  0  0  0  0  0  0
   -2.0996   -0.4354   -0.1019 H   0  0  0  0  0  0  0  0  0  0  0  0
   -0.0016   -0.2394    0.1271 C   0  0  1  0  0  0  0  0  0  0  0  0
   -0.2112    0.8195    0.2941 H   0  0  0  0  0  0  0  0  0  0  0  0
    0.8836   -0.7586    1.2773 C   0  0  0  0  0  0  0  0  0  0  0  0
    0.9350   -1.8471    1.2329 H   0  0  0  0  0  0  0  0  0  0  0  0
    1.8966   -0.3705    1.1650 H   0  0  0  0  0  0  0  0  0  0  0  0
    0.3564   -0.3927    2.6615 C   0  0  0  0  0  0  0  0  0  0  0  0
   -0.3103    0.5977    2.9312 O   0  0  0  0  0  0  0  0  0  0  0  0
    0.6847   -1.2593    3.6378 O   0  0  0  0  0  0  0  0  0  0  0  0
    0.2778   -0.9216    4.4363 H   0  0  0  0  0  0  0  0  0  0  0  0
    0.6955   -0.3839   -1.2404 C   0  0  0  0  0  0  0  0  0  0  0  0
    0.2729    0.2422   -2.2114 O   0  0  0  0  0  0  0  0  0  0  0  0
    1.7477   -1.2058   -1.3240 N   0  0  0  0  0  0  0  0  0  0  0  0
    1.9945   -1.7344   -0.4936 H   0  0  0  0  0  0  0  0  0  0  0  0
    2.5149   -1.4429   -2.5449 C   0  0  0  0  0  0  0  0  0  0  0  0
    2.8274   -0.4891   -2.9754 H   0  0  0  0  0  0  0  0  0  0  0  0
    3.3978   -2.0435   -2.3224 H   0  0  0  0  0  0  0  0  0  0  0  0
    1.8950   -1.9682   -3.2736 H   0  0  0  0  0  0  0  0  0  0  0  0
  5  6  2  0  0  0  0
  5  7  1  0  0  0  0
  2  3  1  0  0  0  0
  2  4  1  0  0  0  0
  2  5  1  0  0  0  0
  1  2  1  0  0  0  0
 18 19  2  0  0  0  0
 18 20  1  0  0  0  0
 16 17  1  0  0  0  0
 14 15  2  0  0  0  0
 14 16  1  0  0  0  0
 11 12  1  0  0  0  0
 11 13  1  0  0  0  0
 11 14  1  0  0  0  0
  9 10  1  0  0  0  0
  9 11  1  0  0  0  0
  9 18  1  0  0  0  0
  7  8  1  0  0  0  0
  7  9  1  0  0  0  0
 22 23  1  0  0  0  0
 22 24  1  0  0  0  0
 22 25  1  0  0  0  0
 20 21  1  0  0  0  0
 20 22  1  0  0  0  0
M  END
$$$$
default_name
  -OEChem-01062215323D

 25 24  0     1  0  0  0  0  0999 V2000
   -2.7826   -3.8464    0.7821 H   0  0  0  0  0  0  0  0  0  0  0  0
   -2.8156   -2.8034    0.4711 C   0  0  0  0  0  0  0  0  0  0  0  0
   -3.4336   -2.2354    1.1641 H   0  0  0  0  0  0  0  0  0  0  0  0
   -3.2256   -2.7344   -0.5349 H   0  0  0  0  0  0  0  0  0  0  0  0
   -1.4126   -2.2444    0.4801 C   0  0  0  0  0  0  0  0  0  0  0  0
   -0.4686   -2.9534    0.8001 O   0  0  0  0  0  0  0  0  0  0  0  0
   -1.2736   -0.9704    0.1241 N   0  0  0  0  0  0  0  0  0  0  0  0
   -2.0996   -0.4354   -0.1019 H   0  0  0  0  0  0  0  0  0  0  0  0
   -0.0016   -0.2394    0.1271 C   0  0  1  0  0  0  0  0  0  0  0  0
   -0.2112    0.8195    0.2941 H   0  0  0  0  0  0  0  0  0  0  0  0
    0.8836   -0.7586    1.2773 C   0  0  0  0  0  0  0  0  0  0  0  0
    0.9350   -1.8471    1.2329 H   0  0  0  0  0  0  0  0  0  0  0  0
    1.8966   -0.3705    1.1650 H   0  0  0  0  0  0  0  0  0  0  0  0
    0.3564   -0.3927    2.6615 C   0  0  0  0  0  0  0  0  0  0  0  0
   -0.3103    0.5977    2.9312 O   0  0  0  0  0  0  0  0  0  0  0  0
    0.6847   -1.2593    3.6378 O   0  0  0  0  0  0  0  0  0  0  0  0
    0.2778   -0.9216    4.4363 H   0  0  0  0  0  0  0  0  0  0  0  0
    0.6955   -0.3839   -1.2404 C   0  0  0  0  0  0  0  0  0  0  0  0
    0.4640    0.4296   -2.1338 O   0  0  0  0  0  0  0  0  0  0  0  0
    1.5348   -1.4116   -1.4108 N   0  0  0  0  0  0  0  0  0  0  0  0
    1.6229   -2.0741   -0.6471 H   0  0  0  0  0  0  0  0  0  0  0  0
    2.2735   -1.6785   -2.6431 C   0  0  0  0  0  0  0  0  0  0  0  0
    2.8115   -0.7799   -2.9528 H   0  0  0  0  0  0  0  0  0  0  0  0
    2.9870   -2.4882   -2.4848 H   0  0  0  0  0  0  0  0  0  0  0  0
    1.5782   -1.9596   -3.4360 H   0  0  0  0  0  0  0  0  0  0  0  0
  5  6  2  0  0  0  0
  5  7  1  0  0  0  0
  2  3  1  0  0  0  0
  2  4  1  0  0  0  0
  2  5  1  0  0  0  0
  1  2  1  0  0  0  0
 18 19  2  0  0  0  0
 18 20  1  0  0  0  0
 16 17  1  0  0  0  0
 14 15  2  0  0  0  0
 14 16  1  0  0  0  0
 11 12  1  0  0  0  0
 11 13  1  0  0  0  0
 11 14  1  0  0  0  0
  9 10  1  0  0  0  0
  9 11  1  0  0  0  0
  9 18  1  0  0  0  0
  7  8  1  0  0  0  0
  7  9  1  0  0  0  0
 22 23  1  0  0  0  0
 22 24  1  0  0  0  0
 22 25  1  0  0  0  0
 20 21  1  0  0  0  0
 20 22  1  0  0  0  0
M  END
$$$$
default_name
  -OEChem-01062215323D

 25 24  0     1  0  0  0  0  0999 V2000
   -2.7826   -3.8464    0.7821 H   0  0  0  0  0  0  0  0  0  0  0  0
   -2.8156   -2.8034    0.4711 C   0  0  0  0  0  0  0  0  0  0  0  0
   -3.4336   -2.2354    1.1641 H   0  0  0  0  0  0  0  0  0  0  0  0
   -3.2256   -2.7344   -0.5349 H   0  0  0  0  0  0  0  0  0  0  0  0
   -1.4126   -2.2444    0.4801 C   0  0  0  0  0  0  0  0  0  0  0  0
   -0.4686   -2.9534    0.8001 O   0  0  0  0  0  0  0  0  0  0  0  0
   -1.2736   -0.9704    0.1241 N   0  0  0  0  0  0  0  0  0  0  0  0
   -2.0996   -0.4354   -0.1019 H   0  0  0  0  0  0  0  0  0  0  0  0
   -0.0016   -0.2394    0.1271 C   0  0  1  0  0  0  0  0  0  0  0  0
   -0.2112    0.8195    0.2941 H   0  0  0  0  0  0  0  0  0  0  0  0
    0.8836   -0.7586    1.2773 C   0  0  0  0  0  0  0  0  0  0  0  0
    0.9350   -1.8471    1.2329 H   0  0  0  0  0  0  0  0  0  0  0  0
    1.8966   -0.3705    1.1650 H   0  0  0  0  0  0  0  0  0  0  0  0
    0.3564   -0.3927    2.6615 C   0  0  0  0  0  0  0  0  0  0  0  0
   -0.3103    0.5977    2.9312 O   0  0  0  0  0  0  0  0  0  0  0  0
    0.6847   -1.2593    3.6378 O   0  0  0  0  0  0  0  0  0  0  0  0
    0.2778   -0.9216    4.4363 H   0  0  0  0  0  0  0  0  0  0  0  0
    0.6955   -0.3839   -1.2404 C   0  0  0  0  0  0  0  0  0  0  0  0
    0.6897    0.5576   -2.0323 O   0  0  0  0  0  0  0  0  0  0  0  0
    1.2841   -1.5514   -1.5238 N   0  0  0  0  0  0  0  0  0  0  0  0
    1.1897   -2.2990   -0.8442 H   0  0  0  0  0  0  0  0  0  0  0  0
    1.9886   -1.8392   -2.7714 C   0  0  0  0  0  0  0  0  0  0  0  0
    2.7287   -1.0598   -2.9654 H   0  0  0  0  0  0  0  0  0  0  0  0
    2.4920   -2.8044   -2.7037 H   0  0  0  0  0  0  0  0  0  0  0  0
    1.2781   -1.8596   -3.5996 H   0  0  0  0  0  0  0  0  0  0  0  0
  5  6  2  0  0  0  0
  5  7  1  0  0  0  0
  2  3  1  0  0  0  0
  2  4  1  0  0  0  0
  2  5  1  0  0  0  0
  1  2  1  0  0  0  0
 18 19  2  0  0  0  0
 18 20  1  0  0  0  0
 16 17  1  0  0  0  0
 14 15  2  0  0  0  0
 14 16  1  0  0  0  0
 11 12  1  0  0  0  0
 11 13  1  0  0  0  0
 11 14  1  0  0  0  0
  9 10  1  0  0  0  0
  9 11  1  0  0  0  0
  9 18  1  0  0  0  0
  7  8  1  0  0  0  0
  7  9  1  0  0  0  0
 22 23  1  0  0  0  0
 22 24  1  0  0  0  0
 22 25  1  0  0  0  0
 20 21  1  0  0  0  0
 20 22  1  0  0  0  0
M  END
$$$$
default_name
  -OEChem-01062215323D

 25 24  0     1  0  0  0  0  0999 V2000
   -2.7826   -3.8464    0.7821 H   0  0  0  0  0  0  0  0  0  0  0  0
   -2.8156   -2.8034    0.4711 C   0  0  0  0  0  0  0  0  0  0  0  0
   -3.4336   -2.2354    1.1641 H   0  0  0  0  0  0  0  0  0  0  0  0
   -3.2256   -2.7344   -0.5349 H   0  0  0  0  0  0  0  0  0  0  0  0
   -1.4126   -2.2444    0.4801 C   0  0  0  0  0  0  0  0  0  0  0  0
   -0.4686   -2.9534    0.8001 O   0  0  0  0  0  0  0  0  0  0  0  0
   -1.2736   -0.9704    0.1241 N   0  0  0  0  0  0  0  0  0  0  0  0
   -2.0996   -0.4354   -0.1019 H   0  0  0  0  0  0  0  0  0  0  0  0
   -0.0016   -0.2394    0.1271 C   0  0  1  0  0  0  0  0  0  0  0  0
   -0.2112    0.8195    0.2941 H   0  0  0  0  0  0  0  0  0  0  0  0
    0.8836   -0.7586    1.2773 C   0  0  0  0  0  0  0  0  0  0  0  0
    0.9350   -1.8471    1.2329 H   0  0  0  0  0  0  0  0  0  0  0  0
    1.8966   -0.3705    1.1650 H   0  0  0  0  0  0  0  0  0  0  0  0
    0.3564   -0.3927    2.6615 C   0  0  0  0  0  0  0  0  0  0  0  0
   -0.3103    0.5977    2.9312 O   0  0  0  0  0  0  0  0  0  0  0  0
    0.6847   -1.2593    3.6378 O   0  0  0  0  0  0  0  0  0  0  0  0
    0.2778   -0.9216    4.4363 H   0  0  0  0  0  0  0  0  0  0  0  0
    0.6955   -0.3839   -1.2404 C   0  0  0  0  0  0  0  0  0  0  0  0
    0.9347    0.6176   -1.9137 O   0  0  0  0  0  0  0  0  0  0  0  0
    1.0126   -1.6156   -1.6554 N   0  0  0  0  0  0  0  0  0  0  0  0
    0.7243   -2.3938   -1.0714 H   0  0  0  0  0  0  0  0  0  0  0  0
    1.6796   -1.9139   -2.9210 C   0  0  0  0  0  0  0  0  0  0  0  0
    2.5848   -1.3097   -3.0123 H   0  0  0  0  0  0  0  0  0  0  0  0
    1.9466   -2.9706   -2.9642 H   0  0  0  0  0  0  0  0  0  0  0  0
    1.0151   -1.6750   -3.7531 H   0  0  0  0  0  0  0  0  0  0  0  0
  5  6  2  0  0  0  0
  5  7  1  0  0  0  0
  2  3  1  0  0  0  0
  2  4  1  0  0  0  0
  2  5  1  0  0  0  0
  1  2  1  0  0  0  0
 18 19  2  0  0  0  0
 18 20  1  0  0  0  0
 16 17  1  0  0  0  0
 14 15  2  0  0  0  0
 14 16  1  0  0  0  0
 11 12  1  0  0  0  0
 11 13  1  0  0  0  0
 11 14  1  0  0  0  0
  9 10  1  0  0  0  0
  9 11  1  0  0  0  0
  9 18  1  0  0  0  0
  7  8  1  0  0  0  0
  7  9  1  0  0  0  0
 22 23  1  0  0  0  0
 22 24  1  0  0  0  0
 22 25  1  0  0  0  0
 20 21  1  0  0  0  0
 20 22  1  0  0  0  0
M  END
$$$$
default_name
  -OEChem-01062215323D

 25 24  0     1  0  0  0  0  0999 V2000
   -2.7826   -3.8464    0.7821 H   0  0  0  0  0  0  0  0  0  0  0  0
   -2.8156   -2.8034    0.4711 C   0  0  0  0  0  0  0  0  0  0  0  0
   -3.4336   -2.2354    1.1641 H   0  0  0  0  0  0  0  0  0  0  0  0
   -3.2256   -2.7344   -0.5349 H   0  0  0  0  0  0  0  0  0  0  0  0
   -1.4126   -2.2444    0.4801 C   0  0  0  0  0  0  0  0  0  0  0  0
   -0.4686   -2.9534    0.8001 O   0  0  0  0  0  0  0  0  0  0  0  0
   -1.2736   -0.9704    0.1241 N   0  0  0  0  0  0  0  0  0  0  0  0
   -2.0996   -0.4354   -0.1019 H   0  0  0  0  0  0  0  0  0  0  0  0
   -0.0016   -0.2394    0.1271 C   0  0  1  0  0  0  0  0  0  0  0  0
   -0.2112    0.8195    0.2941 H   0  0  0  0  0  0  0  0  0  0  0  0
    0.8836   -0.7586    1.2773 C   0  0  0  0  0  0  0  0  0  0  0  0
    0.9350   -1.8471    1.2329 H   0  0  0  0  0  0  0  0  0  0  0  0
    1.8966   -0.3705    1.1650 H   0  0  0  0  0  0  0  0  0  0  0  0
    0.3564   -0.3927    2.6615 C   0  0  0  0  0  0  0  0  0  0  0  0
   -0.3103    0.5977    2.9312 O   0  0  0  0  0  0  0  0  0  0  0  0
    0.6847   -1.2593    3.6378 O   0  0  0  0  0  0  0  0  0  0  0  0
    0.2778   -0.9216    4.4363 H   0  0  0  0  0  0  0  0  0  0  0  0
    0.6955   -0.3839   -1.2404 C   0  0  0  0  0  0  0  0  0  0  0  0
    1.1823    0.6053   -1.7862 O   0  0  0  0  0  0  0  0  0  0  0  0
    0.7388   -1.5998   -1.7967 N   0  0  0  0  0  0  0  0  0  0  0  0
    0.2586   -2.3519   -1.3132 H   0  0  0  0  0  0  0  0  0  0  0  0
    1.3676   -1.8977   -3.0817 C   0  0  0  0  0  0  0  0  0  0  0  0
    2.3896   -1.5126   -3.0904 H   0  0  0  0  0  0  0  0  0  0  0  0
    1.3880   -2.9754   -3.2484 H   0  0  0  0  0  0  0  0  0  0  0  0
    0.8072   -1.4183   -3.8862 H   0  0  0  0  0  0  0  0  0  0  0  0
  5  6  2  0  0  0  0
  5  7  1  0  0  0  0
  2  3  1  0  0  0  0
  2  4  1  0  0  0  0
  2  5  1  0  0  0  0
  1  2  1  0  0  0  0
 18 19  2  0  0  0  0
 18 20  1  0  0  0  0
 16 17  1  0  0  0  0
 14 15  2  0  0  0  0
 14 16  1  0  0  0  0
 11 12  1  0  0  0  0
 11 13  1  0  0  0  0
 11 14  1  0  0  0  0
  9 10  1  0  0  0  0
  9 11  1  0  0  0  0
  9 18  1  0  0  0  0
  7  8  1  0  0  0  0
  7  9  1  0  0  0  0
 22 23  1  0  0  0  0
 22 24  1  0  0  0  0
 22 25  1  0  0  0  0
 20 21  1  0  0  0  0
 20 22  1  0  0  0  0
M  END
$$$$
default_name
  -OEChem-01062215323D

 25 24  0     1  0  0  0  0  0999 V2000
   -2.7826   -3.8464    0.7821 H   0  0  0  0  0  0  0  0  0  0  0  0
   -2.8156   -2.8034    0.4711 C   0  0  0  0  0  0  0  0  0  0  0  0
   -3.4336   -2.2354    1.1641 H   0  0  0  0  0  0  0  0  0  0  0  0
   -3.2256   -2.7344   -0.5349 H   0  0  0  0  0  0  0  0  0  0  0  0
   -1.4126   -2.2444    0.4801 C   0  0  0  0  0  0  0  0  0  0  0  0
   -0.4686   -2.9534    0.8001 O   0  0  0  0  0  0  0  0  0  0  0  0
   -1.2736   -0.9704    0.1241 N   0  0  0  0  0  0  0  0  0  0  0  0
   -2.0996   -0.4354   -0.1019 H   0  0  0  0  0  0  0  0  0  0  0  0
   -0.0016   -0.2394    0.1271 C   0  0  1  0  0  0  0  0  0  0  0  0
   -0.2112    0.8195    0.2941 H   0  0  0  0  0  0  0  0  0  0  0  0
    0.8836   -0.7586    1.2773 C   0  0  0  0  0  0  0  0  0  0  0  0
    0.9350   -1.8471    1.2329 H   0  0  0  0  0  0  0  0  0  0  0  0
    1.8966   -0.3705    1.1650 H   0  0  0  0  0  0  0  0  0  0  0  0
    0.3564   -0.3927    2.6615 C   0  0  0  0  0  0  0  0  0  0  0  0
   -0.3103    0.5977    2.9312 O   0  0  0  0  0  0  0  0  0  0  0  0
    0.6847   -1.2593    3.6378 O   0  0  0  0  0  0  0  0  0  0  0  0
    0.2778   -0.9216    4.4363 H   0  0  0  0  0  0  0  0  0  0  0  0
    0.6955   -0.3839   -1.2404 C   0  0  0  0  0  0  0  0  0  0  0  0
    1.4154    0.5218   -1.6585 O   0  0  0  0  0  0  0  0  0  0  0  0
    0.4813   -1.5052   -1.9379 N   0  0  0  0  0  0  0  0  0  0  0  0
   -0.1757   -2.1762   -1.5531 H   0  0  0  0  0  0  0  0  0  0  0  0
    1.0739   -1.7916   -3.2426 C   0  0  0  0  0  0  0  0  0  0  0  0
    2.1564   -1.6546   -3.1943 H   0  0  0  0  0  0  0  0  0  0  0  0
    0.8542   -2.8186   -3.5371 H   0  0  0  0  0  0  0  0  0  0  0  0
    0.6686   -1.1070   -3.9898 H   0  0  0  0  0  0  0  0  0  0  0  0
  5  6  2  0  0  0  0
  5  7  1  0  0  0  0
  2  3  1  0  0  0  0
  2  4  1  0  0  0  0
  2  5  1  0  0  0  0
  1  2  1  0  0  0  0
 18 19  2  0  0  0  0
 18 20  1  0  0  0  0
 16 17  1  0  0  0  0
 14 15  2  0  0  0  0
 14 16  1  0  0  0  0
 11 12  1  0  0  0  0
 11 13  1  0  0  0  0
 11 14  1  0  0  0  0
  9 10  1  0  0  0  0
  9 11  1  0  0  0  0
  9 18  1  0  0  0  0
  7  8  1  0  0  0  0
  7  9  1  0  0  0  0
 22 23  1  0  0  0  0
 22 24  1  0  0  0  0
 22 25  1  0  0  0  0
 20 21  1  0  0  0  0
 20 22  1  0  0  0  0
M  END
$$$$
default_name
  -OEChem-01062215323D

 25 24  0     1  0  0  0  0  0999 V2000
   -2.7826   -3.8464    0.7821 H   0  0  0  0  0  0  0  0  0  0  0  0
   -2.8156   -2.8034    0.4711 C   0  0  0  0  0  0  0  0  0  0  0  0
   -3.4336   -2.2354    1.1641 H   0  0  0  0  0  0  0  0  0  0  0  0
   -3.2256   -2.7344   -0.5349 H   0  0  0  0  0  0  0  0  0  0  0  0
   -1.4126   -2.2444    0.4801 C   0  0  0  0  0  0  0  0  0  0  0  0
   -0.4686   -2.9534    0.8001 O   0  0  0  0  0  0  0  0  0  0  0  0
   -1.2736   -0.9704    0.1241 N   0  0  0  0  0  0  0  0  0  0  0  0
   -2.0996   -0.4354   -0.1019 H   0  0  0  0  0  0  0  0  0  0  0  0
   -0.0016   -0.2394    0.1271 C   0  0  1  0  0  0  0  0  0  0  0  0
   -0.2112    0.8195    0.2941 H   0  0  0  0  0  0  0  0  0  0  0  0
    0.8836   -0.7586    1.2773 C   0  0  0  0  0  0  0  0  0  0  0  0
    0.9350   -1.8471    1.2329 H   0  0  0  0  0  0  0  0  0  0  0  0
    1.8966   -0.3705    1.1650 H   0  0  0  0  0  0  0  0  0  0  0  0
    0.3564   -0.3927    2.6615 C   0  0  0  0  0  0  0  0  0  0  0  0
   -0.3103    0.5977    2.9312 O   0  0  0  0  0  0  0  0  0  0  0  0
    0.6847   -1.2593    3.6378 O   0  0  0  0  0  0  0  0  0  0  0  0
    0.2778   -0.9216    4.4363 H   0  0  0  0  0  0  0  0  0  0  0  0
    0.6955   -0.3839   -1.2404 C   0  0  0  0  0  0  0  0  0  0  0  0
    1.6184    0.3726   -1.5393 O   0  0  0  0  0  0  0  0  0  0  0  0
    0.2578   -1.3382   -2.0695 N   0  0  0  0  0  0  0  0  0  0  0  0
   -0.5491   -1.8787   -1.7749 H   0  0  0  0  0  0  0  0  0  0  0  0
    0.8184   -1.6028   -3.3928 C   0  0  0  0  0  0  0  0  0  0  0  0
    1.9010   -1.7260   -3.3169 H   0  0  0  0  0  0  0  0  0  0  0  0
    0.3816   -2.5107   -3.8106 H   0  0  0  0  0  0  0  0  0  0  0  0
    0.6086   -0.7624   -4.0568 H   0  0  0  0  0  0  0  0  0  0  0  0
  5  6  2  0  0  0  0
  5  7  1  0  0  0  0
  2  3  1  0  0  0  0
  2  4  1  0  0  0  0
  2  5  1  0  0  0  0
  1  2  1  0  0  0  0
 18 19  2  0  0  0  0
 18 20  1  0  0  0  0
 16 17  1  0  0  0  0
 14 15  2  0  0  0  0
 14 16  1  0  0  0  0
 11 12  1  0  0  0  0
 11 13  1  0  0  0  0
 11 14  1  0  0  0  0
  9 10  1  0  0  0  0
  9 11  1  0  0  0  0
  9 18  1  0  0  0  0
  7  8  1  0  0  0  0
  7  9  1  0  0  0  0
 22 23  1  0  0  0  0
 22 24  1  0  0  0  0
 22 25  1  0  0  0  0
 20 21  1  0  0  0  0
 20 22  1  0  0  0  0
M  END
$$$$
default_name
  -OEChem-01062215323D

 25 24  0     1  0  0  0  0  0999 V2000
   -2.7826   -3.8464    0.7821 H   0  0  0  0  0  0  0  0  0  0  0  0
   -2.8156   -2.8034    0.4711 C   0  0  0  0  0  0  0  0  0  0  0  0
   -3.4336   -2.2354    1.1641 H   0  0  0  0  0  0  0  0  0  0  0  0
   -3.2256   -2.7344   -0.5349 H   0  0  0  0  0  0  0  0  0  0  0  0
   -1.4126   -2.2444    0.4801 C   0  0  0  0  0  0  0  0  0  0  0  0
   -0.4686   -2.9534    0.8001 O   0  0  0  0  0  0  0  0  0  0  0  0
   -1.2736   -0.9704    0.1241 N   0  0  0  0  0  0  0  0  0  0  0  0
   -2.0996   -0.4354   -0.1019 H   0  0  0  0  0  0  0  0  0  0  0  0
   -0.0016   -0.2394    0.1271 C   0  0  1  0  0  0  0  0  0  0  0  0
   -0.2112    0.8195    0.2941 H   0  0  0  0  0  0  0  0  0  0  0  0
    0.8836   -0.7586    1.2773 C   0  0  0  0  0  0  0  0  0  0  0  0
    0.9350   -1.8471    1.2329 H   0  0  0  0  0  0  0  0  0  0  0  0
    1.8966   -0.3705    1.1650 H   0  0  0  0  0  0  0  0  0  0  0  0
    0.3564   -0.3927    2.6615 C   0  0  0  0  0  0  0  0  0  0  0  0
   -0.3103    0.5977    2.9312 O   0  0  0  0  0  0  0  0  0  0  0  0
    0.6847   -1.2593    3.6378 O   0  0  0  0  0  0  0  0  0  0  0  0
    0.2778   -0.9216    4.4363 H   0  0  0  0  0  0  0  0  0  0  0  0
    0.6955   -0.3839   -1.2404 C   0  0  0  0  0  0  0  0  0  0  0  0
    1.7773    0.1680   -1.4367 O   0  0  0  0  0  0  0  0  0  0  0  0
    0.0834   -1.1102   -2.1825 N   0  0  0  0  0  0  0  0  0  0  0  0
   -0.8361   -1.4797   -1.9634 H   0  0  0  0  0  0  0  0  0  0  0  0
    0.6187   -1.3443   -3.5220 C   0  0  0  0  0  0  0  0  0  0  0  0
    1.6409   -1.7221   -3.4499 H   0  0  0  0  0  0  0  0  0  0  0  0
    0.0024   -2.0729   -4.0501 H   0  0  0  0  0  0  0  0  0  0  0  0
    0.6315   -0.4080   -4.0826 H   0  0  0  0  0  0  0  0  0  0  0  0
  5  6  2  0  0  0  0
  5  7  1  0  0  0  0
  2  3  1  0  0  0  0
  2  4  1  0  0  0  0
  2  5  1  0  0  0  0
  1  2  1  0  0  0  0
 18 19  2  0  0  0  0
 18 20  1  0  0  0  0
 16 17  1  0  0  0  0
 14 15  2  0  0  0  0
 14 16  1  0  0  0  0
 11 12  1  0  0  0  0
 11 13  1  0  0  0  0
 11 14  1  0  0  0  0
  9 10  1  0  0  0  0
  9 11  1  0  0  0  0
  9 18  1  0  0  0  0
  7  8  1  0  0  0  0
  7  9  1  0  0  0  0
 22 23  1  0  0  0  0
 22 24  1  0  0  0  0
 22 25  1  0  0  0  0
 20 21  1  0  0  0  0
 20 22  1  0  0  0  0
M  END
$$$$
default_name
  -OEChem-01062215323D

 25 24  0     1  0  0  0  0  0999 V2000
   -2.7826   -3.8464    0.7821 H   0  0  0  0  0  0  0  0  0  0  0  0
   -2.8156   -2.8034    0.4711 C   0  0  0  0  0  0  0  0  0  0  0  0
   -3.4336   -2.2354    1.1641 H   0  0  0  0  0  0  0  0  0  0  0  0
   -3.2256   -2.7344   -0.5349 H   0  0  0  0  0  0  0  0  0  0  0  0
   -1.4126   -2.2444    0.4801 C   0  0  0  0  0  0  0  0  0  0  0  0
   -0.4686   -2.9534    0.8001 O   0  0  0  0  0  0  0  0  0  0  0  0
   -1.2736   -0.9704    0.1241 N   0  0  0  0  0  0  0  0  0  0  0  0
   -2.0996   -0.4354   -0.1019 H   0  0  0  0  0  0  0  0  0  0  0  0
   -0.0016   -0.2394    0.1271 C   0  0  1  0  0  0  0  0  0  0  0  0
   -0.2112    0.8195    0.2941 H   0  0  0  0  0  0  0  0  0  0  0  0
    0.8836   -0.7586    1.2773 C   0  0  0  0  0  0  0  0  0  0  0  0
    0.9350   -1.8471    1.2329 H   0  0  0  0  0  0  0  0  0  0  0  0
    1.8966   -0.3705    1.1650 H   0  0  0  0  0  0  0  0  0  0  0  0
    0.3564   -0.3927    2.6615 C   0  0  0  0  0  0  0  0  0  0  0  0
   -0.3103    0.5977    2.9312 O   0  0  0  0  0  0  0  0  0  0  0  0
    0.6847   -1.2593    3.6378 O   0  0  0  0  0  0  0  0  0  0  0  0
    0.2778   -0.9216    4.4363 H   0  0  0  0  0  0  0  0  0  0  0  0
    0.6955   -0.3839   -1.2404 C   0  0  0  0  0  0  0  0  0  0  0  0
    1.8813   -0.0782   -1.3576 O   0  0  0  0  0  0  0  0  0  0  0  0
   -0.0300   -0.8367   -2.2692 N   0  0  0  0  0  0  0  0  0  0  0  0
   -1.0171   -1.0063   -2.1057 H   0  0  0  0  0  0  0  0  0  0  0  0
    0.4882   -1.0336   -3.6213 C   0  0  0  0  0  0  0  0  0  0  0  0
    1.3938   -1.6430   -3.5843 H   0  0  0  0  0  0  0  0  0  0  0  0
   -0.2576   -1.5349   -4.2395 H   0  0  0  0  0  0  0  0  0  0  0  0
    0.7355   -0.0678   -4.0655 H   0  0  0  0  0  0  0  0  0  0  0  0
  5  6  2  0  0  0  0
  5  7  1  0  0  0  0
  2  3  1  0  0  0  0
  2  4  1  0  0  0  0
  2  5  1  0  0  0  0
  1  2  1  0  0  0  0
 18 19  2  0  0  0  0
 18 20  1  0  0  0  0
 16 17  1  0  0  0  0
 14 15  2  0  0  0  0
 14 16  1  0  0  0  0
 11 12  1  0  0  0  0
 11 13  1  0  0  0  0
 11 14  1  0  0  0  0
  9 10  1  0  0  0  0
  9 11  1  0  0  0  0
  9 18  1  0  0  0  0
  7  8  1  0  0  0  0
  7  9  1  0  0  0  0
 22 23  1  0  0  0  0
 22 24  1  0  0  0  0
 22 25  1  0  0  0  0
 20 21  1  0  0  0  0
 20 22  1  0  0  0  0
M  END
$$$$
default_name
  -OEChem-01062215323D

 25 24  0     1  0  0  0  0  0999 V2000
   -2.7826   -3.8464    0.7821 H   0  0  0  0  0  0  0  0  0  0  0  0
   -2.8156   -2.8034    0.4711 C   0  0  0  0  0  0  0  0  0  0  0  0
   -3.4336   -2.2354    1.1641 H   0  0  0  0  0  0  0  0  0  0  0  0
   -3.2256   -2.7344   -0.5349 H   0  0  0  0  0  0  0  0  0  0  0  0
   -1.4126   -2.2444    0.4801 C   0  0  0  0  0  0  0  0  0  0  0  0
   -0.4686   -2.9534    0.8001 O   0  0  0  0  0  0  0  0  0  0  0  0
   -1.2736   -0.9704    0.1241 N   0  0  0  0  0  0  0  0  0  0  0  0
   -2.0996   -0.4354   -0.1019 H   0  0  0  0  0  0  0  0  0  0  0  0
   -0.0016   -0.2394    0.1271 C   0  0  1  0  0  0  0  0  0  0  0  0
   -0.2112    0.8195    0.2941 H   0  0  0  0  0  0  0  0  0  0  0  0
    0.8836   -0.7586    1.2773 C   0  0  0  0  0  0  0  0  0  0  0  0
    0.9350   -1.8471    1.2329 H   0  0  0  0  0  0  0  0  0  0  0  0
    1.8966   -0.3705    1.1650 H   0  0  0  0  0  0  0  0  0  0  0  0
    0.3564   -0.3927    2.6615 C   0  0  0  0  0  0  0  0  0  0  0  0
   -0.3103    0.5977    2.9312 O   0  0  0  0  0  0  0  0  0  0  0  0
    0.6847   -1.2593    3.6378 O   0  0  0  0  0  0  0  0  0  0  0  0
    0.2778   -0.9216    4.4363 H   0  0  0  0  0  0  0  0  0  0  0  0
    0.6955   -0.3839   -1.2404 C   0  0  0  0  0  0  0  0  0  0  0  0
    1.9234   -0.3491   -1.3076 O   0  0  0  0  0  0  0  0  0  0  0  0
   -0.0746   -0.5363   -2.3237 N   0  0  0  0  0  0  0  0  0  0  0  0
   -1.0798   -0.4908   -2.1921 H   0  0  0  0  0  0  0  0  0  0  0  0
    0.4359   -0.6919   -3.6841 C   0  0  0  0  0  0  0  0  0  0  0  0
    1.1765   -1.4941   -3.7107 H   0  0  0  0  0  0  0  0  0  0  0  0
   -0.3806   -0.9334   -4.3658 H   0  0  0  0  0  0  0  0  0  0  0  0
    0.9137    0.2349   -4.0067 H   0  0  0  0  0  0  0  0  0  0  0  0
  5  6  2  0  0  0  0
  5  7  1  0  0  0  0
  2  3  1  0  0  0  0
  2  4  1  0  0  0  0
  2  5  1  0  0  0  0
  1  2  1  0  0  0  0
 18 19  2  0  0  0  0
 18 20  1  0  0  0  0
 16 17  1  0  0  0  0
 14 15  2  0  0  0  0
 14 16  1  0  0  0  0
 11 12  1  0  0  0  0
 11 13  1  0  0  0  0
 11 14  1  0  0  0  0
  9 10  1  0  0  0  0
  9 11  1  0  0  0  0
  9 18  1  0  0  0  0
  7  8  1  0  0  0  0
  7  9  1  0  0  0  0
 22 23  1  0  0  0  0
 22 24  1  0  0  0  0
 22 25  1  0  0  0  0
 20 21  1  0  0  0  0
 20 22  1  0  0  0  0
M  END
$$$$
default_name
  -OEChem-01062215323D

 25 24  0     1  0  0  0  0  0999 V2000
   -2.7826   -3.8464    0.7821 H   0  0  0  0  0  0  0  0  0  0  0  0
   -2.8156   -2.8034    0.4711 C   0  0  0  0  0  0  0  0  0  0  0  0
   -3.4336   -2.2354    1.1641 H   0  0  0  0  0  0  0  0  0  0  0  0
   -3.2256   -2.7344   -0.5349 H   0  0  0  0  0  0  0  0  0  0  0  0
   -1.4126   -2.2444    0.4801 C   0  0  0  0  0  0  0  0  0  0  0  0
   -0.4686   -2.9534    0.8001 O   0  0  0  0  0  0  0  0  0  0  0  0
   -1.2736   -0.9704    0.1241 N   0  0  0  0  0  0  0  0  0  0  0  0
   -2.0996   -0.4354   -0.1019 H   0  0  0  0  0  0  0  0  0  0  0  0
   -0.0016   -0.2394    0.1271 C   0  0  1  0  0  0  0  0  0  0  0  0
   -0.2112    0.8195    0.2941 H   0  0  0  0  0  0  0  0  0  0  0  0
    0.8836   -0.7586    1.2773 C   0  0  0  0  0  0  0  0  0  0  0  0
    0.9350   -1.8471    1.2329 H   0  0  0  0  0  0  0  0  0  0  0  0
    1.8966   -0.3705    1.1650 H   0  0  0  0  0  0  0  0  0  0  0  0
    0.3564   -0.3927    2.6615 C   0  0  0  0  0  0  0  0  0  0  0  0
   -0.3103    0.5977    2.9312 O   0  0  0  0  0  0  0  0  0  0  0  0
    0.6847   -1.2593    3.6378 O   0  0  0  0  0  0  0  0  0  0  0  0
    0.2778   -0.9216    4.4363 H   0  0  0  0  0  0  0  0  0  0  0  0
    0.6955   -0.3839   -1.2404 C   0  0  0  0  0  0  0  0  0  0  0  0
    1.9006   -0.6263   -1.2899 O   0  0  0  0  0  0  0  0  0  0  0  0
   -0.0474   -0.2296   -2.3422 N   0  0  0  0  0  0  0  0  0  0  0  0
   -1.0200    0.0316   -2.2168 H   0  0  0  0  0  0  0  0  0  0  0  0
    0.4654   -0.3425   -3.7060 C   0  0  0  0  0  0  0  0  0  0  0  0
    1.0039   -1.2857   -3.8208 H   0  0  0  0  0  0  0  0  0  0  0  0
   -0.3582   -0.3093   -4.4203 H   0  0  0  0  0  0  0  0  0  0  0  0
    1.1538    0.4794   -3.9101 H   0  0  0  0  0  0  0  0  0  0  0  0
  5  6  2  0  0  0  0
  5  7  1  0  0  0  0
  2  3  1  0  0  0  0
  2  4  1  0  0  0  0
  2  5  1  0  0  0  0
  1  2  1  0  0  0  0
 18 19  2  0  0  0  0
 18 20  1  0  0  0  0
 16 17  1  0  0  0  0
 14 15  2  0  0  0  0
 14 16  1  0  0  0  0
 11 12  1  0  0  0  0
 11 13  1  0  0  0  0
 11 14  1  0  0  0  0
  9 10  1  0  0  0  0
  9 11  1  0  0  0  0
  9 18  1  0  0  0  0
  7  8  1  0  0  0  0
  7  9  1  0  0  0  0
 22 23  1  0  0  0  0
 22 24  1  0  0  0  0
 22 25  1  0  0  0  0
 20 21  1  0  0  0  0
 20 22  1  0  0  0  0
M  END
$$$$
default_name
  -OEChem-01062215323D

 25 24  0     1  0  0  0  0  0999 V2000
   -2.7826   -3.8464    0.7821 H   0  0  0  0  0  0  0  0  0  0  0  0
   -2.8156   -2.8034    0.4711 C   0  0  0  0  0  0  0  0  0  0  0  0
   -3.4336   -2.2354    1.1641 H   0  0  0  0  0  0  0  0  0  0  0  0
   -3.2256   -2.7344   -0.5349 H   0  0  0  0  0  0  0  0  0  0  0  0
   -1.4126   -2.2444    0.4801 C   0  0  0  0  0  0  0  0  0  0  0  0
   -0.4686   -2.9534    0.8001 O   0  0  0  0  0  0  0  0  0  0  0  0
   -1.2736   -0.9704    0.1241 N   0  0  0  0  0  0  0  0  0  0  0  0
   -2.0996   -0.4354   -0.1019 H   0  0  0  0  0  0  0  0  0  0  0  0
   -0.0016   -0.2394    0.1271 C   0  0  1  0  0  0  0  0  0  0  0  0
   -0.2112    0.8195    0.2941 H   0  0  0  0  0  0  0  0  0  0  0  0
    0.8836   -0.7586    1.2773 C   0  0  0  0  0  0  0  0  0  0  0  0
    0.9350   -1.8471    1.2329 H   0  0  0  0  0  0  0  0  0  0  0  0
    1.8966   -0.3705    1.1650 H   0  0  0  0  0  0  0  0  0  0  0  0
    0.3564   -0.3927    2.6615 C   0  0  0  0  0  0  0  0  0  0  0  0
   -0.3103    0.5977    2.9312 O   0  0  0  0  0  0  0  0  0  0  0  0
    0.6847   -1.2593    3.6378 O   0  0  0  0  0  0  0  0  0  0  0  0
    0.2778   -0.9216    4.4363 H   0  0  0  0  0  0  0  0  0  0  0  0
    0.6955   -0.3839   -1.2404 C   0  0  0  0  0  0  0  0  0  0  0  0
    1.8146   -0.8908   -1.3058 O   0  0  0  0  0  0  0  0  0  0  0  0
    0.0497    0.0626   -2.3236 N   0  0  0  0  0  0  0  0  0  0  0  0
   -0.8417    0.5253   -2.1781 H   0  0  0  0  0  0  0  0  0  0  0  0
    0.5746   -0.0092   -3.6855 C   0  0  0  0  0  0  0  0  0  0  0  0
    0.8877   -1.0318   -3.9068 H   0  0  0  0  0  0  0  0  0  0  0  0
   -0.1920    0.2947   -4.3994 H   0  0  0  0  0  0  0  0  0  0  0  0
    1.4396    0.6492   -3.7823 H   0  0  0  0  0  0  0  0  0  0  0  0
  5  6  2  0  0  0  0
  5  7  1  0  0  0  0
  2  3  1  0  0  0  0
  2  4  1  0  0  0  0
  2  5  1  0  0  0  0
  1  2  1  0  0  0  0
 18 19  2  0  0  0  0
 18 20  1  0  0  0  0
 16 17  1  0  0  0  0
 14 15  2  0  0  0  0
 14 16  1  0  0  0  0
 11 12  1  0  0  0  0
 11 13  1  0  0  0  0
 11 14  1  0  0  0  0
  9 10  1  0  0  0  0
  9 11  1  0  0  0  0
  9 18  1  0  0  0  0
  7  8  1  0  0  0  0
  7  9  1  0  0  0  0
 22 23  1  0  0  0  0
 22 24  1  0  0  0  0
 22 25  1  0  0  0  0
 20 21  1  0  0  0  0
 20 22  1  0  0  0  0
M  END
$$$$
default_name
  -OEChem-01062215323D

 25 24  0     1  0  0  0  0  0999 V2000
   -2.7826   -3.8464    0.7821 H   0  0  0  0  0  0  0  0  0  0  0  0
   -2.8156   -2.8034    0.4711 C   0  0  0  0  0  0  0  0  0  0  0  0
   -3.4336   -2.2354    1.1641 H   0  0  0  0  0  0  0  0  0  0  0  0
   -3.2256   -2.7344   -0.5349 H   0  0  0  0  0  0  0  0  0  0  0  0
   -1.4126   -2.2444    0.4801 C   0  0  0  0  0  0  0  0  0  0  0  0
   -0.4686   -2.9534    0.8001 O   0  0  0  0  0  0  0  0  0  0  0  0
   -1.2736   -0.9704    0.1241 N   0  0  0  0  0  0  0  0  0  0  0  0
   -2.0996   -0.4354   -0.1019 H   0  0  0  0  0  0  0  0  0  0  0  0
   -0.0016   -0.2394    0.1271 C   0  0  1  0  0  0  0  0  0  0  0  0
   -0.2112    0.8195    0.2941 H   0  0  0  0  0  0  0  0  0  0  0  0
    0.8836   -0.7586    1.2773 C   0  0  0  0  0  0  0  0  0  0  0  0
    0.9350   -1.8471    1.2329 H   0  0  0  0  0  0  0  0  0  0  0  0
    1.8966   -0.3705    1.1650 H   0  0  0  0  0  0  0  0  0  0  0  0
    0.3564   -0.3927    2.6615 C   0  0  0  0  0  0  0  0  0  0  0  0
   -0.3103    0.5977    2.9312 O   0  0  0  0  0  0  0  0  0  0  0  0
    0.6847   -1.2593    3.6378 O   0  0  0  0  0  0  0  0  0  0  0  0
    0.2778   -0.9216    4.4363 H   0  0  0  0  0  0  0  0  0  0  0  0
    0.6955   -0.3839   -1.2404 C   0  0  0  0  0  0  0  0  0  0  0  0
    1.6711   -1.1248   -1.3542 O   0  0  0  0  0  0  0  0  0  0  0  0
    0.2102    0.3204   -2.2690 N   0  0  0  0  0  0  0  0  0  0  0  0
   -0.5570    0.9568   -2.0786 H   0  0  0  0  0  0  0  0  0  0  0  0
    0.7561    0.2853   -3.6241 C   0  0  0  0  0  0  0  0  0  0  0  0
    0.8358   -0.7499   -3.9631 H   0  0  0  0  0  0  0  0  0  0  0  0
    0.1067    0.8375   -4.3045 H   0  0  0  0  0  0  0  0  0  0  0  0
    1.7516    0.7327   -3.6321 H   0  0  0  0  0  0  0  0  0  0  0  0
  5  6  2  0  0  0  0
  5  7  1  0  0  0  0
  2  3  1  0  0  0  0
  2  4  1  0  0  0  0
  2  5  1  0  0  0  0
  1  2  1  0  0  0  0
 18 19  2  0  0  0  0
 18 20  1  0  0  0  0
 16 17  1  0  0  0  0
 14 15  2  0  0  0  0
 14 16  1  0  0  0  0
 11 12  1  0  0  0  0
 11 13  1  0  0  0  0
 11 14  1  0  0  0  0
  9 10  1  0  0  0  0
  9 11  1  0  0  0  0
  9 18  1  0  0  0  0
  7  8  1  0  0  0  0
  7  9  1  0  0  0  0
 22 23  1  0  0  0  0
 22 24  1  0  0  0  0
 22 25  1  0  0  0  0
 20 21  1  0  0  0  0
 20 22  1  0  0  0  0
M  END
$$$$
default_name
  -OEChem-01062215323D

 25 24  0     1  0  0  0  0  0999 V2000
   -2.7826   -3.8464    0.7821 H   0  0  0  0  0  0  0  0  0  0  0  0
   -2.8156   -2.8034    0.4711 C   0  0  0  0  0  0  0  0  0  0  0  0
   -3.4336   -2.2354    1.1641 H   0  0  0  0  0  0  0  0  0  0  0  0
   -3.2256   -2.7344   -0.5349 H   0  0  0  0  0  0  0  0  0  0  0  0
   -1.4126   -2.2444    0.4801 C   0  0  0  0  0  0  0  0  0  0  0  0
   -0.4686   -2.9534    0.8001 O   0  0  0  0  0  0  0  0  0  0  0  0
   -1.2736   -0.9704    0.1241 N   0  0  0  0  0  0  0  0  0  0  0  0
   -2.0996   -0.4354   -0.1019 H   0  0  0  0  0  0  0  0  0  0  0  0
   -0.0016   -0.2394    0.1271 C   0  0  1  0  0  0  0  0  0  0  0  0
   -0.2112    0.8195    0.2941 H   0  0  0  0  0  0  0  0  0  0  0  0
    0.8836   -0.7586    1.2773 C   0  0  0  0  0  0  0  0  0  0  0  0
    0.9350   -1.8471    1.2329 H   0  0  0  0  0  0  0  0  0  0  0  0
    1.8966   -0.3705    1.1650 H   0  0  0  0  0  0  0  0  0  0  0  0
    0.3564   -0.3927    2.6615 C   0  0  0  0  0  0  0  0  0  0  0  0
   -0.3103    0.5977    2.9312 O   0  0  0  0  0  0  0  0  0  0  0  0
    0.6847   -1.2593    3.6378 O   0  0  0  0  0  0  0  0  0  0  0  0
    0.2778   -0.9216    4.4363 H   0  0  0  0  0  0  0  0  0  0  0  0
    0.6955   -0.3839   -1.2404 C   0  0  0  0  0  0  0  0  0  0  0  0
    1.4799   -1.3121   -1.4319 O   0  0  0  0  0  0  0  0  0  0  0  0
    0.4230    0.5262   -2.1823 N   0  0  0  0  0  0  0  0  0  0  0  0
   -0.1854    1.2966   -1.9251 H   0  0  0  0  0  0  0  0  0  0  0  0
    0.9975    0.5209   -3.5259 C   0  0  0  0  0  0  0  0  0  0  0  0
    0.8518   -0.4590   -3.9857 H   0  0  0  0  0  0  0  0  0  0  0  0
    0.5175    1.2822   -4.1421 H   0  0  0  0  0  0  0  0  0  0  0  0
    2.0684    0.7241   -3.4697 H   0  0  0  0  0  0  0  0  0  0  0  0
  5  6  2  0  0  0  0
  5  7  1  0  0  0  0
  2  3  1  0  0  0  0
  2  4  1  0  0  0  0
  2  5  1  0  0  0  0
  1  2  1  0  0  0  0
 18 19  2  0  0  0  0
 18 20  1  0  0  0  0
 16 17  1  0  0  0  0
 14 15  2  0  0  0  0
 14 16  1  0  0  0  0
 11 12  1  0  0  0  0
 11 13  1  0  0  0  0
 11 14  1  0  0  0  0
  9 10  1  0  0  0  0
  9 11  1  0  0  0  0
  9 18  1  0  0  0  0
  7  8  1  0  0  0  0
  7  9  1  0  0  0  0
 22 23  1  0  0  0  0
 22 24  1  0  0  0  0
 22 25  1  0  0  0  0
 20 21  1  0  0  0  0
 20 22  1  0  0  0  0
M  END
$$$$
default_name
  -OEChem-01062215323D

 25 24  0     1  0  0  0  0  0999 V2000
   -2.7826   -3.8464    0.7821 H   0  0  0  0  0  0  0  0  0  0  0  0
   -2.8156   -2.8034    0.4711 C   0  0  0  0  0  0  0  0  0  0  0  0
   -3.4336   -2.2354    1.1641 H   0  0  0  0  0  0  0  0  0  0  0  0
   -3.2256   -2.7344   -0.5349 H   0  0  0  0  0  0  0  0  0  0  0  0
   -1.4126   -2.2444    0.4801 C   0  0  0  0  0  0  0  0  0  0  0  0
   -0.4686   -2.9534    0.8001 O   0  0  0  0  0  0  0  0  0  0  0  0
   -1.2736   -0.9704    0.1241 N   0  0  0  0  0  0  0  0  0  0  0  0
   -2.0996   -0.4354   -0.1019 H   0  0  0  0  0  0  0  0  0  0  0  0
   -0.0016   -0.2394    0.1271 C   0  0  1  0  0  0  0  0  0  0  0  0
   -0.2112    0.8195    0.2941 H   0  0  0  0  0  0  0  0  0  0  0  0
    0.8836   -0.7586    1.2773 C   0  0  0  0  0  0  0  0  0  0  0  0
    0.9350   -1.8471    1.2329 H   0  0  0  0  0  0  0  0  0  0  0  0
    1.8966   -0.3705    1.1650 H   0  0  0  0  0  0  0  0  0  0  0  0
    0.3564   -0.3927    2.6615 C   0  0  0  0  0  0  0  0  0  0  0  0
   -0.3103    0.5977    2.9312 O   0  0  0  0  0  0  0  0  0  0  0  0
    0.6847   -1.2593    3.6378 O   0  0  0  0  0  0  0  0  0  0  0  0
    0.2778   -0.9216    4.4363 H   0  0  0  0  0  0  0  0  0  0  0  0
    0.6955   -0.3839   -1.2404 C   0  0  0  0  0  0  0  0  0  0  0  0
    1.2542   -1.4401   -1.5334 O   0  0  0  0  0  0  0  0  0  0  0  0
    0.6738    0.6659   -2.0692 N   0  0  0  0  0  0  0  0  0  0  0  0
    0.2478    1.5215   -1.7280 H   0  0  0  0  0  0  0  0  0  0  0  0
    1.2824    0.6815   -3.3977 C   0  0  0  0  0  0  0  0  0  0  0  0
    0.9345   -0.1791   -3.9731 H   0  0  0  0  0  0  0  0  0  0  0  0
    1.0124    1.5984   -3.9232 H   0  0  0  0  0  0  0  0  0  0  0  0
    2.3685    0.6241   -3.3062 H   0  0  0  0  0  0  0  0  0  0  0  0
  5  6  2  0  0  0  0
  5  7  1  0  0  0  0
  2  3  1  0  0  0  0
  2  4  1  0  0  0  0
  2  5  1  0  0  0  0
  1  2  1  0  0  0  0
 18 19  2  0  0  0  0
 18 20  1  0  0  0  0
 16 17  1  0  0  0  0
 14 15  2  0  0  0  0
 14 16  1  0  0  0  0
 11 12  1  0  0  0  0
 11 13  1  0  0  0  0
 11 14  1  0  0  0  0
  9 10  1  0  0  0  0
  9 11  1  0  0  0  0
  9 18  1  0  0  0  0
  7  8  1  0  0  0  0
  7  9  1  0  0  0  0
 22 23  1  0  0  0  0
 22 24  1  0  0  0  0
 22 25  1  0  0  0  0
 20 21  1  0  0  0  0
 20 22  1  0  0  0  0
M  END
$$$$
default_name
  -OEChem-01062215323D

 25 24  0     1  0  0  0  0  0999 V2000
   -2.7826   -3.8464    0.7821 H   0  0  0  0  0  0  0  0  0  0  0  0
   -2.8156   -2.8034    0.4711 C   0  0  0  0  0  0  0  0  0  0  0  0
   -3.4336   -2.2354    1.1641 H   0  0  0  0  0  0  0  0  0  0  0  0
   -3.2256   -2.7344   -0.5349 H   0  0  0  0  0  0  0  0  0  0  0  0
   -1.4126   -2.2444    0.4801 C   0  0  0  0  0  0  0  0  0  0  0  0
   -0.4686   -2.9534    0.8001 O   0  0  0  0  0  0  0  0  0  0  0  0
   -1.2736   -0.9704    0.1241 N   0  0  0  0  0  0  0  0  0  0  0  0
   -2.0996   -0.4354   -0.1019 H   0  0  0  0  0  0  0  0  0  0  0  0
   -0.0016   -0.2394    0.1271 C   0  0  1  0  0  0  0  0  0  0  0  0
   -0.2112    0.8195    0.2941 H   0  0  0  0  0  0  0  0  0  0  0  0
    0.8836   -0.7586    1.2773 C   0  0  0  0  0  0  0  0  0  0  0  0
    0.9350   -1.8471    1.2329 H   0  0  0  0  0  0  0  0  0  0  0  0
    1.8966   -0.3705    1.1650 H   0  0  0  0  0  0  0  0  0  0  0  0
    0.3564   -0.3927    2.6615 C   0  0  0  0  0  0  0  0  0  0  0  0
   -0.3103    0.5977    2.9312 O   0  0  0  0  0  0  0  0  0  0  0  0
    0.6847   -1.2593    3.6378 O   0  0  0  0  0  0  0  0  0  0  0  0
    0.2778   -0.9216    4.4363 H   0  0  0  0  0  0  0  0  0  0  0  0
    0.6955   -0.3839   -1.2404 C   0  0  0  0  0  0  0  0  0  0  0  0
    1.0092   -1.5001   -1.6520 O   0  0  0  0  0  0  0  0  0  0  0  0
    0.9453    0.7301   -1.9376 N   0  0  0  0  0  0  0  0  0  0  0  0
    0.7131    1.6162   -1.5008 H   0  0  0  0  0  0  0  0  0  0  0  0
    1.5914    0.7563   -3.2481 C   0  0  0  0  0  0  0  0  0  0  0  0
    1.0784    0.0708   -3.9261 H   0  0  0  0  0  0  0  0  0  0  0  0
    1.5578    1.7646   -3.6627 H   0  0  0  0  0  0  0  0  0  0  0  0
    2.6314    0.4395   -3.1526 H   0  0  0  0  0  0  0  0  0  0  0  0
  5  6  2  0  0  0  0
  5  7  1  0  0  0  0
  2  3  1  0  0  0  0
  2  4  1  0  0  0  0
  2  5  1  0  0  0  0
  1  2  1  0  0  0  0
 18 19  2  0  0  0  0
 18 20  1  0  0  0  0
 16 17  1  0  0  0  0
 14 15  2  0  0  0  0
 14 16  1  0  0  0  0
 11 12  1  0  0  0  0
 11 13  1  0  0  0  0
 11 14  1  0  0  0  0
  9 10  1  0  0  0  0
  9 11  1  0  0  0  0
  9 18  1  0  0  0  0
  7  8  1  0  0  0  0
  7  9  1  0  0  0  0
 22 23  1  0  0  0  0
 22 24  1  0  0  0  0
 22 25  1  0  0  0  0
 20 21  1  0  0  0  0
 20 22  1  0  0  0  0
M  END
$$$$
default_name
  -OEChem-01062215323D

 25 24  0     1  0  0  0  0  0999 V2000
   -2.7826   -3.8464    0.7821 H   0  0  0  0  0  0  0  0  0  0  0  0
   -2.8156   -2.8034    0.4711 C   0  0  0  0  0  0  0  0  0  0  0  0
   -3.4336   -2.2354    1.1641 H   0  0  0  0  0  0  0  0  0  0  0  0
   -3.2256   -2.7344   -0.5349 H   0  0  0  0  0  0  0  0  0  0  0  0
   -1.4126   -2.2444    0.4801 C   0  0  0  0  0  0  0  0  0  0  0  0
   -0.4686   -2.9534    0.8001 O   0  0  0  0  0  0  0  0  0  0  0  0
   -1.2736   -0.9704    0.1241 N   0  0  0  0  0  0  0  0  0  0  0  0
   -2.0996   -0.4354   -0.1019 H   0  0  0  0  0  0  0  0  0  0  0  0
   -0.0016   -0.2394    0.1271 C   0  0  1  0  0  0  0  0  0  0  0  0
   -0.2112    0.8195    0.2941 H   0  0  0  0  0  0  0  0  0  0  0  0
    0.8836   -0.7586    1.2773 C   0  0  0  0  0  0  0  0  0  0  0  0
    0.9350   -1.8471    1.2329 H   0  0  0  0  0  0  0  0  0  0  0  0
    1.8966   -0.3705    1.1650 H   0  0  0  0  0  0  0  0  0  0  0  0
    0.3564   -0.3927    2.6615 C   0  0  0  0  0  0  0  0  0  0  0  0
   -0.3103    0.5977    2.9312 O   0  0  0  0  0  0  0  0  0  0  0  0
    0.6847   -1.2593    3.6378 O   0  0  0  0  0  0  0  0  0  0  0  0
    0.2778   -0.9216    4.4363 H   0  0  0  0  0  0  0  0  0  0  0  0
    0.6955   -0.3839   -1.2404 C   0  0  0  0  0  0  0  0  0  0  0  0
    0.7617   -1.4879   -1.7794 O   0  0  0  0  0  0  0  0  0  0  0  0
    1.2191    0.7144   -1.7964 N   0  0  0  0  0  0  0  0  0  0  0  0
    1.1788    1.5743   -1.2590 H   0  0  0  0  0  0  0  0  0  0  0  0
    1.9034    0.7401   -3.0873 C   0  0  0  0  0  0  0  0  0  0  0  0
    1.2736    0.2736   -3.8481 H   0  0  0  0  0  0  0  0  0  0  0  0
    2.1165    1.7694   -3.3785 H   0  0  0  0  0  0  0  0  0  0  0  0
    2.8393    0.1828   -3.0195 H   0  0  0  0  0  0  0  0  0  0  0  0
  5  6  2  0  0  0  0
  5  7  1  0  0  0  0
  2  3  1  0  0  0  0
  2  4  1  0  0  0  0
  2  5  1  0  0  0  0
  1  2  1  0  0  0  0
 18 19  2  0  0  0  0
 18 20  1  0  0  0  0
 16 17  1  0  0  0  0
 14 15  2  0  0  0  0
 14 16  1  0  0  0  0
 11 12  1  0  0  0  0
 11 13  1  0  0  0  0
 11 14  1  0  0  0  0
  9 10  1  0  0  0  0
  9 11  1  0  0  0  0
  9 18  1  0  0  0  0
  7  8  1  0  0  0  0
  7  9  1  0  0  0  0
 22 23  1  0  0  0  0
 22 24  1  0  0  0  0
 22 25  1  0  0  0  0
 20 21  1  0  0  0  0
 20 22  1  0  0  0  0
M  END
$$$$
default_name
  -OEChem-01062215323D

 25 24  0     1  0  0  0  0  0999 V2000
   -2.7826   -3.8464    0.7821 H   0  0  0  0  0  0  0  0  0  0  0  0
   -2.8156   -2.8034    0.4711 C   0  0  0  0  0  0  0  0  0  0  0  0
   -3.4336   -2.2354    1.1641 H   0  0  0  0  0  0  0  0  0  0  0  0
   -3.2256   -2.7344   -0.5349 H   0  0  0  0  0  0  0  0  0  0  0  0
   -1.4126   -2.2444    0.4801 C   0  0  0  0  0  0  0  0  0  0  0  0
   -0.4686   -2.9534    0.8001 O   0  0  0  0  0  0  0  0  0  0  0  0
   -1.2736   -0.9704    0.1241 N   0  0  0  0  0  0  0  0  0  0  0  0
   -2.0996   -0.4354   -0.1019 H   0  0  0  0  0  0  0  0  0  0  0  0
   -0.0016   -0.2394    0.1271 C   0  0  1  0  0  0  0  0  0  0  0  0
   -0.2112    0.8195    0.2941 H   0  0  0  0  0  0  0  0  0  0  0  0
    0.8836   -0.7586    1.2773 C   0  0  0  0  0  0  0  0  0  0  0  0
    0.9350   -1.8471    1.2329 H   0  0  0  0  0  0  0  0  0  0  0  0
    1.8966   -0.3705    1.1650 H   0  0  0  0  0  0  0  0  0  0  0  0
    0.3564   -0.3927    2.6615 C   0  0  0  0  0  0  0  0  0  0  0  0
   -0.3103    0.5977    2.9312 O   0  0  0  0  0  0  0  0  0  0  0  0
    0.6847   -1.2593    3.6378 O   0  0  0  0  0  0  0  0  0  0  0  0
    0.2778   -0.9216    4.4363 H   0  0  0  0  0  0  0  0  0  0  0  0
    0.6955   -0.3839   -1.2404 C   0  0  0  0  0  0  0  0  0  0  0  0
    0.5285   -1.4043   -1.9071 O   0  0  0  0  0  0  0  0  0  0  0  0
    1.4766    0.6198   -1.6551 N   0  0  0  0  0  0  0  0  0  0  0  0
    1.6132    1.3987   -1.0190 H   0  0  0  0  0  0  0  0  0  0  0  0
    2.1971    0.6340   -2.9264 C   0  0  0  0  0  0  0  0  0  0  0  0
    1.5069    0.4156   -3.7442 H   0  0  0  0  0  0  0  0  0  0  0  0
    2.6503    1.6126   -3.0898 H   0  0  0  0  0  0  0  0  0  0  0  0
    2.9780   -0.1285   -2.9160 H   0  0  0  0  0  0  0  0  0  0  0  0
  5  6  2  0  0  0  0
  5  7  1  0  0  0  0
  2  3  1  0  0  0  0
  2  4  1  0  0  0  0
  2  5  1  0  0  0  0
  1  2  1  0  0  0  0
 18 19  2  0  0  0  0
 18 20  1  0  0  0  0
 16 17  1  0  0  0  0
 14 15  2  0  0  0  0
 14 16  1  0  0  0  0
 11 12  1  0  0  0  0
 11 13  1  0  0  0  0
 11 14  1  0  0  0  0
  9 10  1  0  0  0  0
  9 11  1  0  0  0  0
  9 18  1  0  0  0  0
  7  8  1  0  0  0  0
  7  9  1  0  0  0  0
 22 23  1  0  0  0  0
 22 24  1  0  0  0  0
 22 25  1  0  0  0  0
 20 21  1  0  0  0  0
 20 22  1  0  0  0  0
M  END
$$$$
default_name
  -OEChem-01062215323D

 25 24  0     1  0  0  0  0  0999 V2000
   -2.7826   -3.8464    0.7821 H   0  0  0  0  0  0  0  0  0  0  0  0
   -2.8156   -2.8034    0.4711 C   0  0  0  0  0  0  0  0  0  0  0  0
   -3.4336   -2.2354    1.1641 H   0  0  0  0  0  0  0  0  0  0  0  0
   -3.2256   -2.7344   -0.5349 H   0  0  0  0  0  0  0  0  0  0  0  0
   -1.4126   -2.2444    0.4801 C   0  0  0  0  0  0  0  0  0  0  0  0
   -0.4686   -2.9534    0.8001 O   0  0  0  0  0  0  0  0  0  0  0  0
   -1.2736   -0.9704    0.1241 N   0  0  0  0  0  0  0  0  0  0  0  0
   -2.0996   -0.4354   -0.1019 H   0  0  0  0  0  0  0  0  0  0  0  0
   -0.0016   -0.2394    0.1271 C   0  0  1  0  0  0  0  0  0  0  0  0
   -0.2112    0.8195    0.2941 H   0  0  0  0  0  0  0  0  0  0  0  0
    0.8836   -0.7586    1.2773 C   0  0  0  0  0  0  0  0  0  0  0  0
    0.9350   -1.8471    1.2329 H   0  0  0  0  0  0  0  0  0  0  0  0
    1.8966   -0.3705    1.1650 H   0  0  0  0  0  0  0  0  0  0  0  0
    0.3564   -0.3927    2.6615 C   0  0  0  0  0  0  0  0  0  0  0  0
   -0.3103    0.5977    2.9312 O   0  0  0  0  0  0  0  0  0  0  0  0
    0.6847   -1.2593    3.6378 O   0  0  0  0  0  0  0  0  0  0  0  0
    0.2778   -0.9216    4.4363 H   0  0  0  0  0  0  0  0  0  0  0  0
    0.6955   -0.3839   -1.2404 C   0  0  0  0  0  0  0  0  0  0  0  0
    0.3255   -1.2552   -2.0264 O   0  0  0  0  0  0  0  0  0  0  0  0
    1.7001    0.4528   -1.5235 N   0  0  0  0  0  0  0  0  0  0  0  0
    1.9865    1.1012   -0.7972 H   0  0  0  0  0  0  0  0  0  0  0  0
    2.4526    0.4452   -2.7762 C   0  0  0  0  0  0  0  0  0  0  0  0
    1.7622    0.4871   -3.6215 H   0  0  0  0  0  0  0  0  0  0  0  0
    3.1229    1.3047   -2.8164 H   0  0  0  0  0  0  0  0  0  0  0  0
    3.0379   -0.4731   -2.8490 H   0  0  0  0  0  0  0  0  0  0  0  0
  5  6  2  0  0  0  0
  5  7  1  0  0  0  0
  2  3  1  0  0  0  0
  2  4  1  0  0  0  0
  2  5  1  0  0  0  0
  1  2  1  0  0  0  0
 18 19  2  0  0  0  0
 18 20  1  0  0  0  0
 16 17  1  0  0  0  0
 14 15  2  0  0  0  0
 14 16  1  0  0  0  0
 11 12  1  0  0  0  0
 11 13  1  0  0  0  0
 11 14  1  0  0  0  0
  9 10  1  0  0  0  0
  9 11  1  0  0  0  0
  9 18  1  0  0  0  0
  7  8  1  0  0  0  0
  7  9  1  0  0  0  0
 22 23  1  0  0  0  0
 22 24  1  0  0  0  0
 22 25  1  0  0  0  0
 20 21  1  0  0  0  0
 20 22  1  0  0  0  0
M  END
$$$$
default_name
  -OEChem-01062215323D

 25 24  0     1  0  0  0  0  0999 V2000
   -2.7826   -3.8464    0.7821 H   0  0  0  0  0  0  0  0  0  0  0  0
   -2.8156   -2.8034    0.4711 C   0  0  0  0  0  0  0  0  0  0  0  0
   -3.4336   -2.2354    1.1641 H   0  0  0  0  0  0  0  0  0  0  0  0
   -3.2256   -2.7344   -0.5349 H   0  0  0  0  0  0  0  0  0  0  0  0
   -1.4126   -2.2444    0.4801 C   0  0  0  0  0  0  0  0  0  0  0  0
   -0.4686   -2.9534    0.8001 O   0  0  0  0  0  0  0  0  0  0  0  0
   -1.2736   -0.9704    0.1241 N   0  0  0  0  0  0  0  0  0  0  0  0
   -2.0996   -0.4354   -0.1019 H   0  0  0  0  0  0  0  0  0  0  0  0
   -0.0016   -0.2394    0.1271 C   0  0  1  0  0  0  0  0  0  0  0  0
   -0.1728    0.7517    0.5531 H   0  0  0  0  0  0  0  0  0  0  0  0
    1.0171   -0.9898    1.0075 C   0  0  0  0  0  0  0  0  0  0  0  0
    1.0469   -2.0398    0.7136 H   0  0  0  0  0  0  0  0  0  0  0  0
    2.0126   -0.5710    0.8556 H   0  0  0  0  0  0  0  0  0  0  0  0
    0.6782   -0.9520    2.4946 C   0  0  0  0  0  0  0  0  0  0  0  0
    0.0660   -0.0576    3.0633 O   0  0  0  0  0  0  0  0  0  0  0  0
    1.1174   -2.0105    3.2008 O   0  0  0  0  0  0  0  0  0  0  0  0
    0.8218   -1.8667    4.1004 H   0  0  0  0  0  0  0  0  0  0  0  0
    0.5111   -0.0628   -1.3161 C   0  0  0  0  0  0  0  0  0  0  0  0
   -0.1374   -0.5210   -2.2559 O   0  0  0  0  0  0  0  0  0  0  0  0
    1.6668    0.5865   -1.4958 N   0  0  0  0  0  0  0  0  0  0  0  0
    2.1727    0.8778   -0.6657 H   0  0  0  0  0  0  0  0  0  0  0  0
    2.2780    0.8386   -2.7990 C   0  0  0  0  0  0  0  0  0  0  0  0
    1.5490    1.3067   -3.4641 H   0  0  0  0  0  0  0  0  0  0  0  0
    3.1393    1.4986   -2.6880 H   0  0  0  0  0  0  0  0  0  0  0  0
    2.6006   -0.1045   -3.2435 H   0  0  0  0  0  0  0  0  0  0  0  0
  5  6  2  0  0  0  0
  5  7  1  0  0  0  0
  2  3  1  0  0  0  0
  2  4  1  0  0  0  0
  2  5  1  0  0  0  0
  1  2  1  0  0  0  0
 18 19  2  0  0  0  0
 18 20  1  0  0  0  0
 16 17  1  0  0  0  0
 14 15  2  0  0  0  0
 14 16  1  0  0  0  0
 11 12  1  0  0  0  0
 11 13  1  0  0  0  0
 11 14  1  0  0  0  0
  9 10  1  0  0  0  0
  9 11  1  0  0  0  0
  9 18  1  0  0  0  0
  7  8  1  0  0  0  0
  7  9  1  0  0  0  0
 22 23  1  0  0  0  0
 22 24  1  0  0  0  0
 22 25  1  0  0  0  0
 20 21  1  0  0  0  0
 20 22  1  0  0  0  0
M  END
$$$$
default_name
  -OEChem-01062215323D

 25 24  0     1  0  0  0  0  0999 V2000
   -2.7826   -3.8464    0.7821 H   0  0  0  0  0  0  0  0  0  0  0  0
   -2.8156   -2.8034    0.4711 C   0  0  0  0  0  0  0  0  0  0  0  0
   -3.4336   -2.2354    1.1641 H   0  0  0  0  0  0  0  0  0  0  0  0
   -3.2256   -2.7344   -0.5349 H   0  0  0  0  0  0  0  0  0  0  0  0
   -1.4126   -2.2444    0.4801 C   0  0  0  0  0  0  0  0  0  0  0  0
   -0.4686   -2.9534    0.8001 O   0  0  0  0  0  0  0  0  0  0  0  0
   -1.2736   -0.9704    0.1241 N   0  0  0  0  0  0  0  0  0  0  0  0
   -2.0996   -0.4354   -0.1019 H   0  0  0  0  0  0  0  0  0  0  0  0
   -0.0016   -0.2394    0.1271 C   0  0  1  0  0  0  0  0  0  0  0  0
   -0.1728    0.7517    0.5531 H   0  0  0  0  0  0  0  0  0  0  0  0
    1.0171   -0.9898    1.0075 C   0  0  0  0  0  0  0  0  0  0  0  0
    1.0469   -2.0398    0.7136 H   0  0  0  0  0  0  0  0  0  0  0  0
    2.0126   -0.5710    0.8556 H   0  0  0  0  0  0  0  0  0  0  0  0
    0.6782   -0.9520    2.4946 C   0  0  0  0  0  0  0  0  0  0  0  0
    0.0660   -0.0576    3.0633 O   0  0  0  0  0  0  0  0  0  0  0  0
    1.1174   -2.0105    3.2008 O   0  0  0  0  0  0  0  0  0  0  0  0
    0.8218   -1.8667    4.1004 H   0  0  0  0  0  0  0  0  0  0  0  0
    0.5111   -0.0628   -1.3161 C   0  0  0  0  0  0  0  0  0  0  0  0
   -0.2473   -0.2650   -2.2635 O   0  0  0  0  0  0  0  0  0  0  0  0
    1.7865    0.3023   -1.4880 N   0  0  0  0  0  0  0  0  0  0  0  0
    2.3639    0.3874   -0.6578 H   0  0  0  0  0  0  0  0  0  0  0  0
    2.4158    0.5156   -2.7896 C   0  0  0  0  0  0  0  0  0  0  0  0
    1.8102    1.2033   -3.3839 H   0  0  0  0  0  0  0  0  0  0  0  0
    3.4138    0.9359   -2.6593 H   0  0  0  0  0  0  0  0  0  0  0  0
    2.4904   -0.4337   -3.3229 H   0  0  0  0  0  0  0  0  0  0  0  0
  5  6  2  0  0  0  0
  5  7  1  0  0  0  0
  2  3  1  0  0  0  0
  2  4  1  0  0  0  0
  2  5  1  0  0  0  0
  1  2  1  0  0  0  0
 18 19  2  0  0  0  0
 18 20  1  0  0  0  0
 16 17  1  0  0  0  0
 14 15  2  0  0  0  0
 14 16  1  0  0  0  0
 11 12  1  0  0  0  0
 11 13  1  0  0  0  0
 11 14  1  0  0  0  0
  9 10  1  0  0  0  0
  9 11  1  0  0  0  0
  9 18  1  0  0  0  0
  7  8  1  0  0  0  0
  7  9  1  0  0  0  0
 22 23  1  0  0  0  0
 22 24  1  0  0  0  0
 22 25  1  0  0  0  0
 20 21  1  0  0  0  0
 20 22  1  0  0  0  0
M  END
$$$$
default_name
  -OEChem-01062215323D

 25 24  0     1  0  0  0  0  0999 V2000
   -2.7826   -3.8464    0.7821 H   0  0  0  0  0  0  0  0  0  0  0  0
   -2.8156   -2.8034    0.4711 C   0  0  0  0  0  0  0  0  0  0  0  0
   -3.4336   -2.2354    1.1641 H   0  0  0  0  0  0  0  0  0  0  0  0
   -3.2256   -2.7344   -0.5349 H   0  0  0  0  0  0  0  0  0  0  0  0
   -1.4126   -2.2444    0.4801 C   0  0  0  0  0  0  0  0  0  0  0  0
   -0.4686   -2.9534    0.8001 O   0  0  0  0  0  0  0  0  0  0  0  0
   -1.2736   -0.9704    0.1241 N   0  0  0  0  0  0  0  0  0  0  0  0
   -2.0996   -0.4354   -0.1019 H   0  0  0  0  0  0  0  0  0  0  0  0
   -0.0016   -0.2394    0.1271 C   0  0  1  0  0  0  0  0  0  0  0  0
   -0.1728    0.7517    0.5531 H   0  0  0  0  0  0  0  0  0  0  0  0
    1.0171   -0.9898    1.0075 C   0  0  0  0  0  0  0  0  0  0  0  0
    1.0469   -2.0398    0.7136 H   0  0  0  0  0  0  0  0  0  0  0  0
    2.0126   -0.5710    0.8556 H   0  0  0  0  0  0  0  0  0  0  0  0
    0.6782   -0.9520    2.4946 C   0  0  0  0  0  0  0  0  0  0  0  0
    0.0660   -0.0576    3.0633 O   0  0  0  0  0  0  0  0  0  0  0  0
    1.1174   -2.0105    3.2008 O   0  0  0  0  0  0  0  0  0  0  0  0
    0.8218   -1.8667    4.1004 H   0  0  0  0  0  0  0  0  0  0  0  0
    0.5111   -0.0628   -1.3161 C   0  0  0  0  0  0  0  0  0  0  0  0
   -0.2916    0.0096   -2.2457 O   0  0  0  0  0  0  0  0  0  0  0  0
    1.8335   -0.0019   -1.5086 N   0  0  0  0  0  0  0  0  0  0  0  0
    2.4299   -0.1333   -0.6980 H   0  0  0  0  0  0  0  0  0  0  0  0
    2.4709    0.1694   -2.8124 C   0  0  0  0  0  0  0  0  0  0  0  0
    2.0398    1.0332   -3.3232 H   0  0  0  0  0  0  0  0  0  0  0  0
    3.5435    0.3233   -2.6882 H   0  0  0  0  0  0  0  0  0  0  0  0
    2.3018   -0.7181   -3.4247 H   0  0  0  0  0  0  0  0  0  0  0  0
  5  6  2  0  0  0  0
  5  7  1  0  0  0  0
  2  3  1  0  0  0  0
  2  4  1  0  0  0  0
  2  5  1  0  0  0  0
  1  2  1  0  0  0  0
 18 19  2  0  0  0  0
 18 20  1  0  0  0  0
 16 17  1  0  0  0  0
 14 15  2  0  0  0  0
 14 16  1  0  0  0  0
 11 12  1  0  0  0  0
 11 13  1  0  0  0  0
 11 14  1  0  0  0  0
  9 10  1  0  0  0  0
  9 11  1  0  0  0  0
  9 18  1  0  0  0  0
  7  8  1  0  0  0  0
  7  9  1  0  0  0  0
 22 23  1  0  0  0  0
 22 24  1  0  0  0  0
 22 25  1  0  0  0  0
 20 21  1  0  0  0  0
 20 22  1  0  0  0  0
M  END
$$$$
default_name
  -OEChem-01062215323D

 25 24  0     1  0  0  0  0  0999 V2000
   -2.7826   -3.8464    0.7821 H   0  0  0  0  0  0  0  0  0  0  0  0
   -2.8156   -2.8034    0.4711 C   0  0  0  0  0  0  0  0  0  0  0  0
   -3.4336   -2.2354    1.1641 H   0  0  0  0  0  0  0  0  0  0  0  0
   -3.2256   -2.7344   -0.5349 H   0  0  0  0  0  0  0  0  0  0  0  0
   -1.4126   -2.2444    0.4801 C   0  0  0  0  0  0  0  0  0  0  0  0
   -0.4686   -2.9534    0.8001 O   0  0  0  0  0  0  0  0  0  0  0  0
   -1.2736   -0.9704    0.1241 N   0  0  0  0  0  0  0  0  0  0  0  0
   -2.0996   -0.4354   -0.1019 H   0  0  0  0  0  0  0  0  0  0  0  0
   -0.0016   -0.2394    0.1271 C   0  0  1  0  0  0  0  0  0  0  0  0
   -0.1728    0.7517    0.5531 H   0  0  0  0  0  0  0  0  0  0  0  0
    1.0171   -0.9898    1.0075 C   0  0  0  0  0  0  0  0  0  0  0  0
    1.0469   -2.0398    0.7136 H   0  0  0  0  0  0  0  0  0  0  0  0
    2.0126   -0.5710    0.8556 H   0  0  0  0  0  0  0  0  0  0  0  0
    0.6782   -0.9520    2.4946 C   0  0  0  0  0  0  0  0  0  0  0  0
    0.0660   -0.0576    3.0633 O   0  0  0  0  0  0  0  0  0  0  0  0
    1.1174   -2.0105    3.2008 O   0  0  0  0  0  0  0  0  0  0  0  0
    0.8218   -1.8667    4.1004 H   0  0  0  0  0  0  0  0  0  0  0  0
    0.5111   -0.0628   -1.3161 C   0  0  0  0  0  0  0  0  0  0  0  0
   -0.2673    0.2840   -2.2035 O   0  0  0  0  0  0  0  0  0  0  0  0
    1.8046   -0.3054   -1.5560 N   0  0  0  0  0  0  0  0  0  0  0  0
    2.3663   -0.6488   -0.7837 H   0  0  0  0  0  0  0  0  0  0  0  0
    2.4395   -0.1765   -2.8659 C   0  0  0  0  0  0  0  0  0  0  0  0
    2.2222    0.8080   -3.2859 H   0  0  0  0  0  0  0  0  0  0  0  0
    3.5195   -0.2973   -2.7727 H   0  0  0  0  0  0  0  0  0  0  0  0
    2.0478   -0.9384   -3.5420 H   0  0  0  0  0  0  0  0  0  0  0  0
  5  6  2  0  0  0  0
  5  7  1  0  0  0  0
  2  3  1  0  0  0  0
  2  4  1  0  0  0  0
  2  5  1  0  0  0  0
  1  2  1  0  0  0  0
 18 19  2  0  0  0  0
 18 20  1  0  0  0  0
 16 17  1  0  0  0  0
 14 15  2  0  0  0  0
 14 16  1  0  0  0  0
 11 12  1  0  0  0  0
 11 13  1  0  0  0  0
 11 14  1  0  0  0  0
  9 10  1  0  0  0  0
  9 11  1  0  0  0  0
  9 18  1  0  0  0  0
  7  8  1  0  0  0  0
  7  9  1  0  0  0  0
 22 23  1  0  0  0  0
 22 24  1  0  0  0  0
 22 25  1  0  0  0  0
 20 21  1  0  0  0  0
 20 22  1  0  0  0  0
M  END
$$$$
default_name
  -OEChem-01062215323D

 25 24  0     1  0  0  0  0  0999 V2000
   -2.7826   -3.8464    0.7821 H   0  0  0  0  0  0  0  0  0  0  0  0
   -2.8156   -2.8034    0.4711 C   0  0  0  0  0  0  0  0  0  0  0  0
   -3.4336   -2.2354    1.1641 H   0  0  0  0  0  0  0  0  0  0  0  0
   -3.2256   -2.7344   -0.5349 H   0  0  0  0  0  0  0  0  0  0  0  0
   -1.4126   -2.2444    0.4801 C   0  0  0  0  0  0  0  0  0  0  0  0
   -0.4686   -2.9534    0.8001 O   0  0  0  0  0  0  0  0  0  0  0  0
   -1.2736   -0.9704    0.1241 N   0  0  0  0  0  0  0  0  0  0  0  0
   -2.0996   -0.4354   -0.1019 H   0  0  0  0  0  0  0  0  0  0  0  0
   -0.0016   -0.2394    0.1271 C   0  0  1  0  0  0  0  0  0  0  0  0
   -0.1728    0.7517    0.5531 H   0  0  0  0  0  0  0  0  0  0  0  0
    1.0171   -0.9898    1.0075 C   0  0  0  0  0  0  0  0  0  0  0  0
    1.0469   -2.0398    0.7136 H   0  0  0  0  0  0  0  0  0  0  0  0
    2.0126   -0.5710    0.8556 H   0  0  0  0  0  0  0  0  0  0  0  0
    0.6782   -0.9520    2.4946 C   0  0  0  0  0  0  0  0  0  0  0  0
    0.0660   -0.0576    3.0633 O   0  0  0  0  0  0  0  0  0  0  0  0
    1.1174   -2.0105    3.2008 O   0  0  0  0  0  0  0  0  0  0  0  0
    0.8218   -1.8667    4.1004 H   0  0  0  0  0  0  0  0  0  0  0  0
    0.5111   -0.0628   -1.3161 C   0  0  0  0  0  0  0  0  0  0  0  0
   -0.1762    0.5395   -2.1398 O   0  0  0  0  0  0  0  0  0  0  0  0
    1.7017   -0.5874   -1.6271 N   0  0  0  0  0  0  0  0  0  0  0  0
    2.1775   -1.1239   -0.9090 H   0  0  0  0  0  0  0  0  0  0  0  0
    2.3239   -0.4983   -2.9464 C   0  0  0  0  0  0  0  0  0  0  0  0
    2.3450    0.5431   -3.2747 H   0  0  0  0  0  0  0  0  0  0  0  0
    3.3435   -0.8837   -2.9070 H   0  0  0  0  0  0  0  0  0  0  0  0
    1.7455   -1.0796   -3.6666 H   0  0  0  0  0  0  0  0  0  0  0  0
  5  6  2  0  0  0  0
  5  7  1  0  0  0  0
  2  3  1  0  0  0  0
  2  4  1  0  0  0  0
  2  5  1  0  0  0  0
  1  2  1  0  0  0  0
 18 19  2  0  0  0  0
 18 20  1  0  0  0  0
 16 17  1  0  0  0  0
 14 15  2  0  0  0  0
 14 16  1  0  0  0  0
 11 12  1  0  0  0  0
 11 13  1  0  0  0  0
 11 14  1  0  0  0  0
  9 10  1  0  0  0  0
  9 11  1  0  0  0  0
  9 18  1  0  0  0  0
  7  8  1  0  0  0  0
  7  9  1  0  0  0  0
 22 23  1  0  0  0  0
 22 24  1  0  0  0  0
 22 25  1  0  0  0  0
 20 21  1  0  0  0  0
 20 22  1  0  0  0  0
M  END
$$$$
default_name
  -OEChem-01062215323D

 25 24  0     1  0  0  0  0  0999 V2000
   -2.7826   -3.8464    0.7821 H   0  0  0  0  0  0  0  0  0  0  0  0
   -2.8156   -2.8034    0.4711 C   0  0  0  0  0  0  0  0  0  0  0  0
   -3.4336   -2.2354    1.1641 H   0  0  0  0  0  0  0  0  0  0  0  0
   -3.2256   -2.7344   -0.5349 H   0  0  0  0  0  0  0  0  0  0  0  0
   -1.4126   -2.2444    0.4801 C   0  0  0  0  0  0  0  0  0  0  0  0
   -0.4686   -2.9534    0.8001 O   0  0  0  0  0  0  0  0  0  0  0  0
   -1.2736   -0.9704    0.1241 N   0  0  0  0  0  0  0  0  0  0  0  0
   -2.0996   -0.4354   -0.1019 H   0  0  0  0  0  0  0  0  0  0  0  0
   -0.0016   -0.2394    0.1271 C   0  0  1  0  0  0  0  0  0  0  0  0
   -0.1728    0.7517    0.5531 H   0  0  0  0  0  0  0  0  0  0  0  0
    1.0171   -0.9898    1.0075 C   0  0  0  0  0  0  0  0  0  0  0  0
    1.0469   -2.0398    0.7136 H   0  0  0  0  0  0  0  0  0  0  0  0
    2.0126   -0.5710    0.8556 H   0  0  0  0  0  0  0  0  0  0  0  0
    0.6782   -0.9520    2.4946 C   0  0  0  0  0  0  0  0  0  0  0  0
    0.0660   -0.0576    3.0633 O   0  0  0  0  0  0  0  0  0  0  0  0
    1.1174   -2.0105    3.2008 O   0  0  0  0  0  0  0  0  0  0  0  0
    0.8218   -1.8667    4.1004 H   0  0  0  0  0  0  0  0  0  0  0  0
    0.5111   -0.0628   -1.3161 C   0  0  0  0  0  0  0  0  0  0  0  0
   -0.0243    0.7588   -2.0590 O   0  0  0  0  0  0  0  0  0  0  0  0
    1.5320   -0.8288   -1.7169 N   0  0  0  0  0  0  0  0  0  0  0  0
    1.8763   -1.5264   -1.0652 H   0  0  0  0  0  0  0  0  0  0  0  0
    2.1318   -0.7742   -3.0484 C   0  0  0  0  0  0  0  0  0  0  0  0
    2.3997    0.2566   -3.2904 H   0  0  0  0  0  0  0  0  0  0  0  0
    3.0274   -1.3959   -3.0820 H   0  0  0  0  0  0  0  0  0  0  0  0
    1.4157   -1.1320   -3.7902 H   0  0  0  0  0  0  0  0  0  0  0  0
  5  6  2  0  0  0  0
  5  7  1  0  0  0  0
  2  3  1  0  0  0  0
  2  4  1  0  0  0  0
  2  5  1  0  0  0  0
  1  2  1  0  0  0  0
 18 19  2  0  0  0  0
 18 20  1  0  0  0  0
 16 17  1  0  0  0  0
 14 15  2  0  0  0  0
 14 16  1  0  0  0  0
 11 12  1  0  0  0  0
 11 13  1  0  0  0  0
 11 14  1  0  0  0  0
  9 10  1  0  0  0  0
  9 11  1  0  0  0  0
  9 18  1  0  0  0  0
  7  8  1  0  0  0  0
  7  9  1  0  0  0  0
 22 23  1  0  0  0  0
 22 24  1  0  0  0  0
 22 25  1  0  0  0  0
 20 21  1  0  0  0  0
 20 22  1  0  0  0  0
M  END
$$$$
default_name
  -OEChem-01062215323D

 25 24  0     1  0  0  0  0  0999 V2000
   -2.7826   -3.8464    0.7821 H   0  0  0  0  0  0  0  0  0  0  0  0
   -2.8156   -2.8034    0.4711 C   0  0  0  0  0  0  0  0  0  0  0  0
   -3.4336   -2.2354    1.1641 H   0  0  0  0  0  0  0  0  0  0  0  0
   -3.2256   -2.7344   -0.5349 H   0  0  0  0  0  0  0  0  0  0  0  0
   -1.4126   -2.2444    0.4801 C   0  0  0  0  0  0  0  0  0  0  0  0
   -0.4686   -2.9534    0.8001 O   0  0  0  0  0  0  0  0  0  0  0  0
   -1.2736   -0.9704    0.1241 N   0  0  0  0  0  0  0  0  0  0  0  0
   -2.0996   -0.4354   -0.1019 H   0  0  0  0  0  0  0  0  0  0  0  0
   -0.0016   -0.2394    0.1271 C   0  0  1  0  0  0  0  0  0  0  0  0
   -0.1728    0.7517    0.5531 H   0  0  0  0  0  0  0  0  0  0  0  0
    1.0171   -0.9898    1.0075 C   0  0  0  0  0  0  0  0  0  0  0  0
    1.0469   -2.0398    0.7136 H   0  0  0  0  0  0  0  0  0  0  0  0
    2.0126   -0.5710    0.8556 H   0  0  0  0  0  0  0  0  0  0  0  0
    0.6782   -0.9520    2.4946 C   0  0  0  0  0  0  0  0  0  0  0  0
    0.0660   -0.0576    3.0633 O   0  0  0  0  0  0  0  0  0  0  0  0
    1.1174   -2.0105    3.2008 O   0  0  0  0  0  0  0  0  0  0  0  0
    0.8218   -1.8667    4.1004 H   0  0  0  0  0  0  0  0  0  0  0  0
    0.5111   -0.0628   -1.3161 C   0  0  0  0  0  0  0  0  0  0  0  0
    0.1779    0.9268   -1.9666 O   0  0  0  0  0  0  0  0  0  0  0  0
    1.3068   -1.0131   -1.8195 N   0  0  0  0  0  0  0  0  0  0  0  0
    1.4832   -1.8287   -1.2419 H   0  0  0  0  0  0  0  0  0  0  0  0
    1.8764   -0.9854   -3.1649 C   0  0  0  0  0  0  0  0  0  0  0  0
    2.3826   -0.0321   -3.3318 H   0  0  0  0  0  0  0  0  0  0  0  0
    2.5928   -1.7990   -3.2858 H   0  0  0  0  0  0  0  0  0  0  0  0
    1.0807   -1.0920   -3.9043 H   0  0  0  0  0  0  0  0  0  0  0  0
  5  6  2  0  0  0  0
  5  7  1  0  0  0  0
  2  3  1  0  0  0  0
  2  4  1  0  0  0  0
  2  5  1  0  0  0  0
  1  2  1  0  0  0  0
 18 19  2  0  0  0  0
 18 20  1  0  0  0  0
 16 17  1  0  0  0  0
 14 15  2  0  0  0  0
 14 16  1  0  0  0  0
 11 12  1  0  0  0  0
 11 13  1  0  0  0  0
 11 14  1  0  0  0  0
  9 10  1  0  0  0  0
  9 11  1  0  0  0  0
  9 18  1  0  0  0  0
  7  8  1  0  0  0  0
  7  9  1  0  0  0  0
 22 23  1  0  0  0  0
 22 24  1  0  0  0  0
 22 25  1  0  0  0  0
 20 21  1  0  0  0  0
 20 22  1  0  0  0  0
M  END
$$$$
default_name
  -OEChem-01062215323D

 25 24  0     1  0  0  0  0  0999 V2000
   -2.7826   -3.8464    0.7821 H   0  0  0  0  0  0  0  0  0  0  0  0
   -2.8156   -2.8034    0.4711 C   0  0  0  0  0  0  0  0  0  0  0  0
   -3.4336   -2.2354    1.1641 H   0  0  0  0  0  0  0  0  0  0  0  0
   -3.2256   -2.7344   -0.5349 H   0  0  0  0  0  0  0  0  0  0  0  0
   -1.4126   -2.2444    0.4801 C   0  0  0  0  0  0  0  0  0  0  0  0
   -0.4686   -2.9534    0.8001 O   0  0  0  0  0  0  0  0  0  0  0  0
   -1.2736   -0.9704    0.1241 N   0  0  0  0  0  0  0  0  0  0  0  0
   -2.0996   -0.4354   -0.1019 H   0  0  0  0  0  0  0  0  0  0  0  0
   -0.0016   -0.2394    0.1271 C   0  0  1  0  0  0  0  0  0  0  0  0
   -0.1728    0.7517    0.5531 H   0  0  0  0  0  0  0  0  0  0  0  0
    1.0171   -0.9898    1.0075 C   0  0  0  0  0  0  0  0  0  0  0  0
    1.0469   -2.0398    0.7136 H   0  0  0  0  0  0  0  0  0  0  0  0
    2.0126   -0.5710    0.8556 H   0  0  0  0  0  0  0  0  0  0  0  0
    0.6782   -0.9520    2.4946 C   0  0  0  0  0  0  0  0  0  0  0  0
    0.0660   -0.0576    3.0633 O   0  0  0  0  0  0  0  0  0  0  0  0
    1.1174   -2.0105    3.2008 O   0  0  0  0  0  0  0  0  0  0  0  0
    0.8218   -1.8667    4.1004 H   0  0  0  0  0  0  0  0  0  0  0  0
    0.5111   -0.0628   -1.3161 C   0  0  0  0  0  0  0  0  0  0  0  0
    0.4166    1.0322   -1.8689 O   0  0  0  0  0  0  0  0  0  0  0  0
    1.0416   -1.1277   -1.9277 N   0  0  0  0  0  0  0  0  0  0  0  0
    1.0250   -2.0102   -1.4269 H   0  0  0  0  0  0  0  0  0  0  0  0
    1.5751   -1.1175   -3.2882 C   0  0  0  0  0  0  0  0  0  0  0  0
    2.2950   -0.3033   -3.3961 H   0  0  0  0  0  0  0  0  0  0  0  0
    2.0693   -2.0655   -3.5044 H   0  0  0  0  0  0  0  0  0  0  0  0
    0.7634   -0.9624   -4.0012 H   0  0  0  0  0  0  0  0  0  0  0  0
  5  6  2  0  0  0  0
  5  7  1  0  0  0  0
  2  3  1  0  0  0  0
  2  4  1  0  0  0  0
  2  5  1  0  0  0  0
  1  2  1  0  0  0  0
 18 19  2  0  0  0  0
 18 20  1  0  0  0  0
 16 17  1  0  0  0  0
 14 15  2  0  0  0  0
 14 16  1  0  0  0  0
 11 12  1  0  0  0  0
 11 13  1  0  0  0  0
 11 14  1  0  0  0  0
  9 10  1  0  0  0  0
  9 11  1  0  0  0  0
  9 18  1  0  0  0  0
  7  8  1  0  0  0  0
  7  9  1  0  0  0  0
 22 23  1  0  0  0  0
 22 24  1  0  0  0  0
 22 25  1  0  0  0  0
 20 21  1  0  0  0  0
 20 22  1  0  0  0  0
M  END
$$$$
default_name
  -OEChem-01062215323D

 25 24  0     1  0  0  0  0  0999 V2000
   -2.7826   -3.8464    0.7821 H   0  0  0  0  0  0  0  0  0  0  0  0
   -2.8156   -2.8034    0.4711 C   0  0  0  0  0  0  0  0  0  0  0  0
   -3.4336   -2.2354    1.1641 H   0  0  0  0  0  0  0  0  0  0  0  0
   -3.2256   -2.7344   -0.5349 H   0  0  0  0  0  0  0  0  0  0  0  0
   -1.4126   -2.2444    0.4801 C   0  0  0  0  0  0  0  0  0  0  0  0
   -0.4686   -2.9534    0.8001 O   0  0  0  0  0  0  0  0  0  0  0  0
   -1.2736   -0.9704    0.1241 N   0  0  0  0  0  0  0  0  0  0  0  0
   -2.0996   -0.4354   -0.1019 H   0  0  0  0  0  0  0  0  0  0  0  0
   -0.0016   -0.2394    0.1271 C   0  0  1  0  0  0  0  0  0  0  0  0
   -0.1728    0.7517    0.5531 H   0  0  0  0  0  0  0  0  0  0  0  0
    1.0171   -0.9898    1.0075 C   0  0  0  0  0  0  0  0  0  0  0  0
    1.0469   -2.0398    0.7136 H   0  0  0  0  0  0  0  0  0  0  0  0
    2.0126   -0.5710    0.8556 H   0  0  0  0  0  0  0  0  0  0  0  0
    0.6782   -0.9520    2.4946 C   0  0  0  0  0  0  0  0  0  0  0  0
    0.0660   -0.0576    3.0633 O   0  0  0  0  0  0  0  0  0  0  0  0
    1.1174   -2.0105    3.2008 O   0  0  0  0  0  0  0  0  0  0  0  0
    0.8218   -1.8667    4.1004 H   0  0  0  0  0  0  0  0  0  0  0  0
    0.5111   -0.0628   -1.3161 C   0  0  0  0  0  0  0  0  0  0  0  0
    0.6757    1.0678   -1.7725 O   0  0  0  0  0  0  0  0  0  0  0  0
    0.7545   -1.1649   -2.0343 N   0  0  0  0  0  0  0  0  0  0  0  0
    0.5330   -2.0586   -1.6076 H   0  0  0  0  0  0  0  0  0  0  0  0
    1.2483   -1.1615   -3.4096 C   0  0  0  0  0  0  0  0  0  0  0  0
    2.1427   -0.5385   -3.4790 H   0  0  0  0  0  0  0  0  0  0  0  0
    1.4925   -2.1773   -3.7230 H   0  0  0  0  0  0  0  0  0  0  0  0
    0.4855   -0.7521   -4.0742 H   0  0  0  0  0  0  0  0  0  0  0  0
  5  6  2  0  0  0  0
  5  7  1  0  0  0  0
  2  3  1  0  0  0  0
  2  4  1  0  0  0  0
  2  5  1  0  0  0  0
  1  2  1  0  0  0  0
 18 19  2  0  0  0  0
 18 20  1  0  0  0  0
 16 17  1  0  0  0  0
 14 15  2  0  0  0  0
 14 16  1  0  0  0  0
 11 12  1  0  0  0  0
 11 13  1  0  0  0  0
 11 14  1  0  0  0  0
  9 10  1  0  0  0  0
  9 11  1  0  0  0  0
  9 18  1  0  0  0  0
  7  8  1  0  0  0  0
  7  9  1  0  0  0  0
 22 23  1  0  0  0  0
 22 24  1  0  0  0  0
 22 25  1  0  0  0  0
 20 21  1  0  0  0  0
 20 22  1  0  0  0  0
M  END
$$$$
default_name
  -OEChem-01062215323D

 25 24  0     1  0  0  0  0  0999 V2000
   -2.7826   -3.8464    0.7821 H   0  0  0  0  0  0  0  0  0  0  0  0
   -2.8156   -2.8034    0.4711 C   0  0  0  0  0  0  0  0  0  0  0  0
   -3.4336   -2.2354    1.1641 H   0  0  0  0  0  0  0  0  0  0  0  0
   -3.2256   -2.7344   -0.5349 H   0  0  0  0  0  0  0  0  0  0  0  0
   -1.4126   -2.2444    0.4801 C   0  0  0  0  0  0  0  0  0  0  0  0
   -0.4686   -2.9534    0.8001 O   0  0  0  0  0  0  0  0  0  0  0  0
   -1.2736   -0.9704    0.1241 N   0  0  0  0  0  0  0  0  0  0  0  0
   -2.0996   -0.4354   -0.1019 H   0  0  0  0  0  0  0  0  0  0  0  0
   -0.0016   -0.2394    0.1271 C   0  0  1  0  0  0  0  0  0  0  0  0
   -0.1728    0.7517    0.5531 H   0  0  0  0  0  0  0  0  0  0  0  0
    1.0171   -0.9898    1.0075 C   0  0  0  0  0  0  0  0  0  0  0  0
    1.0469   -2.0398    0.7136 H   0  0  0  0  0  0  0  0  0  0  0  0
    2.0126   -0.5710    0.8556 H   0  0  0  0  0  0  0  0  0  0  0  0
    0.6782   -0.9520    2.4946 C   0  0  0  0  0  0  0  0  0  0  0  0
    0.0660   -0.0576    3.0633 O   0  0  0  0  0  0  0  0  0  0  0  0
    1.1174   -2.0105    3.2008 O   0  0  0  0  0  0  0  0  0  0  0  0
    0.8218   -1.8667    4.1004 H   0  0  0  0  0  0  0  0  0  0  0  0
    0.5111   -0.0628   -1.3161 C   0  0  0  0  0  0  0  0  0  0  0  0
    0.9374    1.0310   -1.6841 O   0  0  0  0  0  0  0  0  0  0  0  0
    0.4650   -1.1221   -2.1319 N   0  0  0  0  0  0  0  0  0  0  0  0
    0.0406   -1.9707   -1.7718 H   0  0  0  0  0  0  0  0  0  0  0  0
    0.9185   -1.1144   -3.5210 C   0  0  0  0  0  0  0  0  0  0  0  0
    1.9362   -0.7216   -3.5748 H   0  0  0  0  0  0  0  0  0  0  0  0
    0.9019   -2.1268   -3.9266 H   0  0  0  0  0  0  0  0  0  0  0  0
    0.2659   -0.4753   -4.1183 H   0  0  0  0  0  0  0  0  0  0  0  0
  5  6  2  0  0  0  0
  5  7  1  0  0  0  0
  2  3  1  0  0  0  0
  2  4  1  0  0  0  0
  2  5  1  0  0  0  0
  1  2  1  0  0  0  0
 18 19  2  0  0  0  0
 18 20  1  0  0  0  0
 16 17  1  0  0  0  0
 14 15  2  0  0  0  0
 14 16  1  0  0  0  0
 11 12  1  0  0  0  0
 11 13  1  0  0  0  0
 11 14  1  0  0  0  0
  9 10  1  0  0  0  0
  9 11  1  0  0  0  0
  9 18  1  0  0  0  0
  7  8  1  0  0  0  0
  7  9  1  0  0  0  0
 22 23  1  0  0  0  0
 22 24  1  0  0  0  0
 22 25  1  0  0  0  0
 20 21  1  0  0  0  0
 20 22  1  0  0  0  0
M  END
$$$$
default_name
  -OEChem-01062215323D

 25 24  0     1  0  0  0  0  0999 V2000
   -2.7826   -3.8464    0.7821 H   0  0  0  0  0  0  0  0  0  0  0  0
   -2.8156   -2.8034    0.4711 C   0  0  0  0  0  0  0  0  0  0  0  0
   -3.4336   -2.2354    1.1641 H   0  0  0  0  0  0  0  0  0  0  0  0
   -3.2256   -2.7344   -0.5349 H   0  0  0  0  0  0  0  0  0  0  0  0
   -1.4126   -2.2444    0.4801 C   0  0  0  0  0  0  0  0  0  0  0  0
   -0.4686   -2.9534    0.8001 O   0  0  0  0  0  0  0  0  0  0  0  0
   -1.2736   -0.9704    0.1241 N   0  0  0  0  0  0  0  0  0  0  0  0
   -2.0996   -0.4354   -0.1019 H   0  0  0  0  0  0  0  0  0  0  0  0
   -0.0016   -0.2394    0.1271 C   0  0  1  0  0  0  0  0  0  0  0  0
   -0.1728    0.7517    0.5531 H   0  0  0  0  0  0  0  0  0  0  0  0
    1.0171   -0.9898    1.0075 C   0  0  0  0  0  0  0  0  0  0  0  0
    1.0469   -2.0398    0.7136 H   0  0  0  0  0  0  0  0  0  0  0  0
    2.0126   -0.5710    0.8556 H   0  0  0  0  0  0  0  0  0  0  0  0
    0.6782   -0.9520    2.4946 C   0  0  0  0  0  0  0  0  0  0  0  0
    0.0660   -0.0576    3.0633 O   0  0  0  0  0  0  0  0  0  0  0  0
    1.1174   -2.0105    3.2008 O   0  0  0  0  0  0  0  0  0  0  0  0
    0.8218   -1.8667    4.1004 H   0  0  0  0  0  0  0  0  0  0  0  0
    0.5111   -0.0628   -1.3161 C   0  0  0  0  0  0  0  0  0  0  0  0
    1.1839    0.9245   -1.6095 O   0  0  0  0  0  0  0  0  0  0  0  0
    0.1928   -1.0021   -2.2139 N   0  0  0  0  0  0  0  0  0  0  0  0
   -0.4185   -1.7523   -1.9081 H   0  0  0  0  0  0  0  0  0  0  0  0
    0.6080   -0.9794   -3.6148 C   0  0  0  0  0  0  0  0  0  0  0  0
    1.6895   -0.8402   -3.6769 H   0  0  0  0  0  0  0  0  0  0  0  0
    0.3376   -1.9173   -4.1014 H   0  0  0  0  0  0  0  0  0  0  0  0
    0.1194   -0.1509   -4.1306 H   0  0  0  0  0  0  0  0  0  0  0  0
  5  6  2  0  0  0  0
  5  7  1  0  0  0  0
  2  3  1  0  0  0  0
  2  4  1  0  0  0  0
  2  5  1  0  0  0  0
  1  2  1  0  0  0  0
 18 19  2  0  0  0  0
 18 20  1  0  0  0  0
 16 17  1  0  0  0  0
 14 15  2  0  0  0  0
 14 16  1  0  0  0  0
 11 12  1  0  0  0  0
 11 13  1  0  0  0  0
 11 14  1  0  0  0  0
  9 10  1  0  0  0  0
  9 11  1  0  0  0  0
  9 18  1  0  0  0  0
  7  8  1  0  0  0  0
  7  9  1  0  0  0  0
 22 23  1  0  0  0  0
 22 24  1  0  0  0  0
 22 25  1  0  0  0  0
 20 21  1  0  0  0  0
 20 22  1  0  0  0  0
M  END
$$$$
default_name
  -OEChem-01062215323D

 25 24  0     1  0  0  0  0  0999 V2000
   -2.7826   -3.8464    0.7821 H   0  0  0  0  0  0  0  0  0  0  0  0
   -2.8156   -2.8034    0.4711 C   0  0  0  0  0  0  0  0  0  0  0  0
   -3.4336   -2.2354    1.1641 H   0  0  0  0  0  0  0  0  0  0  0  0
   -3.2256   -2.7344   -0.5349 H   0  0  0  0  0  0  0  0  0  0  0  0
   -1.4126   -2.2444    0.4801 C   0  0  0  0  0  0  0  0  0  0  0  0
   -0.4686   -2.9534    0.8001 O   0  0  0  0  0  0  0  0  0  0  0  0
   -1.2736   -0.9704    0.1241 N   0  0  0  0  0  0  0  0  0  0  0  0
   -2.0996   -0.4354   -0.1019 H   0  0  0  0  0  0  0  0  0  0  0  0
   -0.0016   -0.2394    0.1271 C   0  0  1  0  0  0  0  0  0  0  0  0
   -0.1728    0.7517    0.5531 H   0  0  0  0  0  0  0  0  0  0  0  0
    1.0171   -0.9898    1.0075 C   0  0  0  0  0  0  0  0  0  0  0  0
    1.0469   -2.0398    0.7136 H   0  0  0  0  0  0  0  0  0  0  0  0
    2.0126   -0.5710    0.8556 H   0  0  0  0  0  0  0  0  0  0  0  0
    0.6782   -0.9520    2.4946 C   0  0  0  0  0  0  0  0  0  0  0  0
    0.0660   -0.0576    3.0633 O   0  0  0  0  0  0  0  0  0  0  0  0
    1.1174   -2.0105    3.2008 O   0  0  0  0  0  0  0  0  0  0  0  0
    0.8218   -1.8667    4.1004 H   0  0  0  0  0  0  0  0  0  0  0  0
    0.5111   -0.0628   -1.3161 C   0  0  0  0  0  0  0  0  0  0  0  0
    1.3984    0.7555   -1.5540 O   0  0  0  0  0  0  0  0  0  0  0  0
   -0.0434   -0.8133   -2.2747 N   0  0  0  0  0  0  0  0  0  0  0  0
   -0.8131   -1.4183   -2.0075 H   0  0  0  0  0  0  0  0  0  0  0  0
    0.3380   -0.7657   -3.6846 C   0  0  0  0  0  0  0  0  0  0  0  0
    1.4195   -0.8862   -3.7785 H   0  0  0  0  0  0  0  0  0  0  0  0
   -0.1619   -1.5632   -4.2356 H   0  0  0  0  0  0  0  0  0  0  0  0
    0.0562    0.1990   -4.1102 H   0  0  0  0  0  0  0  0  0  0  0  0
  5  6  2  0  0  0  0
  5  7  1  0  0  0  0
  2  3  1  0  0  0  0
  2  4  1  0  0  0  0
  2  5  1  0  0  0  0
  1  2  1  0  0  0  0
 18 19  2  0  0  0  0
 18 20  1  0  0  0  0
 16 17  1  0  0  0  0
 14 15  2  0  0  0  0
 14 16  1  0  0  0  0
 11 12  1  0  0  0  0
 11 13  1  0  0  0  0
 11 14  1  0  0  0  0
  9 10  1  0  0  0  0
  9 11  1  0  0  0  0
  9 18  1  0  0  0  0
  7  8  1  0  0  0  0
  7  9  1  0  0  0  0
 22 23  1  0  0  0  0
 22 24  1  0  0  0  0
 22 25  1  0  0  0  0
 20 21  1  0  0  0  0
 20 22  1  0  0  0  0
M  END
$$$$
default_name
  -OEChem-01062215323D

 25 24  0     1  0  0  0  0  0999 V2000
   -2.7826   -3.8464    0.7821 H   0  0  0  0  0  0  0  0  0  0  0  0
   -2.8156   -2.8034    0.4711 C   0  0  0  0  0  0  0  0  0  0  0  0
   -3.4336   -2.2354    1.1641 H   0  0  0  0  0  0  0  0  0  0  0  0
   -3.2256   -2.7344   -0.5349 H   0  0  0  0  0  0  0  0  0  0  0  0
   -1.4126   -2.2444    0.4801 C   0  0  0  0  0  0  0  0  0  0  0  0
   -0.4686   -2.9534    0.8001 O   0  0  0  0  0  0  0  0  0  0  0  0
   -1.2736   -0.9704    0.1241 N   0  0  0  0  0  0  0  0  0  0  0  0
   -2.0996   -0.4354   -0.1019 H   0  0  0  0  0  0  0  0  0  0  0  0
   -0.0016   -0.2394    0.1271 C   0  0  1  0  0  0  0  0  0  0  0  0
   -0.1728    0.7517    0.5531 H   0  0  0  0  0  0  0  0  0  0  0  0
    1.0171   -0.9898    1.0075 C   0  0  0  0  0  0  0  0  0  0  0  0
    1.0469   -2.0398    0.7136 H   0  0  0  0  0  0  0  0  0  0  0  0
    2.0126   -0.5710    0.8556 H   0  0  0  0  0  0  0  0  0  0  0  0
    0.6782   -0.9520    2.4946 C   0  0  0  0  0  0  0  0  0  0  0  0
    0.0660   -0.0576    3.0633 O   0  0  0  0  0  0  0  0  0  0  0  0
    1.1174   -2.0105    3.2008 O   0  0  0  0  0  0  0  0  0  0  0  0
    0.8218   -1.8667    4.1004 H   0  0  0  0  0  0  0  0  0  0  0  0
    0.5111   -0.0628   -1.3161 C   0  0  0  0  0  0  0  0  0  0  0  0
    1.5663    0.5355   -1.5213 O   0  0  0  0  0  0  0  0  0  0  0  0
   -0.2277   -0.5684   -2.3102 N   0  0  0  0  0  0  0  0  0  0  0  0
   -1.1163   -0.9916   -2.0629 H   0  0  0  0  0  0  0  0  0  0  0  0
    0.1270   -0.4878   -3.7256 C   0  0  0  0  0  0  0  0  0  0  0  0
    1.1445   -0.8565   -3.8725 H   0  0  0  0  0  0  0  0  0  0  0  0
   -0.5626   -1.0886   -4.3198 H   0  0  0  0  0  0  0  0  0  0  0  0
    0.0806    0.5505   -4.0586 H   0  0  0  0  0  0  0  0  0  0  0  0
  5  6  2  0  0  0  0
  5  7  1  0  0  0  0
  2  3  1  0  0  0  0
  2  4  1  0  0  0  0
  2  5  1  0  0  0  0
  1  2  1  0  0  0  0
 18 19  2  0  0  0  0
 18 20  1  0  0  0  0
 16 17  1  0  0  0  0
 14 15  2  0  0  0  0
 14 16  1  0  0  0  0
 11 12  1  0  0  0  0
 11 13  1  0  0  0  0
 11 14  1  0  0  0  0
  9 10  1  0  0  0  0
  9 11  1  0  0  0  0
  9 18  1  0  0  0  0
  7  8  1  0  0  0  0
  7  9  1  0  0  0  0
 22 23  1  0  0  0  0
 22 24  1  0  0  0  0
 22 25  1  0  0  0  0
 20 21  1  0  0  0  0
 20 22  1  0  0  0  0
M  END
$$$$
default_name
  -OEChem-01062215323D

 25 24  0     1  0  0  0  0  0999 V2000
   -2.7826   -3.8464    0.7821 H   0  0  0  0  0  0  0  0  0  0  0  0
   -2.8156   -2.8034    0.4711 C   0  0  0  0  0  0  0  0  0  0  0  0
   -3.4336   -2.2354    1.1641 H   0  0  0  0  0  0  0  0  0  0  0  0
   -3.2256   -2.7344   -0.5349 H   0  0  0  0  0  0  0  0  0  0  0  0
   -1.4126   -2.2444    0.4801 C   0  0  0  0  0  0  0  0  0  0  0  0
   -0.4686   -2.9534    0.8001 O   0  0  0  0  0  0  0  0  0  0  0  0
   -1.2736   -0.9704    0.1241 N   0  0  0  0  0  0  0  0  0  0  0  0
   -2.0996   -0.4354   -0.1019 H   0  0  0  0  0  0  0  0  0  0  0  0
   -0.0016   -0.2394    0.1271 C   0  0  1  0  0  0  0  0  0  0  0  0
   -0.1728    0.7517    0.5531 H   0  0  0  0  0  0  0  0  0  0  0  0
    1.0171   -0.9898    1.0075 C   0  0  0  0  0  0  0  0  0  0  0  0
    1.0469   -2.0398    0.7136 H   0  0  0  0  0  0  0  0  0  0  0  0
    2.0126   -0.5710    0.8556 H   0  0  0  0  0  0  0  0  0  0  0  0
    0.6782   -0.9520    2.4946 C   0  0  0  0  0  0  0  0  0  0  0  0
    0.0660   -0.0576    3.0633 O   0  0  0  0  0  0  0  0  0  0  0  0
    1.1174   -2.0105    3.2008 O   0  0  0  0  0  0  0  0  0  0  0  0
    0.8218   -1.8667    4.1004 H   0  0  0  0  0  0  0  0  0  0  0  0
    0.5111   -0.0628   -1.3161 C   0  0  0  0  0  0  0  0  0  0  0  0
    1.6761    0.2795   -1.5136 O   0  0  0  0  0  0  0  0  0  0  0  0
   -0.3474   -0.2842   -2.3179 N   0  0  0  0  0  0  0  0  0  0  0  0
   -1.3075   -0.5012   -2.0708 H   0  0  0  0  0  0  0  0  0  0  0  0
   -0.0108   -0.1648   -3.7350 C   0  0  0  0  0  0  0  0  0  0  0  0
    0.8832   -0.7531   -3.9527 H   0  0  0  0  0  0  0  0  0  0  0  0
   -0.8372   -0.5259   -4.3485 H   0  0  0  0  0  0  0  0  0  0  0  0
    0.1908    0.8797   -3.9791 H   0  0  0  0  0  0  0  0  0  0  0  0
  5  6  2  0  0  0  0
  5  7  1  0  0  0  0
  2  3  1  0  0  0  0
  2  4  1  0  0  0  0
  2  5  1  0  0  0  0
  1  2  1  0  0  0  0
 18 19  2  0  0  0  0
 18 20  1  0  0  0  0
 16 17  1  0  0  0  0
 14 15  2  0  0  0  0
 14 16  1  0  0  0  0
 11 12  1  0  0  0  0
 11 13  1  0  0  0  0
 11 14  1  0  0  0  0
  9 10  1  0  0  0  0
  9 11  1  0  0  0  0
  9 18  1  0  0  0  0
  7  8  1  0  0  0  0
  7  9  1  0  0  0  0
 22 23  1  0  0  0  0
 22 24  1  0  0  0  0
 22 25  1  0  0  0  0
 20 21  1  0  0  0  0
 20 22  1  0  0  0  0
M  END
$$$$
default_name
  -OEChem-01062215323D

 25 24  0     1  0  0  0  0  0999 V2000
   -2.7826   -3.8464    0.7821 H   0  0  0  0  0  0  0  0  0  0  0  0
   -2.8156   -2.8034    0.4711 C   0  0  0  0  0  0  0  0  0  0  0  0
   -3.4336   -2.2354    1.1641 H   0  0  0  0  0  0  0  0  0  0  0  0
   -3.2256   -2.7344   -0.5349 H   0  0  0  0  0  0  0  0  0  0  0  0
   -1.4126   -2.2444    0.4801 C   0  0  0  0  0  0  0  0  0  0  0  0
   -0.4686   -2.9534    0.8001 O   0  0  0  0  0  0  0  0  0  0  0  0
   -1.2736   -0.9704    0.1241 N   0  0  0  0  0  0  0  0  0  0  0  0
   -2.0996   -0.4354   -0.1019 H   0  0  0  0  0  0  0  0  0  0  0  0
   -0.0016   -0.2394    0.1271 C   0  0  1  0  0  0  0  0  0  0  0  0
   -0.1728    0.7517    0.5531 H   0  0  0  0  0  0  0  0  0  0  0  0
    1.0171   -0.9898    1.0075 C   0  0  0  0  0  0  0  0  0  0  0  0
    1.0469   -2.0398    0.7136 H   0  0  0  0  0  0  0  0  0  0  0  0
    2.0126   -0.5710    0.8556 H   0  0  0  0  0  0  0  0  0  0  0  0
    0.6782   -0.9520    2.4946 C   0  0  0  0  0  0  0  0  0  0  0  0
    0.0660   -0.0576    3.0633 O   0  0  0  0  0  0  0  0  0  0  0  0
    1.1174   -2.0105    3.2008 O   0  0  0  0  0  0  0  0  0  0  0  0
    0.8218   -1.8667    4.1004 H   0  0  0  0  0  0  0  0  0  0  0  0
    0.5111   -0.0628   -1.3161 C   0  0  0  0  0  0  0  0  0  0  0  0
    1.7205    0.0050   -1.5314 O   0  0  0  0  0  0  0  0  0  0  0  0
   -0.3944    0.0200   -2.2974 N   0  0  0  0  0  0  0  0  0  0  0  0
   -1.3735    0.0195   -2.0306 H   0  0  0  0  0  0  0  0  0  0  0  0
   -0.0659    0.1815   -3.7121 C   0  0  0  0  0  0  0  0  0  0  0  0
    0.6536   -0.5830   -4.0134 H   0  0  0  0  0  0  0  0  0  0  0  0
   -0.9669    0.0867   -4.3196 H   0  0  0  0  0  0  0  0  0  0  0  0
    0.3793    1.1642   -3.8773 H   0  0  0  0  0  0  0  0  0  0  0  0
  5  6  2  0  0  0  0
  5  7  1  0  0  0  0
  2  3  1  0  0  0  0
  2  4  1  0  0  0  0
  2  5  1  0  0  0  0
  1  2  1  0  0  0  0
 18 19  2  0  0  0  0
 18 20  1  0  0  0  0
 16 17  1  0  0  0  0
 14 15  2  0  0  0  0
 14 16  1  0  0  0  0
 11 12  1  0  0  0  0
 11 13  1  0  0  0  0
 11 14  1  0  0  0  0
  9 10  1  0  0  0  0
  9 11  1  0  0  0  0
  9 18  1  0  0  0  0
  7  8  1  0  0  0  0
  7  9  1  0  0  0  0
 22 23  1  0  0  0  0
 22 24  1  0  0  0  0
 22 25  1  0  0  0  0
 20 21  1  0  0  0  0
 20 22  1  0  0  0  0
M  END
$$$$
default_name
  -OEChem-01062215323D

 25 24  0     1  0  0  0  0  0999 V2000
   -2.7826   -3.8464    0.7821 H   0  0  0  0  0  0  0  0  0  0  0  0
   -2.8156   -2.8034    0.4711 C   0  0  0  0  0  0  0  0  0  0  0  0
   -3.4336   -2.2354    1.1641 H   0  0  0  0  0  0  0  0  0  0  0  0
   -3.2256   -2.7344   -0.5349 H   0  0  0  0  0  0  0  0  0  0  0  0
   -1.4126   -2.2444    0.4801 C   0  0  0  0  0  0  0  0  0  0  0  0
   -0.4686   -2.9534    0.8001 O   0  0  0  0  0  0  0  0  0  0  0  0
   -1.2736   -0.9704    0.1241 N   0  0  0  0  0  0  0  0  0  0  0  0
   -2.0996   -0.4354   -0.1019 H   0  0  0  0  0  0  0  0  0  0  0  0
   -0.0016   -0.2394    0.1271 C   0  0  1  0  0  0  0  0  0  0  0  0
   -0.1728    0.7517    0.5531 H   0  0  0  0  0  0  0  0  0  0  0  0
    1.0171   -0.9898    1.0075 C   0  0  0  0  0  0  0  0  0  0  0  0
    1.0469   -2.0398    0.7136 H   0  0  0  0  0  0  0  0  0  0  0  0
    2.0126   -0.5710    0.8556 H   0  0  0  0  0  0  0  0  0  0  0  0
    0.6782   -0.9520    2.4946 C   0  0  0  0  0  0  0  0  0  0  0  0
    0.0660   -0.0576    3.0633 O   0  0  0  0  0  0  0  0  0  0  0  0
    1.1174   -2.0105    3.2008 O   0  0  0  0  0  0  0  0  0  0  0  0
    0.8218   -1.8667    4.1004 H   0  0  0  0  0  0  0  0  0  0  0  0
    0.5111   -0.0628   -1.3161 C   0  0  0  0  0  0  0  0  0  0  0  0
    1.6962   -0.2694   -1.5736 O   0  0  0  0  0  0  0  0  0  0  0  0
   -0.3655    0.3235   -2.2500 N   0  0  0  0  0  0  0  0  0  0  0  0
   -1.3100    0.5350   -1.9449 H   0  0  0  0  0  0  0  0  0  0  0  0
   -0.0346    0.5273   -3.6587 C   0  0  0  0  0  0  0  0  0  0  0  0
    0.4712   -0.3578   -4.0507 H   0  0  0  0  0  0  0  0  0  0  0  0
   -0.9429    0.7073   -4.2351 H   0  0  0  0  0  0  0  0  0  0  0  0
    0.6334    1.3845   -3.7601 H   0  0  0  0  0  0  0  0  0  0  0  0
  5  6  2  0  0  0  0
  5  7  1  0  0  0  0
  2  3  1  0  0  0  0
  2  4  1  0  0  0  0
  2  5  1  0  0  0  0
  1  2  1  0  0  0  0
 18 19  2  0  0  0  0
 18 20  1  0  0  0  0
 16 17  1  0  0  0  0
 14 15  2  0  0  0  0
 14 16  1  0  0  0  0
 11 12  1  0  0  0  0
 11 13  1  0  0  0  0
 11 14  1  0  0  0  0
  9 10  1  0  0  0  0
  9 11  1  0  0  0  0
  9 18  1  0  0  0  0
  7  8  1  0  0  0  0
  7  9  1  0  0  0  0
 22 23  1  0  0  0  0
 22 24  1  0  0  0  0
 22 25  1  0  0  0  0
 20 21  1  0  0  0  0
 20 22  1  0  0  0  0
M  END
$$$$
default_name
  -OEChem-01062215323D

 25 24  0     1  0  0  0  0  0999 V2000
   -2.7826   -3.8464    0.7821 H   0  0  0  0  0  0  0  0  0  0  0  0
   -2.8156   -2.8034    0.4711 C   0  0  0  0  0  0  0  0  0  0  0  0
   -3.4336   -2.2354    1.1641 H   0  0  0  0  0  0  0  0  0  0  0  0
   -3.2256   -2.7344   -0.5349 H   0  0  0  0  0  0  0  0  0  0  0  0
   -1.4126   -2.2444    0.4801 C   0  0  0  0  0  0  0  0  0  0  0  0
   -0.4686   -2.9534    0.8001 O   0  0  0  0  0  0  0  0  0  0  0  0
   -1.2736   -0.9704    0.1241 N   0  0  0  0  0  0  0  0  0  0  0  0
   -2.0996   -0.4354   -0.1019 H   0  0  0  0  0  0  0  0  0  0  0  0
   -0.0016   -0.2394    0.1271 C   0  0  1  0  0  0  0  0  0  0  0  0
   -0.1728    0.7517    0.5531 H   0  0  0  0  0  0  0  0  0  0  0  0
    1.0171   -0.9898    1.0075 C   0  0  0  0  0  0  0  0  0  0  0  0
    1.0469   -2.0398    0.7136 H   0  0  0  0  0  0  0  0  0  0  0  0
    2.0126   -0.5710    0.8556 H   0  0  0  0  0  0  0  0  0  0  0  0
    0.6782   -0.9520    2.4946 C   0  0  0  0  0  0  0  0  0  0  0  0
    0.0660   -0.0576    3.0633 O   0  0  0  0  0  0  0  0  0  0  0  0
    1.1174   -2.0105    3.2008 O   0  0  0  0  0  0  0  0  0  0  0  0
    0.8218   -1.8667    4.1004 H   0  0  0  0  0  0  0  0  0  0  0  0
    0.5111   -0.0628   -1.3161 C   0  0  0  0  0  0  0  0  0  0  0  0
    1.6051   -0.5250   -1.6373 O   0  0  0  0  0  0  0  0  0  0  0  0
   -0.2626    0.6055   -2.1789 N   0  0  0  0  0  0  0  0  0  0  0  0
   -1.1211    1.0102   -1.8196 H   0  0  0  0  0  0  0  0  0  0  0  0
    0.0811    0.8491   -3.5782 C   0  0  0  0  0  0  0  0  0  0  0  0
    0.3485   -0.0929   -4.0619 H   0  0  0  0  0  0  0  0  0  0  0  0
   -0.7668    1.2937   -4.1008 H   0  0  0  0  0  0  0  0  0  0  0  0
    0.9356    1.5256   -3.6355 H   0  0  0  0  0  0  0  0  0  0  0  0
  5  6  2  0  0  0  0
  5  7  1  0  0  0  0
  2  3  1  0  0  0  0
  2  4  1  0  0  0  0
  2  5  1  0  0  0  0
  1  2  1  0  0  0  0
 18 19  2  0  0  0  0
 18 20  1  0  0  0  0
 16 17  1  0  0  0  0
 14 15  2  0  0  0  0
 14 16  1  0  0  0  0
 11 12  1  0  0  0  0
 11 13  1  0  0  0  0
 11 14  1  0  0  0  0
  9 10  1  0  0  0  0
  9 11  1  0  0  0  0
  9 18  1  0  0  0  0
  7  8  1  0  0  0  0
  7  9  1  0  0  0  0
 22 23  1  0  0  0  0
 22 24  1  0  0  0  0
 22 25  1  0  0  0  0
 20 21  1  0  0  0  0
 20 22  1  0  0  0  0
M  END
$$$$
default_name
  -OEChem-01062215323D

 25 24  0     1  0  0  0  0  0999 V2000
   -2.7826   -3.8464    0.7821 H   0  0  0  0  0  0  0  0  0  0  0  0
   -2.8156   -2.8034    0.4711 C   0  0  0  0  0  0  0  0  0  0  0  0
   -3.4336   -2.2354    1.1641 H   0  0  0  0  0  0  0  0  0  0  0  0
   -3.2256   -2.7344   -0.5349 H   0  0  0  0  0  0  0  0  0  0  0  0
   -1.4126   -2.2444    0.4801 C   0  0  0  0  0  0  0  0  0  0  0  0
   -0.4686   -2.9534    0.8001 O   0  0  0  0  0  0  0  0  0  0  0  0
   -1.2736   -0.9704    0.1241 N   0  0  0  0  0  0  0  0  0  0  0  0
   -2.0996   -0.4354   -0.1019 H   0  0  0  0  0  0  0  0  0  0  0  0
   -0.0016   -0.2394    0.1271 C   0  0  1  0  0  0  0  0  0  0  0  0
   -0.1728    0.7517    0.5531 H   0  0  0  0  0  0  0  0  0  0  0  0
    1.0171   -0.9898    1.0075 C   0  0  0  0  0  0  0  0  0  0  0  0
    1.0469   -2.0398    0.7136 H   0  0  0  0  0  0  0  0  0  0  0  0
    2.0126   -0.5710    0.8556 H   0  0  0  0  0  0  0  0  0  0  0  0
    0.6782   -0.9520    2.4946 C   0  0  0  0  0  0  0  0  0  0  0  0
    0.0660   -0.0576    3.0633 O   0  0  0  0  0  0  0  0  0  0  0  0
    1.1174   -2.0105    3.2008 O   0  0  0  0  0  0  0  0  0  0  0  0
    0.8218   -1.8667    4.1004 H   0  0  0  0  0  0  0  0  0  0  0  0
    0.5111   -0.0628   -1.3161 C   0  0  0  0  0  0  0  0  0  0  0  0
    1.4532   -0.7442   -1.7181 O   0  0  0  0  0  0  0  0  0  0  0  0
   -0.0928    0.8469   -2.0890 N   0  0  0  0  0  0  0  0  0  0  0  0
   -0.8199    1.4126   -1.6634 H   0  0  0  0  0  0  0  0  0  0  0  0
    0.2732    1.1251   -3.4762 C   0  0  0  0  0  0  0  0  0  0  0  0
    0.2938    0.1937   -4.0462 H   0  0  0  0  0  0  0  0  0  0  0  0
   -0.4507    1.8059   -3.9258 H   0  0  0  0  0  0  0  0  0  0  0  0
    1.2655    1.5780   -3.5119 H   0  0  0  0  0  0  0  0  0  0  0  0
  5  6  2  0  0  0  0
  5  7  1  0  0  0  0
  2  3  1  0  0  0  0
  2  4  1  0  0  0  0
  2  5  1  0  0  0  0
  1  2  1  0  0  0  0
 18 19  2  0  0  0  0
 18 20  1  0  0  0  0
 16 17  1  0  0  0  0
 14 15  2  0  0  0  0
 14 16  1  0  0  0  0
 11 12  1  0  0  0  0
 11 13  1  0  0  0  0
 11 14  1  0  0  0  0
  9 10  1  0  0  0  0
  9 11  1  0  0  0  0
  9 18  1  0  0  0  0
  7  8  1  0  0  0  0
  7  9  1  0  0  0  0
 22 23  1  0  0  0  0
 22 24  1  0  0  0  0
 22 25  1  0  0  0  0
 20 21  1  0  0  0  0
 20 22  1  0  0  0  0
M  END
$$$$
default_name
  -OEChem-01062215323D

 25 24  0     1  0  0  0  0  0999 V2000
   -2.7826   -3.8464    0.7821 H   0  0  0  0  0  0  0  0  0  0  0  0
   -2.8156   -2.8034    0.4711 C   0  0  0  0  0  0  0  0  0  0  0  0
   -3.4336   -2.2354    1.1641 H   0  0  0  0  0  0  0  0  0  0  0  0
   -3.2256   -2.7344   -0.5349 H   0  0  0  0  0  0  0  0  0  0  0  0
   -1.4126   -2.2444    0.4801 C   0  0  0  0  0  0  0  0  0  0  0  0
   -0.4686   -2.9534    0.8001 O   0  0  0  0  0  0  0  0  0  0  0  0
   -1.2736   -0.9704    0.1241 N   0  0  0  0  0  0  0  0  0  0  0  0
   -2.0996   -0.4354   -0.1019 H   0  0  0  0  0  0  0  0  0  0  0  0
   -0.0016   -0.2394    0.1271 C   0  0  1  0  0  0  0  0  0  0  0  0
   -0.1728    0.7517    0.5531 H   0  0  0  0  0  0  0  0  0  0  0  0
    1.0171   -0.9898    1.0075 C   0  0  0  0  0  0  0  0  0  0  0  0
    1.0469   -2.0398    0.7136 H   0  0  0  0  0  0  0  0  0  0  0  0
    2.0126   -0.5710    0.8556 H   0  0  0  0  0  0  0  0  0  0  0  0
    0.6782   -0.9520    2.4946 C   0  0  0  0  0  0  0  0  0  0  0  0
    0.0660   -0.0576    3.0633 O   0  0  0  0  0  0  0  0  0  0  0  0
    1.1174   -2.0105    3.2008 O   0  0  0  0  0  0  0  0  0  0  0  0
    0.8218   -1.8667    4.1004 H   0  0  0  0  0  0  0  0  0  0  0  0
    0.5111   -0.0628   -1.3161 C   0  0  0  0  0  0  0  0  0  0  0  0
    1.2510   -0.9123   -1.8105 O   0  0  0  0  0  0  0  0  0  0  0  0
    0.1324    1.0312   -1.9865 N   0  0  0  0  0  0  0  0  0  0  0  0
   -0.4268    1.7149   -1.4867 H   0  0  0  0  0  0  0  0  0  0  0  0
    0.5286    1.3363   -3.3596 C   0  0  0  0  0  0  0  0  0  0  0  0
    0.3108    0.4824   -4.0048 H   0  0  0  0  0  0  0  0  0  0  0  0
   -0.0161    2.2090   -3.7220 H   0  0  0  0  0  0  0  0  0  0  0  0
    1.6005    1.5380   -3.3977 H   0  0  0  0  0  0  0  0  0  0  0  0
  5  6  2  0  0  0  0
  5  7  1  0  0  0  0
  2  3  1  0  0  0  0
  2  4  1  0  0  0  0
  2  5  1  0  0  0  0
  1  2  1  0  0  0  0
 18 19  2  0  0  0  0
 18 20  1  0  0  0  0
 16 17  1  0  0  0  0
 14 15  2  0  0  0  0
 14 16  1  0  0  0  0
 11 12  1  0  0  0  0
 11 13  1  0  0  0  0
 11 14  1  0  0  0  0
  9 10  1  0  0  0  0
  9 11  1  0  0  0  0
  9 18  1  0  0  0  0
  7  8  1  0  0  0  0
  7  9  1  0  0  0  0
 22 23  1  0  0  0  0
 22 24  1  0  0  0  0
 22 25  1  0  0  0  0
 20 21  1  0  0  0  0
 20 22  1  0  0  0  0
M  END
$$$$
default_name
  -OEChem-01062215323D

 25 24  0     1  0  0  0  0  0999 V2000
   -2.7826   -3.8464    0.7821 H   0  0  0  0  0  0  0  0  0  0  0  0
   -2.8156   -2.8034    0.4711 C   0  0  0  0  0  0  0  0  0  0  0  0
   -3.4336   -2.2354    1.1641 H   0  0  0  0  0  0  0  0  0  0  0  0
   -3.2256   -2.7344   -0.5349 H   0  0  0  0  0  0  0  0  0  0  0  0
   -1.4126   -2.2444    0.4801 C   0  0  0  0  0  0  0  0  0  0  0  0
   -0.4686   -2.9534    0.8001 O   0  0  0  0  0  0  0  0  0  0  0  0
   -1.2736   -0.9704    0.1241 N   0  0  0  0  0  0  0  0  0  0  0  0
   -2.0996   -0.4354   -0.1019 H   0  0  0  0  0  0  0  0  0  0  0  0
   -0.0016   -0.2394    0.1271 C   0  0  1  0  0  0  0  0  0  0  0  0
   -0.1728    0.7517    0.5531 H   0  0  0  0  0  0  0  0  0  0  0  0
    1.0171   -0.9898    1.0075 C   0  0  0  0  0  0  0  0  0  0  0  0
    1.0469   -2.0398    0.7136 H   0  0  0  0  0  0  0  0  0  0  0  0
    2.0126   -0.5710    0.8556 H   0  0  0  0  0  0  0  0  0  0  0  0
    0.6782   -0.9520    2.4946 C   0  0  0  0  0  0  0  0  0  0  0  0
    0.0660   -0.0576    3.0633 O   0  0  0  0  0  0  0  0  0  0  0  0
    1.1174   -2.0105    3.2008 O   0  0  0  0  0  0  0  0  0  0  0  0
    0.8218   -1.8667    4.1004 H   0  0  0  0  0  0  0  0  0  0  0  0
    0.5111   -0.0628   -1.3161 C   0  0  0  0  0  0  0  0  0  0  0  0
    1.0123   -1.0177   -1.9082 O   0  0  0  0  0  0  0  0  0  0  0  0
    0.3975    1.1458   -1.8783 N   0  0  0  0  0  0  0  0  0  0  0  0
    0.0313    1.8964   -1.3017 H   0  0  0  0  0  0  0  0  0  0  0  0
    0.8299    1.4684   -3.2364 C   0  0  0  0  0  0  0  0  0  0  0  0
    0.3985    0.7535   -3.9405 H   0  0  0  0  0  0  0  0  0  0  0  0
    0.5074    2.4755   -3.5034 H   0  0  0  0  0  0  0  0  0  0  0  0
    1.9177    1.4085   -3.3009 H   0  0  0  0  0  0  0  0  0  0  0  0
  5  6  2  0  0  0  0
  5  7  1  0  0  0  0
  2  3  1  0  0  0  0
  2  4  1  0  0  0  0
  2  5  1  0  0  0  0
  1  2  1  0  0  0  0
 18 19  2  0  0  0  0
 18 20  1  0  0  0  0
 16 17  1  0  0  0  0
 14 15  2  0  0  0  0
 14 16  1  0  0  0  0
 11 12  1  0  0  0  0
 11 13  1  0  0  0  0
 11 14  1  0  0  0  0
  9 10  1  0  0  0  0
  9 11  1  0  0  0  0
  9 18  1  0  0  0  0
  7  8  1  0  0  0  0
  7  9  1  0  0  0  0
 22 23  1  0  0  0  0
 22 24  1  0  0  0  0
 22 25  1  0  0  0  0
 20 21  1  0  0  0  0
 20 22  1  0  0  0  0
M  END
$$$$
default_name
  -OEChem-01062215323D

 25 24  0     1  0  0  0  0  0999 V2000
   -2.7826   -3.8464    0.7821 H   0  0  0  0  0  0  0  0  0  0  0  0
   -2.8156   -2.8034    0.4711 C   0  0  0  0  0  0  0  0  0  0  0  0
   -3.4336   -2.2354    1.1641 H   0  0  0  0  0  0  0  0  0  0  0  0
   -3.2256   -2.7344   -0.5349 H   0  0  0  0  0  0  0  0  0  0  0  0
   -1.4126   -2.2444    0.4801 C   0  0  0  0  0  0  0  0  0  0  0  0
   -0.4686   -2.9534    0.8001 O   0  0  0  0  0  0  0  0  0  0  0  0
   -1.2736   -0.9704    0.1241 N   0  0  0  0  0  0  0  0  0  0  0  0
   -2.0996   -0.4354   -0.1019 H   0  0  0  0  0  0  0  0  0  0  0  0
   -0.0016   -0.2394    0.1271 C   0  0  1  0  0  0  0  0  0  0  0  0
   -0.1728    0.7517    0.5531 H   0  0  0  0  0  0  0  0  0  0  0  0
    1.0171   -0.9898    1.0075 C   0  0  0  0  0  0  0  0  0  0  0  0
    1.0469   -2.0398    0.7136 H   0  0  0  0  0  0  0  0  0  0  0  0
    2.0126   -0.5710    0.8556 H   0  0  0  0  0  0  0  0  0  0  0  0
    0.6782   -0.9520    2.4946 C   0  0  0  0  0  0  0  0  0  0  0  0
    0.0660   -0.0576    3.0633 O   0  0  0  0  0  0  0  0  0  0  0  0
    1.1174   -2.0105    3.2008 O   0  0  0  0  0  0  0  0  0  0  0  0
    0.8218   -1.8667    4.1004 H   0  0  0  0  0  0  0  0  0  0  0  0
    0.5111   -0.0628   -1.3161 C   0  0  0  0  0  0  0  0  0  0  0  0
    0.7532   -1.0532   -2.0046 O   0  0  0  0  0  0  0  0  0  0  0  0
    0.6847    1.1830   -1.7717 N   0  0  0  0  0  0  0  0  0  0  0  0
    0.5234    1.9449   -1.1210 H   0  0  0  0  0  0  0  0  0  0  0  0
    1.1566    1.5124   -3.1149 C   0  0  0  0  0  0  0  0  0  0  0  0
    0.5507    0.9887   -3.8576 H   0  0  0  0  0  0  0  0  0  0  0  0
    1.0841    2.5873   -3.2849 H   0  0  0  0  0  0  0  0  0  0  0  0
    2.1957    1.1981   -3.2279 H   0  0  0  0  0  0  0  0  0  0  0  0
  5  6  2  0  0  0  0
  5  7  1  0  0  0  0
  2  3  1  0  0  0  0
  2  4  1  0  0  0  0
  2  5  1  0  0  0  0
  1  2  1  0  0  0  0
 18 19  2  0  0  0  0
 18 20  1  0  0  0  0
 16 17  1  0  0  0  0
 14 15  2  0  0  0  0
 14 16  1  0  0  0  0
 11 12  1  0  0  0  0
 11 13  1  0  0  0  0
 11 14  1  0  0  0  0
  9 10  1  0  0  0  0
  9 11  1  0  0  0  0
  9 18  1  0  0  0  0
  7  8  1  0  0  0  0
  7  9  1  0  0  0  0
 22 23  1  0  0  0  0
 22 24  1  0  0  0  0
 22 25  1  0  0  0  0
 20 21  1  0  0  0  0
 20 22  1  0  0  0  0
M  END
$$$$
default_name
  -OEChem-01062215323D

 25 24  0     1  0  0  0  0  0999 V2000
   -2.7826   -3.8464    0.7821 H   0  0  0  0  0  0  0  0  0  0  0  0
   -2.8156   -2.8034    0.4711 C   0  0  0  0  0  0  0  0  0  0  0  0
   -3.4336   -2.2354    1.1641 H   0  0  0  0  0  0  0  0  0  0  0  0
   -3.2256   -2.7344   -0.5349 H   0  0  0  0  0  0  0  0  0  0  0  0
   -1.4126   -2.2444    0.4801 C   0  0  0  0  0  0  0  0  0  0  0  0
   -0.4686   -2.9534    0.8001 O   0  0  0  0  0  0  0  0  0  0  0  0
   -1.2736   -0.9704    0.1241 N   0  0  0  0  0  0  0  0  0  0  0  0
   -2.0996   -0.4354   -0.1019 H   0  0  0  0  0  0  0  0  0  0  0  0
   -0.0016   -0.2394    0.1271 C   0  0  1  0  0  0  0  0  0  0  0  0
   -0.1728    0.7517    0.5531 H   0  0  0  0  0  0  0  0  0  0  0  0
    1.0171   -0.9898    1.0075 C   0  0  0  0  0  0  0  0  0  0  0  0
    1.0469   -2.0398    0.7136 H   0  0  0  0  0  0  0  0  0  0  0  0
    2.0126   -0.5710    0.8556 H   0  0  0  0  0  0  0  0  0  0  0  0
    0.6782   -0.9520    2.4946 C   0  0  0  0  0  0  0  0  0  0  0  0
    0.0660   -0.0576    3.0633 O   0  0  0  0  0  0  0  0  0  0  0  0
    1.1174   -2.0105    3.2008 O   0  0  0  0  0  0  0  0  0  0  0  0
    0.8218   -1.8667    4.1004 H   0  0  0  0  0  0  0  0  0  0  0  0
    0.5111   -0.0628   -1.3161 C   0  0  0  0  0  0  0  0  0  0  0  0
    0.4915   -1.0165   -2.0931 O   0  0  0  0  0  0  0  0  0  0  0  0
    0.9742    1.1401   -1.6741 N   0  0  0  0  0  0  0  0  0  0  0  0
    1.0157    1.8569   -0.9568 H   0  0  0  0  0  0  0  0  0  0  0  0
    1.4865    1.4652   -3.0035 C   0  0  0  0  0  0  0  0  0  0  0  0
    0.7572    1.1718   -3.7618 H   0  0  0  0  0  0  0  0  0  0  0  0
    1.6748    2.5368   -3.0812 H   0  0  0  0  0  0  0  0  0  0  0  0
    2.4153    0.9213   -3.1837 H   0  0  0  0  0  0  0  0  0  0  0  0
  5  6  2  0  0  0  0
  5  7  1  0  0  0  0
  2  3  1  0  0  0  0
  2  4  1  0  0  0  0
  2  5  1  0  0  0  0
  1  2  1  0  0  0  0
 18 19  2  0  0  0  0
 18 20  1  0  0  0  0
 16 17  1  0  0  0  0
 14 15  2  0  0  0  0
 14 16  1  0  0  0  0
 11 12  1  0  0  0  0
 11 13  1  0  0  0  0
 11 14  1  0  0  0  0
  9 10  1  0  0  0  0
  9 11  1  0  0  0  0
  9 18  1  0  0  0  0
  7  8  1  0  0  0  0
  7  9  1  0  0  0  0
 22 23  1  0  0  0  0
 22 24  1  0  0  0  0
 22 25  1  0  0  0  0
 20 21  1  0  0  0  0
 20 22  1  0  0  0  0
M  END
$$$$
default_name
  -OEChem-01062215323D

 25 24  0     1  0  0  0  0  0999 V2000
   -2.7826   -3.8464    0.7821 H   0  0  0  0  0  0  0  0  0  0  0  0
   -2.8156   -2.8034    0.4711 C   0  0  0  0  0  0  0  0  0  0  0  0
   -3.4336   -2.2354    1.1641 H   0  0  0  0  0  0  0  0  0  0  0  0
   -3.2256   -2.7344   -0.5349 H   0  0  0  0  0  0  0  0  0  0  0  0
   -1.4126   -2.2444    0.4801 C   0  0  0  0  0  0  0  0  0  0  0  0
   -0.4686   -2.9534    0.8001 O   0  0  0  0  0  0  0  0  0  0  0  0
   -1.2736   -0.9704    0.1241 N   0  0  0  0  0  0  0  0  0  0  0  0
   -2.0996   -0.4354   -0.1019 H   0  0  0  0  0  0  0  0  0  0  0  0
   -0.0016   -0.2394    0.1271 C   0  0  1  0  0  0  0  0  0  0  0  0
   -0.1728    0.7517    0.5531 H   0  0  0  0  0  0  0  0  0  0  0  0
    1.0171   -0.9898    1.0075 C   0  0  0  0  0  0  0  0  0  0  0  0
    1.0469   -2.0398    0.7136 H   0  0  0  0  0  0  0  0  0  0  0  0
    2.0126   -0.5710    0.8556 H   0  0  0  0  0  0  0  0  0  0  0  0
    0.6782   -0.9520    2.4946 C   0  0  0  0  0  0  0  0  0  0  0  0
    0.0660   -0.0576    3.0633 O   0  0  0  0  0  0  0  0  0  0  0  0
    1.1174   -2.0105    3.2008 O   0  0  0  0  0  0  0  0  0  0  0  0
    0.8218   -1.8667    4.1004 H   0  0  0  0  0  0  0  0  0  0  0  0
    0.5111   -0.0628   -1.3161 C   0  0  0  0  0  0  0  0  0  0  0  0
    0.2450   -0.9100   -2.1676 O   0  0  0  0  0  0  0  0  0  0  0  0
    1.2463    1.0202   -1.5921 N   0  0  0  0  0  0  0  0  0  0  0  0
    1.4749    1.6385   -0.8205 H   0  0  0  0  0  0  0  0  0  0  0  0
    1.7969    1.3302   -2.9097 C   0  0  0  0  0  0  0  0  0  0  0  0
    1.0039    1.2904   -3.6597 H   0  0  0  0  0  0  0  0  0  0  0  0
    2.2391    2.3273   -2.9064 H   0  0  0  0  0  0  0  0  0  0  0  0
    2.5617    0.5969   -3.1714 H   0  0  0  0  0  0  0  0  0  0  0  0
  5  6  2  0  0  0  0
  5  7  1  0  0  0  0
  2  3  1  0  0  0  0
  2  4  1  0  0  0  0
  2  5  1  0  0  0  0
  1  2  1  0  0  0  0
 18 19  2  0  0  0  0
 18 20  1  0  0  0  0
 16 17  1  0  0  0  0
 14 15  2  0  0  0  0
 14 16  1  0  0  0  0
 11 12  1  0  0  0  0
 11 13  1  0  0  0  0
 11 14  1  0  0  0  0
  9 10  1  0  0  0  0
  9 11  1  0  0  0  0
  9 18  1  0  0  0  0
  7  8  1  0  0  0  0
  7  9  1  0  0  0  0
 22 23  1  0  0  0  0
 22 24  1  0  0  0  0
 22 25  1  0  0  0  0
 20 21  1  0  0  0  0
 20 22  1  0  0  0  0
M  END
$$$$
default_name
  -OEChem-01062215323D

 25 24  0     1  0  0  0  0  0999 V2000
   -2.7826   -3.8464    0.7821 H   0  0  0  0  0  0  0  0  0  0  0  0
   -2.8156   -2.8034    0.4711 C   0  0  0  0  0  0  0  0  0  0  0  0
   -3.4336   -2.2354    1.1641 H   0  0  0  0  0  0  0  0  0  0  0  0
   -3.2256   -2.7344   -0.5349 H   0  0  0  0  0  0  0  0  0  0  0  0
   -1.4126   -2.2444    0.4801 C   0  0  0  0  0  0  0  0  0  0  0  0
   -0.4686   -2.9534    0.8001 O   0  0  0  0  0  0  0  0  0  0  0  0
   -1.2736   -0.9704    0.1241 N   0  0  0  0  0  0  0  0  0  0  0  0
   -2.0996   -0.4354   -0.1019 H   0  0  0  0  0  0  0  0  0  0  0  0
   -0.0016   -0.2394    0.1271 C   0  0  1  0  0  0  0  0  0  0  0  0
   -0.1728    0.7517    0.5531 H   0  0  0  0  0  0  0  0  0  0  0  0
    1.0171   -0.9898    1.0075 C   0  0  0  0  0  0  0  0  0  0  0  0
    1.0469   -2.0398    0.7136 H   0  0  0  0  0  0  0  0  0  0  0  0
    2.0126   -0.5710    0.8556 H   0  0  0  0  0  0  0  0  0  0  0  0
    0.6782   -0.9520    2.4946 C   0  0  0  0  0  0  0  0  0  0  0  0
    0.0660   -0.0576    3.0633 O   0  0  0  0  0  0  0  0  0  0  0  0
    1.1174   -2.0105    3.2008 O   0  0  0  0  0  0  0  0  0  0  0  0
    0.8218   -1.8667    4.1004 H   0  0  0  0  0  0  0  0  0  0  0  0
    0.5111   -0.0628   -1.3161 C   0  0  0  0  0  0  0  0  0  0  0  0
    0.0305   -0.7410   -2.2231 O   0  0  0  0  0  0  0  0  0  0  0  0
    1.4826    0.8314   -1.5313 N   0  0  0  0  0  0  0  0  0  0  0  0
    1.8695    1.3045   -0.7211 H   0  0  0  0  0  0  0  0  0  0  0  0
    2.0669    1.1165   -2.8400 C   0  0  0  0  0  0  0  0  0  0  0  0
    1.2740    1.3365   -3.5581 H   0  0  0  0  0  0  0  0  0  0  0  0
    2.7386    1.9732   -2.7722 H   0  0  0  0  0  0  0  0  0  0  0  0
    2.6249    0.2470   -3.1918 H   0  0  0  0  0  0  0  0  0  0  0  0
  5  6  2  0  0  0  0
  5  7  1  0  0  0  0
  2  3  1  0  0  0  0
  2  4  1  0  0  0  0
  2  5  1  0  0  0  0
  1  2  1  0  0  0  0
 18 19  2  0  0  0  0
 18 20  1  0  0  0  0
 16 17  1  0  0  0  0
 14 15  2  0  0  0  0
 14 16  1  0  0  0  0
 11 12  1  0  0  0  0
 11 13  1  0  0  0  0
 11 14  1  0  0  0  0
  9 10  1  0  0  0  0
  9 11  1  0  0  0  0
  9 18  1  0  0  0  0
  7  8  1  0  0  0  0
  7  9  1  0  0  0  0
 22 23  1  0  0  0  0
 22 24  1  0  0  0  0
 22 25  1  0  0  0  0
 20 21  1  0  0  0  0
 20 22  1  0  0  0  0
M  END
$$$$
default_name
  -OEChem-01062215323D

 25 24  0     1  0  0  0  0  0999 V2000
   -2.7826   -3.8464    0.7821 H   0  0  0  0  0  0  0  0  0  0  0  0
   -2.8156   -2.8034    0.4711 C   0  0  0  0  0  0  0  0  0  0  0  0
   -3.4336   -2.2354    1.1641 H   0  0  0  0  0  0  0  0  0  0  0  0
   -3.2256   -2.7344   -0.5349 H   0  0  0  0  0  0  0  0  0  0  0  0
   -1.4126   -2.2444    0.4801 C   0  0  0  0  0  0  0  0  0  0  0  0
   -0.4686   -2.9534    0.8001 O   0  0  0  0  0  0  0  0  0  0  0  0
   -1.2736   -0.9704    0.1241 N   0  0  0  0  0  0  0  0  0  0  0  0
   -2.0996   -0.4354   -0.1019 H   0  0  0  0  0  0  0  0  0  0  0  0
   -0.0016   -0.2394    0.1271 C   0  0  1  0  0  0  0  0  0  0  0  0
   -0.1024    0.6281    0.7831 H   0  0  0  0  0  0  0  0  0  0  0  0
    1.1115   -1.1526    0.6778 C   0  0  0  0  0  0  0  0  0  0  0  0
    1.0882   -2.1093    0.1544 H   0  0  0  0  0  0  0  0  0  0  0  0
    2.0848   -0.6953    0.4967 H   0  0  0  0  0  0  0  0  0  0  0  0
    0.9678   -1.4546    2.1664 C   0  0  0  0  0  0  0  0  0  0  0  0
    0.4468   -0.7200    2.9954 O   0  0  0  0  0  0  0  0  0  0  0  0
    1.4793   -2.6377    2.5544 O   0  0  0  0  0  0  0  0  0  0  0  0
    1.3043   -2.7039    3.4937 H   0  0  0  0  0  0  0  0  0  0  0  0
    0.3230    0.2643   -1.2934 C   0  0  0  0  0  0  0  0  0  0  0  0
   -0.4477    0.0188   -2.2203 O   0  0  0  0  0  0  0  0  0  0  0  0
    1.4551    0.9549   -1.4702 N   0  0  0  0  0  0  0  0  0  0  0  0
    2.0679    1.0602   -0.6682 H   0  0  0  0  0  0  0  0  0  0  0  0
    1.8965    1.5023   -2.7512 C   0  0  0  0  0  0  0  0  0  0  0  0
    1.0945    2.0965   -3.1945 H   0  0  0  0  0  0  0  0  0  0  0  0
    2.7742    2.1336   -2.6068 H   0  0  0  0  0  0  0  0  0  0  0  0
    2.1456    0.6880   -3.4338 H   0  0  0  0  0  0  0  0  0  0  0  0
  5  6  2  0  0  0  0
  5  7  1  0  0  0  0
  2  3  1  0  0  0  0
  2  4  1  0  0  0  0
  2  5  1  0  0  0  0
  1  2  1  0  0  0  0
 18 19  2  0  0  0  0
 18 20  1  0  0  0  0
 16 17  1  0  0  0  0
 14 15  2  0  0  0  0
 14 16  1  0  0  0  0
 11 12  1  0  0  0  0
 11 13  1  0  0  0  0
 11 14  1  0  0  0  0
  9 10  1  0  0  0  0
  9 11  1  0  0  0  0
  9 18  1  0  0  0  0
  7  8  1  0  0  0  0
  7  9  1  0  0  0  0
 22 23  1  0  0  0  0
 22 24  1  0  0  0  0
 22 25  1  0  0  0  0
 20 21  1  0  0  0  0
 20 22  1  0  0  0  0
M  END
$$$$
default_name
  -OEChem-01062215323D

 25 24  0     1  0  0  0  0  0999 V2000
   -2.7826   -3.8464    0.7821 H   0  0  0  0  0  0  0  0  0  0  0  0
   -2.8156   -2.8034    0.4711 C   0  0  0  0  0  0  0  0  0  0  0  0
   -3.4336   -2.2354    1.1641 H   0  0  0  0  0  0  0  0  0  0  0  0
   -3.2256   -2.7344   -0.5349 H   0  0  0  0  0  0  0  0  0  0  0  0
   -1.4126   -2.2444    0.4801 C   0  0  0  0  0  0  0  0  0  0  0  0
   -0.4686   -2.9534    0.8001 O   0  0  0  0  0  0  0  0  0  0  0  0
   -1.2736   -0.9704    0.1241 N   0  0  0  0  0  0  0  0  0  0  0  0
   -2.0996   -0.4354   -0.1019 H   0  0  0  0  0  0  0  0  0  0  0  0
   -0.0016   -0.2394    0.1271 C   0  0  1  0  0  0  0  0  0  0  0  0
   -0.1024    0.6281    0.7831 H   0  0  0  0  0  0  0  0  0  0  0  0
    1.1115   -1.1526    0.6778 C   0  0  0  0  0  0  0  0  0  0  0  0
    1.0882   -2.1093    0.1544 H   0  0  0  0  0  0  0  0  0  0  0  0
    2.0848   -0.6953    0.4967 H   0  0  0  0  0  0  0  0  0  0  0  0
    0.9678   -1.4546    2.1664 C   0  0  0  0  0  0  0  0  0  0  0  0
    0.4468   -0.7200    2.9954 O   0  0  0  0  0  0  0  0  0  0  0  0
    1.4793   -2.6377    2.5544 O   0  0  0  0  0  0  0  0  0  0  0  0
    1.3043   -2.7039    3.4937 H   0  0  0  0  0  0  0  0  0  0  0  0
    0.3230    0.2643   -1.2934 C   0  0  0  0  0  0  0  0  0  0  0  0
   -0.5540    0.2683   -2.1562 O   0  0  0  0  0  0  0  0  0  0  0  0
    1.5707    0.6781   -1.5419 N   0  0  0  0  0  0  0  0  0  0  0  0
    2.2515    0.5835   -0.7953 H   0  0  0  0  0  0  0  0  0  0  0  0
    2.0297    1.1875   -2.8324 C   0  0  0  0  0  0  0  0  0  0  0  0
    1.3623    1.9817   -3.1740 H   0  0  0  0  0  0  0  0  0  0  0  0
    3.0421    1.5830   -2.7409 H   0  0  0  0  0  0  0  0  0  0  0  0
    2.0214    0.3833   -3.5702 H   0  0  0  0  0  0  0  0  0  0  0  0
  5  6  2  0  0  0  0
  5  7  1  0  0  0  0
  2  3  1  0  0  0  0
  2  4  1  0  0  0  0
  2  5  1  0  0  0  0
  1  2  1  0  0  0  0
 18 19  2  0  0  0  0
 18 20  1  0  0  0  0
 16 17  1  0  0  0  0
 14 15  2  0  0  0  0
 14 16  1  0  0  0  0
 11 12  1  0  0  0  0
 11 13  1  0  0  0  0
 11 14  1  0  0  0  0
  9 10  1  0  0  0  0
  9 11  1  0  0  0  0
  9 18  1  0  0  0  0
  7  8  1  0  0  0  0
  7  9  1  0  0  0  0
 22 23  1  0  0  0  0
 22 24  1  0  0  0  0
 22 25  1  0  0  0  0
 20 21  1  0  0  0  0
 20 22  1  0  0  0  0
M  END
$$$$
default_name
  -OEChem-01062215323D

 25 24  0     1  0  0  0  0  0999 V2000
   -2.7826   -3.8464    0.7821 H   0  0  0  0  0  0  0  0  0  0  0  0
   -2.8156   -2.8034    0.4711 C   0  0  0  0  0  0  0  0  0  0  0  0
   -3.4336   -2.2354    1.1641 H   0  0  0  0  0  0  0  0  0  0  0  0
   -3.2256   -2.7344   -0.5349 H   0  0  0  0  0  0  0  0  0  0  0  0
   -1.4126   -2.2444    0.4801 C   0  0  0  0  0  0  0  0  0  0  0  0
   -0.4686   -2.9534    0.8001 O   0  0  0  0  0  0  0  0  0  0  0  0
   -1.2736   -0.9704    0.1241 N   0  0  0  0  0  0  0  0  0  0  0  0
   -2.0996   -0.4354   -0.1019 H   0  0  0  0  0  0  0  0  0  0  0  0
   -0.0016   -0.2394    0.1271 C   0  0  1  0  0  0  0  0  0  0  0  0
   -0.1024    0.6281    0.7831 H   0  0  0  0  0  0  0  0  0  0  0  0
    1.1115   -1.1526    0.6778 C   0  0  0  0  0  0  0  0  0  0  0  0
    1.0882   -2.1093    0.1544 H   0  0  0  0  0  0  0  0  0  0  0  0
    2.0848   -0.6953    0.4967 H   0  0  0  0  0  0  0  0  0  0  0  0
    0.9678   -1.4546    2.1664 C   0  0  0  0  0  0  0  0  0  0  0  0
    0.4468   -0.7200    2.9954 O   0  0  0  0  0  0  0  0  0  0  0  0
    1.4793   -2.6377    2.5544 O   0  0  0  0  0  0  0  0  0  0  0  0
    1.3043   -2.7039    3.4937 H   0  0  0  0  0  0  0  0  0  0  0  0
    0.3230    0.2643   -1.2934 C   0  0  0  0  0  0  0  0  0  0  0  0
   -0.5917    0.5311   -2.0716 O   0  0  0  0  0  0  0  0  0  0  0  0
    1.6103    0.3870   -1.6361 N   0  0  0  0  0  0  0  0  0  0  0  0
    2.3044    0.0862   -0.9595 H   0  0  0  0  0  0  0  0  0  0  0  0
    2.0765    0.8561   -2.9392 C   0  0  0  0  0  0  0  0  0  0  0  0
    1.5955    1.8058   -3.1831 H   0  0  0  0  0  0  0  0  0  0  0  0
    3.1583    0.9946   -2.9230 H   0  0  0  0  0  0  0  0  0  0  0  0
    1.8173    0.1262   -3.7081 H   0  0  0  0  0  0  0  0  0  0  0  0
  5  6  2  0  0  0  0
  5  7  1  0  0  0  0
  2  3  1  0  0  0  0
  2  4  1  0  0  0  0
  2  5  1  0  0  0  0
  1  2  1  0  0  0  0
 18 19  2  0  0  0  0
 18 20  1  0  0  0  0
 16 17  1  0  0  0  0
 14 15  2  0  0  0  0
 14 16  1  0  0  0  0
 11 12  1  0  0  0  0
 11 13  1  0  0  0  0
 11 14  1  0  0  0  0
  9 10  1  0  0  0  0
  9 11  1  0  0  0  0
  9 18  1  0  0  0  0
  7  8  1  0  0  0  0
  7  9  1  0  0  0  0
 22 23  1  0  0  0  0
 22 24  1  0  0  0  0
 22 25  1  0  0  0  0
 20 21  1  0  0  0  0
 20 22  1  0  0  0  0
M  END
$$$$
default_name
  -OEChem-01062215323D

 25 24  0     1  0  0  0  0  0999 V2000
   -2.7826   -3.8464    0.7821 H   0  0  0  0  0  0  0  0  0  0  0  0
   -2.8156   -2.8034    0.4711 C   0  0  0  0  0  0  0  0  0  0  0  0
   -3.4336   -2.2354    1.1641 H   0  0  0  0  0  0  0  0  0  0  0  0
   -3.2256   -2.7344   -0.5349 H   0  0  0  0  0  0  0  0  0  0  0  0
   -1.4126   -2.2444    0.4801 C   0  0  0  0  0  0  0  0  0  0  0  0
   -0.4686   -2.9534    0.8001 O   0  0  0  0  0  0  0  0  0  0  0  0
   -1.2736   -0.9704    0.1241 N   0  0  0  0  0  0  0  0  0  0  0  0
   -2.0996   -0.4354   -0.1019 H   0  0  0  0  0  0  0  0  0  0  0  0
   -0.0016   -0.2394    0.1271 C   0  0  1  0  0  0  0  0  0  0  0  0
   -0.1024    0.6281    0.7831 H   0  0  0  0  0  0  0  0  0  0  0  0
    1.1115   -1.1526    0.6778 C   0  0  0  0  0  0  0  0  0  0  0  0
    1.0882   -2.1093    0.1544 H   0  0  0  0  0  0  0  0  0  0  0  0
    2.0848   -0.6953    0.4967 H   0  0  0  0  0  0  0  0  0  0  0  0
    0.9678   -1.4546    2.1664 C   0  0  0  0  0  0  0  0  0  0  0  0
    0.4468   -0.7200    2.9954 O   0  0  0  0  0  0  0  0  0  0  0  0
    1.4793   -2.6377    2.5544 O   0  0  0  0  0  0  0  0  0  0  0  0
    1.3043   -2.7039    3.4937 H   0  0  0  0  0  0  0  0  0  0  0  0
    0.3230    0.2643   -1.2934 C   0  0  0  0  0  0  0  0  0  0  0  0
   -0.5584    0.7894   -1.9724 O   0  0  0  0  0  0  0  0  0  0  0  0
    1.5712    0.1015   -1.7463 N   0  0  0  0  0  0  0  0  0  0  0  0
    2.2230   -0.3978   -1.1498 H   0  0  0  0  0  0  0  0  0  0  0  0
    2.0336    0.5307   -3.0644 C   0  0  0  0  0  0  0  0  0  0  0  0
    1.7779    1.5809   -3.2212 H   0  0  0  0  0  0  0  0  0  0  0  0
    3.1148    0.4085   -3.1408 H   0  0  0  0  0  0  0  0  0  0  0  0
    1.5471   -0.0661   -3.8380 H   0  0  0  0  0  0  0  0  0  0  0  0
  5  6  2  0  0  0  0
  5  7  1  0  0  0  0
  2  3  1  0  0  0  0
  2  4  1  0  0  0  0
  2  5  1  0  0  0  0
  1  2  1  0  0  0  0
 18 19  2  0  0  0  0
 18 20  1  0  0  0  0
 16 17  1  0  0  0  0
 14 15  2  0  0  0  0
 14 16  1  0  0  0  0
 11 12  1  0  0  0  0
 11 13  1  0  0  0  0
 11 14  1  0  0  0  0
  9 10  1  0  0  0  0
  9 11  1  0  0  0  0
  9 18  1  0  0  0  0
  7  8  1  0  0  0  0
  7  9  1  0  0  0  0
 22 23  1  0  0  0  0
 22 24  1  0  0  0  0
 22 25  1  0  0  0  0
 20 21  1  0  0  0  0
 20 22  1  0  0  0  0
M  END
$$$$
default_name
  -OEChem-01062215323D

 25 24  0     1  0  0  0  0  0999 V2000
   -2.7826   -3.8464    0.7821 H   0  0  0  0  0  0  0  0  0  0  0  0
   -2.8156   -2.8034    0.4711 C   0  0  0  0  0  0  0  0  0  0  0  0
   -3.4336   -2.2354    1.1641 H   0  0  0  0  0  0  0  0  0  0  0  0
   -3.2256   -2.7344   -0.5349 H   0  0  0  0  0  0  0  0  0  0  0  0
   -1.4126   -2.2444    0.4801 C   0  0  0  0  0  0  0  0  0  0  0  0
   -0.4686   -2.9534    0.8001 O   0  0  0  0  0  0  0  0  0  0  0  0
   -1.2736   -0.9704    0.1241 N   0  0  0  0  0  0  0  0  0  0  0  0
   -2.0996   -0.4354   -0.1019 H   0  0  0  0  0  0  0  0  0  0  0  0
   -0.0016   -0.2394    0.1271 C   0  0  1  0  0  0  0  0  0  0  0  0
   -0.1024    0.6281    0.7831 H   0  0  0  0  0  0  0  0  0  0  0  0
    1.1115   -1.1526    0.6778 C   0  0  0  0  0  0  0  0  0  0  0  0
    1.0882   -2.1093    0.1544 H   0  0  0  0  0  0  0  0  0  0  0  0
    2.0848   -0.6953    0.4967 H   0  0  0  0  0  0  0  0  0  0  0  0
    0.9678   -1.4546    2.1664 C   0  0  0  0  0  0  0  0  0  0  0  0
    0.4468   -0.7200    2.9954 O   0  0  0  0  0  0  0  0  0  0  0  0
    1.4793   -2.6377    2.5544 O   0  0  0  0  0  0  0  0  0  0  0  0
    1.3043   -2.7039    3.4937 H   0  0  0  0  0  0  0  0  0  0  0  0
    0.3230    0.2643   -1.2934 C   0  0  0  0  0  0  0  0  0  0  0  0
   -0.4561    1.0255   -1.8653 O   0  0  0  0  0  0  0  0  0  0  0  0
    1.4561   -0.1590   -1.8650 N   0  0  0  0  0  0  0  0  0  0  0  0
    2.0129   -0.8356   -1.3531 H   0  0  0  0  0  0  0  0  0  0  0  0
    1.9040    0.2334   -3.1995 C   0  0  0  0  0  0  0  0  0  0  0  0
    1.8973    1.3221   -3.2857 H   0  0  0  0  0  0  0  0  0  0  0  0
    2.9146   -0.1354   -3.3794 H   0  0  0  0  0  0  0  0  0  0  0  0
    1.2294   -0.1803   -3.9511 H   0  0  0  0  0  0  0  0  0  0  0  0
  5  6  2  0  0  0  0
  5  7  1  0  0  0  0
  2  3  1  0  0  0  0
  2  4  1  0  0  0  0
  2  5  1  0  0  0  0
  1  2  1  0  0  0  0
 18 19  2  0  0  0  0
 18 20  1  0  0  0  0
 16 17  1  0  0  0  0
 14 15  2  0  0  0  0
 14 16  1  0  0  0  0
 11 12  1  0  0  0  0
 11 13  1  0  0  0  0
 11 14  1  0  0  0  0
  9 10  1  0  0  0  0
  9 11  1  0  0  0  0
  9 18  1  0  0  0  0
  7  8  1  0  0  0  0
  7  9  1  0  0  0  0
 22 23  1  0  0  0  0
 22 24  1  0  0  0  0
 22 25  1  0  0  0  0
 20 21  1  0  0  0  0
 20 22  1  0  0  0  0
M  END
$$$$
default_name
  -OEChem-01062215323D

 25 24  0     1  0  0  0  0  0999 V2000
   -2.7826   -3.8464    0.7821 H   0  0  0  0  0  0  0  0  0  0  0  0
   -2.8156   -2.8034    0.4711 C   0  0  0  0  0  0  0  0  0  0  0  0
   -3.4336   -2.2354    1.1641 H   0  0  0  0  0  0  0  0  0  0  0  0
   -3.2256   -2.7344   -0.5349 H   0  0  0  0  0  0  0  0  0  0  0  0
   -1.4126   -2.2444    0.4801 C   0  0  0  0  0  0  0  0  0  0  0  0
   -0.4686   -2.9534    0.8001 O   0  0  0  0  0  0  0  0  0  0  0  0
   -1.2736   -0.9704    0.1241 N   0  0  0  0  0  0  0  0  0  0  0  0
   -2.0996   -0.4354   -0.1019 H   0  0  0  0  0  0  0  0  0  0  0  0
   -0.0016   -0.2394    0.1271 C   0  0  1  0  0  0  0  0  0  0  0  0
   -0.1024    0.6281    0.7831 H   0  0  0  0  0  0  0  0  0  0  0  0
    1.1115   -1.1526    0.6778 C   0  0  0  0  0  0  0  0  0  0  0  0
    1.0882   -2.1093    0.1544 H   0  0  0  0  0  0  0  0  0  0  0  0
    2.0848   -0.6953    0.4967 H   0  0  0  0  0  0  0  0  0  0  0  0
    0.9678   -1.4546    2.1664 C   0  0  0  0  0  0  0  0  0  0  0  0
    0.4468   -0.7200    2.9954 O   0  0  0  0  0  0  0  0  0  0  0  0
    1.4793   -2.6377    2.5544 O   0  0  0  0  0  0  0  0  0  0  0  0
    1.3043   -2.7039    3.4937 H   0  0  0  0  0  0  0  0  0  0  0  0
    0.3230    0.2643   -1.2934 C   0  0  0  0  0  0  0  0  0  0  0  0
   -0.2920    1.2234   -1.7576 O   0  0  0  0  0  0  0  0  0  0  0  0
    1.2727   -0.3766   -1.9841 N   0  0  0  0  0  0  0  0  0  0  0  0
    1.6883   -1.1973   -1.5555 H   0  0  0  0  0  0  0  0  0  0  0  0
    1.6965   -0.0155   -3.3352 C   0  0  0  0  0  0  0  0  0  0  0  0
    1.9455    1.0473   -3.3721 H   0  0  0  0  0  0  0  0  0  0  0  0
    2.5713   -0.6001   -3.6227 H   0  0  0  0  0  0  0  0  0  0  0  0
    0.8856   -0.2086   -4.0397 H   0  0  0  0  0  0  0  0  0  0  0  0
  5  6  2  0  0  0  0
  5  7  1  0  0  0  0
  2  3  1  0  0  0  0
  2  4  1  0  0  0  0
  2  5  1  0  0  0  0
  1  2  1  0  0  0  0
 18 19  2  0  0  0  0
 18 20  1  0  0  0  0
 16 17  1  0  0  0  0
 14 15  2  0  0  0  0
 14 16  1  0  0  0  0
 11 12  1  0  0  0  0
 11 13  1  0  0  0  0
 11 14  1  0  0  0  0
  9 10  1  0  0  0  0
  9 11  1  0  0  0  0
  9 18  1  0  0  0  0
  7  8  1  0  0  0  0
  7  9  1  0  0  0  0
 22 23  1  0  0  0  0
 22 24  1  0  0  0  0
 22 25  1  0  0  0  0
 20 21  1  0  0  0  0
 20 22  1  0  0  0  0
M  END
$$$$
default_name
  -OEChem-01062215323D

 25 24  0     1  0  0  0  0  0999 V2000
   -2.7826   -3.8464    0.7821 H   0  0  0  0  0  0  0  0  0  0  0  0
   -2.8156   -2.8034    0.4711 C   0  0  0  0  0  0  0  0  0  0  0  0
   -3.4336   -2.2354    1.1641 H   0  0  0  0  0  0  0  0  0  0  0  0
   -3.2256   -2.7344   -0.5349 H   0  0  0  0  0  0  0  0  0  0  0  0
   -1.4126   -2.2444    0.4801 C   0  0  0  0  0  0  0  0  0  0  0  0
   -0.4686   -2.9534    0.8001 O   0  0  0  0  0  0  0  0  0  0  0  0
   -1.2736   -0.9704    0.1241 N   0  0  0  0  0  0  0  0  0  0  0  0
   -2.0996   -0.4354   -0.1019 H   0  0  0  0  0  0  0  0  0  0  0  0
   -0.0016   -0.2394    0.1271 C   0  0  1  0  0  0  0  0  0  0  0  0
   -0.1024    0.6281    0.7831 H   0  0  0  0  0  0  0  0  0  0  0  0
    1.1115   -1.1526    0.6778 C   0  0  0  0  0  0  0  0  0  0  0  0
    1.0882   -2.1093    0.1544 H   0  0  0  0  0  0  0  0  0  0  0  0
    2.0848   -0.6953    0.4967 H   0  0  0  0  0  0  0  0  0  0  0  0
    0.9678   -1.4546    2.1664 C   0  0  0  0  0  0  0  0  0  0  0  0
    0.4468   -0.7200    2.9954 O   0  0  0  0  0  0  0  0  0  0  0  0
    1.4793   -2.6377    2.5544 O   0  0  0  0  0  0  0  0  0  0  0  0
    1.3043   -2.7039    3.4937 H   0  0  0  0  0  0  0  0  0  0  0  0
    0.3230    0.2643   -1.2934 C   0  0  0  0  0  0  0  0  0  0  0  0
   -0.0773    1.3695   -1.6567 O   0  0  0  0  0  0  0  0  0  0  0  0
    1.0336   -0.5366   -2.0955 N   0  0  0  0  0  0  0  0  0  0  0  0
    1.2715   -1.4582   -1.7433 H   0  0  0  0  0  0  0  0  0  0  0  0
    1.4252   -0.1991   -3.4623 C   0  0  0  0  0  0  0  0  0  0  0  0
    1.9191    0.7750   -3.4747 H   0  0  0  0  0  0  0  0  0  0  0  0
    2.1084   -0.9538   -3.8539 H   0  0  0  0  0  0  0  0  0  0  0  0
    0.5393   -0.1492   -4.0978 H   0  0  0  0  0  0  0  0  0  0  0  0
  5  6  2  0  0  0  0
  5  7  1  0  0  0  0
  2  3  1  0  0  0  0
  2  4  1  0  0  0  0
  2  5  1  0  0  0  0
  1  2  1  0  0  0  0
 18 19  2  0  0  0  0
 18 20  1  0  0  0  0
 16 17  1  0  0  0  0
 14 15  2  0  0  0  0
 14 16  1  0  0  0  0
 11 12  1  0  0  0  0
 11 13  1  0  0  0  0
 11 14  1  0  0  0  0
  9 10  1  0  0  0  0
  9 11  1  0  0  0  0
  9 18  1  0  0  0  0
  7  8  1  0  0  0  0
  7  9  1  0  0  0  0
 22 23  1  0  0  0  0
 22 24  1  0  0  0  0
 22 25  1  0  0  0  0
 20 21  1  0  0  0  0
 20 22  1  0  0  0  0
M  END
$$$$
default_name
  -OEChem-01062215323D

 25 24  0     1  0  0  0  0  0999 V2000
   -2.7826   -3.8464    0.7821 H   0  0  0  0  0  0  0  0  0  0  0  0
   -2.8156   -2.8034    0.4711 C   0  0  0  0  0  0  0  0  0  0  0  0
   -3.4336   -2.2354    1.1641 H   0  0  0  0  0  0  0  0  0  0  0  0
   -3.2256   -2.7344   -0.5349 H   0  0  0  0  0  0  0  0  0  0  0  0
   -1.4126   -2.2444    0.4801 C   0  0  0  0  0  0  0  0  0  0  0  0
   -0.4686   -2.9534    0.8001 O   0  0  0  0  0  0  0  0  0  0  0  0
   -1.2736   -0.9704    0.1241 N   0  0  0  0  0  0  0  0  0  0  0  0
   -2.0996   -0.4354   -0.1019 H   0  0  0  0  0  0  0  0  0  0  0  0
   -0.0016   -0.2394    0.1271 C   0  0  1  0  0  0  0  0  0  0  0  0
   -0.1024    0.6281    0.7831 H   0  0  0  0  0  0  0  0  0  0  0  0
    1.1115   -1.1526    0.6778 C   0  0  0  0  0  0  0  0  0  0  0  0
    1.0882   -2.1093    0.1544 H   0  0  0  0  0  0  0  0  0  0  0  0
    2.0848   -0.6953    0.4967 H   0  0  0  0  0  0  0  0  0  0  0  0
    0.9678   -1.4546    2.1664 C   0  0  0  0  0  0  0  0  0  0  0  0
    0.4468   -0.7200    2.9954 O   0  0  0  0  0  0  0  0  0  0  0  0
    1.4793   -2.6377    2.5544 O   0  0  0  0  0  0  0  0  0  0  0  0
    1.3043   -2.7039    3.4937 H   0  0  0  0  0  0  0  0  0  0  0  0
    0.3230    0.2643   -1.2934 C   0  0  0  0  0  0  0  0  0  0  0  0
    0.1736    1.4539   -1.5694 O   0  0  0  0  0  0  0  0  0  0  0  0
    0.7551   -0.6280   -2.1916 N   0  0  0  0  0  0  0  0  0  0  0  0
    0.7907   -1.6005   -1.9037 H   0  0  0  0  0  0  0  0  0  0  0  0
    1.1086   -0.3047   -3.5721 C   0  0  0  0  0  0  0  0  0  0  0  0
    1.8201    0.5238   -3.5864 H   0  0  0  0  0  0  0  0  0  0  0  0
    1.5573   -1.1724   -4.0574 H   0  0  0  0  0  0  0  0  0  0  0  0
    0.2141   -0.0060   -4.1214 H   0  0  0  0  0  0  0  0  0  0  0  0
  5  6  2  0  0  0  0
  5  7  1  0  0  0  0
  2  3  1  0  0  0  0
  2  4  1  0  0  0  0
  2  5  1  0  0  0  0
  1  2  1  0  0  0  0
 18 19  2  0  0  0  0
 18 20  1  0  0  0  0
 16 17  1  0  0  0  0
 14 15  2  0  0  0  0
 14 16  1  0  0  0  0
 11 12  1  0  0  0  0
 11 13  1  0  0  0  0
 11 14  1  0  0  0  0
  9 10  1  0  0  0  0
  9 11  1  0  0  0  0
  9 18  1  0  0  0  0
  7  8  1  0  0  0  0
  7  9  1  0  0  0  0
 22 23  1  0  0  0  0
 22 24  1  0  0  0  0
 22 25  1  0  0  0  0
 20 21  1  0  0  0  0
 20 22  1  0  0  0  0
M  END
$$$$
default_name
  -OEChem-01062215323D

 25 24  0     1  0  0  0  0  0999 V2000
   -2.7826   -3.8464    0.7821 H   0  0  0  0  0  0  0  0  0  0  0  0
   -2.8156   -2.8034    0.4711 C   0  0  0  0  0  0  0  0  0  0  0  0
   -3.4336   -2.2354    1.1641 H   0  0  0  0  0  0  0  0  0  0  0  0
   -3.2256   -2.7344   -0.5349 H   0  0  0  0  0  0  0  0  0  0  0  0
   -1.4126   -2.2444    0.4801 C   0  0  0  0  0  0  0  0  0  0  0  0
   -0.4686   -2.9534    0.8001 O   0  0  0  0  0  0  0  0  0  0  0  0
   -1.2736   -0.9704    0.1241 N   0  0  0  0  0  0  0  0  0  0  0  0
   -2.0996   -0.4354   -0.1019 H   0  0  0  0  0  0  0  0  0  0  0  0
   -0.0016   -0.2394    0.1271 C   0  0  1  0  0  0  0  0  0  0  0  0
   -0.1024    0.6281    0.7831 H   0  0  0  0  0  0  0  0  0  0  0  0
    1.1115   -1.1526    0.6778 C   0  0  0  0  0  0  0  0  0  0  0  0
    1.0882   -2.1093    0.1544 H   0  0  0  0  0  0  0  0  0  0  0  0
    2.0848   -0.6953    0.4967 H   0  0  0  0  0  0  0  0  0  0  0  0
    0.9678   -1.4546    2.1664 C   0  0  0  0  0  0  0  0  0  0  0  0
    0.4468   -0.7200    2.9954 O   0  0  0  0  0  0  0  0  0  0  0  0
    1.4793   -2.6377    2.5544 O   0  0  0  0  0  0  0  0  0  0  0  0
    1.3043   -2.7039    3.4937 H   0  0  0  0  0  0  0  0  0  0  0  0
    0.3230    0.2643   -1.2934 C   0  0  0  0  0  0  0  0  0  0  0  0
    0.4434    1.4708   -1.5017 O   0  0  0  0  0  0  0  0  0  0  0  0
    0.4561   -0.6447   -2.2658 N   0  0  0  0  0  0  0  0  0  0  0  0
    0.2789   -1.6147   -2.0257 H   0  0  0  0  0  0  0  0  0  0  0  0
    0.7684   -0.3253   -3.6572 C   0  0  0  0  0  0  0  0  0  0  0  0
    1.6551    0.3110   -3.6996 H   0  0  0  0  0  0  0  0  0  0  0  0
    0.9556   -1.2411   -4.2193 H   0  0  0  0  0  0  0  0  0  0  0  0
   -0.0679    0.2111   -4.1089 H   0  0  0  0  0  0  0  0  0  0  0  0
  5  6  2  0  0  0  0
  5  7  1  0  0  0  0
  2  3  1  0  0  0  0
  2  4  1  0  0  0  0
  2  5  1  0  0  0  0
  1  2  1  0  0  0  0
 18 19  2  0  0  0  0
 18 20  1  0  0  0  0
 16 17  1  0  0  0  0
 14 15  2  0  0  0  0
 14 16  1  0  0  0  0
 11 12  1  0  0  0  0
 11 13  1  0  0  0  0
 11 14  1  0  0  0  0
  9 10  1  0  0  0  0
  9 11  1  0  0  0  0
  9 18  1  0  0  0  0
  7  8  1  0  0  0  0
  7  9  1  0  0  0  0
 22 23  1  0  0  0  0
 22 24  1  0  0  0  0
 22 25  1  0  0  0  0
 20 21  1  0  0  0  0
 20 22  1  0  0  0  0
M  END
$$$$
default_name
  -OEChem-01062215323D

 25 24  0     1  0  0  0  0  0999 V2000
   -2.7826   -3.8464    0.7821 H   0  0  0  0  0  0  0  0  0  0  0  0
   -2.8156   -2.8034    0.4711 C   0  0  0  0  0  0  0  0  0  0  0  0
   -3.4336   -2.2354    1.1641 H   0  0  0  0  0  0  0  0  0  0  0  0
   -3.2256   -2.7344   -0.5349 H   0  0  0  0  0  0  0  0  0  0  0  0
   -1.4126   -2.2444    0.4801 C   0  0  0  0  0  0  0  0  0  0  0  0
   -0.4686   -2.9534    0.8001 O   0  0  0  0  0  0  0  0  0  0  0  0
   -1.2736   -0.9704    0.1241 N   0  0  0  0  0  0  0  0  0  0  0  0
   -2.0996   -0.4354   -0.1019 H   0  0  0  0  0  0  0  0  0  0  0  0
   -0.0016   -0.2394    0.1271 C   0  0  1  0  0  0  0  0  0  0  0  0
   -0.1024    0.6281    0.7831 H   0  0  0  0  0  0  0  0  0  0  0  0
    1.1115   -1.1526    0.6778 C   0  0  0  0  0  0  0  0  0  0  0  0
    1.0882   -2.1093    0.1544 H   0  0  0  0  0  0  0  0  0  0  0  0
    2.0848   -0.6953    0.4967 H   0  0  0  0  0  0  0  0  0  0  0  0
    0.9678   -1.4546    2.1664 C   0  0  0  0  0  0  0  0  0  0  0  0
    0.4468   -0.7200    2.9954 O   0  0  0  0  0  0  0  0  0  0  0  0
    1.4793   -2.6377    2.5544 O   0  0  0  0  0  0  0  0  0  0  0  0
    1.3043   -2.7039    3.4937 H   0  0  0  0  0  0  0  0  0  0  0  0
    0.3230    0.2643   -1.2934 C   0  0  0  0  0  0  0  0  0  0  0  0
    0.7138    1.4192   -1.4582 O   0  0  0  0  0  0  0  0  0  0  0  0
    0.1571   -0.5855   -2.3132 N   0  0  0  0  0  0  0  0  0  0  0  0
   -0.2293   -1.4996   -2.1011 H   0  0  0  0  0  0  0  0  0  0  0  0
    0.4276   -0.2594   -3.7117 C   0  0  0  0  0  0  0  0  0  0  0  0
    1.4353    0.1509   -3.8066 H   0  0  0  0  0  0  0  0  0  0  0  0
    0.3444   -1.1552   -4.3285 H   0  0  0  0  0  0  0  0  0  0  0  0
   -0.2875    0.4874   -4.0611 H   0  0  0  0  0  0  0  0  0  0  0  0
  5  6  2  0  0  0  0
  5  7  1  0  0  0  0
  2  3  1  0  0  0  0
  2  4  1  0  0  0  0
  2  5  1  0  0  0  0
  1  2  1  0  0  0  0
 18 19  2  0  0  0  0
 18 20  1  0  0  0  0
 16 17  1  0  0  0  0
 14 15  2  0  0  0  0
 14 16  1  0  0  0  0
 11 12  1  0  0  0  0
 11 13  1  0  0  0  0
 11 14  1  0  0  0  0
  9 10  1  0  0  0  0
  9 11  1  0  0  0  0
  9 18  1  0  0  0  0
  7  8  1  0  0  0  0
  7  9  1  0  0  0  0
 22 23  1  0  0  0  0
 22 24  1  0  0  0  0
 22 25  1  0  0  0  0
 20 21  1  0  0  0  0
 20 22  1  0  0  0  0
M  END
$$$$
default_name
  -OEChem-01062215323D

 25 24  0     1  0  0  0  0  0999 V2000
   -2.7826   -3.8464    0.7821 H   0  0  0  0  0  0  0  0  0  0  0  0
   -2.8156   -2.8034    0.4711 C   0  0  0  0  0  0  0  0  0  0  0  0
   -3.4336   -2.2354    1.1641 H   0  0  0  0  0  0  0  0  0  0  0  0
   -3.2256   -2.7344   -0.5349 H   0  0  0  0  0  0  0  0  0  0  0  0
   -1.4126   -2.2444    0.4801 C   0  0  0  0  0  0  0  0  0  0  0  0
   -0.4686   -2.9534    0.8001 O   0  0  0  0  0  0  0  0  0  0  0  0
   -1.2736   -0.9704    0.1241 N   0  0  0  0  0  0  0  0  0  0  0  0
   -2.0996   -0.4354   -0.1019 H   0  0  0  0  0  0  0  0  0  0  0  0
   -0.0016   -0.2394    0.1271 C   0  0  1  0  0  0  0  0  0  0  0  0
   -0.1024    0.6281    0.7831 H   0  0  0  0  0  0  0  0  0  0  0  0
    1.1115   -1.1526    0.6778 C   0  0  0  0  0  0  0  0  0  0  0  0
    1.0882   -2.1093    0.1544 H   0  0  0  0  0  0  0  0  0  0  0  0
    2.0848   -0.6953    0.4967 H   0  0  0  0  0  0  0  0  0  0  0  0
    0.9678   -1.4546    2.1664 C   0  0  0  0  0  0  0  0  0  0  0  0
    0.4468   -0.7200    2.9954 O   0  0  0  0  0  0  0  0  0  0  0  0
    1.4793   -2.6377    2.5544 O   0  0  0  0  0  0  0  0  0  0  0  0
    1.3043   -2.7039    3.4937 H   0  0  0  0  0  0  0  0  0  0  0  0
    0.3230    0.2643   -1.2934 C   0  0  0  0  0  0  0  0  0  0  0  0
    0.9663    1.3024   -1.4419 O   0  0  0  0  0  0  0  0  0  0  0  0
   -0.1217   -0.4544   -2.3304 N   0  0  0  0  0  0  0  0  0  0  0  0
   -0.6990   -1.2632   -2.1246 H   0  0  0  0  0  0  0  0  0  0  0  0
    0.1096   -0.1116   -3.7320 C   0  0  0  0  0  0  0  0  0  0  0  0
    1.1759    0.0545   -3.9001 H   0  0  0  0  0  0  0  0  0  0  0  0
   -0.2347   -0.9204   -4.3777 H   0  0  0  0  0  0  0  0  0  0  0  0
   -0.4297    0.8040   -3.9813 H   0  0  0  0  0  0  0  0  0  0  0  0
  5  6  2  0  0  0  0
  5  7  1  0  0  0  0
  2  3  1  0  0  0  0
  2  4  1  0  0  0  0
  2  5  1  0  0  0  0
  1  2  1  0  0  0  0
 18 19  2  0  0  0  0
 18 20  1  0  0  0  0
 16 17  1  0  0  0  0
 14 15  2  0  0  0  0
 14 16  1  0  0  0  0
 11 12  1  0  0  0  0
 11 13  1  0  0  0  0
 11 14  1  0  0  0  0
  9 10  1  0  0  0  0
  9 11  1  0  0  0  0
  9 18  1  0  0  0  0
  7  8  1  0  0  0  0
  7  9  1  0  0  0  0
 22 23  1  0  0  0  0
 22 24  1  0  0  0  0
 22 25  1  0  0  0  0
 20 21  1  0  0  0  0
 20 22  1  0  0  0  0
M  END
$$$$
default_name
  -OEChem-01062215323D

 25 24  0     1  0  0  0  0  0999 V2000
   -2.7826   -3.8464    0.7821 H   0  0  0  0  0  0  0  0  0  0  0  0
   -2.8156   -2.8034    0.4711 C   0  0  0  0  0  0  0  0  0  0  0  0
   -3.4336   -2.2354    1.1641 H   0  0  0  0  0  0  0  0  0  0  0  0
   -3.2256   -2.7344   -0.5349 H   0  0  0  0  0  0  0  0  0  0  0  0
   -1.4126   -2.2444    0.4801 C   0  0  0  0  0  0  0  0  0  0  0  0
   -0.4686   -2.9534    0.8001 O   0  0  0  0  0  0  0  0  0  0  0  0
   -1.2736   -0.9704    0.1241 N   0  0  0  0  0  0  0  0  0  0  0  0
   -2.0996   -0.4354   -0.1019 H   0  0  0  0  0  0  0  0  0  0  0  0
   -0.0016   -0.2394    0.1271 C   0  0  1  0  0  0  0  0  0  0  0  0
   -0.1024    0.6281    0.7831 H   0  0  0  0  0  0  0  0  0  0  0  0
    1.1115   -1.1526    0.6778 C   0  0  0  0  0  0  0  0  0  0  0  0
    1.0882   -2.1093    0.1544 H   0  0  0  0  0  0  0  0  0  0  0  0
    2.0848   -0.6953    0.4967 H   0  0  0  0  0  0  0  0  0  0  0  0
    0.9678   -1.4546    2.1664 C   0  0  0  0  0  0  0  0  0  0  0  0
    0.4468   -0.7200    2.9954 O   0  0  0  0  0  0  0  0  0  0  0  0
    1.4793   -2.6377    2.5544 O   0  0  0  0  0  0  0  0  0  0  0  0
    1.3043   -2.7039    3.4937 H   0  0  0  0  0  0  0  0  0  0  0  0
    0.3230    0.2643   -1.2934 C   0  0  0  0  0  0  0  0  0  0  0  0
    1.1838    1.1286   -1.4539 O   0  0  0  0  0  0  0  0  0  0  0  0
   -0.3611   -0.2603   -2.3163 N   0  0  0  0  0  0  0  0  0  0  0  0
   -1.0984   -0.9216   -2.0947 H   0  0  0  0  0  0  0  0  0  0  0  0
   -0.1641    0.1082   -3.7166 C   0  0  0  0  0  0  0  0  0  0  0  0
    0.8944    0.0283   -3.9737 H   0  0  0  0  0  0  0  0  0  0  0  0
   -0.7423   -0.5529   -4.3634 H   0  0  0  0  0  0  0  0  0  0  0  0
   -0.4847    1.1394   -3.8749 H   0  0  0  0  0  0  0  0  0  0  0  0
  5  6  2  0  0  0  0
  5  7  1  0  0  0  0
  2  3  1  0  0  0  0
  2  4  1  0  0  0  0
  2  5  1  0  0  0  0
  1  2  1  0  0  0  0
 18 19  2  0  0  0  0
 18 20  1  0  0  0  0
 16 17  1  0  0  0  0
 14 15  2  0  0  0  0
 14 16  1  0  0  0  0
 11 12  1  0  0  0  0
 11 13  1  0  0  0  0
 11 14  1  0  0  0  0
  9 10  1  0  0  0  0
  9 11  1  0  0  0  0
  9 18  1  0  0  0  0
  7  8  1  0  0  0  0
  7  9  1  0  0  0  0
 22 23  1  0  0  0  0
 22 24  1  0  0  0  0
 22 25  1  0  0  0  0
 20 21  1  0  0  0  0
 20 22  1  0  0  0  0
M  END
$$$$
default_name
  -OEChem-01062215323D

 25 24  0     1  0  0  0  0  0999 V2000
   -2.7826   -3.8464    0.7821 H   0  0  0  0  0  0  0  0  0  0  0  0
   -2.8156   -2.8034    0.4711 C   0  0  0  0  0  0  0  0  0  0  0  0
   -3.4336   -2.2354    1.1641 H   0  0  0  0  0  0  0  0  0  0  0  0
   -3.2256   -2.7344   -0.5349 H   0  0  0  0  0  0  0  0  0  0  0  0
   -1.4126   -2.2444    0.4801 C   0  0  0  0  0  0  0  0  0  0  0  0
   -0.4686   -2.9534    0.8001 O   0  0  0  0  0  0  0  0  0  0  0  0
   -1.2736   -0.9704    0.1241 N   0  0  0  0  0  0  0  0  0  0  0  0
   -2.0996   -0.4354   -0.1019 H   0  0  0  0  0  0  0  0  0  0  0  0
   -0.0016   -0.2394    0.1271 C   0  0  1  0  0  0  0  0  0  0  0  0
   -0.1024    0.6281    0.7831 H   0  0  0  0  0  0  0  0  0  0  0  0
    1.1115   -1.1526    0.6778 C   0  0  0  0  0  0  0  0  0  0  0  0
    1.0882   -2.1093    0.1544 H   0  0  0  0  0  0  0  0  0  0  0  0
    2.0848   -0.6953    0.4967 H   0  0  0  0  0  0  0  0  0  0  0  0
    0.9678   -1.4546    2.1664 C   0  0  0  0  0  0  0  0  0  0  0  0
    0.4468   -0.7200    2.9954 O   0  0  0  0  0  0  0  0  0  0  0  0
    1.4793   -2.6377    2.5544 O   0  0  0  0  0  0  0  0  0  0  0  0
    1.3043   -2.7039    3.4937 H   0  0  0  0  0  0  0  0  0  0  0  0
    0.3230    0.2643   -1.2934 C   0  0  0  0  0  0  0  0  0  0  0  0
    1.3514    0.9094   -1.4933 O   0  0  0  0  0  0  0  0  0  0  0  0
   -0.5449   -0.0166   -2.2719 N   0  0  0  0  0  0  0  0  0  0  0  0
   -1.4001   -0.4980   -2.0135 H   0  0  0  0  0  0  0  0  0  0  0  0
   -0.3747    0.3849   -3.6666 C   0  0  0  0  0  0  0  0  0  0  0  0
    0.6100    0.0742   -4.0225 H   0  0  0  0  0  0  0  0  0  0  0  0
   -1.1437   -0.0777   -4.2866 H   0  0  0  0  0  0  0  0  0  0  0  0
   -0.4490    1.4707   -3.7493 H   0  0  0  0  0  0  0  0  0  0  0  0
  5  6  2  0  0  0  0
  5  7  1  0  0  0  0
  2  3  1  0  0  0  0
  2  4  1  0  0  0  0
  2  5  1  0  0  0  0
  1  2  1  0  0  0  0
 18 19  2  0  0  0  0
 18 20  1  0  0  0  0
 16 17  1  0  0  0  0
 14 15  2  0  0  0  0
 14 16  1  0  0  0  0
 11 12  1  0  0  0  0
 11 13  1  0  0  0  0
 11 14  1  0  0  0  0
  9 10  1  0  0  0  0
  9 11  1  0  0  0  0
  9 18  1  0  0  0  0
  7  8  1  0  0  0  0
  7  9  1  0  0  0  0
 22 23  1  0  0  0  0
 22 24  1  0  0  0  0
 22 25  1  0  0  0  0
 20 21  1  0  0  0  0
 20 22  1  0  0  0  0
M  END
$$$$
default_name
  -OEChem-01062215323D

 25 24  0     1  0  0  0  0  0999 V2000
   -2.7826   -3.8464    0.7821 H   0  0  0  0  0  0  0  0  0  0  0  0
   -2.8156   -2.8034    0.4711 C   0  0  0  0  0  0  0  0  0  0  0  0
   -3.4336   -2.2354    1.1641 H   0  0  0  0  0  0  0  0  0  0  0  0
   -3.2256   -2.7344   -0.5349 H   0  0  0  0  0  0  0  0  0  0  0  0
   -1.4126   -2.2444    0.4801 C   0  0  0  0  0  0  0  0  0  0  0  0
   -0.4686   -2.9534    0.8001 O   0  0  0  0  0  0  0  0  0  0  0  0
   -1.2736   -0.9704    0.1241 N   0  0  0  0  0  0  0  0  0  0  0  0
   -2.0996   -0.4354   -0.1019 H   0  0  0  0  0  0  0  0  0  0  0  0
   -0.0016   -0.2394    0.1271 C   0  0  1  0  0  0  0  0  0  0  0  0
   -0.1024    0.6281    0.7831 H   0  0  0  0  0  0  0  0  0  0  0  0
    1.1115   -1.1526    0.6778 C   0  0  0  0  0  0  0  0  0  0  0  0
    1.0882   -2.1093    0.1544 H   0  0  0  0  0  0  0  0  0  0  0  0
    2.0848   -0.6953    0.4967 H   0  0  0  0  0  0  0  0  0  0  0  0
    0.9678   -1.4546    2.1664 C   0  0  0  0  0  0  0  0  0  0  0  0
    0.4468   -0.7200    2.9954 O   0  0  0  0  0  0  0  0  0  0  0  0
    1.4793   -2.6377    2.5544 O   0  0  0  0  0  0  0  0  0  0  0  0
    1.3043   -2.7039    3.4937 H   0  0  0  0  0  0  0  0  0  0  0  0
    0.3230    0.2643   -1.2934 C   0  0  0  0  0  0  0  0  0  0  0  0
    1.4576    0.6599   -1.5575 O   0  0  0  0  0  0  0  0  0  0  0  0
   -0.6606    0.2603   -2.2001 N   0  0  0  0  0  0  0  0  0  0  0  0
   -1.5837   -0.0213   -1.8864 H   0  0  0  0  0  0  0  0  0  0  0  0
   -0.5080    0.6997   -3.5854 C   0  0  0  0  0  0  0  0  0  0  0  0
    0.3421    0.1890   -4.0430 H   0  0  0  0  0  0  0  0  0  0  0  0
   -1.4116    0.4729   -4.1526 H   0  0  0  0  0  0  0  0  0  0  0  0
   -0.3248    1.7753   -3.6128 H   0  0  0  0  0  0  0  0  0  0  0  0
  5  6  2  0  0  0  0
  5  7  1  0  0  0  0
  2  3  1  0  0  0  0
  2  4  1  0  0  0  0
  2  5  1  0  0  0  0
  1  2  1  0  0  0  0
 18 19  2  0  0  0  0
 18 20  1  0  0  0  0
 16 17  1  0  0  0  0
 14 15  2  0  0  0  0
 14 16  1  0  0  0  0
 11 12  1  0  0  0  0
 11 13  1  0  0  0  0
 11 14  1  0  0  0  0
  9 10  1  0  0  0  0
  9 11  1  0  0  0  0
  9 18  1  0  0  0  0
  7  8  1  0  0  0  0
  7  9  1  0  0  0  0
 22 23  1  0  0  0  0
 22 24  1  0  0  0  0
 22 25  1  0  0  0  0
 20 21  1  0  0  0  0
 20 22  1  0  0  0  0
M  END
$$$$
default_name
  -OEChem-01062215323D

 25 24  0     1  0  0  0  0  0999 V2000
   -2.7826   -3.8464    0.7821 H   0  0  0  0  0  0  0  0  0  0  0  0
   -2.8156   -2.8034    0.4711 C   0  0  0  0  0  0  0  0  0  0  0  0
   -3.4336   -2.2354    1.1641 H   0  0  0  0  0  0  0  0  0  0  0  0
   -3.2256   -2.7344   -0.5349 H   0  0  0  0  0  0  0  0  0  0  0  0
   -1.4126   -2.2444    0.4801 C   0  0  0  0  0  0  0  0  0  0  0  0
   -0.4686   -2.9534    0.8001 O   0  0  0  0  0  0  0  0  0  0  0  0
   -1.2736   -0.9704    0.1241 N   0  0  0  0  0  0  0  0  0  0  0  0
   -2.0996   -0.4354   -0.1019 H   0  0  0  0  0  0  0  0  0  0  0  0
   -0.0016   -0.2394    0.1271 C   0  0  1  0  0  0  0  0  0  0  0  0
   -0.1024    0.6281    0.7831 H   0  0  0  0  0  0  0  0  0  0  0  0
    1.1115   -1.1526    0.6778 C   0  0  0  0  0  0  0  0  0  0  0  0
    1.0882   -2.1093    0.1544 H   0  0  0  0  0  0  0  0  0  0  0  0
    2.0848   -0.6953    0.4967 H   0  0  0  0  0  0  0  0  0  0  0  0
    0.9678   -1.4546    2.1664 C   0  0  0  0  0  0  0  0  0  0  0  0
    0.4468   -0.7200    2.9954 O   0  0  0  0  0  0  0  0  0  0  0  0
    1.4793   -2.6377    2.5544 O   0  0  0  0  0  0  0  0  0  0  0  0
    1.3043   -2.7039    3.4937 H   0  0  0  0  0  0  0  0  0  0  0  0
    0.3230    0.2643   -1.2934 C   0  0  0  0  0  0  0  0  0  0  0  0
    1.4954    0.3971   -1.6420 O   0  0  0  0  0  0  0  0  0  0  0  0
   -0.7002    0.5514   -2.1059 N   0  0  0  0  0  0  0  0  0  0  0  0
   -1.6366    0.4761   -1.7221 H   0  0  0  0  0  0  0  0  0  0  0  0
   -0.5547    1.0311   -3.4786 C   0  0  0  0  0  0  0  0  0  0  0  0
    0.1090    0.3648   -4.0339 H   0  0  0  0  0  0  0  0  0  0  0  0
   -1.5278    1.0613   -3.9704 H   0  0  0  0  0  0  0  0  0  0  0  0
   -0.1206    2.0325   -3.4750 H   0  0  0  0  0  0  0  0  0  0  0  0
  5  6  2  0  0  0  0
  5  7  1  0  0  0  0
  2  3  1  0  0  0  0
  2  4  1  0  0  0  0
  2  5  1  0  0  0  0
  1  2  1  0  0  0  0
 18 19  2  0  0  0  0
 18 20  1  0  0  0  0
 16 17  1  0  0  0  0
 14 15  2  0  0  0  0
 14 16  1  0  0  0  0
 11 12  1  0  0  0  0
 11 13  1  0  0  0  0
 11 14  1  0  0  0  0
  9 10  1  0  0  0  0
  9 11  1  0  0  0  0
  9 18  1  0  0  0  0
  7  8  1  0  0  0  0
  7  9  1  0  0  0  0
 22 23  1  0  0  0  0
 22 24  1  0  0  0  0
 22 25  1  0  0  0  0
 20 21  1  0  0  0  0
 20 22  1  0  0  0  0
M  END
$$$$
default_name
  -OEChem-01062215323D

 25 24  0     1  0  0  0  0  0999 V2000
   -2.7826   -3.8464    0.7821 H   0  0  0  0  0  0  0  0  0  0  0  0
   -2.8156   -2.8034    0.4711 C   0  0  0  0  0  0  0  0  0  0  0  0
   -3.4336   -2.2354    1.1641 H   0  0  0  0  0  0  0  0  0  0  0  0
   -3.2256   -2.7344   -0.5349 H   0  0  0  0  0  0  0  0  0  0  0  0
   -1.4126   -2.2444    0.4801 C   0  0  0  0  0  0  0  0  0  0  0  0
   -0.4686   -2.9534    0.8001 O   0  0  0  0  0  0  0  0  0  0  0  0
   -1.2736   -0.9704    0.1241 N   0  0  0  0  0  0  0  0  0  0  0  0
   -2.0996   -0.4354   -0.1019 H   0  0  0  0  0  0  0  0  0  0  0  0
   -0.0016   -0.2394    0.1271 C   0  0  1  0  0  0  0  0  0  0  0  0
   -0.1024    0.6281    0.7831 H   0  0  0  0  0  0  0  0  0  0  0  0
    1.1115   -1.1526    0.6778 C   0  0  0  0  0  0  0  0  0  0  0  0
    1.0882   -2.1093    0.1544 H   0  0  0  0  0  0  0  0  0  0  0  0
    2.0848   -0.6953    0.4967 H   0  0  0  0  0  0  0  0  0  0  0  0
    0.9678   -1.4546    2.1664 C   0  0  0  0  0  0  0  0  0  0  0  0
    0.4468   -0.7200    2.9954 O   0  0  0  0  0  0  0  0  0  0  0  0
    1.4793   -2.6377    2.5544 O   0  0  0  0  0  0  0  0  0  0  0  0
    1.3043   -2.7039    3.4937 H   0  0  0  0  0  0  0  0  0  0  0  0
    0.3230    0.2643   -1.2934 C   0  0  0  0  0  0  0  0  0  0  0  0
    1.4620    0.1388   -1.7413 O   0  0  0  0  0  0  0  0  0  0  0  0
   -0.6611    0.8369   -1.9957 N   0  0  0  0  0  0  0  0  0  0  0  0
   -1.5552    0.9601   -1.5318 H   0  0  0  0  0  0  0  0  0  0  0  0
   -0.5119    1.3566   -3.3534 C   0  0  0  0  0  0  0  0  0  0  0  0
   -0.0735    0.5898   -3.9958 H   0  0  0  0  0  0  0  0  0  0  0  0
   -1.4843    1.6474   -3.7526 H   0  0  0  0  0  0  0  0  0  0  0  0
    0.1495    2.2247   -3.3451 H   0  0  0  0  0  0  0  0  0  0  0  0
  5  6  2  0  0  0  0
  5  7  1  0  0  0  0
  2  3  1  0  0  0  0
  2  4  1  0  0  0  0
  2  5  1  0  0  0  0
  1  2  1  0  0  0  0
 18 19  2  0  0  0  0
 18 20  1  0  0  0  0
 16 17  1  0  0  0  0
 14 15  2  0  0  0  0
 14 16  1  0  0  0  0
 11 12  1  0  0  0  0
 11 13  1  0  0  0  0
 11 14  1  0  0  0  0
  9 10  1  0  0  0  0
  9 11  1  0  0  0  0
  9 18  1  0  0  0  0
  7  8  1  0  0  0  0
  7  9  1  0  0  0  0
 22 23  1  0  0  0  0
 22 24  1  0  0  0  0
 22 25  1  0  0  0  0
 20 21  1  0  0  0  0
 20 22  1  0  0  0  0
M  END
$$$$
default_name
  -OEChem-01062215323D

 25 24  0     1  0  0  0  0  0999 V2000
   -2.7826   -3.8464    0.7821 H   0  0  0  0  0  0  0  0  0  0  0  0
   -2.8156   -2.8034    0.4711 C   0  0  0  0  0  0  0  0  0  0  0  0
   -3.4336   -2.2354    1.1641 H   0  0  0  0  0  0  0  0  0  0  0  0
   -3.2256   -2.7344   -0.5349 H   0  0  0  0  0  0  0  0  0  0  0  0
   -1.4126   -2.2444    0.4801 C   0  0  0  0  0  0  0  0  0  0  0  0
   -0.4686   -2.9534    0.8001 O   0  0  0  0  0  0  0  0  0  0  0  0
   -1.2736   -0.9704    0.1241 N   0  0  0  0  0  0  0  0  0  0  0  0
   -2.0996   -0.4354   -0.1019 H   0  0  0  0  0  0  0  0  0  0  0  0
   -0.0016   -0.2394    0.1271 C   0  0  1  0  0  0  0  0  0  0  0  0
   -0.1024    0.6281    0.7831 H   0  0  0  0  0  0  0  0  0  0  0  0
    1.1115   -1.1526    0.6778 C   0  0  0  0  0  0  0  0  0  0  0  0
    1.0882   -2.1093    0.1544 H   0  0  0  0  0  0  0  0  0  0  0  0
    2.0848   -0.6953    0.4967 H   0  0  0  0  0  0  0  0  0  0  0  0
    0.9678   -1.4546    2.1664 C   0  0  0  0  0  0  0  0  0  0  0  0
    0.4468   -0.7200    2.9954 O   0  0  0  0  0  0  0  0  0  0  0  0
    1.4793   -2.6377    2.5544 O   0  0  0  0  0  0  0  0  0  0  0  0
    1.3043   -2.7039    3.4937 H   0  0  0  0  0  0  0  0  0  0  0  0
    0.3230    0.2643   -1.2934 C   0  0  0  0  0  0  0  0  0  0  0  0
    1.3598   -0.0973   -1.8484 O   0  0  0  0  0  0  0  0  0  0  0  0
   -0.5459    1.0973   -1.8771 N   0  0  0  0  0  0  0  0  0  0  0  0
   -1.3451    1.3979   -1.3286 H   0  0  0  0  0  0  0  0  0  0  0  0
   -0.3822    1.6539   -3.2183 C   0  0  0  0  0  0  0  0  0  0  0  0
   -0.1929    0.8485   -3.9314 H   0  0  0  0  0  0  0  0  0  0  0  0
   -1.2841    2.1914   -3.5140 H   0  0  0  0  0  0  0  0  0  0  0  0
    0.4673    2.3389   -3.2319 H   0  0  0  0  0  0  0  0  0  0  0  0
  5  6  2  0  0  0  0
  5  7  1  0  0  0  0
  2  3  1  0  0  0  0
  2  4  1  0  0  0  0
  2  5  1  0  0  0  0
  1  2  1  0  0  0  0
 18 19  2  0  0  0  0
 18 20  1  0  0  0  0
 16 17  1  0  0  0  0
 14 15  2  0  0  0  0
 14 16  1  0  0  0  0
 11 12  1  0  0  0  0
 11 13  1  0  0  0  0
 11 14  1  0  0  0  0
  9 10  1  0  0  0  0
  9 11  1  0  0  0  0
  9 18  1  0  0  0  0
  7  8  1  0  0  0  0
  7  9  1  0  0  0  0
 22 23  1  0  0  0  0
 22 24  1  0  0  0  0
 22 25  1  0  0  0  0
 20 21  1  0  0  0  0
 20 22  1  0  0  0  0
M  END
$$$$
default_name
  -OEChem-01062215323D

 25 24  0     1  0  0  0  0  0999 V2000
   -2.7826   -3.8464    0.7821 H   0  0  0  0  0  0  0  0  0  0  0  0
   -2.8156   -2.8034    0.4711 C   0  0  0  0  0  0  0  0  0  0  0  0
   -3.4336   -2.2354    1.1641 H   0  0  0  0  0  0  0  0  0  0  0  0
   -3.2256   -2.7344   -0.5349 H   0  0  0  0  0  0  0  0  0  0  0  0
   -1.4126   -2.2444    0.4801 C   0  0  0  0  0  0  0  0  0  0  0  0
   -0.4686   -2.9534    0.8001 O   0  0  0  0  0  0  0  0  0  0  0  0
   -1.2736   -0.9704    0.1241 N   0  0  0  0  0  0  0  0  0  0  0  0
   -2.0996   -0.4354   -0.1019 H   0  0  0  0  0  0  0  0  0  0  0  0
   -0.0016   -0.2394    0.1271 C   0  0  1  0  0  0  0  0  0  0  0  0
   -0.1024    0.6281    0.7831 H   0  0  0  0  0  0  0  0  0  0  0  0
    1.1115   -1.1526    0.6778 C   0  0  0  0  0  0  0  0  0  0  0  0
    1.0882   -2.1093    0.1544 H   0  0  0  0  0  0  0  0  0  0  0  0
    2.0848   -0.6953    0.4967 H   0  0  0  0  0  0  0  0  0  0  0  0
    0.9678   -1.4546    2.1664 C   0  0  0  0  0  0  0  0  0  0  0  0
    0.4468   -0.7200    2.9954 O   0  0  0  0  0  0  0  0  0  0  0  0
    1.4793   -2.6377    2.5544 O   0  0  0  0  0  0  0  0  0  0  0  0
    1.3043   -2.7039    3.4937 H   0  0  0  0  0  0  0  0  0  0  0  0
    0.3230    0.2643   -1.2934 C   0  0  0  0  0  0  0  0  0  0  0  0
    1.1957   -0.2951   -1.9560 O   0  0  0  0  0  0  0  0  0  0  0  0
   -0.3625    1.3149   -1.7580 N   0  0  0  0  0  0  0  0  0  0  0  0
   -1.0206    1.7595   -1.1261 H   0  0  0  0  0  0  0  0  0  0  0  0
   -0.1747    1.9028   -3.0826 C   0  0  0  0  0  0  0  0  0  0  0  0
   -0.2410    1.1234   -3.8449 H   0  0  0  0  0  0  0  0  0  0  0  0
   -0.9408    2.6560   -3.2707 H   0  0  0  0  0  0  0  0  0  0  0  0
    0.8111    2.3672   -3.1433 H   0  0  0  0  0  0  0  0  0  0  0  0
  5  6  2  0  0  0  0
  5  7  1  0  0  0  0
  2  3  1  0  0  0  0
  2  4  1  0  0  0  0
  2  5  1  0  0  0  0
  1  2  1  0  0  0  0
 18 19  2  0  0  0  0
 18 20  1  0  0  0  0
 16 17  1  0  0  0  0
 14 15  2  0  0  0  0
 14 16  1  0  0  0  0
 11 12  1  0  0  0  0
 11 13  1  0  0  0  0
 11 14  1  0  0  0  0
  9 10  1  0  0  0  0
  9 11  1  0  0  0  0
  9 18  1  0  0  0  0
  7  8  1  0  0  0  0
  7  9  1  0  0  0  0
 22 23  1  0  0  0  0
 22 24  1  0  0  0  0
 22 25  1  0  0  0  0
 20 21  1  0  0  0  0
 20 22  1  0  0  0  0
M  END
$$$$
default_name
  -OEChem-01062215323D

 25 24  0     1  0  0  0  0  0999 V2000
   -2.7826   -3.8464    0.7821 H   0  0  0  0  0  0  0  0  0  0  0  0
   -2.8156   -2.8034    0.4711 C   0  0  0  0  0  0  0  0  0  0  0  0
   -3.4336   -2.2354    1.1641 H   0  0  0  0  0  0  0  0  0  0  0  0
   -3.2256   -2.7344   -0.5349 H   0  0  0  0  0  0  0  0  0  0  0  0
   -1.4126   -2.2444    0.4801 C   0  0  0  0  0  0  0  0  0  0  0  0
   -0.4686   -2.9534    0.8001 O   0  0  0  0  0  0  0  0  0  0  0  0
   -1.2736   -0.9704    0.1241 N   0  0  0  0  0  0  0  0  0  0  0  0
   -2.0996   -0.4354   -0.1019 H   0  0  0  0  0  0  0  0  0  0  0  0
   -0.0016   -0.2394    0.1271 C   0  0  1  0  0  0  0  0  0  0  0  0
   -0.1024    0.6281    0.7831 H   0  0  0  0  0  0  0  0  0  0  0  0
    1.1115   -1.1526    0.6778 C   0  0  0  0  0  0  0  0  0  0  0  0
    1.0882   -2.1093    0.1544 H   0  0  0  0  0  0  0  0  0  0  0  0
    2.0848   -0.6953    0.4967 H   0  0  0  0  0  0  0  0  0  0  0  0
    0.9678   -1.4546    2.1664 C   0  0  0  0  0  0  0  0  0  0  0  0
    0.4468   -0.7200    2.9954 O   0  0  0  0  0  0  0  0  0  0  0  0
    1.4793   -2.6377    2.5544 O   0  0  0  0  0  0  0  0  0  0  0  0
    1.3043   -2.7039    3.4937 H   0  0  0  0  0  0  0  0  0  0  0  0
    0.3230    0.2643   -1.2934 C   0  0  0  0  0  0  0  0  0  0  0  0
    0.9809   -0.4412   -2.0569 O   0  0  0  0  0  0  0  0  0  0  0  0
   -0.1234    1.4749   -1.6466 N   0  0  0  0  0  0  0  0  0  0  0  0
   -0.6037    2.0204   -0.9383 H   0  0  0  0  0  0  0  0  0  0  0  0
    0.0966    2.0863   -2.9555 C   0  0  0  0  0  0  0  0  0  0  0  0
   -0.2147    1.3957   -3.7423 H   0  0  0  0  0  0  0  0  0  0  0  0
   -0.4779    3.0097   -3.0395 H   0  0  0  0  0  0  0  0  0  0  0  0
    1.1574    2.3078   -3.0852 H   0  0  0  0  0  0  0  0  0  0  0  0
  5  6  2  0  0  0  0
  5  7  1  0  0  0  0
  2  3  1  0  0  0  0
  2  4  1  0  0  0  0
  2  5  1  0  0  0  0
  1  2  1  0  0  0  0
 18 19  2  0  0  0  0
 18 20  1  0  0  0  0
 16 17  1  0  0  0  0
 14 15  2  0  0  0  0
 14 16  1  0  0  0  0
 11 12  1  0  0  0  0
 11 13  1  0  0  0  0
 11 14  1  0  0  0  0
  9 10  1  0  0  0  0
  9 11  1  0  0  0  0
  9 18  1  0  0  0  0
  7  8  1  0  0  0  0
  7  9  1  0  0  0  0
 22 23  1  0  0  0  0
 22 24  1  0  0  0  0
 22 25  1  0  0  0  0
 20 21  1  0  0  0  0
 20 22  1  0  0  0  0
M  END
$$$$
default_name
  -OEChem-01062215323D

 25 24  0     1  0  0  0  0  0999 V2000
   -2.7826   -3.8464    0.7821 H   0  0  0  0  0  0  0  0  0  0  0  0
   -2.8156   -2.8034    0.4711 C   0  0  0  0  0  0  0  0  0  0  0  0
   -3.4336   -2.2354    1.1641 H   0  0  0  0  0  0  0  0  0  0  0  0
   -3.2256   -2.7344   -0.5349 H   0  0  0  0  0  0  0  0  0  0  0  0
   -1.4126   -2.2444    0.4801 C   0  0  0  0  0  0  0  0  0  0  0  0
   -0.4686   -2.9534    0.8001 O   0  0  0  0  0  0  0  0  0  0  0  0
   -1.2736   -0.9704    0.1241 N   0  0  0  0  0  0  0  0  0  0  0  0
   -2.0996   -0.4354   -0.1019 H   0  0  0  0  0  0  0  0  0  0  0  0
   -0.0016   -0.2394    0.1271 C   0  0  1  0  0  0  0  0  0  0  0  0
   -0.1024    0.6281    0.7831 H   0  0  0  0  0  0  0  0  0  0  0  0
    1.1115   -1.1526    0.6778 C   0  0  0  0  0  0  0  0  0  0  0  0
    1.0882   -2.1093    0.1544 H   0  0  0  0  0  0  0  0  0  0  0  0
    2.0848   -0.6953    0.4967 H   0  0  0  0  0  0  0  0  0  0  0  0
    0.9678   -1.4546    2.1664 C   0  0  0  0  0  0  0  0  0  0  0  0
    0.4468   -0.7200    2.9954 O   0  0  0  0  0  0  0  0  0  0  0  0
    1.4793   -2.6377    2.5544 O   0  0  0  0  0  0  0  0  0  0  0  0
    1.3043   -2.7039    3.4937 H   0  0  0  0  0  0  0  0  0  0  0  0
    0.3230    0.2643   -1.2934 C   0  0  0  0  0  0  0  0  0  0  0  0
    0.7301   -0.5256   -2.1442 O   0  0  0  0  0  0  0  0  0  0  0  0
    0.1551    1.5664   -1.5505 N   0  0  0  0  0  0  0  0  0  0  0  0
   -0.1230    2.1628   -0.7779 H   0  0  0  0  0  0  0  0  0  0  0  0
    0.4131    2.1920   -2.8457 C   0  0  0  0  0  0  0  0  0  0  0  0
   -0.1156    1.6468   -3.6306 H   0  0  0  0  0  0  0  0  0  0  0  0
    0.0732    3.2283   -2.8360 H   0  0  0  0  0  0  0  0  0  0  0  0
    1.4826    2.1646   -3.0616 H   0  0  0  0  0  0  0  0  0  0  0  0
  5  6  2  0  0  0  0
  5  7  1  0  0  0  0
  2  3  1  0  0  0  0
  2  4  1  0  0  0  0
  2  5  1  0  0  0  0
  1  2  1  0  0  0  0
 18 19  2  0  0  0  0
 18 20  1  0  0  0  0
 16 17  1  0  0  0  0
 14 15  2  0  0  0  0
 14 16  1  0  0  0  0
 11 12  1  0  0  0  0
 11 13  1  0  0  0  0
 11 14  1  0  0  0  0
  9 10  1  0  0  0  0
  9 11  1  0  0  0  0
  9 18  1  0  0  0  0
  7  8  1  0  0  0  0
  7  9  1  0  0  0  0
 22 23  1  0  0  0  0
 22 24  1  0  0  0  0
 22 25  1  0  0  0  0
 20 21  1  0  0  0  0
 20 22  1  0  0  0  0
M  END
$$$$
default_name
  -OEChem-01062215323D

 25 24  0     1  0  0  0  0  0999 V2000
   -2.7826   -3.8464    0.7821 H   0  0  0  0  0  0  0  0  0  0  0  0
   -2.8156   -2.8034    0.4711 C   0  0  0  0  0  0  0  0  0  0  0  0
   -3.4336   -2.2354    1.1641 H   0  0  0  0  0  0  0  0  0  0  0  0
   -3.2256   -2.7344   -0.5349 H   0  0  0  0  0  0  0  0  0  0  0  0
   -1.4126   -2.2444    0.4801 C   0  0  0  0  0  0  0  0  0  0  0  0
   -0.4686   -2.9534    0.8001 O   0  0  0  0  0  0  0  0  0  0  0  0
   -1.2736   -0.9704    0.1241 N   0  0  0  0  0  0  0  0  0  0  0  0
   -2.0996   -0.4354   -0.1019 H   0  0  0  0  0  0  0  0  0  0  0  0
   -0.0016   -0.2394    0.1271 C   0  0  1  0  0  0  0  0  0  0  0  0
   -0.1024    0.6281    0.7831 H   0  0  0  0  0  0  0  0  0  0  0  0
    1.1115   -1.1526    0.6778 C   0  0  0  0  0  0  0  0  0  0  0  0
    1.0882   -2.1093    0.1544 H   0  0  0  0  0  0  0  0  0  0  0  0
    2.0848   -0.6953    0.4967 H   0  0  0  0  0  0  0  0  0  0  0  0
    0.9678   -1.4546    2.1664 C   0  0  0  0  0  0  0  0  0  0  0  0
    0.4468   -0.7200    2.9954 O   0  0  0  0  0  0  0  0  0  0  0  0
    1.4793   -2.6377    2.5544 O   0  0  0  0  0  0  0  0  0  0  0  0
    1.3043   -2.7039    3.4937 H   0  0  0  0  0  0  0  0  0  0  0  0
    0.3230    0.2643   -1.2934 C   0  0  0  0  0  0  0  0  0  0  0  0
    0.4603   -0.5426   -2.2119 O   0  0  0  0  0  0  0  0  0  0  0  0
    0.4541    1.5830   -1.4762 N   0  0  0  0  0  0  0  0  0  0  0  0
    0.3889    2.1769   -0.6559 H   0  0  0  0  0  0  0  0  0  0  0  0
    0.7534    2.2126   -2.7606 C   0  0  0  0  0  0  0  0  0  0  0  0
    0.0494    1.8597   -3.5174 H   0  0  0  0  0  0  0  0  0  0  0  0
    0.6748    3.2970   -2.6741 H   0  0  0  0  0  0  0  0  0  0  0  0
    1.7646    1.9475   -3.0742 H   0  0  0  0  0  0  0  0  0  0  0  0
  5  6  2  0  0  0  0
  5  7  1  0  0  0  0
  2  3  1  0  0  0  0
  2  4  1  0  0  0  0
  2  5  1  0  0  0  0
  1  2  1  0  0  0  0
 18 19  2  0  0  0  0
 18 20  1  0  0  0  0
 16 17  1  0  0  0  0
 14 15  2  0  0  0  0
 14 16  1  0  0  0  0
 11 12  1  0  0  0  0
 11 13  1  0  0  0  0
 11 14  1  0  0  0  0
  9 10  1  0  0  0  0
  9 11  1  0  0  0  0
  9 18  1  0  0  0  0
  7  8  1  0  0  0  0
  7  9  1  0  0  0  0
 22 23  1  0  0  0  0
 22 24  1  0  0  0  0
 22 25  1  0  0  0  0
 20 21  1  0  0  0  0
 20 22  1  0  0  0  0
M  END
$$$$
default_name
  -OEChem-01062215323D

 25 24  0     1  0  0  0  0  0999 V2000
   -2.7826   -3.8464    0.7821 H   0  0  0  0  0  0  0  0  0  0  0  0
   -2.8156   -2.8034    0.4711 C   0  0  0  0  0  0  0  0  0  0  0  0
   -3.4336   -2.2354    1.1641 H   0  0  0  0  0  0  0  0  0  0  0  0
   -3.2256   -2.7344   -0.5349 H   0  0  0  0  0  0  0  0  0  0  0  0
   -1.4126   -2.2444    0.4801 C   0  0  0  0  0  0  0  0  0  0  0  0
   -0.4686   -2.9534    0.8001 O   0  0  0  0  0  0  0  0  0  0  0  0
   -1.2736   -0.9704    0.1241 N   0  0  0  0  0  0  0  0  0  0  0  0
   -2.0996   -0.4354   -0.1019 H   0  0  0  0  0  0  0  0  0  0  0  0
   -0.0016   -0.2394    0.1271 C   0  0  1  0  0  0  0  0  0  0  0  0
   -0.1024    0.6281    0.7831 H   0  0  0  0  0  0  0  0  0  0  0  0
    1.1115   -1.1526    0.6778 C   0  0  0  0  0  0  0  0  0  0  0  0
    1.0882   -2.1093    0.1544 H   0  0  0  0  0  0  0  0  0  0  0  0
    2.0848   -0.6953    0.4967 H   0  0  0  0  0  0  0  0  0  0  0  0
    0.9678   -1.4546    2.1664 C   0  0  0  0  0  0  0  0  0  0  0  0
    0.4468   -0.7200    2.9954 O   0  0  0  0  0  0  0  0  0  0  0  0
    1.4793   -2.6377    2.5544 O   0  0  0  0  0  0  0  0  0  0  0  0
    1.3043   -2.7039    3.4937 H   0  0  0  0  0  0  0  0  0  0  0  0
    0.3230    0.2643   -1.2934 C   0  0  0  0  0  0  0  0  0  0  0  0
    0.1899   -0.4909   -2.2554 O   0  0  0  0  0  0  0  0  0  0  0  0
    0.7531    1.5238   -1.4289 N   0  0  0  0  0  0  0  0  0  0  0  0
    0.8970    2.0619   -0.5806 H   0  0  0  0  0  0  0  0  0  0  0  0
    1.0941    2.1467   -2.7061 C   0  0  0  0  0  0  0  0  0  0  0  0
    0.2691    2.0198   -3.4104 H   0  0  0  0  0  0  0  0  0  0  0  0
    1.2860    3.2111   -2.5649 H   0  0  0  0  0  0  0  0  0  0  0  0
    1.9842    1.6712   -3.1220 H   0  0  0  0  0  0  0  0  0  0  0  0
  5  6  2  0  0  0  0
  5  7  1  0  0  0  0
  2  3  1  0  0  0  0
  2  4  1  0  0  0  0
  2  5  1  0  0  0  0
  1  2  1  0  0  0  0
 18 19  2  0  0  0  0
 18 20  1  0  0  0  0
 16 17  1  0  0  0  0
 14 15  2  0  0  0  0
 14 16  1  0  0  0  0
 11 12  1  0  0  0  0
 11 13  1  0  0  0  0
 11 14  1  0  0  0  0
  9 10  1  0  0  0  0
  9 11  1  0  0  0  0
  9 18  1  0  0  0  0
  7  8  1  0  0  0  0
  7  9  1  0  0  0  0
 22 23  1  0  0  0  0
 22 24  1  0  0  0  0
 22 25  1  0  0  0  0
 20 21  1  0  0  0  0
 20 22  1  0  0  0  0
M  END
$$$$
default_name
  -OEChem-01062215323D

 25 24  0     1  0  0  0  0  0999 V2000
   -2.7826   -3.8464    0.7821 H   0  0  0  0  0  0  0  0  0  0  0  0
   -2.8156   -2.8034    0.4711 C   0  0  0  0  0  0  0  0  0  0  0  0
   -3.4336   -2.2354    1.1641 H   0  0  0  0  0  0  0  0  0  0  0  0
   -3.2256   -2.7344   -0.5349 H   0  0  0  0  0  0  0  0  0  0  0  0
   -1.4126   -2.2444    0.4801 C   0  0  0  0  0  0  0  0  0  0  0  0
   -0.4686   -2.9534    0.8001 O   0  0  0  0  0  0  0  0  0  0  0  0
   -1.2736   -0.9704    0.1241 N   0  0  0  0  0  0  0  0  0  0  0  0
   -2.0996   -0.4354   -0.1019 H   0  0  0  0  0  0  0  0  0  0  0  0
   -0.0016   -0.2394    0.1271 C   0  0  1  0  0  0  0  0  0  0  0  0
   -0.1024    0.6281    0.7831 H   0  0  0  0  0  0  0  0  0  0  0  0
    1.1115   -1.1526    0.6778 C   0  0  0  0  0  0  0  0  0  0  0  0
    1.0882   -2.1093    0.1544 H   0  0  0  0  0  0  0  0  0  0  0  0
    2.0848   -0.6953    0.4967 H   0  0  0  0  0  0  0  0  0  0  0  0
    0.9678   -1.4546    2.1664 C   0  0  0  0  0  0  0  0  0  0  0  0
    0.4468   -0.7200    2.9954 O   0  0  0  0  0  0  0  0  0  0  0  0
    1.4793   -2.6377    2.5544 O   0  0  0  0  0  0  0  0  0  0  0  0
    1.3043   -2.7039    3.4937 H   0  0  0  0  0  0  0  0  0  0  0  0
    0.3230    0.2643   -1.2934 C   0  0  0  0  0  0  0  0  0  0  0  0
   -0.0627   -0.3742   -2.2717 O   0  0  0  0  0  0  0  0  0  0  0  0
    1.0318    1.3927   -1.4117 N   0  0  0  0  0  0  0  0  0  0  0  0
    1.3668    1.8255   -0.5570 H   0  0  0  0  0  0  0  0  0  0  0  0
    1.4122    1.9988   -2.6858 C   0  0  0  0  0  0  0  0  0  0  0  0
    0.5286    2.1162   -3.3169 H   0  0  0  0  0  0  0  0  0  0  0  0
    1.8652    2.9763   -2.5158 H   0  0  0  0  0  0  0  0  0  0  0  0
    2.1263    1.3546   -3.2018 H   0  0  0  0  0  0  0  0  0  0  0  0
  5  6  2  0  0  0  0
  5  7  1  0  0  0  0
  2  3  1  0  0  0  0
  2  4  1  0  0  0  0
  2  5  1  0  0  0  0
  1  2  1  0  0  0  0
 18 19  2  0  0  0  0
 18 20  1  0  0  0  0
 16 17  1  0  0  0  0
 14 15  2  0  0  0  0
 14 16  1  0  0  0  0
 11 12  1  0  0  0  0
 11 13  1  0  0  0  0
 11 14  1  0  0  0  0
  9 10  1  0  0  0  0
  9 11  1  0  0  0  0
  9 18  1  0  0  0  0
  7  8  1  0  0  0  0
  7  9  1  0  0  0  0
 22 23  1  0  0  0  0
 22 24  1  0  0  0  0
 22 25  1  0  0  0  0
 20 21  1  0  0  0  0
 20 22  1  0  0  0  0
M  END
$$$$
default_name
  -OEChem-01062215323D

 25 24  0     1  0  0  0  0  0999 V2000
   -2.7826   -3.8464    0.7821 H   0  0  0  0  0  0  0  0  0  0  0  0
   -2.8156   -2.8034    0.4711 C   0  0  0  0  0  0  0  0  0  0  0  0
   -3.4336   -2.2354    1.1641 H   0  0  0  0  0  0  0  0  0  0  0  0
   -3.2256   -2.7344   -0.5349 H   0  0  0  0  0  0  0  0  0  0  0  0
   -1.4126   -2.2444    0.4801 C   0  0  0  0  0  0  0  0  0  0  0  0
   -0.4686   -2.9534    0.8001 O   0  0  0  0  0  0  0  0  0  0  0  0
   -1.2736   -0.9704    0.1241 N   0  0  0  0  0  0  0  0  0  0  0  0
   -2.0996   -0.4354   -0.1019 H   0  0  0  0  0  0  0  0  0  0  0  0
   -0.0016   -0.2394    0.1271 C   0  0  1  0  0  0  0  0  0  0  0  0
   -0.1024    0.6281    0.7831 H   0  0  0  0  0  0  0  0  0  0  0  0
    1.1115   -1.1526    0.6778 C   0  0  0  0  0  0  0  0  0  0  0  0
    1.0882   -2.1093    0.1544 H   0  0  0  0  0  0  0  0  0  0  0  0
    2.0848   -0.6953    0.4967 H   0  0  0  0  0  0  0  0  0  0  0  0
    0.9678   -1.4546    2.1664 C   0  0  0  0  0  0  0  0  0  0  0  0
    0.4468   -0.7200    2.9954 O   0  0  0  0  0  0  0  0  0  0  0  0
    1.4793   -2.6377    2.5544 O   0  0  0  0  0  0  0  0  0  0  0  0
    1.3043   -2.7039    3.4937 H   0  0  0  0  0  0  0  0  0  0  0  0
    0.3230    0.2643   -1.2934 C   0  0  0  0  0  0  0  0  0  0  0  0
   -0.2801   -0.2003   -2.2598 O   0  0  0  0  0  0  0  0  0  0  0  0
    1.2713    1.1987   -1.4258 N   0  0  0  0  0  0  0  0  0  0  0  0
    1.7661    1.4838   -0.5869 H   0  0  0  0  0  0  0  0  0  0  0  0
    1.6859    1.7790   -2.7012 C   0  0  0  0  0  0  0  0  0  0  0  0
    0.8101    2.1424   -3.2433 H   0  0  0  0  0  0  0  0  0  0  0  0
    2.3727    2.6088   -2.5301 H   0  0  0  0  0  0  0  0  0  0  0  0
    2.1814    1.0192   -3.3081 H   0  0  0  0  0  0  0  0  0  0  0  0
  5  6  2  0  0  0  0
  5  7  1  0  0  0  0
  2  3  1  0  0  0  0
  2  4  1  0  0  0  0
  2  5  1  0  0  0  0
  1  2  1  0  0  0  0
 18 19  2  0  0  0  0
 18 20  1  0  0  0  0
 16 17  1  0  0  0  0
 14 15  2  0  0  0  0
 14 16  1  0  0  0  0
 11 12  1  0  0  0  0
 11 13  1  0  0  0  0
 11 14  1  0  0  0  0
  9 10  1  0  0  0  0
  9 11  1  0  0  0  0
  9 18  1  0  0  0  0
  7  8  1  0  0  0  0
  7  9  1  0  0  0  0
 22 23  1  0  0  0  0
 22 24  1  0  0  0  0
 22 25  1  0  0  0  0
 20 21  1  0  0  0  0
 20 22  1  0  0  0  0
M  END
$$$$
default_name
  -OEChem-01062215323D

 25 24  0     1  0  0  0  0  0999 V2000
   -2.7826   -3.8464    0.7821 H   0  0  0  0  0  0  0  0  0  0  0  0
   -2.8156   -2.8034    0.4711 C   0  0  0  0  0  0  0  0  0  0  0  0
   -3.4336   -2.2354    1.1641 H   0  0  0  0  0  0  0  0  0  0  0  0
   -3.2256   -2.7344   -0.5349 H   0  0  0  0  0  0  0  0  0  0  0  0
   -1.4126   -2.2444    0.4801 C   0  0  0  0  0  0  0  0  0  0  0  0
   -0.4686   -2.9534    0.8001 O   0  0  0  0  0  0  0  0  0  0  0  0
   -1.2736   -0.9704    0.1241 N   0  0  0  0  0  0  0  0  0  0  0  0
   -2.0996   -0.4354   -0.1019 H   0  0  0  0  0  0  0  0  0  0  0  0
   -0.0016   -0.2394    0.1271 C   0  0  1  0  0  0  0  0  0  0  0  0
   -0.0046    0.4572    0.9684 H   0  0  0  0  0  0  0  0  0  0  0  0
    1.1601   -1.2358    0.3106 C   0  0  0  0  0  0  0  0  0  0  0  0
    1.0559   -2.0509   -0.4066 H   0  0  0  0  0  0  0  0  0  0  0  0
    2.1084   -0.7347    0.1128 H   0  0  0  0  0  0  0  0  0  0  0  0
    1.2055   -1.8662    1.6992 C   0  0  0  0  0  0  0  0  0  0  0  0
    0.8063   -1.3444    2.7320 O   0  0  0  0  0  0  0  0  0  0  0  0
    1.7460   -3.0983    1.7425 O   0  0  0  0  0  0  0  0  0  0  0  0
    1.6927   -3.3762    2.6575 H   0  0  0  0  0  0  0  0  0  0  0  0
    0.1442    0.5751   -1.1738 C   0  0  0  0  0  0  0  0  0  0  0  0
   -0.7431    0.5321   -2.0249 O   0  0  0  0  0  0  0  0  0  0  0  0
    1.2536    1.3049   -1.3355 N   0  0  0  0  0  0  0  0  0  0  0  0
    1.9662    1.2369   -0.6161 H   0  0  0  0  0  0  0  0  0  0  0  0
    1.5338    2.1324   -2.5069 C   0  0  0  0  0  0  0  0  0  0  0  0
    0.6898    2.7986   -2.6984 H   0  0  0  0  0  0  0  0  0  0  0  0
    2.4316    2.7286   -2.3389 H   0  0  0  0  0  0  0  0  0  0  0  0
    1.6812    1.4959   -3.3811 H   0  0  0  0  0  0  0  0  0  0  0  0
  5  6  2  0  0  0  0
  5  7  1  0  0  0  0
  2  3  1  0  0  0  0
  2  4  1  0  0  0  0
  2  5  1  0  0  0  0
  1  2  1  0  0  0  0
 18 19  2  0  0  0  0
 18 20  1  0  0  0  0
 16 17  1  0  0  0  0
 14 15  2  0  0  0  0
 14 16  1  0  0  0  0
 11 12  1  0  0  0  0
 11 13  1  0  0  0  0
 11 14  1  0  0  0  0
  9 10  1  0  0  0  0
  9 11  1  0  0  0  0
  9 18  1  0  0  0  0
  7  8  1  0  0  0  0
  7  9  1  0  0  0  0
 22 23  1  0  0  0  0
 22 24  1  0  0  0  0
 22 25  1  0  0  0  0
 20 21  1  0  0  0  0
 20 22  1  0  0  0  0
M  END
$$$$
default_name
  -OEChem-01062215323D

 25 24  0     1  0  0  0  0  0999 V2000
   -2.7826   -3.8464    0.7821 H   0  0  0  0  0  0  0  0  0  0  0  0
   -2.8156   -2.8034    0.4711 C   0  0  0  0  0  0  0  0  0  0  0  0
   -3.4336   -2.2354    1.1641 H   0  0  0  0  0  0  0  0  0  0  0  0
   -3.2256   -2.7344   -0.5349 H   0  0  0  0  0  0  0  0  0  0  0  0
   -1.4126   -2.2444    0.4801 C   0  0  0  0  0  0  0  0  0  0  0  0
   -0.4686   -2.9534    0.8001 O   0  0  0  0  0  0  0  0  0  0  0  0
   -1.2736   -0.9704    0.1241 N   0  0  0  0  0  0  0  0  0  0  0  0
   -2.0996   -0.4354   -0.1019 H   0  0  0  0  0  0  0  0  0  0  0  0
   -0.0016   -0.2394    0.1271 C   0  0  1  0  0  0  0  0  0  0  0  0
   -0.0046    0.4572    0.9684 H   0  0  0  0  0  0  0  0  0  0  0  0
    1.1601   -1.2358    0.3106 C   0  0  0  0  0  0  0  0  0  0  0  0
    1.0559   -2.0509   -0.4066 H   0  0  0  0  0  0  0  0  0  0  0  0
    2.1084   -0.7347    0.1128 H   0  0  0  0  0  0  0  0  0  0  0  0
    1.2055   -1.8662    1.6992 C   0  0  0  0  0  0  0  0  0  0  0  0
    0.8063   -1.3444    2.7320 O   0  0  0  0  0  0  0  0  0  0  0  0
    1.7460   -3.0983    1.7425 O   0  0  0  0  0  0  0  0  0  0  0  0
    1.6927   -3.3762    2.6575 H   0  0  0  0  0  0  0  0  0  0  0  0
    0.1442    0.5751   -1.1738 C   0  0  0  0  0  0  0  0  0  0  0  0
   -0.8367    0.7592   -1.8932 O   0  0  0  0  0  0  0  0  0  0  0  0
    1.3551    1.0530   -1.4818 N   0  0  0  0  0  0  0  0  0  0  0  0
    2.1251    0.8037   -0.8696 H   0  0  0  0  0  0  0  0  0  0  0  0
    1.6510    1.8460   -2.6731 C   0  0  0  0  0  0  0  0  0  0  0  0
    0.9564    2.6863   -2.7388 H   0  0  0  0  0  0  0  0  0  0  0  0
    2.6722    2.2262   -2.6264 H   0  0  0  0  0  0  0  0  0  0  0  0
    1.5361    1.2278   -3.5652 H   0  0  0  0  0  0  0  0  0  0  0  0
  5  6  2  0  0  0  0
  5  7  1  0  0  0  0
  2  3  1  0  0  0  0
  2  4  1  0  0  0  0
  2  5  1  0  0  0  0
  1  2  1  0  0  0  0
 18 19  2  0  0  0  0
 18 20  1  0  0  0  0
 16 17  1  0  0  0  0
 14 15  2  0  0  0  0
 14 16  1  0  0  0  0
 11 12  1  0  0  0  0
 11 13  1  0  0  0  0
 11 14  1  0  0  0  0
  9 10  1  0  0  0  0
  9 11  1  0  0  0  0
  9 18  1  0  0  0  0
  7  8  1  0  0  0  0
  7  9  1  0  0  0  0
 22 23  1  0  0  0  0
 22 24  1  0  0  0  0
 22 25  1  0  0  0  0
 20 21  1  0  0  0  0
 20 22  1  0  0  0  0
M  END
$$$$
default_name
  -OEChem-01062215323D

 25 24  0     1  0  0  0  0  0999 V2000
   -2.7826   -3.8464    0.7821 H   0  0  0  0  0  0  0  0  0  0  0  0
   -2.8156   -2.8034    0.4711 C   0  0  0  0  0  0  0  0  0  0  0  0
   -3.4336   -2.2354    1.1641 H   0  0  0  0  0  0  0  0  0  0  0  0
   -3.2256   -2.7344   -0.5349 H   0  0  0  0  0  0  0  0  0  0  0  0
   -1.4126   -2.2444    0.4801 C   0  0  0  0  0  0  0  0  0  0  0  0
   -0.4686   -2.9534    0.8001 O   0  0  0  0  0  0  0  0  0  0  0  0
   -1.2736   -0.9704    0.1241 N   0  0  0  0  0  0  0  0  0  0  0  0
   -2.0996   -0.4354   -0.1019 H   0  0  0  0  0  0  0  0  0  0  0  0
   -0.0016   -0.2394    0.1271 C   0  0  1  0  0  0  0  0  0  0  0  0
   -0.0046    0.4572    0.9684 H   0  0  0  0  0  0  0  0  0  0  0  0
    1.1601   -1.2358    0.3106 C   0  0  0  0  0  0  0  0  0  0  0  0
    1.0559   -2.0509   -0.4066 H   0  0  0  0  0  0  0  0  0  0  0  0
    2.1084   -0.7347    0.1128 H   0  0  0  0  0  0  0  0  0  0  0  0
    1.2055   -1.8662    1.6992 C   0  0  0  0  0  0  0  0  0  0  0  0
    0.8063   -1.3444    2.7320 O   0  0  0  0  0  0  0  0  0  0  0  0
    1.7460   -3.0983    1.7425 O   0  0  0  0  0  0  0  0  0  0  0  0
    1.6927   -3.3762    2.6575 H   0  0  0  0  0  0  0  0  0  0  0  0
    0.1442    0.5751   -1.1738 C   0  0  0  0  0  0  0  0  0  0  0  0
   -0.8595    0.9957   -1.7476 O   0  0  0  0  0  0  0  0  0  0  0  0
    1.3781    0.7911   -1.6432 N   0  0  0  0  0  0  0  0  0  0  0  0
    2.1493    0.3568   -1.1467 H   0  0  0  0  0  0  0  0  0  0  0  0
    1.6788    1.5477   -2.8567 C   0  0  0  0  0  0  0  0  0  0  0  0
    1.1839    2.5205   -2.8171 H   0  0  0  0  0  0  0  0  0  0  0  0
    2.7555    1.6955   -2.9494 H   0  0  0  0  0  0  0  0  0  0  0  0
    1.3123    1.0050   -3.7298 H   0  0  0  0  0  0  0  0  0  0  0  0
  5  6  2  0  0  0  0
  5  7  1  0  0  0  0
  2  3  1  0  0  0  0
  2  4  1  0  0  0  0
  2  5  1  0  0  0  0
  1  2  1  0  0  0  0
 18 19  2  0  0  0  0
 18 20  1  0  0  0  0
 16 17  1  0  0  0  0
 14 15  2  0  0  0  0
 14 16  1  0  0  0  0
 11 12  1  0  0  0  0
 11 13  1  0  0  0  0
 11 14  1  0  0  0  0
  9 10  1  0  0  0  0
  9 11  1  0  0  0  0
  9 18  1  0  0  0  0
  7  8  1  0  0  0  0
  7  9  1  0  0  0  0
 22 23  1  0  0  0  0
 22 24  1  0  0  0  0
 22 25  1  0  0  0  0
 20 21  1  0  0  0  0
 20 22  1  0  0  0  0
M  END
$$$$
default_name
  -OEChem-01062215323D

 25 24  0     1  0  0  0  0  0999 V2000
   -2.7826   -3.8464    0.7821 H   0  0  0  0  0  0  0  0  0  0  0  0
   -2.8156   -2.8034    0.4711 C   0  0  0  0  0  0  0  0  0  0  0  0
   -3.4336   -2.2354    1.1641 H   0  0  0  0  0  0  0  0  0  0  0  0
   -3.2256   -2.7344   -0.5349 H   0  0  0  0  0  0  0  0  0  0  0  0
   -1.4126   -2.2444    0.4801 C   0  0  0  0  0  0  0  0  0  0  0  0
   -0.4686   -2.9534    0.8001 O   0  0  0  0  0  0  0  0  0  0  0  0
   -1.2736   -0.9704    0.1241 N   0  0  0  0  0  0  0  0  0  0  0  0
   -2.0996   -0.4354   -0.1019 H   0  0  0  0  0  0  0  0  0  0  0  0
   -0.0016   -0.2394    0.1271 C   0  0  1  0  0  0  0  0  0  0  0  0
   -0.0046    0.4572    0.9684 H   0  0  0  0  0  0  0  0  0  0  0  0
    1.1601   -1.2358    0.3106 C   0  0  0  0  0  0  0  0  0  0  0  0
    1.0559   -2.0509   -0.4066 H   0  0  0  0  0  0  0  0  0  0  0  0
    2.1084   -0.7347    0.1128 H   0  0  0  0  0  0  0  0  0  0  0  0
    1.2055   -1.8662    1.6992 C   0  0  0  0  0  0  0  0  0  0  0  0
    0.8063   -1.3444    2.7320 O   0  0  0  0  0  0  0  0  0  0  0  0
    1.7460   -3.0983    1.7425 O   0  0  0  0  0  0  0  0  0  0  0  0
    1.6927   -3.3762    2.6575 H   0  0  0  0  0  0  0  0  0  0  0  0
    0.1442    0.5751   -1.1738 C   0  0  0  0  0  0  0  0  0  0  0  0
   -0.8099    1.2256   -1.5981 O   0  0  0  0  0  0  0  0  0  0  0  0
    1.3211    0.5370   -1.8087 N   0  0  0  0  0  0  0  0  0  0  0  0
    2.0372   -0.0734   -1.4286 H   0  0  0  0  0  0  0  0  0  0  0  0
    1.6155    1.2580   -3.0452 C   0  0  0  0  0  0  0  0  0  0  0  0
    1.3567    2.3126   -2.9279 H   0  0  0  0  0  0  0  0  0  0  0  0
    2.6760    1.1726   -3.2857 H   0  0  0  0  0  0  0  0  0  0  0  0
    1.0249    0.8427   -3.8636 H   0  0  0  0  0  0  0  0  0  0  0  0
  5  6  2  0  0  0  0
  5  7  1  0  0  0  0
  2  3  1  0  0  0  0
  2  4  1  0  0  0  0
  2  5  1  0  0  0  0
  1  2  1  0  0  0  0
 18 19  2  0  0  0  0
 18 20  1  0  0  0  0
 16 17  1  0  0  0  0
 14 15  2  0  0  0  0
 14 16  1  0  0  0  0
 11 12  1  0  0  0  0
 11 13  1  0  0  0  0
 11 14  1  0  0  0  0
  9 10  1  0  0  0  0
  9 11  1  0  0  0  0
  9 18  1  0  0  0  0
  7  8  1  0  0  0  0
  7  9  1  0  0  0  0
 22 23  1  0  0  0  0
 22 24  1  0  0  0  0
 22 25  1  0  0  0  0
 20 21  1  0  0  0  0
 20 22  1  0  0  0  0
M  END
$$$$
default_name
  -OEChem-01062215323D

 25 24  0     1  0  0  0  0  0999 V2000
   -2.7826   -3.8464    0.7821 H   0  0  0  0  0  0  0  0  0  0  0  0
   -2.8156   -2.8034    0.4711 C   0  0  0  0  0  0  0  0  0  0  0  0
   -3.4336   -2.2354    1.1641 H   0  0  0  0  0  0  0  0  0  0  0  0
   -3.2256   -2.7344   -0.5349 H   0  0  0  0  0  0  0  0  0  0  0  0
   -1.4126   -2.2444    0.4801 C   0  0  0  0  0  0  0  0  0  0  0  0
   -0.4686   -2.9534    0.8001 O   0  0  0  0  0  0  0  0  0  0  0  0
   -1.2736   -0.9704    0.1241 N   0  0  0  0  0  0  0  0  0  0  0  0
   -2.0996   -0.4354   -0.1019 H   0  0  0  0  0  0  0  0  0  0  0  0
   -0.0016   -0.2394    0.1271 C   0  0  1  0  0  0  0  0  0  0  0  0
   -0.0046    0.4572    0.9684 H   0  0  0  0  0  0  0  0  0  0  0  0
    1.1601   -1.2358    0.3106 C   0  0  0  0  0  0  0  0  0  0  0  0
    1.0559   -2.0509   -0.4066 H   0  0  0  0  0  0  0  0  0  0  0  0
    2.1084   -0.7347    0.1128 H   0  0  0  0  0  0  0  0  0  0  0  0
    1.2055   -1.8662    1.6992 C   0  0  0  0  0  0  0  0  0  0  0  0
    0.8063   -1.3444    2.7320 O   0  0  0  0  0  0  0  0  0  0  0  0
    1.7460   -3.0983    1.7425 O   0  0  0  0  0  0  0  0  0  0  0  0
    1.6927   -3.3762    2.6575 H   0  0  0  0  0  0  0  0  0  0  0  0
    0.1442    0.5751   -1.1738 C   0  0  0  0  0  0  0  0  0  0  0  0
   -0.6914    1.4332   -1.4549 O   0  0  0  0  0  0  0  0  0  0  0  0
    1.1879    0.3081   -1.9669 N   0  0  0  0  0  0  0  0  0  0  0  0
    1.7964   -0.4575   -1.6961 H   0  0  0  0  0  0  0  0  0  0  0  0
    1.4654    0.9967   -3.2257 C   0  0  0  0  0  0  0  0  0  0  0  0
    1.4631    2.0768   -3.0637 H   0  0  0  0  0  0  0  0  0  0  0  0
    2.4390    0.6931   -3.6125 H   0  0  0  0  0  0  0  0  0  0  0  0
    0.6936    0.7520   -3.9575 H   0  0  0  0  0  0  0  0  0  0  0  0
  5  6  2  0  0  0  0
  5  7  1  0  0  0  0
  2  3  1  0  0  0  0
  2  4  1  0  0  0  0
  2  5  1  0  0  0  0
  1  2  1  0  0  0  0
 18 19  2  0  0  0  0
 18 20  1  0  0  0  0
 16 17  1  0  0  0  0
 14 15  2  0  0  0  0
 14 16  1  0  0  0  0
 11 12  1  0  0  0  0
 11 13  1  0  0  0  0
 11 14  1  0  0  0  0
  9 10  1  0  0  0  0
  9 11  1  0  0  0  0
  9 18  1  0  0  0  0
  7  8  1  0  0  0  0
  7  9  1  0  0  0  0
 22 23  1  0  0  0  0
 22 24  1  0  0  0  0
 22 25  1  0  0  0  0
 20 21  1  0  0  0  0
 20 22  1  0  0  0  0
M  END
$$$$
default_name
  -OEChem-01062215323D

 25 24  0     1  0  0  0  0  0999 V2000
   -2.7826   -3.8464    0.7821 H   0  0  0  0  0  0  0  0  0  0  0  0
   -2.8156   -2.8034    0.4711 C   0  0  0  0  0  0  0  0  0  0  0  0
   -3.4336   -2.2354    1.1641 H   0  0  0  0  0  0  0  0  0  0  0  0
   -3.2256   -2.7344   -0.5349 H   0  0  0  0  0  0  0  0  0  0  0  0
   -1.4126   -2.2444    0.4801 C   0  0  0  0  0  0  0  0  0  0  0  0
   -0.4686   -2.9534    0.8001 O   0  0  0  0  0  0  0  0  0  0  0  0
   -1.2736   -0.9704    0.1241 N   0  0  0  0  0  0  0  0  0  0  0  0
   -2.0996   -0.4354   -0.1019 H   0  0  0  0  0  0  0  0  0  0  0  0
   -0.0016   -0.2394    0.1271 C   0  0  1  0  0  0  0  0  0  0  0  0
   -0.0046    0.4572    0.9684 H   0  0  0  0  0  0  0  0  0  0  0  0
    1.1601   -1.2358    0.3106 C   0  0  0  0  0  0  0  0  0  0  0  0
    1.0559   -2.0509   -0.4066 H   0  0  0  0  0  0  0  0  0  0  0  0
    2.1084   -0.7347    0.1128 H   0  0  0  0  0  0  0  0  0  0  0  0
    1.2055   -1.8662    1.6992 C   0  0  0  0  0  0  0  0  0  0  0  0
    0.8063   -1.3444    2.7320 O   0  0  0  0  0  0  0  0  0  0  0  0
    1.7460   -3.0983    1.7425 O   0  0  0  0  0  0  0  0  0  0  0  0
    1.6927   -3.3762    2.6575 H   0  0  0  0  0  0  0  0  0  0  0  0
    0.1442    0.5751   -1.1738 C   0  0  0  0  0  0  0  0  0  0  0  0
   -0.5120    1.6043   -1.3276 O   0  0  0  0  0  0  0  0  0  0  0  0
    0.9876    0.1200   -2.1072 N   0  0  0  0  0  0  0  0  0  0  0  0
    1.4433   -0.7694   -1.9310 H   0  0  0  0  0  0  0  0  0  0  0  0
    1.2386    0.7814   -3.3858 C   0  0  0  0  0  0  0  0  0  0  0  0
    1.4958    1.8291   -3.2151 H   0  0  0  0  0  0  0  0  0  0  0  0
    2.0606    0.2897   -3.9075 H   0  0  0  0  0  0  0  0  0  0  0  0
    0.3409    0.7390   -4.0052 H   0  0  0  0  0  0  0  0  0  0  0  0
  5  6  2  0  0  0  0
  5  7  1  0  0  0  0
  2  3  1  0  0  0  0
  2  4  1  0  0  0  0
  2  5  1  0  0  0  0
  1  2  1  0  0  0  0
 18 19  2  0  0  0  0
 18 20  1  0  0  0  0
 16 17  1  0  0  0  0
 14 15  2  0  0  0  0
 14 16  1  0  0  0  0
 11 12  1  0  0  0  0
 11 13  1  0  0  0  0
 11 14  1  0  0  0  0
  9 10  1  0  0  0  0
  9 11  1  0  0  0  0
  9 18  1  0  0  0  0
  7  8  1  0  0  0  0
  7  9  1  0  0  0  0
 22 23  1  0  0  0  0
 22 24  1  0  0  0  0
 22 25  1  0  0  0  0
 20 21  1  0  0  0  0
 20 22  1  0  0  0  0
M  END
$$$$
default_name
  -OEChem-01062215323D

 25 24  0     1  0  0  0  0  0999 V2000
   -2.7826   -3.8464    0.7821 H   0  0  0  0  0  0  0  0  0  0  0  0
   -2.8156   -2.8034    0.4711 C   0  0  0  0  0  0  0  0  0  0  0  0
   -3.4336   -2.2354    1.1641 H   0  0  0  0  0  0  0  0  0  0  0  0
   -3.2256   -2.7344   -0.5349 H   0  0  0  0  0  0  0  0  0  0  0  0
   -1.4126   -2.2444    0.4801 C   0  0  0  0  0  0  0  0  0  0  0  0
   -0.4686   -2.9534    0.8001 O   0  0  0  0  0  0  0  0  0  0  0  0
   -1.2736   -0.9704    0.1241 N   0  0  0  0  0  0  0  0  0  0  0  0
   -2.0996   -0.4354   -0.1019 H   0  0  0  0  0  0  0  0  0  0  0  0
   -0.0016   -0.2394    0.1271 C   0  0  1  0  0  0  0  0  0  0  0  0
   -0.0046    0.4572    0.9684 H   0  0  0  0  0  0  0  0  0  0  0  0
    1.1601   -1.2358    0.3106 C   0  0  0  0  0  0  0  0  0  0  0  0
    1.0559   -2.0509   -0.4066 H   0  0  0  0  0  0  0  0  0  0  0  0
    2.1084   -0.7347    0.1128 H   0  0  0  0  0  0  0  0  0  0  0  0
    1.2055   -1.8662    1.6992 C   0  0  0  0  0  0  0  0  0  0  0  0
    0.8063   -1.3444    2.7320 O   0  0  0  0  0  0  0  0  0  0  0  0
    1.7460   -3.0983    1.7425 O   0  0  0  0  0  0  0  0  0  0  0  0
    1.6927   -3.3762    2.6575 H   0  0  0  0  0  0  0  0  0  0  0  0
    0.1442    0.5751   -1.1738 C   0  0  0  0  0  0  0  0  0  0  0  0
   -0.2839    1.7273   -1.2251 O   0  0  0  0  0  0  0  0  0  0  0  0
    0.7339   -0.0145   -2.2199 N   0  0  0  0  0  0  0  0  0  0  0  0
    1.0021   -0.9879   -2.1172 H   0  0  0  0  0  0  0  0  0  0  0  0
    0.9506    0.6270   -3.5148 C   0  0  0  0  0  0  0  0  0  0  0  0
    1.4526    1.5864   -3.3719 H   0  0  0  0  0  0  0  0  0  0  0  0
    1.5667   -0.0101   -4.1506 H   0  0  0  0  0  0  0  0  0  0  0  0
   -0.0091    0.8047   -4.0033 H   0  0  0  0  0  0  0  0  0  0  0  0
  5  6  2  0  0  0  0
  5  7  1  0  0  0  0
  2  3  1  0  0  0  0
  2  4  1  0  0  0  0
  2  5  1  0  0  0  0
  1  2  1  0  0  0  0
 18 19  2  0  0  0  0
 18 20  1  0  0  0  0
 16 17  1  0  0  0  0
 14 15  2  0  0  0  0
 14 16  1  0  0  0  0
 11 12  1  0  0  0  0
 11 13  1  0  0  0  0
 11 14  1  0  0  0  0
  9 10  1  0  0  0  0
  9 11  1  0  0  0  0
  9 18  1  0  0  0  0
  7  8  1  0  0  0  0
  7  9  1  0  0  0  0
 22 23  1  0  0  0  0
 22 24  1  0  0  0  0
 22 25  1  0  0  0  0
 20 21  1  0  0  0  0
 20 22  1  0  0  0  0
M  END
$$$$
default_name
  -OEChem-01062215323D

 25 24  0     1  0  0  0  0  0999 V2000
   -2.7826   -3.8464    0.7821 H   0  0  0  0  0  0  0  0  0  0  0  0
   -2.8156   -2.8034    0.4711 C   0  0  0  0  0  0  0  0  0  0  0  0
   -3.4336   -2.2354    1.1641 H   0  0  0  0  0  0  0  0  0  0  0  0
   -3.2256   -2.7344   -0.5349 H   0  0  0  0  0  0  0  0  0  0  0  0
   -1.4126   -2.2444    0.4801 C   0  0  0  0  0  0  0  0  0  0  0  0
   -0.4686   -2.9534    0.8001 O   0  0  0  0  0  0  0  0  0  0  0  0
   -1.2736   -0.9704    0.1241 N   0  0  0  0  0  0  0  0  0  0  0  0
   -2.0996   -0.4354   -0.1019 H   0  0  0  0  0  0  0  0  0  0  0  0
   -0.0016   -0.2394    0.1271 C   0  0  1  0  0  0  0  0  0  0  0  0
   -0.0046    0.4572    0.9684 H   0  0  0  0  0  0  0  0  0  0  0  0
    1.1601   -1.2358    0.3106 C   0  0  0  0  0  0  0  0  0  0  0  0
    1.0559   -2.0509   -0.4066 H   0  0  0  0  0  0  0  0  0  0  0  0
    2.1084   -0.7347    0.1128 H   0  0  0  0  0  0  0  0  0  0  0  0
    1.2055   -1.8662    1.6992 C   0  0  0  0  0  0  0  0  0  0  0  0
    0.8063   -1.3444    2.7320 O   0  0  0  0  0  0  0  0  0  0  0  0
    1.7460   -3.0983    1.7425 O   0  0  0  0  0  0  0  0  0  0  0  0
    1.6927   -3.3762    2.6575 H   0  0  0  0  0  0  0  0  0  0  0  0
    0.1442    0.5751   -1.1738 C   0  0  0  0  0  0  0  0  0  0  0  0
   -0.0227    1.7938   -1.1541 O   0  0  0  0  0  0  0  0  0  0  0  0
    0.4440   -0.0863   -2.2973 N   0  0  0  0  0  0  0  0  0  0  0  0
    0.5027   -1.0980   -2.2421 H   0  0  0  0  0  0  0  0  0  0  0  0
    0.6210    0.5438   -3.6038 C   0  0  0  0  0  0  0  0  0  0  0  0
    1.3364    1.3653   -3.5234 H   0  0  0  0  0  0  0  0  0  0  0  0
    0.9910   -0.1859   -4.3252 H   0  0  0  0  0  0  0  0  0  0  0  0
   -0.3326    0.9445   -3.9520 H   0  0  0  0  0  0  0  0  0  0  0  0
  5  6  2  0  0  0  0
  5  7  1  0  0  0  0
  2  3  1  0  0  0  0
  2  4  1  0  0  0  0
  2  5  1  0  0  0  0
  1  2  1  0  0  0  0
 18 19  2  0  0  0  0
 18 20  1  0  0  0  0
 16 17  1  0  0  0  0
 14 15  2  0  0  0  0
 14 16  1  0  0  0  0
 11 12  1  0  0  0  0
 11 13  1  0  0  0  0
 11 14  1  0  0  0  0
  9 10  1  0  0  0  0
  9 11  1  0  0  0  0
  9 18  1  0  0  0  0
  7  8  1  0  0  0  0
  7  9  1  0  0  0  0
 22 23  1  0  0  0  0
 22 24  1  0  0  0  0
 22 25  1  0  0  0  0
 20 21  1  0  0  0  0
 20 22  1  0  0  0  0
M  END
$$$$
default_name
  -OEChem-01062215323D

 25 24  0     1  0  0  0  0  0999 V2000
   -2.7826   -3.8464    0.7821 H   0  0  0  0  0  0  0  0  0  0  0  0
   -2.8156   -2.8034    0.4711 C   0  0  0  0  0  0  0  0  0  0  0  0
   -3.4336   -2.2354    1.1641 H   0  0  0  0  0  0  0  0  0  0  0  0
   -3.2256   -2.7344   -0.5349 H   0  0  0  0  0  0  0  0  0  0  0  0
   -1.4126   -2.2444    0.4801 C   0  0  0  0  0  0  0  0  0  0  0  0
   -0.4686   -2.9534    0.8001 O   0  0  0  0  0  0  0  0  0  0  0  0
   -1.2736   -0.9704    0.1241 N   0  0  0  0  0  0  0  0  0  0  0  0
   -2.0996   -0.4354   -0.1019 H   0  0  0  0  0  0  0  0  0  0  0  0
   -0.0016   -0.2394    0.1271 C   0  0  1  0  0  0  0  0  0  0  0  0
   -0.0046    0.4572    0.9684 H   0  0  0  0  0  0  0  0  0  0  0  0
    1.1601   -1.2358    0.3106 C   0  0  0  0  0  0  0  0  0  0  0  0
    1.0559   -2.0509   -0.4066 H   0  0  0  0  0  0  0  0  0  0  0  0
    2.1084   -0.7347    0.1128 H   0  0  0  0  0  0  0  0  0  0  0  0
    1.2055   -1.8662    1.6992 C   0  0  0  0  0  0  0  0  0  0  0  0
    0.8063   -1.3444    2.7320 O   0  0  0  0  0  0  0  0  0  0  0  0
    1.7460   -3.0983    1.7425 O   0  0  0  0  0  0  0  0  0  0  0  0
    1.6927   -3.3762    2.6575 H   0  0  0  0  0  0  0  0  0  0  0  0
    0.1442    0.5751   -1.1738 C   0  0  0  0  0  0  0  0  0  0  0  0
    0.2538    1.7993   -1.1197 O   0  0  0  0  0  0  0  0  0  0  0  0
    0.1377   -0.0905   -2.3342 N   0  0  0  0  0  0  0  0  0  0  0  0
   -0.0208   -1.0922   -2.2972 H   0  0  0  0  0  0  0  0  0  0  0  0
    0.2724    0.5377   -3.6468 C   0  0  0  0  0  0  0  0  0  0  0  0
    1.1551    1.1807   -3.6593 H   0  0  0  0  0  0  0  0  0  0  0  0
    0.3726   -0.2257   -4.4194 H   0  0  0  0  0  0  0  0  0  0  0  0
   -0.6075    1.1489   -3.8549 H   0  0  0  0  0  0  0  0  0  0  0  0
  5  6  2  0  0  0  0
  5  7  1  0  0  0  0
  2  3  1  0  0  0  0
  2  4  1  0  0  0  0
  2  5  1  0  0  0  0
  1  2  1  0  0  0  0
 18 19  2  0  0  0  0
 18 20  1  0  0  0  0
 16 17  1  0  0  0  0
 14 15  2  0  0  0  0
 14 16  1  0  0  0  0
 11 12  1  0  0  0  0
 11 13  1  0  0  0  0
 11 14  1  0  0  0  0
  9 10  1  0  0  0  0
  9 11  1  0  0  0  0
  9 18  1  0  0  0  0
  7  8  1  0  0  0  0
  7  9  1  0  0  0  0
 22 23  1  0  0  0  0
 22 24  1  0  0  0  0
 22 25  1  0  0  0  0
 20 21  1  0  0  0  0
 20 22  1  0  0  0  0
M  END
$$$$
default_name
  -OEChem-01062215323D

 25 24  0     1  0  0  0  0  0999 V2000
   -2.7826   -3.8464    0.7821 H   0  0  0  0  0  0  0  0  0  0  0  0
   -2.8156   -2.8034    0.4711 C   0  0  0  0  0  0  0  0  0  0  0  0
   -3.4336   -2.2354    1.1641 H   0  0  0  0  0  0  0  0  0  0  0  0
   -3.2256   -2.7344   -0.5349 H   0  0  0  0  0  0  0  0  0  0  0  0
   -1.4126   -2.2444    0.4801 C   0  0  0  0  0  0  0  0  0  0  0  0
   -0.4686   -2.9534    0.8001 O   0  0  0  0  0  0  0  0  0  0  0  0
   -1.2736   -0.9704    0.1241 N   0  0  0  0  0  0  0  0  0  0  0  0
   -2.0996   -0.4354   -0.1019 H   0  0  0  0  0  0  0  0  0  0  0  0
   -0.0016   -0.2394    0.1271 C   0  0  1  0  0  0  0  0  0  0  0  0
   -0.0046    0.4572    0.9684 H   0  0  0  0  0  0  0  0  0  0  0  0
    1.1601   -1.2358    0.3106 C   0  0  0  0  0  0  0  0  0  0  0  0
    1.0559   -2.0509   -0.4066 H   0  0  0  0  0  0  0  0  0  0  0  0
    2.1084   -0.7347    0.1128 H   0  0  0  0  0  0  0  0  0  0  0  0
    1.2055   -1.8662    1.6992 C   0  0  0  0  0  0  0  0  0  0  0  0
    0.8063   -1.3444    2.7320 O   0  0  0  0  0  0  0  0  0  0  0  0
    1.7460   -3.0983    1.7425 O   0  0  0  0  0  0  0  0  0  0  0  0
    1.6927   -3.3762    2.6575 H   0  0  0  0  0  0  0  0  0  0  0  0
    0.1442    0.5751   -1.1738 C   0  0  0  0  0  0  0  0  0  0  0  0
    0.5267    1.7433   -1.1242 O   0  0  0  0  0  0  0  0  0  0  0  0
   -0.1640   -0.0267   -2.3281 N   0  0  0  0  0  0  0  0  0  0  0  0
   -0.5327   -0.9709   -2.2786 H   0  0  0  0  0  0  0  0  0  0  0  0
   -0.0716    0.6089   -3.6407 C   0  0  0  0  0  0  0  0  0  0  0  0
    0.9212    1.0454   -3.7702 H   0  0  0  0  0  0  0  0  0  0  0  0
   -0.2463   -0.1267   -4.4268 H   0  0  0  0  0  0  0  0  0  0  0  0
   -0.8151    1.4041   -3.7184 H   0  0  0  0  0  0  0  0  0  0  0  0
  5  6  2  0  0  0  0
  5  7  1  0  0  0  0
  2  3  1  0  0  0  0
  2  4  1  0  0  0  0
  2  5  1  0  0  0  0
  1  2  1  0  0  0  0
 18 19  2  0  0  0  0
 18 20  1  0  0  0  0
 16 17  1  0  0  0  0
 14 15  2  0  0  0  0
 14 16  1  0  0  0  0
 11 12  1  0  0  0  0
 11 13  1  0  0  0  0
 11 14  1  0  0  0  0
  9 10  1  0  0  0  0
  9 11  1  0  0  0  0
  9 18  1  0  0  0  0
  7  8  1  0  0  0  0
  7  9  1  0  0  0  0
 22 23  1  0  0  0  0
 22 24  1  0  0  0  0
 22 25  1  0  0  0  0
 20 21  1  0  0  0  0
 20 22  1  0  0  0  0
M  END
$$$$
default_name
  -OEChem-01062215323D

 25 24  0     1  0  0  0  0  0999 V2000
   -2.7826   -3.8464    0.7821 H   0  0  0  0  0  0  0  0  0  0  0  0
   -2.8156   -2.8034    0.4711 C   0  0  0  0  0  0  0  0  0  0  0  0
   -3.4336   -2.2354    1.1641 H   0  0  0  0  0  0  0  0  0  0  0  0
   -3.2256   -2.7344   -0.5349 H   0  0  0  0  0  0  0  0  0  0  0  0
   -1.4126   -2.2444    0.4801 C   0  0  0  0  0  0  0  0  0  0  0  0
   -0.4686   -2.9534    0.8001 O   0  0  0  0  0  0  0  0  0  0  0  0
   -1.2736   -0.9704    0.1241 N   0  0  0  0  0  0  0  0  0  0  0  0
   -2.0996   -0.4354   -0.1019 H   0  0  0  0  0  0  0  0  0  0  0  0
   -0.0016   -0.2394    0.1271 C   0  0  1  0  0  0  0  0  0  0  0  0
   -0.0046    0.4572    0.9684 H   0  0  0  0  0  0  0  0  0  0  0  0
    1.1601   -1.2358    0.3106 C   0  0  0  0  0  0  0  0  0  0  0  0
    1.0559   -2.0509   -0.4066 H   0  0  0  0  0  0  0  0  0  0  0  0
    2.1084   -0.7347    0.1128 H   0  0  0  0  0  0  0  0  0  0  0  0
    1.2055   -1.8662    1.6992 C   0  0  0  0  0  0  0  0  0  0  0  0
    0.8063   -1.3444    2.7320 O   0  0  0  0  0  0  0  0  0  0  0  0
    1.7460   -3.0983    1.7425 O   0  0  0  0  0  0  0  0  0  0  0  0
    1.6927   -3.3762    2.6575 H   0  0  0  0  0  0  0  0  0  0  0  0
    0.1442    0.5751   -1.1738 C   0  0  0  0  0  0  0  0  0  0  0  0
    0.7776    1.6297   -1.1672 O   0  0  0  0  0  0  0  0  0  0  0  0
   -0.4408    0.1007   -2.2794 N   0  0  0  0  0  0  0  0  0  0  0  0
   -0.9982   -0.7424   -2.1877 H   0  0  0  0  0  0  0  0  0  0  0  0
   -0.3875    0.7527   -3.5861 C   0  0  0  0  0  0  0  0  0  0  0  0
    0.6505    0.9685   -3.8487 H   0  0  0  0  0  0  0  0  0  0  0  0
   -0.8236    0.1042   -4.3470 H   0  0  0  0  0  0  0  0  0  0  0  0
   -0.9413    1.6925   -3.5519 H   0  0  0  0  0  0  0  0  0  0  0  0
  5  6  2  0  0  0  0
  5  7  1  0  0  0  0
  2  3  1  0  0  0  0
  2  4  1  0  0  0  0
  2  5  1  0  0  0  0
  1  2  1  0  0  0  0
 18 19  2  0  0  0  0
 18 20  1  0  0  0  0
 16 17  1  0  0  0  0
 14 15  2  0  0  0  0
 14 16  1  0  0  0  0
 11 12  1  0  0  0  0
 11 13  1  0  0  0  0
 11 14  1  0  0  0  0
  9 10  1  0  0  0  0
  9 11  1  0  0  0  0
  9 18  1  0  0  0  0
  7  8  1  0  0  0  0
  7  9  1  0  0  0  0
 22 23  1  0  0  0  0
 22 24  1  0  0  0  0
 22 25  1  0  0  0  0
 20 21  1  0  0  0  0
 20 22  1  0  0  0  0
M  END
$$$$
default_name
  -OEChem-01062215323D

 25 24  0     1  0  0  0  0  0999 V2000
   -2.7826   -3.8464    0.7821 H   0  0  0  0  0  0  0  0  0  0  0  0
   -2.8156   -2.8034    0.4711 C   0  0  0  0  0  0  0  0  0  0  0  0
   -3.4336   -2.2354    1.1641 H   0  0  0  0  0  0  0  0  0  0  0  0
   -3.2256   -2.7344   -0.5349 H   0  0  0  0  0  0  0  0  0  0  0  0
   -1.4126   -2.2444    0.4801 C   0  0  0  0  0  0  0  0  0  0  0  0
   -0.4686   -2.9534    0.8001 O   0  0  0  0  0  0  0  0  0  0  0  0
   -1.2736   -0.9704    0.1241 N   0  0  0  0  0  0  0  0  0  0  0  0
   -2.0996   -0.4354   -0.1019 H   0  0  0  0  0  0  0  0  0  0  0  0
   -0.0016   -0.2394    0.1271 C   0  0  1  0  0  0  0  0  0  0  0  0
   -0.0046    0.4572    0.9684 H   0  0  0  0  0  0  0  0  0  0  0  0
    1.1601   -1.2358    0.3106 C   0  0  0  0  0  0  0  0  0  0  0  0
    1.0559   -2.0509   -0.4066 H   0  0  0  0  0  0  0  0  0  0  0  0
    2.1084   -0.7347    0.1128 H   0  0  0  0  0  0  0  0  0  0  0  0
    1.2055   -1.8662    1.6992 C   0  0  0  0  0  0  0  0  0  0  0  0
    0.8063   -1.3444    2.7320 O   0  0  0  0  0  0  0  0  0  0  0  0
    1.7460   -3.0983    1.7425 O   0  0  0  0  0  0  0  0  0  0  0  0
    1.6927   -3.3762    2.6575 H   0  0  0  0  0  0  0  0  0  0  0  0
    0.1442    0.5751   -1.1738 C   0  0  0  0  0  0  0  0  0  0  0  0
    0.9892    1.4663   -1.2458 O   0  0  0  0  0  0  0  0  0  0  0  0
   -0.6736    0.2829   -2.1914 N   0  0  0  0  0  0  0  0  0  0  0  0
   -1.3854   -0.4223   -2.0307 H   0  0  0  0  0  0  0  0  0  0  0  0
   -0.6537    0.9592   -3.4866 C   0  0  0  0  0  0  0  0  0  0  0  0
    0.3615    0.9552   -3.8894 H   0  0  0  0  0  0  0  0  0  0  0  0
   -1.3198    0.4513   -4.1852 H   0  0  0  0  0  0  0  0  0  0  0  0
   -0.9774    1.9946   -3.3668 H   0  0  0  0  0  0  0  0  0  0  0  0
  5  6  2  0  0  0  0
  5  7  1  0  0  0  0
  2  3  1  0  0  0  0
  2  4  1  0  0  0  0
  2  5  1  0  0  0  0
  1  2  1  0  0  0  0
 18 19  2  0  0  0  0
 18 20  1  0  0  0  0
 16 17  1  0  0  0  0
 14 15  2  0  0  0  0
 14 16  1  0  0  0  0
 11 12  1  0  0  0  0
 11 13  1  0  0  0  0
 11 14  1  0  0  0  0
  9 10  1  0  0  0  0
  9 11  1  0  0  0  0
  9 18  1  0  0  0  0
  7  8  1  0  0  0  0
  7  9  1  0  0  0  0
 22 23  1  0  0  0  0
 22 24  1  0  0  0  0
 22 25  1  0  0  0  0
 20 21  1  0  0  0  0
 20 22  1  0  0  0  0
M  END
$$$$
default_name
  -OEChem-01062215323D

 25 24  0     1  0  0  0  0  0999 V2000
   -2.7826   -3.8464    0.7821 H   0  0  0  0  0  0  0  0  0  0  0  0
   -2.8156   -2.8034    0.4711 C   0  0  0  0  0  0  0  0  0  0  0  0
   -3.4336   -2.2354    1.1641 H   0  0  0  0  0  0  0  0  0  0  0  0
   -3.2256   -2.7344   -0.5349 H   0  0  0  0  0  0  0  0  0  0  0  0
   -1.4126   -2.2444    0.4801 C   0  0  0  0  0  0  0  0  0  0  0  0
   -0.4686   -2.9534    0.8001 O   0  0  0  0  0  0  0  0  0  0  0  0
   -1.2736   -0.9704    0.1241 N   0  0  0  0  0  0  0  0  0  0  0  0
   -2.0996   -0.4354   -0.1019 H   0  0  0  0  0  0  0  0  0  0  0  0
   -0.0016   -0.2394    0.1271 C   0  0  1  0  0  0  0  0  0  0  0  0
   -0.0046    0.4572    0.9684 H   0  0  0  0  0  0  0  0  0  0  0  0
    1.1601   -1.2358    0.3106 C   0  0  0  0  0  0  0  0  0  0  0  0
    1.0559   -2.0509   -0.4066 H   0  0  0  0  0  0  0  0  0  0  0  0
    2.1084   -0.7347    0.1128 H   0  0  0  0  0  0  0  0  0  0  0  0
    1.2055   -1.8662    1.6992 C   0  0  0  0  0  0  0  0  0  0  0  0
    0.8063   -1.3444    2.7320 O   0  0  0  0  0  0  0  0  0  0  0  0
    1.7460   -3.0983    1.7425 O   0  0  0  0  0  0  0  0  0  0  0  0
    1.6927   -3.3762    2.6575 H   0  0  0  0  0  0  0  0  0  0  0  0
    0.1442    0.5751   -1.1738 C   0  0  0  0  0  0  0  0  0  0  0  0
    1.1472    1.2642   -1.3546 O   0  0  0  0  0  0  0  0  0  0  0  0
   -0.8467    0.5077   -2.0701 N   0  0  0  0  0  0  0  0  0  0  0  0
   -1.6681   -0.0324   -1.8183 H   0  0  0  0  0  0  0  0  0  0  0  0
   -0.8522    1.2144   -3.3491 C   0  0  0  0  0  0  0  0  0  0  0  0
    0.0739    1.0065   -3.8895 H   0  0  0  0  0  0  0  0  0  0  0  0
   -1.7012    0.8910   -3.9527 H   0  0  0  0  0  0  0  0  0  0  0  0
   -0.9210    2.2898   -3.1757 H   0  0  0  0  0  0  0  0  0  0  0  0
  5  6  2  0  0  0  0
  5  7  1  0  0  0  0
  2  3  1  0  0  0  0
  2  4  1  0  0  0  0
  2  5  1  0  0  0  0
  1  2  1  0  0  0  0
 18 19  2  0  0  0  0
 18 20  1  0  0  0  0
 16 17  1  0  0  0  0
 14 15  2  0  0  0  0
 14 16  1  0  0  0  0
 11 12  1  0  0  0  0
 11 13  1  0  0  0  0
 11 14  1  0  0  0  0
  9 10  1  0  0  0  0
  9 11  1  0  0  0  0
  9 18  1  0  0  0  0
  7  8  1  0  0  0  0
  7  9  1  0  0  0  0
 22 23  1  0  0  0  0
 22 24  1  0  0  0  0
 22 25  1  0  0  0  0
 20 21  1  0  0  0  0
 20 22  1  0  0  0  0
M  END
$$$$
default_name
  -OEChem-01062215323D

 25 24  0     1  0  0  0  0  0999 V2000
   -2.7826   -3.8464    0.7821 H   0  0  0  0  0  0  0  0  0  0  0  0
   -2.8156   -2.8034    0.4711 C   0  0  0  0  0  0  0  0  0  0  0  0
   -3.4336   -2.2354    1.1641 H   0  0  0  0  0  0  0  0  0  0  0  0
   -3.2256   -2.7344   -0.5349 H   0  0  0  0  0  0  0  0  0  0  0  0
   -1.4126   -2.2444    0.4801 C   0  0  0  0  0  0  0  0  0  0  0  0
   -0.4686   -2.9534    0.8001 O   0  0  0  0  0  0  0  0  0  0  0  0
   -1.2736   -0.9704    0.1241 N   0  0  0  0  0  0  0  0  0  0  0  0
   -2.0996   -0.4354   -0.1019 H   0  0  0  0  0  0  0  0  0  0  0  0
   -0.0016   -0.2394    0.1271 C   0  0  1  0  0  0  0  0  0  0  0  0
   -0.0046    0.4572    0.9684 H   0  0  0  0  0  0  0  0  0  0  0  0
    1.1601   -1.2358    0.3106 C   0  0  0  0  0  0  0  0  0  0  0  0
    1.0559   -2.0509   -0.4066 H   0  0  0  0  0  0  0  0  0  0  0  0
    2.1084   -0.7347    0.1128 H   0  0  0  0  0  0  0  0  0  0  0  0
    1.2055   -1.8662    1.6992 C   0  0  0  0  0  0  0  0  0  0  0  0
    0.8063   -1.3444    2.7320 O   0  0  0  0  0  0  0  0  0  0  0  0
    1.7460   -3.0983    1.7425 O   0  0  0  0  0  0  0  0  0  0  0  0
    1.6927   -3.3762    2.6575 H   0  0  0  0  0  0  0  0  0  0  0  0
    0.1442    0.5751   -1.1738 C   0  0  0  0  0  0  0  0  0  0  0  0
    1.2407    1.0371   -1.4863 O   0  0  0  0  0  0  0  0  0  0  0  0
   -0.9482    0.7596   -1.9237 N   0  0  0  0  0  0  0  0  0  0  0  0
   -1.8270    0.4008   -1.5649 H   0  0  0  0  0  0  0  0  0  0  0  0
   -0.9693    1.5009   -3.1829 C   0  0  0  0  0  0  0  0  0  0  0  0
   -0.1928    1.1189   -3.8491 H   0  0  0  0  0  0  0  0  0  0  0  0
   -1.9417    1.3933   -3.6651 H   0  0  0  0  0  0  0  0  0  0  0  0
   -0.7760    2.5579   -2.9916 H   0  0  0  0  0  0  0  0  0  0  0  0
  5  6  2  0  0  0  0
  5  7  1  0  0  0  0
  2  3  1  0  0  0  0
  2  4  1  0  0  0  0
  2  5  1  0  0  0  0
  1  2  1  0  0  0  0
 18 19  2  0  0  0  0
 18 20  1  0  0  0  0
 16 17  1  0  0  0  0
 14 15  2  0  0  0  0
 14 16  1  0  0  0  0
 11 12  1  0  0  0  0
 11 13  1  0  0  0  0
 11 14  1  0  0  0  0
  9 10  1  0  0  0  0
  9 11  1  0  0  0  0
  9 18  1  0  0  0  0
  7  8  1  0  0  0  0
  7  9  1  0  0  0  0
 22 23  1  0  0  0  0
 22 24  1  0  0  0  0
 22 25  1  0  0  0  0
 20 21  1  0  0  0  0
 20 22  1  0  0  0  0
M  END
$$$$
default_name
  -OEChem-01062215323D

 25 24  0     1  0  0  0  0  0999 V2000
   -2.7826   -3.8464    0.7821 H   0  0  0  0  0  0  0  0  0  0  0  0
   -2.8156   -2.8034    0.4711 C   0  0  0  0  0  0  0  0  0  0  0  0
   -3.4336   -2.2354    1.1641 H   0  0  0  0  0  0  0  0  0  0  0  0
   -3.2256   -2.7344   -0.5349 H   0  0  0  0  0  0  0  0  0  0  0  0
   -1.4126   -2.2444    0.4801 C   0  0  0  0  0  0  0  0  0  0  0  0
   -0.4686   -2.9534    0.8001 O   0  0  0  0  0  0  0  0  0  0  0  0
   -1.2736   -0.9704    0.1241 N   0  0  0  0  0  0  0  0  0  0  0  0
   -2.0996   -0.4354   -0.1019 H   0  0  0  0  0  0  0  0  0  0  0  0
   -0.0016   -0.2394    0.1271 C   0  0  1  0  0  0  0  0  0  0  0  0
   -0.0046    0.4572    0.9684 H   0  0  0  0  0  0  0  0  0  0  0  0
    1.1601   -1.2358    0.3106 C   0  0  0  0  0  0  0  0  0  0  0  0
    1.0559   -2.0509   -0.4066 H   0  0  0  0  0  0  0  0  0  0  0  0
    2.1084   -0.7347    0.1128 H   0  0  0  0  0  0  0  0  0  0  0  0
    1.2055   -1.8662    1.6992 C   0  0  0  0  0  0  0  0  0  0  0  0
    0.8063   -1.3444    2.7320 O   0  0  0  0  0  0  0  0  0  0  0  0
    1.7460   -3.0983    1.7425 O   0  0  0  0  0  0  0  0  0  0  0  0
    1.6927   -3.3762    2.6575 H   0  0  0  0  0  0  0  0  0  0  0  0
    0.1442    0.5751   -1.1738 C   0  0  0  0  0  0  0  0  0  0  0  0
    1.2635    0.8006   -1.6319 O   0  0  0  0  0  0  0  0  0  0  0  0
   -0.9712    1.0215   -1.7623 N   0  0  0  0  0  0  0  0  0  0  0  0
   -1.8512    0.8477   -1.2877 H   0  0  0  0  0  0  0  0  0  0  0  0
   -0.9972    1.7991   -2.9993 C   0  0  0  0  0  0  0  0  0  0  0  0
   -0.4202    1.2846   -3.7708 H   0  0  0  0  0  0  0  0  0  0  0  0
   -2.0251    1.9241   -3.3422 H   0  0  0  0  0  0  0  0  0  0  0  0
   -0.5521    2.7806   -2.8270 H   0  0  0  0  0  0  0  0  0  0  0  0
  5  6  2  0  0  0  0
  5  7  1  0  0  0  0
  2  3  1  0  0  0  0
  2  4  1  0  0  0  0
  2  5  1  0  0  0  0
  1  2  1  0  0  0  0
 18 19  2  0  0  0  0
 18 20  1  0  0  0  0
 16 17  1  0  0  0  0
 14 15  2  0  0  0  0
 14 16  1  0  0  0  0
 11 12  1  0  0  0  0
 11 13  1  0  0  0  0
 11 14  1  0  0  0  0
  9 10  1  0  0  0  0
  9 11  1  0  0  0  0
  9 18  1  0  0  0  0
  7  8  1  0  0  0  0
  7  9  1  0  0  0  0
 22 23  1  0  0  0  0
 22 24  1  0  0  0  0
 22 25  1  0  0  0  0
 20 21  1  0  0  0  0
 20 22  1  0  0  0  0
M  END
$$$$
default_name
  -OEChem-01062215323D

 25 24  0     1  0  0  0  0  0999 V2000
   -2.7826   -3.8464    0.7821 H   0  0  0  0  0  0  0  0  0  0  0  0
   -2.8156   -2.8034    0.4711 C   0  0  0  0  0  0  0  0  0  0  0  0
   -3.4336   -2.2354    1.1641 H   0  0  0  0  0  0  0  0  0  0  0  0
   -3.2256   -2.7344   -0.5349 H   0  0  0  0  0  0  0  0  0  0  0  0
   -1.4126   -2.2444    0.4801 C   0  0  0  0  0  0  0  0  0  0  0  0
   -0.4686   -2.9534    0.8001 O   0  0  0  0  0  0  0  0  0  0  0  0
   -1.2736   -0.9704    0.1241 N   0  0  0  0  0  0  0  0  0  0  0  0
   -2.0996   -0.4354   -0.1019 H   0  0  0  0  0  0  0  0  0  0  0  0
   -0.0016   -0.2394    0.1271 C   0  0  1  0  0  0  0  0  0  0  0  0
   -0.0046    0.4572    0.9684 H   0  0  0  0  0  0  0  0  0  0  0  0
    1.1601   -1.2358    0.3106 C   0  0  0  0  0  0  0  0  0  0  0  0
    1.0559   -2.0509   -0.4066 H   0  0  0  0  0  0  0  0  0  0  0  0
    2.1084   -0.7347    0.1128 H   0  0  0  0  0  0  0  0  0  0  0  0
    1.2055   -1.8662    1.6992 C   0  0  0  0  0  0  0  0  0  0  0  0
    0.8063   -1.3444    2.7320 O   0  0  0  0  0  0  0  0  0  0  0  0
    1.7460   -3.0983    1.7425 O   0  0  0  0  0  0  0  0  0  0  0  0
    1.6927   -3.3762    2.6575 H   0  0  0  0  0  0  0  0  0  0  0  0
    0.1442    0.5751   -1.1738 C   0  0  0  0  0  0  0  0  0  0  0  0
    1.2139    0.5707   -1.7814 O   0  0  0  0  0  0  0  0  0  0  0  0
   -0.9141    1.2755   -1.5969 N   0  0  0  0  0  0  0  0  0  0  0  0
   -1.7391    1.2779   -1.0058 H   0  0  0  0  0  0  0  0  0  0  0  0
   -0.9339    2.0888   -2.8108 C   0  0  0  0  0  0  0  0  0  0  0  0
   -0.5930    1.4925   -3.6600 H   0  0  0  0  0  0  0  0  0  0  0  0
   -1.9455    2.4470   -3.0058 H   0  0  0  0  0  0  0  0  0  0  0  0
   -0.2648    2.9429   -2.6932 H   0  0  0  0  0  0  0  0  0  0  0  0
  5  6  2  0  0  0  0
  5  7  1  0  0  0  0
  2  3  1  0  0  0  0
  2  4  1  0  0  0  0
  2  5  1  0  0  0  0
  1  2  1  0  0  0  0
 18 19  2  0  0  0  0
 18 20  1  0  0  0  0
 16 17  1  0  0  0  0
 14 15  2  0  0  0  0
 14 16  1  0  0  0  0
 11 12  1  0  0  0  0
 11 13  1  0  0  0  0
 11 14  1  0  0  0  0
  9 10  1  0  0  0  0
  9 11  1  0  0  0  0
  9 18  1  0  0  0  0
  7  8  1  0  0  0  0
  7  9  1  0  0  0  0
 22 23  1  0  0  0  0
 22 24  1  0  0  0  0
 22 25  1  0  0  0  0
 20 21  1  0  0  0  0
 20 22  1  0  0  0  0
M  END
$$$$
default_name
  -OEChem-01062215323D

 25 24  0     1  0  0  0  0  0999 V2000
   -2.7826   -3.8464    0.7821 H   0  0  0  0  0  0  0  0  0  0  0  0
   -2.8156   -2.8034    0.4711 C   0  0  0  0  0  0  0  0  0  0  0  0
   -3.4336   -2.2354    1.1641 H   0  0  0  0  0  0  0  0  0  0  0  0
   -3.2256   -2.7344   -0.5349 H   0  0  0  0  0  0  0  0  0  0  0  0
   -1.4126   -2.2444    0.4801 C   0  0  0  0  0  0  0  0  0  0  0  0
   -0.4686   -2.9534    0.8001 O   0  0  0  0  0  0  0  0  0  0  0  0
   -1.2736   -0.9704    0.1241 N   0  0  0  0  0  0  0  0  0  0  0  0
   -2.0996   -0.4354   -0.1019 H   0  0  0  0  0  0  0  0  0  0  0  0
   -0.0016   -0.2394    0.1271 C   0  0  1  0  0  0  0  0  0  0  0  0
   -0.0046    0.4572    0.9684 H   0  0  0  0  0  0  0  0  0  0  0  0
    1.1601   -1.2358    0.3106 C   0  0  0  0  0  0  0  0  0  0  0  0
    1.0559   -2.0509   -0.4066 H   0  0  0  0  0  0  0  0  0  0  0  0
    2.1084   -0.7347    0.1128 H   0  0  0  0  0  0  0  0  0  0  0  0
    1.2055   -1.8662    1.6992 C   0  0  0  0  0  0  0  0  0  0  0  0
    0.8063   -1.3444    2.7320 O   0  0  0  0  0  0  0  0  0  0  0  0
    1.7460   -3.0983    1.7425 O   0  0  0  0  0  0  0  0  0  0  0  0
    1.6927   -3.3762    2.6575 H   0  0  0  0  0  0  0  0  0  0  0  0
    0.1442    0.5751   -1.1738 C   0  0  0  0  0  0  0  0  0  0  0  0
    1.0954    0.3631   -1.9246 O   0  0  0  0  0  0  0  0  0  0  0  0
   -0.7809    1.5044   -1.4386 N   0  0  0  0  0  0  0  0  0  0  0  0
   -1.4983    1.6620   -0.7383 H   0  0  0  0  0  0  0  0  0  0  0  0
   -0.7838    2.3502   -2.6303 C   0  0  0  0  0  0  0  0  0  0  0  0
   -0.6994    1.7283   -3.5242 H   0  0  0  0  0  0  0  0  0  0  0  0
   -1.7085    2.9265   -2.6790 H   0  0  0  0  0  0  0  0  0  0  0  0
    0.0666    3.0336   -2.5992 H   0  0  0  0  0  0  0  0  0  0  0  0
  5  6  2  0  0  0  0
  5  7  1  0  0  0  0
  2  3  1  0  0  0  0
  2  4  1  0  0  0  0
  2  5  1  0  0  0  0
  1  2  1  0  0  0  0
 18 19  2  0  0  0  0
 18 20  1  0  0  0  0
 16 17  1  0  0  0  0
 14 15  2  0  0  0  0
 14 16  1  0  0  0  0
 11 12  1  0  0  0  0
 11 13  1  0  0  0  0
 11 14  1  0  0  0  0
  9 10  1  0  0  0  0
  9 11  1  0  0  0  0
  9 18  1  0  0  0  0
  7  8  1  0  0  0  0
  7  9  1  0  0  0  0
 22 23  1  0  0  0  0
 22 24  1  0  0  0  0
 22 25  1  0  0  0  0
 20 21  1  0  0  0  0
 20 22  1  0  0  0  0
M  END
$$$$
default_name
  -OEChem-01062215323D

 25 24  0     1  0  0  0  0  0999 V2000
   -2.7826   -3.8464    0.7821 H   0  0  0  0  0  0  0  0  0  0  0  0
   -2.8156   -2.8034    0.4711 C   0  0  0  0  0  0  0  0  0  0  0  0
   -3.4336   -2.2354    1.1641 H   0  0  0  0  0  0  0  0  0  0  0  0
   -3.2256   -2.7344   -0.5349 H   0  0  0  0  0  0  0  0  0  0  0  0
   -1.4126   -2.2444    0.4801 C   0  0  0  0  0  0  0  0  0  0  0  0
   -0.4686   -2.9534    0.8001 O   0  0  0  0  0  0  0  0  0  0  0  0
   -1.2736   -0.9704    0.1241 N   0  0  0  0  0  0  0  0  0  0  0  0
   -2.0996   -0.4354   -0.1019 H   0  0  0  0  0  0  0  0  0  0  0  0
   -0.0016   -0.2394    0.1271 C   0  0  1  0  0  0  0  0  0  0  0  0
   -0.0046    0.4572    0.9684 H   0  0  0  0  0  0  0  0  0  0  0  0
    1.1601   -1.2358    0.3106 C   0  0  0  0  0  0  0  0  0  0  0  0
    1.0559   -2.0509   -0.4066 H   0  0  0  0  0  0  0  0  0  0  0  0
    2.1084   -0.7347    0.1128 H   0  0  0  0  0  0  0  0  0  0  0  0
    1.2055   -1.8662    1.6992 C   0  0  0  0  0  0  0  0  0  0  0  0
    0.8063   -1.3444    2.7320 O   0  0  0  0  0  0  0  0  0  0  0  0
    1.7460   -3.0983    1.7425 O   0  0  0  0  0  0  0  0  0  0  0  0
    1.6927   -3.3762    2.6575 H   0  0  0  0  0  0  0  0  0  0  0  0
    0.1442    0.5751   -1.1738 C   0  0  0  0  0  0  0  0  0  0  0  0
    0.9160    0.1920   -2.0519 O   0  0  0  0  0  0  0  0  0  0  0  0
   -0.5806    1.6925   -1.2984 N   0  0  0  0  0  0  0  0  0  0  0  0
   -1.1453    1.9739   -0.5034 H   0  0  0  0  0  0  0  0  0  0  0  0
   -0.5570    2.5654   -2.4701 C   0  0  0  0  0  0  0  0  0  0  0  0
   -0.7321    1.9760   -3.3728 H   0  0  0  0  0  0  0  0  0  0  0  0
   -1.3302    3.3299   -2.3841 H   0  0  0  0  0  0  0  0  0  0  0  0
    0.4192    3.0466   -2.5516 H   0  0  0  0  0  0  0  0  0  0  0  0
  5  6  2  0  0  0  0
  5  7  1  0  0  0  0
  2  3  1  0  0  0  0
  2  4  1  0  0  0  0
  2  5  1  0  0  0  0
  1  2  1  0  0  0  0
 18 19  2  0  0  0  0
 18 20  1  0  0  0  0
 16 17  1  0  0  0  0
 14 15  2  0  0  0  0
 14 16  1  0  0  0  0
 11 12  1  0  0  0  0
 11 13  1  0  0  0  0
 11 14  1  0  0  0  0
  9 10  1  0  0  0  0
  9 11  1  0  0  0  0
  9 18  1  0  0  0  0
  7  8  1  0  0  0  0
  7  9  1  0  0  0  0
 22 23  1  0  0  0  0
 22 24  1  0  0  0  0
 22 25  1  0  0  0  0
 20 21  1  0  0  0  0
 20 22  1  0  0  0  0
M  END
$$$$
default_name
  -OEChem-01062215323D

 25 24  0     1  0  0  0  0  0999 V2000
   -2.7826   -3.8464    0.7821 H   0  0  0  0  0  0  0  0  0  0  0  0
   -2.8156   -2.8034    0.4711 C   0  0  0  0  0  0  0  0  0  0  0  0
   -3.4336   -2.2354    1.1641 H   0  0  0  0  0  0  0  0  0  0  0  0
   -3.2256   -2.7344   -0.5349 H   0  0  0  0  0  0  0  0  0  0  0  0
   -1.4126   -2.2444    0.4801 C   0  0  0  0  0  0  0  0  0  0  0  0
   -0.4686   -2.9534    0.8001 O   0  0  0  0  0  0  0  0  0  0  0  0
   -1.2736   -0.9704    0.1241 N   0  0  0  0  0  0  0  0  0  0  0  0
   -2.0996   -0.4354   -0.1019 H   0  0  0  0  0  0  0  0  0  0  0  0
   -0.0016   -0.2394    0.1271 C   0  0  1  0  0  0  0  0  0  0  0  0
   -0.0046    0.4572    0.9684 H   0  0  0  0  0  0  0  0  0  0  0  0
    1.1601   -1.2358    0.3106 C   0  0  0  0  0  0  0  0  0  0  0  0
    1.0559   -2.0509   -0.4066 H   0  0  0  0  0  0  0  0  0  0  0  0
    2.1084   -0.7347    0.1128 H   0  0  0  0  0  0  0  0  0  0  0  0
    1.2055   -1.8662    1.6992 C   0  0  0  0  0  0  0  0  0  0  0  0
    0.8063   -1.3444    2.7320 O   0  0  0  0  0  0  0  0  0  0  0  0
    1.7460   -3.0983    1.7425 O   0  0  0  0  0  0  0  0  0  0  0  0
    1.6927   -3.3762    2.6575 H   0  0  0  0  0  0  0  0  0  0  0  0
    0.1442    0.5751   -1.1738 C   0  0  0  0  0  0  0  0  0  0  0  0
    0.6879    0.0690   -2.1545 O   0  0  0  0  0  0  0  0  0  0  0  0
   -0.3269    1.8271   -1.1857 N   0  0  0  0  0  0  0  0  0  0  0  0
   -0.7040    2.1924   -0.3172 H   0  0  0  0  0  0  0  0  0  0  0  0
   -0.2690    2.7199   -2.3411 C   0  0  0  0  0  0  0  0  0  0  0  0
   -0.6889    2.2187   -3.2160 H   0  0  0  0  0  0  0  0  0  0  0  0
   -0.8363    3.6297   -2.1410 H   0  0  0  0  0  0  0  0  0  0  0  0
    0.7693    2.9810   -2.5535 H   0  0  0  0  0  0  0  0  0  0  0  0
  5  6  2  0  0  0  0
  5  7  1  0  0  0  0
  2  3  1  0  0  0  0
  2  4  1  0  0  0  0
  2  5  1  0  0  0  0
  1  2  1  0  0  0  0
 18 19  2  0  0  0  0
 18 20  1  0  0  0  0
 16 17  1  0  0  0  0
 14 15  2  0  0  0  0
 14 16  1  0  0  0  0
 11 12  1  0  0  0  0
 11 13  1  0  0  0  0
 11 14  1  0  0  0  0
  9 10  1  0  0  0  0
  9 11  1  0  0  0  0
  9 18  1  0  0  0  0
  7  8  1  0  0  0  0
  7  9  1  0  0  0  0
 22 23  1  0  0  0  0
 22 24  1  0  0  0  0
 22 25  1  0  0  0  0
 20 21  1  0  0  0  0
 20 22  1  0  0  0  0
M  END
$$$$
default_name
  -OEChem-01062215323D

 25 24  0     1  0  0  0  0  0999 V2000
   -2.7826   -3.8464    0.7821 H   0  0  0  0  0  0  0  0  0  0  0  0
   -2.8156   -2.8034    0.4711 C   0  0  0  0  0  0  0  0  0  0  0  0
   -3.4336   -2.2354    1.1641 H   0  0  0  0  0  0  0  0  0  0  0  0
   -3.2256   -2.7344   -0.5349 H   0  0  0  0  0  0  0  0  0  0  0  0
   -1.4126   -2.2444    0.4801 C   0  0  0  0  0  0  0  0  0  0  0  0
   -0.4686   -2.9534    0.8001 O   0  0  0  0  0  0  0  0  0  0  0  0
   -1.2736   -0.9704    0.1241 N   0  0  0  0  0  0  0  0  0  0  0  0
   -2.0996   -0.4354   -0.1019 H   0  0  0  0  0  0  0  0  0  0  0  0
   -0.0016   -0.2394    0.1271 C   0  0  1  0  0  0  0  0  0  0  0  0
   -0.0046    0.4572    0.9684 H   0  0  0  0  0  0  0  0  0  0  0  0
    1.1601   -1.2358    0.3106 C   0  0  0  0  0  0  0  0  0  0  0  0
    1.0559   -2.0509   -0.4066 H   0  0  0  0  0  0  0  0  0  0  0  0
    2.1084   -0.7347    0.1128 H   0  0  0  0  0  0  0  0  0  0  0  0
    1.2055   -1.8662    1.6992 C   0  0  0  0  0  0  0  0  0  0  0  0
    0.8063   -1.3444    2.7320 O   0  0  0  0  0  0  0  0  0  0  0  0
    1.7460   -3.0983    1.7425 O   0  0  0  0  0  0  0  0  0  0  0  0
    1.6927   -3.3762    2.6575 H   0  0  0  0  0  0  0  0  0  0  0  0
    0.1442    0.5751   -1.1738 C   0  0  0  0  0  0  0  0  0  0  0  0
    0.4268    0.0025   -2.2254 O   0  0  0  0  0  0  0  0  0  0  0  0
   -0.0371    1.8989   -1.1082 N   0  0  0  0  0  0  0  0  0  0  0  0
   -0.2046    2.3025   -0.1923 H   0  0  0  0  0  0  0  0  0  0  0  0
    0.0606    2.8030   -2.2521 C   0  0  0  0  0  0  0  0  0  0  0  0
   -0.5727    2.4399   -3.0645 H   0  0  0  0  0  0  0  0  0  0  0  0
   -0.2605    3.8055   -1.9664 H   0  0  0  0  0  0  0  0  0  0  0  0
    1.0927    2.8411   -2.6047 H   0  0  0  0  0  0  0  0  0  0  0  0
  5  6  2  0  0  0  0
  5  7  1  0  0  0  0
  2  3  1  0  0  0  0
  2  4  1  0  0  0  0
  2  5  1  0  0  0  0
  1  2  1  0  0  0  0
 18 19  2  0  0  0  0
 18 20  1  0  0  0  0
 16 17  1  0  0  0  0
 14 15  2  0  0  0  0
 14 16  1  0  0  0  0
 11 12  1  0  0  0  0
 11 13  1  0  0  0  0
 11 14  1  0  0  0  0
  9 10  1  0  0  0  0
  9 11  1  0  0  0  0
  9 18  1  0  0  0  0
  7  8  1  0  0  0  0
  7  9  1  0  0  0  0
 22 23  1  0  0  0  0
 22 24  1  0  0  0  0
 22 25  1  0  0  0  0
 20 21  1  0  0  0  0
 20 22  1  0  0  0  0
M  END
$$$$
default_name
  -OEChem-01062215323D

 25 24  0     1  0  0  0  0  0999 V2000
   -2.7826   -3.8464    0.7821 H   0  0  0  0  0  0  0  0  0  0  0  0
   -2.8156   -2.8034    0.4711 C   0  0  0  0  0  0  0  0  0  0  0  0
   -3.4336   -2.2354    1.1641 H   0  0  0  0  0  0  0  0  0  0  0  0
   -3.2256   -2.7344   -0.5349 H   0  0  0  0  0  0  0  0  0  0  0  0
   -1.4126   -2.2444    0.4801 C   0  0  0  0  0  0  0  0  0  0  0  0
   -0.4686   -2.9534    0.8001 O   0  0  0  0  0  0  0  0  0  0  0  0
   -1.2736   -0.9704    0.1241 N   0  0  0  0  0  0  0  0  0  0  0  0
   -2.0996   -0.4354   -0.1019 H   0  0  0  0  0  0  0  0  0  0  0  0
   -0.0016   -0.2394    0.1271 C   0  0  1  0  0  0  0  0  0  0  0  0
   -0.0046    0.4572    0.9684 H   0  0  0  0  0  0  0  0  0  0  0  0
    1.1601   -1.2358    0.3106 C   0  0  0  0  0  0  0  0  0  0  0  0
    1.0559   -2.0509   -0.4066 H   0  0  0  0  0  0  0  0  0  0  0  0
    2.1084   -0.7347    0.1128 H   0  0  0  0  0  0  0  0  0  0  0  0
    1.2055   -1.8662    1.6992 C   0  0  0  0  0  0  0  0  0  0  0  0
    0.8063   -1.3444    2.7320 O   0  0  0  0  0  0  0  0  0  0  0  0
    1.7460   -3.0983    1.7425 O   0  0  0  0  0  0  0  0  0  0  0  0
    1.6927   -3.3762    2.6575 H   0  0  0  0  0  0  0  0  0  0  0  0
    0.1442    0.5751   -1.1738 C   0  0  0  0  0  0  0  0  0  0  0  0
    0.1503   -0.0030   -2.2598 O   0  0  0  0  0  0  0  0  0  0  0  0
    0.2692    1.9030   -1.0713 N   0  0  0  0  0  0  0  0  0  0  0  0
    0.3189    2.2967   -0.1372 H   0  0  0  0  0  0  0  0  0  0  0  0
    0.4092    2.8092   -2.2092 C   0  0  0  0  0  0  0  0  0  0  0  0
   -0.3915    2.6244   -2.9287 H   0  0  0  0  0  0  0  0  0  0  0  0
    0.3579    3.8452   -1.8722 H   0  0  0  0  0  0  0  0  0  0  0  0
    1.3677    2.6367   -2.7019 H   0  0  0  0  0  0  0  0  0  0  0  0
  5  6  2  0  0  0  0
  5  7  1  0  0  0  0
  2  3  1  0  0  0  0
  2  4  1  0  0  0  0
  2  5  1  0  0  0  0
  1  2  1  0  0  0  0
 18 19  2  0  0  0  0
 18 20  1  0  0  0  0
 16 17  1  0  0  0  0
 14 15  2  0  0  0  0
 14 16  1  0  0  0  0
 11 12  1  0  0  0  0
 11 13  1  0  0  0  0
 11 14  1  0  0  0  0
  9 10  1  0  0  0  0
  9 11  1  0  0  0  0
  9 18  1  0  0  0  0
  7  8  1  0  0  0  0
  7  9  1  0  0  0  0
 22 23  1  0  0  0  0
 22 24  1  0  0  0  0
 22 25  1  0  0  0  0
 20 21  1  0  0  0  0
 20 22  1  0  0  0  0
M  END
$$$$
default_name
  -OEChem-01062215323D

 25 24  0     1  0  0  0  0  0999 V2000
   -2.7826   -3.8464    0.7821 H   0  0  0  0  0  0  0  0  0  0  0  0
   -2.8156   -2.8034    0.4711 C   0  0  0  0  0  0  0  0  0  0  0  0
   -3.4336   -2.2354    1.1641 H   0  0  0  0  0  0  0  0  0  0  0  0
   -3.2256   -2.7344   -0.5349 H   0  0  0  0  0  0  0  0  0  0  0  0
   -1.4126   -2.2444    0.4801 C   0  0  0  0  0  0  0  0  0  0  0  0
   -0.4686   -2.9534    0.8001 O   0  0  0  0  0  0  0  0  0  0  0  0
   -1.2736   -0.9704    0.1241 N   0  0  0  0  0  0  0  0  0  0  0  0
   -2.0996   -0.4354   -0.1019 H   0  0  0  0  0  0  0  0  0  0  0  0
   -0.0016   -0.2394    0.1271 C   0  0  1  0  0  0  0  0  0  0  0  0
   -0.0046    0.4572    0.9684 H   0  0  0  0  0  0  0  0  0  0  0  0
    1.1601   -1.2358    0.3106 C   0  0  0  0  0  0  0  0  0  0  0  0
    1.0559   -2.0509   -0.4066 H   0  0  0  0  0  0  0  0  0  0  0  0
    2.1084   -0.7347    0.1128 H   0  0  0  0  0  0  0  0  0  0  0  0
    1.2055   -1.8662    1.6992 C   0  0  0  0  0  0  0  0  0  0  0  0
    0.8063   -1.3444    2.7320 O   0  0  0  0  0  0  0  0  0  0  0  0
    1.7460   -3.0983    1.7425 O   0  0  0  0  0  0  0  0  0  0  0  0
    1.6927   -3.3762    2.6575 H   0  0  0  0  0  0  0  0  0  0  0  0
    0.1442    0.5751   -1.1738 C   0  0  0  0  0  0  0  0  0  0  0  0
   -0.1227    0.0530   -2.2553 O   0  0  0  0  0  0  0  0  0  0  0  0
    0.5710    1.8393   -1.0774 N   0  0  0  0  0  0  0  0  0  0  0  0
    0.8308    2.1754   -0.1558 H   0  0  0  0  0  0  0  0  0  0  0  0
    0.7532    2.7379   -2.2152 C   0  0  0  0  0  0  0  0  0  0  0  0
   -0.1575    2.7598   -2.8177 H   0  0  0  0  0  0  0  0  0  0  0  0
    0.9768    3.7463   -1.8647 H   0  0  0  0  0  0  0  0  0  0  0  0
    1.5753    2.3816   -2.8384 H   0  0  0  0  0  0  0  0  0  0  0  0
  5  6  2  0  0  0  0
  5  7  1  0  0  0  0
  2  3  1  0  0  0  0
  2  4  1  0  0  0  0
  2  5  1  0  0  0  0
  1  2  1  0  0  0  0
 18 19  2  0  0  0  0
 18 20  1  0  0  0  0
 16 17  1  0  0  0  0
 14 15  2  0  0  0  0
 14 16  1  0  0  0  0
 11 12  1  0  0  0  0
 11 13  1  0  0  0  0
 11 14  1  0  0  0  0
  9 10  1  0  0  0  0
  9 11  1  0  0  0  0
  9 18  1  0  0  0  0
  7  8  1  0  0  0  0
  7  9  1  0  0  0  0
 22 23  1  0  0  0  0
 22 24  1  0  0  0  0
 22 25  1  0  0  0  0
 20 21  1  0  0  0  0
 20 22  1  0  0  0  0
M  END
$$$$
default_name
  -OEChem-01062215323D

 25 24  0     1  0  0  0  0  0999 V2000
   -2.7826   -3.8464    0.7821 H   0  0  0  0  0  0  0  0  0  0  0  0
   -2.8156   -2.8034    0.4711 C   0  0  0  0  0  0  0  0  0  0  0  0
   -3.4336   -2.2354    1.1641 H   0  0  0  0  0  0  0  0  0  0  0  0
   -3.2256   -2.7344   -0.5349 H   0  0  0  0  0  0  0  0  0  0  0  0
   -1.4126   -2.2444    0.4801 C   0  0  0  0  0  0  0  0  0  0  0  0
   -0.4686   -2.9534    0.8001 O   0  0  0  0  0  0  0  0  0  0  0  0
   -1.2736   -0.9704    0.1241 N   0  0  0  0  0  0  0  0  0  0  0  0
   -2.0996   -0.4354   -0.1019 H   0  0  0  0  0  0  0  0  0  0  0  0
   -0.0016   -0.2394    0.1271 C   0  0  1  0  0  0  0  0  0  0  0  0
   -0.0046    0.4572    0.9684 H   0  0  0  0  0  0  0  0  0  0  0  0
    1.1601   -1.2358    0.3106 C   0  0  0  0  0  0  0  0  0  0  0  0
    1.0559   -2.0509   -0.4066 H   0  0  0  0  0  0  0  0  0  0  0  0
    2.1084   -0.7347    0.1128 H   0  0  0  0  0  0  0  0  0  0  0  0
    1.2055   -1.8662    1.6992 C   0  0  0  0  0  0  0  0  0  0  0  0
    0.8063   -1.3444    2.7320 O   0  0  0  0  0  0  0  0  0  0  0  0
    1.7460   -3.0983    1.7425 O   0  0  0  0  0  0  0  0  0  0  0  0
    1.6927   -3.3762    2.6575 H   0  0  0  0  0  0  0  0  0  0  0  0
    0.1442    0.5751   -1.1738 C   0  0  0  0  0  0  0  0  0  0  0  0
   -0.3735    0.1665   -2.2124 O   0  0  0  0  0  0  0  0  0  0  0  0
    0.8477    1.7119   -1.1261 N   0  0  0  0  0  0  0  0  0  0  0  0
    1.2962    1.9469   -0.2467 H   0  0  0  0  0  0  0  0  0  0  0  0
    1.0691    2.5941   -2.2699 C   0  0  0  0  0  0  0  0  0  0  0  0
    0.1132    2.8367   -2.7392 H   0  0  0  0  0  0  0  0  0  0  0  0
    1.5540    3.5154   -1.9446 H   0  0  0  0  0  0  0  0  0  0  0  0
    1.7015    2.0931   -3.0049 H   0  0  0  0  0  0  0  0  0  0  0  0
  5  6  2  0  0  0  0
  5  7  1  0  0  0  0
  2  3  1  0  0  0  0
  2  4  1  0  0  0  0
  2  5  1  0  0  0  0
  1  2  1  0  0  0  0
 18 19  2  0  0  0  0
 18 20  1  0  0  0  0
 16 17  1  0  0  0  0
 14 15  2  0  0  0  0
 14 16  1  0  0  0  0
 11 12  1  0  0  0  0
 11 13  1  0  0  0  0
 11 14  1  0  0  0  0
  9 10  1  0  0  0  0
  9 11  1  0  0  0  0
  9 18  1  0  0  0  0
  7  8  1  0  0  0  0
  7  9  1  0  0  0  0
 22 23  1  0  0  0  0
 22 24  1  0  0  0  0
 22 25  1  0  0  0  0
 20 21  1  0  0  0  0
 20 22  1  0  0  0  0
M  END
$$$$
default_name
  -OEChem-01062215323D

 25 24  0     1  0  0  0  0  0999 V2000
   -2.7826   -3.8464    0.7821 H   0  0  0  0  0  0  0  0  0  0  0  0
   -2.8156   -2.8034    0.4711 C   0  0  0  0  0  0  0  0  0  0  0  0
   -3.4336   -2.2354    1.1641 H   0  0  0  0  0  0  0  0  0  0  0  0
   -3.2256   -2.7344   -0.5349 H   0  0  0  0  0  0  0  0  0  0  0  0
   -1.4126   -2.2444    0.4801 C   0  0  0  0  0  0  0  0  0  0  0  0
   -0.4686   -2.9534    0.8001 O   0  0  0  0  0  0  0  0  0  0  0  0
   -1.2736   -0.9704    0.1241 N   0  0  0  0  0  0  0  0  0  0  0  0
   -2.0996   -0.4354   -0.1019 H   0  0  0  0  0  0  0  0  0  0  0  0
   -0.0016   -0.2394    0.1271 C   0  0  1  0  0  0  0  0  0  0  0  0
   -0.0046    0.4572    0.9684 H   0  0  0  0  0  0  0  0  0  0  0  0
    1.1601   -1.2358    0.3106 C   0  0  0  0  0  0  0  0  0  0  0  0
    1.0559   -2.0509   -0.4066 H   0  0  0  0  0  0  0  0  0  0  0  0
    2.1084   -0.7347    0.1128 H   0  0  0  0  0  0  0  0  0  0  0  0
    1.2055   -1.8662    1.6992 C   0  0  0  0  0  0  0  0  0  0  0  0
    0.8063   -1.3444    2.7320 O   0  0  0  0  0  0  0  0  0  0  0  0
    1.7460   -3.0983    1.7425 O   0  0  0  0  0  0  0  0  0  0  0  0
    1.6927   -3.3762    2.6575 H   0  0  0  0  0  0  0  0  0  0  0  0
    0.1442    0.5751   -1.1738 C   0  0  0  0  0  0  0  0  0  0  0  0
   -0.5852    0.3299   -2.1338 O   0  0  0  0  0  0  0  0  0  0  0  0
    1.0805    1.5296   -1.2142 N   0  0  0  0  0  0  0  0  0  0  0  0
    1.6835    1.6268   -0.4037 H   0  0  0  0  0  0  0  0  0  0  0  0
    1.3353    2.3876   -2.3693 C   0  0  0  0  0  0  0  0  0  0  0  0
    0.4022    2.8499   -2.6985 H   0  0  0  0  0  0  0  0  0  0  0  0
    2.0502    3.1683   -2.1063 H   0  0  0  0  0  0  0  0  0  0  0  0
    1.7376    1.7910   -3.1900 H   0  0  0  0  0  0  0  0  0  0  0  0
  5  6  2  0  0  0  0
  5  7  1  0  0  0  0
  2  3  1  0  0  0  0
  2  4  1  0  0  0  0
  2  5  1  0  0  0  0
  1  2  1  0  0  0  0
 18 19  2  0  0  0  0
 18 20  1  0  0  0  0
 16 17  1  0  0  0  0
 14 15  2  0  0  0  0
 14 16  1  0  0  0  0
 11 12  1  0  0  0  0
 11 13  1  0  0  0  0
 11 14  1  0  0  0  0
  9 10  1  0  0  0  0
  9 11  1  0  0  0  0
  9 18  1  0  0  0  0
  7  8  1  0  0  0  0
  7  9  1  0  0  0  0
 22 23  1  0  0  0  0
 22 24  1  0  0  0  0
 22 25  1  0  0  0  0
 20 21  1  0  0  0  0
 20 22  1  0  0  0  0
M  END
$$$$
default_name
  -OEChem-01062215323D

 25 24  0     1  0  0  0  0  0999 V2000
   -2.7826   -3.8464    0.7821 H   0  0  0  0  0  0  0  0  0  0  0  0
   -2.8156   -2.8034    0.4711 C   0  0  0  0  0  0  0  0  0  0  0  0
   -3.4336   -2.2354    1.1641 H   0  0  0  0  0  0  0  0  0  0  0  0
   -3.2256   -2.7344   -0.5349 H   0  0  0  0  0  0  0  0  0  0  0  0
   -1.4126   -2.2444    0.4801 C   0  0  0  0  0  0  0  0  0  0  0  0
   -0.4686   -2.9534    0.8001 O   0  0  0  0  0  0  0  0  0  0  0  0
   -1.2736   -0.9704    0.1241 N   0  0  0  0  0  0  0  0  0  0  0  0
   -2.0996   -0.4354   -0.1019 H   0  0  0  0  0  0  0  0  0  0  0  0
   -0.0016   -0.2394    0.1271 C   0  0  1  0  0  0  0  0  0  0  0  0
    0.1139    0.2505    1.0964 H   0  0  0  0  0  0  0  0  0  0  0  0
    1.1599   -1.2338   -0.0691 C   0  0  0  0  0  0  0  0  0  0  0  0
    0.9524   -1.8686   -0.9313 H   0  0  0  0  0  0  0  0  0  0  0  0
    2.0817   -0.6867   -0.2698 H   0  0  0  0  0  0  0  0  0  0  0  0
    1.3750   -2.1589    1.1250 C   0  0  0  0  0  0  0  0  0  0  0  0
    1.1199   -1.8882    2.2911 O   0  0  0  0  0  0  0  0  0  0  0  0
    1.8990   -3.3609    0.8206 O   0  0  0  0  0  0  0  0  0  0  0  0
    1.9603   -3.8378    1.6488 H   0  0  0  0  0  0  0  0  0  0  0  0
   -0.0133    0.8483   -0.9655 C   0  0  0  0  0  0  0  0  0  0  0  0
   -1.0036    0.9838   -1.6828 O   0  0  0  0  0  0  0  0  0  0  0  0
    1.0762    1.6126   -1.1008 N   0  0  0  0  0  0  0  0  0  0  0  0
    1.8746    1.3959   -0.5131 H   0  0  0  0  0  0  0  0  0  0  0  0
    1.2146    2.6861   -2.0827 C   0  0  0  0  0  0  0  0  0  0  0  0
    0.3625    3.3653   -2.0094 H   0  0  0  0  0  0  0  0  0  0  0  0
    2.1350    3.2429   -1.9024 H   0  0  0  0  0  0  0  0  0  0  0  0
    1.2390    2.2642   -3.0890 H   0  0  0  0  0  0  0  0  0  0  0  0
  5  6  2  0  0  0  0
  5  7  1  0  0  0  0
  2  3  1  0  0  0  0
  2  4  1  0  0  0  0
  2  5  1  0  0  0  0
  1  2  1  0  0  0  0
 18 19  2  0  0  0  0
 18 20  1  0  0  0  0
 16 17  1  0  0  0  0
 14 15  2  0  0  0  0
 14 16  1  0  0  0  0
 11 12  1  0  0  0  0
 11 13  1  0  0  0  0
 11 14  1  0  0  0  0
  9 10  1  0  0  0  0
  9 11  1  0  0  0  0
  9 18  1  0  0  0  0
  7  8  1  0  0  0  0
  7  9  1  0  0  0  0
 22 23  1  0  0  0  0
 22 24  1  0  0  0  0
 22 25  1  0  0  0  0
 20 21  1  0  0  0  0
 20 22  1  0  0  0  0
M  END
$$$$
default_name
  -OEChem-01062215323D

 25 24  0     1  0  0  0  0  0999 V2000
   -2.7826   -3.8464    0.7821 H   0  0  0  0  0  0  0  0  0  0  0  0
   -2.8156   -2.8034    0.4711 C   0  0  0  0  0  0  0  0  0  0  0  0
   -3.4336   -2.2354    1.1641 H   0  0  0  0  0  0  0  0  0  0  0  0
   -3.2256   -2.7344   -0.5349 H   0  0  0  0  0  0  0  0  0  0  0  0
   -1.4126   -2.2444    0.4801 C   0  0  0  0  0  0  0  0  0  0  0  0
   -0.4686   -2.9534    0.8001 O   0  0  0  0  0  0  0  0  0  0  0  0
   -1.2736   -0.9704    0.1241 N   0  0  0  0  0  0  0  0  0  0  0  0
   -2.0996   -0.4354   -0.1019 H   0  0  0  0  0  0  0  0  0  0  0  0
   -0.0016   -0.2394    0.1271 C   0  0  1  0  0  0  0  0  0  0  0  0
    0.1139    0.2505    1.0964 H   0  0  0  0  0  0  0  0  0  0  0  0
    1.1599   -1.2338   -0.0691 C   0  0  0  0  0  0  0  0  0  0  0  0
    0.9524   -1.8686   -0.9313 H   0  0  0  0  0  0  0  0  0  0  0  0
    2.0817   -0.6867   -0.2698 H   0  0  0  0  0  0  0  0  0  0  0  0
    1.3750   -2.1589    1.1250 C   0  0  0  0  0  0  0  0  0  0  0  0
    1.1199   -1.8882    2.2911 O   0  0  0  0  0  0  0  0  0  0  0  0
    1.8990   -3.3609    0.8206 O   0  0  0  0  0  0  0  0  0  0  0  0
    1.9603   -3.8378    1.6488 H   0  0  0  0  0  0  0  0  0  0  0  0
   -0.0133    0.8483   -0.9655 C   0  0  0  0  0  0  0  0  0  0  0  0
   -1.0761    1.1741   -1.4926 O   0  0  0  0  0  0  0  0  0  0  0  0
    1.1544    1.4016   -1.3118 N   0  0  0  0  0  0  0  0  0  0  0  0
    1.9933    1.0331   -0.8756 H   0  0  0  0  0  0  0  0  0  0  0  0
    1.3053    2.4460   -2.3227 C   0  0  0  0  0  0  0  0  0  0  0  0
    0.6201    3.2690   -2.1080 H   0  0  0  0  0  0  0  0  0  0  0  0
    2.3293    2.8217   -2.3239 H   0  0  0  0  0  0  0  0  0  0  0  0
    1.0676    2.0421   -3.3083 H   0  0  0  0  0  0  0  0  0  0  0  0
  5  6  2  0  0  0  0
  5  7  1  0  0  0  0
  2  3  1  0  0  0  0
  2  4  1  0  0  0  0
  2  5  1  0  0  0  0
  1  2  1  0  0  0  0
 18 19  2  0  0  0  0
 18 20  1  0  0  0  0
 16 17  1  0  0  0  0
 14 15  2  0  0  0  0
 14 16  1  0  0  0  0
 11 12  1  0  0  0  0
 11 13  1  0  0  0  0
 11 14  1  0  0  0  0
  9 10  1  0  0  0  0
  9 11  1  0  0  0  0
  9 18  1  0  0  0  0
  7  8  1  0  0  0  0
  7  9  1  0  0  0  0
 22 23  1  0  0  0  0
 22 24  1  0  0  0  0
 22 25  1  0  0  0  0
 20 21  1  0  0  0  0
 20 22  1  0  0  0  0
M  END
$$$$
default_name
  -OEChem-01062215323D

 25 24  0     1  0  0  0  0  0999 V2000
   -2.7826   -3.8464    0.7821 H   0  0  0  0  0  0  0  0  0  0  0  0
   -2.8156   -2.8034    0.4711 C   0  0  0  0  0  0  0  0  0  0  0  0
   -3.4336   -2.2354    1.1641 H   0  0  0  0  0  0  0  0  0  0  0  0
   -3.2256   -2.7344   -0.5349 H   0  0  0  0  0  0  0  0  0  0  0  0
   -1.4126   -2.2444    0.4801 C   0  0  0  0  0  0  0  0  0  0  0  0
   -0.4686   -2.9534    0.8001 O   0  0  0  0  0  0  0  0  0  0  0  0
   -1.2736   -0.9704    0.1241 N   0  0  0  0  0  0  0  0  0  0  0  0
   -2.0996   -0.4354   -0.1019 H   0  0  0  0  0  0  0  0  0  0  0  0
   -0.0016   -0.2394    0.1271 C   0  0  1  0  0  0  0  0  0  0  0  0
    0.1139    0.2505    1.0964 H   0  0  0  0  0  0  0  0  0  0  0  0
    1.1599   -1.2338   -0.0691 C   0  0  0  0  0  0  0  0  0  0  0  0
    0.9524   -1.8686   -0.9313 H   0  0  0  0  0  0  0  0  0  0  0  0
    2.0817   -0.6867   -0.2698 H   0  0  0  0  0  0  0  0  0  0  0  0
    1.3750   -2.1589    1.1250 C   0  0  0  0  0  0  0  0  0  0  0  0
    1.1199   -1.8882    2.2911 O   0  0  0  0  0  0  0  0  0  0  0  0
    1.8990   -3.3609    0.8206 O   0  0  0  0  0  0  0  0  0  0  0  0
    1.9603   -3.8378    1.6488 H   0  0  0  0  0  0  0  0  0  0  0  0
   -0.0133    0.8483   -0.9655 C   0  0  0  0  0  0  0  0  0  0  0  0
   -1.0766    1.3716   -1.2960 O   0  0  0  0  0  0  0  0  0  0  0  0
    1.1527    1.1829   -1.5295 N   0  0  0  0  0  0  0  0  0  0  0  0
    1.9752    0.6601   -1.2467 H   0  0  0  0  0  0  0  0  0  0  0  0
    1.3050    2.1970   -2.5706 C   0  0  0  0  0  0  0  0  0  0  0  0
    0.8332    3.1285   -2.2502 H   0  0  0  0  0  0  0  0  0  0  0  0
    2.3627    2.3783   -2.7657 H   0  0  0  0  0  0  0  0  0  0  0  0
    0.8212    1.8585   -3.4884 H   0  0  0  0  0  0  0  0  0  0  0  0
  5  6  2  0  0  0  0
  5  7  1  0  0  0  0
  2  3  1  0  0  0  0
  2  4  1  0  0  0  0
  2  5  1  0  0  0  0
  1  2  1  0  0  0  0
 18 19  2  0  0  0  0
 18 20  1  0  0  0  0
 16 17  1  0  0  0  0
 14 15  2  0  0  0  0
 14 16  1  0  0  0  0
 11 12  1  0  0  0  0
 11 13  1  0  0  0  0
 11 14  1  0  0  0  0
  9 10  1  0  0  0  0
  9 11  1  0  0  0  0
  9 18  1  0  0  0  0
  7  8  1  0  0  0  0
  7  9  1  0  0  0  0
 22 23  1  0  0  0  0
 22 24  1  0  0  0  0
 22 25  1  0  0  0  0
 20 21  1  0  0  0  0
 20 22  1  0  0  0  0
M  END
$$$$
default_name
  -OEChem-01062215323D

 25 24  0     1  0  0  0  0  0999 V2000
   -2.7826   -3.8464    0.7821 H   0  0  0  0  0  0  0  0  0  0  0  0
   -2.8156   -2.8034    0.4711 C   0  0  0  0  0  0  0  0  0  0  0  0
   -3.4336   -2.2354    1.1641 H   0  0  0  0  0  0  0  0  0  0  0  0
   -3.2256   -2.7344   -0.5349 H   0  0  0  0  0  0  0  0  0  0  0  0
   -1.4126   -2.2444    0.4801 C   0  0  0  0  0  0  0  0  0  0  0  0
   -0.4686   -2.9534    0.8001 O   0  0  0  0  0  0  0  0  0  0  0  0
   -1.2736   -0.9704    0.1241 N   0  0  0  0  0  0  0  0  0  0  0  0
   -2.0996   -0.4354   -0.1019 H   0  0  0  0  0  0  0  0  0  0  0  0
   -0.0016   -0.2394    0.1271 C   0  0  1  0  0  0  0  0  0  0  0  0
    0.1139    0.2505    1.0964 H   0  0  0  0  0  0  0  0  0  0  0  0
    1.1599   -1.2338   -0.0691 C   0  0  0  0  0  0  0  0  0  0  0  0
    0.9524   -1.8686   -0.9313 H   0  0  0  0  0  0  0  0  0  0  0  0
    2.0817   -0.6867   -0.2698 H   0  0  0  0  0  0  0  0  0  0  0  0
    1.3750   -2.1589    1.1250 C   0  0  0  0  0  0  0  0  0  0  0  0
    1.1199   -1.8882    2.2911 O   0  0  0  0  0  0  0  0  0  0  0  0
    1.8990   -3.3609    0.8206 O   0  0  0  0  0  0  0  0  0  0  0  0
    1.9603   -3.8378    1.6488 H   0  0  0  0  0  0  0  0  0  0  0  0
   -0.0133    0.8483   -0.9655 C   0  0  0  0  0  0  0  0  0  0  0  0
   -1.0049    1.5628   -1.1064 O   0  0  0  0  0  0  0  0  0  0  0  0
    1.0711    0.9716   -1.7390 N   0  0  0  0  0  0  0  0  0  0  0  0
    1.8216    0.3025   -1.6011 H   0  0  0  0  0  0  0  0  0  0  0  0
    1.2138    1.9561   -2.8094 C   0  0  0  0  0  0  0  0  0  0  0  0
    0.9873    2.9534   -2.4262 H   0  0  0  0  0  0  0  0  0  0  0  0
    2.2330    1.9430   -3.1977 H   0  0  0  0  0  0  0  0  0  0  0  0
    0.5167    1.7260   -3.6171 H   0  0  0  0  0  0  0  0  0  0  0  0
  5  6  2  0  0  0  0
  5  7  1  0  0  0  0
  2  3  1  0  0  0  0
  2  4  1  0  0  0  0
  2  5  1  0  0  0  0
  1  2  1  0  0  0  0
 18 19  2  0  0  0  0
 18 20  1  0  0  0  0
 16 17  1  0  0  0  0
 14 15  2  0  0  0  0
 14 16  1  0  0  0  0
 11 12  1  0  0  0  0
 11 13  1  0  0  0  0
 11 14  1  0  0  0  0
  9 10  1  0  0  0  0
  9 11  1  0  0  0  0
  9 18  1  0  0  0  0
  7  8  1  0  0  0  0
  7  9  1  0  0  0  0
 22 23  1  0  0  0  0
 22 24  1  0  0  0  0
 22 25  1  0  0  0  0
 20 21  1  0  0  0  0
 20 22  1  0  0  0  0
M  END
$$$$
default_name
  -OEChem-01062215323D

 25 24  0     1  0  0  0  0  0999 V2000
   -2.7826   -3.8464    0.7821 H   0  0  0  0  0  0  0  0  0  0  0  0
   -2.8156   -2.8034    0.4711 C   0  0  0  0  0  0  0  0  0  0  0  0
   -3.4336   -2.2354    1.1641 H   0  0  0  0  0  0  0  0  0  0  0  0
   -3.2256   -2.7344   -0.5349 H   0  0  0  0  0  0  0  0  0  0  0  0
   -1.4126   -2.2444    0.4801 C   0  0  0  0  0  0  0  0  0  0  0  0
   -0.4686   -2.9534    0.8001 O   0  0  0  0  0  0  0  0  0  0  0  0
   -1.2736   -0.9704    0.1241 N   0  0  0  0  0  0  0  0  0  0  0  0
   -2.0996   -0.4354   -0.1019 H   0  0  0  0  0  0  0  0  0  0  0  0
   -0.0016   -0.2394    0.1271 C   0  0  1  0  0  0  0  0  0  0  0  0
    0.1139    0.2505    1.0964 H   0  0  0  0  0  0  0  0  0  0  0  0
    1.1599   -1.2338   -0.0691 C   0  0  0  0  0  0  0  0  0  0  0  0
    0.9524   -1.8686   -0.9313 H   0  0  0  0  0  0  0  0  0  0  0  0
    2.0817   -0.6867   -0.2698 H   0  0  0  0  0  0  0  0  0  0  0  0
    1.3750   -2.1589    1.1250 C   0  0  0  0  0  0  0  0  0  0  0  0
    1.1199   -1.8882    2.2911 O   0  0  0  0  0  0  0  0  0  0  0  0
    1.8990   -3.3609    0.8206 O   0  0  0  0  0  0  0  0  0  0  0  0
    1.9603   -3.8378    1.6488 H   0  0  0  0  0  0  0  0  0  0  0  0
   -0.0133    0.8483   -0.9655 C   0  0  0  0  0  0  0  0  0  0  0  0
   -0.8659    1.7348   -0.9367 O   0  0  0  0  0  0  0  0  0  0  0  0
    0.9154    0.7821   -1.9260 N   0  0  0  0  0  0  0  0  0  0  0  0
    1.5429   -0.0154   -1.9147 H   0  0  0  0  0  0  0  0  0  0  0  0
    1.0379    1.7396   -3.0231 C   0  0  0  0  0  0  0  0  0  0  0  0
    1.0719    2.7557   -2.6239 H   0  0  0  0  0  0  0  0  0  0  0  0
    1.9491    1.5455   -3.5904 H   0  0  0  0  0  0  0  0  0  0  0  0
    0.1748    1.6537   -3.6855 H   0  0  0  0  0  0  0  0  0  0  0  0
  5  6  2  0  0  0  0
  5  7  1  0  0  0  0
  2  3  1  0  0  0  0
  2  4  1  0  0  0  0
  2  5  1  0  0  0  0
  1  2  1  0  0  0  0
 18 19  2  0  0  0  0
 18 20  1  0  0  0  0
 16 17  1  0  0  0  0
 14 15  2  0  0  0  0
 14 16  1  0  0  0  0
 11 12  1  0  0  0  0
 11 13  1  0  0  0  0
 11 14  1  0  0  0  0
  9 10  1  0  0  0  0
  9 11  1  0  0  0  0
  9 18  1  0  0  0  0
  7  8  1  0  0  0  0
  7  9  1  0  0  0  0
 22 23  1  0  0  0  0
 22 24  1  0  0  0  0
 22 25  1  0  0  0  0
 20 21  1  0  0  0  0
 20 22  1  0  0  0  0
M  END
$$$$
default_name
  -OEChem-01062215323D

 25 24  0     1  0  0  0  0  0999 V2000
   -2.7826   -3.8464    0.7821 H   0  0  0  0  0  0  0  0  0  0  0  0
   -2.8156   -2.8034    0.4711 C   0  0  0  0  0  0  0  0  0  0  0  0
   -3.4336   -2.2354    1.1641 H   0  0  0  0  0  0  0  0  0  0  0  0
   -3.2256   -2.7344   -0.5349 H   0  0  0  0  0  0  0  0  0  0  0  0
   -1.4126   -2.2444    0.4801 C   0  0  0  0  0  0  0  0  0  0  0  0
   -0.4686   -2.9534    0.8001 O   0  0  0  0  0  0  0  0  0  0  0  0
   -1.2736   -0.9704    0.1241 N   0  0  0  0  0  0  0  0  0  0  0  0
   -2.0996   -0.4354   -0.1019 H   0  0  0  0  0  0  0  0  0  0  0  0
   -0.0016   -0.2394    0.1271 C   0  0  1  0  0  0  0  0  0  0  0  0
    0.1139    0.2505    1.0964 H   0  0  0  0  0  0  0  0  0  0  0  0
    1.1599   -1.2338   -0.0691 C   0  0  0  0  0  0  0  0  0  0  0  0
    0.9524   -1.8686   -0.9313 H   0  0  0  0  0  0  0  0  0  0  0  0
    2.0817   -0.6867   -0.2698 H   0  0  0  0  0  0  0  0  0  0  0  0
    1.3750   -2.1589    1.1250 C   0  0  0  0  0  0  0  0  0  0  0  0
    1.1199   -1.8882    2.2911 O   0  0  0  0  0  0  0  0  0  0  0  0
    1.8990   -3.3609    0.8206 O   0  0  0  0  0  0  0  0  0  0  0  0
    1.9603   -3.8378    1.6488 H   0  0  0  0  0  0  0  0  0  0  0  0
   -0.0133    0.8483   -0.9655 C   0  0  0  0  0  0  0  0  0  0  0  0
   -0.6692    1.8757   -0.7985 O   0  0  0  0  0  0  0  0  0  0  0  0
    0.6961    0.6272   -2.0779 N   0  0  0  0  0  0  0  0  0  0  0  0
    1.1581   -0.2721   -2.1661 H   0  0  0  0  0  0  0  0  0  0  0  0
    0.7893    1.5624   -3.1969 C   0  0  0  0  0  0  0  0  0  0  0  0
    1.0813    2.5488   -2.8300 H   0  0  0  0  0  0  0  0  0  0  0  0
    1.5301    1.2128   -3.9171 H   0  0  0  0  0  0  0  0  0  0  0  0
   -0.1812    1.6464   -3.6889 H   0  0  0  0  0  0  0  0  0  0  0  0
  5  6  2  0  0  0  0
  5  7  1  0  0  0  0
  2  3  1  0  0  0  0
  2  4  1  0  0  0  0
  2  5  1  0  0  0  0
  1  2  1  0  0  0  0
 18 19  2  0  0  0  0
 18 20  1  0  0  0  0
 16 17  1  0  0  0  0
 14 15  2  0  0  0  0
 14 16  1  0  0  0  0
 11 12  1  0  0  0  0
 11 13  1  0  0  0  0
 11 14  1  0  0  0  0
  9 10  1  0  0  0  0
  9 11  1  0  0  0  0
  9 18  1  0  0  0  0
  7  8  1  0  0  0  0
  7  9  1  0  0  0  0
 22 23  1  0  0  0  0
 22 24  1  0  0  0  0
 22 25  1  0  0  0  0
 20 21  1  0  0  0  0
 20 22  1  0  0  0  0
M  END
$$$$
default_name
  -OEChem-01062215323D

 25 24  0     1  0  0  0  0  0999 V2000
   -2.7826   -3.8464    0.7821 H   0  0  0  0  0  0  0  0  0  0  0  0
   -2.8156   -2.8034    0.4711 C   0  0  0  0  0  0  0  0  0  0  0  0
   -3.4336   -2.2354    1.1641 H   0  0  0  0  0  0  0  0  0  0  0  0
   -3.2256   -2.7344   -0.5349 H   0  0  0  0  0  0  0  0  0  0  0  0
   -1.4126   -2.2444    0.4801 C   0  0  0  0  0  0  0  0  0  0  0  0
   -0.4686   -2.9534    0.8001 O   0  0  0  0  0  0  0  0  0  0  0  0
   -1.2736   -0.9704    0.1241 N   0  0  0  0  0  0  0  0  0  0  0  0
   -2.0996   -0.4354   -0.1019 H   0  0  0  0  0  0  0  0  0  0  0  0
   -0.0016   -0.2394    0.1271 C   0  0  1  0  0  0  0  0  0  0  0  0
    0.1139    0.2505    1.0964 H   0  0  0  0  0  0  0  0  0  0  0  0
    1.1599   -1.2338   -0.0691 C   0  0  0  0  0  0  0  0  0  0  0  0
    0.9524   -1.8686   -0.9313 H   0  0  0  0  0  0  0  0  0  0  0  0
    2.0817   -0.6867   -0.2698 H   0  0  0  0  0  0  0  0  0  0  0  0
    1.3750   -2.1589    1.1250 C   0  0  0  0  0  0  0  0  0  0  0  0
    1.1199   -1.8882    2.2911 O   0  0  0  0  0  0  0  0  0  0  0  0
    1.8990   -3.3609    0.8206 O   0  0  0  0  0  0  0  0  0  0  0  0
    1.9603   -3.8378    1.6488 H   0  0  0  0  0  0  0  0  0  0  0  0
   -0.0133    0.8483   -0.9655 C   0  0  0  0  0  0  0  0  0  0  0  0
   -0.4281    1.9760   -0.7012 O   0  0  0  0  0  0  0  0  0  0  0  0
    0.4280    0.5175   -2.1842 N   0  0  0  0  0  0  0  0  0  0  0  0
    0.6934   -0.4498   -2.3381 H   0  0  0  0  0  0  0  0  0  0  0  0
    0.4849    1.4364   -3.3190 C   0  0  0  0  0  0  0  0  0  0  0  0
    1.0147    2.3469   -3.0303 H   0  0  0  0  0  0  0  0  0  0  0  0
    1.0048    0.9677   -4.1555 H   0  0  0  0  0  0  0  0  0  0  0  0
   -0.5271    1.7046   -3.6273 H   0  0  0  0  0  0  0  0  0  0  0  0
  5  6  2  0  0  0  0
  5  7  1  0  0  0  0
  2  3  1  0  0  0  0
  2  4  1  0  0  0  0
  2  5  1  0  0  0  0
  1  2  1  0  0  0  0
 18 19  2  0  0  0  0
 18 20  1  0  0  0  0
 16 17  1  0  0  0  0
 14 15  2  0  0  0  0
 14 16  1  0  0  0  0
 11 12  1  0  0  0  0
 11 13  1  0  0  0  0
 11 14  1  0  0  0  0
  9 10  1  0  0  0  0
  9 11  1  0  0  0  0
  9 18  1  0  0  0  0
  7  8  1  0  0  0  0
  7  9  1  0  0  0  0
 22 23  1  0  0  0  0
 22 24  1  0  0  0  0
 22 25  1  0  0  0  0
 20 21  1  0  0  0  0
 20 22  1  0  0  0  0
M  END
$$$$
default_name
  -OEChem-01062215323D

 25 24  0     1  0  0  0  0  0999 V2000
   -2.7826   -3.8464    0.7821 H   0  0  0  0  0  0  0  0  0  0  0  0
   -2.8156   -2.8034    0.4711 C   0  0  0  0  0  0  0  0  0  0  0  0
   -3.4336   -2.2354    1.1641 H   0  0  0  0  0  0  0  0  0  0  0  0
   -3.2256   -2.7344   -0.5349 H   0  0  0  0  0  0  0  0  0  0  0  0
   -1.4126   -2.2444    0.4801 C   0  0  0  0  0  0  0  0  0  0  0  0
   -0.4686   -2.9534    0.8001 O   0  0  0  0  0  0  0  0  0  0  0  0
   -1.2736   -0.9704    0.1241 N   0  0  0  0  0  0  0  0  0  0  0  0
   -2.0996   -0.4354   -0.1019 H   0  0  0  0  0  0  0  0  0  0  0  0
   -0.0016   -0.2394    0.1271 C   0  0  1  0  0  0  0  0  0  0  0  0
    0.1139    0.2505    1.0964 H   0  0  0  0  0  0  0  0  0  0  0  0
    1.1599   -1.2338   -0.0691 C   0  0  0  0  0  0  0  0  0  0  0  0
    0.9524   -1.8686   -0.9313 H   0  0  0  0  0  0  0  0  0  0  0  0
    2.0817   -0.6867   -0.2698 H   0  0  0  0  0  0  0  0  0  0  0  0
    1.3750   -2.1589    1.1250 C   0  0  0  0  0  0  0  0  0  0  0  0
    1.1199   -1.8882    2.2911 O   0  0  0  0  0  0  0  0  0  0  0  0
    1.8990   -3.3609    0.8206 O   0  0  0  0  0  0  0  0  0  0  0  0
    1.9603   -3.8378    1.6488 H   0  0  0  0  0  0  0  0  0  0  0  0
   -0.0133    0.8483   -0.9655 C   0  0  0  0  0  0  0  0  0  0  0  0
   -0.1590    2.0289   -0.6514 O   0  0  0  0  0  0  0  0  0  0  0  0
    0.1296    0.4605   -2.2378 N   0  0  0  0  0  0  0  0  0  0  0  0
    0.1806   -0.5367   -2.4191 H   0  0  0  0  0  0  0  0  0  0  0  0
    0.1455    1.3704   -3.3812 C   0  0  0  0  0  0  0  0  0  0  0  0
    0.8768    2.1636   -3.2113 H   0  0  0  0  0  0  0  0  0  0  0  0
    0.4089    0.8268   -4.2894 H   0  0  0  0  0  0  0  0  0  0  0  0
   -0.8393    1.8244   -3.5047 H   0  0  0  0  0  0  0  0  0  0  0  0
  5  6  2  0  0  0  0
  5  7  1  0  0  0  0
  2  3  1  0  0  0  0
  2  4  1  0  0  0  0
  2  5  1  0  0  0  0
  1  2  1  0  0  0  0
 18 19  2  0  0  0  0
 18 20  1  0  0  0  0
 16 17  1  0  0  0  0
 14 15  2  0  0  0  0
 14 16  1  0  0  0  0
 11 12  1  0  0  0  0
 11 13  1  0  0  0  0
 11 14  1  0  0  0  0
  9 10  1  0  0  0  0
  9 11  1  0  0  0  0
  9 18  1  0  0  0  0
  7  8  1  0  0  0  0
  7  9  1  0  0  0  0
 22 23  1  0  0  0  0
 22 24  1  0  0  0  0
 22 25  1  0  0  0  0
 20 21  1  0  0  0  0
 20 22  1  0  0  0  0
M  END
$$$$
default_name
  -OEChem-01062215323D

 25 24  0     1  0  0  0  0  0999 V2000
   -2.7826   -3.8464    0.7821 H   0  0  0  0  0  0  0  0  0  0  0  0
   -2.8156   -2.8034    0.4711 C   0  0  0  0  0  0  0  0  0  0  0  0
   -3.4336   -2.2354    1.1641 H   0  0  0  0  0  0  0  0  0  0  0  0
   -3.2256   -2.7344   -0.5349 H   0  0  0  0  0  0  0  0  0  0  0  0
   -1.4126   -2.2444    0.4801 C   0  0  0  0  0  0  0  0  0  0  0  0
   -0.4686   -2.9534    0.8001 O   0  0  0  0  0  0  0  0  0  0  0  0
   -1.2736   -0.9704    0.1241 N   0  0  0  0  0  0  0  0  0  0  0  0
   -2.0996   -0.4354   -0.1019 H   0  0  0  0  0  0  0  0  0  0  0  0
   -0.0016   -0.2394    0.1271 C   0  0  1  0  0  0  0  0  0  0  0  0
    0.1139    0.2505    1.0964 H   0  0  0  0  0  0  0  0  0  0  0  0
    1.1599   -1.2338   -0.0691 C   0  0  0  0  0  0  0  0  0  0  0  0
    0.9524   -1.8686   -0.9313 H   0  0  0  0  0  0  0  0  0  0  0  0
    2.0817   -0.6867   -0.2698 H   0  0  0  0  0  0  0  0  0  0  0  0
    1.3750   -2.1589    1.1250 C   0  0  0  0  0  0  0  0  0  0  0  0
    1.1199   -1.8882    2.2911 O   0  0  0  0  0  0  0  0  0  0  0  0
    1.8990   -3.3609    0.8206 O   0  0  0  0  0  0  0  0  0  0  0  0
    1.9603   -3.8378    1.6488 H   0  0  0  0  0  0  0  0  0  0  0  0
   -0.0133    0.8483   -0.9655 C   0  0  0  0  0  0  0  0  0  0  0  0
    0.1197    2.0307   -0.6526 O   0  0  0  0  0  0  0  0  0  0  0  0
   -0.1789    0.4601   -2.2349 N   0  0  0  0  0  0  0  0  0  0  0  0
   -0.3455   -0.5267   -2.4035 H   0  0  0  0  0  0  0  0  0  0  0  0
   -0.2058    1.3687   -3.3791 C   0  0  0  0  0  0  0  0  0  0  0  0
    0.6770    2.0115   -3.3606 H   0  0  0  0  0  0  0  0  0  0  0  0
   -0.2170    0.7998   -4.3096 H   0  0  0  0  0  0  0  0  0  0  0  0
   -1.0964    1.9976   -3.3295 H   0  0  0  0  0  0  0  0  0  0  0  0
  5  6  2  0  0  0  0
  5  7  1  0  0  0  0
  2  3  1  0  0  0  0
  2  4  1  0  0  0  0
  2  5  1  0  0  0  0
  1  2  1  0  0  0  0
 18 19  2  0  0  0  0
 18 20  1  0  0  0  0
 16 17  1  0  0  0  0
 14 15  2  0  0  0  0
 14 16  1  0  0  0  0
 11 12  1  0  0  0  0
 11 13  1  0  0  0  0
 11 14  1  0  0  0  0
  9 10  1  0  0  0  0
  9 11  1  0  0  0  0
  9 18  1  0  0  0  0
  7  8  1  0  0  0  0
  7  9  1  0  0  0  0
 22 23  1  0  0  0  0
 22 24  1  0  0  0  0
 22 25  1  0  0  0  0
 20 21  1  0  0  0  0
 20 22  1  0  0  0  0
M  END
$$$$
default_name
  -OEChem-01062215323D

 25 24  0     1  0  0  0  0  0999 V2000
   -2.7826   -3.8464    0.7821 H   0  0  0  0  0  0  0  0  0  0  0  0
   -2.8156   -2.8034    0.4711 C   0  0  0  0  0  0  0  0  0  0  0  0
   -3.4336   -2.2354    1.1641 H   0  0  0  0  0  0  0  0  0  0  0  0
   -3.2256   -2.7344   -0.5349 H   0  0  0  0  0  0  0  0  0  0  0  0
   -1.4126   -2.2444    0.4801 C   0  0  0  0  0  0  0  0  0  0  0  0
   -0.4686   -2.9534    0.8001 O   0  0  0  0  0  0  0  0  0  0  0  0
   -1.2736   -0.9704    0.1241 N   0  0  0  0  0  0  0  0  0  0  0  0
   -2.0996   -0.4354   -0.1019 H   0  0  0  0  0  0  0  0  0  0  0  0
   -0.0016   -0.2394    0.1271 C   0  0  1  0  0  0  0  0  0  0  0  0
    0.1139    0.2505    1.0964 H   0  0  0  0  0  0  0  0  0  0  0  0
    1.1599   -1.2338   -0.0691 C   0  0  0  0  0  0  0  0  0  0  0  0
    0.9524   -1.8686   -0.9313 H   0  0  0  0  0  0  0  0  0  0  0  0
    2.0817   -0.6867   -0.2698 H   0  0  0  0  0  0  0  0  0  0  0  0
    1.3750   -2.1589    1.1250 C   0  0  0  0  0  0  0  0  0  0  0  0
    1.1199   -1.8882    2.2911 O   0  0  0  0  0  0  0  0  0  0  0  0
    1.8990   -3.3609    0.8206 O   0  0  0  0  0  0  0  0  0  0  0  0
    1.9603   -3.8378    1.6488 H   0  0  0  0  0  0  0  0  0  0  0  0
   -0.0133    0.8483   -0.9655 C   0  0  0  0  0  0  0  0  0  0  0  0
    0.3890    1.9813   -0.7047 O   0  0  0  0  0  0  0  0  0  0  0  0
   -0.4764    0.5162   -2.1758 N   0  0  0  0  0  0  0  0  0  0  0  0
   -0.8490   -0.4205   -2.2924 H   0  0  0  0  0  0  0  0  0  0  0  0
   -0.5451    1.4315   -3.3129 C   0  0  0  0  0  0  0  0  0  0  0  0
    0.4288    1.9010   -3.4680 H   0  0  0  0  0  0  0  0  0  0  0  0
   -0.8302    0.8884   -4.2148 H   0  0  0  0  0  0  0  0  0  0  0  0
   -1.2811    2.2124   -3.1136 H   0  0  0  0  0  0  0  0  0  0  0  0
  5  6  2  0  0  0  0
  5  7  1  0  0  0  0
  2  3  1  0  0  0  0
  2  4  1  0  0  0  0
  2  5  1  0  0  0  0
  1  2  1  0  0  0  0
 18 19  2  0  0  0  0
 18 20  1  0  0  0  0
 16 17  1  0  0  0  0
 14 15  2  0  0  0  0
 14 16  1  0  0  0  0
 11 12  1  0  0  0  0
 11 13  1  0  0  0  0
 11 14  1  0  0  0  0
  9 10  1  0  0  0  0
  9 11  1  0  0  0  0
  9 18  1  0  0  0  0
  7  8  1  0  0  0  0
  7  9  1  0  0  0  0
 22 23  1  0  0  0  0
 22 24  1  0  0  0  0
 22 25  1  0  0  0  0
 20 21  1  0  0  0  0
 20 22  1  0  0  0  0
M  END
$$$$
default_name
  -OEChem-01062215323D

 25 24  0     1  0  0  0  0  0999 V2000
   -2.7826   -3.8464    0.7821 H   0  0  0  0  0  0  0  0  0  0  0  0
   -2.8156   -2.8034    0.4711 C   0  0  0  0  0  0  0  0  0  0  0  0
   -3.4336   -2.2354    1.1641 H   0  0  0  0  0  0  0  0  0  0  0  0
   -3.2256   -2.7344   -0.5349 H   0  0  0  0  0  0  0  0  0  0  0  0
   -1.4126   -2.2444    0.4801 C   0  0  0  0  0  0  0  0  0  0  0  0
   -0.4686   -2.9534    0.8001 O   0  0  0  0  0  0  0  0  0  0  0  0
   -1.2736   -0.9704    0.1241 N   0  0  0  0  0  0  0  0  0  0  0  0
   -2.0996   -0.4354   -0.1019 H   0  0  0  0  0  0  0  0  0  0  0  0
   -0.0016   -0.2394    0.1271 C   0  0  1  0  0  0  0  0  0  0  0  0
    0.1139    0.2505    1.0964 H   0  0  0  0  0  0  0  0  0  0  0  0
    1.1599   -1.2338   -0.0691 C   0  0  0  0  0  0  0  0  0  0  0  0
    0.9524   -1.8686   -0.9313 H   0  0  0  0  0  0  0  0  0  0  0  0
    2.0817   -0.6867   -0.2698 H   0  0  0  0  0  0  0  0  0  0  0  0
    1.3750   -2.1589    1.1250 C   0  0  0  0  0  0  0  0  0  0  0  0
    1.1199   -1.8882    2.2911 O   0  0  0  0  0  0  0  0  0  0  0  0
    1.8990   -3.3609    0.8206 O   0  0  0  0  0  0  0  0  0  0  0  0
    1.9603   -3.8378    1.6488 H   0  0  0  0  0  0  0  0  0  0  0  0
   -0.0133    0.8483   -0.9655 C   0  0  0  0  0  0  0  0  0  0  0  0
    0.6305    1.8841   -0.8040 O   0  0  0  0  0  0  0  0  0  0  0  0
   -0.7427    0.6252   -2.0645 N   0  0  0  0  0  0  0  0  0  0  0  0
   -1.2955   -0.2254   -2.0933 H   0  0  0  0  0  0  0  0  0  0  0  0
   -0.8492    1.5545   -3.1872 C   0  0  0  0  0  0  0  0  0  0  0  0
    0.1492    1.8395   -3.5262 H   0  0  0  0  0  0  0  0  0  0  0  0
   -1.3890    1.0867   -4.0115 H   0  0  0  0  0  0  0  0  0  0  0  0
   -1.3806    2.4542   -2.8718 H   0  0  0  0  0  0  0  0  0  0  0  0
  5  6  2  0  0  0  0
  5  7  1  0  0  0  0
  2  3  1  0  0  0  0
  2  4  1  0  0  0  0
  2  5  1  0  0  0  0
  1  2  1  0  0  0  0
 18 19  2  0  0  0  0
 18 20  1  0  0  0  0
 16 17  1  0  0  0  0
 14 15  2  0  0  0  0
 14 16  1  0  0  0  0
 11 12  1  0  0  0  0
 11 13  1  0  0  0  0
 11 14  1  0  0  0  0
  9 10  1  0  0  0  0
  9 11  1  0  0  0  0
  9 18  1  0  0  0  0
  7  8  1  0  0  0  0
  7  9  1  0  0  0  0
 22 23  1  0  0  0  0
 22 24  1  0  0  0  0
 22 25  1  0  0  0  0
 20 21  1  0  0  0  0
 20 22  1  0  0  0  0
M  END
$$$$
default_name
  -OEChem-01062215323D

 25 24  0     1  0  0  0  0  0999 V2000
   -2.7826   -3.8464    0.7821 H   0  0  0  0  0  0  0  0  0  0  0  0
   -2.8156   -2.8034    0.4711 C   0  0  0  0  0  0  0  0  0  0  0  0
   -3.4336   -2.2354    1.1641 H   0  0  0  0  0  0  0  0  0  0  0  0
   -3.2256   -2.7344   -0.5349 H   0  0  0  0  0  0  0  0  0  0  0  0
   -1.4126   -2.2444    0.4801 C   0  0  0  0  0  0  0  0  0  0  0  0
   -0.4686   -2.9534    0.8001 O   0  0  0  0  0  0  0  0  0  0  0  0
   -1.2736   -0.9704    0.1241 N   0  0  0  0  0  0  0  0  0  0  0  0
   -2.0996   -0.4354   -0.1019 H   0  0  0  0  0  0  0  0  0  0  0  0
   -0.0016   -0.2394    0.1271 C   0  0  1  0  0  0  0  0  0  0  0  0
    0.1139    0.2505    1.0964 H   0  0  0  0  0  0  0  0  0  0  0  0
    1.1599   -1.2338   -0.0691 C   0  0  0  0  0  0  0  0  0  0  0  0
    0.9524   -1.8686   -0.9313 H   0  0  0  0  0  0  0  0  0  0  0  0
    2.0817   -0.6867   -0.2698 H   0  0  0  0  0  0  0  0  0  0  0  0
    1.3750   -2.1589    1.1250 C   0  0  0  0  0  0  0  0  0  0  0  0
    1.1199   -1.8882    2.2911 O   0  0  0  0  0  0  0  0  0  0  0  0
    1.8990   -3.3609    0.8206 O   0  0  0  0  0  0  0  0  0  0  0  0
    1.9603   -3.8378    1.6488 H   0  0  0  0  0  0  0  0  0  0  0  0
   -0.0133    0.8483   -0.9655 C   0  0  0  0  0  0  0  0  0  0  0  0
    0.8279    1.7458   -0.9439 O   0  0  0  0  0  0  0  0  0  0  0  0
   -0.9596    0.7795   -1.9085 N   0  0  0  0  0  0  0  0  0  0  0  0
   -1.6547    0.0454   -1.8199 H   0  0  0  0  0  0  0  0  0  0  0  0
   -1.0974    1.7294   -3.0104 C   0  0  0  0  0  0  0  0  0  0  0  0
   -0.1428    1.8313   -3.5312 H   0  0  0  0  0  0  0  0  0  0  0  0
   -1.8552    1.3811   -3.7134 H   0  0  0  0  0  0  0  0  0  0  0  0
   -1.3882    2.7064   -2.6206 H   0  0  0  0  0  0  0  0  0  0  0  0
  5  6  2  0  0  0  0
  5  7  1  0  0  0  0
  2  3  1  0  0  0  0
  2  4  1  0  0  0  0
  2  5  1  0  0  0  0
  1  2  1  0  0  0  0
 18 19  2  0  0  0  0
 18 20  1  0  0  0  0
 16 17  1  0  0  0  0
 14 15  2  0  0  0  0
 14 16  1  0  0  0  0
 11 12  1  0  0  0  0
 11 13  1  0  0  0  0
 11 14  1  0  0  0  0
  9 10  1  0  0  0  0
  9 11  1  0  0  0  0
  9 18  1  0  0  0  0
  7  8  1  0  0  0  0
  7  9  1  0  0  0  0
 22 23  1  0  0  0  0
 22 24  1  0  0  0  0
 22 25  1  0  0  0  0
 20 21  1  0  0  0  0
 20 22  1  0  0  0  0
M  END
$$$$
default_name
  -OEChem-01062215323D

 25 24  0     1  0  0  0  0  0999 V2000
   -2.7826   -3.8464    0.7821 H   0  0  0  0  0  0  0  0  0  0  0  0
   -2.8156   -2.8034    0.4711 C   0  0  0  0  0  0  0  0  0  0  0  0
   -3.4336   -2.2354    1.1641 H   0  0  0  0  0  0  0  0  0  0  0  0
   -3.2256   -2.7344   -0.5349 H   0  0  0  0  0  0  0  0  0  0  0  0
   -1.4126   -2.2444    0.4801 C   0  0  0  0  0  0  0  0  0  0  0  0
   -0.4686   -2.9534    0.8001 O   0  0  0  0  0  0  0  0  0  0  0  0
   -1.2736   -0.9704    0.1241 N   0  0  0  0  0  0  0  0  0  0  0  0
   -2.0996   -0.4354   -0.1019 H   0  0  0  0  0  0  0  0  0  0  0  0
   -0.0016   -0.2394    0.1271 C   0  0  1  0  0  0  0  0  0  0  0  0
    0.1139    0.2505    1.0964 H   0  0  0  0  0  0  0  0  0  0  0  0
    1.1599   -1.2338   -0.0691 C   0  0  0  0  0  0  0  0  0  0  0  0
    0.9524   -1.8686   -0.9313 H   0  0  0  0  0  0  0  0  0  0  0  0
    2.0817   -0.6867   -0.2698 H   0  0  0  0  0  0  0  0  0  0  0  0
    1.3750   -2.1589    1.1250 C   0  0  0  0  0  0  0  0  0  0  0  0
    1.1199   -1.8882    2.2911 O   0  0  0  0  0  0  0  0  0  0  0  0
    1.8990   -3.3609    0.8206 O   0  0  0  0  0  0  0  0  0  0  0  0
    1.9603   -3.8378    1.6488 H   0  0  0  0  0  0  0  0  0  0  0  0
   -0.0133    0.8483   -0.9655 C   0  0  0  0  0  0  0  0  0  0  0  0
    0.9676    1.5756   -1.1147 O   0  0  0  0  0  0  0  0  0  0  0  0
   -1.1124    0.9686   -1.7186 N   0  0  0  0  0  0  0  0  0  0  0  0
   -1.9021    0.3734   -1.4907 H   0  0  0  0  0  0  0  0  0  0  0  0
   -1.2729    1.9441   -2.7947 C   0  0  0  0  0  0  0  0  0  0  0  0
   -0.4273    1.8769   -3.4828 H   0  0  0  0  0  0  0  0  0  0  0  0
   -2.1971    1.7515   -3.3409 H   0  0  0  0  0  0  0  0  0  0  0  0
   -1.3035    2.9520   -2.3770 H   0  0  0  0  0  0  0  0  0  0  0  0
  5  6  2  0  0  0  0
  5  7  1  0  0  0  0
  2  3  1  0  0  0  0
  2  4  1  0  0  0  0
  2  5  1  0  0  0  0
  1  2  1  0  0  0  0
 18 19  2  0  0  0  0
 18 20  1  0  0  0  0
 16 17  1  0  0  0  0
 14 15  2  0  0  0  0
 14 16  1  0  0  0  0
 11 12  1  0  0  0  0
 11 13  1  0  0  0  0
 11 14  1  0  0  0  0
  9 10  1  0  0  0  0
  9 11  1  0  0  0  0
  9 18  1  0  0  0  0
  7  8  1  0  0  0  0
  7  9  1  0  0  0  0
 22 23  1  0  0  0  0
 22 24  1  0  0  0  0
 22 25  1  0  0  0  0
 20 21  1  0  0  0  0
 20 22  1  0  0  0  0
M  END
$$$$
default_name
  -OEChem-01062215323D

 25 24  0     1  0  0  0  0  0999 V2000
   -2.7826   -3.8464    0.7821 H   0  0  0  0  0  0  0  0  0  0  0  0
   -2.8156   -2.8034    0.4711 C   0  0  0  0  0  0  0  0  0  0  0  0
   -3.4336   -2.2354    1.1641 H   0  0  0  0  0  0  0  0  0  0  0  0
   -3.2256   -2.7344   -0.5349 H   0  0  0  0  0  0  0  0  0  0  0  0
   -1.4126   -2.2444    0.4801 C   0  0  0  0  0  0  0  0  0  0  0  0
   -0.4686   -2.9534    0.8001 O   0  0  0  0  0  0  0  0  0  0  0  0
   -1.2736   -0.9704    0.1241 N   0  0  0  0  0  0  0  0  0  0  0  0
   -2.0996   -0.4354   -0.1019 H   0  0  0  0  0  0  0  0  0  0  0  0
   -0.0016   -0.2394    0.1271 C   0  0  1  0  0  0  0  0  0  0  0  0
    0.1139    0.2505    1.0964 H   0  0  0  0  0  0  0  0  0  0  0  0
    1.1599   -1.2338   -0.0691 C   0  0  0  0  0  0  0  0  0  0  0  0
    0.9524   -1.8686   -0.9313 H   0  0  0  0  0  0  0  0  0  0  0  0
    2.0817   -0.6867   -0.2698 H   0  0  0  0  0  0  0  0  0  0  0  0
    1.3750   -2.1589    1.1250 C   0  0  0  0  0  0  0  0  0  0  0  0
    1.1199   -1.8882    2.2911 O   0  0  0  0  0  0  0  0  0  0  0  0
    1.8990   -3.3609    0.8206 O   0  0  0  0  0  0  0  0  0  0  0  0
    1.9603   -3.8378    1.6488 H   0  0  0  0  0  0  0  0  0  0  0  0
   -0.0133    0.8483   -0.9655 C   0  0  0  0  0  0  0  0  0  0  0  0
    1.0402    1.3854   -1.3050 O   0  0  0  0  0  0  0  0  0  0  0  0
   -1.1906    1.1797   -1.5076 N   0  0  0  0  0  0  0  0  0  0  0  0
   -2.0208    0.7362   -1.1282 H   0  0  0  0  0  0  0  0  0  0  0  0
   -1.3635    2.1842   -2.5548 C   0  0  0  0  0  0  0  0  0  0  0  0
   -0.6849    1.9733   -3.3841 H   0  0  0  0  0  0  0  0  0  0  0  0
   -2.3914    2.1728   -2.9194 H   0  0  0  0  0  0  0  0  0  0  0  0
   -1.1321    3.1741   -2.1577 H   0  0  0  0  0  0  0  0  0  0  0  0
  5  6  2  0  0  0  0
  5  7  1  0  0  0  0
  2  3  1  0  0  0  0
  2  4  1  0  0  0  0
  2  5  1  0  0  0  0
  1  2  1  0  0  0  0
 18 19  2  0  0  0  0
 18 20  1  0  0  0  0
 16 17  1  0  0  0  0
 14 15  2  0  0  0  0
 14 16  1  0  0  0  0
 11 12  1  0  0  0  0
 11 13  1  0  0  0  0
 11 14  1  0  0  0  0
  9 10  1  0  0  0  0
  9 11  1  0  0  0  0
  9 18  1  0  0  0  0
  7  8  1  0  0  0  0
  7  9  1  0  0  0  0
 22 23  1  0  0  0  0
 22 24  1  0  0  0  0
 22 25  1  0  0  0  0
 20 21  1  0  0  0  0
 20 22  1  0  0  0  0
M  END
$$$$
default_name
  -OEChem-01062215323D

 25 24  0     1  0  0  0  0  0999 V2000
   -2.7826   -3.8464    0.7821 H   0  0  0  0  0  0  0  0  0  0  0  0
   -2.8156   -2.8034    0.4711 C   0  0  0  0  0  0  0  0  0  0  0  0
   -3.4336   -2.2354    1.1641 H   0  0  0  0  0  0  0  0  0  0  0  0
   -3.2256   -2.7344   -0.5349 H   0  0  0  0  0  0  0  0  0  0  0  0
   -1.4126   -2.2444    0.4801 C   0  0  0  0  0  0  0  0  0  0  0  0
   -0.4686   -2.9534    0.8001 O   0  0  0  0  0  0  0  0  0  0  0  0
   -1.2736   -0.9704    0.1241 N   0  0  0  0  0  0  0  0  0  0  0  0
   -2.0996   -0.4354   -0.1019 H   0  0  0  0  0  0  0  0  0  0  0  0
   -0.0016   -0.2394    0.1271 C   0  0  1  0  0  0  0  0  0  0  0  0
    0.1139    0.2505    1.0964 H   0  0  0  0  0  0  0  0  0  0  0  0
    1.1599   -1.2338   -0.0691 C   0  0  0  0  0  0  0  0  0  0  0  0
    0.9524   -1.8686   -0.9313 H   0  0  0  0  0  0  0  0  0  0  0  0
    2.0817   -0.6867   -0.2698 H   0  0  0  0  0  0  0  0  0  0  0  0
    1.3750   -2.1589    1.1250 C   0  0  0  0  0  0  0  0  0  0  0  0
    1.1199   -1.8882    2.2911 O   0  0  0  0  0  0  0  0  0  0  0  0
    1.8990   -3.3609    0.8206 O   0  0  0  0  0  0  0  0  0  0  0  0
    1.9603   -3.8378    1.6488 H   0  0  0  0  0  0  0  0  0  0  0  0
   -0.0133    0.8483   -0.9655 C   0  0  0  0  0  0  0  0  0  0  0  0
    1.0406    1.1879   -1.5016 O   0  0  0  0  0  0  0  0  0  0  0  0
   -1.1888    1.3983   -1.2900 N   0  0  0  0  0  0  0  0  0  0  0  0
   -2.0027    1.1091   -0.7571 H   0  0  0  0  0  0  0  0  0  0  0  0
   -1.3632    2.4332   -2.3069 C   0  0  0  0  0  0  0  0  0  0  0  0
   -0.8980    2.1138   -3.2419 H   0  0  0  0  0  0  0  0  0  0  0  0
   -2.4249    2.6162   -2.4776 H   0  0  0  0  0  0  0  0  0  0  0  0
   -0.8857    3.3577   -1.9776 H   0  0  0  0  0  0  0  0  0  0  0  0
  5  6  2  0  0  0  0
  5  7  1  0  0  0  0
  2  3  1  0  0  0  0
  2  4  1  0  0  0  0
  2  5  1  0  0  0  0
  1  2  1  0  0  0  0
 18 19  2  0  0  0  0
 18 20  1  0  0  0  0
 16 17  1  0  0  0  0
 14 15  2  0  0  0  0
 14 16  1  0  0  0  0
 11 12  1  0  0  0  0
 11 13  1  0  0  0  0
 11 14  1  0  0  0  0
  9 10  1  0  0  0  0
  9 11  1  0  0  0  0
  9 18  1  0  0  0  0
  7  8  1  0  0  0  0
  7  9  1  0  0  0  0
 22 23  1  0  0  0  0
 22 24  1  0  0  0  0
 22 25  1  0  0  0  0
 20 21  1  0  0  0  0
 20 22  1  0  0  0  0
M  END
$$$$
default_name
  -OEChem-01062215323D

 25 24  0     1  0  0  0  0  0999 V2000
   -2.7826   -3.8464    0.7821 H   0  0  0  0  0  0  0  0  0  0  0  0
   -2.8156   -2.8034    0.4711 C   0  0  0  0  0  0  0  0  0  0  0  0
   -3.4336   -2.2354    1.1641 H   0  0  0  0  0  0  0  0  0  0  0  0
   -3.2256   -2.7344   -0.5349 H   0  0  0  0  0  0  0  0  0  0  0  0
   -1.4126   -2.2444    0.4801 C   0  0  0  0  0  0  0  0  0  0  0  0
   -0.4686   -2.9534    0.8001 O   0  0  0  0  0  0  0  0  0  0  0  0
   -1.2736   -0.9704    0.1241 N   0  0  0  0  0  0  0  0  0  0  0  0
   -2.0996   -0.4354   -0.1019 H   0  0  0  0  0  0  0  0  0  0  0  0
   -0.0016   -0.2394    0.1271 C   0  0  1  0  0  0  0  0  0  0  0  0
    0.1139    0.2505    1.0964 H   0  0  0  0  0  0  0  0  0  0  0  0
    1.1599   -1.2338   -0.0691 C   0  0  0  0  0  0  0  0  0  0  0  0
    0.9524   -1.8686   -0.9313 H   0  0  0  0  0  0  0  0  0  0  0  0
    2.0817   -0.6867   -0.2698 H   0  0  0  0  0  0  0  0  0  0  0  0
    1.3750   -2.1589    1.1250 C   0  0  0  0  0  0  0  0  0  0  0  0
    1.1199   -1.8882    2.2911 O   0  0  0  0  0  0  0  0  0  0  0  0
    1.8990   -3.3609    0.8206 O   0  0  0  0  0  0  0  0  0  0  0  0
    1.9603   -3.8378    1.6488 H   0  0  0  0  0  0  0  0  0  0  0  0
   -0.0133    0.8483   -0.9655 C   0  0  0  0  0  0  0  0  0  0  0  0
    0.9689    0.9966   -1.6912 O   0  0  0  0  0  0  0  0  0  0  0  0
   -1.1073    1.6096   -1.0805 N   0  0  0  0  0  0  0  0  0  0  0  0
   -1.8490    1.4667   -0.4027 H   0  0  0  0  0  0  0  0  0  0  0  0
   -1.2721    2.6741   -2.0680 C   0  0  0  0  0  0  0  0  0  0  0  0
   -1.0521    2.2888   -3.0660 H   0  0  0  0  0  0  0  0  0  0  0  0
   -2.2952    3.0514   -2.0456 H   0  0  0  0  0  0  0  0  0  0  0  0
   -0.5812    3.4902   -1.8489 H   0  0  0  0  0  0  0  0  0  0  0  0
  5  6  2  0  0  0  0
  5  7  1  0  0  0  0
  2  3  1  0  0  0  0
  2  4  1  0  0  0  0
  2  5  1  0  0  0  0
  1  2  1  0  0  0  0
 18 19  2  0  0  0  0
 18 20  1  0  0  0  0
 16 17  1  0  0  0  0
 14 15  2  0  0  0  0
 14 16  1  0  0  0  0
 11 12  1  0  0  0  0
 11 13  1  0  0  0  0
 11 14  1  0  0  0  0
  9 10  1  0  0  0  0
  9 11  1  0  0  0  0
  9 18  1  0  0  0  0
  7  8  1  0  0  0  0
  7  9  1  0  0  0  0
 22 23  1  0  0  0  0
 22 24  1  0  0  0  0
 22 25  1  0  0  0  0
 20 21  1  0  0  0  0
 20 22  1  0  0  0  0
M  END
$$$$
default_name
  -OEChem-01062215323D

 25 24  0     1  0  0  0  0  0999 V2000
   -2.7826   -3.8464    0.7821 H   0  0  0  0  0  0  0  0  0  0  0  0
   -2.8156   -2.8034    0.4711 C   0  0  0  0  0  0  0  0  0  0  0  0
   -3.4336   -2.2354    1.1641 H   0  0  0  0  0  0  0  0  0  0  0  0
   -3.2256   -2.7344   -0.5349 H   0  0  0  0  0  0  0  0  0  0  0  0
   -1.4126   -2.2444    0.4801 C   0  0  0  0  0  0  0  0  0  0  0  0
   -0.4686   -2.9534    0.8001 O   0  0  0  0  0  0  0  0  0  0  0  0
   -1.2736   -0.9704    0.1241 N   0  0  0  0  0  0  0  0  0  0  0  0
   -2.0996   -0.4354   -0.1019 H   0  0  0  0  0  0  0  0  0  0  0  0
   -0.0016   -0.2394    0.1271 C   0  0  1  0  0  0  0  0  0  0  0  0
    0.1139    0.2505    1.0964 H   0  0  0  0  0  0  0  0  0  0  0  0
    1.1599   -1.2338   -0.0691 C   0  0  0  0  0  0  0  0  0  0  0  0
    0.9524   -1.8686   -0.9313 H   0  0  0  0  0  0  0  0  0  0  0  0
    2.0817   -0.6867   -0.2698 H   0  0  0  0  0  0  0  0  0  0  0  0
    1.3750   -2.1589    1.1250 C   0  0  0  0  0  0  0  0  0  0  0  0
    1.1199   -1.8882    2.2911 O   0  0  0  0  0  0  0  0  0  0  0  0
    1.8990   -3.3609    0.8206 O   0  0  0  0  0  0  0  0  0  0  0  0
    1.9603   -3.8378    1.6488 H   0  0  0  0  0  0  0  0  0  0  0  0
   -0.0133    0.8483   -0.9655 C   0  0  0  0  0  0  0  0  0  0  0  0
    0.8300    0.8247   -1.8609 O   0  0  0  0  0  0  0  0  0  0  0  0
   -0.9516    1.7991   -0.8934 N   0  0  0  0  0  0  0  0  0  0  0  0
   -1.5703    1.7847   -0.0891 H   0  0  0  0  0  0  0  0  0  0  0  0
   -1.0962    2.8906   -1.8543 C   0  0  0  0  0  0  0  0  0  0  0  0
   -1.1367    2.4865   -2.8682 H   0  0  0  0  0  0  0  0  0  0  0  0
   -2.0112    3.4490   -1.6529 H   0  0  0  0  0  0  0  0  0  0  0  0
   -0.2393    3.5625   -1.7805 H   0  0  0  0  0  0  0  0  0  0  0  0
  5  6  2  0  0  0  0
  5  7  1  0  0  0  0
  2  3  1  0  0  0  0
  2  4  1  0  0  0  0
  2  5  1  0  0  0  0
  1  2  1  0  0  0  0
 18 19  2  0  0  0  0
 18 20  1  0  0  0  0
 16 17  1  0  0  0  0
 14 15  2  0  0  0  0
 14 16  1  0  0  0  0
 11 12  1  0  0  0  0
 11 13  1  0  0  0  0
 11 14  1  0  0  0  0
  9 10  1  0  0  0  0
  9 11  1  0  0  0  0
  9 18  1  0  0  0  0
  7  8  1  0  0  0  0
  7  9  1  0  0  0  0
 22 23  1  0  0  0  0
 22 24  1  0  0  0  0
 22 25  1  0  0  0  0
 20 21  1  0  0  0  0
 20 22  1  0  0  0  0
M  END
$$$$
default_name
  -OEChem-01062215323D

 25 24  0     1  0  0  0  0  0999 V2000
   -2.7826   -3.8464    0.7821 H   0  0  0  0  0  0  0  0  0  0  0  0
   -2.8156   -2.8034    0.4711 C   0  0  0  0  0  0  0  0  0  0  0  0
   -3.4336   -2.2354    1.1641 H   0  0  0  0  0  0  0  0  0  0  0  0
   -3.2256   -2.7344   -0.5349 H   0  0  0  0  0  0  0  0  0  0  0  0
   -1.4126   -2.2444    0.4801 C   0  0  0  0  0  0  0  0  0  0  0  0
   -0.4686   -2.9534    0.8001 O   0  0  0  0  0  0  0  0  0  0  0  0
   -1.2736   -0.9704    0.1241 N   0  0  0  0  0  0  0  0  0  0  0  0
   -2.0996   -0.4354   -0.1019 H   0  0  0  0  0  0  0  0  0  0  0  0
   -0.0016   -0.2394    0.1271 C   0  0  1  0  0  0  0  0  0  0  0  0
    0.1139    0.2505    1.0964 H   0  0  0  0  0  0  0  0  0  0  0  0
    1.1599   -1.2338   -0.0691 C   0  0  0  0  0  0  0  0  0  0  0  0
    0.9524   -1.8686   -0.9313 H   0  0  0  0  0  0  0  0  0  0  0  0
    2.0817   -0.6867   -0.2698 H   0  0  0  0  0  0  0  0  0  0  0  0
    1.3750   -2.1589    1.1250 C   0  0  0  0  0  0  0  0  0  0  0  0
    1.1199   -1.8882    2.2911 O   0  0  0  0  0  0  0  0  0  0  0  0
    1.8990   -3.3609    0.8206 O   0  0  0  0  0  0  0  0  0  0  0  0
    1.9603   -3.8378    1.6488 H   0  0  0  0  0  0  0  0  0  0  0  0
   -0.0133    0.8483   -0.9655 C   0  0  0  0  0  0  0  0  0  0  0  0
    0.6332    0.6838   -1.9991 O   0  0  0  0  0  0  0  0  0  0  0  0
   -0.7322    1.9540   -0.7415 N   0  0  0  0  0  0  0  0  0  0  0  0
   -1.1855    2.0413    0.1622 H   0  0  0  0  0  0  0  0  0  0  0  0
   -0.8475    3.0678   -1.6805 C   0  0  0  0  0  0  0  0  0  0  0  0
   -1.1461    2.6934   -2.6622 H   0  0  0  0  0  0  0  0  0  0  0  0
   -1.5923    3.7816   -1.3262 H   0  0  0  0  0  0  0  0  0  0  0  0
    0.1167    3.5699   -1.7771 H   0  0  0  0  0  0  0  0  0  0  0  0
  5  6  2  0  0  0  0
  5  7  1  0  0  0  0
  2  3  1  0  0  0  0
  2  4  1  0  0  0  0
  2  5  1  0  0  0  0
  1  2  1  0  0  0  0
 18 19  2  0  0  0  0
 18 20  1  0  0  0  0
 16 17  1  0  0  0  0
 14 15  2  0  0  0  0
 14 16  1  0  0  0  0
 11 12  1  0  0  0  0
 11 13  1  0  0  0  0
 11 14  1  0  0  0  0
  9 10  1  0  0  0  0
  9 11  1  0  0  0  0
  9 18  1  0  0  0  0
  7  8  1  0  0  0  0
  7  9  1  0  0  0  0
 22 23  1  0  0  0  0
 22 24  1  0  0  0  0
 22 25  1  0  0  0  0
 20 21  1  0  0  0  0
 20 22  1  0  0  0  0
M  END
$$$$
default_name
  -OEChem-01062215323D

 25 24  0     1  0  0  0  0  0999 V2000
   -2.7826   -3.8464    0.7821 H   0  0  0  0  0  0  0  0  0  0  0  0
   -2.8156   -2.8034    0.4711 C   0  0  0  0  0  0  0  0  0  0  0  0
   -3.4336   -2.2354    1.1641 H   0  0  0  0  0  0  0  0  0  0  0  0
   -3.2256   -2.7344   -0.5349 H   0  0  0  0  0  0  0  0  0  0  0  0
   -1.4126   -2.2444    0.4801 C   0  0  0  0  0  0  0  0  0  0  0  0
   -0.4686   -2.9534    0.8001 O   0  0  0  0  0  0  0  0  0  0  0  0
   -1.2736   -0.9704    0.1241 N   0  0  0  0  0  0  0  0  0  0  0  0
   -2.0996   -0.4354   -0.1019 H   0  0  0  0  0  0  0  0  0  0  0  0
   -0.0016   -0.2394    0.1271 C   0  0  1  0  0  0  0  0  0  0  0  0
    0.1139    0.2505    1.0964 H   0  0  0  0  0  0  0  0  0  0  0  0
    1.1599   -1.2338   -0.0691 C   0  0  0  0  0  0  0  0  0  0  0  0
    0.9524   -1.8686   -0.9313 H   0  0  0  0  0  0  0  0  0  0  0  0
    2.0817   -0.6867   -0.2698 H   0  0  0  0  0  0  0  0  0  0  0  0
    1.3750   -2.1589    1.1250 C   0  0  0  0  0  0  0  0  0  0  0  0
    1.1199   -1.8882    2.2911 O   0  0  0  0  0  0  0  0  0  0  0  0
    1.8990   -3.3609    0.8206 O   0  0  0  0  0  0  0  0  0  0  0  0
    1.9603   -3.8378    1.6488 H   0  0  0  0  0  0  0  0  0  0  0  0
   -0.0133    0.8483   -0.9655 C   0  0  0  0  0  0  0  0  0  0  0  0
    0.3921    0.5835   -2.0964 O   0  0  0  0  0  0  0  0  0  0  0  0
   -0.4642    2.0637   -0.6352 N   0  0  0  0  0  0  0  0  0  0  0  0
   -0.7209    2.2191    0.3343 H   0  0  0  0  0  0  0  0  0  0  0  0
   -0.5432    3.1938   -1.5584 C   0  0  0  0  0  0  0  0  0  0  0  0
   -1.0795    2.8954   -2.4618 H   0  0  0  0  0  0  0  0  0  0  0  0
   -1.0670    4.0267   -1.0877 H   0  0  0  0  0  0  0  0  0  0  0  0
    0.4626    3.5116   -1.8387 H   0  0  0  0  0  0  0  0  0  0  0  0
  5  6  2  0  0  0  0
  5  7  1  0  0  0  0
  2  3  1  0  0  0  0
  2  4  1  0  0  0  0
  2  5  1  0  0  0  0
  1  2  1  0  0  0  0
 18 19  2  0  0  0  0
 18 20  1  0  0  0  0
 16 17  1  0  0  0  0
 14 15  2  0  0  0  0
 14 16  1  0  0  0  0
 11 12  1  0  0  0  0
 11 13  1  0  0  0  0
 11 14  1  0  0  0  0
  9 10  1  0  0  0  0
  9 11  1  0  0  0  0
  9 18  1  0  0  0  0
  7  8  1  0  0  0  0
  7  9  1  0  0  0  0
 22 23  1  0  0  0  0
 22 24  1  0  0  0  0
 22 25  1  0  0  0  0
 20 21  1  0  0  0  0
 20 22  1  0  0  0  0
M  END
$$$$
default_name
  -OEChem-01062215323D

 25 24  0     1  0  0  0  0  0999 V2000
   -2.7826   -3.8464    0.7821 H   0  0  0  0  0  0  0  0  0  0  0  0
   -2.8156   -2.8034    0.4711 C   0  0  0  0  0  0  0  0  0  0  0  0
   -3.4336   -2.2354    1.1641 H   0  0  0  0  0  0  0  0  0  0  0  0
   -3.2256   -2.7344   -0.5349 H   0  0  0  0  0  0  0  0  0  0  0  0
   -1.4126   -2.2444    0.4801 C   0  0  0  0  0  0  0  0  0  0  0  0
   -0.4686   -2.9534    0.8001 O   0  0  0  0  0  0  0  0  0  0  0  0
   -1.2736   -0.9704    0.1241 N   0  0  0  0  0  0  0  0  0  0  0  0
   -2.0996   -0.4354   -0.1019 H   0  0  0  0  0  0  0  0  0  0  0  0
   -0.0016   -0.2394    0.1271 C   0  0  1  0  0  0  0  0  0  0  0  0
    0.1139    0.2505    1.0964 H   0  0  0  0  0  0  0  0  0  0  0  0
    1.1599   -1.2338   -0.0691 C   0  0  0  0  0  0  0  0  0  0  0  0
    0.9524   -1.8686   -0.9313 H   0  0  0  0  0  0  0  0  0  0  0  0
    2.0817   -0.6867   -0.2698 H   0  0  0  0  0  0  0  0  0  0  0  0
    1.3750   -2.1589    1.1250 C   0  0  0  0  0  0  0  0  0  0  0  0
    1.1199   -1.8882    2.2911 O   0  0  0  0  0  0  0  0  0  0  0  0
    1.8990   -3.3609    0.8206 O   0  0  0  0  0  0  0  0  0  0  0  0
    1.9603   -3.8378    1.6488 H   0  0  0  0  0  0  0  0  0  0  0  0
   -0.0133    0.8483   -0.9655 C   0  0  0  0  0  0  0  0  0  0  0  0
    0.1231    0.5306   -2.1461 O   0  0  0  0  0  0  0  0  0  0  0  0
   -0.1658    2.1207   -0.5817 N   0  0  0  0  0  0  0  0  0  0  0  0
   -0.2080    2.3059    0.4152 H   0  0  0  0  0  0  0  0  0  0  0  0
   -0.2037    3.2598   -1.4963 C   0  0  0  0  0  0  0  0  0  0  0  0
   -0.9416    3.0786   -2.2808 H   0  0  0  0  0  0  0  0  0  0  0  0
   -0.4710    4.1676   -0.9539 H   0  0  0  0  0  0  0  0  0  0  0  0
    0.7747    3.3919   -1.9613 H   0  0  0  0  0  0  0  0  0  0  0  0
  5  6  2  0  0  0  0
  5  7  1  0  0  0  0
  2  3  1  0  0  0  0
  2  4  1  0  0  0  0
  2  5  1  0  0  0  0
  1  2  1  0  0  0  0
 18 19  2  0  0  0  0
 18 20  1  0  0  0  0
 16 17  1  0  0  0  0
 14 15  2  0  0  0  0
 14 16  1  0  0  0  0
 11 12  1  0  0  0  0
 11 13  1  0  0  0  0
 11 14  1  0  0  0  0
  9 10  1  0  0  0  0
  9 11  1  0  0  0  0
  9 18  1  0  0  0  0
  7  8  1  0  0  0  0
  7  9  1  0  0  0  0
 22 23  1  0  0  0  0
 22 24  1  0  0  0  0
 22 25  1  0  0  0  0
 20 21  1  0  0  0  0
 20 22  1  0  0  0  0
M  END
$$$$
default_name
  -OEChem-01062215323D

 25 24  0     1  0  0  0  0  0999 V2000
   -2.7826   -3.8464    0.7821 H   0  0  0  0  0  0  0  0  0  0  0  0
   -2.8156   -2.8034    0.4711 C   0  0  0  0  0  0  0  0  0  0  0  0
   -3.4336   -2.2354    1.1641 H   0  0  0  0  0  0  0  0  0  0  0  0
   -3.2256   -2.7344   -0.5349 H   0  0  0  0  0  0  0  0  0  0  0  0
   -1.4126   -2.2444    0.4801 C   0  0  0  0  0  0  0  0  0  0  0  0
   -0.4686   -2.9534    0.8001 O   0  0  0  0  0  0  0  0  0  0  0  0
   -1.2736   -0.9704    0.1241 N   0  0  0  0  0  0  0  0  0  0  0  0
   -2.0996   -0.4354   -0.1019 H   0  0  0  0  0  0  0  0  0  0  0  0
   -0.0016   -0.2394    0.1271 C   0  0  1  0  0  0  0  0  0  0  0  0
    0.1139    0.2505    1.0964 H   0  0  0  0  0  0  0  0  0  0  0  0
    1.1599   -1.2338   -0.0691 C   0  0  0  0  0  0  0  0  0  0  0  0
    0.9524   -1.8686   -0.9313 H   0  0  0  0  0  0  0  0  0  0  0  0
    2.0817   -0.6867   -0.2698 H   0  0  0  0  0  0  0  0  0  0  0  0
    1.3750   -2.1589    1.1250 C   0  0  0  0  0  0  0  0  0  0  0  0
    1.1199   -1.8882    2.2911 O   0  0  0  0  0  0  0  0  0  0  0  0
    1.8990   -3.3609    0.8206 O   0  0  0  0  0  0  0  0  0  0  0  0
    1.9603   -3.8378    1.6488 H   0  0  0  0  0  0  0  0  0  0  0  0
   -0.0133    0.8483   -0.9655 C   0  0  0  0  0  0  0  0  0  0  0  0
   -0.1556    0.5288   -2.1450 O   0  0  0  0  0  0  0  0  0  0  0  0
    0.1427    2.1212   -0.5845 N   0  0  0  0  0  0  0  0  0  0  0  0
    0.3180    2.2959    0.3996 H   0  0  0  0  0  0  0  0  0  0  0  0
    0.1476    3.2615   -1.4983 C   0  0  0  0  0  0  0  0  0  0  0  0
   -0.7418    3.2307   -2.1315 H   0  0  0  0  0  0  0  0  0  0  0  0
    0.1549    4.1947   -0.9336 H   0  0  0  0  0  0  0  0  0  0  0  0
    1.0319    3.2187   -2.1365 H   0  0  0  0  0  0  0  0  0  0  0  0
  5  6  2  0  0  0  0
  5  7  1  0  0  0  0
  2  3  1  0  0  0  0
  2  4  1  0  0  0  0
  2  5  1  0  0  0  0
  1  2  1  0  0  0  0
 18 19  2  0  0  0  0
 18 20  1  0  0  0  0
 16 17  1  0  0  0  0
 14 15  2  0  0  0  0
 14 16  1  0  0  0  0
 11 12  1  0  0  0  0
 11 13  1  0  0  0  0
 11 14  1  0  0  0  0
  9 10  1  0  0  0  0
  9 11  1  0  0  0  0
  9 18  1  0  0  0  0
  7  8  1  0  0  0  0
  7  9  1  0  0  0  0
 22 23  1  0  0  0  0
 22 24  1  0  0  0  0
 22 25  1  0  0  0  0
 20 21  1  0  0  0  0
 20 22  1  0  0  0  0
M  END
$$$$
default_name
  -OEChem-01062215323D

 25 24  0     1  0  0  0  0  0999 V2000
   -2.7826   -3.8464    0.7821 H   0  0  0  0  0  0  0  0  0  0  0  0
   -2.8156   -2.8034    0.4711 C   0  0  0  0  0  0  0  0  0  0  0  0
   -3.4336   -2.2354    1.1641 H   0  0  0  0  0  0  0  0  0  0  0  0
   -3.2256   -2.7344   -0.5349 H   0  0  0  0  0  0  0  0  0  0  0  0
   -1.4126   -2.2444    0.4801 C   0  0  0  0  0  0  0  0  0  0  0  0
   -0.4686   -2.9534    0.8001 O   0  0  0  0  0  0  0  0  0  0  0  0
   -1.2736   -0.9704    0.1241 N   0  0  0  0  0  0  0  0  0  0  0  0
   -2.0996   -0.4354   -0.1019 H   0  0  0  0  0  0  0  0  0  0  0  0
   -0.0016   -0.2394    0.1271 C   0  0  1  0  0  0  0  0  0  0  0  0
    0.1139    0.2505    1.0964 H   0  0  0  0  0  0  0  0  0  0  0  0
    1.1599   -1.2338   -0.0691 C   0  0  0  0  0  0  0  0  0  0  0  0
    0.9524   -1.8686   -0.9313 H   0  0  0  0  0  0  0  0  0  0  0  0
    2.0817   -0.6867   -0.2698 H   0  0  0  0  0  0  0  0  0  0  0  0
    1.3750   -2.1589    1.1250 C   0  0  0  0  0  0  0  0  0  0  0  0
    1.1199   -1.8882    2.2911 O   0  0  0  0  0  0  0  0  0  0  0  0
    1.8990   -3.3609    0.8206 O   0  0  0  0  0  0  0  0  0  0  0  0
    1.9603   -3.8378    1.6488 H   0  0  0  0  0  0  0  0  0  0  0  0
   -0.0133    0.8483   -0.9655 C   0  0  0  0  0  0  0  0  0  0  0  0
   -0.4249    0.5782   -2.0929 O   0  0  0  0  0  0  0  0  0  0  0  0
    0.4402    2.0650   -0.6436 N   0  0  0  0  0  0  0  0  0  0  0  0
    0.8215    2.1897    0.2885 H   0  0  0  0  0  0  0  0  0  0  0  0
    0.4869    3.1987   -1.5645 C   0  0  0  0  0  0  0  0  0  0  0  0
   -0.4936    3.3413   -2.0241 H   0  0  0  0  0  0  0  0  0  0  0  0
    0.7681    4.1060   -1.0284 H   0  0  0  0  0  0  0  0  0  0  0  0
    1.2165    3.0038   -2.3524 H   0  0  0  0  0  0  0  0  0  0  0  0
  5  6  2  0  0  0  0
  5  7  1  0  0  0  0
  2  3  1  0  0  0  0
  2  4  1  0  0  0  0
  2  5  1  0  0  0  0
  1  2  1  0  0  0  0
 18 19  2  0  0  0  0
 18 20  1  0  0  0  0
 16 17  1  0  0  0  0
 14 15  2  0  0  0  0
 14 16  1  0  0  0  0
 11 12  1  0  0  0  0
 11 13  1  0  0  0  0
 11 14  1  0  0  0  0
  9 10  1  0  0  0  0
  9 11  1  0  0  0  0
  9 18  1  0  0  0  0
  7  8  1  0  0  0  0
  7  9  1  0  0  0  0
 22 23  1  0  0  0  0
 22 24  1  0  0  0  0
 22 25  1  0  0  0  0
 20 21  1  0  0  0  0
 20 22  1  0  0  0  0
M  END
$$$$
default_name
  -OEChem-01062215323D

 25 24  0     1  0  0  0  0  0999 V2000
   -2.7826   -3.8464    0.7821 H   0  0  0  0  0  0  0  0  0  0  0  0
   -2.8156   -2.8034    0.4711 C   0  0  0  0  0  0  0  0  0  0  0  0
   -3.4336   -2.2354    1.1641 H   0  0  0  0  0  0  0  0  0  0  0  0
   -3.2256   -2.7344   -0.5349 H   0  0  0  0  0  0  0  0  0  0  0  0
   -1.4126   -2.2444    0.4801 C   0  0  0  0  0  0  0  0  0  0  0  0
   -0.4686   -2.9534    0.8001 O   0  0  0  0  0  0  0  0  0  0  0  0
   -1.2736   -0.9704    0.1241 N   0  0  0  0  0  0  0  0  0  0  0  0
   -2.0996   -0.4354   -0.1019 H   0  0  0  0  0  0  0  0  0  0  0  0
   -0.0016   -0.2394    0.1271 C   0  0  1  0  0  0  0  0  0  0  0  0
    0.1139    0.2505    1.0964 H   0  0  0  0  0  0  0  0  0  0  0  0
    1.1599   -1.2338   -0.0691 C   0  0  0  0  0  0  0  0  0  0  0  0
    0.9524   -1.8686   -0.9313 H   0  0  0  0  0  0  0  0  0  0  0  0
    2.0817   -0.6867   -0.2698 H   0  0  0  0  0  0  0  0  0  0  0  0
    1.3750   -2.1589    1.1250 C   0  0  0  0  0  0  0  0  0  0  0  0
    1.1199   -1.8882    2.2911 O   0  0  0  0  0  0  0  0  0  0  0  0
    1.8990   -3.3609    0.8206 O   0  0  0  0  0  0  0  0  0  0  0  0
    1.9603   -3.8378    1.6488 H   0  0  0  0  0  0  0  0  0  0  0  0
   -0.0133    0.8483   -0.9655 C   0  0  0  0  0  0  0  0  0  0  0  0
   -0.6665    0.6753   -1.9936 O   0  0  0  0  0  0  0  0  0  0  0  0
    0.7065    1.9561   -0.7550 N   0  0  0  0  0  0  0  0  0  0  0  0
    1.2681    1.9946    0.0895 H   0  0  0  0  0  0  0  0  0  0  0  0
    0.7910    3.0757   -1.6902 C   0  0  0  0  0  0  0  0  0  0  0  0
   -0.2140    3.4027   -1.9659 H   0  0  0  0  0  0  0  0  0  0  0  0
    1.3269    3.9078   -1.2318 H   0  0  0  0  0  0  0  0  0  0  0  0
    1.3161    2.7621   -2.5942 H   0  0  0  0  0  0  0  0  0  0  0  0
  5  6  2  0  0  0  0
  5  7  1  0  0  0  0
  2  3  1  0  0  0  0
  2  4  1  0  0  0  0
  2  5  1  0  0  0  0
  1  2  1  0  0  0  0
 18 19  2  0  0  0  0
 18 20  1  0  0  0  0
 16 17  1  0  0  0  0
 14 15  2  0  0  0  0
 14 16  1  0  0  0  0
 11 12  1  0  0  0  0
 11 13  1  0  0  0  0
 11 14  1  0  0  0  0
  9 10  1  0  0  0  0
  9 11  1  0  0  0  0
  9 18  1  0  0  0  0
  7  8  1  0  0  0  0
  7  9  1  0  0  0  0
 22 23  1  0  0  0  0
 22 24  1  0  0  0  0
 22 25  1  0  0  0  0
 20 21  1  0  0  0  0
 20 22  1  0  0  0  0
M  END
$$$$
default_name
  -OEChem-01062215323D

 25 24  0     1  0  0  0  0  0999 V2000
   -2.7826   -3.8464    0.7821 H   0  0  0  0  0  0  0  0  0  0  0  0
   -2.8156   -2.8034    0.4711 C   0  0  0  0  0  0  0  0  0  0  0  0
   -3.4336   -2.2354    1.1641 H   0  0  0  0  0  0  0  0  0  0  0  0
   -3.2256   -2.7344   -0.5349 H   0  0  0  0  0  0  0  0  0  0  0  0
   -1.4126   -2.2444    0.4801 C   0  0  0  0  0  0  0  0  0  0  0  0
   -0.4686   -2.9534    0.8001 O   0  0  0  0  0  0  0  0  0  0  0  0
   -1.2736   -0.9704    0.1241 N   0  0  0  0  0  0  0  0  0  0  0  0
   -2.0996   -0.4354   -0.1019 H   0  0  0  0  0  0  0  0  0  0  0  0
   -0.0016   -0.2394    0.1271 C   0  0  1  0  0  0  0  0  0  0  0  0
    0.1139    0.2505    1.0964 H   0  0  0  0  0  0  0  0  0  0  0  0
    1.1599   -1.2338   -0.0691 C   0  0  0  0  0  0  0  0  0  0  0  0
    0.9524   -1.8686   -0.9313 H   0  0  0  0  0  0  0  0  0  0  0  0
    2.0817   -0.6867   -0.2698 H   0  0  0  0  0  0  0  0  0  0  0  0
    1.3750   -2.1589    1.1250 C   0  0  0  0  0  0  0  0  0  0  0  0
    1.1199   -1.8882    2.2911 O   0  0  0  0  0  0  0  0  0  0  0  0
    1.8990   -3.3609    0.8206 O   0  0  0  0  0  0  0  0  0  0  0  0
    1.9603   -3.8378    1.6488 H   0  0  0  0  0  0  0  0  0  0  0  0
   -0.0133    0.8483   -0.9655 C   0  0  0  0  0  0  0  0  0  0  0  0
   -0.8638    0.8137   -1.8537 O   0  0  0  0  0  0  0  0  0  0  0  0
    0.9234    1.8018   -0.9109 N   0  0  0  0  0  0  0  0  0  0  0  0
    1.6273    1.7238   -0.1840 H   0  0  0  0  0  0  0  0  0  0  0  0
    1.0392    2.9008   -1.8670 C   0  0  0  0  0  0  0  0  0  0  0  0
    0.0780    3.4109   -1.9609 H   0  0  0  0  0  0  0  0  0  0  0  0
    1.7931    3.6134   -1.5299 H   0  0  0  0  0  0  0  0  0  0  0  0
    1.3237    2.5098   -2.8454 H   0  0  0  0  0  0  0  0  0  0  0  0
  5  6  2  0  0  0  0
  5  7  1  0  0  0  0
  2  3  1  0  0  0  0
  2  4  1  0  0  0  0
  2  5  1  0  0  0  0
  1  2  1  0  0  0  0
 18 19  2  0  0  0  0
 18 20  1  0  0  0  0
 16 17  1  0  0  0  0
 14 15  2  0  0  0  0
 14 16  1  0  0  0  0
 11 12  1  0  0  0  0
 11 13  1  0  0  0  0
 11 14  1  0  0  0  0
  9 10  1  0  0  0  0
  9 11  1  0  0  0  0
  9 18  1  0  0  0  0
  7  8  1  0  0  0  0
  7  9  1  0  0  0  0
 22 23  1  0  0  0  0
 22 24  1  0  0  0  0
 22 25  1  0  0  0  0
 20 21  1  0  0  0  0
 20 22  1  0  0  0  0
M  END
$$$$
default_name
  -OEChem-01062215323D

 25 24  0     1  0  0  0  0  0999 V2000
   -2.7826   -3.8464    0.7821 H   0  0  0  0  0  0  0  0  0  0  0  0
   -2.8156   -2.8034    0.4711 C   0  0  0  0  0  0  0  0  0  0  0  0
   -3.4336   -2.2354    1.1641 H   0  0  0  0  0  0  0  0  0  0  0  0
   -3.2256   -2.7344   -0.5349 H   0  0  0  0  0  0  0  0  0  0  0  0
   -1.4126   -2.2444    0.4801 C   0  0  0  0  0  0  0  0  0  0  0  0
   -0.4686   -2.9534    0.8001 O   0  0  0  0  0  0  0  0  0  0  0  0
   -1.2736   -0.9704    0.1241 N   0  0  0  0  0  0  0  0  0  0  0  0
   -2.0996   -0.4354   -0.1019 H   0  0  0  0  0  0  0  0  0  0  0  0
   -0.0016   -0.2394    0.1271 C   0  0  1  0  0  0  0  0  0  0  0  0
    0.2449    0.0222    1.1585 H   0  0  0  0  0  0  0  0  0  0  0  0
    1.1106   -1.1466   -0.4352 C   0  0  0  0  0  0  0  0  0  0  0  0
    0.7847   -1.5749   -1.3839 H   0  0  0  0  0  0  0  0  0  0  0  0
    2.0065   -0.5544   -0.6252 H   0  0  0  0  0  0  0  0  0  0  0  0
    1.4649   -2.3126    0.4827 C   0  0  0  0  0  0  0  0  0  0  0  0
    1.3662   -2.3144    1.7028 O   0  0  0  0  0  0  0  0  0  0  0  0
    1.9281   -3.4075   -0.1486 O   0  0  0  0  0  0  0  0  0  0  0  0
    2.0890   -4.0571    0.5365 H   0  0  0  0  0  0  0  0  0  0  0  0
   -0.1388    1.0654   -0.6826 C   0  0  0  0  0  0  0  0  0  0  0  0
   -1.2112    1.3433   -1.2175 O   0  0  0  0  0  0  0  0  0  0  0  0
    0.9349    1.8571   -0.7822 N   0  0  0  0  0  0  0  0  0  0  0  0
    1.7994    1.5262   -0.3661 H   0  0  0  0  0  0  0  0  0  0  0  0
    0.9607    3.1255   -1.5076 C   0  0  0  0  0  0  0  0  0  0  0  0
    0.1349    3.7579   -1.1745 H   0  0  0  0  0  0  0  0  0  0  0  0
    1.9045    3.6417   -1.3271 H   0  0  0  0  0  0  0  0  0  0  0  0
    0.8491    2.9406   -2.5774 H   0  0  0  0  0  0  0  0  0  0  0  0
  5  6  2  0  0  0  0
  5  7  1  0  0  0  0
  2  3  1  0  0  0  0
  2  4  1  0  0  0  0
  2  5  1  0  0  0  0
  1  2  1  0  0  0  0
 18 19  2  0  0  0  0
 18 20  1  0  0  0  0
 16 17  1  0  0  0  0
 14 15  2  0  0  0  0
 14 16  1  0  0  0  0
 11 12  1  0  0  0  0
 11 13  1  0  0  0  0
 11 14  1  0  0  0  0
  9 10  1  0  0  0  0
  9 11  1  0  0  0  0
  9 18  1  0  0  0  0
  7  8  1  0  0  0  0
  7  9  1  0  0  0  0
 22 23  1  0  0  0  0
 22 24  1  0  0  0  0
 22 25  1  0  0  0  0
 20 21  1  0  0  0  0
 20 22  1  0  0  0  0
M  END
$$$$
default_name
  -OEChem-01062215323D

 25 24  0     1  0  0  0  0  0999 V2000
   -2.7826   -3.8464    0.7821 H   0  0  0  0  0  0  0  0  0  0  0  0
   -2.8156   -2.8034    0.4711 C   0  0  0  0  0  0  0  0  0  0  0  0
   -3.4336   -2.2354    1.1641 H   0  0  0  0  0  0  0  0  0  0  0  0
   -3.2256   -2.7344   -0.5349 H   0  0  0  0  0  0  0  0  0  0  0  0
   -1.4126   -2.2444    0.4801 C   0  0  0  0  0  0  0  0  0  0  0  0
   -0.4686   -2.9534    0.8001 O   0  0  0  0  0  0  0  0  0  0  0  0
   -1.2736   -0.9704    0.1241 N   0  0  0  0  0  0  0  0  0  0  0  0
   -2.0996   -0.4354   -0.1019 H   0  0  0  0  0  0  0  0  0  0  0  0
   -0.0016   -0.2394    0.1271 C   0  0  1  0  0  0  0  0  0  0  0  0
    0.2449    0.0222    1.1585 H   0  0  0  0  0  0  0  0  0  0  0  0
    1.1106   -1.1466   -0.4352 C   0  0  0  0  0  0  0  0  0  0  0  0
    0.7847   -1.5749   -1.3839 H   0  0  0  0  0  0  0  0  0  0  0  0
    2.0065   -0.5544   -0.6252 H   0  0  0  0  0  0  0  0  0  0  0  0
    1.4649   -2.3126    0.4827 C   0  0  0  0  0  0  0  0  0  0  0  0
    1.3662   -2.3144    1.7028 O   0  0  0  0  0  0  0  0  0  0  0  0
    1.9281   -3.4075   -0.1486 O   0  0  0  0  0  0  0  0  0  0  0  0
    2.0890   -4.0571    0.5365 H   0  0  0  0  0  0  0  0  0  0  0  0
   -0.1388    1.0654   -0.6826 C   0  0  0  0  0  0  0  0  0  0  0  0
   -1.2559    1.4849   -0.9817 O   0  0  0  0  0  0  0  0  0  0  0  0
    0.9822    1.7000   -1.0435 N   0  0  0  0  0  0  0  0  0  0  0  0
    1.8651    1.2559   -0.8130 H   0  0  0  0  0  0  0  0  0  0  0  0
    1.0163    2.9468   -1.8050 C   0  0  0  0  0  0  0  0  0  0  0  0
    0.3762    3.6901   -1.3246 H   0  0  0  0  0  0  0  0  0  0  0  0
    2.0368    3.3287   -1.8538 H   0  0  0  0  0  0  0  0  0  0  0  0
    0.6477    2.7707   -2.8170 H   0  0  0  0  0  0  0  0  0  0  0  0
  5  6  2  0  0  0  0
  5  7  1  0  0  0  0
  2  3  1  0  0  0  0
  2  4  1  0  0  0  0
  2  5  1  0  0  0  0
  1  2  1  0  0  0  0
 18 19  2  0  0  0  0
 18 20  1  0  0  0  0
 16 17  1  0  0  0  0
 14 15  2  0  0  0  0
 14 16  1  0  0  0  0
 11 12  1  0  0  0  0
 11 13  1  0  0  0  0
 11 14  1  0  0  0  0
  9 10  1  0  0  0  0
  9 11  1  0  0  0  0
  9 18  1  0  0  0  0
  7  8  1  0  0  0  0
  7  9  1  0  0  0  0
 22 23  1  0  0  0  0
 22 24  1  0  0  0  0
 22 25  1  0  0  0  0
 20 21  1  0  0  0  0
 20 22  1  0  0  0  0
M  END
$$$$
default_name
  -OEChem-01062215323D

 25 24  0     1  0  0  0  0  0999 V2000
   -2.7826   -3.8464    0.7821 H   0  0  0  0  0  0  0  0  0  0  0  0
   -2.8156   -2.8034    0.4711 C   0  0  0  0  0  0  0  0  0  0  0  0
   -3.4336   -2.2354    1.1641 H   0  0  0  0  0  0  0  0  0  0  0  0
   -3.2256   -2.7344   -0.5349 H   0  0  0  0  0  0  0  0  0  0  0  0
   -1.4126   -2.2444    0.4801 C   0  0  0  0  0  0  0  0  0  0  0  0
   -0.4686   -2.9534    0.8001 O   0  0  0  0  0  0  0  0  0  0  0  0
   -1.2736   -0.9704    0.1241 N   0  0  0  0  0  0  0  0  0  0  0  0
   -2.0996   -0.4354   -0.1019 H   0  0  0  0  0  0  0  0  0  0  0  0
   -0.0016   -0.2394    0.1271 C   0  0  1  0  0  0  0  0  0  0  0  0
    0.2449    0.0222    1.1585 H   0  0  0  0  0  0  0  0  0  0  0  0
    1.1106   -1.1466   -0.4352 C   0  0  0  0  0  0  0  0  0  0  0  0
    0.7847   -1.5749   -1.3839 H   0  0  0  0  0  0  0  0  0  0  0  0
    2.0065   -0.5544   -0.6252 H   0  0  0  0  0  0  0  0  0  0  0  0
    1.4649   -2.3126    0.4827 C   0  0  0  0  0  0  0  0  0  0  0  0
    1.3662   -2.3144    1.7028 O   0  0  0  0  0  0  0  0  0  0  0  0
    1.9281   -3.4075   -0.1486 O   0  0  0  0  0  0  0  0  0  0  0  0
    2.0890   -4.0571    0.5365 H   0  0  0  0  0  0  0  0  0  0  0  0
   -0.1388    1.0654   -0.6826 C   0  0  0  0  0  0  0  0  0  0  0  0
   -1.2282    1.6332   -0.7474 O   0  0  0  0  0  0  0  0  0  0  0  0
    0.9493    1.5358   -1.3026 N   0  0  0  0  0  0  0  0  0  0  0  0
    1.7940    0.9755   -1.2528 H   0  0  0  0  0  0  0  0  0  0  0  0
    0.9805    2.7598   -2.1002 C   0  0  0  0  0  0  0  0  0  0  0  0
    0.5672    3.5883   -1.5209 H   0  0  0  0  0  0  0  0  0  0  0  0
    2.0067    2.9963   -2.3844 H   0  0  0  0  0  0  0  0  0  0  0  0
    0.3776    2.6285   -3.0005 H   0  0  0  0  0  0  0  0  0  0  0  0
  5  6  2  0  0  0  0
  5  7  1  0  0  0  0
  2  3  1  0  0  0  0
  2  4  1  0  0  0  0
  2  5  1  0  0  0  0
  1  2  1  0  0  0  0
 18 19  2  0  0  0  0
 18 20  1  0  0  0  0
 16 17  1  0  0  0  0
 14 15  2  0  0  0  0
 14 16  1  0  0  0  0
 11 12  1  0  0  0  0
 11 13  1  0  0  0  0
 11 14  1  0  0  0  0
  9 10  1  0  0  0  0
  9 11  1  0  0  0  0
  9 18  1  0  0  0  0
  7  8  1  0  0  0  0
  7  9  1  0  0  0  0
 22 23  1  0  0  0  0
 22 24  1  0  0  0  0
 22 25  1  0  0  0  0
 20 21  1  0  0  0  0
 20 22  1  0  0  0  0
M  END
$$$$
default_name
  -OEChem-01062215323D

 25 24  0     1  0  0  0  0  0999 V2000
   -2.7826   -3.8464    0.7821 H   0  0  0  0  0  0  0  0  0  0  0  0
   -2.8156   -2.8034    0.4711 C   0  0  0  0  0  0  0  0  0  0  0  0
   -3.4336   -2.2354    1.1641 H   0  0  0  0  0  0  0  0  0  0  0  0
   -3.2256   -2.7344   -0.5349 H   0  0  0  0  0  0  0  0  0  0  0  0
   -1.4126   -2.2444    0.4801 C   0  0  0  0  0  0  0  0  0  0  0  0
   -0.4686   -2.9534    0.8001 O   0  0  0  0  0  0  0  0  0  0  0  0
   -1.2736   -0.9704    0.1241 N   0  0  0  0  0  0  0  0  0  0  0  0
   -2.0996   -0.4354   -0.1019 H   0  0  0  0  0  0  0  0  0  0  0  0
   -0.0016   -0.2394    0.1271 C   0  0  1  0  0  0  0  0  0  0  0  0
    0.2449    0.0222    1.1585 H   0  0  0  0  0  0  0  0  0  0  0  0
    1.1106   -1.1466   -0.4352 C   0  0  0  0  0  0  0  0  0  0  0  0
    0.7847   -1.5749   -1.3839 H   0  0  0  0  0  0  0  0  0  0  0  0
    2.0065   -0.5544   -0.6252 H   0  0  0  0  0  0  0  0  0  0  0  0
    1.4649   -2.3126    0.4827 C   0  0  0  0  0  0  0  0  0  0  0  0
    1.3662   -2.3144    1.7028 O   0  0  0  0  0  0  0  0  0  0  0  0
    1.9281   -3.4075   -0.1486 O   0  0  0  0  0  0  0  0  0  0  0  0
    2.0890   -4.0571    0.5365 H   0  0  0  0  0  0  0  0  0  0  0  0
   -0.1388    1.0654   -0.6826 C   0  0  0  0  0  0  0  0  0  0  0  0
   -1.1300    1.7781   -0.5305 O   0  0  0  0  0  0  0  0  0  0  0  0
    0.8385    1.3757   -1.5418 N   0  0  0  0  0  0  0  0  0  0  0  0
    1.5909    0.7042   -1.6556 H   0  0  0  0  0  0  0  0  0  0  0  0
    0.8558    2.5773   -2.3733 C   0  0  0  0  0  0  0  0  0  0  0  0
    0.6948    3.4596   -1.7500 H   0  0  0  0  0  0  0  0  0  0  0  0
    1.8162    2.6671   -2.8826 H   0  0  0  0  0  0  0  0  0  0  0  0
    0.0571    2.5237   -3.1152 H   0  0  0  0  0  0  0  0  0  0  0  0
  5  6  2  0  0  0  0
  5  7  1  0  0  0  0
  2  3  1  0  0  0  0
  2  4  1  0  0  0  0
  2  5  1  0  0  0  0
  1  2  1  0  0  0  0
 18 19  2  0  0  0  0
 18 20  1  0  0  0  0
 16 17  1  0  0  0  0
 14 15  2  0  0  0  0
 14 16  1  0  0  0  0
 11 12  1  0  0  0  0
 11 13  1  0  0  0  0
 11 14  1  0  0  0  0
  9 10  1  0  0  0  0
  9 11  1  0  0  0  0
  9 18  1  0  0  0  0
  7  8  1  0  0  0  0
  7  9  1  0  0  0  0
 22 23  1  0  0  0  0
 22 24  1  0  0  0  0
 22 25  1  0  0  0  0
 20 21  1  0  0  0  0
 20 22  1  0  0  0  0
M  END
$$$$
default_name
  -OEChem-01062215323D

 25 24  0     1  0  0  0  0  0999 V2000
   -2.7826   -3.8464    0.7821 H   0  0  0  0  0  0  0  0  0  0  0  0
   -2.8156   -2.8034    0.4711 C   0  0  0  0  0  0  0  0  0  0  0  0
   -3.4336   -2.2354    1.1641 H   0  0  0  0  0  0  0  0  0  0  0  0
   -3.2256   -2.7344   -0.5349 H   0  0  0  0  0  0  0  0  0  0  0  0
   -1.4126   -2.2444    0.4801 C   0  0  0  0  0  0  0  0  0  0  0  0
   -0.4686   -2.9534    0.8001 O   0  0  0  0  0  0  0  0  0  0  0  0
   -1.2736   -0.9704    0.1241 N   0  0  0  0  0  0  0  0  0  0  0  0
   -2.0996   -0.4354   -0.1019 H   0  0  0  0  0  0  0  0  0  0  0  0
   -0.0016   -0.2394    0.1271 C   0  0  1  0  0  0  0  0  0  0  0  0
    0.2449    0.0222    1.1585 H   0  0  0  0  0  0  0  0  0  0  0  0
    1.1106   -1.1466   -0.4352 C   0  0  0  0  0  0  0  0  0  0  0  0
    0.7847   -1.5749   -1.3839 H   0  0  0  0  0  0  0  0  0  0  0  0
    2.0065   -0.5544   -0.6252 H   0  0  0  0  0  0  0  0  0  0  0  0
    1.4649   -2.3126    0.4827 C   0  0  0  0  0  0  0  0  0  0  0  0
    1.3662   -2.3144    1.7028 O   0  0  0  0  0  0  0  0  0  0  0  0
    1.9281   -3.4075   -0.1486 O   0  0  0  0  0  0  0  0  0  0  0  0
    2.0890   -4.0571    0.5365 H   0  0  0  0  0  0  0  0  0  0  0  0
   -0.1388    1.0654   -0.6826 C   0  0  0  0  0  0  0  0  0  0  0  0
   -0.9678    1.9097   -0.3459 O   0  0  0  0  0  0  0  0  0  0  0  0
    0.6573    1.2306   -1.7450 N   0  0  0  0  0  0  0  0  0  0  0  0
    1.2695    0.4605   -1.9939 H   0  0  0  0  0  0  0  0  0  0  0  0
    0.6508    2.4116   -2.6056 C   0  0  0  0  0  0  0  0  0  0  0  0
    0.7504    3.3126   -1.9963 H   0  0  0  0  0  0  0  0  0  0  0  0
    1.4783    2.3636   -3.3146 H   0  0  0  0  0  0  0  0  0  0  0  0
   -0.2917    2.4633   -3.1534 H   0  0  0  0  0  0  0  0  0  0  0  0
  5  6  2  0  0  0  0
  5  7  1  0  0  0  0
  2  3  1  0  0  0  0
  2  4  1  0  0  0  0
  2  5  1  0  0  0  0
  1  2  1  0  0  0  0
 18 19  2  0  0  0  0
 18 20  1  0  0  0  0
 16 17  1  0  0  0  0
 14 15  2  0  0  0  0
 14 16  1  0  0  0  0
 11 12  1  0  0  0  0
 11 13  1  0  0  0  0
 11 14  1  0  0  0  0
  9 10  1  0  0  0  0
  9 11  1  0  0  0  0
  9 18  1  0  0  0  0
  7  8  1  0  0  0  0
  7  9  1  0  0  0  0
 22 23  1  0  0  0  0
 22 24  1  0  0  0  0
 22 25  1  0  0  0  0
 20 21  1  0  0  0  0
 20 22  1  0  0  0  0
M  END
$$$$
default_name
  -OEChem-01062215323D

 25 24  0     1  0  0  0  0  0999 V2000
   -2.7826   -3.8464    0.7821 H   0  0  0  0  0  0  0  0  0  0  0  0
   -2.8156   -2.8034    0.4711 C   0  0  0  0  0  0  0  0  0  0  0  0
   -3.4336   -2.2354    1.1641 H   0  0  0  0  0  0  0  0  0  0  0  0
   -3.2256   -2.7344   -0.5349 H   0  0  0  0  0  0  0  0  0  0  0  0
   -1.4126   -2.2444    0.4801 C   0  0  0  0  0  0  0  0  0  0  0  0
   -0.4686   -2.9534    0.8001 O   0  0  0  0  0  0  0  0  0  0  0  0
   -1.2736   -0.9704    0.1241 N   0  0  0  0  0  0  0  0  0  0  0  0
   -2.0996   -0.4354   -0.1019 H   0  0  0  0  0  0  0  0  0  0  0  0
   -0.0016   -0.2394    0.1271 C   0  0  1  0  0  0  0  0  0  0  0  0
    0.2449    0.0222    1.1585 H   0  0  0  0  0  0  0  0  0  0  0  0
    1.1106   -1.1466   -0.4352 C   0  0  0  0  0  0  0  0  0  0  0  0
    0.7847   -1.5749   -1.3839 H   0  0  0  0  0  0  0  0  0  0  0  0
    2.0065   -0.5544   -0.6252 H   0  0  0  0  0  0  0  0  0  0  0  0
    1.4649   -2.3126    0.4827 C   0  0  0  0  0  0  0  0  0  0  0  0
    1.3662   -2.3144    1.7028 O   0  0  0  0  0  0  0  0  0  0  0  0
    1.9281   -3.4075   -0.1486 O   0  0  0  0  0  0  0  0  0  0  0  0
    2.0890   -4.0571    0.5365 H   0  0  0  0  0  0  0  0  0  0  0  0
   -0.1388    1.0654   -0.6826 C   0  0  0  0  0  0  0  0  0  0  0  0
   -0.7529    2.0190   -0.2062 O   0  0  0  0  0  0  0  0  0  0  0  0
    0.4180    1.1104   -1.8982 N   0  0  0  0  0  0  0  0  0  0  0  0
    0.8519    0.2610   -2.2447 H   0  0  0  0  0  0  0  0  0  0  0  0
    0.3793    2.2741   -2.7812 C   0  0  0  0  0  0  0  0  0  0  0  0
    0.7301    3.1574   -2.2430 H   0  0  0  0  0  0  0  0  0  0  0  0
    1.0160    2.1064   -3.6508 H   0  0  0  0  0  0  0  0  0  0  0  0
   -0.6453    2.4515   -3.1125 H   0  0  0  0  0  0  0  0  0  0  0  0
  5  6  2  0  0  0  0
  5  7  1  0  0  0  0
  2  3  1  0  0  0  0
  2  4  1  0  0  0  0
  2  5  1  0  0  0  0
  1  2  1  0  0  0  0
 18 19  2  0  0  0  0
 18 20  1  0  0  0  0
 16 17  1  0  0  0  0
 14 15  2  0  0  0  0
 14 16  1  0  0  0  0
 11 12  1  0  0  0  0
 11 13  1  0  0  0  0
 11 14  1  0  0  0  0
  9 10  1  0  0  0  0
  9 11  1  0  0  0  0
  9 18  1  0  0  0  0
  7  8  1  0  0  0  0
  7  9  1  0  0  0  0
 22 23  1  0  0  0  0
 22 24  1  0  0  0  0
 22 25  1  0  0  0  0
 20 21  1  0  0  0  0
 20 22  1  0  0  0  0
M  END
$$$$
default_name
  -OEChem-01062215323D

 25 24  0     1  0  0  0  0  0999 V2000
   -2.7826   -3.8464    0.7821 H   0  0  0  0  0  0  0  0  0  0  0  0
   -2.8156   -2.8034    0.4711 C   0  0  0  0  0  0  0  0  0  0  0  0
   -3.4336   -2.2354    1.1641 H   0  0  0  0  0  0  0  0  0  0  0  0
   -3.2256   -2.7344   -0.5349 H   0  0  0  0  0  0  0  0  0  0  0  0
   -1.4126   -2.2444    0.4801 C   0  0  0  0  0  0  0  0  0  0  0  0
   -0.4686   -2.9534    0.8001 O   0  0  0  0  0  0  0  0  0  0  0  0
   -1.2736   -0.9704    0.1241 N   0  0  0  0  0  0  0  0  0  0  0  0
   -2.0996   -0.4354   -0.1019 H   0  0  0  0  0  0  0  0  0  0  0  0
   -0.0016   -0.2394    0.1271 C   0  0  1  0  0  0  0  0  0  0  0  0
    0.2449    0.0222    1.1585 H   0  0  0  0  0  0  0  0  0  0  0  0
    1.1106   -1.1466   -0.4352 C   0  0  0  0  0  0  0  0  0  0  0  0
    0.7847   -1.5749   -1.3839 H   0  0  0  0  0  0  0  0  0  0  0  0
    2.0065   -0.5544   -0.6252 H   0  0  0  0  0  0  0  0  0  0  0  0
    1.4649   -2.3126    0.4827 C   0  0  0  0  0  0  0  0  0  0  0  0
    1.3662   -2.3144    1.7028 O   0  0  0  0  0  0  0  0  0  0  0  0
    1.9281   -3.4075   -0.1486 O   0  0  0  0  0  0  0  0  0  0  0  0
    2.0890   -4.0571    0.5365 H   0  0  0  0  0  0  0  0  0  0  0  0
   -0.1388    1.0654   -0.6826 C   0  0  0  0  0  0  0  0  0  0  0  0
   -0.4999    2.0986   -0.1208 O   0  0  0  0  0  0  0  0  0  0  0  0
    0.1369    1.0232   -1.9910 N   0  0  0  0  0  0  0  0  0  0  0  0
    0.3665    0.1192   -2.3909 H   0  0  0  0  0  0  0  0  0  0  0  0
    0.0600    2.1741   -2.8882 C   0  0  0  0  0  0  0  0  0  0  0  0
    0.6355    3.0045   -2.4733 H   0  0  0  0  0  0  0  0  0  0  0  0
    0.4609    1.9130   -3.8684 H   0  0  0  0  0  0  0  0  0  0  0  0
   -0.9795    2.4891   -2.9953 H   0  0  0  0  0  0  0  0  0  0  0  0
  5  6  2  0  0  0  0
  5  7  1  0  0  0  0
  2  3  1  0  0  0  0
  2  4  1  0  0  0  0
  2  5  1  0  0  0  0
  1  2  1  0  0  0  0
 18 19  2  0  0  0  0
 18 20  1  0  0  0  0
 16 17  1  0  0  0  0
 14 15  2  0  0  0  0
 14 16  1  0  0  0  0
 11 12  1  0  0  0  0
 11 13  1  0  0  0  0
 11 14  1  0  0  0  0
  9 10  1  0  0  0  0
  9 11  1  0  0  0  0
  9 18  1  0  0  0  0
  7  8  1  0  0  0  0
  7  9  1  0  0  0  0
 22 23  1  0  0  0  0
 22 24  1  0  0  0  0
 22 25  1  0  0  0  0
 20 21  1  0  0  0  0
 20 22  1  0  0  0  0
M  END
$$$$
default_name
  -OEChem-01062215323D

 25 24  0     1  0  0  0  0  0999 V2000
   -2.7826   -3.8464    0.7821 H   0  0  0  0  0  0  0  0  0  0  0  0
   -2.8156   -2.8034    0.4711 C   0  0  0  0  0  0  0  0  0  0  0  0
   -3.4336   -2.2354    1.1641 H   0  0  0  0  0  0  0  0  0  0  0  0
   -3.2256   -2.7344   -0.5349 H   0  0  0  0  0  0  0  0  0  0  0  0
   -1.4126   -2.2444    0.4801 C   0  0  0  0  0  0  0  0  0  0  0  0
   -0.4686   -2.9534    0.8001 O   0  0  0  0  0  0  0  0  0  0  0  0
   -1.2736   -0.9704    0.1241 N   0  0  0  0  0  0  0  0  0  0  0  0
   -2.0996   -0.4354   -0.1019 H   0  0  0  0  0  0  0  0  0  0  0  0
   -0.0016   -0.2394    0.1271 C   0  0  1  0  0  0  0  0  0  0  0  0
    0.2449    0.0222    1.1585 H   0  0  0  0  0  0  0  0  0  0  0  0
    1.1106   -1.1466   -0.4352 C   0  0  0  0  0  0  0  0  0  0  0  0
    0.7847   -1.5749   -1.3839 H   0  0  0  0  0  0  0  0  0  0  0  0
    2.0065   -0.5544   -0.6252 H   0  0  0  0  0  0  0  0  0  0  0  0
    1.4649   -2.3126    0.4827 C   0  0  0  0  0  0  0  0  0  0  0  0
    1.3662   -2.3144    1.7028 O   0  0  0  0  0  0  0  0  0  0  0  0
    1.9281   -3.4075   -0.1486 O   0  0  0  0  0  0  0  0  0  0  0  0
    2.0890   -4.0571    0.5365 H   0  0  0  0  0  0  0  0  0  0  0  0
   -0.1388    1.0654   -0.6826 C   0  0  0  0  0  0  0  0  0  0  0  0
   -0.2259    2.1430   -0.0955 O   0  0  0  0  0  0  0  0  0  0  0  0
   -0.1667    0.9752   -2.0170 N   0  0  0  0  0  0  0  0  0  0  0  0
   -0.1537    0.0450   -2.4225 H   0  0  0  0  0  0  0  0  0  0  0  0
   -0.2855    2.1185   -2.9193 C   0  0  0  0  0  0  0  0  0  0  0  0
    0.4728    2.8645   -2.6715 H   0  0  0  0  0  0  0  0  0  0  0  0
   -0.1493    1.7967   -3.9525 H   0  0  0  0  0  0  0  0  0  0  0  0
   -1.2715    2.5736   -2.8098 H   0  0  0  0  0  0  0  0  0  0  0  0
  5  6  2  0  0  0  0
  5  7  1  0  0  0  0
  2  3  1  0  0  0  0
  2  4  1  0  0  0  0
  2  5  1  0  0  0  0
  1  2  1  0  0  0  0
 18 19  2  0  0  0  0
 18 20  1  0  0  0  0
 16 17  1  0  0  0  0
 14 15  2  0  0  0  0
 14 16  1  0  0  0  0
 11 12  1  0  0  0  0
 11 13  1  0  0  0  0
 11 14  1  0  0  0  0
  9 10  1  0  0  0  0
  9 11  1  0  0  0  0
  9 18  1  0  0  0  0
  7  8  1  0  0  0  0
  7  9  1  0  0  0  0
 22 23  1  0  0  0  0
 22 24  1  0  0  0  0
 22 25  1  0  0  0  0
 20 21  1  0  0  0  0
 20 22  1  0  0  0  0
M  END
$$$$
default_name
  -OEChem-01062215323D

 25 24  0     1  0  0  0  0  0999 V2000
   -2.7826   -3.8464    0.7821 H   0  0  0  0  0  0  0  0  0  0  0  0
   -2.8156   -2.8034    0.4711 C   0  0  0  0  0  0  0  0  0  0  0  0
   -3.4336   -2.2354    1.1641 H   0  0  0  0  0  0  0  0  0  0  0  0
   -3.2256   -2.7344   -0.5349 H   0  0  0  0  0  0  0  0  0  0  0  0
   -1.4126   -2.2444    0.4801 C   0  0  0  0  0  0  0  0  0  0  0  0
   -0.4686   -2.9534    0.8001 O   0  0  0  0  0  0  0  0  0  0  0  0
   -1.2736   -0.9704    0.1241 N   0  0  0  0  0  0  0  0  0  0  0  0
   -2.0996   -0.4354   -0.1019 H   0  0  0  0  0  0  0  0  0  0  0  0
   -0.0016   -0.2394    0.1271 C   0  0  1  0  0  0  0  0  0  0  0  0
    0.2449    0.0222    1.1585 H   0  0  0  0  0  0  0  0  0  0  0  0
    1.1106   -1.1466   -0.4352 C   0  0  0  0  0  0  0  0  0  0  0  0
    0.7847   -1.5749   -1.3839 H   0  0  0  0  0  0  0  0  0  0  0  0
    2.0065   -0.5544   -0.6252 H   0  0  0  0  0  0  0  0  0  0  0  0
    1.4649   -2.3126    0.4827 C   0  0  0  0  0  0  0  0  0  0  0  0
    1.3662   -2.3144    1.7028 O   0  0  0  0  0  0  0  0  0  0  0  0
    1.9281   -3.4075   -0.1486 O   0  0  0  0  0  0  0  0  0  0  0  0
    2.0890   -4.0571    0.5365 H   0  0  0  0  0  0  0  0  0  0  0  0
   -0.1388    1.0654   -0.6826 C   0  0  0  0  0  0  0  0  0  0  0  0
    0.0503    2.1493   -0.1322 O   0  0  0  0  0  0  0  0  0  0  0  0
   -0.4722    0.9694   -1.9746 N   0  0  0  0  0  0  0  0  0  0  0  0
   -0.6732    0.0432   -2.3374 H   0  0  0  0  0  0  0  0  0  0  0  0
   -0.6336    2.1111   -2.8724 C   0  0  0  0  0  0  0  0  0  0  0  0
    0.2532    2.7467   -2.8240 H   0  0  0  0  0  0  0  0  0  0  0  0
   -0.7729    1.7653   -3.8975 H   0  0  0  0  0  0  0  0  0  0  0  0
   -1.5014    2.6991   -2.5685 H   0  0  0  0  0  0  0  0  0  0  0  0
  5  6  2  0  0  0  0
  5  7  1  0  0  0  0
  2  3  1  0  0  0  0
  2  4  1  0  0  0  0
  2  5  1  0  0  0  0
  1  2  1  0  0  0  0
 18 19  2  0  0  0  0
 18 20  1  0  0  0  0
 16 17  1  0  0  0  0
 14 15  2  0  0  0  0
 14 16  1  0  0  0  0
 11 12  1  0  0  0  0
 11 13  1  0  0  0  0
 11 14  1  0  0  0  0
  9 10  1  0  0  0  0
  9 11  1  0  0  0  0
  9 18  1  0  0  0  0
  7  8  1  0  0  0  0
  7  9  1  0  0  0  0
 22 23  1  0  0  0  0
 22 24  1  0  0  0  0
 22 25  1  0  0  0  0
 20 21  1  0  0  0  0
 20 22  1  0  0  0  0
M  END
$$$$
default_name
  -OEChem-01062215323D

 25 24  0     1  0  0  0  0  0999 V2000
   -2.7826   -3.8464    0.7821 H   0  0  0  0  0  0  0  0  0  0  0  0
   -2.8156   -2.8034    0.4711 C   0  0  0  0  0  0  0  0  0  0  0  0
   -3.4336   -2.2354    1.1641 H   0  0  0  0  0  0  0  0  0  0  0  0
   -3.2256   -2.7344   -0.5349 H   0  0  0  0  0  0  0  0  0  0  0  0
   -1.4126   -2.2444    0.4801 C   0  0  0  0  0  0  0  0  0  0  0  0
   -0.4686   -2.9534    0.8001 O   0  0  0  0  0  0  0  0  0  0  0  0
   -1.2736   -0.9704    0.1241 N   0  0  0  0  0  0  0  0  0  0  0  0
   -2.0996   -0.4354   -0.1019 H   0  0  0  0  0  0  0  0  0  0  0  0
   -0.0016   -0.2394    0.1271 C   0  0  1  0  0  0  0  0  0  0  0  0
    0.2449    0.0222    1.1585 H   0  0  0  0  0  0  0  0  0  0  0  0
    1.1106   -1.1466   -0.4352 C   0  0  0  0  0  0  0  0  0  0  0  0
    0.7847   -1.5749   -1.3839 H   0  0  0  0  0  0  0  0  0  0  0  0
    2.0065   -0.5544   -0.6252 H   0  0  0  0  0  0  0  0  0  0  0  0
    1.4649   -2.3126    0.4827 C   0  0  0  0  0  0  0  0  0  0  0  0
    1.3662   -2.3144    1.7028 O   0  0  0  0  0  0  0  0  0  0  0  0
    1.9281   -3.4075   -0.1486 O   0  0  0  0  0  0  0  0  0  0  0  0
    2.0890   -4.0571    0.5365 H   0  0  0  0  0  0  0  0  0  0  0  0
   -0.1388    1.0654   -0.6826 C   0  0  0  0  0  0  0  0  0  0  0  0
    0.3099    2.1170   -0.2282 O   0  0  0  0  0  0  0  0  0  0  0  0
   -0.7588    1.0063   -1.8665 N   0  0  0  0  0  0  0  0  0  0  0  0
   -1.1565    0.1141   -2.1413 H   0  0  0  0  0  0  0  0  0  0  0  0
   -0.9606    2.1522   -2.7506 C   0  0  0  0  0  0  0  0  0  0  0  0
   -0.0083    2.6593   -2.9206 H   0  0  0  0  0  0  0  0  0  0  0  0
   -1.3674    1.8211   -3.7069 H   0  0  0  0  0  0  0  0  0  0  0  0
   -1.6536    2.8572   -2.2880 H   0  0  0  0  0  0  0  0  0  0  0  0
  5  6  2  0  0  0  0
  5  7  1  0  0  0  0
  2  3  1  0  0  0  0
  2  4  1  0  0  0  0
  2  5  1  0  0  0  0
  1  2  1  0  0  0  0
 18 19  2  0  0  0  0
 18 20  1  0  0  0  0
 16 17  1  0  0  0  0
 14 15  2  0  0  0  0
 14 16  1  0  0  0  0
 11 12  1  0  0  0  0
 11 13  1  0  0  0  0
 11 14  1  0  0  0  0
  9 10  1  0  0  0  0
  9 11  1  0  0  0  0
  9 18  1  0  0  0  0
  7  8  1  0  0  0  0
  7  9  1  0  0  0  0
 22 23  1  0  0  0  0
 22 24  1  0  0  0  0
 22 25  1  0  0  0  0
 20 21  1  0  0  0  0
 20 22  1  0  0  0  0
M  END
$$$$
default_name
  -OEChem-01062215323D

 25 24  0     1  0  0  0  0  0999 V2000
   -2.7826   -3.8464    0.7821 H   0  0  0  0  0  0  0  0  0  0  0  0
   -2.8156   -2.8034    0.4711 C   0  0  0  0  0  0  0  0  0  0  0  0
   -3.4336   -2.2354    1.1641 H   0  0  0  0  0  0  0  0  0  0  0  0
   -3.2256   -2.7344   -0.5349 H   0  0  0  0  0  0  0  0  0  0  0  0
   -1.4126   -2.2444    0.4801 C   0  0  0  0  0  0  0  0  0  0  0  0
   -0.4686   -2.9534    0.8001 O   0  0  0  0  0  0  0  0  0  0  0  0
   -1.2736   -0.9704    0.1241 N   0  0  0  0  0  0  0  0  0  0  0  0
   -2.0996   -0.4354   -0.1019 H   0  0  0  0  0  0  0  0  0  0  0  0
   -0.0016   -0.2394    0.1271 C   0  0  1  0  0  0  0  0  0  0  0  0
    0.2449    0.0222    1.1585 H   0  0  0  0  0  0  0  0  0  0  0  0
    1.1106   -1.1466   -0.4352 C   0  0  0  0  0  0  0  0  0  0  0  0
    0.7847   -1.5749   -1.3839 H   0  0  0  0  0  0  0  0  0  0  0  0
    2.0065   -0.5544   -0.6252 H   0  0  0  0  0  0  0  0  0  0  0  0
    1.4649   -2.3126    0.4827 C   0  0  0  0  0  0  0  0  0  0  0  0
    1.3662   -2.3144    1.7028 O   0  0  0  0  0  0  0  0  0  0  0  0
    1.9281   -3.4075   -0.1486 O   0  0  0  0  0  0  0  0  0  0  0  0
    2.0890   -4.0571    0.5365 H   0  0  0  0  0  0  0  0  0  0  0  0
   -0.1388    1.0654   -0.6826 C   0  0  0  0  0  0  0  0  0  0  0  0
    0.5352    2.0483   -0.3771 O   0  0  0  0  0  0  0  0  0  0  0  0
   -1.0069    1.0835   -1.7002 N   0  0  0  0  0  0  0  0  0  0  0  0
   -1.5709    0.2527   -1.8477 H   0  0  0  0  0  0  0  0  0  0  0  0
   -1.2442    2.2393   -2.5624 C   0  0  0  0  0  0  0  0  0  0  0  0
   -0.2940    2.6082   -2.9546 H   0  0  0  0  0  0  0  0  0  0  0  0
   -1.8924    1.9601   -3.3940 H   0  0  0  0  0  0  0  0  0  0  0  0
   -1.7176    3.0370   -1.9874 H   0  0  0  0  0  0  0  0  0  0  0  0
  5  6  2  0  0  0  0
  5  7  1  0  0  0  0
  2  3  1  0  0  0  0
  2  4  1  0  0  0  0
  2  5  1  0  0  0  0
  1  2  1  0  0  0  0
 18 19  2  0  0  0  0
 18 20  1  0  0  0  0
 16 17  1  0  0  0  0
 14 15  2  0  0  0  0
 14 16  1  0  0  0  0
 11 12  1  0  0  0  0
 11 13  1  0  0  0  0
 11 14  1  0  0  0  0
  9 10  1  0  0  0  0
  9 11  1  0  0  0  0
  9 18  1  0  0  0  0
  7  8  1  0  0  0  0
  7  9  1  0  0  0  0
 22 23  1  0  0  0  0
 22 24  1  0  0  0  0
 22 25  1  0  0  0  0
 20 21  1  0  0  0  0
 20 22  1  0  0  0  0
M  END
$$$$
default_name
  -OEChem-01062215323D

 25 24  0     1  0  0  0  0  0999 V2000
   -2.7826   -3.8464    0.7821 H   0  0  0  0  0  0  0  0  0  0  0  0
   -2.8156   -2.8034    0.4711 C   0  0  0  0  0  0  0  0  0  0  0  0
   -3.4336   -2.2354    1.1641 H   0  0  0  0  0  0  0  0  0  0  0  0
   -3.2256   -2.7344   -0.5349 H   0  0  0  0  0  0  0  0  0  0  0  0
   -1.4126   -2.2444    0.4801 C   0  0  0  0  0  0  0  0  0  0  0  0
   -0.4686   -2.9534    0.8001 O   0  0  0  0  0  0  0  0  0  0  0  0
   -1.2736   -0.9704    0.1241 N   0  0  0  0  0  0  0  0  0  0  0  0
   -2.0996   -0.4354   -0.1019 H   0  0  0  0  0  0  0  0  0  0  0  0
   -0.0016   -0.2394    0.1271 C   0  0  1  0  0  0  0  0  0  0  0  0
    0.2449    0.0222    1.1585 H   0  0  0  0  0  0  0  0  0  0  0  0
    1.1106   -1.1466   -0.4352 C   0  0  0  0  0  0  0  0  0  0  0  0
    0.7847   -1.5749   -1.3839 H   0  0  0  0  0  0  0  0  0  0  0  0
    2.0065   -0.5544   -0.6252 H   0  0  0  0  0  0  0  0  0  0  0  0
    1.4649   -2.3126    0.4827 C   0  0  0  0  0  0  0  0  0  0  0  0
    1.3662   -2.3144    1.7028 O   0  0  0  0  0  0  0  0  0  0  0  0
    1.9281   -3.4075   -0.1486 O   0  0  0  0  0  0  0  0  0  0  0  0
    2.0890   -4.0571    0.5365 H   0  0  0  0  0  0  0  0  0  0  0  0
   -0.1388    1.0654   -0.6826 C   0  0  0  0  0  0  0  0  0  0  0  0
    0.7109    1.9479   -0.5687 O   0  0  0  0  0  0  0  0  0  0  0  0
   -1.1997    1.1955   -1.4870 N   0  0  0  0  0  0  0  0  0  0  0  0
   -1.8879    0.4497   -1.4765 H   0  0  0  0  0  0  0  0  0  0  0  0
   -1.4650    2.3662   -2.3204 C   0  0  0  0  0  0  0  0  0  0  0  0
   -0.5843    2.5969   -2.9236 H   0  0  0  0  0  0  0  0  0  0  0  0
   -2.3120    2.1730   -2.9799 H   0  0  0  0  0  0  0  0  0  0  0  0
   -1.6892    3.2263   -1.6871 H   0  0  0  0  0  0  0  0  0  0  0  0
  5  6  2  0  0  0  0
  5  7  1  0  0  0  0
  2  3  1  0  0  0  0
  2  4  1  0  0  0  0
  2  5  1  0  0  0  0
  1  2  1  0  0  0  0
 18 19  2  0  0  0  0
 18 20  1  0  0  0  0
 16 17  1  0  0  0  0
 14 15  2  0  0  0  0
 14 16  1  0  0  0  0
 11 12  1  0  0  0  0
 11 13  1  0  0  0  0
 11 14  1  0  0  0  0
  9 10  1  0  0  0  0
  9 11  1  0  0  0  0
  9 18  1  0  0  0  0
  7  8  1  0  0  0  0
  7  9  1  0  0  0  0
 22 23  1  0  0  0  0
 22 24  1  0  0  0  0
 22 25  1  0  0  0  0
 20 21  1  0  0  0  0
 20 22  1  0  0  0  0
M  END
$$$$
default_name
  -OEChem-01062215323D

 25 24  0     1  0  0  0  0  0999 V2000
   -2.7826   -3.8464    0.7821 H   0  0  0  0  0  0  0  0  0  0  0  0
   -2.8156   -2.8034    0.4711 C   0  0  0  0  0  0  0  0  0  0  0  0
   -3.4336   -2.2354    1.1641 H   0  0  0  0  0  0  0  0  0  0  0  0
   -3.2256   -2.7344   -0.5349 H   0  0  0  0  0  0  0  0  0  0  0  0
   -1.4126   -2.2444    0.4801 C   0  0  0  0  0  0  0  0  0  0  0  0
   -0.4686   -2.9534    0.8001 O   0  0  0  0  0  0  0  0  0  0  0  0
   -1.2736   -0.9704    0.1241 N   0  0  0  0  0  0  0  0  0  0  0  0
   -2.0996   -0.4354   -0.1019 H   0  0  0  0  0  0  0  0  0  0  0  0
   -0.0016   -0.2394    0.1271 C   0  0  1  0  0  0  0  0  0  0  0  0
    0.2449    0.0222    1.1585 H   0  0  0  0  0  0  0  0  0  0  0  0
    1.1106   -1.1466   -0.4352 C   0  0  0  0  0  0  0  0  0  0  0  0
    0.7847   -1.5749   -1.3839 H   0  0  0  0  0  0  0  0  0  0  0  0
    2.0065   -0.5544   -0.6252 H   0  0  0  0  0  0  0  0  0  0  0  0
    1.4649   -2.3126    0.4827 C   0  0  0  0  0  0  0  0  0  0  0  0
    1.3662   -2.3144    1.7028 O   0  0  0  0  0  0  0  0  0  0  0  0
    1.9281   -3.4075   -0.1486 O   0  0  0  0  0  0  0  0  0  0  0  0
    2.0890   -4.0571    0.5365 H   0  0  0  0  0  0  0  0  0  0  0  0
   -0.1388    1.0654   -0.6826 C   0  0  0  0  0  0  0  0  0  0  0  0
    0.8249    1.8226   -0.7900 O   0  0  0  0  0  0  0  0  0  0  0  0
   -1.3240    1.3348   -1.2414 N   0  0  0  0  0  0  0  0  0  0  0  0
   -2.0860    0.6917   -1.0531 H   0  0  0  0  0  0  0  0  0  0  0  0
   -1.6081    2.5244   -2.0412 C   0  0  0  0  0  0  0  0  0  0  0  0
   -0.8594    2.6262   -2.8299 H   0  0  0  0  0  0  0  0  0  0  0  0
   -2.5977    2.4451   -2.4929 H   0  0  0  0  0  0  0  0  0  0  0  0
   -1.5703    3.4122   -1.4076 H   0  0  0  0  0  0  0  0  0  0  0  0
  5  6  2  0  0  0  0
  5  7  1  0  0  0  0
  2  3  1  0  0  0  0
  2  4  1  0  0  0  0
  2  5  1  0  0  0  0
  1  2  1  0  0  0  0
 18 19  2  0  0  0  0
 18 20  1  0  0  0  0
 16 17  1  0  0  0  0
 14 15  2  0  0  0  0
 14 16  1  0  0  0  0
 11 12  1  0  0  0  0
 11 13  1  0  0  0  0
 11 14  1  0  0  0  0
  9 10  1  0  0  0  0
  9 11  1  0  0  0  0
  9 18  1  0  0  0  0
  7  8  1  0  0  0  0
  7  9  1  0  0  0  0
 22 23  1  0  0  0  0
 22 24  1  0  0  0  0
 22 25  1  0  0  0  0
 20 21  1  0  0  0  0
 20 22  1  0  0  0  0
M  END
$$$$
default_name
  -OEChem-01062215323D

 25 24  0     1  0  0  0  0  0999 V2000
   -2.7826   -3.8464    0.7821 H   0  0  0  0  0  0  0  0  0  0  0  0
   -2.8156   -2.8034    0.4711 C   0  0  0  0  0  0  0  0  0  0  0  0
   -3.4336   -2.2354    1.1641 H   0  0  0  0  0  0  0  0  0  0  0  0
   -3.2256   -2.7344   -0.5349 H   0  0  0  0  0  0  0  0  0  0  0  0
   -1.4126   -2.2444    0.4801 C   0  0  0  0  0  0  0  0  0  0  0  0
   -0.4686   -2.9534    0.8001 O   0  0  0  0  0  0  0  0  0  0  0  0
   -1.2736   -0.9704    0.1241 N   0  0  0  0  0  0  0  0  0  0  0  0
   -2.0996   -0.4354   -0.1019 H   0  0  0  0  0  0  0  0  0  0  0  0
   -0.0016   -0.2394    0.1271 C   0  0  1  0  0  0  0  0  0  0  0  0
    0.2449    0.0222    1.1585 H   0  0  0  0  0  0  0  0  0  0  0  0
    1.1106   -1.1466   -0.4352 C   0  0  0  0  0  0  0  0  0  0  0  0
    0.7847   -1.5749   -1.3839 H   0  0  0  0  0  0  0  0  0  0  0  0
    2.0065   -0.5544   -0.6252 H   0  0  0  0  0  0  0  0  0  0  0  0
    1.4649   -2.3126    0.4827 C   0  0  0  0  0  0  0  0  0  0  0  0
    1.3662   -2.3144    1.7028 O   0  0  0  0  0  0  0  0  0  0  0  0
    1.9281   -3.4075   -0.1486 O   0  0  0  0  0  0  0  0  0  0  0  0
    2.0890   -4.0571    0.5365 H   0  0  0  0  0  0  0  0  0  0  0  0
   -0.1388    1.0654   -0.6826 C   0  0  0  0  0  0  0  0  0  0  0  0
    0.8696    1.6809   -1.0258 O   0  0  0  0  0  0  0  0  0  0  0  0
   -1.3713    1.4920   -0.9802 N   0  0  0  0  0  0  0  0  0  0  0  0
   -2.1518    0.9620   -0.6062 H   0  0  0  0  0  0  0  0  0  0  0  0
   -1.6636    2.7031   -1.7439 C   0  0  0  0  0  0  0  0  0  0  0  0
   -1.1007    2.6940   -2.6798 H   0  0  0  0  0  0  0  0  0  0  0  0
   -2.7300    2.7581   -1.9661 H   0  0  0  0  0  0  0  0  0  0  0  0
   -1.3689    3.5821   -1.1680 H   0  0  0  0  0  0  0  0  0  0  0  0
  5  6  2  0  0  0  0
  5  7  1  0  0  0  0
  2  3  1  0  0  0  0
  2  4  1  0  0  0  0
  2  5  1  0  0  0  0
  1  2  1  0  0  0  0
 18 19  2  0  0  0  0
 18 20  1  0  0  0  0
 16 17  1  0  0  0  0
 14 15  2  0  0  0  0
 14 16  1  0  0  0  0
 11 12  1  0  0  0  0
 11 13  1  0  0  0  0
 11 14  1  0  0  0  0
  9 10  1  0  0  0  0
  9 11  1  0  0  0  0
  9 18  1  0  0  0  0
  7  8  1  0  0  0  0
  7  9  1  0  0  0  0
 22 23  1  0  0  0  0
 22 24  1  0  0  0  0
 22 25  1  0  0  0  0
 20 21  1  0  0  0  0
 20 22  1  0  0  0  0
M  END
$$$$
default_name
  -OEChem-01062215323D

 25 24  0     1  0  0  0  0  0999 V2000
   -2.7826   -3.8464    0.7821 H   0  0  0  0  0  0  0  0  0  0  0  0
   -2.8156   -2.8034    0.4711 C   0  0  0  0  0  0  0  0  0  0  0  0
   -3.4336   -2.2354    1.1641 H   0  0  0  0  0  0  0  0  0  0  0  0
   -3.2256   -2.7344   -0.5349 H   0  0  0  0  0  0  0  0  0  0  0  0
   -1.4126   -2.2444    0.4801 C   0  0  0  0  0  0  0  0  0  0  0  0
   -0.4686   -2.9534    0.8001 O   0  0  0  0  0  0  0  0  0  0  0  0
   -1.2736   -0.9704    0.1241 N   0  0  0  0  0  0  0  0  0  0  0  0
   -2.0996   -0.4354   -0.1019 H   0  0  0  0  0  0  0  0  0  0  0  0
   -0.0016   -0.2394    0.1271 C   0  0  1  0  0  0  0  0  0  0  0  0
    0.2449    0.0222    1.1585 H   0  0  0  0  0  0  0  0  0  0  0  0
    1.1106   -1.1466   -0.4352 C   0  0  0  0  0  0  0  0  0  0  0  0
    0.7847   -1.5749   -1.3839 H   0  0  0  0  0  0  0  0  0  0  0  0
    2.0065   -0.5544   -0.6252 H   0  0  0  0  0  0  0  0  0  0  0  0
    1.4649   -2.3126    0.4827 C   0  0  0  0  0  0  0  0  0  0  0  0
    1.3662   -2.3144    1.7028 O   0  0  0  0  0  0  0  0  0  0  0  0
    1.9281   -3.4075   -0.1486 O   0  0  0  0  0  0  0  0  0  0  0  0
    2.0890   -4.0571    0.5365 H   0  0  0  0  0  0  0  0  0  0  0  0
   -0.1388    1.0654   -0.6826 C   0  0  0  0  0  0  0  0  0  0  0  0
    0.8419    1.5326   -1.2601 O   0  0  0  0  0  0  0  0  0  0  0  0
   -1.3384    1.6562   -0.7211 N   0  0  0  0  0  0  0  0  0  0  0  0
   -2.0807    1.2424   -0.1664 H   0  0  0  0  0  0  0  0  0  0  0  0
   -1.6278    2.8901   -1.4486 C   0  0  0  0  0  0  0  0  0  0  0  0
   -1.2917    2.7957   -2.4835 H   0  0  0  0  0  0  0  0  0  0  0  0
   -2.6999    3.0905   -1.4356 H   0  0  0  0  0  0  0  0  0  0  0  0
   -1.0988    3.7243   -0.9846 H   0  0  0  0  0  0  0  0  0  0  0  0
  5  6  2  0  0  0  0
  5  7  1  0  0  0  0
  2  3  1  0  0  0  0
  2  4  1  0  0  0  0
  2  5  1  0  0  0  0
  1  2  1  0  0  0  0
 18 19  2  0  0  0  0
 18 20  1  0  0  0  0
 16 17  1  0  0  0  0
 14 15  2  0  0  0  0
 14 16  1  0  0  0  0
 11 12  1  0  0  0  0
 11 13  1  0  0  0  0
 11 14  1  0  0  0  0
  9 10  1  0  0  0  0
  9 11  1  0  0  0  0
  9 18  1  0  0  0  0
  7  8  1  0  0  0  0
  7  9  1  0  0  0  0
 22 23  1  0  0  0  0
 22 24  1  0  0  0  0
 22 25  1  0  0  0  0
 20 21  1  0  0  0  0
 20 22  1  0  0  0  0
M  END
$$$$
default_name
  -OEChem-01062215323D

 25 24  0     1  0  0  0  0  0999 V2000
   -2.7826   -3.8464    0.7821 H   0  0  0  0  0  0  0  0  0  0  0  0
   -2.8156   -2.8034    0.4711 C   0  0  0  0  0  0  0  0  0  0  0  0
   -3.4336   -2.2354    1.1641 H   0  0  0  0  0  0  0  0  0  0  0  0
   -3.2256   -2.7344   -0.5349 H   0  0  0  0  0  0  0  0  0  0  0  0
   -1.4126   -2.2444    0.4801 C   0  0  0  0  0  0  0  0  0  0  0  0
   -0.4686   -2.9534    0.8001 O   0  0  0  0  0  0  0  0  0  0  0  0
   -1.2736   -0.9704    0.1241 N   0  0  0  0  0  0  0  0  0  0  0  0
   -2.0996   -0.4354   -0.1019 H   0  0  0  0  0  0  0  0  0  0  0  0
   -0.0016   -0.2394    0.1271 C   0  0  1  0  0  0  0  0  0  0  0  0
    0.2449    0.0222    1.1585 H   0  0  0  0  0  0  0  0  0  0  0  0
    1.1106   -1.1466   -0.4352 C   0  0  0  0  0  0  0  0  0  0  0  0
    0.7847   -1.5749   -1.3839 H   0  0  0  0  0  0  0  0  0  0  0  0
    2.0065   -0.5544   -0.6252 H   0  0  0  0  0  0  0  0  0  0  0  0
    1.4649   -2.3126    0.4827 C   0  0  0  0  0  0  0  0  0  0  0  0
    1.3662   -2.3144    1.7028 O   0  0  0  0  0  0  0  0  0  0  0  0
    1.9281   -3.4075   -0.1486 O   0  0  0  0  0  0  0  0  0  0  0  0
    2.0890   -4.0571    0.5365 H   0  0  0  0  0  0  0  0  0  0  0  0
   -0.1388    1.0654   -0.6826 C   0  0  0  0  0  0  0  0  0  0  0  0
    0.7436    1.3877   -1.4769 O   0  0  0  0  0  0  0  0  0  0  0  0
   -1.2275    1.8163   -0.4818 N   0  0  0  0  0  0  0  0  0  0  0  0
   -1.8775    1.5137    0.2364 H   0  0  0  0  0  0  0  0  0  0  0  0
   -1.5032    3.0726   -1.1755 C   0  0  0  0  0  0  0  0  0  0  0  0
   -1.4193    2.9245   -2.2544 H   0  0  0  0  0  0  0  0  0  0  0  0
   -2.5094    3.4197   -0.9373 H   0  0  0  0  0  0  0  0  0  0  0  0
   -0.7784    3.8291   -0.8698 H   0  0  0  0  0  0  0  0  0  0  0  0
  5  6  2  0  0  0  0
  5  7  1  0  0  0  0
  2  3  1  0  0  0  0
  2  4  1  0  0  0  0
  2  5  1  0  0  0  0
  1  2  1  0  0  0  0
 18 19  2  0  0  0  0
 18 20  1  0  0  0  0
 16 17  1  0  0  0  0
 14 15  2  0  0  0  0
 14 16  1  0  0  0  0
 11 12  1  0  0  0  0
 11 13  1  0  0  0  0
 11 14  1  0  0  0  0
  9 10  1  0  0  0  0
  9 11  1  0  0  0  0
  9 18  1  0  0  0  0
  7  8  1  0  0  0  0
  7  9  1  0  0  0  0
 22 23  1  0  0  0  0
 22 24  1  0  0  0  0
 22 25  1  0  0  0  0
 20 21  1  0  0  0  0
 20 22  1  0  0  0  0
M  END
$$$$
default_name
  -OEChem-01062215323D

 25 24  0     1  0  0  0  0  0999 V2000
   -2.7826   -3.8464    0.7821 H   0  0  0  0  0  0  0  0  0  0  0  0
   -2.8156   -2.8034    0.4711 C   0  0  0  0  0  0  0  0  0  0  0  0
   -3.4336   -2.2354    1.1641 H   0  0  0  0  0  0  0  0  0  0  0  0
   -3.2256   -2.7344   -0.5349 H   0  0  0  0  0  0  0  0  0  0  0  0
   -1.4126   -2.2444    0.4801 C   0  0  0  0  0  0  0  0  0  0  0  0
   -0.4686   -2.9534    0.8001 O   0  0  0  0  0  0  0  0  0  0  0  0
   -1.2736   -0.9704    0.1241 N   0  0  0  0  0  0  0  0  0  0  0  0
   -2.0996   -0.4354   -0.1019 H   0  0  0  0  0  0  0  0  0  0  0  0
   -0.0016   -0.2394    0.1271 C   0  0  1  0  0  0  0  0  0  0  0  0
    0.2449    0.0222    1.1585 H   0  0  0  0  0  0  0  0  0  0  0  0
    1.1106   -1.1466   -0.4352 C   0  0  0  0  0  0  0  0  0  0  0  0
    0.7847   -1.5749   -1.3839 H   0  0  0  0  0  0  0  0  0  0  0  0
    2.0065   -0.5544   -0.6252 H   0  0  0  0  0  0  0  0  0  0  0  0
    1.4649   -2.3126    0.4827 C   0  0  0  0  0  0  0  0  0  0  0  0
    1.3662   -2.3144    1.7028 O   0  0  0  0  0  0  0  0  0  0  0  0
    1.9281   -3.4075   -0.1486 O   0  0  0  0  0  0  0  0  0  0  0  0
    2.0890   -4.0571    0.5365 H   0  0  0  0  0  0  0  0  0  0  0  0
   -0.1388    1.0654   -0.6826 C   0  0  0  0  0  0  0  0  0  0  0  0
    0.5815    1.2562   -1.6615 O   0  0  0  0  0  0  0  0  0  0  0  0
   -1.0463    1.9614   -0.2787 N   0  0  0  0  0  0  0  0  0  0  0  0
   -1.5562    1.7574    0.5747 H   0  0  0  0  0  0  0  0  0  0  0  0
   -1.2981    3.2383   -0.9433 C   0  0  0  0  0  0  0  0  0  0  0  0
   -1.4749    3.0715   -2.0081 H   0  0  0  0  0  0  0  0  0  0  0  0
   -2.1715    3.7232   -0.5054 H   0  0  0  0  0  0  0  0  0  0  0  0
   -0.4295    3.8895   -0.8316 H   0  0  0  0  0  0  0  0  0  0  0  0
  5  6  2  0  0  0  0
  5  7  1  0  0  0  0
  2  3  1  0  0  0  0
  2  4  1  0  0  0  0
  2  5  1  0  0  0  0
  1  2  1  0  0  0  0
 18 19  2  0  0  0  0
 18 20  1  0  0  0  0
 16 17  1  0  0  0  0
 14 15  2  0  0  0  0
 14 16  1  0  0  0  0
 11 12  1  0  0  0  0
 11 13  1  0  0  0  0
 11 14  1  0  0  0  0
  9 10  1  0  0  0  0
  9 11  1  0  0  0  0
  9 18  1  0  0  0  0
  7  8  1  0  0  0  0
  7  9  1  0  0  0  0
 22 23  1  0  0  0  0
 22 24  1  0  0  0  0
 22 25  1  0  0  0  0
 20 21  1  0  0  0  0
 20 22  1  0  0  0  0
M  END
$$$$
default_name
  -OEChem-01062215323D

 25 24  0     1  0  0  0  0  0999 V2000
   -2.7826   -3.8464    0.7821 H   0  0  0  0  0  0  0  0  0  0  0  0
   -2.8156   -2.8034    0.4711 C   0  0  0  0  0  0  0  0  0  0  0  0
   -3.4336   -2.2354    1.1641 H   0  0  0  0  0  0  0  0  0  0  0  0
   -3.2256   -2.7344   -0.5349 H   0  0  0  0  0  0  0  0  0  0  0  0
   -1.4126   -2.2444    0.4801 C   0  0  0  0  0  0  0  0  0  0  0  0
   -0.4686   -2.9534    0.8001 O   0  0  0  0  0  0  0  0  0  0  0  0
   -1.2736   -0.9704    0.1241 N   0  0  0  0  0  0  0  0  0  0  0  0
   -2.0996   -0.4354   -0.1019 H   0  0  0  0  0  0  0  0  0  0  0  0
   -0.0016   -0.2394    0.1271 C   0  0  1  0  0  0  0  0  0  0  0  0
    0.2449    0.0222    1.1585 H   0  0  0  0  0  0  0  0  0  0  0  0
    1.1106   -1.1466   -0.4352 C   0  0  0  0  0  0  0  0  0  0  0  0
    0.7847   -1.5749   -1.3839 H   0  0  0  0  0  0  0  0  0  0  0  0
    2.0065   -0.5544   -0.6252 H   0  0  0  0  0  0  0  0  0  0  0  0
    1.4649   -2.3126    0.4827 C   0  0  0  0  0  0  0  0  0  0  0  0
    1.3662   -2.3144    1.7028 O   0  0  0  0  0  0  0  0  0  0  0  0
    1.9281   -3.4075   -0.1486 O   0  0  0  0  0  0  0  0  0  0  0  0
    2.0890   -4.0571    0.5365 H   0  0  0  0  0  0  0  0  0  0  0  0
   -0.1388    1.0654   -0.6826 C   0  0  0  0  0  0  0  0  0  0  0  0
    0.3666    1.1469   -1.8013 O   0  0  0  0  0  0  0  0  0  0  0  0
   -0.8070    2.0816   -0.1255 N   0  0  0  0  0  0  0  0  0  0  0  0
   -1.1386    1.9569    0.8255 H   0  0  0  0  0  0  0  0  0  0  0  0
   -1.0267    3.3758   -0.7676 C   0  0  0  0  0  0  0  0  0  0  0  0
   -1.4546    3.2267   -1.7614 H   0  0  0  0  0  0  0  0  0  0  0  0
   -1.7093    3.9804   -0.1691 H   0  0  0  0  0  0  0  0  0  0  0  0
   -0.0759    3.9013   -0.8725 H   0  0  0  0  0  0  0  0  0  0  0  0
  5  6  2  0  0  0  0
  5  7  1  0  0  0  0
  2  3  1  0  0  0  0
  2  4  1  0  0  0  0
  2  5  1  0  0  0  0
  1  2  1  0  0  0  0
 18 19  2  0  0  0  0
 18 20  1  0  0  0  0
 16 17  1  0  0  0  0
 14 15  2  0  0  0  0
 14 16  1  0  0  0  0
 11 12  1  0  0  0  0
 11 13  1  0  0  0  0
 11 14  1  0  0  0  0
  9 10  1  0  0  0  0
  9 11  1  0  0  0  0
  9 18  1  0  0  0  0
  7  8  1  0  0  0  0
  7  9  1  0  0  0  0
 22 23  1  0  0  0  0
 22 24  1  0  0  0  0
 22 25  1  0  0  0  0
 20 21  1  0  0  0  0
 20 22  1  0  0  0  0
M  END
$$$$
default_name
  -OEChem-01062215323D

 25 24  0     1  0  0  0  0  0999 V2000
   -2.7826   -3.8464    0.7821 H   0  0  0  0  0  0  0  0  0  0  0  0
   -2.8156   -2.8034    0.4711 C   0  0  0  0  0  0  0  0  0  0  0  0
   -3.4336   -2.2354    1.1641 H   0  0  0  0  0  0  0  0  0  0  0  0
   -3.2256   -2.7344   -0.5349 H   0  0  0  0  0  0  0  0  0  0  0  0
   -1.4126   -2.2444    0.4801 C   0  0  0  0  0  0  0  0  0  0  0  0
   -0.4686   -2.9534    0.8001 O   0  0  0  0  0  0  0  0  0  0  0  0
   -1.2736   -0.9704    0.1241 N   0  0  0  0  0  0  0  0  0  0  0  0
   -2.0996   -0.4354   -0.1019 H   0  0  0  0  0  0  0  0  0  0  0  0
   -0.0016   -0.2394    0.1271 C   0  0  1  0  0  0  0  0  0  0  0  0
    0.2449    0.0222    1.1585 H   0  0  0  0  0  0  0  0  0  0  0  0
    1.1106   -1.1466   -0.4352 C   0  0  0  0  0  0  0  0  0  0  0  0
    0.7847   -1.5749   -1.3839 H   0  0  0  0  0  0  0  0  0  0  0  0
    2.0065   -0.5544   -0.6252 H   0  0  0  0  0  0  0  0  0  0  0  0
    1.4649   -2.3126    0.4827 C   0  0  0  0  0  0  0  0  0  0  0  0
    1.3662   -2.3144    1.7028 O   0  0  0  0  0  0  0  0  0  0  0  0
    1.9281   -3.4075   -0.1486 O   0  0  0  0  0  0  0  0  0  0  0  0
    2.0890   -4.0571    0.5365 H   0  0  0  0  0  0  0  0  0  0  0  0
   -0.1388    1.0654   -0.6826 C   0  0  0  0  0  0  0  0  0  0  0  0
    0.1136    1.0673   -1.8867 O   0  0  0  0  0  0  0  0  0  0  0  0
   -0.5260    2.1687   -0.0327 N   0  0  0  0  0  0  0  0  0  0  0  0
   -0.6532    2.0986    0.9717 H   0  0  0  0  0  0  0  0  0  0  0  0
   -0.7073    3.4757   -0.6606 C   0  0  0  0  0  0  0  0  0  0  0  0
   -1.3600    3.3795   -1.5311 H   0  0  0  0  0  0  0  0  0  0  0  0
   -1.1541    4.1738    0.0484 H   0  0  0  0  0  0  0  0  0  0  0  0
    0.2583    3.8637   -0.9897 H   0  0  0  0  0  0  0  0  0  0  0  0
  5  6  2  0  0  0  0
  5  7  1  0  0  0  0
  2  3  1  0  0  0  0
  2  4  1  0  0  0  0
  2  5  1  0  0  0  0
  1  2  1  0  0  0  0
 18 19  2  0  0  0  0
 18 20  1  0  0  0  0
 16 17  1  0  0  0  0
 14 15  2  0  0  0  0
 14 16  1  0  0  0  0
 11 12  1  0  0  0  0
 11 13  1  0  0  0  0
 11 14  1  0  0  0  0
  9 10  1  0  0  0  0
  9 11  1  0  0  0  0
  9 18  1  0  0  0  0
  7  8  1  0  0  0  0
  7  9  1  0  0  0  0
 22 23  1  0  0  0  0
 22 24  1  0  0  0  0
 22 25  1  0  0  0  0
 20 21  1  0  0  0  0
 20 22  1  0  0  0  0
M  END
$$$$
default_name
  -OEChem-01062215323D

 25 24  0     1  0  0  0  0  0999 V2000
   -2.7826   -3.8464    0.7821 H   0  0  0  0  0  0  0  0  0  0  0  0
   -2.8156   -2.8034    0.4711 C   0  0  0  0  0  0  0  0  0  0  0  0
   -3.4336   -2.2354    1.1641 H   0  0  0  0  0  0  0  0  0  0  0  0
   -3.2256   -2.7344   -0.5349 H   0  0  0  0  0  0  0  0  0  0  0  0
   -1.4126   -2.2444    0.4801 C   0  0  0  0  0  0  0  0  0  0  0  0
   -0.4686   -2.9534    0.8001 O   0  0  0  0  0  0  0  0  0  0  0  0
   -1.2736   -0.9704    0.1241 N   0  0  0  0  0  0  0  0  0  0  0  0
   -2.0996   -0.4354   -0.1019 H   0  0  0  0  0  0  0  0  0  0  0  0
   -0.0016   -0.2394    0.1271 C   0  0  1  0  0  0  0  0  0  0  0  0
    0.2449    0.0222    1.1585 H   0  0  0  0  0  0  0  0  0  0  0  0
    1.1106   -1.1466   -0.4352 C   0  0  0  0  0  0  0  0  0  0  0  0
    0.7847   -1.5749   -1.3839 H   0  0  0  0  0  0  0  0  0  0  0  0
    2.0065   -0.5544   -0.6252 H   0  0  0  0  0  0  0  0  0  0  0  0
    1.4649   -2.3126    0.4827 C   0  0  0  0  0  0  0  0  0  0  0  0
    1.3662   -2.3144    1.7028 O   0  0  0  0  0  0  0  0  0  0  0  0
    1.9281   -3.4075   -0.1486 O   0  0  0  0  0  0  0  0  0  0  0  0
    2.0890   -4.0571    0.5365 H   0  0  0  0  0  0  0  0  0  0  0  0
   -0.1388    1.0654   -0.6826 C   0  0  0  0  0  0  0  0  0  0  0  0
   -0.1604    1.0228   -1.9119 O   0  0  0  0  0  0  0  0  0  0  0  0
   -0.2224    2.2168   -0.0066 N   0  0  0  0  0  0  0  0  0  0  0  0
   -0.1330    2.1729    1.0033 H   0  0  0  0  0  0  0  0  0  0  0  0
   -0.3618    3.5313   -0.6295 C   0  0  0  0  0  0  0  0  0  0  0  0
   -1.1973    3.5196   -1.3329 H   0  0  0  0  0  0  0  0  0  0  0  0
   -0.5440    4.2901    0.1326 H   0  0  0  0  0  0  0  0  0  0  0  0
    0.5503    3.7792   -1.1753 H   0  0  0  0  0  0  0  0  0  0  0  0
  5  6  2  0  0  0  0
  5  7  1  0  0  0  0
  2  3  1  0  0  0  0
  2  4  1  0  0  0  0
  2  5  1  0  0  0  0
  1  2  1  0  0  0  0
 18 19  2  0  0  0  0
 18 20  1  0  0  0  0
 16 17  1  0  0  0  0
 14 15  2  0  0  0  0
 14 16  1  0  0  0  0
 11 12  1  0  0  0  0
 11 13  1  0  0  0  0
 11 14  1  0  0  0  0
  9 10  1  0  0  0  0
  9 11  1  0  0  0  0
  9 18  1  0  0  0  0
  7  8  1  0  0  0  0
  7  9  1  0  0  0  0
 22 23  1  0  0  0  0
 22 24  1  0  0  0  0
 22 25  1  0  0  0  0
 20 21  1  0  0  0  0
 20 22  1  0  0  0  0
M  END
$$$$
default_name
  -OEChem-01062215323D

 25 24  0     1  0  0  0  0  0999 V2000
   -2.7826   -3.8464    0.7821 H   0  0  0  0  0  0  0  0  0  0  0  0
   -2.8156   -2.8034    0.4711 C   0  0  0  0  0  0  0  0  0  0  0  0
   -3.4336   -2.2354    1.1641 H   0  0  0  0  0  0  0  0  0  0  0  0
   -3.2256   -2.7344   -0.5349 H   0  0  0  0  0  0  0  0  0  0  0  0
   -1.4126   -2.2444    0.4801 C   0  0  0  0  0  0  0  0  0  0  0  0
   -0.4686   -2.9534    0.8001 O   0  0  0  0  0  0  0  0  0  0  0  0
   -1.2736   -0.9704    0.1241 N   0  0  0  0  0  0  0  0  0  0  0  0
   -2.0996   -0.4354   -0.1019 H   0  0  0  0  0  0  0  0  0  0  0  0
   -0.0016   -0.2394    0.1271 C   0  0  1  0  0  0  0  0  0  0  0  0
    0.2449    0.0222    1.1585 H   0  0  0  0  0  0  0  0  0  0  0  0
    1.1106   -1.1466   -0.4352 C   0  0  0  0  0  0  0  0  0  0  0  0
    0.7847   -1.5749   -1.3839 H   0  0  0  0  0  0  0  0  0  0  0  0
    2.0065   -0.5544   -0.6252 H   0  0  0  0  0  0  0  0  0  0  0  0
    1.4649   -2.3126    0.4827 C   0  0  0  0  0  0  0  0  0  0  0  0
    1.3662   -2.3144    1.7028 O   0  0  0  0  0  0  0  0  0  0  0  0
    1.9281   -3.4075   -0.1486 O   0  0  0  0  0  0  0  0  0  0  0  0
    2.0890   -4.0571    0.5365 H   0  0  0  0  0  0  0  0  0  0  0  0
   -0.1388    1.0654   -0.6826 C   0  0  0  0  0  0  0  0  0  0  0  0
   -0.4366    1.0165   -1.8753 O   0  0  0  0  0  0  0  0  0  0  0  0
    0.0832    2.2226   -0.0491 N   0  0  0  0  0  0  0  0  0  0  0  0
    0.3865    2.1747    0.9182 H   0  0  0  0  0  0  0  0  0  0  0  0
   -0.0137    3.5388   -0.6764 C   0  0  0  0  0  0  0  0  0  0  0  0
   -0.9777    3.6373   -1.1803 H   0  0  0  0  0  0  0  0  0  0  0  0
    0.0796    4.3215    0.0775 H   0  0  0  0  0  0  0  0  0  0  0  0
    0.7802    3.6537   -1.4165 H   0  0  0  0  0  0  0  0  0  0  0  0
  5  6  2  0  0  0  0
  5  7  1  0  0  0  0
  2  3  1  0  0  0  0
  2  4  1  0  0  0  0
  2  5  1  0  0  0  0
  1  2  1  0  0  0  0
 18 19  2  0  0  0  0
 18 20  1  0  0  0  0
 16 17  1  0  0  0  0
 14 15  2  0  0  0  0
 14 16  1  0  0  0  0
 11 12  1  0  0  0  0
 11 13  1  0  0  0  0
 11 14  1  0  0  0  0
  9 10  1  0  0  0  0
  9 11  1  0  0  0  0
  9 18  1  0  0  0  0
  7  8  1  0  0  0  0
  7  9  1  0  0  0  0
 22 23  1  0  0  0  0
 22 24  1  0  0  0  0
 22 25  1  0  0  0  0
 20 21  1  0  0  0  0
 20 22  1  0  0  0  0
M  END
$$$$
default_name
  -OEChem-01062215323D

 25 24  0     1  0  0  0  0  0999 V2000
   -2.7826   -3.8464    0.7821 H   0  0  0  0  0  0  0  0  0  0  0  0
   -2.8156   -2.8034    0.4711 C   0  0  0  0  0  0  0  0  0  0  0  0
   -3.4336   -2.2354    1.1641 H   0  0  0  0  0  0  0  0  0  0  0  0
   -3.2256   -2.7344   -0.5349 H   0  0  0  0  0  0  0  0  0  0  0  0
   -1.4126   -2.2444    0.4801 C   0  0  0  0  0  0  0  0  0  0  0  0
   -0.4686   -2.9534    0.8001 O   0  0  0  0  0  0  0  0  0  0  0  0
   -1.2736   -0.9704    0.1241 N   0  0  0  0  0  0  0  0  0  0  0  0
   -2.0996   -0.4354   -0.1019 H   0  0  0  0  0  0  0  0  0  0  0  0
   -0.0016   -0.2394    0.1271 C   0  0  1  0  0  0  0  0  0  0  0  0
    0.2449    0.0222    1.1585 H   0  0  0  0  0  0  0  0  0  0  0  0
    1.1106   -1.1466   -0.4352 C   0  0  0  0  0  0  0  0  0  0  0  0
    0.7847   -1.5749   -1.3839 H   0  0  0  0  0  0  0  0  0  0  0  0
    2.0065   -0.5544   -0.6252 H   0  0  0  0  0  0  0  0  0  0  0  0
    1.4649   -2.3126    0.4827 C   0  0  0  0  0  0  0  0  0  0  0  0
    1.3662   -2.3144    1.7028 O   0  0  0  0  0  0  0  0  0  0  0  0
    1.9281   -3.4075   -0.1486 O   0  0  0  0  0  0  0  0  0  0  0  0
    2.0890   -4.0571    0.5365 H   0  0  0  0  0  0  0  0  0  0  0  0
   -0.1388    1.0654   -0.6826 C   0  0  0  0  0  0  0  0  0  0  0  0
   -0.6962    1.0489   -1.7792 O   0  0  0  0  0  0  0  0  0  0  0  0
    0.3698    2.1856   -0.1571 N   0  0  0  0  0  0  0  0  0  0  0  0
    0.8699    2.1038    0.7221 H   0  0  0  0  0  0  0  0  0  0  0  0
    0.3133    3.4976   -0.7982 C   0  0  0  0  0  0  0  0  0  0  0  0
   -0.7162    3.7247   -1.0838 H   0  0  0  0  0  0  0  0  0  0  0  0
    0.6742    4.2657   -0.1130 H   0  0  0  0  0  0  0  0  0  0  0  0
    0.9324    3.4956   -1.6970 H   0  0  0  0  0  0  0  0  0  0  0  0
  5  6  2  0  0  0  0
  5  7  1  0  0  0  0
  2  3  1  0  0  0  0
  2  4  1  0  0  0  0
  2  5  1  0  0  0  0
  1  2  1  0  0  0  0
 18 19  2  0  0  0  0
 18 20  1  0  0  0  0
 16 17  1  0  0  0  0
 14 15  2  0  0  0  0
 14 16  1  0  0  0  0
 11 12  1  0  0  0  0
 11 13  1  0  0  0  0
 11 14  1  0  0  0  0
  9 10  1  0  0  0  0
  9 11  1  0  0  0  0
  9 18  1  0  0  0  0
  7  8  1  0  0  0  0
  7  9  1  0  0  0  0
 22 23  1  0  0  0  0
 22 24  1  0  0  0  0
 22 25  1  0  0  0  0
 20 21  1  0  0  0  0
 20 22  1  0  0  0  0
M  END
$$$$
default_name
  -OEChem-01062215323D

 25 24  0     1  0  0  0  0  0999 V2000
   -2.7826   -3.8464    0.7821 H   0  0  0  0  0  0  0  0  0  0  0  0
   -2.8156   -2.8034    0.4711 C   0  0  0  0  0  0  0  0  0  0  0  0
   -3.4336   -2.2354    1.1641 H   0  0  0  0  0  0  0  0  0  0  0  0
   -3.2256   -2.7344   -0.5349 H   0  0  0  0  0  0  0  0  0  0  0  0
   -1.4126   -2.2444    0.4801 C   0  0  0  0  0  0  0  0  0  0  0  0
   -0.4686   -2.9534    0.8001 O   0  0  0  0  0  0  0  0  0  0  0  0
   -1.2736   -0.9704    0.1241 N   0  0  0  0  0  0  0  0  0  0  0  0
   -2.0996   -0.4354   -0.1019 H   0  0  0  0  0  0  0  0  0  0  0  0
   -0.0016   -0.2394    0.1271 C   0  0  1  0  0  0  0  0  0  0  0  0
    0.2449    0.0222    1.1585 H   0  0  0  0  0  0  0  0  0  0  0  0
    1.1106   -1.1466   -0.4352 C   0  0  0  0  0  0  0  0  0  0  0  0
    0.7847   -1.5749   -1.3839 H   0  0  0  0  0  0  0  0  0  0  0  0
    2.0065   -0.5544   -0.6252 H   0  0  0  0  0  0  0  0  0  0  0  0
    1.4649   -2.3126    0.4827 C   0  0  0  0  0  0  0  0  0  0  0  0
    1.3662   -2.3144    1.7028 O   0  0  0  0  0  0  0  0  0  0  0  0
    1.9281   -3.4075   -0.1486 O   0  0  0  0  0  0  0  0  0  0  0  0
    2.0890   -4.0571    0.5365 H   0  0  0  0  0  0  0  0  0  0  0  0
   -0.1388    1.0654   -0.6826 C   0  0  0  0  0  0  0  0  0  0  0  0
   -0.9215    1.1176   -1.6303 O   0  0  0  0  0  0  0  0  0  0  0  0
    0.6179    2.1085   -0.3234 N   0  0  0  0  0  0  0  0  0  0  0  0
    1.2842    1.9652    0.4285 H   0  0  0  0  0  0  0  0  0  0  0  0
    0.5968    3.4106   -0.9864 C   0  0  0  0  0  0  0  0  0  0  0  0
   -0.4305    3.7758   -1.0498 H   0  0  0  0  0  0  0  0  0  0  0  0
    1.1991    4.1267   -0.4260 H   0  0  0  0  0  0  0  0  0  0  0  0
    0.9964    3.3158   -1.9976 H   0  0  0  0  0  0  0  0  0  0  0  0
  5  6  2  0  0  0  0
  5  7  1  0  0  0  0
  2  3  1  0  0  0  0
  2  4  1  0  0  0  0
  2  5  1  0  0  0  0
  1  2  1  0  0  0  0
 18 19  2  0  0  0  0
 18 20  1  0  0  0  0
 16 17  1  0  0  0  0
 14 15  2  0  0  0  0
 14 16  1  0  0  0  0
 11 12  1  0  0  0  0
 11 13  1  0  0  0  0
 11 14  1  0  0  0  0
  9 10  1  0  0  0  0
  9 11  1  0  0  0  0
  9 18  1  0  0  0  0
  7  8  1  0  0  0  0
  7  9  1  0  0  0  0
 22 23  1  0  0  0  0
 22 24  1  0  0  0  0
 22 25  1  0  0  0  0
 20 21  1  0  0  0  0
 20 22  1  0  0  0  0
M  END
$$$$
default_name
  -OEChem-01062215323D

 25 24  0     1  0  0  0  0  0999 V2000
   -2.7826   -3.8464    0.7821 H   0  0  0  0  0  0  0  0  0  0  0  0
   -2.8156   -2.8034    0.4711 C   0  0  0  0  0  0  0  0  0  0  0  0
   -3.4336   -2.2354    1.1641 H   0  0  0  0  0  0  0  0  0  0  0  0
   -3.2256   -2.7344   -0.5349 H   0  0  0  0  0  0  0  0  0  0  0  0
   -1.4126   -2.2444    0.4801 C   0  0  0  0  0  0  0  0  0  0  0  0
   -0.4686   -2.9534    0.8001 O   0  0  0  0  0  0  0  0  0  0  0  0
   -1.2736   -0.9704    0.1241 N   0  0  0  0  0  0  0  0  0  0  0  0
   -2.0996   -0.4354   -0.1019 H   0  0  0  0  0  0  0  0  0  0  0  0
   -0.0016   -0.2394    0.1271 C   0  0  1  0  0  0  0  0  0  0  0  0
    0.2449    0.0222    1.1585 H   0  0  0  0  0  0  0  0  0  0  0  0
    1.1106   -1.1466   -0.4352 C   0  0  0  0  0  0  0  0  0  0  0  0
    0.7847   -1.5749   -1.3839 H   0  0  0  0  0  0  0  0  0  0  0  0
    2.0065   -0.5544   -0.6252 H   0  0  0  0  0  0  0  0  0  0  0  0
    1.4649   -2.3126    0.4827 C   0  0  0  0  0  0  0  0  0  0  0  0
    1.3662   -2.3144    1.7028 O   0  0  0  0  0  0  0  0  0  0  0  0
    1.9281   -3.4075   -0.1486 O   0  0  0  0  0  0  0  0  0  0  0  0
    2.0890   -4.0571    0.5365 H   0  0  0  0  0  0  0  0  0  0  0  0
   -0.1388    1.0654   -0.6826 C   0  0  0  0  0  0  0  0  0  0  0  0
   -1.0972    1.2180   -1.4387 O   0  0  0  0  0  0  0  0  0  0  0  0
    0.8107    1.9965   -0.5367 N   0  0  0  0  0  0  0  0  0  0  0  0
    1.6012    1.7682    0.0573 H   0  0  0  0  0  0  0  0  0  0  0  0
    0.8177    3.2837   -1.2284 C   0  0  0  0  0  0  0  0  0  0  0  0
   -0.1402    3.7871   -1.0807 H   0  0  0  0  0  0  0  0  0  0  0  0
    1.6188    3.9138   -0.8401 H   0  0  0  0  0  0  0  0  0  0  0  0
    0.9680    3.1265   -2.2979 H   0  0  0  0  0  0  0  0  0  0  0  0
  5  6  2  0  0  0  0
  5  7  1  0  0  0  0
  2  3  1  0  0  0  0
  2  4  1  0  0  0  0
  2  5  1  0  0  0  0
  1  2  1  0  0  0  0
 18 19  2  0  0  0  0
 18 20  1  0  0  0  0
 16 17  1  0  0  0  0
 14 15  2  0  0  0  0
 14 16  1  0  0  0  0
 11 12  1  0  0  0  0
 11 13  1  0  0  0  0
 11 14  1  0  0  0  0
  9 10  1  0  0  0  0
  9 11  1  0  0  0  0
  9 18  1  0  0  0  0
  7  8  1  0  0  0  0
  7  9  1  0  0  0  0
 22 23  1  0  0  0  0
 22 24  1  0  0  0  0
 22 25  1  0  0  0  0
 20 21  1  0  0  0  0
 20 22  1  0  0  0  0
M  END
$$$$
