
  -OEChem-01062216063D

 25 24  0     1  0  0  0  0  0999 V2000
   -3.1559   -3.2272    0.9840 H   0  0  0  0  0  0  0  0  0  0  0  0
   -2.9924   -2.1877    0.6863 C   0  0  0  0  0  0  0  0  0  0  0  0
   -3.5362   -1.5359    1.3744 H   0  0  0  0  0  0  0  0  0  0  0  0
   -3.3824   -2.0461   -0.3246 H   0  0  0  0  0  0  0  0  0  0  0  0
   -1.5116   -1.8568    0.7214 C   0  0  0  0  0  0  0  0  0  0  0  0
   -0.7337   -2.7411    1.0164 O   0  0  0  0  0  0  0  0  0  0  0  0
   -1.1318   -0.5700    0.3893 N   0  0  0  0  0  0  0  0  0  0  0  0
   -1.9175    0.0359    0.1466 H   0  0  0  0  0  0  0  0  0  0  0  0
    0.1686    0.1411    0.3383 C   0  0  1  0  0  0  0  0  0  0  0  0
    0.5486    0.2001    1.3641 H   0  0  0  0  0  0  0  0  0  0  0  0
    1.2706   -0.5252   -0.5328 C   0  0  0  0  0  0  0  0  0  0  0  0
    0.8441   -0.7142   -1.5218 H   0  0  0  0  0  0  0  0  0  0  0  0
    2.1064    0.1642   -0.6658 H   0  0  0  0  0  0  0  0  0  0  0  0
    1.8808   -1.8317   -0.0365 C   0  0  0  0  0  0  0  0  0  0  0  0
    1.9385   -2.0437    1.1629 O   0  0  0  0  0  0  0  0  0  0  0  0
    2.3508   -2.6900   -0.9704 O   0  0  0  0  0  0  0  0  0  0  0  0
    2.6282   -3.4767   -0.4756 H   0  0  0  0  0  0  0  0  0  0  0  0
   -0.0731    1.6007   -0.1203 C   0  0  0  0  0  0  0  0  0  0  0  0
   -1.2125    1.9870   -0.3609 O   0  0  0  0  0  0  0  0  0  0  0  0
    0.9739    2.4959   -0.2547 N   0  0  0  0  0  0  0  0  0  0  0  0
    1.9045    2.1761   -0.0026 H   0  0  0  0  0  0  0  0  0  0  0  0
    0.7920    3.8877   -0.6515 C   0  0  0  0  0  0  0  0  0  0  0  0
    0.1517    4.4108    0.0667 H   0  0  0  0  0  0  0  0  0  0  0  0
    1.7582    4.3999   -0.6901 H   0  0  0  0  0  0  0  0  0  0  0  0
    0.3303    3.9467   -1.6429 H   0  0  0  0  0  0  0  0  0  0  0  0
  1  2  1  0  0  0  0
  2  3  1  0  0  0  0
  2  4  1  0  0  0  0
  2  5  1  0  0  0  0
  5  6  2  0  0  0  0
  5  7  1  0  0  0  0
  7  8  1  0  0  0  0
  7  9  1  0  0  0  0
  9 10  1  0  0  0  0
  9 11  1  0  0  0  0
  9 18  1  0  0  0  0
 11 12  1  0  0  0  0
 11 13  1  0  0  0  0
 11 14  1  0  0  0  0
 14 15  2  0  0  0  0
 14 16  1  0  0  0  0
 16 17  1  0  0  0  0
 18 19  2  0  0  0  0
 18 20  1  0  0  0  0
 20 21  1  0  0  0  0
 20 22  1  0  0  0  0
 22 23  1  0  0  0  0
 22 24  1  0  0  0  0
 22 25  1  0  0  0  0
M  END
$$$$

  -OEChem-01062216063D

 25 24  0     1  0  0  0  0  0999 V2000
   -3.1710   -3.1959    1.0258 H   0  0  0  0  0  0  0  0  0  0  0  0
   -3.0041   -2.1590    0.7201 C   0  0  0  0  0  0  0  0  0  0  0  0
   -3.4721   -1.4984    1.4538 H   0  0  0  0  0  0  0  0  0  0  0  0
   -3.4714   -1.9996   -0.2545 H   0  0  0  0  0  0  0  0  0  0  0  0
   -1.5166   -1.8685    0.6345 C   0  0  0  0  0  0  0  0  0  0  0  0
   -0.7440   -2.7937    0.7843 O   0  0  0  0  0  0  0  0  0  0  0  0
   -1.1283   -0.5774    0.3271 N   0  0  0  0  0  0  0  0  0  0  0  0
   -1.9153    0.0610    0.1983 H   0  0  0  0  0  0  0  0  0  0  0  0
    0.1780    0.1257    0.2982 C   0  0  1  0  0  0  0  0  0  0  0  0
    0.5365    0.1813    1.3318 H   0  0  0  0  0  0  0  0  0  0  0  0
    1.3035   -0.5488   -0.5378 C   0  0  0  0  0  0  0  0  0  0  0  0
    0.9081   -0.7443   -1.5385 H   0  0  0  0  0  0  0  0  0  0  0  0
    2.1495    0.1312   -0.6460 H   0  0  0  0  0  0  0  0  0  0  0  0
    1.8916   -1.8513   -0.0049 C   0  0  0  0  0  0  0  0  0  0  0  0
    1.9094   -2.0467    1.1993 O   0  0  0  0  0  0  0  0  0  0  0  0
    2.3955   -2.7198   -0.9112 O   0  0  0  0  0  0  0  0  0  0  0  0
    2.6434   -3.5053   -0.3994 H   0  0  0  0  0  0  0  0  0  0  0  0
   -0.0626    1.5945   -0.1393 C   0  0  0  0  0  0  0  0  0  0  0  0
   -1.2029    2.0476   -0.1352 O   0  0  0  0  0  0  0  0  0  0  0  0
    0.9699    2.4195   -0.5521 N   0  0  0  0  0  0  0  0  0  0  0  0
    1.9125    2.0426   -0.5353 H   0  0  0  0  0  0  0  0  0  0  0  0
    0.7745    3.8030   -0.9709 C   0  0  0  0  0  0  0  0  0  0  0  0
    0.3220    4.3881   -0.1632 H   0  0  0  0  0  0  0  0  0  0  0  0
    1.7345    4.2591   -1.2312 H   0  0  0  0  0  0  0  0  0  0  0  0
    0.1211    3.8489   -1.8485 H   0  0  0  0  0  0  0  0  0  0  0  0
  1  2  1  0  0  0  0
  2  3  1  0  0  0  0
  2  4  1  0  0  0  0
  2  5  1  0  0  0  0
  5  6  2  0  0  0  0
  5  7  1  0  0  0  0
  7  8  1  0  0  0  0
  7  9  1  0  0  0  0
  9 10  1  0  0  0  0
  9 11  1  0  0  0  0
  9 18  1  0  0  0  0
 11 12  1  0  0  0  0
 11 13  1  0  0  0  0
 11 14  1  0  0  0  0
 14 15  2  0  0  0  0
 14 16  1  0  0  0  0
 16 17  1  0  0  0  0
 18 19  2  0  0  0  0
 18 20  1  0  0  0  0
 20 21  1  0  0  0  0
 20 22  1  0  0  0  0
 22 23  1  0  0  0  0
 22 24  1  0  0  0  0
 22 25  1  0  0  0  0
M  END
$$$$

  -OEChem-01062216063D

 25 24  0     1  0  0  0  0  0999 V2000
   -3.1678   -3.1738    1.0461 H   0  0  0  0  0  0  0  0  0  0  0  0
   -3.0042   -2.1352    0.7452 C   0  0  0  0  0  0  0  0  0  0  0  0
   -3.4086   -1.4785    1.5194 H   0  0  0  0  0  0  0  0  0  0  0  0
   -3.5341   -1.9520   -0.1926 H   0  0  0  0  0  0  0  0  0  0  0  0
   -1.5214   -1.8690    0.5622 C   0  0  0  0  0  0  0  0  0  0  0  0
   -0.7601   -2.8158    0.5974 O   0  0  0  0  0  0  0  0  0  0  0  0
   -1.1289   -0.5754    0.2715 N   0  0  0  0  0  0  0  0  0  0  0  0
   -1.9097    0.0824    0.2394 H   0  0  0  0  0  0  0  0  0  0  0  0
    0.1852    0.1124    0.2635 C   0  0  1  0  0  0  0  0  0  0  0  0
    0.5229    0.1674    1.3042 H   0  0  0  0  0  0  0  0  0  0  0  0
    1.3318   -0.5687   -0.5369 C   0  0  0  0  0  0  0  0  0  0  0  0
    0.9697   -0.7687   -1.5491 H   0  0  0  0  0  0  0  0  0  0  0  0
    2.1847    0.1071   -0.6142 H   0  0  0  0  0  0  0  0  0  0  0  0
    1.8953   -1.8691    0.0276 C   0  0  0  0  0  0  0  0  0  0  0  0
    1.8734   -2.0530    1.2341 O   0  0  0  0  0  0  0  0  0  0  0  0
    2.4273   -2.7465   -0.8537 O   0  0  0  0  0  0  0  0  0  0  0  0
    2.6511   -3.5301   -0.3280 H   0  0  0  0  0  0  0  0  0  0  0  0
   -0.0524    1.5849   -0.1607 C   0  0  0  0  0  0  0  0  0  0  0  0
   -1.1371    2.1047    0.0796 O   0  0  0  0  0  0  0  0  0  0  0  0
    0.8956    2.3315   -0.8396 N   0  0  0  0  0  0  0  0  0  0  0  0
    1.7765    1.8822   -1.0689 H   0  0  0  0  0  0  0  0  0  0  0  0
    0.6725    3.7043   -1.2792 C   0  0  0  0  0  0  0  0  0  0  0  0
    0.4303    4.3461   -0.4254 H   0  0  0  0  0  0  0  0  0  0  0  0
    1.5725    4.0981   -1.7615 H   0  0  0  0  0  0  0  0  0  0  0  0
   -0.1529    3.7474   -1.9977 H   0  0  0  0  0  0  0  0  0  0  0  0
  1  2  1  0  0  0  0
  2  3  1  0  0  0  0
  2  4  1  0  0  0  0
  2  5  1  0  0  0  0
  5  6  2  0  0  0  0
  5  7  1  0  0  0  0
  7  8  1  0  0  0  0
  7  9  1  0  0  0  0
  9 10  1  0  0  0  0
  9 11  1  0  0  0  0
  9 18  1  0  0  0  0
 11 12  1  0  0  0  0
 11 13  1  0  0  0  0
 11 14  1  0  0  0  0
 14 15  2  0  0  0  0
 14 16  1  0  0  0  0
 16 17  1  0  0  0  0
 18 19  2  0  0  0  0
 18 20  1  0  0  0  0
 20 21  1  0  0  0  0
 20 22  1  0  0  0  0
 22 23  1  0  0  0  0
 22 24  1  0  0  0  0
 22 25  1  0  0  0  0
M  END
$$$$

  -OEChem-01062216063D

 25 24  0     1  0  0  0  0  0999 V2000
   -3.1482   -3.1691    1.0768 H   0  0  0  0  0  0  0  0  0  0  0  0
   -2.9985   -2.1296    0.7717 C   0  0  0  0  0  0  0  0  0  0  0  0
   -3.3571   -1.4758    1.5705 H   0  0  0  0  0  0  0  0  0  0  0  0
   -3.5790   -1.9402   -0.1344 H   0  0  0  0  0  0  0  0  0  0  0  0
   -1.5273   -1.8672    0.5075 C   0  0  0  0  0  0  0  0  0  0  0  0
   -0.7744   -2.8201    0.4508 O   0  0  0  0  0  0  0  0  0  0  0  0
   -1.1397   -0.5696    0.2275 N   0  0  0  0  0  0  0  0  0  0  0  0
   -1.9152    0.0931    0.2661 H   0  0  0  0  0  0  0  0  0  0  0  0
    0.1794    0.1071    0.2407 C   0  0  1  0  0  0  0  0  0  0  0  0
    0.4972    0.1584    1.2880 H   0  0  0  0  0  0  0  0  0  0  0  0
    1.3454   -0.5711   -0.5322 C   0  0  0  0  0  0  0  0  0  0  0  0
    1.0101   -0.7724   -1.5533 H   0  0  0  0  0  0  0  0  0  0  0  0
    2.1974    0.1101   -0.5832 H   0  0  0  0  0  0  0  0  0  0  0  0
    1.8941   -1.8712    0.0481 C   0  0  0  0  0  0  0  0  0  0  0  0
    1.8406   -2.0548    1.2540 O   0  0  0  0  0  0  0  0  0  0  0  0
    2.4516   -2.7476   -0.8187 O   0  0  0  0  0  0  0  0  0  0  0  0
    2.6605   -3.5318   -0.2880 H   0  0  0  0  0  0  0  0  0  0  0  0
   -0.0468    1.5808   -0.1760 C   0  0  0  0  0  0  0  0  0  0  0  0
   -1.0323    2.1680    0.2555 O   0  0  0  0  0  0  0  0  0  0  0  0
    0.7640    2.2345   -1.0880 N   0  0  0  0  0  0  0  0  0  0  0  0
    1.5204    1.7041   -1.5092 H   0  0  0  0  0  0  0  0  0  0  0  0
    0.5082    3.5903   -1.5609 C   0  0  0  0  0  0  0  0  0  0  0  0
    0.4816    4.2910   -0.7197 H   0  0  0  0  0  0  0  0  0  0  0  0
    1.2987    3.9073   -2.2479 H   0  0  0  0  0  0  0  0  0  0  0  0
   -0.4500    3.6378   -2.0891 H   0  0  0  0  0  0  0  0  0  0  0  0
  1  2  1  0  0  0  0
  2  3  1  0  0  0  0
  2  4  1  0  0  0  0
  2  5  1  0  0  0  0
  5  6  2  0  0  0  0
  5  7  1  0  0  0  0
  7  8  1  0  0  0  0
  7  9  1  0  0  0  0
  9 10  1  0  0  0  0
  9 11  1  0  0  0  0
  9 18  1  0  0  0  0
 11 12  1  0  0  0  0
 11 13  1  0  0  0  0
 11 14  1  0  0  0  0
 14 15  2  0  0  0  0
 14 16  1  0  0  0  0
 16 17  1  0  0  0  0
 18 19  2  0  0  0  0
 18 20  1  0  0  0  0
 20 21  1  0  0  0  0
 20 22  1  0  0  0  0
 22 23  1  0  0  0  0
 22 24  1  0  0  0  0
 22 25  1  0  0  0  0
M  END
$$$$

  -OEChem-01062216063D

 25 24  0     1  0  0  0  0  0999 V2000
   -3.1365   -3.1904    1.0544 H   0  0  0  0  0  0  0  0  0  0  0  0
   -2.9927   -2.1368    0.7984 C   0  0  0  0  0  0  0  0  0  0  0  0
   -3.3094   -1.5247    1.6464 H   0  0  0  0  0  0  0  0  0  0  0  0
   -3.6127   -1.8965   -0.0686 H   0  0  0  0  0  0  0  0  0  0  0  0
   -1.5329   -1.8682    0.4824 C   0  0  0  0  0  0  0  0  0  0  0  0
   -0.7810   -2.8180    0.3789 O   0  0  0  0  0  0  0  0  0  0  0  0
   -1.1570   -0.5677    0.2003 N   0  0  0  0  0  0  0  0  0  0  0  0
   -1.9321    0.0904    0.2806 H   0  0  0  0  0  0  0  0  0  0  0  0
    0.1622    0.1071    0.2243 C   0  0  1  0  0  0  0  0  0  0  0  0
    0.4683    0.1599    1.2753 H   0  0  0  0  0  0  0  0  0  0  0  0
    1.3417   -0.5640   -0.5318 C   0  0  0  0  0  0  0  0  0  0  0  0
    1.0192   -0.7723   -1.5556 H   0  0  0  0  0  0  0  0  0  0  0  0
    2.1858    0.1285   -0.5757 H   0  0  0  0  0  0  0  0  0  0  0  0
    1.8904   -1.8609    0.0556 C   0  0  0  0  0  0  0  0  0  0  0  0
    1.8217   -2.0457    1.2606 O   0  0  0  0  0  0  0  0  0  0  0  0
    2.4707   -2.7300   -0.8035 O   0  0  0  0  0  0  0  0  0  0  0  0
    2.6859   -3.5097   -0.2689 H   0  0  0  0  0  0  0  0  0  0  0  0
   -0.0530    1.5782   -0.1961 C   0  0  0  0  0  0  0  0  0  0  0  0
   -0.9002    2.2375    0.3930 O   0  0  0  0  0  0  0  0  0  0  0  0
    0.5661    2.1286   -1.3050 N   0  0  0  0  0  0  0  0  0  0  0  0
    1.1797    1.5264   -1.8458 H   0  0  0  0  0  0  0  0  0  0  0  0
    0.2896    3.4746   -1.7935 C   0  0  0  0  0  0  0  0  0  0  0  0
    0.4789    4.2138   -1.0080 H   0  0  0  0  0  0  0  0  0  0  0  0
    0.9338    3.7073   -2.6469 H   0  0  0  0  0  0  0  0  0  0  0  0
   -0.7542    3.5595   -2.1133 H   0  0  0  0  0  0  0  0  0  0  0  0
  1  2  1  0  0  0  0
  2  3  1  0  0  0  0
  2  4  1  0  0  0  0
  2  5  1  0  0  0  0
  5  6  2  0  0  0  0
  5  7  1  0  0  0  0
  7  8  1  0  0  0  0
  7  9  1  0  0  0  0
  9 10  1  0  0  0  0
  9 11  1  0  0  0  0
  9 18  1  0  0  0  0
 11 12  1  0  0  0  0
 11 13  1  0  0  0  0
 11 14  1  0  0  0  0
 14 15  2  0  0  0  0
 14 16  1  0  0  0  0
 16 17  1  0  0  0  0
 18 19  2  0  0  0  0
 18 20  1  0  0  0  0
 20 21  1  0  0  0  0
 20 22  1  0  0  0  0
 22 23  1  0  0  0  0
 22 24  1  0  0  0  0
 22 25  1  0  0  0  0
M  END
$$$$

  -OEChem-01062216063D

 25 24  0     1  0  0  0  0  0999 V2000
   -3.1146   -3.2015    1.0864 H   0  0  0  0  0  0  0  0  0  0  0  0
   -2.9859   -2.1491    0.8177 C   0  0  0  0  0  0  0  0  0  0  0  0
   -3.2924   -1.5320    1.6659 H   0  0  0  0  0  0  0  0  0  0  0  0
   -3.6250   -1.9232   -0.0392 H   0  0  0  0  0  0  0  0  0  0  0  0
   -1.5348   -1.8702    0.4712 C   0  0  0  0  0  0  0  0  0  0  0  0
   -0.7817   -2.8152    0.3372 O   0  0  0  0  0  0  0  0  0  0  0  0
   -1.1710   -0.5669    0.1852 N   0  0  0  0  0  0  0  0  0  0  0  0
   -1.9486    0.0835    0.2909 H   0  0  0  0  0  0  0  0  0  0  0  0
    0.1468    0.1107    0.2158 C   0  0  1  0  0  0  0  0  0  0  0  0
    0.4462    0.1631    1.2690 H   0  0  0  0  0  0  0  0  0  0  0  0
    1.3350   -0.5517   -0.5332 C   0  0  0  0  0  0  0  0  0  0  0  0
    1.0196   -0.7658   -1.5578 H   0  0  0  0  0  0  0  0  0  0  0  0
    2.1709    0.1515   -0.5771 H   0  0  0  0  0  0  0  0  0  0  0  0
    1.8879   -1.8464    0.0553 C   0  0  0  0  0  0  0  0  0  0  0  0
    1.8126   -2.0348    1.2594 O   0  0  0  0  0  0  0  0  0  0  0  0
    2.4743   -2.7125   -0.8030 O   0  0  0  0  0  0  0  0  0  0  0  0
    2.6874   -3.4935   -0.2696 H   0  0  0  0  0  0  0  0  0  0  0  0
   -0.0577    1.5795   -0.2084 C   0  0  0  0  0  0  0  0  0  0  0  0
   -0.7210    2.3132    0.5116 O   0  0  0  0  0  0  0  0  0  0  0  0
    0.3198    2.0336   -1.4599 N   0  0  0  0  0  0  0  0  0  0  0  0
    0.7621    1.3663   -2.0852 H   0  0  0  0  0  0  0  0  0  0  0  0
    0.0155    3.3708   -1.9555 C   0  0  0  0  0  0  0  0  0  0  0  0
    0.4253    4.1316   -1.2827 H   0  0  0  0  0  0  0  0  0  0  0  0
    0.4550    3.5157   -2.9471 H   0  0  0  0  0  0  0  0  0  0  0  0
   -1.0675    3.5143   -2.0315 H   0  0  0  0  0  0  0  0  0  0  0  0
  1  2  1  0  0  0  0
  2  3  1  0  0  0  0
  2  4  1  0  0  0  0
  2  5  1  0  0  0  0
  5  6  2  0  0  0  0
  5  7  1  0  0  0  0
  7  8  1  0  0  0  0
  7  9  1  0  0  0  0
  9 10  1  0  0  0  0
  9 11  1  0  0  0  0
  9 18  1  0  0  0  0
 11 12  1  0  0  0  0
 11 13  1  0  0  0  0
 11 14  1  0  0  0  0
 14 15  2  0  0  0  0
 14 16  1  0  0  0  0
 16 17  1  0  0  0  0
 18 19  2  0  0  0  0
 18 20  1  0  0  0  0
 20 21  1  0  0  0  0
 20 22  1  0  0  0  0
 22 23  1  0  0  0  0
 22 24  1  0  0  0  0
 22 25  1  0  0  0  0
M  END
$$$$

  -OEChem-01062216063D

 25 24  0     1  0  0  0  0  0999 V2000
   -3.0999   -3.2324    1.0764 H   0  0  0  0  0  0  0  0  0  0  0  0
   -2.9782   -2.1709    0.8423 C   0  0  0  0  0  0  0  0  0  0  0  0
   -3.2596   -1.5848    1.7206 H   0  0  0  0  0  0  0  0  0  0  0  0
   -3.6411   -1.9145    0.0125 H   0  0  0  0  0  0  0  0  0  0  0  0
   -1.5373   -1.8796    0.4656 C   0  0  0  0  0  0  0  0  0  0  0  0
   -0.7801   -2.8179    0.3094 O   0  0  0  0  0  0  0  0  0  0  0  0
   -1.1907   -0.5731    0.1720 N   0  0  0  0  0  0  0  0  0  0  0  0
   -1.9752    0.0657    0.2878 H   0  0  0  0  0  0  0  0  0  0  0  0
    0.1220    0.1148    0.2093 C   0  0  1  0  0  0  0  0  0  0  0  0
    0.4155    0.1692    1.2643 H   0  0  0  0  0  0  0  0  0  0  0  0
    1.3194   -0.5337   -0.5349 C   0  0  0  0  0  0  0  0  0  0  0  0
    1.0127   -0.7487   -1.5615 H   0  0  0  0  0  0  0  0  0  0  0  0
    2.1459    0.1809   -0.5750 H   0  0  0  0  0  0  0  0  0  0  0  0
    1.8819   -1.8247    0.0528 C   0  0  0  0  0  0  0  0  0  0  0  0
    1.8023   -2.0174    1.2561 O   0  0  0  0  0  0  0  0  0  0  0  0
    2.4767   -2.6852   -0.8055 O   0  0  0  0  0  0  0  0  0  0  0  0
    2.6979   -3.4639   -0.2721 H   0  0  0  0  0  0  0  0  0  0  0  0
   -0.0782    1.5794   -0.2245 C   0  0  0  0  0  0  0  0  0  0  0  0
   -0.4957    2.3922    0.5876 O   0  0  0  0  0  0  0  0  0  0  0  0
    0.0236    1.9484   -1.5537 N   0  0  0  0  0  0  0  0  0  0  0  0
    0.2668    1.2232   -2.2224 H   0  0  0  0  0  0  0  0  0  0  0  0
   -0.2802    3.2886   -2.0412 C   0  0  0  0  0  0  0  0  0  0  0  0
    0.3358    4.0329   -1.5253 H   0  0  0  0  0  0  0  0  0  0  0  0
   -0.0757    3.3567   -3.1140 H   0  0  0  0  0  0  0  0  0  0  0  0
   -1.3356    3.5274   -1.8732 H   0  0  0  0  0  0  0  0  0  0  0  0
  1  2  1  0  0  0  0
  2  3  1  0  0  0  0
  2  4  1  0  0  0  0
  2  5  1  0  0  0  0
  5  6  2  0  0  0  0
  5  7  1  0  0  0  0
  7  8  1  0  0  0  0
  7  9  1  0  0  0  0
  9 10  1  0  0  0  0
  9 11  1  0  0  0  0
  9 18  1  0  0  0  0
 11 12  1  0  0  0  0
 11 13  1  0  0  0  0
 11 14  1  0  0  0  0
 14 15  2  0  0  0  0
 14 16  1  0  0  0  0
 16 17  1  0  0  0  0
 18 19  2  0  0  0  0
 18 20  1  0  0  0  0
 20 21  1  0  0  0  0
 20 22  1  0  0  0  0
 22 23  1  0  0  0  0
 22 24  1  0  0  0  0
 22 25  1  0  0  0  0
M  END
$$$$

  -OEChem-01062216063D

 25 24  0     1  0  0  0  0  0999 V2000
   -3.0742   -3.2558    1.1396 H   0  0  0  0  0  0  0  0  0  0  0  0
   -2.9781   -2.2025    0.8602 C   0  0  0  0  0  0  0  0  0  0  0  0
   -3.2776   -1.5870    1.7121 H   0  0  0  0  0  0  0  0  0  0  0  0
   -3.6441   -1.9989    0.0183 H   0  0  0  0  0  0  0  0  0  0  0  0
   -1.5432   -1.8927    0.4744 C   0  0  0  0  0  0  0  0  0  0  0  0
   -0.7777   -2.8219    0.3076 O   0  0  0  0  0  0  0  0  0  0  0  0
   -1.2137   -0.5828    0.1745 N   0  0  0  0  0  0  0  0  0  0  0  0
   -2.0070    0.0445    0.2890 H   0  0  0  0  0  0  0  0  0  0  0  0
    0.0935    0.1181    0.2144 C   0  0  1  0  0  0  0  0  0  0  0  0
    0.3875    0.1716    1.2698 H   0  0  0  0  0  0  0  0  0  0  0  0
    1.2968   -0.5107   -0.5358 C   0  0  0  0  0  0  0  0  0  0  0  0
    0.9936   -0.7174   -1.5651 H   0  0  0  0  0  0  0  0  0  0  0  0
    2.1146    0.2143   -0.5694 H   0  0  0  0  0  0  0  0  0  0  0  0
    1.8757   -1.7998    0.0393 C   0  0  0  0  0  0  0  0  0  0  0  0
    1.8006   -2.0042    1.2410 O   0  0  0  0  0  0  0  0  0  0  0  0
    2.4786   -2.6460   -0.8278 O   0  0  0  0  0  0  0  0  0  0  0  0
    2.7142   -3.4249   -0.3011 H   0  0  0  0  0  0  0  0  0  0  0  0
   -0.1088    1.5795   -0.2261 C   0  0  0  0  0  0  0  0  0  0  0  0
   -0.2231    2.4595    0.6139 O   0  0  0  0  0  0  0  0  0  0  0  0
   -0.3060    1.8858   -1.5601 N   0  0  0  0  0  0  0  0  0  0  0  0
   -0.2628    1.1196   -2.2265 H   0  0  0  0  0  0  0  0  0  0  0  0
   -0.5801    3.2339   -2.0434 C   0  0  0  0  0  0  0  0  0  0  0  0
    0.2360    3.9118   -1.7712 H   0  0  0  0  0  0  0  0  0  0  0  0
   -0.6786    3.2327   -3.1333 H   0  0  0  0  0  0  0  0  0  0  0  0
   -1.5122    3.6140   -1.6118 H   0  0  0  0  0  0  0  0  0  0  0  0
  1  2  1  0  0  0  0
  2  3  1  0  0  0  0
  2  4  1  0  0  0  0
  2  5  1  0  0  0  0
  5  6  2  0  0  0  0
  5  7  1  0  0  0  0
  7  8  1  0  0  0  0
  7  9  1  0  0  0  0
  9 10  1  0  0  0  0
  9 11  1  0  0  0  0
  9 18  1  0  0  0  0
 11 12  1  0  0  0  0
 11 13  1  0  0  0  0
 11 14  1  0  0  0  0
 14 15  2  0  0  0  0
 14 16  1  0  0  0  0
 16 17  1  0  0  0  0
 18 19  2  0  0  0  0
 18 20  1  0  0  0  0
 20 21  1  0  0  0  0
 20 22  1  0  0  0  0
 22 23  1  0  0  0  0
 22 24  1  0  0  0  0
 22 25  1  0  0  0  0
M  END
$$$$

  -OEChem-01062216063D

 25 24  0     1  0  0  0  0  0999 V2000
   -3.0643   -3.2988    1.1372 H   0  0  0  0  0  0  0  0  0  0  0  0
   -2.9782   -2.2402    0.8755 C   0  0  0  0  0  0  0  0  0  0  0  0
   -3.2811   -1.6421    1.7382 H   0  0  0  0  0  0  0  0  0  0  0  0
   -3.6478   -2.0281    0.0387 H   0  0  0  0  0  0  0  0  0  0  0  0
   -1.5471   -1.9107    0.4926 C   0  0  0  0  0  0  0  0  0  0  0  0
   -0.7691   -2.8296    0.3287 O   0  0  0  0  0  0  0  0  0  0  0  0
   -1.2359   -0.5964    0.1913 N   0  0  0  0  0  0  0  0  0  0  0  0
   -2.0395    0.0179    0.3015 H   0  0  0  0  0  0  0  0  0  0  0  0
    0.0630    0.1226    0.2292 C   0  0  1  0  0  0  0  0  0  0  0  0
    0.3615    0.1745    1.2834 H   0  0  0  0  0  0  0  0  0  0  0  0
    1.2685   -0.4821   -0.5348 C   0  0  0  0  0  0  0  0  0  0  0  0
    0.9617   -0.6787   -1.5650 H   0  0  0  0  0  0  0  0  0  0  0  0
    2.0760    0.2550   -0.5649 H   0  0  0  0  0  0  0  0  0  0  0  0
    1.8695   -1.7686    0.0228 C   0  0  0  0  0  0  0  0  0  0  0  0
    1.8063   -1.9859    1.2229 O   0  0  0  0  0  0  0  0  0  0  0  0
    2.4717   -2.6011   -0.8577 O   0  0  0  0  0  0  0  0  0  0  0  0
    2.7219   -3.3810   -0.3394 H   0  0  0  0  0  0  0  0  0  0  0  0
   -0.1500    1.5817   -0.2105 C   0  0  0  0  0  0  0  0  0  0  0  0
    0.0635    2.4996    0.5668 O   0  0  0  0  0  0  0  0  0  0  0  0
   -0.6512    1.8551   -1.4696 N   0  0  0  0  0  0  0  0  0  0  0  0
   -0.7942    1.0654   -2.0935 H   0  0  0  0  0  0  0  0  0  0  0  0
   -0.8626    3.2071   -1.9726 C   0  0  0  0  0  0  0  0  0  0  0  0
    0.0820    3.7609   -1.9899 H   0  0  0  0  0  0  0  0  0  0  0  0
   -1.2629    3.1743   -2.9904 H   0  0  0  0  0  0  0  0  0  0  0  0
   -1.5750    3.7457   -1.3388 H   0  0  0  0  0  0  0  0  0  0  0  0
  1  2  1  0  0  0  0
  2  3  1  0  0  0  0
  2  4  1  0  0  0  0
  2  5  1  0  0  0  0
  5  6  2  0  0  0  0
  5  7  1  0  0  0  0
  7  8  1  0  0  0  0
  7  9  1  0  0  0  0
  9 10  1  0  0  0  0
  9 11  1  0  0  0  0
  9 18  1  0  0  0  0
 11 12  1  0  0  0  0
 11 13  1  0  0  0  0
 11 14  1  0  0  0  0
 14 15  2  0  0  0  0
 14 16  1  0  0  0  0
 16 17  1  0  0  0  0
 18 19  2  0  0  0  0
 18 20  1  0  0  0  0
 20 21  1  0  0  0  0
 20 22  1  0  0  0  0
 22 23  1  0  0  0  0
 22 24  1  0  0  0  0
 22 25  1  0  0  0  0
M  END
$$$$

  -OEChem-01062216063D

 25 24  0     1  0  0  0  0  0999 V2000
   -3.0552   -3.3434    1.1088 H   0  0  0  0  0  0  0  0  0  0  0  0
   -2.9737   -2.2742    0.8925 C   0  0  0  0  0  0  0  0  0  0  0  0
   -3.2581   -1.7150    1.7871 H   0  0  0  0  0  0  0  0  0  0  0  0
   -3.6606   -2.0263    0.0799 H   0  0  0  0  0  0  0  0  0  0  0  0
   -1.5503   -1.9280    0.4951 C   0  0  0  0  0  0  0  0  0  0  0  0
   -0.7662   -2.8382    0.3145 O   0  0  0  0  0  0  0  0  0  0  0  0
   -1.2554   -0.6081    0.2003 N   0  0  0  0  0  0  0  0  0  0  0  0
   -2.0644   -0.0044    0.3261 H   0  0  0  0  0  0  0  0  0  0  0  0
    0.0372    0.1251    0.2412 C   0  0  1  0  0  0  0  0  0  0  0  0
    0.3370    0.1726    1.2950 H   0  0  0  0  0  0  0  0  0  0  0  0
    1.2453   -0.4625   -0.5310 C   0  0  0  0  0  0  0  0  0  0  0  0
    0.9367   -0.6517   -1.5621 H   0  0  0  0  0  0  0  0  0  0  0  0
    2.0463    0.2817   -0.5580 H   0  0  0  0  0  0  0  0  0  0  0  0
    1.8591   -1.7477    0.0151 C   0  0  0  0  0  0  0  0  0  0  0  0
    1.8010   -1.9743    1.2138 O   0  0  0  0  0  0  0  0  0  0  0  0
    2.4669   -2.5683   -0.8727 O   0  0  0  0  0  0  0  0  0  0  0  0
    2.7269   -3.3488   -0.3603 H   0  0  0  0  0  0  0  0  0  0  0  0
   -0.1790    1.5872   -0.1889 C   0  0  0  0  0  0  0  0  0  0  0  0
    0.3183    2.5006    0.4519 O   0  0  0  0  0  0  0  0  0  0  0  0
   -0.9542    1.8714   -1.2983 N   0  0  0  0  0  0  0  0  0  0  0  0
   -1.2523    1.0801   -1.8626 H   0  0  0  0  0  0  0  0  0  0  0  0
   -1.1282    3.2203   -1.8241 C   0  0  0  0  0  0  0  0  0  0  0  0
   -0.1642    3.6375   -2.1340 H   0  0  0  0  0  0  0  0  0  0  0  0
   -1.7952    3.2059   -2.6914 H   0  0  0  0  0  0  0  0  0  0  0  0
   -1.5667    3.8754   -1.0638 H   0  0  0  0  0  0  0  0  0  0  0  0
  1  2  1  0  0  0  0
  2  3  1  0  0  0  0
  2  4  1  0  0  0  0
  2  5  1  0  0  0  0
  5  6  2  0  0  0  0
  5  7  1  0  0  0  0
  7  8  1  0  0  0  0
  7  9  1  0  0  0  0
  9 10  1  0  0  0  0
  9 11  1  0  0  0  0
  9 18  1  0  0  0  0
 11 12  1  0  0  0  0
 11 13  1  0  0  0  0
 11 14  1  0  0  0  0
 14 15  2  0  0  0  0
 14 16  1  0  0  0  0
 16 17  1  0  0  0  0
 18 19  2  0  0  0  0
 18 20  1  0  0  0  0
 20 21  1  0  0  0  0
 20 22  1  0  0  0  0
 22 23  1  0  0  0  0
 22 24  1  0  0  0  0
 22 25  1  0  0  0  0
M  END
$$$$

  -OEChem-01062216063D

 25 24  0     1  0  0  0  0  0999 V2000
   -3.0225   -3.3650    1.1398 H   0  0  0  0  0  0  0  0  0  0  0  0
   -2.9578   -2.2975    0.9095 C   0  0  0  0  0  0  0  0  0  0  0  0
   -3.2300   -1.7312    1.8034 H   0  0  0  0  0  0  0  0  0  0  0  0
   -3.6642   -2.0670    0.1084 H   0  0  0  0  0  0  0  0  0  0  0  0
   -1.5474   -1.9401    0.4778 C   0  0  0  0  0  0  0  0  0  0  0  0
   -0.7684   -2.8454    0.2551 O   0  0  0  0  0  0  0  0  0  0  0  0
   -1.2658   -0.6154    0.1903 N   0  0  0  0  0  0  0  0  0  0  0  0
   -2.0736   -0.0200    0.3559 H   0  0  0  0  0  0  0  0  0  0  0  0
    0.0242    0.1252    0.2384 C   0  0  1  0  0  0  0  0  0  0  0  0
    0.3202    0.1695    1.2934 H   0  0  0  0  0  0  0  0  0  0  0  0
    1.2361   -0.4599   -0.5309 C   0  0  0  0  0  0  0  0  0  0  0  0
    0.9309   -0.6487   -1.5631 H   0  0  0  0  0  0  0  0  0  0  0  0
    2.0376    0.2840   -0.5551 H   0  0  0  0  0  0  0  0  0  0  0  0
    1.8480   -1.7442    0.0193 C   0  0  0  0  0  0  0  0  0  0  0  0
    1.7840   -1.9687    1.2187 O   0  0  0  0  0  0  0  0  0  0  0  0
    2.4570   -2.5685   -0.8645 O   0  0  0  0  0  0  0  0  0  0  0  0
    2.7111   -3.3496   -0.3503 H   0  0  0  0  0  0  0  0  0  0  0  0
   -0.1858    1.5934   -0.1819 C   0  0  0  0  0  0  0  0  0  0  0  0
    0.5124    2.4751    0.2955 O   0  0  0  0  0  0  0  0  0  0  0  0
   -1.1825    1.9258   -1.0824 N   0  0  0  0  0  0  0  0  0  0  0  0
   -1.6175    1.1534   -1.5796 H   0  0  0  0  0  0  0  0  0  0  0  0
   -1.3693    3.2802   -1.5907 C   0  0  0  0  0  0  0  0  0  0  0  0
   -0.4851    3.6058   -2.1488 H   0  0  0  0  0  0  0  0  0  0  0  0
   -2.2354    3.3187   -2.2584 H   0  0  0  0  0  0  0  0  0  0  0  0
   -1.5410    3.9797   -0.7655 H   0  0  0  0  0  0  0  0  0  0  0  0
  1  2  1  0  0  0  0
  2  3  1  0  0  0  0
  2  4  1  0  0  0  0
  2  5  1  0  0  0  0
  5  6  2  0  0  0  0
  5  7  1  0  0  0  0
  7  8  1  0  0  0  0
  7  9  1  0  0  0  0
  9 10  1  0  0  0  0
  9 11  1  0  0  0  0
  9 18  1  0  0  0  0
 11 12  1  0  0  0  0
 11 13  1  0  0  0  0
 11 14  1  0  0  0  0
 14 15  2  0  0  0  0
 14 16  1  0  0  0  0
 16 17  1  0  0  0  0
 18 19  2  0  0  0  0
 18 20  1  0  0  0  0
 20 21  1  0  0  0  0
 20 22  1  0  0  0  0
 22 23  1  0  0  0  0
 22 24  1  0  0  0  0
 22 25  1  0  0  0  0
M  END
$$$$

  -OEChem-01062216063D

 25 24  0     1  0  0  0  0  0999 V2000
   -2.9896   -3.3811    1.1491 H   0  0  0  0  0  0  0  0  0  0  0  0
   -2.9337   -2.3098    0.9345 C   0  0  0  0  0  0  0  0  0  0  0  0
   -3.1633   -1.7586    1.8495 H   0  0  0  0  0  0  0  0  0  0  0  0
   -3.6761   -2.0649    0.1713 H   0  0  0  0  0  0  0  0  0  0  0  0
   -1.5439   -1.9473    0.4441 C   0  0  0  0  0  0  0  0  0  0  0  0
   -0.7794   -2.8493    0.1639 O   0  0  0  0  0  0  0  0  0  0  0  0
   -1.2734   -0.6186    0.1642 N   0  0  0  0  0  0  0  0  0  0  0  0
   -2.0756   -0.0323    0.3791 H   0  0  0  0  0  0  0  0  0  0  0  0
    0.0152    0.1251    0.2262 C   0  0  1  0  0  0  0  0  0  0  0  0
    0.3013    0.1670    1.2835 H   0  0  0  0  0  0  0  0  0  0  0  0
    1.2329   -0.4652   -0.5327 C   0  0  0  0  0  0  0  0  0  0  0  0
    0.9352   -0.6556   -1.5669 H   0  0  0  0  0  0  0  0  0  0  0  0
    2.0395    0.2733   -0.5532 H   0  0  0  0  0  0  0  0  0  0  0  0
    1.8337   -1.7503    0.0279 C   0  0  0  0  0  0  0  0  0  0  0  0
    1.7559   -1.9700    1.2277 O   0  0  0  0  0  0  0  0  0  0  0  0
    2.4543   -2.5772   -0.8456 O   0  0  0  0  0  0  0  0  0  0  0  0
    2.7026   -3.3568   -0.3268 H   0  0  0  0  0  0  0  0  0  0  0  0
   -0.1859    1.5995   -0.1866 C   0  0  0  0  0  0  0  0  0  0  0  0
    0.6431    2.4420    0.1247 O   0  0  0  0  0  0  0  0  0  0  0  0
   -1.3406    1.9981   -0.8386 N   0  0  0  0  0  0  0  0  0  0  0  0
   -1.8898    1.2572   -1.2643 H   0  0  0  0  0  0  0  0  0  0  0  0
   -1.5527    3.3672   -1.2957 C   0  0  0  0  0  0  0  0  0  0  0  0
   -0.7951    3.6461   -2.0358 H   0  0  0  0  0  0  0  0  0  0  0  0
   -2.5406    3.4646   -1.7558 H   0  0  0  0  0  0  0  0  0  0  0  0
   -1.4962    4.0658   -0.4540 H   0  0  0  0  0  0  0  0  0  0  0  0
  1  2  1  0  0  0  0
  2  3  1  0  0  0  0
  2  4  1  0  0  0  0
  2  5  1  0  0  0  0
  5  6  2  0  0  0  0
  5  7  1  0  0  0  0
  7  8  1  0  0  0  0
  7  9  1  0  0  0  0
  9 10  1  0  0  0  0
  9 11  1  0  0  0  0
  9 18  1  0  0  0  0
 11 12  1  0  0  0  0
 11 13  1  0  0  0  0
 11 14  1  0  0  0  0
 14 15  2  0  0  0  0
 14 16  1  0  0  0  0
 16 17  1  0  0  0  0
 18 19  2  0  0  0  0
 18 20  1  0  0  0  0
 20 21  1  0  0  0  0
 20 22  1  0  0  0  0
 22 23  1  0  0  0  0
 22 24  1  0  0  0  0
 22 25  1  0  0  0  0
M  END
$$$$

  -OEChem-01062216063D

 25 24  0     1  0  0  0  0  0999 V2000
   -2.6129   -3.5227    0.9996 H   0  0  0  0  0  0  0  0  0  0  0  0
   -2.6193   -2.5280    0.5444 C   0  0  0  0  0  0  0  0  0  0  0  0
   -3.5645   -2.0361    0.7858 H   0  0  0  0  0  0  0  0  0  0  0  0
   -2.5380   -2.6392   -0.5395 H   0  0  0  0  0  0  0  0  0  0  0  0
   -1.4573   -1.7077    1.0720 C   0  0  0  0  0  0  0  0  0  0  0  0
   -0.8361   -2.1086    2.0357 O   0  0  0  0  0  0  0  0  0  0  0  0
   -1.2488   -0.4339    0.5816 N   0  0  0  0  0  0  0  0  0  0  0  0
   -1.9098   -0.2124   -0.1566 H   0  0  0  0  0  0  0  0  0  0  0  0
    0.0604    0.2505    0.4244 C   0  0  1  0  0  0  0  0  0  0  0  0
    0.5382    0.3472    1.4066 H   0  0  0  0  0  0  0  0  0  0  0  0
    1.0184   -0.5072   -0.5463 C   0  0  0  0  0  0  0  0  0  0  0  0
    0.4950   -0.6593   -1.4937 H   0  0  0  0  0  0  0  0  0  0  0  0
    1.8838    0.1277   -0.7574 H   0  0  0  0  0  0  0  0  0  0  0  0
    1.6052   -1.8480   -0.1182 C   0  0  0  0  0  0  0  0  0  0  0  0
    1.7958   -2.0836    1.0587 O   0  0  0  0  0  0  0  0  0  0  0  0
    1.8659   -2.7376   -1.1037 O   0  0  0  0  0  0  0  0  0  0  0  0
    2.2228   -3.5198   -0.6549 H   0  0  0  0  0  0  0  0  0  0  0  0
   -0.1357    1.6780   -0.1512 C   0  0  0  0  0  0  0  0  0  0  0  0
    0.8287    2.3760   -0.4330 O   0  0  0  0  0  0  0  0  0  0  0  0
   -1.4022    2.1592   -0.4442 N   0  0  0  0  0  0  0  0  0  0  0  0
   -2.1733    1.6889    0.0181 H   0  0  0  0  0  0  0  0  0  0  0  0
   -1.6305    3.5092   -0.9497 C   0  0  0  0  0  0  0  0  0  0  0  0
   -1.0869    3.6650   -1.8877 H   0  0  0  0  0  0  0  0  0  0  0  0
   -2.6962    3.6670   -1.1417 H   0  0  0  0  0  0  0  0  0  0  0  0
   -1.2940    4.2545   -0.2212 H   0  0  0  0  0  0  0  0  0  0  0  0
  1  2  1  0  0  0  0
  2  3  1  0  0  0  0
  2  4  1  0  0  0  0
  2  5  1  0  0  0  0
  5  6  2  0  0  0  0
  5  7  1  0  0  0  0
  7  8  1  0  0  0  0
  7  9  1  0  0  0  0
  9 10  1  0  0  0  0
  9 11  1  0  0  0  0
  9 18  1  0  0  0  0
 11 12  1  0  0  0  0
 11 13  1  0  0  0  0
 11 14  1  0  0  0  0
 14 15  2  0  0  0  0
 14 16  1  0  0  0  0
 16 17  1  0  0  0  0
 18 19  2  0  0  0  0
 18 20  1  0  0  0  0
 20 21  1  0  0  0  0
 20 22  1  0  0  0  0
 22 23  1  0  0  0  0
 22 24  1  0  0  0  0
 22 25  1  0  0  0  0
M  END
$$$$

  -OEChem-01062216063D

 25 24  0     1  0  0  0  0  0999 V2000
   -2.6376   -3.5015    0.9795 H   0  0  0  0  0  0  0  0  0  0  0  0
   -2.6331   -2.5047    0.5294 C   0  0  0  0  0  0  0  0  0  0  0  0
   -3.5704   -2.0016    0.7784 H   0  0  0  0  0  0  0  0  0  0  0  0
   -2.5594   -2.6119   -0.5555 H   0  0  0  0  0  0  0  0  0  0  0  0
   -1.4567   -1.7030    1.0541 C   0  0  0  0  0  0  0  0  0  0  0  0
   -0.8361   -2.1172    2.0124 O   0  0  0  0  0  0  0  0  0  0  0  0
   -1.2346   -0.4289    0.5710 N   0  0  0  0  0  0  0  0  0  0  0  0
   -1.9058   -0.1800   -0.1506 H   0  0  0  0  0  0  0  0  0  0  0  0
    0.0770    0.2500    0.4121 C   0  0  1  0  0  0  0  0  0  0  0  0
    0.5542    0.3485    1.3941 H   0  0  0  0  0  0  0  0  0  0  0  0
    1.0359   -0.5164   -0.5518 C   0  0  0  0  0  0  0  0  0  0  0  0
    0.5156   -0.6711   -1.5006 H   0  0  0  0  0  0  0  0  0  0  0  0
    1.9059    0.1119   -0.7622 H   0  0  0  0  0  0  0  0  0  0  0  0
    1.6168   -1.8556   -0.1117 C   0  0  0  0  0  0  0  0  0  0  0  0
    1.8023   -2.0817    1.0681 O   0  0  0  0  0  0  0  0  0  0  0  0
    1.8782   -2.7542   -1.0887 O   0  0  0  0  0  0  0  0  0  0  0  0
    2.2305   -3.5341   -0.6322 H   0  0  0  0  0  0  0  0  0  0  0  0
   -0.1409    1.6782   -0.1565 C   0  0  0  0  0  0  0  0  0  0  0  0
    0.7686    2.3092   -0.6776 O   0  0  0  0  0  0  0  0  0  0  0  0
   -1.4046    2.2456   -0.1392 N   0  0  0  0  0  0  0  0  0  0  0  0
   -2.0789    1.8074    0.4815 H   0  0  0  0  0  0  0  0  0  0  0  0
   -1.6667    3.6071   -0.5934 C   0  0  0  0  0  0  0  0  0  0  0  0
   -1.3700    3.7264   -1.6410 H   0  0  0  0  0  0  0  0  0  0  0  0
   -2.7338    3.8349   -0.5111 H   0  0  0  0  0  0  0  0  0  0  0  0
   -1.1093    4.3281    0.0139 H   0  0  0  0  0  0  0  0  0  0  0  0
  1  2  1  0  0  0  0
  2  3  1  0  0  0  0
  2  4  1  0  0  0  0
  2  5  1  0  0  0  0
  5  6  2  0  0  0  0
  5  7  1  0  0  0  0
  7  8  1  0  0  0  0
  7  9  1  0  0  0  0
  9 10  1  0  0  0  0
  9 11  1  0  0  0  0
  9 18  1  0  0  0  0
 11 12  1  0  0  0  0
 11 13  1  0  0  0  0
 11 14  1  0  0  0  0
 14 15  2  0  0  0  0
 14 16  1  0  0  0  0
 16 17  1  0  0  0  0
 18 19  2  0  0  0  0
 18 20  1  0  0  0  0
 20 21  1  0  0  0  0
 20 22  1  0  0  0  0
 22 23  1  0  0  0  0
 22 24  1  0  0  0  0
 22 25  1  0  0  0  0
M  END
$$$$

  -OEChem-01062216063D

 25 24  0     1  0  0  0  0  0999 V2000
   -2.7100   -3.4590    0.9710 H   0  0  0  0  0  0  0  0  0  0  0  0
   -2.6763   -2.4606    0.5254 C   0  0  0  0  0  0  0  0  0  0  0  0
   -3.5889   -1.9236    0.7943 H   0  0  0  0  0  0  0  0  0  0  0  0
   -2.6270   -2.5645   -0.5612 H   0  0  0  0  0  0  0  0  0  0  0  0
   -1.4612   -1.7054    1.0301 C   0  0  0  0  0  0  0  0  0  0  0  0
   -0.8248   -2.1593    1.9594 O   0  0  0  0  0  0  0  0  0  0  0  0
   -1.2169   -0.4304    0.5607 N   0  0  0  0  0  0  0  0  0  0  0  0
   -1.9057   -0.1403   -0.1290 H   0  0  0  0  0  0  0  0  0  0  0  0
    0.0966    0.2435    0.4032 C   0  0  1  0  0  0  0  0  0  0  0  0
    0.5716    0.3416    1.3863 H   0  0  0  0  0  0  0  0  0  0  0  0
    1.0654   -0.5201   -0.5524 C   0  0  0  0  0  0  0  0  0  0  0  0
    0.5529   -0.6773   -1.5052 H   0  0  0  0  0  0  0  0  0  0  0  0
    1.9339    0.1129   -0.7551 H   0  0  0  0  0  0  0  0  0  0  0  0
    1.6484   -1.8564   -0.1070 C   0  0  0  0  0  0  0  0  0  0  0  0
    1.8257   -2.0784    1.0751 O   0  0  0  0  0  0  0  0  0  0  0  0
    1.9239   -2.7553   -1.0800 O   0  0  0  0  0  0  0  0  0  0  0  0
    2.2682   -3.5357   -0.6185 H   0  0  0  0  0  0  0  0  0  0  0  0
   -0.1440    1.6732   -0.1521 C   0  0  0  0  0  0  0  0  0  0  0  0
    0.6431    2.2267   -0.9081 O   0  0  0  0  0  0  0  0  0  0  0  0
   -1.3207    2.3314    0.1629 N   0  0  0  0  0  0  0  0  0  0  0  0
   -1.8839    1.9181    0.9015 H   0  0  0  0  0  0  0  0  0  0  0  0
   -1.6097    3.6982   -0.2570 C   0  0  0  0  0  0  0  0  0  0  0  0
   -1.5951    3.7751   -1.3493 H   0  0  0  0  0  0  0  0  0  0  0  0
   -2.6004    4.0012    0.0955 H   0  0  0  0  0  0  0  0  0  0  0  0
   -0.8678    4.3908    0.1544 H   0  0  0  0  0  0  0  0  0  0  0  0
  1  2  1  0  0  0  0
  2  3  1  0  0  0  0
  2  4  1  0  0  0  0
  2  5  1  0  0  0  0
  5  6  2  0  0  0  0
  5  7  1  0  0  0  0
  7  8  1  0  0  0  0
  7  9  1  0  0  0  0
  9 10  1  0  0  0  0
  9 11  1  0  0  0  0
  9 18  1  0  0  0  0
 11 12  1  0  0  0  0
 11 13  1  0  0  0  0
 11 14  1  0  0  0  0
 14 15  2  0  0  0  0
 14 16  1  0  0  0  0
 16 17  1  0  0  0  0
 18 19  2  0  0  0  0
 18 20  1  0  0  0  0
 20 21  1  0  0  0  0
 20 22  1  0  0  0  0
 22 23  1  0  0  0  0
 22 24  1  0  0  0  0
 22 25  1  0  0  0  0
M  END
$$$$

  -OEChem-01062216063D

 25 24  0     1  0  0  0  0  0999 V2000
   -2.7825   -3.4237    0.9606 H   0  0  0  0  0  0  0  0  0  0  0  0
   -2.7306   -2.4183    0.5330 C   0  0  0  0  0  0  0  0  0  0  0  0
   -3.6126   -1.8557    0.8482 H   0  0  0  0  0  0  0  0  0  0  0  0
   -2.7277   -2.5016   -0.5564 H   0  0  0  0  0  0  0  0  0  0  0  0
   -1.4704   -1.7159    1.0033 C   0  0  0  0  0  0  0  0  0  0  0  0
   -0.8098   -2.2189    1.8891 O   0  0  0  0  0  0  0  0  0  0  0  0
   -1.2052   -0.4385    0.5515 N   0  0  0  0  0  0  0  0  0  0  0  0
   -1.9106   -0.1067   -0.1020 H   0  0  0  0  0  0  0  0  0  0  0  0
    0.1092    0.2327    0.3997 C   0  0  1  0  0  0  0  0  0  0  0  0
    0.5794    0.3245    1.3854 H   0  0  0  0  0  0  0  0  0  0  0  0
    1.0940   -0.5178   -0.5486 C   0  0  0  0  0  0  0  0  0  0  0  0
    0.5904   -0.6776   -1.5060 H   0  0  0  0  0  0  0  0  0  0  0  0
    1.9546    0.1290   -0.7415 H   0  0  0  0  0  0  0  0  0  0  0  0
    1.6846   -1.8510   -0.1040 C   0  0  0  0  0  0  0  0  0  0  0  0
    1.8516   -2.0751    1.0795 O   0  0  0  0  0  0  0  0  0  0  0  0
    1.9842   -2.7419   -1.0771 O   0  0  0  0  0  0  0  0  0  0  0  0
    2.3284   -3.5212   -0.6139 H   0  0  0  0  0  0  0  0  0  0  0  0
   -0.1421    1.6654   -0.1375 C   0  0  0  0  0  0  0  0  0  0  0  0
    0.4642    2.1314   -1.0931 O   0  0  0  0  0  0  0  0  0  0  0  0
   -1.1500    2.4224    0.4330 N   0  0  0  0  0  0  0  0  0  0  0  0
   -1.5927    2.0428    1.2660 H   0  0  0  0  0  0  0  0  0  0  0  0
   -1.4577    3.7897    0.0288 C   0  0  0  0  0  0  0  0  0  0  0  0
   -1.7402    3.8230   -1.0288 H   0  0  0  0  0  0  0  0  0  0  0  0
   -2.2912    4.1810    0.6202 H   0  0  0  0  0  0  0  0  0  0  0  0
   -0.5894    4.4394    0.1817 H   0  0  0  0  0  0  0  0  0  0  0  0
  1  2  1  0  0  0  0
  2  3  1  0  0  0  0
  2  4  1  0  0  0  0
  2  5  1  0  0  0  0
  5  6  2  0  0  0  0
  5  7  1  0  0  0  0
  7  8  1  0  0  0  0
  7  9  1  0  0  0  0
  9 10  1  0  0  0  0
  9 11  1  0  0  0  0
  9 18  1  0  0  0  0
 11 12  1  0  0  0  0
 11 13  1  0  0  0  0
 11 14  1  0  0  0  0
 14 15  2  0  0  0  0
 14 16  1  0  0  0  0
 16 17  1  0  0  0  0
 18 19  2  0  0  0  0
 18 20  1  0  0  0  0
 20 21  1  0  0  0  0
 20 22  1  0  0  0  0
 22 23  1  0  0  0  0
 22 24  1  0  0  0  0
 22 25  1  0  0  0  0
M  END
$$$$

  -OEChem-01062216063D

 25 24  0     1  0  0  0  0  0999 V2000
   -2.8034   -3.4102    0.9554 H   0  0  0  0  0  0  0  0  0  0  0  0
   -2.7391   -2.4064    0.5258 C   0  0  0  0  0  0  0  0  0  0  0  0
   -3.6177   -1.8343    0.8337 H   0  0  0  0  0  0  0  0  0  0  0  0
   -2.7299   -2.4922   -0.5635 H   0  0  0  0  0  0  0  0  0  0  0  0
   -1.4750   -1.7152    1.0016 C   0  0  0  0  0  0  0  0  0  0  0  0
   -0.8120   -2.2329    1.8774 O   0  0  0  0  0  0  0  0  0  0  0  0
   -1.2023   -0.4359    0.5608 N   0  0  0  0  0  0  0  0  0  0  0  0
   -1.9084   -0.0900   -0.0850 H   0  0  0  0  0  0  0  0  0  0  0  0
    0.1142    0.2288    0.4149 C   0  0  1  0  0  0  0  0  0  0  0  0
    0.5848    0.3083    1.4014 H   0  0  0  0  0  0  0  0  0  0  0  0
    1.1002   -0.5111   -0.5391 C   0  0  0  0  0  0  0  0  0  0  0  0
    0.5953   -0.6655   -1.4967 H   0  0  0  0  0  0  0  0  0  0  0  0
    1.9562    0.1426   -0.7294 H   0  0  0  0  0  0  0  0  0  0  0  0
    1.6885   -1.8494   -0.1073 C   0  0  0  0  0  0  0  0  0  0  0  0
    1.8517   -2.0853    1.0745 O   0  0  0  0  0  0  0  0  0  0  0  0
    1.9928   -2.7299   -1.0883 O   0  0  0  0  0  0  0  0  0  0  0  0
    2.3318   -3.5154   -0.6319 H   0  0  0  0  0  0  0  0  0  0  0  0
   -0.1335    1.6639   -0.1096 C   0  0  0  0  0  0  0  0  0  0  0  0
    0.2470    2.0382   -1.2113 O   0  0  0  0  0  0  0  0  0  0  0  0
   -0.9036    2.5241    0.6512 N   0  0  0  0  0  0  0  0  0  0  0  0
   -1.2120    2.1901    1.5608 H   0  0  0  0  0  0  0  0  0  0  0  0
   -1.2236    3.8892    0.2507 C   0  0  0  0  0  0  0  0  0  0  0  0
   -1.7993    3.8902   -0.6809 H   0  0  0  0  0  0  0  0  0  0  0  0
   -1.8192    4.3815    1.0256 H   0  0  0  0  0  0  0  0  0  0  0  0
   -0.3069    4.4690    0.0992 H   0  0  0  0  0  0  0  0  0  0  0  0
  1  2  1  0  0  0  0
  2  3  1  0  0  0  0
  2  4  1  0  0  0  0
  2  5  1  0  0  0  0
  5  6  2  0  0  0  0
  5  7  1  0  0  0  0
  7  8  1  0  0  0  0
  7  9  1  0  0  0  0
  9 10  1  0  0  0  0
  9 11  1  0  0  0  0
  9 18  1  0  0  0  0
 11 12  1  0  0  0  0
 11 13  1  0  0  0  0
 11 14  1  0  0  0  0
 14 15  2  0  0  0  0
 14 16  1  0  0  0  0
 16 17  1  0  0  0  0
 18 19  2  0  0  0  0
 18 20  1  0  0  0  0
 20 21  1  0  0  0  0
 20 22  1  0  0  0  0
 22 23  1  0  0  0  0
 22 24  1  0  0  0  0
 22 25  1  0  0  0  0
M  END
$$$$

  -OEChem-01062216063D

 25 24  0     1  0  0  0  0  0999 V2000
   -2.8354   -3.3996    0.9504 H   0  0  0  0  0  0  0  0  0  0  0  0
   -2.7622   -2.3929    0.5291 C   0  0  0  0  0  0  0  0  0  0  0  0
   -3.6269   -1.8104    0.8560 H   0  0  0  0  0  0  0  0  0  0  0  0
   -2.7709   -2.4681   -0.5610 H   0  0  0  0  0  0  0  0  0  0  0  0
   -1.4810   -1.7254    0.9928 C   0  0  0  0  0  0  0  0  0  0  0  0
   -0.8098   -2.2665    1.8481 O   0  0  0  0  0  0  0  0  0  0  0  0
   -1.1999   -0.4440    0.5640 N   0  0  0  0  0  0  0  0  0  0  0  0
   -1.9059   -0.0830   -0.0741 H   0  0  0  0  0  0  0  0  0  0  0  0
    0.1162    0.2203    0.4290 C   0  0  1  0  0  0  0  0  0  0  0  0
    0.5828    0.2872    1.4183 H   0  0  0  0  0  0  0  0  0  0  0  0
    1.1093   -0.5032   -0.5283 C   0  0  0  0  0  0  0  0  0  0  0  0
    0.6068   -0.6535   -1.4882 H   0  0  0  0  0  0  0  0  0  0  0  0
    1.9591    0.1600   -0.7124 H   0  0  0  0  0  0  0  0  0  0  0  0
    1.7004   -1.8449   -0.1105 C   0  0  0  0  0  0  0  0  0  0  0  0
    1.8580   -2.0943    1.0694 O   0  0  0  0  0  0  0  0  0  0  0  0
    2.0190   -2.7100   -1.1005 O   0  0  0  0  0  0  0  0  0  0  0  0
    2.3577   -3.5002   -0.6520 H   0  0  0  0  0  0  0  0  0  0  0  0
   -0.1223    1.6583   -0.0848 C   0  0  0  0  0  0  0  0  0  0  0  0
    0.0016    1.9522   -1.2668 O   0  0  0  0  0  0  0  0  0  0  0  0
   -0.6123    2.6102    0.7897 N   0  0  0  0  0  0  0  0  0  0  0  0
   -0.7589    2.3260    1.7548 H   0  0  0  0  0  0  0  0  0  0  0  0
   -0.9311    3.9782    0.3975 C   0  0  0  0  0  0  0  0  0  0  0  0
   -1.7328    3.9867   -0.3483 H   0  0  0  0  0  0  0  0  0  0  0  0
   -1.2613    4.5542    1.2674 H   0  0  0  0  0  0  0  0  0  0  0  0
   -0.0498    4.4704   -0.0273 H   0  0  0  0  0  0  0  0  0  0  0  0
  1  2  1  0  0  0  0
  2  3  1  0  0  0  0
  2  4  1  0  0  0  0
  2  5  1  0  0  0  0
  5  6  2  0  0  0  0
  5  7  1  0  0  0  0
  7  8  1  0  0  0  0
  7  9  1  0  0  0  0
  9 10  1  0  0  0  0
  9 11  1  0  0  0  0
  9 18  1  0  0  0  0
 11 12  1  0  0  0  0
 11 13  1  0  0  0  0
 11 14  1  0  0  0  0
 14 15  2  0  0  0  0
 14 16  1  0  0  0  0
 16 17  1  0  0  0  0
 18 19  2  0  0  0  0
 18 20  1  0  0  0  0
 20 21  1  0  0  0  0
 20 22  1  0  0  0  0
 22 23  1  0  0  0  0
 22 24  1  0  0  0  0
 22 25  1  0  0  0  0
M  END
$$$$

  -OEChem-01062216063D

 25 24  0     1  0  0  0  0  0999 V2000
   -2.8459   -3.3960    0.9238 H   0  0  0  0  0  0  0  0  0  0  0  0
   -2.7741   -2.3787    0.5284 C   0  0  0  0  0  0  0  0  0  0  0  0
   -3.6341   -1.8028    0.8783 H   0  0  0  0  0  0  0  0  0  0  0  0
   -2.7937   -2.4251   -0.5632 H   0  0  0  0  0  0  0  0  0  0  0  0
   -1.4870   -1.7257    0.9961 C   0  0  0  0  0  0  0  0  0  0  0  0
   -0.8170   -2.2795    1.8447 O   0  0  0  0  0  0  0  0  0  0  0  0
   -1.1939   -0.4453    0.5738 N   0  0  0  0  0  0  0  0  0  0  0  0
   -1.8920   -0.0727   -0.0669 H   0  0  0  0  0  0  0  0  0  0  0  0
    0.1255    0.2122    0.4550 C   0  0  1  0  0  0  0  0  0  0  0  0
    0.5873    0.2646    1.4472 H   0  0  0  0  0  0  0  0  0  0  0  0
    1.1189   -0.4967   -0.5113 C   0  0  0  0  0  0  0  0  0  0  0  0
    0.6184   -0.6287   -1.4749 H   0  0  0  0  0  0  0  0  0  0  0  0
    1.9706    0.1675   -0.6815 H   0  0  0  0  0  0  0  0  0  0  0  0
    1.7022   -1.8489   -0.1173 C   0  0  0  0  0  0  0  0  0  0  0  0
    1.8536   -2.1225    1.0579 O   0  0  0  0  0  0  0  0  0  0  0  0
    2.0270   -2.6926   -1.1238 O   0  0  0  0  0  0  0  0  0  0  0  0
    2.3591   -3.4944   -0.6912 H   0  0  0  0  0  0  0  0  0  0  0  0
   -0.1001    1.6510   -0.0575 C   0  0  0  0  0  0  0  0  0  0  0  0
   -0.2493    1.8786   -1.2513 O   0  0  0  0  0  0  0  0  0  0  0  0
   -0.2905    2.6780    0.8480 N   0  0  0  0  0  0  0  0  0  0  0  0
   -0.2538    2.4446    1.8367 H   0  0  0  0  0  0  0  0  0  0  0  0
   -0.6114    4.0457    0.4560 C   0  0  0  0  0  0  0  0  0  0  0  0
   -1.5788    4.0811   -0.0558 H   0  0  0  0  0  0  0  0  0  0  0  0
   -0.6622    4.6906    1.3386 H   0  0  0  0  0  0  0  0  0  0  0  0
    0.1572    4.4423   -0.2159 H   0  0  0  0  0  0  0  0  0  0  0  0
  1  2  1  0  0  0  0
  2  3  1  0  0  0  0
  2  4  1  0  0  0  0
  2  5  1  0  0  0  0
  5  6  2  0  0  0  0
  5  7  1  0  0  0  0
  7  8  1  0  0  0  0
  7  9  1  0  0  0  0
  9 10  1  0  0  0  0
  9 11  1  0  0  0  0
  9 18  1  0  0  0  0
 11 12  1  0  0  0  0
 11 13  1  0  0  0  0
 11 14  1  0  0  0  0
 14 15  2  0  0  0  0
 14 16  1  0  0  0  0
 16 17  1  0  0  0  0
 18 19  2  0  0  0  0
 18 20  1  0  0  0  0
 20 21  1  0  0  0  0
 20 22  1  0  0  0  0
 22 23  1  0  0  0  0
 22 24  1  0  0  0  0
 22 25  1  0  0  0  0
M  END
$$$$

  -OEChem-01062216063D

 25 24  0     1  0  0  0  0  0999 V2000
   -2.8717   -3.3852    0.9199 H   0  0  0  0  0  0  0  0  0  0  0  0
   -2.7941   -2.3644    0.5351 C   0  0  0  0  0  0  0  0  0  0  0  0
   -3.6421   -1.7827    0.9043 H   0  0  0  0  0  0  0  0  0  0  0  0
   -2.8298   -2.3973   -0.5564 H   0  0  0  0  0  0  0  0  0  0  0  0
   -1.4931   -1.7313    0.9920 C   0  0  0  0  0  0  0  0  0  0  0  0
   -0.8182   -2.3025    1.8252 O   0  0  0  0  0  0  0  0  0  0  0  0
   -1.1885   -0.4523    0.5739 N   0  0  0  0  0  0  0  0  0  0  0  0
   -1.8821   -0.0656   -0.0642 H   0  0  0  0  0  0  0  0  0  0  0  0
    0.1320    0.2034    0.4699 C   0  0  1  0  0  0  0  0  0  0  0  0
    0.5845    0.2478    1.4665 H   0  0  0  0  0  0  0  0  0  0  0  0
    1.1307   -0.4902   -0.4996 C   0  0  0  0  0  0  0  0  0  0  0  0
    0.6355   -0.6078   -1.4680 H   0  0  0  0  0  0  0  0  0  0  0  0
    1.9836    0.1761   -0.6546 H   0  0  0  0  0  0  0  0  0  0  0  0
    1.7116   -1.8477   -0.1214 C   0  0  0  0  0  0  0  0  0  0  0  0
    1.8557   -2.1387    1.0506 O   0  0  0  0  0  0  0  0  0  0  0  0
    2.0455   -2.6753   -1.1382 O   0  0  0  0  0  0  0  0  0  0  0  0
    2.3713   -3.4849   -0.7153 H   0  0  0  0  0  0  0  0  0  0  0  0
   -0.0848    1.6411   -0.0447 C   0  0  0  0  0  0  0  0  0  0  0  0
   -0.4894    1.8317   -1.1850 O   0  0  0  0  0  0  0  0  0  0  0  0
    0.0243    2.7138    0.8204 N   0  0  0  0  0  0  0  0  0  0  0  0
    0.2669    2.5160    1.7874 H   0  0  0  0  0  0  0  0  0  0  0  0
   -0.2775    4.0878    0.4357 C   0  0  0  0  0  0  0  0  0  0  0  0
   -1.3343    4.1877    0.1667 H   0  0  0  0  0  0  0  0  0  0  0  0
   -0.0651    4.7685    1.2658 H   0  0  0  0  0  0  0  0  0  0  0  0
    0.3338    4.3896   -0.4214 H   0  0  0  0  0  0  0  0  0  0  0  0
  1  2  1  0  0  0  0
  2  3  1  0  0  0  0
  2  4  1  0  0  0  0
  2  5  1  0  0  0  0
  5  6  2  0  0  0  0
  5  7  1  0  0  0  0
  7  8  1  0  0  0  0
  7  9  1  0  0  0  0
  9 10  1  0  0  0  0
  9 11  1  0  0  0  0
  9 18  1  0  0  0  0
 11 12  1  0  0  0  0
 11 13  1  0  0  0  0
 11 14  1  0  0  0  0
 14 15  2  0  0  0  0
 14 16  1  0  0  0  0
 16 17  1  0  0  0  0
 18 19  2  0  0  0  0
 18 20  1  0  0  0  0
 20 21  1  0  0  0  0
 20 22  1  0  0  0  0
 22 23  1  0  0  0  0
 22 24  1  0  0  0  0
 22 25  1  0  0  0  0
M  END
$$$$

  -OEChem-01062216063D

 25 24  0     1  0  0  0  0  0999 V2000
   -2.9050   -3.3719    0.9180 H   0  0  0  0  0  0  0  0  0  0  0  0
   -2.8209   -2.3459    0.5489 C   0  0  0  0  0  0  0  0  0  0  0  0
   -3.6502   -1.7576    0.9493 H   0  0  0  0  0  0  0  0  0  0  0  0
   -2.8845   -2.3592   -0.5419 H   0  0  0  0  0  0  0  0  0  0  0  0
   -1.4990   -1.7412    0.9839 C   0  0  0  0  0  0  0  0  0  0  0  0
   -0.8125   -2.3391    1.7883 O   0  0  0  0  0  0  0  0  0  0  0  0
   -1.1815   -0.4643    0.5698 N   0  0  0  0  0  0  0  0  0  0  0  0
   -1.8802   -0.0539   -0.0490 H   0  0  0  0  0  0  0  0  0  0  0  0
    0.1379    0.1950    0.4776 C   0  0  1  0  0  0  0  0  0  0  0  0
    0.5809    0.2372    1.4786 H   0  0  0  0  0  0  0  0  0  0  0  0
    1.1437   -0.4848   -0.4923 C   0  0  0  0  0  0  0  0  0  0  0  0
    0.6531   -0.5935   -1.4641 H   0  0  0  0  0  0  0  0  0  0  0  0
    1.9961    0.1848   -0.6361 H   0  0  0  0  0  0  0  0  0  0  0  0
    1.7271   -1.8439   -0.1235 C   0  0  0  0  0  0  0  0  0  0  0  0
    1.8653   -2.1450    1.0465 O   0  0  0  0  0  0  0  0  0  0  0  0
    2.0722   -2.6596   -1.1458 O   0  0  0  0  0  0  0  0  0  0  0  0
    2.3940   -3.4734   -0.7280 H   0  0  0  0  0  0  0  0  0  0  0  0
   -0.0769    1.6307   -0.0404 C   0  0  0  0  0  0  0  0  0  0  0  0
   -0.6985    1.8145   -1.0803 O   0  0  0  0  0  0  0  0  0  0  0  0
    0.3139    2.7179    0.7186 N   0  0  0  0  0  0  0  0  0  0  0  0
    0.7536    2.5342    1.6164 H   0  0  0  0  0  0  0  0  0  0  0  0
    0.0492    4.0988    0.3325 C   0  0  0  0  0  0  0  0  0  0  0  0
   -1.0292    4.2840    0.2877 H   0  0  0  0  0  0  0  0  0  0  0  0
    0.4890    4.7867    1.0610 H   0  0  0  0  0  0  0  0  0  0  0  0
    0.4845    4.3123   -0.6495 H   0  0  0  0  0  0  0  0  0  0  0  0
  1  2  1  0  0  0  0
  2  3  1  0  0  0  0
  2  4  1  0  0  0  0
  2  5  1  0  0  0  0
  5  6  2  0  0  0  0
  5  7  1  0  0  0  0
  7  8  1  0  0  0  0
  7  9  1  0  0  0  0
  9 10  1  0  0  0  0
  9 11  1  0  0  0  0
  9 18  1  0  0  0  0
 11 12  1  0  0  0  0
 11 13  1  0  0  0  0
 11 14  1  0  0  0  0
 14 15  2  0  0  0  0
 14 16  1  0  0  0  0
 16 17  1  0  0  0  0
 18 19  2  0  0  0  0
 18 20  1  0  0  0  0
 20 21  1  0  0  0  0
 20 22  1  0  0  0  0
 22 23  1  0  0  0  0
 22 24  1  0  0  0  0
 22 25  1  0  0  0  0
M  END
$$$$

  -OEChem-01062216063D

 25 24  0     1  0  0  0  0  0999 V2000
   -2.9531   -3.3569    0.9132 H   0  0  0  0  0  0  0  0  0  0  0  0
   -2.8618   -2.3216    0.5724 C   0  0  0  0  0  0  0  0  0  0  0  0
   -3.6548   -1.7272    1.0326 H   0  0  0  0  0  0  0  0  0  0  0  0
   -2.9805   -2.2980   -0.5135 H   0  0  0  0  0  0  0  0  0  0  0  0
   -1.5055   -1.7614    0.9583 C   0  0  0  0  0  0  0  0  0  0  0  0
   -0.7967   -2.4029    1.7074 O   0  0  0  0  0  0  0  0  0  0  0  0
   -1.1751   -0.4851    0.5518 N   0  0  0  0  0  0  0  0  0  0  0  0
   -1.8898   -0.0411   -0.0252 H   0  0  0  0  0  0  0  0  0  0  0  0
    0.1393    0.1866    0.4685 C   0  0  1  0  0  0  0  0  0  0  0  0
    0.5696    0.2328    1.4748 H   0  0  0  0  0  0  0  0  0  0  0  0
    1.1610   -0.4826   -0.4911 C   0  0  0  0  0  0  0  0  0  0  0  0
    0.6780   -0.5978   -1.4659 H   0  0  0  0  0  0  0  0  0  0  0  0
    2.0074    0.1954   -0.6294 H   0  0  0  0  0  0  0  0  0  0  0  0
    1.7575   -1.8346   -0.1164 C   0  0  0  0  0  0  0  0  0  0  0  0
    1.8896   -2.1325    1.0554 O   0  0  0  0  0  0  0  0  0  0  0  0
    2.1244   -2.6453   -1.1354 O   0  0  0  0  0  0  0  0  0  0  0  0
    2.4483   -3.4567   -0.7145 H   0  0  0  0  0  0  0  0  0  0  0  0
   -0.0757    1.6228   -0.0496 C   0  0  0  0  0  0  0  0  0  0  0  0
   -0.8802    1.8300   -0.9511 O   0  0  0  0  0  0  0  0  0  0  0  0
    0.5669    2.6907    0.5488 N   0  0  0  0  0  0  0  0  0  0  0  0
    1.1807    2.4941    1.3346 H   0  0  0  0  0  0  0  0  0  0  0  0
    0.3444    4.0779    0.1577 C   0  0  0  0  0  0  0  0  0  0  0  0
   -0.6994    4.3616    0.3288 H   0  0  0  0  0  0  0  0  0  0  0  0
    0.9846    4.7441    0.7440 H   0  0  0  0  0  0  0  0  0  0  0  0
    0.5787    4.2199   -0.9027 H   0  0  0  0  0  0  0  0  0  0  0  0
  1  2  1  0  0  0  0
  2  3  1  0  0  0  0
  2  4  1  0  0  0  0
  2  5  1  0  0  0  0
  5  6  2  0  0  0  0
  5  7  1  0  0  0  0
  7  8  1  0  0  0  0
  7  9  1  0  0  0  0
  9 10  1  0  0  0  0
  9 11  1  0  0  0  0
  9 18  1  0  0  0  0
 11 12  1  0  0  0  0
 11 13  1  0  0  0  0
 11 14  1  0  0  0  0
 14 15  2  0  0  0  0
 14 16  1  0  0  0  0
 16 17  1  0  0  0  0
 18 19  2  0  0  0  0
 18 20  1  0  0  0  0
 20 21  1  0  0  0  0
 20 22  1  0  0  0  0
 22 23  1  0  0  0  0
 22 24  1  0  0  0  0
 22 25  1  0  0  0  0
M  END
$$$$

  -OEChem-01062216063D

 25 24  0     1  0  0  0  0  0999 V2000
   -3.0208   -3.3301    0.9155 H   0  0  0  0  0  0  0  0  0  0  0  0
   -2.9102   -2.2888    0.6000 C   0  0  0  0  0  0  0  0  0  0  0  0
   -3.6474   -1.6798    1.1287 H   0  0  0  0  0  0  0  0  0  0  0  0
   -3.0980   -2.2260   -0.4745 H   0  0  0  0  0  0  0  0  0  0  0  0
   -1.5104   -1.7927    0.9111 C   0  0  0  0  0  0  0  0  0  0  0  0
   -0.7712   -2.5034    1.5609 O   0  0  0  0  0  0  0  0  0  0  0  0
   -1.1662   -0.5143    0.5208 N   0  0  0  0  0  0  0  0  0  0  0  0
   -1.9080   -0.0226    0.0208 H   0  0  0  0  0  0  0  0  0  0  0  0
    0.1403    0.1761    0.4433 C   0  0  1  0  0  0  0  0  0  0  0  0
    0.5574    0.2290    1.4550 H   0  0  0  0  0  0  0  0  0  0  0  0
    1.1854   -0.4820   -0.4980 C   0  0  0  0  0  0  0  0  0  0  0  0
    0.7145   -0.6165   -1.4761 H   0  0  0  0  0  0  0  0  0  0  0  0
    2.0222    0.2078   -0.6353 H   0  0  0  0  0  0  0  0  0  0  0  0
    1.7999   -1.8191   -0.0997 C   0  0  0  0  0  0  0  0  0  0  0  0
    1.9206   -2.0989    1.0782 O   0  0  0  0  0  0  0  0  0  0  0  0
    2.1970   -2.6350   -1.1027 O   0  0  0  0  0  0  0  0  0  0  0  0
    2.5192   -3.4391   -0.6666 H   0  0  0  0  0  0  0  0  0  0  0  0
   -0.0825    1.6163   -0.0643 C   0  0  0  0  0  0  0  0  0  0  0  0
   -1.0432    1.8721   -0.7823 O   0  0  0  0  0  0  0  0  0  0  0  0
    0.7660    2.6363    0.3255 N   0  0  0  0  0  0  0  0  0  0  0  0
    1.5251    2.4041    0.9600 H   0  0  0  0  0  0  0  0  0  0  0  0
    0.5847    4.0257   -0.0783 C   0  0  0  0  0  0  0  0  0  0  0  0
   -0.3588    4.4188    0.3149 H   0  0  0  0  0  0  0  0  0  0  0  0
    1.4036    4.6415    0.3061 H   0  0  0  0  0  0  0  0  0  0  0  0
    0.5738    4.1101   -1.1703 H   0  0  0  0  0  0  0  0  0  0  0  0
  1  2  1  0  0  0  0
  2  3  1  0  0  0  0
  2  4  1  0  0  0  0
  2  5  1  0  0  0  0
  5  6  2  0  0  0  0
  5  7  1  0  0  0  0
  7  8  1  0  0  0  0
  7  9  1  0  0  0  0
  9 10  1  0  0  0  0
  9 11  1  0  0  0  0
  9 18  1  0  0  0  0
 11 12  1  0  0  0  0
 11 13  1  0  0  0  0
 11 14  1  0  0  0  0
 14 15  2  0  0  0  0
 14 16  1  0  0  0  0
 16 17  1  0  0  0  0
 18 19  2  0  0  0  0
 18 20  1  0  0  0  0
 20 21  1  0  0  0  0
 20 22  1  0  0  0  0
 22 23  1  0  0  0  0
 22 24  1  0  0  0  0
 22 25  1  0  0  0  0
M  END
$$$$

  -OEChem-01062216063D

 25 24  0     1  0  0  0  0  0999 V2000
   -3.1055   -3.2795    0.9479 H   0  0  0  0  0  0  0  0  0  0  0  0
   -2.9644   -2.2379    0.6458 C   0  0  0  0  0  0  0  0  0  0  0  0
   -3.6074   -1.6031    1.2600 H   0  0  0  0  0  0  0  0  0  0  0  0
   -3.2549   -2.1340   -0.4023 H   0  0  0  0  0  0  0  0  0  0  0  0
   -1.5131   -1.8311    0.8239 C   0  0  0  0  0  0  0  0  0  0  0  0
   -0.7426   -2.6379    1.3018 O   0  0  0  0  0  0  0  0  0  0  0  0
   -1.1502   -0.5480    0.4633 N   0  0  0  0  0  0  0  0  0  0  0  0
   -1.9212    0.0062    0.0874 H   0  0  0  0  0  0  0  0  0  0  0  0
    0.1499    0.1593    0.3972 C   0  0  1  0  0  0  0  0  0  0  0  0
    0.5494    0.2149    1.4157 H   0  0  0  0  0  0  0  0  0  0  0  0
    1.2256   -0.4936   -0.5140 C   0  0  0  0  0  0  0  0  0  0  0  0
    0.7742   -0.6549   -1.4971 H   0  0  0  0  0  0  0  0  0  0  0  0
    2.0556    0.2032   -0.6504 H   0  0  0  0  0  0  0  0  0  0  0  0
    1.8502   -1.8133   -0.0753 C   0  0  0  0  0  0  0  0  0  0  0  0
    1.9459   -2.0631    1.1128 O   0  0  0  0  0  0  0  0  0  0  0  0
    2.2873   -2.6437   -1.0494 O   0  0  0  0  0  0  0  0  0  0  0  0
    2.5936   -3.4392   -0.5870 H   0  0  0  0  0  0  0  0  0  0  0  0
   -0.0837    1.6088   -0.0854 C   0  0  0  0  0  0  0  0  0  0  0  0
   -1.1596    1.9289   -0.5801 O   0  0  0  0  0  0  0  0  0  0  0  0
    0.9039    2.5667    0.0578 N   0  0  0  0  0  0  0  0  0  0  0  0
    1.7717    2.2882    0.5073 H   0  0  0  0  0  0  0  0  0  0  0  0
    0.7374    3.9554   -0.3548 C   0  0  0  0  0  0  0  0  0  0  0  0
   -0.0844    4.4236    0.1971 H   0  0  0  0  0  0  0  0  0  0  0  0
    1.6529    4.5214   -0.1578 H   0  0  0  0  0  0  0  0  0  0  0  0
    0.5203    4.0129   -1.4267 H   0  0  0  0  0  0  0  0  0  0  0  0
  1  2  1  0  0  0  0
  2  3  1  0  0  0  0
  2  4  1  0  0  0  0
  2  5  1  0  0  0  0
  5  6  2  0  0  0  0
  5  7  1  0  0  0  0
  7  8  1  0  0  0  0
  7  9  1  0  0  0  0
  9 10  1  0  0  0  0
  9 11  1  0  0  0  0
  9 18  1  0  0  0  0
 11 12  1  0  0  0  0
 11 13  1  0  0  0  0
 11 14  1  0  0  0  0
 14 15  2  0  0  0  0
 14 16  1  0  0  0  0
 16 17  1  0  0  0  0
 18 19  2  0  0  0  0
 18 20  1  0  0  0  0
 20 21  1  0  0  0  0
 20 22  1  0  0  0  0
 22 23  1  0  0  0  0
 22 24  1  0  0  0  0
 22 25  1  0  0  0  0
M  END
$$$$

  -OEChem-01062216063D

 25 24  0     1  0  0  0  0  0999 V2000
   -2.8841   -3.3881    0.9772 H   0  0  0  0  0  0  0  0  0  0  0  0
   -2.8230   -2.3511    0.6356 C   0  0  0  0  0  0  0  0  0  0  0  0
   -3.5632   -1.7573    1.1768 H   0  0  0  0  0  0  0  0  0  0  0  0
   -3.0497   -2.3190   -0.4327 H   0  0  0  0  0  0  0  0  0  0  0  0
   -1.4328   -1.7983    0.8875 C   0  0  0  0  0  0  0  0  0  0  0  0
   -0.6459   -2.4492    1.5476 O   0  0  0  0  0  0  0  0  0  0  0  0
   -1.1401   -0.5133    0.4804 N   0  0  0  0  0  0  0  0  0  0  0  0
   -1.9228    0.0162    0.0956 H   0  0  0  0  0  0  0  0  0  0  0  0
    0.1569    0.1916    0.4470 C   0  0  1  0  0  0  0  0  0  0  0  0
    0.6973    0.0200    1.3850 H   0  0  0  0  0  0  0  0  0  0  0  0
    1.0160   -0.2682   -0.7670 C   0  0  0  0  0  0  0  0  0  0  0  0
    0.4066   -0.1594   -1.6690 H   0  0  0  0  0  0  0  0  0  0  0  0
    1.8754    0.3964   -0.8773 H   0  0  0  0  0  0  0  0  0  0  0  0
    1.5881   -1.6816   -0.7690 C   0  0  0  0  0  0  0  0  0  0  0  0
    1.8528   -2.2330    0.2809 O   0  0  0  0  0  0  0  0  0  0  0  0
    1.7859   -2.2544   -1.9784 O   0  0  0  0  0  0  0  0  0  0  0  0
    2.1285   -3.1422   -1.7902 H   0  0  0  0  0  0  0  0  0  0  0  0
   -0.0876    1.7125    0.2801 C   0  0  0  0  0  0  0  0  0  0  0  0
   -1.2250    2.1401    0.1102 O   0  0  0  0  0  0  0  0  0  0  0  0
    0.9709    2.6027    0.2228 N   0  0  0  0  0  0  0  0  0  0  0  0
    1.9020    2.2390    0.4041 H   0  0  0  0  0  0  0  0  0  0  0  0
    0.7998    4.0408    0.0491 C   0  0  0  0  0  0  0  0  0  0  0  0
    0.2063    4.4586    0.8694 H   0  0  0  0  0  0  0  0  0  0  0  0
    1.7737    4.5396    0.0380 H   0  0  0  0  0  0  0  0  0  0  0  0
    0.2921    4.2551   -0.8974 H   0  0  0  0  0  0  0  0  0  0  0  0
  1  2  1  0  0  0  0
  2  3  1  0  0  0  0
  2  4  1  0  0  0  0
  2  5  1  0  0  0  0
  5  6  2  0  0  0  0
  5  7  1  0  0  0  0
  7  8  1  0  0  0  0
  7  9  1  0  0  0  0
  9 10  1  0  0  0  0
  9 11  1  0  0  0  0
  9 18  1  0  0  0  0
 11 12  1  0  0  0  0
 11 13  1  0  0  0  0
 11 14  1  0  0  0  0
 14 15  2  0  0  0  0
 14 16  1  0  0  0  0
 16 17  1  0  0  0  0
 18 19  2  0  0  0  0
 18 20  1  0  0  0  0
 20 21  1  0  0  0  0
 20 22  1  0  0  0  0
 22 23  1  0  0  0  0
 22 24  1  0  0  0  0
 22 25  1  0  0  0  0
M  END
$$$$

  -OEChem-01062216063D

 25 24  0     1  0  0  0  0  0999 V2000
   -2.9390   -3.3390    0.9916 H   0  0  0  0  0  0  0  0  0  0  0  0
   -2.8523   -2.3031    0.6519 C   0  0  0  0  0  0  0  0  0  0  0  0
   -3.5495   -1.6852    1.2228 H   0  0  0  0  0  0  0  0  0  0  0  0
   -3.1175   -2.2571   -0.4069 H   0  0  0  0  0  0  0  0  0  0  0  0
   -1.4339   -1.8036    0.8528 C   0  0  0  0  0  0  0  0  0  0  0  0
   -0.6427   -2.5019    1.4557 O   0  0  0  0  0  0  0  0  0  0  0  0
   -1.1197   -0.5194    0.4587 N   0  0  0  0  0  0  0  0  0  0  0  0
   -1.9123    0.0485    0.1584 H   0  0  0  0  0  0  0  0  0  0  0  0
    0.1813    0.1812    0.4269 C   0  0  1  0  0  0  0  0  0  0  0  0
    0.7169    0.0115    1.3679 H   0  0  0  0  0  0  0  0  0  0  0  0
    1.0505   -0.2926   -0.7770 C   0  0  0  0  0  0  0  0  0  0  0  0
    0.4508   -0.1868   -1.6858 H   0  0  0  0  0  0  0  0  0  0  0  0
    1.9175    0.3613   -0.8829 H   0  0  0  0  0  0  0  0  0  0  0  0
    1.6219   -1.7062   -0.7653 C   0  0  0  0  0  0  0  0  0  0  0  0
    1.8798   -2.2512    0.2895 O   0  0  0  0  0  0  0  0  0  0  0  0
    1.8312   -2.2845   -1.9700 O   0  0  0  0  0  0  0  0  0  0  0  0
    2.1681   -3.1729   -1.7737 H   0  0  0  0  0  0  0  0  0  0  0  0
   -0.0754    1.7050    0.2716 C   0  0  0  0  0  0  0  0  0  0  0  0
   -1.2169    2.1449    0.3635 O   0  0  0  0  0  0  0  0  0  0  0  0
    0.9324    2.5842   -0.0881 N   0  0  0  0  0  0  0  0  0  0  0  0
    1.8799    2.2214   -0.1319 H   0  0  0  0  0  0  0  0  0  0  0  0
    0.7189    4.0137   -0.2850 C   0  0  0  0  0  0  0  0  0  0  0  0
    0.3571    4.4779    0.6385 H   0  0  0  0  0  0  0  0  0  0  0  0
    1.6556    4.5003   -0.5732 H   0  0  0  0  0  0  0  0  0  0  0  0
   -0.0168    4.1859   -1.0777 H   0  0  0  0  0  0  0  0  0  0  0  0
  1  2  1  0  0  0  0
  2  3  1  0  0  0  0
  2  4  1  0  0  0  0
  2  5  1  0  0  0  0
  5  6  2  0  0  0  0
  5  7  1  0  0  0  0
  7  8  1  0  0  0  0
  7  9  1  0  0  0  0
  9 10  1  0  0  0  0
  9 11  1  0  0  0  0
  9 18  1  0  0  0  0
 11 12  1  0  0  0  0
 11 13  1  0  0  0  0
 11 14  1  0  0  0  0
 14 15  2  0  0  0  0
 14 16  1  0  0  0  0
 16 17  1  0  0  0  0
 18 19  2  0  0  0  0
 18 20  1  0  0  0  0
 20 21  1  0  0  0  0
 20 22  1  0  0  0  0
 22 23  1  0  0  0  0
 22 24  1  0  0  0  0
 22 25  1  0  0  0  0
M  END
$$$$

  -OEChem-01062216063D

 25 24  0     1  0  0  0  0  0999 V2000
   -3.0041   -3.2815    1.0047 H   0  0  0  0  0  0  0  0  0  0  0  0
   -2.8921   -2.2429    0.6808 C   0  0  0  0  0  0  0  0  0  0  0  0
   -3.5266   -1.6089    1.3050 H   0  0  0  0  0  0  0  0  0  0  0  0
   -3.2170   -2.1620   -0.3591 H   0  0  0  0  0  0  0  0  0  0  0  0
   -1.4436   -1.8079    0.8056 C   0  0  0  0  0  0  0  0  0  0  0  0
   -0.6477   -2.5667    1.3211 O   0  0  0  0  0  0  0  0  0  0  0  0
   -1.1060   -0.5251    0.4241 N   0  0  0  0  0  0  0  0  0  0  0  0
   -1.9025    0.0784    0.2187 H   0  0  0  0  0  0  0  0  0  0  0  0
    0.2013    0.1665    0.3889 C   0  0  1  0  0  0  0  0  0  0  0  0
    0.7270    0.0008    1.3362 H   0  0  0  0  0  0  0  0  0  0  0  0
    1.0956   -0.3207   -0.7916 C   0  0  0  0  0  0  0  0  0  0  0  0
    0.5168   -0.2244   -1.7148 H   0  0  0  0  0  0  0  0  0  0  0  0
    1.9671    0.3299   -0.8784 H   0  0  0  0  0  0  0  0  0  0  0  0
    1.6731   -1.7317   -0.7534 C   0  0  0  0  0  0  0  0  0  0  0  0
    1.9143   -2.2635    0.3122 O   0  0  0  0  0  0  0  0  0  0  0  0
    1.9077   -2.3222   -1.9475 O   0  0  0  0  0  0  0  0  0  0  0  0
    2.2396   -3.2085   -1.7339 H   0  0  0  0  0  0  0  0  0  0  0  0
   -0.0658    1.6918    0.2480 C   0  0  0  0  0  0  0  0  0  0  0  0
   -1.1432    2.1493    0.6138 O   0  0  0  0  0  0  0  0  0  0  0  0
    0.8113    2.5521   -0.3929 N   0  0  0  0  0  0  0  0  0  0  0  0
    1.7023    2.1757   -0.7003 H   0  0  0  0  0  0  0  0  0  0  0  0
    0.5471    3.9737   -0.5873 C   0  0  0  0  0  0  0  0  0  0  0  0
    0.4048    4.4730    0.3770 H   0  0  0  0  0  0  0  0  0  0  0  0
    1.3886    4.4487   -1.1008 H   0  0  0  0  0  0  0  0  0  0  0  0
   -0.3530    4.1167   -1.1945 H   0  0  0  0  0  0  0  0  0  0  0  0
  1  2  1  0  0  0  0
  2  3  1  0  0  0  0
  2  4  1  0  0  0  0
  2  5  1  0  0  0  0
  5  6  2  0  0  0  0
  5  7  1  0  0  0  0
  7  8  1  0  0  0  0
  7  9  1  0  0  0  0
  9 10  1  0  0  0  0
  9 11  1  0  0  0  0
  9 18  1  0  0  0  0
 11 12  1  0  0  0  0
 11 13  1  0  0  0  0
 11 14  1  0  0  0  0
 14 15  2  0  0  0  0
 14 16  1  0  0  0  0
 16 17  1  0  0  0  0
 18 19  2  0  0  0  0
 18 20  1  0  0  0  0
 20 21  1  0  0  0  0
 20 22  1  0  0  0  0
 22 23  1  0  0  0  0
 22 24  1  0  0  0  0
 22 25  1  0  0  0  0
M  END
$$$$

  -OEChem-01062216063D

 25 24  0     1  0  0  0  0  0999 V2000
   -3.0592   -3.2259    1.0479 H   0  0  0  0  0  0  0  0  0  0  0  0
   -2.9267   -2.1936    0.7117 C   0  0  0  0  0  0  0  0  0  0  0  0
   -3.5040   -1.5344    1.3646 H   0  0  0  0  0  0  0  0  0  0  0  0
   -3.3037   -2.1056   -0.3100 H   0  0  0  0  0  0  0  0  0  0  0  0
   -1.4586   -1.8115    0.7570 C   0  0  0  0  0  0  0  0  0  0  0  0
   -0.6596   -2.6215    1.1794 O   0  0  0  0  0  0  0  0  0  0  0  0
   -1.1053   -0.5290    0.3875 N   0  0  0  0  0  0  0  0  0  0  0  0
   -1.9004    0.0952    0.2541 H   0  0  0  0  0  0  0  0  0  0  0  0
    0.2073    0.1544    0.3526 C   0  0  1  0  0  0  0  0  0  0  0  0
    0.7197   -0.0094    1.3078 H   0  0  0  0  0  0  0  0  0  0  0  0
    1.1346   -0.3329   -0.8012 C   0  0  0  0  0  0  0  0  0  0  0  0
    0.5800   -0.2486   -1.7402 H   0  0  0  0  0  0  0  0  0  0  0  0
    2.0022    0.3272   -0.8628 H   0  0  0  0  0  0  0  0  0  0  0  0
    1.7238   -1.7384   -0.7397 C   0  0  0  0  0  0  0  0  0  0  0  0
    1.9438   -2.2613    0.3351 O   0  0  0  0  0  0  0  0  0  0  0  0
    1.9900   -2.3348   -1.9241 O   0  0  0  0  0  0  0  0  0  0  0  0
    2.3180   -3.2189   -1.6956 H   0  0  0  0  0  0  0  0  0  0  0  0
   -0.0636    1.6784    0.2258 C   0  0  0  0  0  0  0  0  0  0  0  0
   -1.0146    2.1631    0.8277 O   0  0  0  0  0  0  0  0  0  0  0  0
    0.6267    2.4988   -0.6521 N   0  0  0  0  0  0  0  0  0  0  0  0
    1.3742    2.0833   -1.1988 H   0  0  0  0  0  0  0  0  0  0  0  0
    0.3164    3.9108   -0.8472 C   0  0  0  0  0  0  0  0  0  0  0  0
    0.4102    4.4581    0.0967 H   0  0  0  0  0  0  0  0  0  0  0  0
    1.0064    4.3533   -1.5721 H   0  0  0  0  0  0  0  0  0  0  0  0
   -0.7048    4.0310   -1.2239 H   0  0  0  0  0  0  0  0  0  0  0  0
  1  2  1  0  0  0  0
  2  3  1  0  0  0  0
  2  4  1  0  0  0  0
  2  5  1  0  0  0  0
  5  6  2  0  0  0  0
  5  7  1  0  0  0  0
  7  8  1  0  0  0  0
  7  9  1  0  0  0  0
  9 10  1  0  0  0  0
  9 11  1  0  0  0  0
  9 18  1  0  0  0  0
 11 12  1  0  0  0  0
 11 13  1  0  0  0  0
 11 14  1  0  0  0  0
 14 15  2  0  0  0  0
 14 16  1  0  0  0  0
 16 17  1  0  0  0  0
 18 19  2  0  0  0  0
 18 20  1  0  0  0  0
 20 21  1  0  0  0  0
 20 22  1  0  0  0  0
 22 23  1  0  0  0  0
 22 24  1  0  0  0  0
 22 25  1  0  0  0  0
M  END
$$$$

  -OEChem-01062216063D

 25 24  0     1  0  0  0  0  0999 V2000
   -3.0660   -3.2165    1.0694 H   0  0  0  0  0  0  0  0  0  0  0  0
   -2.9355   -2.1860    0.7270 C   0  0  0  0  0  0  0  0  0  0  0  0
   -3.4965   -1.5221    1.3891 H   0  0  0  0  0  0  0  0  0  0  0  0
   -3.3322   -2.0995   -0.2873 H   0  0  0  0  0  0  0  0  0  0  0  0
   -1.4653   -1.8105    0.7421 C   0  0  0  0  0  0  0  0  0  0  0  0
   -0.6610   -2.6339    1.1258 O   0  0  0  0  0  0  0  0  0  0  0  0
   -1.1156   -0.5267    0.3720 N   0  0  0  0  0  0  0  0  0  0  0  0
   -1.9137    0.0963    0.2593 H   0  0  0  0  0  0  0  0  0  0  0  0
    0.1974    0.1562    0.3337 C   0  0  1  0  0  0  0  0  0  0  0  0
    0.7050   -0.0044    1.2922 H   0  0  0  0  0  0  0  0  0  0  0  0
    1.1401   -0.3287   -0.8070 C   0  0  0  0  0  0  0  0  0  0  0  0
    0.5930   -0.2596   -1.7512 H   0  0  0  0  0  0  0  0  0  0  0  0
    1.9978    0.3463   -0.8643 H   0  0  0  0  0  0  0  0  0  0  0  0
    1.7404   -1.7289   -0.7335 C   0  0  0  0  0  0  0  0  0  0  0  0
    1.9536   -2.2457    0.3457 O   0  0  0  0  0  0  0  0  0  0  0  0
    2.0229   -2.3281   -1.9128 O   0  0  0  0  0  0  0  0  0  0  0  0
    2.3583   -3.2073   -1.6763 H   0  0  0  0  0  0  0  0  0  0  0  0
   -0.0685    1.6780    0.2088 C   0  0  0  0  0  0  0  0  0  0  0  0
   -0.8438    2.2080    0.9935 O   0  0  0  0  0  0  0  0  0  0  0  0
    0.3913    2.4327   -0.8583 N   0  0  0  0  0  0  0  0  0  0  0  0
    0.9711    1.9666   -1.5491 H   0  0  0  0  0  0  0  0  0  0  0  0
    0.0557    3.8385   -1.0552 C   0  0  0  0  0  0  0  0  0  0  0  0
    0.3860    4.4352   -0.1983 H   0  0  0  0  0  0  0  0  0  0  0  0
    0.5484    4.2228   -1.9536 H   0  0  0  0  0  0  0  0  0  0  0  0
   -1.0259    3.9617   -1.1742 H   0  0  0  0  0  0  0  0  0  0  0  0
  1  2  1  0  0  0  0
  2  3  1  0  0  0  0
  2  4  1  0  0  0  0
  2  5  1  0  0  0  0
  5  6  2  0  0  0  0
  5  7  1  0  0  0  0
  7  8  1  0  0  0  0
  7  9  1  0  0  0  0
  9 10  1  0  0  0  0
  9 11  1  0  0  0  0
  9 18  1  0  0  0  0
 11 12  1  0  0  0  0
 11 13  1  0  0  0  0
 11 14  1  0  0  0  0
 14 15  2  0  0  0  0
 14 16  1  0  0  0  0
 16 17  1  0  0  0  0
 18 19  2  0  0  0  0
 18 20  1  0  0  0  0
 20 21  1  0  0  0  0
 20 22  1  0  0  0  0
 22 23  1  0  0  0  0
 22 24  1  0  0  0  0
 22 25  1  0  0  0  0
M  END
$$$$

  -OEChem-01062216063D

 25 24  0     1  0  0  0  0  0999 V2000
   -3.0342   -3.2490    1.0663 H   0  0  0  0  0  0  0  0  0  0  0  0
   -2.9218   -2.2168    0.7226 C   0  0  0  0  0  0  0  0  0  0  0  0
   -3.5165   -1.5653    1.3676 H   0  0  0  0  0  0  0  0  0  0  0  0
   -3.2947   -2.1452   -0.3018 H   0  0  0  0  0  0  0  0  0  0  0  0
   -1.4623   -1.8038    0.7726 C   0  0  0  0  0  0  0  0  0  0  0  0
   -0.6496   -2.5938    1.2059 O   0  0  0  0  0  0  0  0  0  0  0  0
   -1.1310   -0.5204    0.3844 N   0  0  0  0  0  0  0  0  0  0  0  0
   -1.9367    0.0784    0.2178 H   0  0  0  0  0  0  0  0  0  0  0  0
    0.1782    0.1682    0.3344 C   0  0  1  0  0  0  0  0  0  0  0  0
    0.6917    0.0159    1.2914 H   0  0  0  0  0  0  0  0  0  0  0  0
    1.1165   -0.3168   -0.8093 C   0  0  0  0  0  0  0  0  0  0  0  0
    0.5612   -0.2633   -1.7493 H   0  0  0  0  0  0  0  0  0  0  0  0
    1.9633    0.3712   -0.8797 H   0  0  0  0  0  0  0  0  0  0  0  0
    1.7261   -1.7130   -0.7364 C   0  0  0  0  0  0  0  0  0  0  0  0
    1.9501   -2.2274    0.3413 O   0  0  0  0  0  0  0  0  0  0  0  0
    2.0039   -2.3115   -1.9174 O   0  0  0  0  0  0  0  0  0  0  0  0
    2.3522   -3.1863   -1.6828 H   0  0  0  0  0  0  0  0  0  0  0  0
   -0.0815    1.6872    0.1937 C   0  0  0  0  0  0  0  0  0  0  0  0
   -0.6190    2.2850    1.1147 O   0  0  0  0  0  0  0  0  0  0  0  0
    0.1051    2.3619   -1.0018 N   0  0  0  0  0  0  0  0  0  0  0  0
    0.4943    1.8402   -1.7811 H   0  0  0  0  0  0  0  0  0  0  0  0
   -0.2228    3.7707   -1.1902 C   0  0  0  0  0  0  0  0  0  0  0  0
    0.3430    4.3928   -0.4886 H   0  0  0  0  0  0  0  0  0  0  0  0
    0.0267    4.0846   -2.2084 H   0  0  0  0  0  0  0  0  0  0  0  0
   -1.2924    3.9408   -1.0282 H   0  0  0  0  0  0  0  0  0  0  0  0
  1  2  1  0  0  0  0
  2  3  1  0  0  0  0
  2  4  1  0  0  0  0
  2  5  1  0  0  0  0
  5  6  2  0  0  0  0
  5  7  1  0  0  0  0
  7  8  1  0  0  0  0
  7  9  1  0  0  0  0
  9 10  1  0  0  0  0
  9 11  1  0  0  0  0
  9 18  1  0  0  0  0
 11 12  1  0  0  0  0
 11 13  1  0  0  0  0
 11 14  1  0  0  0  0
 14 15  2  0  0  0  0
 14 16  1  0  0  0  0
 16 17  1  0  0  0  0
 18 19  2  0  0  0  0
 18 20  1  0  0  0  0
 20 21  1  0  0  0  0
 20 22  1  0  0  0  0
 22 23  1  0  0  0  0
 22 24  1  0  0  0  0
 22 25  1  0  0  0  0
M  END
$$$$

  -OEChem-01062216063D

 25 24  0     1  0  0  0  0  0999 V2000
   -2.9815   -3.2988    1.0525 H   0  0  0  0  0  0  0  0  0  0  0  0
   -2.8960   -2.2637    0.7095 C   0  0  0  0  0  0  0  0  0  0  0  0
   -3.5376   -1.6337    1.3303 H   0  0  0  0  0  0  0  0  0  0  0  0
   -3.2337   -2.2092   -0.3279 H   0  0  0  0  0  0  0  0  0  0  0  0
   -1.4558   -1.7963    0.8129 C   0  0  0  0  0  0  0  0  0  0  0  0
   -0.6384   -2.5372    1.3182 O   0  0  0  0  0  0  0  0  0  0  0  0
   -1.1477   -0.5122    0.4071 N   0  0  0  0  0  0  0  0  0  0  0  0
   -1.9571    0.0500    0.1563 H   0  0  0  0  0  0  0  0  0  0  0  0
    0.1574    0.1838    0.3480 C   0  0  1  0  0  0  0  0  0  0  0  0
    0.6809    0.0355    1.3008 H   0  0  0  0  0  0  0  0  0  0  0  0
    1.0824   -0.2970   -0.8076 C   0  0  0  0  0  0  0  0  0  0  0  0
    0.5173   -0.2458   -1.7416 H   0  0  0  0  0  0  0  0  0  0  0  0
    1.9237    0.3972   -0.8887 H   0  0  0  0  0  0  0  0  0  0  0  0
    1.6949   -1.6926   -0.7431 C   0  0  0  0  0  0  0  0  0  0  0  0
    1.9327   -2.2093    0.3302 O   0  0  0  0  0  0  0  0  0  0  0  0
    1.9513   -2.2926   -1.9283 O   0  0  0  0  0  0  0  0  0  0  0  0
    2.3098   -3.1646   -1.6982 H   0  0  0  0  0  0  0  0  0  0  0  0
   -0.0967    1.7002    0.1920 C   0  0  0  0  0  0  0  0  0  0  0  0
   -0.3428    2.3738    1.1811 O   0  0  0  0  0  0  0  0  0  0  0  0
   -0.2056    2.2946   -1.0544 N   0  0  0  0  0  0  0  0  0  0  0  0
   -0.0201    1.7173   -1.8688 H   0  0  0  0  0  0  0  0  0  0  0  0
   -0.5192    3.7061   -1.2466 C   0  0  0  0  0  0  0  0  0  0  0  0
    0.2421    4.3358   -0.7739 H   0  0  0  0  0  0  0  0  0  0  0  0
   -0.5514    3.9451   -2.3141 H   0  0  0  0  0  0  0  0  0  0  0  0
   -1.4946    3.9453   -0.8096 H   0  0  0  0  0  0  0  0  0  0  0  0
  1  2  1  0  0  0  0
  2  3  1  0  0  0  0
  2  4  1  0  0  0  0
  2  5  1  0  0  0  0
  5  6  2  0  0  0  0
  5  7  1  0  0  0  0
  7  8  1  0  0  0  0
  7  9  1  0  0  0  0
  9 10  1  0  0  0  0
  9 11  1  0  0  0  0
  9 18  1  0  0  0  0
 11 12  1  0  0  0  0
 11 13  1  0  0  0  0
 11 14  1  0  0  0  0
 14 15  2  0  0  0  0
 14 16  1  0  0  0  0
 16 17  1  0  0  0  0
 18 19  2  0  0  0  0
 18 20  1  0  0  0  0
 20 21  1  0  0  0  0
 20 22  1  0  0  0  0
 22 23  1  0  0  0  0
 22 24  1  0  0  0  0
 22 25  1  0  0  0  0
M  END
$$$$

  -OEChem-01062216063D

 25 24  0     1  0  0  0  0  0999 V2000
   -2.9407   -3.3466    1.0641 H   0  0  0  0  0  0  0  0  0  0  0  0
   -2.8768   -2.3145    0.7074 C   0  0  0  0  0  0  0  0  0  0  0  0
   -3.5550   -1.6957    1.2999 H   0  0  0  0  0  0  0  0  0  0  0  0
   -3.1859   -2.2859   -0.3400 H   0  0  0  0  0  0  0  0  0  0  0  0
   -1.4551   -1.8017    0.8441 C   0  0  0  0  0  0  0  0  0  0  0  0
   -0.6318   -2.5034    1.3940 O   0  0  0  0  0  0  0  0  0  0  0  0
   -1.1716   -0.5155    0.4273 N   0  0  0  0  0  0  0  0  0  0  0  0
   -1.9836    0.0155    0.1245 H   0  0  0  0  0  0  0  0  0  0  0  0
    0.1270    0.1920    0.3655 C   0  0  1  0  0  0  0  0  0  0  0  0
    0.6577    0.0464    1.3149 H   0  0  0  0  0  0  0  0  0  0  0  0
    1.0458   -0.2707   -0.8010 C   0  0  0  0  0  0  0  0  0  0  0  0
    0.4768   -0.2129   -1.7317 H   0  0  0  0  0  0  0  0  0  0  0  0
    1.8807    0.4316   -0.8809 H   0  0  0  0  0  0  0  0  0  0  0  0
    1.6677   -1.6627   -0.7523 C   0  0  0  0  0  0  0  0  0  0  0  0
    1.9167   -2.1884    0.3140 O   0  0  0  0  0  0  0  0  0  0  0  0
    1.9150   -2.2517   -1.9449 O   0  0  0  0  0  0  0  0  0  0  0  0
    2.2878   -3.1204   -1.7262 H   0  0  0  0  0  0  0  0  0  0  0  0
   -0.1308    1.7046    0.1994 C   0  0  0  0  0  0  0  0  0  0  0  0
   -0.0491    2.4477    1.1651 O   0  0  0  0  0  0  0  0  0  0  0  0
   -0.5407    2.2297   -1.0149 N   0  0  0  0  0  0  0  0  0  0  0  0
   -0.5716    1.6018   -1.8122 H   0  0  0  0  0  0  0  0  0  0  0  0
   -0.8029    3.6494   -1.2235 C   0  0  0  0  0  0  0  0  0  0  0  0
    0.1003    4.2383   -1.0313 H   0  0  0  0  0  0  0  0  0  0  0  0
   -1.1204    3.8286   -2.2553 H   0  0  0  0  0  0  0  0  0  0  0  0
   -1.5972    3.9953   -0.5534 H   0  0  0  0  0  0  0  0  0  0  0  0
  1  2  1  0  0  0  0
  2  3  1  0  0  0  0
  2  4  1  0  0  0  0
  2  5  1  0  0  0  0
  5  6  2  0  0  0  0
  5  7  1  0  0  0  0
  7  8  1  0  0  0  0
  7  9  1  0  0  0  0
  9 10  1  0  0  0  0
  9 11  1  0  0  0  0
  9 18  1  0  0  0  0
 11 12  1  0  0  0  0
 11 13  1  0  0  0  0
 11 14  1  0  0  0  0
 14 15  2  0  0  0  0
 14 16  1  0  0  0  0
 16 17  1  0  0  0  0
 18 19  2  0  0  0  0
 18 20  1  0  0  0  0
 20 21  1  0  0  0  0
 20 22  1  0  0  0  0
 22 23  1  0  0  0  0
 22 24  1  0  0  0  0
 22 25  1  0  0  0  0
M  END
$$$$

  -OEChem-01062216063D

 25 24  0     1  0  0  0  0  0999 V2000
   -2.9004   -3.3993    1.0643 H   0  0  0  0  0  0  0  0  0  0  0  0
   -2.8586   -2.3661    0.7074 C   0  0  0  0  0  0  0  0  0  0  0  0
   -3.5675   -1.7666    1.2836 H   0  0  0  0  0  0  0  0  0  0  0  0
   -3.1450   -2.3477   -0.3467 H   0  0  0  0  0  0  0  0  0  0  0  0
   -1.4558   -1.8123    0.8750 C   0  0  0  0  0  0  0  0  0  0  0  0
   -0.6299   -2.4772    1.4658 O   0  0  0  0  0  0  0  0  0  0  0  0
   -1.1946   -0.5228    0.4531 N   0  0  0  0  0  0  0  0  0  0  0  0
   -2.0089   -0.0130    0.1221 H   0  0  0  0  0  0  0  0  0  0  0  0
    0.0988    0.1957    0.3964 C   0  0  1  0  0  0  0  0  0  0  0  0
    0.6369    0.0473    1.3414 H   0  0  0  0  0  0  0  0  0  0  0  0
    1.0068   -0.2419   -0.7865 C   0  0  0  0  0  0  0  0  0  0  0  0
    0.4315   -0.1633   -1.7121 H   0  0  0  0  0  0  0  0  0  0  0  0
    1.8397    0.4636   -0.8589 H   0  0  0  0  0  0  0  0  0  0  0  0
    1.6329   -1.6322   -0.7675 C   0  0  0  0  0  0  0  0  0  0  0  0
    1.8931   -2.1755    0.2872 O   0  0  0  0  0  0  0  0  0  0  0  0
    1.8732   -2.1992   -1.9721 O   0  0  0  0  0  0  0  0  0  0  0  0
    2.2604   -3.0662   -1.7723 H   0  0  0  0  0  0  0  0  0  0  0  0
   -0.1595    1.7063    0.2251 C   0  0  0  0  0  0  0  0  0  0  0  0
    0.2247    2.4974    1.0723 O   0  0  0  0  0  0  0  0  0  0  0  0
   -0.8479    2.1806   -0.8792 N   0  0  0  0  0  0  0  0  0  0  0  0
   -1.0574    1.5168   -1.6183 H   0  0  0  0  0  0  0  0  0  0  0  0
   -1.0673    3.6011   -1.1271 C   0  0  0  0  0  0  0  0  0  0  0  0
   -0.1109    4.1243   -1.2314 H   0  0  0  0  0  0  0  0  0  0  0  0
   -1.6412    3.7413   -2.0481 H   0  0  0  0  0  0  0  0  0  0  0  0
   -1.6266    4.0528   -0.3008 H   0  0  0  0  0  0  0  0  0  0  0  0
  1  2  1  0  0  0  0
  2  3  1  0  0  0  0
  2  4  1  0  0  0  0
  2  5  1  0  0  0  0
  5  6  2  0  0  0  0
  5  7  1  0  0  0  0
  7  8  1  0  0  0  0
  7  9  1  0  0  0  0
  9 10  1  0  0  0  0
  9 11  1  0  0  0  0
  9 18  1  0  0  0  0
 11 12  1  0  0  0  0
 11 13  1  0  0  0  0
 11 14  1  0  0  0  0
 14 15  2  0  0  0  0
 14 16  1  0  0  0  0
 16 17  1  0  0  0  0
 18 19  2  0  0  0  0
 18 20  1  0  0  0  0
 20 21  1  0  0  0  0
 20 22  1  0  0  0  0
 22 23  1  0  0  0  0
 22 24  1  0  0  0  0
 22 25  1  0  0  0  0
M  END
$$$$

  -OEChem-01062216063D

 25 24  0     1  0  0  0  0  0999 V2000
   -2.8681   -3.4388    1.0653 H   0  0  0  0  0  0  0  0  0  0  0  0
   -2.8417   -2.4056    0.7070 C   0  0  0  0  0  0  0  0  0  0  0  0
   -3.5704   -1.8193    1.2719 H   0  0  0  0  0  0  0  0  0  0  0  0
   -3.1138   -2.3949   -0.3509 H   0  0  0  0  0  0  0  0  0  0  0  0
   -1.4521   -1.8246    0.8931 C   0  0  0  0  0  0  0  0  0  0  0  0
   -0.6249   -2.4656    1.5083 O   0  0  0  0  0  0  0  0  0  0  0  0
   -1.2067   -0.5328    0.4686 N   0  0  0  0  0  0  0  0  0  0  0  0
   -2.0249   -0.0350    0.1314 H   0  0  0  0  0  0  0  0  0  0  0  0
    0.0822    0.1962    0.4221 C   0  0  1  0  0  0  0  0  0  0  0  0
    0.6228    0.0449    1.3650 H   0  0  0  0  0  0  0  0  0  0  0  0
    0.9822   -0.2258   -0.7714 C   0  0  0  0  0  0  0  0  0  0  0  0
    0.4016   -0.1312   -1.6923 H   0  0  0  0  0  0  0  0  0  0  0  0
    1.8154    0.4803   -0.8384 H   0  0  0  0  0  0  0  0  0  0  0  0
    1.6100   -1.6155   -0.7726 C   0  0  0  0  0  0  0  0  0  0  0  0
    1.8782   -2.1718    0.2734 O   0  0  0  0  0  0  0  0  0  0  0  0
    1.8328   -2.1717   -1.9857 O   0  0  0  0  0  0  0  0  0  0  0  0
    2.2201   -3.0415   -1.7999 H   0  0  0  0  0  0  0  0  0  0  0  0
   -0.1702    1.7073    0.2455 C   0  0  0  0  0  0  0  0  0  0  0  0
    0.4505    2.5168    0.9170 O   0  0  0  0  0  0  0  0  0  0  0  0
   -1.0945    2.1621   -0.6810 N   0  0  0  0  0  0  0  0  0  0  0  0
   -1.4585    1.4834   -1.3417 H   0  0  0  0  0  0  0  0  0  0  0  0
   -1.3147    3.5798   -0.9447 C   0  0  0  0  0  0  0  0  0  0  0  0
   -0.4023    4.0440   -1.3339 H   0  0  0  0  0  0  0  0  0  0  0  0
   -2.1125    3.7090   -1.6825 H   0  0  0  0  0  0  0  0  0  0  0  0
   -1.6089    4.0992   -0.0263 H   0  0  0  0  0  0  0  0  0  0  0  0
  1  2  1  0  0  0  0
  2  3  1  0  0  0  0
  2  4  1  0  0  0  0
  2  5  1  0  0  0  0
  5  6  2  0  0  0  0
  5  7  1  0  0  0  0
  7  8  1  0  0  0  0
  7  9  1  0  0  0  0
  9 10  1  0  0  0  0
  9 11  1  0  0  0  0
  9 18  1  0  0  0  0
 11 12  1  0  0  0  0
 11 13  1  0  0  0  0
 11 14  1  0  0  0  0
 14 15  2  0  0  0  0
 14 16  1  0  0  0  0
 16 17  1  0  0  0  0
 18 19  2  0  0  0  0
 18 20  1  0  0  0  0
 20 21  1  0  0  0  0
 20 22  1  0  0  0  0
 22 23  1  0  0  0  0
 22 24  1  0  0  0  0
 22 25  1  0  0  0  0
M  END
$$$$

  -OEChem-01062216063D

 25 24  0     1  0  0  0  0  0999 V2000
   -2.7210   -3.5334    1.0954 H   0  0  0  0  0  0  0  0  0  0  0  0
   -2.7274   -2.5316    0.6560 C   0  0  0  0  0  0  0  0  0  0  0  0
   -3.5718   -1.9732    1.0671 H   0  0  0  0  0  0  0  0  0  0  0  0
   -2.8493   -2.6249   -0.4256 H   0  0  0  0  0  0  0  0  0  0  0  0
   -1.4273   -1.8160    0.9733 C   0  0  0  0  0  0  0  0  0  0  0  0
   -0.6292   -2.3418    1.7235 O   0  0  0  0  0  0  0  0  0  0  0  0
   -1.2405   -0.5232    0.5226 N   0  0  0  0  0  0  0  0  0  0  0  0
   -2.0211   -0.1470   -0.0024 H   0  0  0  0  0  0  0  0  0  0  0  0
    0.0424    0.2164    0.4506 C   0  0  1  0  0  0  0  0  0  0  0  0
    0.6070    0.0677    1.3798 H   0  0  0  0  0  0  0  0  0  0  0  0
    0.8973   -0.2283   -0.7682 C   0  0  0  0  0  0  0  0  0  0  0  0
    0.2875   -0.1376   -1.6707 H   0  0  0  0  0  0  0  0  0  0  0  0
    1.7361    0.4669   -0.8739 H   0  0  0  0  0  0  0  0  0  0  0  0
    1.5122   -1.6240   -0.7662 C   0  0  0  0  0  0  0  0  0  0  0  0
    1.8092   -2.1656    0.2798 O   0  0  0  0  0  0  0  0  0  0  0  0
    1.6878   -2.2041   -1.9759 O   0  0  0  0  0  0  0  0  0  0  0  0
    2.0857   -3.0689   -1.7891 H   0  0  0  0  0  0  0  0  0  0  0  0
   -0.1751    1.7349    0.2612 C   0  0  0  0  0  0  0  0  0  0  0  0
    0.6693    2.5200    0.6664 O   0  0  0  0  0  0  0  0  0  0  0  0
   -1.2795    2.2351   -0.4108 N   0  0  0  0  0  0  0  0  0  0  0  0
   -1.8972    1.5727   -0.8635 H   0  0  0  0  0  0  0  0  0  0  0  0
   -1.4644    3.6571   -0.6799 C   0  0  0  0  0  0  0  0  0  0  0  0
   -0.6441    4.0404   -1.2962 H   0  0  0  0  0  0  0  0  0  0  0  0
   -2.4051    3.8235   -1.2135 H   0  0  0  0  0  0  0  0  0  0  0  0
   -1.4949    4.2235    0.2571 H   0  0  0  0  0  0  0  0  0  0  0  0
  1  2  1  0  0  0  0
  2  3  1  0  0  0  0
  2  4  1  0  0  0  0
  2  5  1  0  0  0  0
  5  6  2  0  0  0  0
  5  7  1  0  0  0  0
  7  8  1  0  0  0  0
  7  9  1  0  0  0  0
  9 10  1  0  0  0  0
  9 11  1  0  0  0  0
  9 18  1  0  0  0  0
 11 12  1  0  0  0  0
 11 13  1  0  0  0  0
 11 14  1  0  0  0  0
 14 15  2  0  0  0  0
 14 16  1  0  0  0  0
 16 17  1  0  0  0  0
 18 19  2  0  0  0  0
 18 20  1  0  0  0  0
 20 21  1  0  0  0  0
 20 22  1  0  0  0  0
 22 23  1  0  0  0  0
 22 24  1  0  0  0  0
 22 25  1  0  0  0  0
M  END
$$$$

  -OEChem-01062216063D

 25 24  0     1  0  0  0  0  0999 V2000
   -2.5043   -3.6004    0.9969 H   0  0  0  0  0  0  0  0  0  0  0  0
   -2.5648   -2.6051    0.5473 C   0  0  0  0  0  0  0  0  0  0  0  0
   -3.5167   -2.1487    0.8292 H   0  0  0  0  0  0  0  0  0  0  0  0
   -2.5230   -2.7092   -0.5395 H   0  0  0  0  0  0  0  0  0  0  0  0
   -1.4125   -1.7457    1.0320 C   0  0  0  0  0  0  0  0  0  0  0  0
   -0.7074   -2.1414    1.9408 O   0  0  0  0  0  0  0  0  0  0  0  0
   -1.2675   -0.4603    0.5471 N   0  0  0  0  0  0  0  0  0  0  0  0
   -1.9288   -0.2473   -0.1924 H   0  0  0  0  0  0  0  0  0  0  0  0
    0.0294    0.2495    0.4491 C   0  0  1  0  0  0  0  0  0  0  0  0
    0.6072    0.1081    1.3712 H   0  0  0  0  0  0  0  0  0  0  0  0
    0.8423   -0.2577   -0.7759 C   0  0  0  0  0  0  0  0  0  0  0  0
    0.2186   -0.1692   -1.6692 H   0  0  0  0  0  0  0  0  0  0  0  0
    1.7056    0.3986   -0.9212 H   0  0  0  0  0  0  0  0  0  0  0  0
    1.4039   -1.6747   -0.7336 C   0  0  0  0  0  0  0  0  0  0  0  0
    1.6986   -2.1872    0.3281 O   0  0  0  0  0  0  0  0  0  0  0  0
    1.5259   -2.3101   -1.9219 O   0  0  0  0  0  0  0  0  0  0  0  0
    1.9051   -3.1782   -1.7131 H   0  0  0  0  0  0  0  0  0  0  0  0
   -0.1638    1.7706    0.2392 C   0  0  0  0  0  0  0  0  0  0  0  0
    0.8027    2.5187    0.2832 O   0  0  0  0  0  0  0  0  0  0  0  0
   -1.3891    2.2941   -0.1400 N   0  0  0  0  0  0  0  0  0  0  0  0
   -2.1991    1.7067    0.0229 H   0  0  0  0  0  0  0  0  0  0  0  0
   -1.6031    3.7223   -0.3489 C   0  0  0  0  0  0  0  0  0  0  0  0
   -0.9275    4.1019   -1.1230 H   0  0  0  0  0  0  0  0  0  0  0  0
   -2.6321    3.9082   -0.6712 H   0  0  0  0  0  0  0  0  0  0  0  0
   -1.4227    4.2775    0.5778 H   0  0  0  0  0  0  0  0  0  0  0  0
  1  2  1  0  0  0  0
  2  3  1  0  0  0  0
  2  4  1  0  0  0  0
  2  5  1  0  0  0  0
  5  6  2  0  0  0  0
  5  7  1  0  0  0  0
  7  8  1  0  0  0  0
  7  9  1  0  0  0  0
  9 10  1  0  0  0  0
  9 11  1  0  0  0  0
  9 18  1  0  0  0  0
 11 12  1  0  0  0  0
 11 13  1  0  0  0  0
 11 14  1  0  0  0  0
 14 15  2  0  0  0  0
 14 16  1  0  0  0  0
 16 17  1  0  0  0  0
 18 19  2  0  0  0  0
 18 20  1  0  0  0  0
 20 21  1  0  0  0  0
 20 22  1  0  0  0  0
 22 23  1  0  0  0  0
 22 24  1  0  0  0  0
 22 25  1  0  0  0  0
M  END
$$$$

  -OEChem-01062216063D

 25 24  0     1  0  0  0  0  0999 V2000
   -2.5282   -3.5758    1.0191 H   0  0  0  0  0  0  0  0  0  0  0  0
   -2.5523   -2.5998    0.5259 C   0  0  0  0  0  0  0  0  0  0  0  0
   -3.5065   -2.1164    0.7485 H   0  0  0  0  0  0  0  0  0  0  0  0
   -2.4680   -2.7507   -0.5529 H   0  0  0  0  0  0  0  0  0  0  0  0
   -1.4051   -1.7392    1.0205 C   0  0  0  0  0  0  0  0  0  0  0  0
   -0.7093   -2.1307    1.9383 O   0  0  0  0  0  0  0  0  0  0  0  0
   -1.2560   -0.4534    0.5386 N   0  0  0  0  0  0  0  0  0  0  0  0
   -1.9187   -0.2304   -0.1983 H   0  0  0  0  0  0  0  0  0  0  0  0
    0.0428    0.2529    0.4370 C   0  0  1  0  0  0  0  0  0  0  0  0
    0.6224    0.1141    1.3579 H   0  0  0  0  0  0  0  0  0  0  0  0
    0.8497   -0.2679   -0.7883 C   0  0  0  0  0  0  0  0  0  0  0  0
    0.2238   -0.1809   -1.6803 H   0  0  0  0  0  0  0  0  0  0  0  0
    1.7185    0.3788   -0.9420 H   0  0  0  0  0  0  0  0  0  0  0  0
    1.4034   -1.6877   -0.7365 C   0  0  0  0  0  0  0  0  0  0  0  0
    1.6983   -2.1930    0.3288 O   0  0  0  0  0  0  0  0  0  0  0  0
    1.5164   -2.3344   -1.9194 O   0  0  0  0  0  0  0  0  0  0  0  0
    1.8889   -3.2039   -1.7049 H   0  0  0  0  0  0  0  0  0  0  0  0
   -0.1663    1.7743    0.2317 C   0  0  0  0  0  0  0  0  0  0  0  0
    0.7886    2.5156    0.0440 O   0  0  0  0  0  0  0  0  0  0  0  0
   -1.4418    2.3102    0.1669 N   0  0  0  0  0  0  0  0  0  0  0  0
   -2.1871    1.7258    0.5324 H   0  0  0  0  0  0  0  0  0  0  0  0
   -1.6890    3.7416    0.0302 C   0  0  0  0  0  0  0  0  0  0  0  0
   -1.2337    4.1235   -0.8899 H   0  0  0  0  0  0  0  0  0  0  0  0
   -2.7647    3.9381   -0.0122 H   0  0  0  0  0  0  0  0  0  0  0  0
   -1.2693    4.2865    0.8825 H   0  0  0  0  0  0  0  0  0  0  0  0
  1  2  1  0  0  0  0
  2  3  1  0  0  0  0
  2  4  1  0  0  0  0
  2  5  1  0  0  0  0
  5  6  2  0  0  0  0
  5  7  1  0  0  0  0
  7  8  1  0  0  0  0
  7  9  1  0  0  0  0
  9 10  1  0  0  0  0
  9 11  1  0  0  0  0
  9 18  1  0  0  0  0
 11 12  1  0  0  0  0
 11 13  1  0  0  0  0
 11 14  1  0  0  0  0
 14 15  2  0  0  0  0
 14 16  1  0  0  0  0
 16 17  1  0  0  0  0
 18 19  2  0  0  0  0
 18 20  1  0  0  0  0
 20 21  1  0  0  0  0
 20 22  1  0  0  0  0
 22 23  1  0  0  0  0
 22 24  1  0  0  0  0
 22 25  1  0  0  0  0
M  END
$$$$

  -OEChem-01062216063D

 25 24  0     1  0  0  0  0  0999 V2000
   -2.5644   -3.5505    1.0103 H   0  0  0  0  0  0  0  0  0  0  0  0
   -2.5778   -2.5715    0.5228 C   0  0  0  0  0  0  0  0  0  0  0  0
   -3.5177   -2.0704    0.7655 H   0  0  0  0  0  0  0  0  0  0  0  0
   -2.5169   -2.7182   -0.5581 H   0  0  0  0  0  0  0  0  0  0  0  0
   -1.4043   -1.7368    1.0004 C   0  0  0  0  0  0  0  0  0  0  0  0
   -0.7042   -2.1444    1.9079 O   0  0  0  0  0  0  0  0  0  0  0  0
   -1.2404   -0.4499    0.5272 N   0  0  0  0  0  0  0  0  0  0  0  0
   -1.9181   -0.1981   -0.1874 H   0  0  0  0  0  0  0  0  0  0  0  0
    0.0600    0.2528    0.4217 C   0  0  1  0  0  0  0  0  0  0  0  0
    0.6393    0.1156    1.3429 H   0  0  0  0  0  0  0  0  0  0  0  0
    0.8702   -0.2772   -0.7989 C   0  0  0  0  0  0  0  0  0  0  0  0
    0.2467   -0.1940   -1.6930 H   0  0  0  0  0  0  0  0  0  0  0  0
    1.7416    0.3651   -0.9550 H   0  0  0  0  0  0  0  0  0  0  0  0
    1.4230   -1.6968   -0.7370 C   0  0  0  0  0  0  0  0  0  0  0  0
    1.7149   -2.1948    0.3327 O   0  0  0  0  0  0  0  0  0  0  0  0
    1.5447   -2.3496   -1.9157 O   0  0  0  0  0  0  0  0  0  0  0  0
    1.9180   -3.2170   -1.6943 H   0  0  0  0  0  0  0  0  0  0  0  0
   -0.1693    1.7744    0.2265 C   0  0  0  0  0  0  0  0  0  0  0  0
    0.7150    2.5066   -0.1970 O   0  0  0  0  0  0  0  0  0  0  0  0
   -1.4131    2.3255    0.4829 N   0  0  0  0  0  0  0  0  0  0  0  0
   -2.0618    1.7376    0.9988 H   0  0  0  0  0  0  0  0  0  0  0  0
   -1.6799    3.7575    0.4030 C   0  0  0  0  0  0  0  0  0  0  0  0
   -1.4654    4.1324   -0.6035 H   0  0  0  0  0  0  0  0  0  0  0  0
   -2.7315    3.9600    0.6279 H   0  0  0  0  0  0  0  0  0  0  0  0
   -1.0594    4.3036    1.1213 H   0  0  0  0  0  0  0  0  0  0  0  0
  1  2  1  0  0  0  0
  2  3  1  0  0  0  0
  2  4  1  0  0  0  0
  2  5  1  0  0  0  0
  5  6  2  0  0  0  0
  5  7  1  0  0  0  0
  7  8  1  0  0  0  0
  7  9  1  0  0  0  0
  9 10  1  0  0  0  0
  9 11  1  0  0  0  0
  9 18  1  0  0  0  0
 11 12  1  0  0  0  0
 11 13  1  0  0  0  0
 11 14  1  0  0  0  0
 14 15  2  0  0  0  0
 14 16  1  0  0  0  0
 16 17  1  0  0  0  0
 18 19  2  0  0  0  0
 18 20  1  0  0  0  0
 20 21  1  0  0  0  0
 20 22  1  0  0  0  0
 22 23  1  0  0  0  0
 22 24  1  0  0  0  0
 22 25  1  0  0  0  0
M  END
$$$$

  -OEChem-01062216063D

 25 24  0     1  0  0  0  0  0999 V2000
   -2.5886   -3.5309    0.9864 H   0  0  0  0  0  0  0  0  0  0  0  0
   -2.5977   -2.5431    0.5165 C   0  0  0  0  0  0  0  0  0  0  0  0
   -3.5265   -2.0344    0.7847 H   0  0  0  0  0  0  0  0  0  0  0  0
   -2.5579   -2.6710   -0.5679 H   0  0  0  0  0  0  0  0  0  0  0  0
   -1.4049   -1.7322    0.9870 C   0  0  0  0  0  0  0  0  0  0  0  0
   -0.7011   -2.1590    1.8827 O   0  0  0  0  0  0  0  0  0  0  0  0
   -1.2267   -0.4436    0.5247 N   0  0  0  0  0  0  0  0  0  0  0  0
   -1.9181   -0.1625   -0.1660 H   0  0  0  0  0  0  0  0  0  0  0  0
    0.0765    0.2519    0.4175 C   0  0  1  0  0  0  0  0  0  0  0  0
    0.6558    0.1114    1.3379 H   0  0  0  0  0  0  0  0  0  0  0  0
    0.8884   -0.2814   -0.8007 C   0  0  0  0  0  0  0  0  0  0  0  0
    0.2676   -0.1959   -1.6966 H   0  0  0  0  0  0  0  0  0  0  0  0
    1.7622    0.3585   -0.9525 H   0  0  0  0  0  0  0  0  0  0  0  0
    1.4378   -1.7020   -0.7375 C   0  0  0  0  0  0  0  0  0  0  0  0
    1.7262   -2.1995    0.3334 O   0  0  0  0  0  0  0  0  0  0  0  0
    1.5610   -2.3561   -1.9153 O   0  0  0  0  0  0  0  0  0  0  0  0
    1.9282   -3.2253   -1.6916 H   0  0  0  0  0  0  0  0  0  0  0  0
   -0.1680    1.7734    0.2361 C   0  0  0  0  0  0  0  0  0  0  0  0
    0.5814    2.4830   -0.4218 O   0  0  0  0  0  0  0  0  0  0  0  0
   -1.2955    2.3503    0.7938 N   0  0  0  0  0  0  0  0  0  0  0  0
   -1.8337    1.7666    1.4290 H   0  0  0  0  0  0  0  0  0  0  0  0
   -1.5752    3.7808    0.7406 C   0  0  0  0  0  0  0  0  0  0  0  0
   -1.6401    4.1211   -0.2984 H   0  0  0  0  0  0  0  0  0  0  0  0
   -2.5272    3.9992    1.2339 H   0  0  0  0  0  0  0  0  0  0  0  0
   -0.7845    4.3446    1.2466 H   0  0  0  0  0  0  0  0  0  0  0  0
  1  2  1  0  0  0  0
  2  3  1  0  0  0  0
  2  4  1  0  0  0  0
  2  5  1  0  0  0  0
  5  6  2  0  0  0  0
  5  7  1  0  0  0  0
  7  8  1  0  0  0  0
  7  9  1  0  0  0  0
  9 10  1  0  0  0  0
  9 11  1  0  0  0  0
  9 18  1  0  0  0  0
 11 12  1  0  0  0  0
 11 13  1  0  0  0  0
 11 14  1  0  0  0  0
 14 15  2  0  0  0  0
 14 16  1  0  0  0  0
 16 17  1  0  0  0  0
 18 19  2  0  0  0  0
 18 20  1  0  0  0  0
 20 21  1  0  0  0  0
 20 22  1  0  0  0  0
 22 23  1  0  0  0  0
 22 24  1  0  0  0  0
 22 25  1  0  0  0  0
M  END
$$$$

  -OEChem-01062216063D

 25 24  0     1  0  0  0  0  0999 V2000
   -2.6212   -3.5060    0.9751 H   0  0  0  0  0  0  0  0  0  0  0  0
   -2.6198   -2.5141    0.5142 C   0  0  0  0  0  0  0  0  0  0  0  0
   -3.5366   -1.9924    0.7988 H   0  0  0  0  0  0  0  0  0  0  0  0
   -2.5958   -2.6326   -0.5717 H   0  0  0  0  0  0  0  0  0  0  0  0
   -1.4081   -1.7272    0.9770 C   0  0  0  0  0  0  0  0  0  0  0  0
   -0.7008   -2.1729    1.8608 O   0  0  0  0  0  0  0  0  0  0  0  0
   -1.2160   -0.4368    0.5265 N   0  0  0  0  0  0  0  0  0  0  0  0
   -1.9151   -0.1316   -0.1462 H   0  0  0  0  0  0  0  0  0  0  0  0
    0.0911    0.2479    0.4194 C   0  0  1  0  0  0  0  0  0  0  0  0
    0.6699    0.0996    1.3388 H   0  0  0  0  0  0  0  0  0  0  0  0
    0.9062   -0.2815   -0.7978 C   0  0  0  0  0  0  0  0  0  0  0  0
    0.2885   -0.1905   -1.6953 H   0  0  0  0  0  0  0  0  0  0  0  0
    1.7798    0.3608   -0.9419 H   0  0  0  0  0  0  0  0  0  0  0  0
    1.4512   -1.7042   -0.7409 C   0  0  0  0  0  0  0  0  0  0  0  0
    1.7336   -2.2076    0.3290 O   0  0  0  0  0  0  0  0  0  0  0  0
    1.5792   -2.3527   -1.9213 O   0  0  0  0  0  0  0  0  0  0  0  0
    1.9416   -3.2246   -1.7007 H   0  0  0  0  0  0  0  0  0  0  0  0
   -0.1584    1.7690    0.2538 C   0  0  0  0  0  0  0  0  0  0  0  0
    0.3954    2.4404   -0.6072 O   0  0  0  0  0  0  0  0  0  0  0  0
   -1.0911    2.3842    1.0688 N   0  0  0  0  0  0  0  0  0  0  0  0
   -1.5054    1.8144    1.8022 H   0  0  0  0  0  0  0  0  0  0  0  0
   -1.3872    3.8114    1.0234 C   0  0  0  0  0  0  0  0  0  0  0  0
   -1.7538    4.0957    0.0314 H   0  0  0  0  0  0  0  0  0  0  0  0
   -2.1563    4.0623    1.7601 H   0  0  0  0  0  0  0  0  0  0  0  0
   -0.4889    4.3961    1.2476 H   0  0  0  0  0  0  0  0  0  0  0  0
  1  2  1  0  0  0  0
  2  3  1  0  0  0  0
  2  4  1  0  0  0  0
  2  5  1  0  0  0  0
  5  6  2  0  0  0  0
  5  7  1  0  0  0  0
  7  8  1  0  0  0  0
  7  9  1  0  0  0  0
  9 10  1  0  0  0  0
  9 11  1  0  0  0  0
  9 18  1  0  0  0  0
 11 12  1  0  0  0  0
 11 13  1  0  0  0  0
 11 14  1  0  0  0  0
 14 15  2  0  0  0  0
 14 16  1  0  0  0  0
 16 17  1  0  0  0  0
 18 19  2  0  0  0  0
 18 20  1  0  0  0  0
 20 21  1  0  0  0  0
 20 22  1  0  0  0  0
 22 23  1  0  0  0  0
 22 24  1  0  0  0  0
 22 25  1  0  0  0  0
M  END
$$$$

  -OEChem-01062216063D

 25 24  0     1  0  0  0  0  0999 V2000
   -2.6025   -3.5171    0.9048 H   0  0  0  0  0  0  0  0  0  0  0  0
   -2.6324   -2.4977    0.5092 C   0  0  0  0  0  0  0  0  0  0  0  0
   -3.5434   -2.0085    0.8623 H   0  0  0  0  0  0  0  0  0  0  0  0
   -2.6505   -2.5465   -0.5822 H   0  0  0  0  0  0  0  0  0  0  0  0
   -1.4139   -1.7232    0.9744 C   0  0  0  0  0  0  0  0  0  0  0  0
   -0.7065   -2.1818    1.8518 O   0  0  0  0  0  0  0  0  0  0  0  0
   -1.2111   -0.4319    0.5319 N   0  0  0  0  0  0  0  0  0  0  0  0
   -1.9106   -0.1124   -0.1340 H   0  0  0  0  0  0  0  0  0  0  0  0
    0.0995    0.2434    0.4290 C   0  0  1  0  0  0  0  0  0  0  0  0
    0.6778    0.0853    1.3471 H   0  0  0  0  0  0  0  0  0  0  0  0
    0.9159   -0.2805   -0.7888 C   0  0  0  0  0  0  0  0  0  0  0  0
    0.2982   -0.1861   -1.6865 H   0  0  0  0  0  0  0  0  0  0  0  0
    1.7874    0.3655   -0.9286 H   0  0  0  0  0  0  0  0  0  0  0  0
    1.4546   -1.7056   -0.7396 C   0  0  0  0  0  0  0  0  0  0  0  0
    1.7310   -2.2163    0.3285 O   0  0  0  0  0  0  0  0  0  0  0  0
    1.5875   -2.3468   -1.9235 O   0  0  0  0  0  0  0  0  0  0  0  0
    1.9420   -3.2228   -1.7064 H   0  0  0  0  0  0  0  0  0  0  0  0
   -0.1430    1.7645    0.2726 C   0  0  0  0  0  0  0  0  0  0  0  0
    0.1780    2.3841   -0.7338 O   0  0  0  0  0  0  0  0  0  0  0  0
   -0.8204    2.4345    1.2741 N   0  0  0  0  0  0  0  0  0  0  0  0
   -1.0956    1.8925    2.0894 H   0  0  0  0  0  0  0  0  0  0  0  0
   -1.1256    3.8597    1.2306 C   0  0  0  0  0  0  0  0  0  0  0  0
   -1.7627    4.0889    0.3700 H   0  0  0  0  0  0  0  0  0  0  0  0
   -1.6517    4.1625    2.1411 H   0  0  0  0  0  0  0  0  0  0  0  0
   -0.2040    4.4463    1.1531 H   0  0  0  0  0  0  0  0  0  0  0  0
  1  2  1  0  0  0  0
  2  3  1  0  0  0  0
  2  4  1  0  0  0  0
  2  5  1  0  0  0  0
  5  6  2  0  0  0  0
  5  7  1  0  0  0  0
  7  8  1  0  0  0  0
  7  9  1  0  0  0  0
  9 10  1  0  0  0  0
  9 11  1  0  0  0  0
  9 18  1  0  0  0  0
 11 12  1  0  0  0  0
 11 13  1  0  0  0  0
 11 14  1  0  0  0  0
 14 15  2  0  0  0  0
 14 16  1  0  0  0  0
 16 17  1  0  0  0  0
 18 19  2  0  0  0  0
 18 20  1  0  0  0  0
 20 21  1  0  0  0  0
 20 22  1  0  0  0  0
 22 23  1  0  0  0  0
 22 24  1  0  0  0  0
 22 25  1  0  0  0  0
M  END
$$$$

  -OEChem-01062216063D

 25 24  0     1  0  0  0  0  0999 V2000
   -2.6395   -3.4970    0.9086 H   0  0  0  0  0  0  0  0  0  0  0  0
   -2.6546   -2.4772    0.5135 C   0  0  0  0  0  0  0  0  0  0  0  0
   -3.5539   -1.9721    0.8739 H   0  0  0  0  0  0  0  0  0  0  0  0
   -2.6818   -2.5245   -0.5777 H   0  0  0  0  0  0  0  0  0  0  0  0
   -1.4189   -1.7248    0.9695 C   0  0  0  0  0  0  0  0  0  0  0  0
   -0.7063   -2.2022    1.8330 O   0  0  0  0  0  0  0  0  0  0  0  0
   -1.2033   -0.4332    0.5348 N   0  0  0  0  0  0  0  0  0  0  0  0
   -1.9036   -0.0953   -0.1216 H   0  0  0  0  0  0  0  0  0  0  0  0
    0.1097    0.2346    0.4400 C   0  0  1  0  0  0  0  0  0  0  0  0
    0.6857    0.0639    1.3571 H   0  0  0  0  0  0  0  0  0  0  0  0
    0.9295   -0.2773   -0.7801 C   0  0  0  0  0  0  0  0  0  0  0  0
    0.3123   -0.1770   -1.6778 H   0  0  0  0  0  0  0  0  0  0  0  0
    1.7985    0.3732   -0.9141 H   0  0  0  0  0  0  0  0  0  0  0  0
    1.4642   -1.7043   -0.7459 C   0  0  0  0  0  0  0  0  0  0  0  0
    1.7346   -2.2274    0.3177 O   0  0  0  0  0  0  0  0  0  0  0  0
    1.6049   -2.3306   -1.9367 O   0  0  0  0  0  0  0  0  0  0  0  0
    1.9542   -3.2107   -1.7282 H   0  0  0  0  0  0  0  0  0  0  0  0
   -0.1234    1.7556    0.2903 C   0  0  0  0  0  0  0  0  0  0  0  0
   -0.0623    2.3191   -0.7954 O   0  0  0  0  0  0  0  0  0  0  0  0
   -0.5094    2.4851    1.3990 N   0  0  0  0  0  0  0  0  0  0  0  0
   -0.6275    1.9771    2.2720 H   0  0  0  0  0  0  0  0  0  0  0  0
   -0.8202    3.9091    1.3594 C   0  0  0  0  0  0  0  0  0  0  0  0
   -1.6750    4.0974    0.7014 H   0  0  0  0  0  0  0  0  0  0  0  0
   -1.0688    4.2700    2.3621 H   0  0  0  0  0  0  0  0  0  0  0  0
    0.0398    4.4786    0.9914 H   0  0  0  0  0  0  0  0  0  0  0  0
  1  2  1  0  0  0  0
  2  3  1  0  0  0  0
  2  4  1  0  0  0  0
  2  5  1  0  0  0  0
  5  6  2  0  0  0  0
  5  7  1  0  0  0  0
  7  8  1  0  0  0  0
  7  9  1  0  0  0  0
  9 10  1  0  0  0  0
  9 11  1  0  0  0  0
  9 18  1  0  0  0  0
 11 12  1  0  0  0  0
 11 13  1  0  0  0  0
 11 14  1  0  0  0  0
 14 15  2  0  0  0  0
 14 16  1  0  0  0  0
 16 17  1  0  0  0  0
 18 19  2  0  0  0  0
 18 20  1  0  0  0  0
 20 21  1  0  0  0  0
 20 22  1  0  0  0  0
 22 23  1  0  0  0  0
 22 24  1  0  0  0  0
 22 25  1  0  0  0  0
M  END
$$$$

  -OEChem-01062216063D

 25 24  0     1  0  0  0  0  0999 V2000
   -2.6771   -3.4807    0.9125 H   0  0  0  0  0  0  0  0  0  0  0  0
   -2.6794   -2.4587    0.5234 C   0  0  0  0  0  0  0  0  0  0  0  0
   -3.5654   -1.9405    0.8977 H   0  0  0  0  0  0  0  0  0  0  0  0
   -2.7213   -2.4991   -0.5676 H   0  0  0  0  0  0  0  0  0  0  0  0
   -1.4255   -1.7295    0.9673 C   0  0  0  0  0  0  0  0  0  0  0  0
   -0.7052   -2.2277    1.8126 O   0  0  0  0  0  0  0  0  0  0  0  0
   -1.1960   -0.4392    0.5367 N   0  0  0  0  0  0  0  0  0  0  0  0
   -1.8975   -0.0826   -0.1089 H   0  0  0  0  0  0  0  0  0  0  0  0
    0.1188    0.2236    0.4507 C   0  0  1  0  0  0  0  0  0  0  0  0
    0.6907    0.0422    1.3681 H   0  0  0  0  0  0  0  0  0  0  0  0
    0.9422   -0.2732   -0.7718 C   0  0  0  0  0  0  0  0  0  0  0  0
    0.3271   -0.1646   -1.6699 H   0  0  0  0  0  0  0  0  0  0  0  0
    1.8101    0.3803   -0.8969 H   0  0  0  0  0  0  0  0  0  0  0  0
    1.4741   -1.7016   -0.7525 C   0  0  0  0  0  0  0  0  0  0  0  0
    1.7389   -2.2380    0.3059 O   0  0  0  0  0  0  0  0  0  0  0  0
    1.6262   -2.3110   -1.9505 O   0  0  0  0  0  0  0  0  0  0  0  0
    1.9715   -3.1948   -1.7509 H   0  0  0  0  0  0  0  0  0  0  0  0
   -0.1050    1.7443    0.3013 C   0  0  0  0  0  0  0  0  0  0  0  0
   -0.3174    2.2508   -0.7936 O   0  0  0  0  0  0  0  0  0  0  0  0
   -0.1849    2.5343    1.4326 N   0  0  0  0  0  0  0  0  0  0  0  0
   -0.1071    2.0692    2.3334 H   0  0  0  0  0  0  0  0  0  0  0  0
   -0.4901    3.9597    1.3973 C   0  0  0  0  0  0  0  0  0  0  0  0
   -1.4893    4.1278    0.9818 H   0  0  0  0  0  0  0  0  0  0  0  0
   -0.4601    4.3784    2.4080 H   0  0  0  0  0  0  0  0  0  0  0  0
    0.2418    4.4932    0.7813 H   0  0  0  0  0  0  0  0  0  0  0  0
  1  2  1  0  0  0  0
  2  3  1  0  0  0  0
  2  4  1  0  0  0  0
  2  5  1  0  0  0  0
  5  6  2  0  0  0  0
  5  7  1  0  0  0  0
  7  8  1  0  0  0  0
  7  9  1  0  0  0  0
  9 10  1  0  0  0  0
  9 11  1  0  0  0  0
  9 18  1  0  0  0  0
 11 12  1  0  0  0  0
 11 13  1  0  0  0  0
 11 14  1  0  0  0  0
 14 15  2  0  0  0  0
 14 16  1  0  0  0  0
 16 17  1  0  0  0  0
 18 19  2  0  0  0  0
 18 20  1  0  0  0  0
 20 21  1  0  0  0  0
 20 22  1  0  0  0  0
 22 23  1  0  0  0  0
 22 24  1  0  0  0  0
 22 25  1  0  0  0  0
M  END
$$$$

  -OEChem-01062216063D

 25 24  0     1  0  0  0  0  0999 V2000
   -2.7363   -3.4538    0.9447 H   0  0  0  0  0  0  0  0  0  0  0  0
   -2.7130   -2.4373    0.5417 C   0  0  0  0  0  0  0  0  0  0  0  0
   -3.5779   -1.8874    0.9204 H   0  0  0  0  0  0  0  0  0  0  0  0
   -2.7702   -2.4904   -0.5481 H   0  0  0  0  0  0  0  0  0  0  0  0
   -1.4323   -1.7402    0.9598 C   0  0  0  0  0  0  0  0  0  0  0  0
   -0.7008   -2.2648    1.7792 O   0  0  0  0  0  0  0  0  0  0  0  0
   -1.1869   -0.4519    0.5324 N   0  0  0  0  0  0  0  0  0  0  0  0
   -1.8948   -0.0687   -0.0914 H   0  0  0  0  0  0  0  0  0  0  0  0
    0.1279    0.2104    0.4579 C   0  0  1  0  0  0  0  0  0  0  0  0
    0.6919    0.0230    1.3787 H   0  0  0  0  0  0  0  0  0  0  0  0
    0.9600   -0.2669   -0.7647 C   0  0  0  0  0  0  0  0  0  0  0  0
    0.3498   -0.1476   -1.6649 H   0  0  0  0  0  0  0  0  0  0  0  0
    1.8266    0.3907   -0.8751 H   0  0  0  0  0  0  0  0  0  0  0  0
    1.4946   -1.6945   -0.7607 C   0  0  0  0  0  0  0  0  0  0  0  0
    1.7528   -2.2438    0.2926 O   0  0  0  0  0  0  0  0  0  0  0  0
    1.6592   -2.2871   -1.9657 O   0  0  0  0  0  0  0  0  0  0  0  0
    1.9987   -3.1750   -1.7744 H   0  0  0  0  0  0  0  0  0  0  0  0
   -0.0925    1.7294    0.3049 C   0  0  0  0  0  0  0  0  0  0  0  0
   -0.5585    2.1870   -0.7317 O   0  0  0  0  0  0  0  0  0  0  0  0
    0.1228    2.5721    1.3792 N   0  0  0  0  0  0  0  0  0  0  0  0
    0.4118    2.1488    2.2570 H   0  0  0  0  0  0  0  0  0  0  0  0
   -0.1605    4.0019    1.3451 C   0  0  0  0  0  0  0  0  0  0  0  0
   -1.2298    4.1770    1.1867 H   0  0  0  0  0  0  0  0  0  0  0  0
    0.1310    4.4682    2.2913 H   0  0  0  0  0  0  0  0  0  0  0  0
    0.3991    4.4843    0.5366 H   0  0  0  0  0  0  0  0  0  0  0  0
  1  2  1  0  0  0  0
  2  3  1  0  0  0  0
  2  4  1  0  0  0  0
  2  5  1  0  0  0  0
  5  6  2  0  0  0  0
  5  7  1  0  0  0  0
  7  8  1  0  0  0  0
  7  9  1  0  0  0  0
  9 10  1  0  0  0  0
  9 11  1  0  0  0  0
  9 18  1  0  0  0  0
 11 12  1  0  0  0  0
 11 13  1  0  0  0  0
 11 14  1  0  0  0  0
 14 15  2  0  0  0  0
 14 16  1  0  0  0  0
 16 17  1  0  0  0  0
 18 19  2  0  0  0  0
 18 20  1  0  0  0  0
 20 21  1  0  0  0  0
 20 22  1  0  0  0  0
 22 23  1  0  0  0  0
 22 24  1  0  0  0  0
 22 25  1  0  0  0  0
M  END
$$$$

  -OEChem-01062216063D

 25 24  0     1  0  0  0  0  0999 V2000
   -2.7725   -3.4425    0.9585 H   0  0  0  0  0  0  0  0  0  0  0  0
   -2.7398   -2.4241    0.5613 C   0  0  0  0  0  0  0  0  0  0  0  0
   -3.5860   -1.8614    0.9627 H   0  0  0  0  0  0  0  0  0  0  0  0
   -2.8229   -2.4687   -0.5272 H   0  0  0  0  0  0  0  0  0  0  0  0
   -1.4376   -1.7525    0.9543 C   0  0  0  0  0  0  0  0  0  0  0  0
   -0.6934   -2.3002    1.7467 O   0  0  0  0  0  0  0  0  0  0  0  0
   -1.1814   -0.4661    0.5281 N   0  0  0  0  0  0  0  0  0  0  0  0
   -1.8990   -0.0576   -0.0690 H   0  0  0  0  0  0  0  0  0  0  0  0
    0.1310    0.2016    0.4635 C   0  0  1  0  0  0  0  0  0  0  0  0
    0.6881    0.0130    1.3881 H   0  0  0  0  0  0  0  0  0  0  0  0
    0.9694   -0.2613   -0.7586 C   0  0  0  0  0  0  0  0  0  0  0  0
    0.3608   -0.1364   -1.6593 H   0  0  0  0  0  0  0  0  0  0  0  0
    1.8336    0.4004   -0.8615 H   0  0  0  0  0  0  0  0  0  0  0  0
    1.5106   -1.6865   -0.7650 C   0  0  0  0  0  0  0  0  0  0  0  0
    1.7676   -2.2443    0.2841 O   0  0  0  0  0  0  0  0  0  0  0  0
    1.6867   -2.2651   -1.9751 O   0  0  0  0  0  0  0  0  0  0  0  0
    2.0273   -3.1542   -1.7910 H   0  0  0  0  0  0  0  0  0  0  0  0
   -0.0896    1.7192    0.3041 C   0  0  0  0  0  0  0  0  0  0  0  0
   -0.7634    2.1450   -0.6269 O   0  0  0  0  0  0  0  0  0  0  0  0
    0.3975    2.6009    1.2509 N   0  0  0  0  0  0  0  0  0  0  0  0
    0.8781    2.2088    2.0561 H   0  0  0  0  0  0  0  0  0  0  0  0
    0.1568    4.0382    1.2043 C   0  0  0  0  0  0  0  0  0  0  0  0
   -0.9144    4.2506    1.2847 H   0  0  0  0  0  0  0  0  0  0  0  0
    0.6713    4.5347    2.0325 H   0  0  0  0  0  0  0  0  0  0  0  0
    0.5301    4.4593    0.2648 H   0  0  0  0  0  0  0  0  0  0  0  0
  1  2  1  0  0  0  0
  2  3  1  0  0  0  0
  2  4  1  0  0  0  0
  2  5  1  0  0  0  0
  5  6  2  0  0  0  0
  5  7  1  0  0  0  0
  7  8  1  0  0  0  0
  7  9  1  0  0  0  0
  9 10  1  0  0  0  0
  9 11  1  0  0  0  0
  9 18  1  0  0  0  0
 11 12  1  0  0  0  0
 11 13  1  0  0  0  0
 11 14  1  0  0  0  0
 14 15  2  0  0  0  0
 14 16  1  0  0  0  0
 16 17  1  0  0  0  0
 18 19  2  0  0  0  0
 18 20  1  0  0  0  0
 20 21  1  0  0  0  0
 20 22  1  0  0  0  0
 22 23  1  0  0  0  0
 22 24  1  0  0  0  0
 22 25  1  0  0  0  0
M  END
$$$$

  -OEChem-01062216063D

 25 24  0     1  0  0  0  0  0999 V2000
   -2.7659   -3.4605    0.9089 H   0  0  0  0  0  0  0  0  0  0  0  0
   -2.7581   -2.4180    0.5787 C   0  0  0  0  0  0  0  0  0  0  0  0
   -3.5855   -1.8889    1.0574 H   0  0  0  0  0  0  0  0  0  0  0  0
   -2.8951   -2.3922   -0.5050 H   0  0  0  0  0  0  0  0  0  0  0  0
   -1.4415   -1.7632    0.9509 C   0  0  0  0  0  0  0  0  0  0  0  0
   -0.6882   -2.3260    1.7237 O   0  0  0  0  0  0  0  0  0  0  0  0
   -1.1788   -0.4783    0.5247 N   0  0  0  0  0  0  0  0  0  0  0  0
   -1.9077   -0.0482   -0.0434 H   0  0  0  0  0  0  0  0  0  0  0  0
    0.1296    0.1981    0.4690 C   0  0  1  0  0  0  0  0  0  0  0  0
    0.6804    0.0122    1.3980 H   0  0  0  0  0  0  0  0  0  0  0  0
    0.9726   -0.2552   -0.7524 C   0  0  0  0  0  0  0  0  0  0  0  0
    0.3641   -0.1283   -1.6532 H   0  0  0  0  0  0  0  0  0  0  0  0
    1.8351    0.4097   -0.8501 H   0  0  0  0  0  0  0  0  0  0  0  0
    1.5214   -1.6773   -0.7641 C   0  0  0  0  0  0  0  0  0  0  0  0
    1.7793   -2.2386    0.2828 O   0  0  0  0  0  0  0  0  0  0  0  0
    1.7038   -2.2483   -1.9767 O   0  0  0  0  0  0  0  0  0  0  0  0
    2.0461   -3.1376   -1.7969 H   0  0  0  0  0  0  0  0  0  0  0  0
   -0.0914    1.7150    0.3018 C   0  0  0  0  0  0  0  0  0  0  0  0
   -0.9338    2.1255   -0.4887 O   0  0  0  0  0  0  0  0  0  0  0  0
    0.6305    2.6184    1.0595 N   0  0  0  0  0  0  0  0  0  0  0  0
    1.2828    2.2460    1.7442 H   0  0  0  0  0  0  0  0  0  0  0  0
    0.4374    4.0616    0.9811 C   0  0  0  0  0  0  0  0  0  0  0  0
   -0.5896    4.3266    1.2536 H   0  0  0  0  0  0  0  0  0  0  0  0
    1.1200    4.5728    1.6668 H   0  0  0  0  0  0  0  0  0  0  0  0
    0.6360    4.4203   -0.0344 H   0  0  0  0  0  0  0  0  0  0  0  0
  1  2  1  0  0  0  0
  2  3  1  0  0  0  0
  2  4  1  0  0  0  0
  2  5  1  0  0  0  0
  5  6  2  0  0  0  0
  5  7  1  0  0  0  0
  7  8  1  0  0  0  0
  7  9  1  0  0  0  0
  9 10  1  0  0  0  0
  9 11  1  0  0  0  0
  9 18  1  0  0  0  0
 11 12  1  0  0  0  0
 11 13  1  0  0  0  0
 11 14  1  0  0  0  0
 14 15  2  0  0  0  0
 14 16  1  0  0  0  0
 16 17  1  0  0  0  0
 18 19  2  0  0  0  0
 18 20  1  0  0  0  0
 20 21  1  0  0  0  0
 20 22  1  0  0  0  0
 22 23  1  0  0  0  0
 22 24  1  0  0  0  0
 22 25  1  0  0  0  0
M  END
$$$$

  -OEChem-01062216063D

 25 24  0     1  0  0  0  0  0999 V2000
   -2.8087   -3.4415    0.9473 H   0  0  0  0  0  0  0  0  0  0  0  0
   -2.7816   -2.4045    0.6012 C   0  0  0  0  0  0  0  0  0  0  0  0
   -3.5845   -1.8474    1.0897 H   0  0  0  0  0  0  0  0  0  0  0  0
   -2.9418   -2.3908   -0.4794 H   0  0  0  0  0  0  0  0  0  0  0  0
   -1.4410   -1.7776    0.9349 C   0  0  0  0  0  0  0  0  0  0  0  0
   -0.6726   -2.3646    1.6737 O   0  0  0  0  0  0  0  0  0  0  0  0
   -1.1723   -0.4926    0.5127 N   0  0  0  0  0  0  0  0  0  0  0  0
   -1.9206   -0.0311   -0.0042 H   0  0  0  0  0  0  0  0  0  0  0  0
    0.1304    0.1961    0.4663 C   0  0  1  0  0  0  0  0  0  0  0  0
    0.6759    0.0148    1.3994 H   0  0  0  0  0  0  0  0  0  0  0  0
    0.9817   -0.2488   -0.7527 C   0  0  0  0  0  0  0  0  0  0  0  0
    0.3740   -0.1256   -1.6542 H   0  0  0  0  0  0  0  0  0  0  0  0
    1.8398    0.4216   -0.8486 H   0  0  0  0  0  0  0  0  0  0  0  0
    1.5432   -1.6658   -0.7670 C   0  0  0  0  0  0  0  0  0  0  0  0
    1.8034   -2.2281    0.2785 O   0  0  0  0  0  0  0  0  0  0  0  0
    1.7337   -2.2311   -1.9810 O   0  0  0  0  0  0  0  0  0  0  0  0
    2.0778   -3.1199   -1.8020 H   0  0  0  0  0  0  0  0  0  0  0  0
   -0.0958    1.7128    0.2959 C   0  0  0  0  0  0  0  0  0  0  0  0
   -1.0725    2.1226   -0.3223 O   0  0  0  0  0  0  0  0  0  0  0  0
    0.8101    2.6183    0.8169 N   0  0  0  0  0  0  0  0  0  0  0  0
    1.5854    2.2506    1.3615 H   0  0  0  0  0  0  0  0  0  0  0  0
    0.6507    4.0631    0.7020 C   0  0  0  0  0  0  0  0  0  0  0  0
   -0.2752    4.3866    1.1894 H   0  0  0  0  0  0  0  0  0  0  0  0
    1.4908    4.5757    1.1803 H   0  0  0  0  0  0  0  0  0  0  0  0
    0.6179    4.3630   -0.3508 H   0  0  0  0  0  0  0  0  0  0  0  0
  1  2  1  0  0  0  0
  2  3  1  0  0  0  0
  2  4  1  0  0  0  0
  2  5  1  0  0  0  0
  5  6  2  0  0  0  0
  5  7  1  0  0  0  0
  7  8  1  0  0  0  0
  7  9  1  0  0  0  0
  9 10  1  0  0  0  0
  9 11  1  0  0  0  0
  9 18  1  0  0  0  0
 11 12  1  0  0  0  0
 11 13  1  0  0  0  0
 11 14  1  0  0  0  0
 14 15  2  0  0  0  0
 14 16  1  0  0  0  0
 16 17  1  0  0  0  0
 18 19  2  0  0  0  0
 18 20  1  0  0  0  0
 20 21  1  0  0  0  0
 20 22  1  0  0  0  0
 22 23  1  0  0  0  0
 22 24  1  0  0  0  0
 22 25  1  0  0  0  0
M  END
$$$$

  -OEChem-01062216063D

 25 24  0     1  0  0  0  0  0999 V2000
   -2.8421   -3.4242    0.9566 H   0  0  0  0  0  0  0  0  0  0  0  0
   -2.8032   -2.3845    0.6195 C   0  0  0  0  0  0  0  0  0  0  0  0
   -3.5777   -1.8151    1.1389 H   0  0  0  0  0  0  0  0  0  0  0  0
   -2.9977   -2.3564   -0.4552 H   0  0  0  0  0  0  0  0  0  0  0  0
   -1.4392   -1.7901    0.9151 C   0  0  0  0  0  0  0  0  0  0  0  0
   -0.6587   -2.4075    1.6148 O   0  0  0  0  0  0  0  0  0  0  0  0
   -1.1611   -0.5047    0.5001 N   0  0  0  0  0  0  0  0  0  0  0  0
   -1.9289   -0.0088    0.0472 H   0  0  0  0  0  0  0  0  0  0  0  0
    0.1370    0.1950    0.4614 C   0  0  1  0  0  0  0  0  0  0  0  0
    0.6797    0.0185    1.3971 H   0  0  0  0  0  0  0  0  0  0  0  0
    0.9935   -0.2505   -0.7560 C   0  0  0  0  0  0  0  0  0  0  0  0
    0.3847   -0.1337   -1.6576 H   0  0  0  0  0  0  0  0  0  0  0  0
    1.8494    0.4216   -0.8567 H   0  0  0  0  0  0  0  0  0  0  0  0
    1.5645   -1.6642   -0.7685 C   0  0  0  0  0  0  0  0  0  0  0  0
    1.8282   -2.2237    0.2776 O   0  0  0  0  0  0  0  0  0  0  0  0
    1.7629   -2.2280   -1.9821 O   0  0  0  0  0  0  0  0  0  0  0  0
    2.1099   -3.1155   -1.8013 H   0  0  0  0  0  0  0  0  0  0  0  0
   -0.0966    1.7130    0.2919 C   0  0  0  0  0  0  0  0  0  0  0  0
   -1.1747    2.1306   -0.1180 O   0  0  0  0  0  0  0  0  0  0  0  0
    0.9266    2.6112    0.5358 N   0  0  0  0  0  0  0  0  0  0  0  0
    1.7976    2.2446    0.9095 H   0  0  0  0  0  0  0  0  0  0  0  0
    0.7783    4.0532    0.3801 C   0  0  0  0  0  0  0  0  0  0  0  0
   -0.0019    4.4325    1.0483 H   0  0  0  0  0  0  0  0  0  0  0  0
    1.7177    4.5587    0.6231 H   0  0  0  0  0  0  0  0  0  0  0  0
    0.5099    4.3018   -0.6521 H   0  0  0  0  0  0  0  0  0  0  0  0
  1  2  1  0  0  0  0
  2  3  1  0  0  0  0
  2  4  1  0  0  0  0
  2  5  1  0  0  0  0
  5  6  2  0  0  0  0
  5  7  1  0  0  0  0
  7  8  1  0  0  0  0
  7  9  1  0  0  0  0
  9 10  1  0  0  0  0
  9 11  1  0  0  0  0
  9 18  1  0  0  0  0
 11 12  1  0  0  0  0
 11 13  1  0  0  0  0
 11 14  1  0  0  0  0
 14 15  2  0  0  0  0
 14 16  1  0  0  0  0
 16 17  1  0  0  0  0
 18 19  2  0  0  0  0
 18 20  1  0  0  0  0
 20 21  1  0  0  0  0
 20 22  1  0  0  0  0
 22 23  1  0  0  0  0
 22 24  1  0  0  0  0
 22 25  1  0  0  0  0
M  END
$$$$

  -OEChem-01062216063D

 25 24  0     1  0  0  0  0  0999 V2000
   -2.8067   -3.4274    0.9786 H   0  0  0  0  0  0  0  0  0  0  0  0
   -2.7899   -2.3798    0.6651 C   0  0  0  0  0  0  0  0  0  0  0  0
   -3.4820   -1.8122    1.2917 H   0  0  0  0  0  0  0  0  0  0  0  0
   -3.1170   -2.3190   -0.3755 H   0  0  0  0  0  0  0  0  0  0  0  0
   -1.3884   -1.8155    0.8019 C   0  0  0  0  0  0  0  0  0  0  0  0
   -0.5287   -2.4733    1.3596 O   0  0  0  0  0  0  0  0  0  0  0  0
   -1.1411   -0.5202    0.3968 N   0  0  0  0  0  0  0  0  0  0  0  0
   -1.9546    0.0392    0.1426 H   0  0  0  0  0  0  0  0  0  0  0  0
    0.1506    0.1889    0.4064 C   0  0  1  0  0  0  0  0  0  0  0  0
    0.7888   -0.1863    1.2151 H   0  0  0  0  0  0  0  0  0  0  0  0
    0.8456    0.0117   -0.9709 C   0  0  0  0  0  0  0  0  0  0  0  0
    0.1426    0.3164   -1.7518 H   0  0  0  0  0  0  0  0  0  0  0  0
    1.7080    0.6787   -1.0347 H   0  0  0  0  0  0  0  0  0  0  0  0
    1.3615   -1.3792   -1.3238 C   0  0  0  0  0  0  0  0  0  0  0  0
    1.7188   -2.1387   -0.4445 O   0  0  0  0  0  0  0  0  0  0  0  0
    1.4083   -1.6923   -2.6390 O   0  0  0  0  0  0  0  0  0  0  0  0
    1.7453   -2.6010   -2.6772 H   0  0  0  0  0  0  0  0  0  0  0  0
   -0.0794    1.7048    0.6190 C   0  0  0  0  0  0  0  0  0  0  0  0
   -1.2183    2.1594    0.6513 O   0  0  0  0  0  0  0  0  0  0  0  0
    0.9886    2.5836    0.6677 N   0  0  0  0  0  0  0  0  0  0  0  0
    1.9244    2.1882    0.6706 H   0  0  0  0  0  0  0  0  0  0  0  0
    0.8326    4.0248    0.8258 C   0  0  0  0  0  0  0  0  0  0  0  0
    0.3135    4.2540    1.7626 H   0  0  0  0  0  0  0  0  0  0  0  0
    1.8122    4.5121    0.8449 H   0  0  0  0  0  0  0  0  0  0  0  0
    0.2563    4.4409   -0.0074 H   0  0  0  0  0  0  0  0  0  0  0  0
  1  2  1  0  0  0  0
  2  3  1  0  0  0  0
  2  4  1  0  0  0  0
  2  5  1  0  0  0  0
  5  6  2  0  0  0  0
  5  7  1  0  0  0  0
  7  8  1  0  0  0  0
  7  9  1  0  0  0  0
  9 10  1  0  0  0  0
  9 11  1  0  0  0  0
  9 18  1  0  0  0  0
 11 12  1  0  0  0  0
 11 13  1  0  0  0  0
 11 14  1  0  0  0  0
 14 15  2  0  0  0  0
 14 16  1  0  0  0  0
 16 17  1  0  0  0  0
 18 19  2  0  0  0  0
 18 20  1  0  0  0  0
 20 21  1  0  0  0  0
 20 22  1  0  0  0  0
 22 23  1  0  0  0  0
 22 24  1  0  0  0  0
 22 25  1  0  0  0  0
M  END
$$$$

  -OEChem-01062216063D

 25 24  0     1  0  0  0  0  0999 V2000
   -2.8195   -3.4031    0.9907 H   0  0  0  0  0  0  0  0  0  0  0  0
   -2.7954   -2.3549    0.6799 C   0  0  0  0  0  0  0  0  0  0  0  0
   -3.4631   -1.7794    1.3256 H   0  0  0  0  0  0  0  0  0  0  0  0
   -3.1477   -2.2861   -0.3519 H   0  0  0  0  0  0  0  0  0  0  0  0
   -1.3828   -1.8114    0.7827 C   0  0  0  0  0  0  0  0  0  0  0  0
   -0.5209   -2.4851    1.3168 O   0  0  0  0  0  0  0  0  0  0  0  0
   -1.1295   -0.5164    0.3792 N   0  0  0  0  0  0  0  0  0  0  0  0
   -1.9476    0.0611    0.1880 H   0  0  0  0  0  0  0  0  0  0  0  0
    0.1651    0.1896    0.3889 C   0  0  1  0  0  0  0  0  0  0  0  0
    0.8011   -0.1817    1.2011 H   0  0  0  0  0  0  0  0  0  0  0  0
    0.8612   -0.0091   -0.9881 C   0  0  0  0  0  0  0  0  0  0  0  0
    0.1614    0.2925   -1.7730 H   0  0  0  0  0  0  0  0  0  0  0  0
    1.7314    0.6458   -1.0599 H   0  0  0  0  0  0  0  0  0  0  0  0
    1.3731   -1.4048   -1.3290 C   0  0  0  0  0  0  0  0  0  0  0  0
    1.7293   -2.1584   -0.4447 O   0  0  0  0  0  0  0  0  0  0  0  0
    1.4186   -1.7281   -2.6418 O   0  0  0  0  0  0  0  0  0  0  0  0
    1.7487   -2.6397   -2.6723 H   0  0  0  0  0  0  0  0  0  0  0  0
   -0.0729    1.7079    0.6042 C   0  0  0  0  0  0  0  0  0  0  0  0
   -1.1929    2.1185    0.8897 O   0  0  0  0  0  0  0  0  0  0  0  0
    0.9201    2.6412    0.3584 N   0  0  0  0  0  0  0  0  0  0  0  0
    1.8527    2.2932    0.1571 H   0  0  0  0  0  0  0  0  0  0  0  0
    0.7249    4.0789    0.5095 C   0  0  0  0  0  0  0  0  0  0  0  0
    0.4287    4.3198    1.5359 H   0  0  0  0  0  0  0  0  0  0  0  0
    1.6526    4.6130    0.2833 H   0  0  0  0  0  0  0  0  0  0  0  0
   -0.0533    4.4339   -0.1743 H   0  0  0  0  0  0  0  0  0  0  0  0
  1  2  1  0  0  0  0
  2  3  1  0  0  0  0
  2  4  1  0  0  0  0
  2  5  1  0  0  0  0
  5  6  2  0  0  0  0
  5  7  1  0  0  0  0
  7  8  1  0  0  0  0
  7  9  1  0  0  0  0
  9 10  1  0  0  0  0
  9 11  1  0  0  0  0
  9 18  1  0  0  0  0
 11 12  1  0  0  0  0
 11 13  1  0  0  0  0
 11 14  1  0  0  0  0
 14 15  2  0  0  0  0
 14 16  1  0  0  0  0
 16 17  1  0  0  0  0
 18 19  2  0  0  0  0
 18 20  1  0  0  0  0
 20 21  1  0  0  0  0
 20 22  1  0  0  0  0
 22 23  1  0  0  0  0
 22 24  1  0  0  0  0
 22 25  1  0  0  0  0
M  END
$$$$

  -OEChem-01062216063D

 25 24  0     1  0  0  0  0  0999 V2000
   -2.8340   -3.3775    1.0068 H   0  0  0  0  0  0  0  0  0  0  0  0
   -2.8024   -2.3304    0.6925 C   0  0  0  0  0  0  0  0  0  0  0  0
   -3.4527   -1.7459    1.3479 H   0  0  0  0  0  0  0  0  0  0  0  0
   -3.1704   -2.2603   -0.3339 H   0  0  0  0  0  0  0  0  0  0  0  0
   -1.3818   -1.8037    0.7705 C   0  0  0  0  0  0  0  0  0  0  0  0
   -0.5185   -2.4936    1.2803 O   0  0  0  0  0  0  0  0  0  0  0  0
   -1.1229   -0.5091    0.3678 N   0  0  0  0  0  0  0  0  0  0  0  0
   -1.9420    0.0784    0.2185 H   0  0  0  0  0  0  0  0  0  0  0  0
    0.1767    0.1894    0.3706 C   0  0  1  0  0  0  0  0  0  0  0  0
    0.8102   -0.1790    1.1863 H   0  0  0  0  0  0  0  0  0  0  0  0
    0.8790   -0.0281   -1.0015 C   0  0  0  0  0  0  0  0  0  0  0  0
    0.1877    0.2734   -1.7938 H   0  0  0  0  0  0  0  0  0  0  0  0
    1.7586    0.6141   -1.0689 H   0  0  0  0  0  0  0  0  0  0  0  0
    1.3877   -1.4280   -1.3299 C   0  0  0  0  0  0  0  0  0  0  0  0
    1.7386   -2.1776   -0.4405 O   0  0  0  0  0  0  0  0  0  0  0  0
    1.4359   -1.7589   -2.6405 O   0  0  0  0  0  0  0  0  0  0  0  0
    1.7614   -2.6725   -2.6638 H   0  0  0  0  0  0  0  0  0  0  0  0
   -0.0671    1.7083    0.5914 C   0  0  0  0  0  0  0  0  0  0  0  0
   -1.1028    2.0824    1.1300 O   0  0  0  0  0  0  0  0  0  0  0  0
    0.7746    2.6800    0.0748 N   0  0  0  0  0  0  0  0  0  0  0  0
    1.6390    2.3722   -0.3592 H   0  0  0  0  0  0  0  0  0  0  0  0
    0.5358    4.1116    0.2216 C   0  0  0  0  0  0  0  0  0  0  0  0
    0.4863    4.3855    1.2808 H   0  0  0  0  0  0  0  0  0  0  0  0
    1.3456    4.6807   -0.2450 H   0  0  0  0  0  0  0  0  0  0  0  0
   -0.4063    4.3945   -0.2598 H   0  0  0  0  0  0  0  0  0  0  0  0
  1  2  1  0  0  0  0
  2  3  1  0  0  0  0
  2  4  1  0  0  0  0
  2  5  1  0  0  0  0
  5  6  2  0  0  0  0
  5  7  1  0  0  0  0
  7  8  1  0  0  0  0
  7  9  1  0  0  0  0
  9 10  1  0  0  0  0
  9 11  1  0  0  0  0
  9 18  1  0  0  0  0
 11 12  1  0  0  0  0
 11 13  1  0  0  0  0
 11 14  1  0  0  0  0
 14 15  2  0  0  0  0
 14 16  1  0  0  0  0
 16 17  1  0  0  0  0
 18 19  2  0  0  0  0
 18 20  1  0  0  0  0
 20 21  1  0  0  0  0
 20 22  1  0  0  0  0
 22 23  1  0  0  0  0
 22 24  1  0  0  0  0
 22 25  1  0  0  0  0
M  END
$$$$

  -OEChem-01062216063D

 25 24  0     1  0  0  0  0  0999 V2000
   -2.8497   -3.3553    1.0270 H   0  0  0  0  0  0  0  0  0  0  0  0
   -2.8119   -2.3107    0.7053 C   0  0  0  0  0  0  0  0  0  0  0  0
   -3.4500   -1.7157    1.3631 H   0  0  0  0  0  0  0  0  0  0  0  0
   -3.1898   -2.2442   -0.3176 H   0  0  0  0  0  0  0  0  0  0  0  0
   -1.3858   -1.7964    0.7657 C   0  0  0  0  0  0  0  0  0  0  0  0
   -0.5216   -2.4983    1.2565 O   0  0  0  0  0  0  0  0  0  0  0  0
   -1.1234   -0.5025    0.3624 N   0  0  0  0  0  0  0  0  0  0  0  0
   -1.9431    0.0855    0.2253 H   0  0  0  0  0  0  0  0  0  0  0  0
    0.1803    0.1895    0.3539 C   0  0  1  0  0  0  0  0  0  0  0  0
    0.8114   -0.1757    1.1729 H   0  0  0  0  0  0  0  0  0  0  0  0
    0.8946   -0.0387   -1.0098 C   0  0  0  0  0  0  0  0  0  0  0  0
    0.2124    0.2585   -1.8114 H   0  0  0  0  0  0  0  0  0  0  0  0
    1.7770    0.6019   -1.0653 H   0  0  0  0  0  0  0  0  0  0  0  0
    1.4075   -1.4397   -1.3278 C   0  0  0  0  0  0  0  0  0  0  0  0
    1.7522   -2.1864   -0.4339 O   0  0  0  0  0  0  0  0  0  0  0  0
    1.4655   -1.7741   -2.6373 O   0  0  0  0  0  0  0  0  0  0  0  0
    1.7950   -2.6865   -2.6552 H   0  0  0  0  0  0  0  0  0  0  0  0
   -0.0649    1.7071    0.5795 C   0  0  0  0  0  0  0  0  0  0  0  0
   -0.9455    2.0614    1.3534 O   0  0  0  0  0  0  0  0  0  0  0  0
    0.5637    2.6911   -0.1672 N   0  0  0  0  0  0  0  0  0  0  0  0
    1.2687    2.3986   -0.8360 H   0  0  0  0  0  0  0  0  0  0  0  0
    0.2857    4.1158   -0.0197 C   0  0  0  0  0  0  0  0  0  0  0  0
    0.4860    4.4415    1.0066 H   0  0  0  0  0  0  0  0  0  0  0  0
    0.9198    4.6973   -0.6959 H   0  0  0  0  0  0  0  0  0  0  0  0
   -0.7615    4.3287   -0.2592 H   0  0  0  0  0  0  0  0  0  0  0  0
  1  2  1  0  0  0  0
  2  3  1  0  0  0  0
  2  4  1  0  0  0  0
  2  5  1  0  0  0  0
  5  6  2  0  0  0  0
  5  7  1  0  0  0  0
  7  8  1  0  0  0  0
  7  9  1  0  0  0  0
  9 10  1  0  0  0  0
  9 11  1  0  0  0  0
  9 18  1  0  0  0  0
 11 12  1  0  0  0  0
 11 13  1  0  0  0  0
 11 14  1  0  0  0  0
 14 15  2  0  0  0  0
 14 16  1  0  0  0  0
 16 17  1  0  0  0  0
 18 19  2  0  0  0  0
 18 20  1  0  0  0  0
 20 21  1  0  0  0  0
 20 22  1  0  0  0  0
 22 23  1  0  0  0  0
 22 24  1  0  0  0  0
 22 25  1  0  0  0  0
M  END
$$$$

  -OEChem-01062216063D

 25 24  0     1  0  0  0  0  0999 V2000
   -2.8443   -3.3558    1.0366 H   0  0  0  0  0  0  0  0  0  0  0  0
   -2.8111   -2.3125    0.7101 C   0  0  0  0  0  0  0  0  0  0  0  0
   -3.4547   -1.7181    1.3633 H   0  0  0  0  0  0  0  0  0  0  0  0
   -3.1863   -2.2530   -0.3142 H   0  0  0  0  0  0  0  0  0  0  0  0
   -1.3879   -1.7904    0.7719 C   0  0  0  0  0  0  0  0  0  0  0  0
   -0.5205   -2.4889    1.2612 O   0  0  0  0  0  0  0  0  0  0  0  0
   -1.1320   -0.4962    0.3644 N   0  0  0  0  0  0  0  0  0  0  0  0
   -1.9545    0.0801    0.2029 H   0  0  0  0  0  0  0  0  0  0  0  0
    0.1715    0.1958    0.3445 C   0  0  1  0  0  0  0  0  0  0  0  0
    0.8032   -0.1655    1.1651 H   0  0  0  0  0  0  0  0  0  0  0  0
    0.8934   -0.0356   -1.0141 C   0  0  0  0  0  0  0  0  0  0  0  0
    0.2127    0.2494   -1.8214 H   0  0  0  0  0  0  0  0  0  0  0  0
    1.7695    0.6158   -1.0649 H   0  0  0  0  0  0  0  0  0  0  0  0
    1.4142   -1.4356   -1.3232 C   0  0  0  0  0  0  0  0  0  0  0  0
    1.7580   -2.1772   -0.4250 O   0  0  0  0  0  0  0  0  0  0  0  0
    1.4783   -1.7758   -2.6308 O   0  0  0  0  0  0  0  0  0  0  0  0
    1.8142   -2.6859   -2.6427 H   0  0  0  0  0  0  0  0  0  0  0  0
   -0.0688    1.7116    0.5700 C   0  0  0  0  0  0  0  0  0  0  0  0
   -0.7385    2.0716    1.5285 O   0  0  0  0  0  0  0  0  0  0  0  0
    0.3033    2.6757   -0.3537 N   0  0  0  0  0  0  0  0  0  0  0  0
    0.8132    2.3690   -1.1760 H   0  0  0  0  0  0  0  0  0  0  0  0
    0.0012    4.0949   -0.2028 C   0  0  0  0  0  0  0  0  0  0  0  0
    0.4407    4.4842    0.7216 H   0  0  0  0  0  0  0  0  0  0  0  0
    0.4112    4.6609   -1.0448 H   0  0  0  0  0  0  0  0  0  0  0  0
   -1.0817    4.2553   -0.1729 H   0  0  0  0  0  0  0  0  0  0  0  0
  1  2  1  0  0  0  0
  2  3  1  0  0  0  0
  2  4  1  0  0  0  0
  2  5  1  0  0  0  0
  5  6  2  0  0  0  0
  5  7  1  0  0  0  0
  7  8  1  0  0  0  0
  7  9  1  0  0  0  0
  9 10  1  0  0  0  0
  9 11  1  0  0  0  0
  9 18  1  0  0  0  0
 11 12  1  0  0  0  0
 11 13  1  0  0  0  0
 11 14  1  0  0  0  0
 14 15  2  0  0  0  0
 14 16  1  0  0  0  0
 16 17  1  0  0  0  0
 18 19  2  0  0  0  0
 18 20  1  0  0  0  0
 20 21  1  0  0  0  0
 20 22  1  0  0  0  0
 22 23  1  0  0  0  0
 22 24  1  0  0  0  0
 22 25  1  0  0  0  0
M  END
$$$$

  -OEChem-01062216063D

 25 24  0     1  0  0  0  0  0999 V2000
   -2.8175   -3.3813    1.0368 H   0  0  0  0  0  0  0  0  0  0  0  0
   -2.7999   -2.3383    0.7078 C   0  0  0  0  0  0  0  0  0  0  0  0
   -3.4632   -1.7550    1.3510 H   0  0  0  0  0  0  0  0  0  0  0  0
   -3.1622   -2.2890   -0.3216 H   0  0  0  0  0  0  0  0  0  0  0  0
   -1.3878   -1.7893    0.7884 C   0  0  0  0  0  0  0  0  0  0  0  0
   -0.5156   -2.4691    1.2948 O   0  0  0  0  0  0  0  0  0  0  0  0
   -1.1466   -0.4944    0.3729 N   0  0  0  0  0  0  0  0  0  0  0  0
   -1.9725    0.0543    0.1489 H   0  0  0  0  0  0  0  0  0  0  0  0
    0.1518    0.2071    0.3420 C   0  0  1  0  0  0  0  0  0  0  0  0
    0.7894   -0.1469    1.1620 H   0  0  0  0  0  0  0  0  0  0  0  0
    0.8743   -0.0241   -1.0152 C   0  0  0  0  0  0  0  0  0  0  0  0
    0.1888    0.2416   -1.8244 H   0  0  0  0  0  0  0  0  0  0  0  0
    1.7380    0.6440   -1.0723 H   0  0  0  0  0  0  0  0  0  0  0  0
    1.4071   -1.4217   -1.3150 C   0  0  0  0  0  0  0  0  0  0  0  0
    1.7577   -2.1549   -0.4125 O   0  0  0  0  0  0  0  0  0  0  0  0
    1.4685   -1.7712   -2.6203 O   0  0  0  0  0  0  0  0  0  0  0  0
    1.8155   -2.6774   -2.6266 H   0  0  0  0  0  0  0  0  0  0  0  0
   -0.0861    1.7215    0.5609 C   0  0  0  0  0  0  0  0  0  0  0  0
   -0.4895    2.1125    1.6464 O   0  0  0  0  0  0  0  0  0  0  0  0
   -0.0056    2.6413   -0.4727 N   0  0  0  0  0  0  0  0  0  0  0  0
    0.2977    2.3041   -1.3810 H   0  0  0  0  0  0  0  0  0  0  0  0
   -0.2977    4.0612   -0.3102 C   0  0  0  0  0  0  0  0  0  0  0  0
    0.3568    4.5031    0.4487 H   0  0  0  0  0  0  0  0  0  0  0  0
   -0.1381    4.5912   -1.2542 H   0  0  0  0  0  0  0  0  0  0  0  0
   -1.3392    4.2058   -0.0041 H   0  0  0  0  0  0  0  0  0  0  0  0
  1  2  1  0  0  0  0
  2  3  1  0  0  0  0
  2  4  1  0  0  0  0
  2  5  1  0  0  0  0
  5  6  2  0  0  0  0
  5  7  1  0  0  0  0
  7  8  1  0  0  0  0
  7  9  1  0  0  0  0
  9 10  1  0  0  0  0
  9 11  1  0  0  0  0
  9 18  1  0  0  0  0
 11 12  1  0  0  0  0
 11 13  1  0  0  0  0
 11 14  1  0  0  0  0
 14 15  2  0  0  0  0
 14 16  1  0  0  0  0
 16 17  1  0  0  0  0
 18 19  2  0  0  0  0
 18 20  1  0  0  0  0
 20 21  1  0  0  0  0
 20 22  1  0  0  0  0
 22 23  1  0  0  0  0
 22 24  1  0  0  0  0
 22 25  1  0  0  0  0
M  END
$$$$

  -OEChem-01062216063D

 25 24  0     1  0  0  0  0  0999 V2000
   -2.7927   -3.4092    1.0471 H   0  0  0  0  0  0  0  0  0  0  0  0
   -2.7868   -2.3724    0.6987 C   0  0  0  0  0  0  0  0  0  0  0  0
   -3.4795   -1.7911    1.3120 H   0  0  0  0  0  0  0  0  0  0  0  0
   -3.1216   -2.3502   -0.3410 H   0  0  0  0  0  0  0  0  0  0  0  0
   -1.3887   -1.7930    0.8074 C   0  0  0  0  0  0  0  0  0  0  0  0
   -0.5132   -2.4499    1.3374 O   0  0  0  0  0  0  0  0  0  0  0  0
   -1.1646   -0.4967    0.3858 N   0  0  0  0  0  0  0  0  0  0  0  0
   -1.9913    0.0239    0.1065 H   0  0  0  0  0  0  0  0  0  0  0  0
    0.1282    0.2148    0.3489 C   0  0  1  0  0  0  0  0  0  0  0  0
    0.7709   -0.1347    1.1671 H   0  0  0  0  0  0  0  0  0  0  0  0
    0.8500   -0.0072   -1.0089 C   0  0  0  0  0  0  0  0  0  0  0  0
    0.1612    0.2476   -1.8182 H   0  0  0  0  0  0  0  0  0  0  0  0
    1.7027    0.6753   -1.0681 H   0  0  0  0  0  0  0  0  0  0  0  0
    1.3939   -1.4005   -1.3087 C   0  0  0  0  0  0  0  0  0  0  0  0
    1.7511   -2.1304   -0.4061 O   0  0  0  0  0  0  0  0  0  0  0  0
    1.4527   -1.7522   -2.6137 O   0  0  0  0  0  0  0  0  0  0  0  0
    1.8122   -2.6535   -2.6202 H   0  0  0  0  0  0  0  0  0  0  0  0
   -0.1089    1.7275    0.5623 C   0  0  0  0  0  0  0  0  0  0  0  0
   -0.2070    2.1705    1.6967 O   0  0  0  0  0  0  0  0  0  0  0  0
   -0.3341    2.5857   -0.5017 N   0  0  0  0  0  0  0  0  0  0  0  0
   -0.2458    2.2070   -1.4394 H   0  0  0  0  0  0  0  0  0  0  0  0
   -0.6037    4.0097   -0.3390 C   0  0  0  0  0  0  0  0  0  0  0  0
    0.2336    4.5032    0.1657 H   0  0  0  0  0  0  0  0  0  0  0  0
   -0.7461    4.4826   -1.3154 H   0  0  0  0  0  0  0  0  0  0  0  0
   -1.5114    4.1629    0.2543 H   0  0  0  0  0  0  0  0  0  0  0  0
  1  2  1  0  0  0  0
  2  3  1  0  0  0  0
  2  4  1  0  0  0  0
  2  5  1  0  0  0  0
  5  6  2  0  0  0  0
  5  7  1  0  0  0  0
  7  8  1  0  0  0  0
  7  9  1  0  0  0  0
  9 10  1  0  0  0  0
  9 11  1  0  0  0  0
  9 18  1  0  0  0  0
 11 12  1  0  0  0  0
 11 13  1  0  0  0  0
 11 14  1  0  0  0  0
 14 15  2  0  0  0  0
 14 16  1  0  0  0  0
 16 17  1  0  0  0  0
 18 19  2  0  0  0  0
 18 20  1  0  0  0  0
 20 21  1  0  0  0  0
 20 22  1  0  0  0  0
 22 23  1  0  0  0  0
 22 24  1  0  0  0  0
 22 25  1  0  0  0  0
M  END
$$$$

  -OEChem-01062216063D

 25 24  0     1  0  0  0  0  0999 V2000
   -2.7592   -3.4557    1.0456 H   0  0  0  0  0  0  0  0  0  0  0  0
   -2.7728   -2.4206    0.6926 C   0  0  0  0  0  0  0  0  0  0  0  0
   -3.4916   -1.8550    1.2903 H   0  0  0  0  0  0  0  0  0  0  0  0
   -3.0879   -2.4111   -0.3533 H   0  0  0  0  0  0  0  0  0  0  0  0
   -1.3918   -1.8064    0.8264 C   0  0  0  0  0  0  0  0  0  0  0  0
   -0.5128   -2.4372    1.3819 O   0  0  0  0  0  0  0  0  0  0  0  0
   -1.1875   -0.5072    0.4018 N   0  0  0  0  0  0  0  0  0  0  0  0
   -2.0137   -0.0140    0.0762 H   0  0  0  0  0  0  0  0  0  0  0  0
    0.0995    0.2161    0.3674 C   0  0  1  0  0  0  0  0  0  0  0  0
    0.7479   -0.1331    1.1816 H   0  0  0  0  0  0  0  0  0  0  0  0
    0.8198    0.0176   -0.9931 C   0  0  0  0  0  0  0  0  0  0  0  0
    0.1312    0.2790   -1.8000 H   0  0  0  0  0  0  0  0  0  0  0  0
    1.6662    0.7088   -1.0435 H   0  0  0  0  0  0  0  0  0  0  0  0
    1.3736   -1.3690   -1.3056 C   0  0  0  0  0  0  0  0  0  0  0  0
    1.7367   -2.1045   -0.4096 O   0  0  0  0  0  0  0  0  0  0  0  0
    1.4317   -1.7099   -2.6135 O   0  0  0  0  0  0  0  0  0  0  0  0
    1.8018   -2.6068   -2.6280 H   0  0  0  0  0  0  0  0  0  0  0  0
   -0.1406    1.7268    0.5774 C   0  0  0  0  0  0  0  0  0  0  0  0
    0.0862    2.2389    1.6628 O   0  0  0  0  0  0  0  0  0  0  0  0
   -0.6634    2.5145   -0.4352 N   0  0  0  0  0  0  0  0  0  0  0  0
   -0.7984    2.0831   -1.3440 H   0  0  0  0  0  0  0  0  0  0  0  0
   -0.8869    3.9492   -0.2959 C   0  0  0  0  0  0  0  0  0  0  0  0
    0.0539    4.4642   -0.0740 H   0  0  0  0  0  0  0  0  0  0  0  0
   -1.2958    4.3613   -1.2235 H   0  0  0  0  0  0  0  0  0  0  0  0
   -1.5970    4.1501    0.5133 H   0  0  0  0  0  0  0  0  0  0  0  0
  1  2  1  0  0  0  0
  2  3  1  0  0  0  0
  2  4  1  0  0  0  0
  2  5  1  0  0  0  0
  5  6  2  0  0  0  0
  5  7  1  0  0  0  0
  7  8  1  0  0  0  0
  7  9  1  0  0  0  0
  9 10  1  0  0  0  0
  9 11  1  0  0  0  0
  9 18  1  0  0  0  0
 11 12  1  0  0  0  0
 11 13  1  0  0  0  0
 11 14  1  0  0  0  0
 14 15  2  0  0  0  0
 14 16  1  0  0  0  0
 16 17  1  0  0  0  0
 18 19  2  0  0  0  0
 18 20  1  0  0  0  0
 20 21  1  0  0  0  0
 20 22  1  0  0  0  0
 22 23  1  0  0  0  0
 22 24  1  0  0  0  0
 22 25  1  0  0  0  0
M  END
$$$$

  -OEChem-01062216063D

 25 24  0     1  0  0  0  0  0999 V2000
   -2.7341   -3.4941    1.0398 H   0  0  0  0  0  0  0  0  0  0  0  0
   -2.7597   -2.4607    0.6824 C   0  0  0  0  0  0  0  0  0  0  0  0
   -3.5025   -1.9067    1.2613 H   0  0  0  0  0  0  0  0  0  0  0  0
   -3.0511   -2.4613   -0.3704 H   0  0  0  0  0  0  0  0  0  0  0  0
   -1.3938   -1.8200    0.8437 C   0  0  0  0  0  0  0  0  0  0  0  0
   -0.5144   -2.4321    1.4192 O   0  0  0  0  0  0  0  0  0  0  0  0
   -1.2030   -0.5185    0.4190 N   0  0  0  0  0  0  0  0  0  0  0  0
   -2.0290   -0.0415    0.0708 H   0  0  0  0  0  0  0  0  0  0  0  0
    0.0804    0.2129    0.3915 C   0  0  1  0  0  0  0  0  0  0  0  0
    0.7326   -0.1381    1.2019 H   0  0  0  0  0  0  0  0  0  0  0  0
    0.7955    0.0356   -0.9729 C   0  0  0  0  0  0  0  0  0  0  0  0
    0.1051    0.3102   -1.7741 H   0  0  0  0  0  0  0  0  0  0  0  0
    1.6404    0.7294   -1.0153 H   0  0  0  0  0  0  0  0  0  0  0  0
    1.3529   -1.3454   -1.3027 C   0  0  0  0  0  0  0  0  0  0  0  0
    1.7213   -2.0899   -0.4162 O   0  0  0  0  0  0  0  0  0  0  0  0
    1.4042   -1.6729   -2.6143 O   0  0  0  0  0  0  0  0  0  0  0  0
    1.7807   -2.5667   -2.6411 H   0  0  0  0  0  0  0  0  0  0  0  0
   -0.1575    1.7228    0.5997 C   0  0  0  0  0  0  0  0  0  0  0  0
    0.3520    2.3023    1.5465 O   0  0  0  0  0  0  0  0  0  0  0  0
   -0.9469    2.4419   -0.2830 N   0  0  0  0  0  0  0  0  0  0  0  0
   -1.2650    1.9662   -1.1208 H   0  0  0  0  0  0  0  0  0  0  0  0
   -1.1555    3.8812   -0.1699 C   0  0  0  0  0  0  0  0  0  0  0  0
   -0.2038    4.4150   -0.2635 H   0  0  0  0  0  0  0  0  0  0  0  0
   -1.8281    4.2308   -0.9592 H   0  0  0  0  0  0  0  0  0  0  0  0
   -1.6035    4.1289    0.7984 H   0  0  0  0  0  0  0  0  0  0  0  0
  1  2  1  0  0  0  0
  2  3  1  0  0  0  0
  2  4  1  0  0  0  0
  2  5  1  0  0  0  0
  5  6  2  0  0  0  0
  5  7  1  0  0  0  0
  7  8  1  0  0  0  0
  7  9  1  0  0  0  0
  9 10  1  0  0  0  0
  9 11  1  0  0  0  0
  9 18  1  0  0  0  0
 11 12  1  0  0  0  0
 11 13  1  0  0  0  0
 11 14  1  0  0  0  0
 14 15  2  0  0  0  0
 14 16  1  0  0  0  0
 16 17  1  0  0  0  0
 18 19  2  0  0  0  0
 18 20  1  0  0  0  0
 20 21  1  0  0  0  0
 20 22  1  0  0  0  0
 22 23  1  0  0  0  0
 22 24  1  0  0  0  0
 22 25  1  0  0  0  0
M  END
$$$$

  -OEChem-01062216063D

 25 24  0     1  0  0  0  0  0999 V2000
   -2.6783   -3.5544    1.0153 H   0  0  0  0  0  0  0  0  0  0  0  0
   -2.7243   -2.5236    0.6521 C   0  0  0  0  0  0  0  0  0  0  0  0
   -3.5117   -1.9948    1.1944 H   0  0  0  0  0  0  0  0  0  0  0  0
   -2.9678   -2.5384   -0.4126 H   0  0  0  0  0  0  0  0  0  0  0  0
   -1.3906   -1.8340    0.8714 C   0  0  0  0  0  0  0  0  0  0  0  0
   -0.5198   -2.4067    1.4988 O   0  0  0  0  0  0  0  0  0  0  0  0
   -1.2227   -0.5302    0.4439 N   0  0  0  0  0  0  0  0  0  0  0  0
   -2.0345   -0.1001    0.0144 H   0  0  0  0  0  0  0  0  0  0  0  0
    0.0559    0.2122    0.4199 C   0  0  1  0  0  0  0  0  0  0  0  0
    0.7151   -0.1397    1.2244 H   0  0  0  0  0  0  0  0  0  0  0  0
    0.7574    0.0481   -0.9517 C   0  0  0  0  0  0  0  0  0  0  0  0
    0.0609    0.3321   -1.7445 H   0  0  0  0  0  0  0  0  0  0  0  0
    1.6024    0.7421   -0.9955 H   0  0  0  0  0  0  0  0  0  0  0  0
    1.3146   -1.3305   -1.2909 C   0  0  0  0  0  0  0  0  0  0  0  0
    1.6919   -2.0764   -0.4089 O   0  0  0  0  0  0  0  0  0  0  0  0
    1.3515   -1.6568   -2.6035 O   0  0  0  0  0  0  0  0  0  0  0  0
    1.7357   -2.5471   -2.6365 H   0  0  0  0  0  0  0  0  0  0  0  0
   -0.1681    1.7249    0.6254 C   0  0  0  0  0  0  0  0  0  0  0  0
    0.5819    2.3611    1.3500 O   0  0  0  0  0  0  0  0  0  0  0  0
   -1.1744    2.3948   -0.0519 N   0  0  0  0  0  0  0  0  0  0  0  0
   -1.6890    1.8792   -0.7568 H   0  0  0  0  0  0  0  0  0  0  0  0
   -1.3620    3.8388    0.0355 C   0  0  0  0  0  0  0  0  0  0  0  0
   -0.4897    4.3638   -0.3681 H   0  0  0  0  0  0  0  0  0  0  0  0
   -2.2449    4.1423   -0.5351 H   0  0  0  0  0  0  0  0  0  0  0  0
   -1.5047    4.1443    1.0776 H   0  0  0  0  0  0  0  0  0  0  0  0
  1  2  1  0  0  0  0
  2  3  1  0  0  0  0
  2  4  1  0  0  0  0
  2  5  1  0  0  0  0
  5  6  2  0  0  0  0
  5  7  1  0  0  0  0
  7  8  1  0  0  0  0
  7  9  1  0  0  0  0
  9 10  1  0  0  0  0
  9 11  1  0  0  0  0
  9 18  1  0  0  0  0
 11 12  1  0  0  0  0
 11 13  1  0  0  0  0
 11 14  1  0  0  0  0
 14 15  2  0  0  0  0
 14 16  1  0  0  0  0
 16 17  1  0  0  0  0
 18 19  2  0  0  0  0
 18 20  1  0  0  0  0
 20 21  1  0  0  0  0
 20 22  1  0  0  0  0
 22 23  1  0  0  0  0
 22 24  1  0  0  0  0
 22 25  1  0  0  0  0
M  END
$$$$

  -OEChem-01062216063D

 25 24  0     1  0  0  0  0  0999 V2000
   -2.5099   -3.6225    0.9607 H   0  0  0  0  0  0  0  0  0  0  0  0
   -2.5870   -2.6174    0.5360 C   0  0  0  0  0  0  0  0  0  0  0  0
   -3.5045   -2.1503    0.9016 H   0  0  0  0  0  0  0  0  0  0  0  0
   -2.6339   -2.7004   -0.5523 H   0  0  0  0  0  0  0  0  0  0  0  0
   -1.3836   -1.7881    0.9435 C   0  0  0  0  0  0  0  0  0  0  0  0
   -0.5798   -2.2451    1.7354 O   0  0  0  0  0  0  0  0  0  0  0  0
   -1.2624   -0.4890    0.4850 N   0  0  0  0  0  0  0  0  0  0  0  0
   -1.9625   -0.2269   -0.2003 H   0  0  0  0  0  0  0  0  0  0  0  0
    0.0240    0.2398    0.4335 C   0  0  1  0  0  0  0  0  0  0  0  0
    0.6959   -0.1077    1.2290 H   0  0  0  0  0  0  0  0  0  0  0  0
    0.6874    0.0318   -0.9506 C   0  0  0  0  0  0  0  0  0  0  0  0
   -0.0212    0.3141   -1.7337 H   0  0  0  0  0  0  0  0  0  0  0  0
    1.5458    0.7057   -1.0325 H   0  0  0  0  0  0  0  0  0  0  0  0
    1.2080   -1.3683   -1.2579 C   0  0  0  0  0  0  0  0  0  0  0  0
    1.5892   -2.0937   -0.3597 O   0  0  0  0  0  0  0  0  0  0  0  0
    1.2005   -1.7405   -2.5585 O   0  0  0  0  0  0  0  0  0  0  0  0
    1.5775   -2.6342   -2.5749 H   0  0  0  0  0  0  0  0  0  0  0  0
   -0.1536    1.7628    0.6200 C   0  0  0  0  0  0  0  0  0  0  0  0
    0.7944    2.4385    0.9928 O   0  0  0  0  0  0  0  0  0  0  0  0
   -1.3095    2.4087    0.2139 N   0  0  0  0  0  0  0  0  0  0  0  0
   -2.1134    1.8300    0.0026 H   0  0  0  0  0  0  0  0  0  0  0  0
   -1.4996    3.8494    0.3424 C   0  0  0  0  0  0  0  0  0  0  0  0
   -0.7272    4.3896   -0.2155 H   0  0  0  0  0  0  0  0  0  0  0  0
   -2.4767    4.1398   -0.0555 H   0  0  0  0  0  0  0  0  0  0  0  0
   -1.4489    4.1508    1.3940 H   0  0  0  0  0  0  0  0  0  0  0  0
  1  2  1  0  0  0  0
  2  3  1  0  0  0  0
  2  4  1  0  0  0  0
  2  5  1  0  0  0  0
  5  6  2  0  0  0  0
  5  7  1  0  0  0  0
  7  8  1  0  0  0  0
  7  9  1  0  0  0  0
  9 10  1  0  0  0  0
  9 11  1  0  0  0  0
  9 18  1  0  0  0  0
 11 12  1  0  0  0  0
 11 13  1  0  0  0  0
 11 14  1  0  0  0  0
 14 15  2  0  0  0  0
 14 16  1  0  0  0  0
 16 17  1  0  0  0  0
 18 19  2  0  0  0  0
 18 20  1  0  0  0  0
 20 21  1  0  0  0  0
 20 22  1  0  0  0  0
 22 23  1  0  0  0  0
 22 24  1  0  0  0  0
 22 25  1  0  0  0  0
M  END
$$$$

  -OEChem-01062216063D

 25 24  0     1  0  0  0  0  0999 V2000
   -2.4900   -3.6237    0.9339 H   0  0  0  0  0  0  0  0  0  0  0  0
   -2.5630   -2.6221    0.5004 C   0  0  0  0  0  0  0  0  0  0  0  0
   -3.4958   -2.1615    0.8342 H   0  0  0  0  0  0  0  0  0  0  0  0
   -2.5755   -2.7122   -0.5883 H   0  0  0  0  0  0  0  0  0  0  0  0
   -1.3801   -1.7791    0.9382 C   0  0  0  0  0  0  0  0  0  0  0  0
   -0.5965   -2.2209    1.7587 O   0  0  0  0  0  0  0  0  0  0  0  0
   -1.2595   -0.4799    0.4804 N   0  0  0  0  0  0  0  0  0  0  0  0
   -1.9387   -0.2318   -0.2324 H   0  0  0  0  0  0  0  0  0  0  0  0
    0.0293    0.2454    0.4294 C   0  0  1  0  0  0  0  0  0  0  0  0
    0.7011   -0.1008    1.2250 H   0  0  0  0  0  0  0  0  0  0  0  0
    0.6866    0.0237   -0.9570 C   0  0  0  0  0  0  0  0  0  0  0  0
   -0.0253    0.3037   -1.7380 H   0  0  0  0  0  0  0  0  0  0  0  0
    1.5486    0.6909   -1.0519 H   0  0  0  0  0  0  0  0  0  0  0  0
    1.1977   -1.3822   -1.2541 C   0  0  0  0  0  0  0  0  0  0  0  0
    1.5775   -2.1009   -0.3496 O   0  0  0  0  0  0  0  0  0  0  0  0
    1.1803   -1.7691   -2.5501 O   0  0  0  0  0  0  0  0  0  0  0  0
    1.5515   -2.6652   -2.5587 H   0  0  0  0  0  0  0  0  0  0  0  0
   -0.1528    1.7687    0.6190 C   0  0  0  0  0  0  0  0  0  0  0  0
    0.8278    2.4893    0.7398 O   0  0  0  0  0  0  0  0  0  0  0  0
   -1.4007    2.3571    0.5050 N   0  0  0  0  0  0  0  0  0  0  0  0
   -2.1979    1.7342    0.5775 H   0  0  0  0  0  0  0  0  0  0  0  0
   -1.6172    3.7880    0.6884 C   0  0  0  0  0  0  0  0  0  0  0  0
   -1.0330    4.3606   -0.0399 H   0  0  0  0  0  0  0  0  0  0  0  0
   -2.6745    4.0326    0.5486 H   0  0  0  0  0  0  0  0  0  0  0  0
   -1.3199    4.0946    1.6969 H   0  0  0  0  0  0  0  0  0  0  0  0
  1  2  1  0  0  0  0
  2  3  1  0  0  0  0
  2  4  1  0  0  0  0
  2  5  1  0  0  0  0
  5  6  2  0  0  0  0
  5  7  1  0  0  0  0
  7  8  1  0  0  0  0
  7  9  1  0  0  0  0
  9 10  1  0  0  0  0
  9 11  1  0  0  0  0
  9 18  1  0  0  0  0
 11 12  1  0  0  0  0
 11 13  1  0  0  0  0
 11 14  1  0  0  0  0
 14 15  2  0  0  0  0
 14 16  1  0  0  0  0
 16 17  1  0  0  0  0
 18 19  2  0  0  0  0
 18 20  1  0  0  0  0
 20 21  1  0  0  0  0
 20 22  1  0  0  0  0
 22 23  1  0  0  0  0
 22 24  1  0  0  0  0
 22 25  1  0  0  0  0
M  END
$$$$

  -OEChem-01062216063D

 25 24  0     1  0  0  0  0  0999 V2000
   -2.4948   -3.6108    0.9200 H   0  0  0  0  0  0  0  0  0  0  0  0
   -2.5598   -2.6099    0.4839 C   0  0  0  0  0  0  0  0  0  0  0  0
   -3.4926   -2.1435    0.8096 H   0  0  0  0  0  0  0  0  0  0  0  0
   -2.5645   -2.7022   -0.6047 H   0  0  0  0  0  0  0  0  0  0  0  0
   -1.3761   -1.7718    0.9286 C   0  0  0  0  0  0  0  0  0  0  0  0
   -0.5994   -2.2140    1.7555 O   0  0  0  0  0  0  0  0  0  0  0  0
   -1.2482   -0.4721    0.4754 N   0  0  0  0  0  0  0  0  0  0  0  0
   -1.9322   -0.2087   -0.2281 H   0  0  0  0  0  0  0  0  0  0  0  0
    0.0433    0.2486    0.4231 C   0  0  1  0  0  0  0  0  0  0  0  0
    0.7161   -0.0979    1.2176 H   0  0  0  0  0  0  0  0  0  0  0  0
    0.6942    0.0158   -0.9664 C   0  0  0  0  0  0  0  0  0  0  0  0
   -0.0185    0.2980   -1.7456 H   0  0  0  0  0  0  0  0  0  0  0  0
    1.5618    0.6740   -1.0699 H   0  0  0  0  0  0  0  0  0  0  0  0
    1.1961   -1.3944   -1.2586 C   0  0  0  0  0  0  0  0  0  0  0  0
    1.5754   -2.1105   -0.3515 O   0  0  0  0  0  0  0  0  0  0  0  0
    1.1725   -1.7879   -2.5528 O   0  0  0  0  0  0  0  0  0  0  0  0
    1.5381   -2.6863   -2.5592 H   0  0  0  0  0  0  0  0  0  0  0  0
   -0.1494    1.7716    0.6196 C   0  0  0  0  0  0  0  0  0  0  0  0
    0.7993    2.5370    0.5167 O   0  0  0  0  0  0  0  0  0  0  0  0
   -1.4131    2.3013    0.8156 N   0  0  0  0  0  0  0  0  0  0  0  0
   -2.1390    1.6377    1.0677 H   0  0  0  0  0  0  0  0  0  0  0  0
   -1.6496    3.7202    1.0565 C   0  0  0  0  0  0  0  0  0  0  0  0
   -1.2769    4.3191    0.2187 H   0  0  0  0  0  0  0  0  0  0  0  0
   -2.7213    3.9120    1.1655 H   0  0  0  0  0  0  0  0  0  0  0  0
   -1.1437    4.0432    1.9725 H   0  0  0  0  0  0  0  0  0  0  0  0
  1  2  1  0  0  0  0
  2  3  1  0  0  0  0
  2  4  1  0  0  0  0
  2  5  1  0  0  0  0
  5  6  2  0  0  0  0
  5  7  1  0  0  0  0
  7  8  1  0  0  0  0
  7  9  1  0  0  0  0
  9 10  1  0  0  0  0
  9 11  1  0  0  0  0
  9 18  1  0  0  0  0
 11 12  1  0  0  0  0
 11 13  1  0  0  0  0
 11 14  1  0  0  0  0
 14 15  2  0  0  0  0
 14 16  1  0  0  0  0
 16 17  1  0  0  0  0
 18 19  2  0  0  0  0
 18 20  1  0  0  0  0
 20 21  1  0  0  0  0
 20 22  1  0  0  0  0
 22 23  1  0  0  0  0
 22 24  1  0  0  0  0
 22 25  1  0  0  0  0
M  END
$$$$

  -OEChem-01062216063D

 25 24  0     1  0  0  0  0  0999 V2000
   -2.4888   -3.6064    0.8716 H   0  0  0  0  0  0  0  0  0  0  0  0
   -2.5719   -2.5892    0.4781 C   0  0  0  0  0  0  0  0  0  0  0  0
   -3.4938   -2.1396    0.8541 H   0  0  0  0  0  0  0  0  0  0  0  0
   -2.6143   -2.6389   -0.6124 H   0  0  0  0  0  0  0  0  0  0  0  0
   -1.3756   -1.7646    0.9142 C   0  0  0  0  0  0  0  0  0  0  0  0
   -0.6000   -2.2137    1.7384 O   0  0  0  0  0  0  0  0  0  0  0  0
   -1.2381   -0.4641    0.4674 N   0  0  0  0  0  0  0  0  0  0  0  0
   -1.9346   -0.1777   -0.2154 H   0  0  0  0  0  0  0  0  0  0  0  0
    0.0551    0.2527    0.4121 C   0  0  1  0  0  0  0  0  0  0  0  0
    0.7266   -0.0937    1.2074 H   0  0  0  0  0  0  0  0  0  0  0  0
    0.7071    0.0082   -0.9763 C   0  0  0  0  0  0  0  0  0  0  0  0
   -0.0040    0.2886   -1.7577 H   0  0  0  0  0  0  0  0  0  0  0  0
    1.5785    0.6602   -1.0848 H   0  0  0  0  0  0  0  0  0  0  0  0
    1.2056   -1.4046   -1.2594 C   0  0  0  0  0  0  0  0  0  0  0  0
    1.5826   -2.1151   -0.3469 O   0  0  0  0  0  0  0  0  0  0  0  0
    1.1852   -1.8058   -2.5512 O   0  0  0  0  0  0  0  0  0  0  0  0
    1.5512   -2.7039   -2.5516 H   0  0  0  0  0  0  0  0  0  0  0  0
   -0.1500    1.7744    0.6175 C   0  0  0  0  0  0  0  0  0  0  0  0
    0.7105    2.5818    0.2937 O   0  0  0  0  0  0  0  0  0  0  0  0
   -1.3478    2.2501    1.1212 N   0  0  0  0  0  0  0  0  0  0  0  0
   -1.9750    1.5532    1.5131 H   0  0  0  0  0  0  0  0  0  0  0  0
   -1.5873    3.6581    1.4161 C   0  0  0  0  0  0  0  0  0  0  0  0
   -1.4578    4.2663    0.5145 H   0  0  0  0  0  0  0  0  0  0  0  0
   -2.6085    3.8000    1.7824 H   0  0  0  0  0  0  0  0  0  0  0  0
   -0.8904    4.0128    2.1829 H   0  0  0  0  0  0  0  0  0  0  0  0
  1  2  1  0  0  0  0
  2  3  1  0  0  0  0
  2  4  1  0  0  0  0
  2  5  1  0  0  0  0
  5  6  2  0  0  0  0
  5  7  1  0  0  0  0
  7  8  1  0  0  0  0
  7  9  1  0  0  0  0
  9 10  1  0  0  0  0
  9 11  1  0  0  0  0
  9 18  1  0  0  0  0
 11 12  1  0  0  0  0
 11 13  1  0  0  0  0
 11 14  1  0  0  0  0
 14 15  2  0  0  0  0
 14 16  1  0  0  0  0
 16 17  1  0  0  0  0
 18 19  2  0  0  0  0
 18 20  1  0  0  0  0
 20 21  1  0  0  0  0
 20 22  1  0  0  0  0
 22 23  1  0  0  0  0
 22 24  1  0  0  0  0
 22 25  1  0  0  0  0
M  END
$$$$

  -OEChem-01062216063D

 25 24  0     1  0  0  0  0  0999 V2000
   -2.5405   -3.5663    0.9026 H   0  0  0  0  0  0  0  0  0  0  0  0
   -2.5885   -2.5599    0.4771 C   0  0  0  0  0  0  0  0  0  0  0  0
   -3.5000   -2.0716    0.8294 H   0  0  0  0  0  0  0  0  0  0  0  0
   -2.6217   -2.6414   -0.6120 H   0  0  0  0  0  0  0  0  0  0  0  0
   -1.3725   -1.7578    0.9001 C   0  0  0  0  0  0  0  0  0  0  0  0
   -0.5925   -2.2227    1.7113 O   0  0  0  0  0  0  0  0  0  0  0  0
   -1.2232   -0.4554    0.4642 N   0  0  0  0  0  0  0  0  0  0  0  0
   -1.9332   -0.1424   -0.1927 H   0  0  0  0  0  0  0  0  0  0  0  0
    0.0724    0.2545    0.4056 C   0  0  1  0  0  0  0  0  0  0  0  0
    0.7437   -0.0964    1.1986 H   0  0  0  0  0  0  0  0  0  0  0  0
    0.7241    0.0069   -0.9828 C   0  0  0  0  0  0  0  0  0  0  0  0
    0.0143    0.2906   -1.7643 H   0  0  0  0  0  0  0  0  0  0  0  0
    1.5983    0.6553   -1.0907 H   0  0  0  0  0  0  0  0  0  0  0  0
    1.2176   -1.4078   -1.2657 C   0  0  0  0  0  0  0  0  0  0  0  0
    1.5918   -2.1189   -0.3525 O   0  0  0  0  0  0  0  0  0  0  0  0
    1.1936   -1.8110   -2.5569 O   0  0  0  0  0  0  0  0  0  0  0  0
    1.5499   -2.7129   -2.5557 H   0  0  0  0  0  0  0  0  0  0  0  0
   -0.1442    1.7728    0.6265 C   0  0  0  0  0  0  0  0  0  0  0  0
    0.5642    2.6144    0.0897 O   0  0  0  0  0  0  0  0  0  0  0  0
   -1.1961    2.2015    1.4159 N   0  0  0  0  0  0  0  0  0  0  0  0
   -1.7016    1.4810    1.9247 H   0  0  0  0  0  0  0  0  0  0  0  0
   -1.4412    3.6023    1.7385 C   0  0  0  0  0  0  0  0  0  0  0  0
   -1.5965    4.1850    0.8244 H   0  0  0  0  0  0  0  0  0  0  0  0
   -2.3353    3.6961    2.3622 H   0  0  0  0  0  0  0  0  0  0  0  0
   -0.5908    4.0239    2.2847 H   0  0  0  0  0  0  0  0  0  0  0  0
  1  2  1  0  0  0  0
  2  3  1  0  0  0  0
  2  4  1  0  0  0  0
  2  5  1  0  0  0  0
  5  6  2  0  0  0  0
  5  7  1  0  0  0  0
  7  8  1  0  0  0  0
  7  9  1  0  0  0  0
  9 10  1  0  0  0  0
  9 11  1  0  0  0  0
  9 18  1  0  0  0  0
 11 12  1  0  0  0  0
 11 13  1  0  0  0  0
 11 14  1  0  0  0  0
 14 15  2  0  0  0  0
 14 16  1  0  0  0  0
 16 17  1  0  0  0  0
 18 19  2  0  0  0  0
 18 20  1  0  0  0  0
 20 21  1  0  0  0  0
 20 22  1  0  0  0  0
 22 23  1  0  0  0  0
 22 24  1  0  0  0  0
 22 25  1  0  0  0  0
M  END
$$$$

  -OEChem-01062216063D

 25 24  0     1  0  0  0  0  0999 V2000
   -2.5733   -3.5371    0.9055 H   0  0  0  0  0  0  0  0  0  0  0  0
   -2.6090   -2.5288    0.4829 C   0  0  0  0  0  0  0  0  0  0  0  0
   -3.5088   -2.0264    0.8459 H   0  0  0  0  0  0  0  0  0  0  0  0
   -2.6554   -2.6068   -0.6059 H   0  0  0  0  0  0  0  0  0  0  0  0
   -1.3752   -1.7480    0.8943 C   0  0  0  0  0  0  0  0  0  0  0  0
   -0.5929   -2.2277    1.6951 O   0  0  0  0  0  0  0  0  0  0  0  0
   -1.2122   -0.4454    0.4657 N   0  0  0  0  0  0  0  0  0  0  0  0
   -1.9300   -0.1119   -0.1727 H   0  0  0  0  0  0  0  0  0  0  0  0
    0.0883    0.2525    0.4033 C   0  0  1  0  0  0  0  0  0  0  0  0
    0.7593   -0.1040    1.1943 H   0  0  0  0  0  0  0  0  0  0  0  0
    0.7421    0.0060   -0.9841 C   0  0  0  0  0  0  0  0  0  0  0  0
    0.0356    0.2959   -1.7664 H   0  0  0  0  0  0  0  0  0  0  0  0
    1.6183    0.6529   -1.0845 H   0  0  0  0  0  0  0  0  0  0  0  0
    1.2283   -1.4102   -1.2721 C   0  0  0  0  0  0  0  0  0  0  0  0
    1.5960   -2.1265   -0.3601 O   0  0  0  0  0  0  0  0  0  0  0  0
    1.2091   -1.8077   -2.5652 O   0  0  0  0  0  0  0  0  0  0  0  0
    1.5595   -2.7119   -2.5661 H   0  0  0  0  0  0  0  0  0  0  0  0
   -0.1323    1.7673    0.6358 C   0  0  0  0  0  0  0  0  0  0  0  0
    0.3676    2.6221   -0.0842 O   0  0  0  0  0  0  0  0  0  0  0  0
   -0.9663    2.1703    1.6622 N   0  0  0  0  0  0  0  0  0  0  0  0
   -1.3355    1.4393    2.2652 H   0  0  0  0  0  0  0  0  0  0  0  0
   -1.2189    3.5664    1.9980 C   0  0  0  0  0  0  0  0  0  0  0  0
   -1.6670    4.0904    1.1470 H   0  0  0  0  0  0  0  0  0  0  0  0
   -1.9071    3.6332    2.8463 H   0  0  0  0  0  0  0  0  0  0  0  0
   -0.2847    4.0696    2.2696 H   0  0  0  0  0  0  0  0  0  0  0  0
  1  2  1  0  0  0  0
  2  3  1  0  0  0  0
  2  4  1  0  0  0  0
  2  5  1  0  0  0  0
  5  6  2  0  0  0  0
  5  7  1  0  0  0  0
  7  8  1  0  0  0  0
  7  9  1  0  0  0  0
  9 10  1  0  0  0  0
  9 11  1  0  0  0  0
  9 18  1  0  0  0  0
 11 12  1  0  0  0  0
 11 13  1  0  0  0  0
 11 14  1  0  0  0  0
 14 15  2  0  0  0  0
 14 16  1  0  0  0  0
 16 17  1  0  0  0  0
 18 19  2  0  0  0  0
 18 20  1  0  0  0  0
 20 21  1  0  0  0  0
 20 22  1  0  0  0  0
 22 23  1  0  0  0  0
 22 24  1  0  0  0  0
 22 25  1  0  0  0  0
M  END
$$$$

  -OEChem-01062216063D

 25 24  0     1  0  0  0  0  0999 V2000
   -2.6047   -3.5107    0.9143 H   0  0  0  0  0  0  0  0  0  0  0  0
   -2.6271   -2.5026    0.4907 C   0  0  0  0  0  0  0  0  0  0  0  0
   -3.5153   -1.9846    0.8602 H   0  0  0  0  0  0  0  0  0  0  0  0
   -2.6836   -2.5807   -0.5976 H   0  0  0  0  0  0  0  0  0  0  0  0
   -1.3774   -1.7419    0.8911 C   0  0  0  0  0  0  0  0  0  0  0  0
   -0.5926   -2.2366    1.6807 O   0  0  0  0  0  0  0  0  0  0  0  0
   -1.2016   -0.4392    0.4689 N   0  0  0  0  0  0  0  0  0  0  0  0
   -1.9229   -0.0878   -0.1560 H   0  0  0  0  0  0  0  0  0  0  0  0
    0.1029    0.2470    0.4066 C   0  0  1  0  0  0  0  0  0  0  0  0
    0.7730   -0.1196    1.1933 H   0  0  0  0  0  0  0  0  0  0  0  0
    0.7571    0.0066   -0.9810 C   0  0  0  0  0  0  0  0  0  0  0  0
    0.0510    0.3026   -1.7618 H   0  0  0  0  0  0  0  0  0  0  0  0
    1.6330    0.6548   -1.0762 H   0  0  0  0  0  0  0  0  0  0  0  0
    1.2347   -1.4102   -1.2787 C   0  0  0  0  0  0  0  0  0  0  0  0
    1.5963   -2.1344   -0.3704 O   0  0  0  0  0  0  0  0  0  0  0  0
    1.2201   -1.7979   -2.5749 O   0  0  0  0  0  0  0  0  0  0  0  0
    1.5626   -2.7051   -2.5805 H   0  0  0  0  0  0  0  0  0  0  0  0
   -0.1118    1.7592    0.6476 C   0  0  0  0  0  0  0  0  0  0  0  0
    0.1447    2.6029   -0.2022 O   0  0  0  0  0  0  0  0  0  0  0  0
   -0.6732    2.1657    1.8433 N   0  0  0  0  0  0  0  0  0  0  0  0
   -0.8974    1.4388    2.5186 H   0  0  0  0  0  0  0  0  0  0  0  0
   -0.9385    3.5587    2.1808 C   0  0  0  0  0  0  0  0  0  0  0  0
   -1.6505    3.9956    1.4730 H   0  0  0  0  0  0  0  0  0  0  0  0
   -1.3627    3.6297    3.1870 H   0  0  0  0  0  0  0  0  0  0  0  0
   -0.0122    4.1420    2.1548 H   0  0  0  0  0  0  0  0  0  0  0  0
  1  2  1  0  0  0  0
  2  3  1  0  0  0  0
  2  4  1  0  0  0  0
  2  5  1  0  0  0  0
  5  6  2  0  0  0  0
  5  7  1  0  0  0  0
  7  8  1  0  0  0  0
  7  9  1  0  0  0  0
  9 10  1  0  0  0  0
  9 11  1  0  0  0  0
  9 18  1  0  0  0  0
 11 12  1  0  0  0  0
 11 13  1  0  0  0  0
 11 14  1  0  0  0  0
 14 15  2  0  0  0  0
 14 16  1  0  0  0  0
 16 17  1  0  0  0  0
 18 19  2  0  0  0  0
 18 20  1  0  0  0  0
 20 21  1  0  0  0  0
 20 22  1  0  0  0  0
 22 23  1  0  0  0  0
 22 24  1  0  0  0  0
 22 25  1  0  0  0  0
M  END
$$$$

  -OEChem-01062216063D

 25 24  0     1  0  0  0  0  0999 V2000
   -2.6142   -3.5078    0.8844 H   0  0  0  0  0  0  0  0  0  0  0  0
   -2.6471   -2.4837    0.5018 C   0  0  0  0  0  0  0  0  0  0  0  0
   -3.5193   -1.9778    0.9227 H   0  0  0  0  0  0  0  0  0  0  0  0
   -2.7424   -2.5187   -0.5861 H   0  0  0  0  0  0  0  0  0  0  0  0
   -1.3808   -1.7427    0.8876 C   0  0  0  0  0  0  0  0  0  0  0  0
   -0.5902   -2.2540    1.6610 O   0  0  0  0  0  0  0  0  0  0  0  0
   -1.1927   -0.4405    0.4696 N   0  0  0  0  0  0  0  0  0  0  0  0
   -1.9167   -0.0717   -0.1425 H   0  0  0  0  0  0  0  0  0  0  0  0
    0.1143    0.2383    0.4124 C   0  0  1  0  0  0  0  0  0  0  0  0
    0.7831   -0.1374    1.1959 H   0  0  0  0  0  0  0  0  0  0  0  0
    0.7702    0.0068   -0.9753 C   0  0  0  0  0  0  0  0  0  0  0  0
    0.0640    0.3074   -1.7548 H   0  0  0  0  0  0  0  0  0  0  0  0
    1.6449    0.6573   -1.0651 H   0  0  0  0  0  0  0  0  0  0  0  0
    1.2425   -1.4097   -1.2837 C   0  0  0  0  0  0  0  0  0  0  0  0
    1.5990   -2.1423   -0.3802 O   0  0  0  0  0  0  0  0  0  0  0  0
    1.2336   -1.7859   -2.5831 O   0  0  0  0  0  0  0  0  0  0  0  0
    1.5700   -2.6952   -2.5945 H   0  0  0  0  0  0  0  0  0  0  0  0
   -0.0920    1.7500    0.6558 C   0  0  0  0  0  0  0  0  0  0  0  0
   -0.0979    2.5600   -0.2630 O   0  0  0  0  0  0  0  0  0  0  0  0
   -0.3526    2.1900    1.9397 N   0  0  0  0  0  0  0  0  0  0  0  0
   -0.4101    1.4840    2.6696 H   0  0  0  0  0  0  0  0  0  0  0  0
   -0.6185    3.5831    2.2772 C   0  0  0  0  0  0  0  0  0  0  0  0
   -1.5206    3.9361    1.7667 H   0  0  0  0  0  0  0  0  0  0  0  0
   -0.7673    3.6889    3.3561 H   0  0  0  0  0  0  0  0  0  0  0  0
    0.2246    4.2167    1.9819 H   0  0  0  0  0  0  0  0  0  0  0  0
  1  2  1  0  0  0  0
  2  3  1  0  0  0  0
  2  4  1  0  0  0  0
  2  5  1  0  0  0  0
  5  6  2  0  0  0  0
  5  7  1  0  0  0  0
  7  8  1  0  0  0  0
  7  9  1  0  0  0  0
  9 10  1  0  0  0  0
  9 11  1  0  0  0  0
  9 18  1  0  0  0  0
 11 12  1  0  0  0  0
 11 13  1  0  0  0  0
 11 14  1  0  0  0  0
 14 15  2  0  0  0  0
 14 16  1  0  0  0  0
 16 17  1  0  0  0  0
 18 19  2  0  0  0  0
 18 20  1  0  0  0  0
 20 21  1  0  0  0  0
 20 22  1  0  0  0  0
 22 23  1  0  0  0  0
 22 24  1  0  0  0  0
 22 25  1  0  0  0  0
M  END
$$$$

  -OEChem-01062216063D

 25 24  0     1  0  0  0  0  0999 V2000
   -2.6447   -3.4990    0.8819 H   0  0  0  0  0  0  0  0  0  0  0  0
   -2.6734   -2.4676    0.5191 C   0  0  0  0  0  0  0  0  0  0  0  0
   -3.5271   -1.9577    0.9716 H   0  0  0  0  0  0  0  0  0  0  0  0
   -2.7973   -2.4811   -0.5663 H   0  0  0  0  0  0  0  0  0  0  0  0
   -1.3876   -1.7507    0.8851 C   0  0  0  0  0  0  0  0  0  0  0  0
   -0.5872   -2.2847    1.6330 O   0  0  0  0  0  0  0  0  0  0  0  0
   -1.1861   -0.4501    0.4691 N   0  0  0  0  0  0  0  0  0  0  0  0
   -1.9187   -0.0561   -0.1169 H   0  0  0  0  0  0  0  0  0  0  0  0
    0.1217    0.2251    0.4179 C   0  0  1  0  0  0  0  0  0  0  0  0
    0.7865   -0.1588    1.2007 H   0  0  0  0  0  0  0  0  0  0  0  0
    0.7832    0.0087   -0.9684 C   0  0  0  0  0  0  0  0  0  0  0  0
    0.0791    0.3140   -1.7480 H   0  0  0  0  0  0  0  0  0  0  0  0
    1.6558    0.6630   -1.0485 H   0  0  0  0  0  0  0  0  0  0  0  0
    1.2562   -1.4042   -1.2906 C   0  0  0  0  0  0  0  0  0  0  0  0
    1.6084   -2.1470   -0.3938 O   0  0  0  0  0  0  0  0  0  0  0  0
    1.2585   -1.7633   -2.5949 O   0  0  0  0  0  0  0  0  0  0  0  0
    1.5929   -2.6731   -2.6154 H   0  0  0  0  0  0  0  0  0  0  0  0
   -0.0782    1.7364    0.6588 C   0  0  0  0  0  0  0  0  0  0  0  0
   -0.3559    2.4947   -0.2623 O   0  0  0  0  0  0  0  0  0  0  0  0
   -0.0311    2.2322    1.9480 N   0  0  0  0  0  0  0  0  0  0  0  0
    0.1114    1.5629    2.7002 H   0  0  0  0  0  0  0  0  0  0  0  0
   -0.2815    3.6292    2.2816 C   0  0  0  0  0  0  0  0  0  0  0  0
   -1.3041    3.9110    2.0094 H   0  0  0  0  0  0  0  0  0  0  0  0
   -0.1517    3.7908    3.3561 H   0  0  0  0  0  0  0  0  0  0  0  0
    0.4178    4.2816    1.7481 H   0  0  0  0  0  0  0  0  0  0  0  0
  1  2  1  0  0  0  0
  2  3  1  0  0  0  0
  2  4  1  0  0  0  0
  2  5  1  0  0  0  0
  5  6  2  0  0  0  0
  5  7  1  0  0  0  0
  7  8  1  0  0  0  0
  7  9  1  0  0  0  0
  9 10  1  0  0  0  0
  9 11  1  0  0  0  0
  9 18  1  0  0  0  0
 11 12  1  0  0  0  0
 11 13  1  0  0  0  0
 11 14  1  0  0  0  0
 14 15  2  0  0  0  0
 14 16  1  0  0  0  0
 16 17  1  0  0  0  0
 18 19  2  0  0  0  0
 18 20  1  0  0  0  0
 20 21  1  0  0  0  0
 20 22  1  0  0  0  0
 22 23  1  0  0  0  0
 22 24  1  0  0  0  0
 22 25  1  0  0  0  0
M  END
$$$$

  -OEChem-01062216063D

 25 24  0     1  0  0  0  0  0999 V2000
   -2.6893   -3.4786    0.9154 H   0  0  0  0  0  0  0  0  0  0  0  0
   -2.7000   -2.4503    0.5432 C   0  0  0  0  0  0  0  0  0  0  0  0
   -3.5332   -1.9161    1.0060 H   0  0  0  0  0  0  0  0  0  0  0  0
   -2.8444   -2.4706   -0.5396 H   0  0  0  0  0  0  0  0  0  0  0  0
   -1.3913   -1.7602    0.8788 C   0  0  0  0  0  0  0  0  0  0  0  0
   -0.5807   -2.3159    1.5996 O   0  0  0  0  0  0  0  0  0  0  0  0
   -1.1764   -0.4618    0.4631 N   0  0  0  0  0  0  0  0  0  0  0  0
   -1.9185   -0.0412   -0.0924 H   0  0  0  0  0  0  0  0  0  0  0  0
    0.1311    0.2133    0.4202 C   0  0  1  0  0  0  0  0  0  0  0  0
    0.7905   -0.1759    1.2048 H   0  0  0  0  0  0  0  0  0  0  0  0
    0.7979    0.0119   -0.9644 C   0  0  0  0  0  0  0  0  0  0  0  0
    0.0946    0.3236   -1.7422 H   0  0  0  0  0  0  0  0  0  0  0  0
    1.6693    0.6683   -1.0361 H   0  0  0  0  0  0  0  0  0  0  0  0
    1.2736   -1.3972   -1.2997 C   0  0  0  0  0  0  0  0  0  0  0  0
    1.6231   -2.1491   -0.4093 O   0  0  0  0  0  0  0  0  0  0  0  0
    1.2830   -1.7420   -2.6079 O   0  0  0  0  0  0  0  0  0  0  0  0
    1.6116   -2.6538   -2.6359 H   0  0  0  0  0  0  0  0  0  0  0  0
   -0.0656    1.7248    0.6547 C   0  0  0  0  0  0  0  0  0  0  0  0
   -0.5898    2.4238   -0.2044 O   0  0  0  0  0  0  0  0  0  0  0  0
    0.2731    2.2858    1.8716 N   0  0  0  0  0  0  0  0  0  0  0  0
    0.6143    1.6602    2.5965 H   0  0  0  0  0  0  0  0  0  0  0  0
    0.0410    3.6871    2.2001 C   0  0  0  0  0  0  0  0  0  0  0  0
   -1.0308    3.9115    2.1871 H   0  0  0  0  0  0  0  0  0  0  0  0
    0.4302    3.9107    3.1981 H   0  0  0  0  0  0  0  0  0  0  0  0
    0.5463    4.3386    1.4793 H   0  0  0  0  0  0  0  0  0  0  0  0
  1  2  1  0  0  0  0
  2  3  1  0  0  0  0
  2  4  1  0  0  0  0
  2  5  1  0  0  0  0
  5  6  2  0  0  0  0
  5  7  1  0  0  0  0
  7  8  1  0  0  0  0
  7  9  1  0  0  0  0
  9 10  1  0  0  0  0
  9 11  1  0  0  0  0
  9 18  1  0  0  0  0
 11 12  1  0  0  0  0
 11 13  1  0  0  0  0
 11 14  1  0  0  0  0
 14 15  2  0  0  0  0
 14 16  1  0  0  0  0
 16 17  1  0  0  0  0
 18 19  2  0  0  0  0
 18 20  1  0  0  0  0
 20 21  1  0  0  0  0
 20 22  1  0  0  0  0
 22 23  1  0  0  0  0
 22 24  1  0  0  0  0
 22 25  1  0  0  0  0
M  END
$$$$

  -OEChem-01062216063D

 25 24  0     1  0  0  0  0  0999 V2000
   -2.7309   -3.4591    0.9568 H   0  0  0  0  0  0  0  0  0  0  0  0
   -2.7252   -2.4362    0.5700 C   0  0  0  0  0  0  0  0  0  0  0  0
   -3.5369   -1.8764    1.0407 H   0  0  0  0  0  0  0  0  0  0  0  0
   -2.8907   -2.4680   -0.5095 H   0  0  0  0  0  0  0  0  0  0  0  0
   -1.3947   -1.7724    0.8707 C   0  0  0  0  0  0  0  0  0  0  0  0
   -0.5726   -2.3497    1.5607 O   0  0  0  0  0  0  0  0  0  0  0  0
   -1.1685   -0.4762    0.4547 N   0  0  0  0  0  0  0  0  0  0  0  0
   -1.9234   -0.0263   -0.0599 H   0  0  0  0  0  0  0  0  0  0  0  0
    0.1370    0.2025    0.4206 C   0  0  1  0  0  0  0  0  0  0  0  0
    0.7906   -0.1879    1.2090 H   0  0  0  0  0  0  0  0  0  0  0  0
    0.8094    0.0157   -0.9623 C   0  0  0  0  0  0  0  0  0  0  0  0
    0.1073    0.3323   -1.7393 H   0  0  0  0  0  0  0  0  0  0  0  0
    1.6795    0.6750   -1.0250 H   0  0  0  0  0  0  0  0  0  0  0  0
    1.2911   -1.3888   -1.3080 C   0  0  0  0  0  0  0  0  0  0  0  0
    1.6396   -2.1469   -0.4227 O   0  0  0  0  0  0  0  0  0  0  0  0
    1.3102   -1.7209   -2.6194 O   0  0  0  0  0  0  0  0  0  0  0  0
    1.6391   -2.6324   -2.6539 H   0  0  0  0  0  0  0  0  0  0  0  0
   -0.0620    1.7143    0.6473 C   0  0  0  0  0  0  0  0  0  0  0  0
   -0.7935    2.3546   -0.0989 O   0  0  0  0  0  0  0  0  0  0  0  0
    0.5361    2.3458    1.7217 N   0  0  0  0  0  0  0  0  0  0  0  0
    1.0666    1.7695    2.3694 H   0  0  0  0  0  0  0  0  0  0  0  0
    0.3339    3.7553    2.0351 C   0  0  0  0  0  0  0  0  0  0  0  0
   -0.7178    3.9483    2.2712 H   0  0  0  0  0  0  0  0  0  0  0  0
    0.9415    4.0416    2.8989 H   0  0  0  0  0  0  0  0  0  0  0  0
    0.6252    4.3834    1.1864 H   0  0  0  0  0  0  0  0  0  0  0  0
  1  2  1  0  0  0  0
  2  3  1  0  0  0  0
  2  4  1  0  0  0  0
  2  5  1  0  0  0  0
  5  6  2  0  0  0  0
  5  7  1  0  0  0  0
  7  8  1  0  0  0  0
  7  9  1  0  0  0  0
  9 10  1  0  0  0  0
  9 11  1  0  0  0  0
  9 18  1  0  0  0  0
 11 12  1  0  0  0  0
 11 13  1  0  0  0  0
 11 14  1  0  0  0  0
 14 15  2  0  0  0  0
 14 16  1  0  0  0  0
 16 17  1  0  0  0  0
 18 19  2  0  0  0  0
 18 20  1  0  0  0  0
 20 21  1  0  0  0  0
 20 22  1  0  0  0  0
 22 23  1  0  0  0  0
 22 24  1  0  0  0  0
 22 25  1  0  0  0  0
M  END
$$$$

  -OEChem-01062216063D

 25 24  0     1  0  0  0  0  0999 V2000
   -2.7378   -3.4705    0.9222 H   0  0  0  0  0  0  0  0  0  0  0  0
   -2.7467   -2.4261    0.5983 C   0  0  0  0  0  0  0  0  0  0  0  0
   -3.5253   -1.8923    1.1484 H   0  0  0  0  0  0  0  0  0  0  0  0
   -2.9744   -2.3918   -0.4697 H   0  0  0  0  0  0  0  0  0  0  0  0
   -1.3965   -1.7865    0.8612 C   0  0  0  0  0  0  0  0  0  0  0  0
   -0.5625   -2.3840    1.5189 O   0  0  0  0  0  0  0  0  0  0  0  0
   -1.1642   -0.4917    0.4450 N   0  0  0  0  0  0  0  0  0  0  0  0
   -1.9369   -0.0114   -0.0135 H   0  0  0  0  0  0  0  0  0  0  0  0
    0.1369    0.1955    0.4206 C   0  0  1  0  0  0  0  0  0  0  0  0
    0.7852   -0.1920    1.2148 H   0  0  0  0  0  0  0  0  0  0  0  0
    0.8166    0.0190   -0.9592 C   0  0  0  0  0  0  0  0  0  0  0  0
    0.1139    0.3343   -1.7362 H   0  0  0  0  0  0  0  0  0  0  0  0
    1.6826    0.6838   -1.0173 H   0  0  0  0  0  0  0  0  0  0  0  0
    1.3096   -1.3804   -1.3104 C   0  0  0  0  0  0  0  0  0  0  0  0
    1.6596   -2.1412   -0.4283 O   0  0  0  0  0  0  0  0  0  0  0  0
    1.3401   -1.7032   -2.6237 O   0  0  0  0  0  0  0  0  0  0  0  0
    1.6731   -2.6131   -2.6611 H   0  0  0  0  0  0  0  0  0  0  0  0
   -0.0678    1.7077    0.6393 C   0  0  0  0  0  0  0  0  0  0  0  0
   -0.9611    2.2961    0.0405 O   0  0  0  0  0  0  0  0  0  0  0  0
    0.7446    2.4075    1.5120 N   0  0  0  0  0  0  0  0  0  0  0  0
    1.4376    1.8810    2.0368 H   0  0  0  0  0  0  0  0  0  0  0  0
    0.5800    3.8294    1.7894 C   0  0  0  0  0  0  0  0  0  0  0  0
   -0.4111    4.0255    2.2119 H   0  0  0  0  0  0  0  0  0  0  0  0
    1.3345    4.1651    2.5074 H   0  0  0  0  0  0  0  0  0  0  0  0
    0.6934    4.4147    0.8707 H   0  0  0  0  0  0  0  0  0  0  0  0
  1  2  1  0  0  0  0
  2  3  1  0  0  0  0
  2  4  1  0  0  0  0
  2  5  1  0  0  0  0
  5  6  2  0  0  0  0
  5  7  1  0  0  0  0
  7  8  1  0  0  0  0
  7  9  1  0  0  0  0
  9 10  1  0  0  0  0
  9 11  1  0  0  0  0
  9 18  1  0  0  0  0
 11 12  1  0  0  0  0
 11 13  1  0  0  0  0
 11 14  1  0  0  0  0
 14 15  2  0  0  0  0
 14 16  1  0  0  0  0
 16 17  1  0  0  0  0
 18 19  2  0  0  0  0
 18 20  1  0  0  0  0
 20 21  1  0  0  0  0
 20 22  1  0  0  0  0
 22 23  1  0  0  0  0
 22 24  1  0  0  0  0
 22 25  1  0  0  0  0
M  END
$$$$

  -OEChem-01062216063D

 25 24  0     1  0  0  0  0  0999 V2000
   -2.7674   -3.4528    0.9756 H   0  0  0  0  0  0  0  0  0  0  0  0
   -2.7620   -2.4183    0.6216 C   0  0  0  0  0  0  0  0  0  0  0  0
   -3.5227   -1.8545    1.1667 H   0  0  0  0  0  0  0  0  0  0  0  0
   -3.0045   -2.4103   -0.4436 H   0  0  0  0  0  0  0  0  0  0  0  0
   -1.3965   -1.7970    0.8470 C   0  0  0  0  0  0  0  0  0  0  0  0
   -0.5520   -2.4088    1.4773 O   0  0  0  0  0  0  0  0  0  0  0  0
   -1.1612   -0.5030    0.4303 N   0  0  0  0  0  0  0  0  0  0  0  0
   -1.9487    0.0023    0.0264 H   0  0  0  0  0  0  0  0  0  0  0  0
    0.1352    0.1942    0.4171 C   0  0  1  0  0  0  0  0  0  0  0  0
    0.7787   -0.1874    1.2180 H   0  0  0  0  0  0  0  0  0  0  0  0
    0.8220    0.0236   -0.9602 C   0  0  0  0  0  0  0  0  0  0  0  0
    0.1197    0.3363   -1.7388 H   0  0  0  0  0  0  0  0  0  0  0  0
    1.6846    0.6930   -1.0150 H   0  0  0  0  0  0  0  0  0  0  0  0
    1.3267   -1.3711   -1.3133 C   0  0  0  0  0  0  0  0  0  0  0  0
    1.6794   -2.1320   -0.4325 O   0  0  0  0  0  0  0  0  0  0  0  0
    1.3645   -1.6888   -2.6277 O   0  0  0  0  0  0  0  0  0  0  0  0
    1.6990   -2.5981   -2.6666 H   0  0  0  0  0  0  0  0  0  0  0  0
   -0.0750    1.7076    0.6275 C   0  0  0  0  0  0  0  0  0  0  0  0
   -1.0943    2.2503    0.2152 O   0  0  0  0  0  0  0  0  0  0  0  0
    0.8971    2.4676    1.2512 N   0  0  0  0  0  0  0  0  0  0  0  0
    1.7104    1.9824    1.6200 H   0  0  0  0  0  0  0  0  0  0  0  0
    0.7573    3.8976    1.4982 C   0  0  0  0  0  0  0  0  0  0  0  0
   -0.1084    4.0926    2.1400 H   0  0  0  0  0  0  0  0  0  0  0  0
    1.6514    4.2847    1.9963 H   0  0  0  0  0  0  0  0  0  0  0  0
    0.6260    4.4390    0.5553 H   0  0  0  0  0  0  0  0  0  0  0  0
  1  2  1  0  0  0  0
  2  3  1  0  0  0  0
  2  4  1  0  0  0  0
  2  5  1  0  0  0  0
  5  6  2  0  0  0  0
  5  7  1  0  0  0  0
  7  8  1  0  0  0  0
  7  9  1  0  0  0  0
  9 10  1  0  0  0  0
  9 11  1  0  0  0  0
  9 18  1  0  0  0  0
 11 12  1  0  0  0  0
 11 13  1  0  0  0  0
 11 14  1  0  0  0  0
 14 15  2  0  0  0  0
 14 16  1  0  0  0  0
 16 17  1  0  0  0  0
 18 19  2  0  0  0  0
 18 20  1  0  0  0  0
 20 21  1  0  0  0  0
 20 22  1  0  0  0  0
 22 23  1  0  0  0  0
 22 24  1  0  0  0  0
 22 25  1  0  0  0  0
M  END
$$$$

  -OEChem-01062216063D

 25 24  0     1  0  0  0  0  0999 V2000
   -2.7867   -3.4472    0.9732 H   0  0  0  0  0  0  0  0  0  0  0  0
   -2.7798   -2.4031    0.6479 C   0  0  0  0  0  0  0  0  0  0  0  0
   -3.5022   -1.8418    1.2454 H   0  0  0  0  0  0  0  0  0  0  0  0
   -3.0743   -2.3605   -0.4033 H   0  0  0  0  0  0  0  0  0  0  0  0
   -1.3941   -1.8110    0.8223 C   0  0  0  0  0  0  0  0  0  0  0  0
   -0.5385   -2.4465    1.4121 O   0  0  0  0  0  0  0  0  0  0  0  0
   -1.1546   -0.5158    0.4116 N   0  0  0  0  0  0  0  0  0  0  0  0
   -1.9585    0.0182    0.0833 H   0  0  0  0  0  0  0  0  0  0  0  0
    0.1372    0.1917    0.4124 C   0  0  1  0  0  0  0  0  0  0  0  0
    0.7769   -0.1857    1.2187 H   0  0  0  0  0  0  0  0  0  0  0  0
    0.8315    0.0228   -0.9629 C   0  0  0  0  0  0  0  0  0  0  0  0
    0.1285    0.3285   -1.7436 H   0  0  0  0  0  0  0  0  0  0  0  0
    1.6904    0.6960   -1.0194 H   0  0  0  0  0  0  0  0  0  0  0  0
    1.3477   -1.3676   -1.3164 C   0  0  0  0  0  0  0  0  0  0  0  0
    1.7034   -2.1276   -0.4365 O   0  0  0  0  0  0  0  0  0  0  0  0
    1.3952   -1.6807   -2.6315 O   0  0  0  0  0  0  0  0  0  0  0  0
    1.7336   -2.5887   -2.6707 H   0  0  0  0  0  0  0  0  0  0  0  0
   -0.0823    1.7062    0.6223 C   0  0  0  0  0  0  0  0  0  0  0  0
   -1.1844    2.2058    0.4222 O   0  0  0  0  0  0  0  0  0  0  0  0
    0.9779    2.5252    0.9668 N   0  0  0  0  0  0  0  0  0  0  0  0
    1.8718    2.0826    1.1609 H   0  0  0  0  0  0  0  0  0  0  0  0
    0.8462    3.9638    1.1645 C   0  0  0  0  0  0  0  0  0  0  0  0
    0.1340    4.1769    1.9687 H   0  0  0  0  0  0  0  0  0  0  0  0
    1.8130    4.3988    1.4351 H   0  0  0  0  0  0  0  0  0  0  0  0
    0.4958    4.4466    0.2461 H   0  0  0  0  0  0  0  0  0  0  0  0
  1  2  1  0  0  0  0
  2  3  1  0  0  0  0
  2  4  1  0  0  0  0
  2  5  1  0  0  0  0
  5  6  2  0  0  0  0
  5  7  1  0  0  0  0
  7  8  1  0  0  0  0
  7  9  1  0  0  0  0
  9 10  1  0  0  0  0
  9 11  1  0  0  0  0
  9 18  1  0  0  0  0
 11 12  1  0  0  0  0
 11 13  1  0  0  0  0
 11 14  1  0  0  0  0
 14 15  2  0  0  0  0
 14 16  1  0  0  0  0
 16 17  1  0  0  0  0
 18 19  2  0  0  0  0
 18 20  1  0  0  0  0
 20 21  1  0  0  0  0
 20 22  1  0  0  0  0
 22 23  1  0  0  0  0
 22 24  1  0  0  0  0
 22 25  1  0  0  0  0
M  END
$$$$

  -OEChem-01062216063D

 25 24  0     1  0  0  0  0  0999 V2000
   -2.7614   -3.4200    1.0164 H   0  0  0  0  0  0  0  0  0  0  0  0
   -2.7693   -2.3744    0.6960 C   0  0  0  0  0  0  0  0  0  0  0  0
   -3.4000   -1.8008    1.3795 H   0  0  0  0  0  0  0  0  0  0  0  0
   -3.1889   -2.3182   -0.3111 H   0  0  0  0  0  0  0  0  0  0  0  0
   -1.3590   -1.8155    0.7007 C   0  0  0  0  0  0  0  0  0  0  0  0
   -0.4423   -2.5008    1.1206 O   0  0  0  0  0  0  0  0  0  0  0  0
   -1.1474   -0.5101    0.3044 N   0  0  0  0  0  0  0  0  0  0  0  0
   -1.9781    0.0728    0.2088 H   0  0  0  0  0  0  0  0  0  0  0  0
    0.1432    0.1975    0.3468 C   0  0  1  0  0  0  0  0  0  0  0  0
    0.8659   -0.3392    0.9728 H   0  0  0  0  0  0  0  0  0  0  0  0
    0.6677    0.3251   -1.1047 C   0  0  0  0  0  0  0  0  0  0  0  0
   -0.1133    0.7793   -1.7217 H   0  0  0  0  0  0  0  0  0  0  0  0
    1.5305    0.9944   -1.1281 H   0  0  0  0  0  0  0  0  0  0  0  0
    1.1071   -0.9745   -1.7714 C   0  0  0  0  0  0  0  0  0  0  0  0
    1.5409   -1.8890   -1.0962 O   0  0  0  0  0  0  0  0  0  0  0  0
    0.9991   -1.0326   -3.1186 O   0  0  0  0  0  0  0  0  0  0  0  0
    1.3076   -1.9179   -3.3668 H   0  0  0  0  0  0  0  0  0  0  0  0
   -0.0353    1.6171    0.9342 C   0  0  0  0  0  0  0  0  0  0  0  0
   -1.1555    2.0428    1.1954 O   0  0  0  0  0  0  0  0  0  0  0  0
    1.0492    2.4656    1.0719 N   0  0  0  0  0  0  0  0  0  0  0  0
    1.9724    2.0827    0.8894 H   0  0  0  0  0  0  0  0  0  0  0  0
    0.9412    3.8223    1.5960 C   0  0  0  0  0  0  0  0  0  0  0  0
    0.5272    3.8101    2.6099 H   0  0  0  0  0  0  0  0  0  0  0  0
    1.9277    4.2943    1.6309 H   0  0  0  0  0  0  0  0  0  0  0  0
    0.2905    4.4291    0.9575 H   0  0  0  0  0  0  0  0  0  0  0  0
  1  2  1  0  0  0  0
  2  3  1  0  0  0  0
  2  4  1  0  0  0  0
  2  5  1  0  0  0  0
  5  6  2  0  0  0  0
  5  7  1  0  0  0  0
  7  8  1  0  0  0  0
  7  9  1  0  0  0  0
  9 10  1  0  0  0  0
  9 11  1  0  0  0  0
  9 18  1  0  0  0  0
 11 12  1  0  0  0  0
 11 13  1  0  0  0  0
 11 14  1  0  0  0  0
 14 15  2  0  0  0  0
 14 16  1  0  0  0  0
 16 17  1  0  0  0  0
 18 19  2  0  0  0  0
 18 20  1  0  0  0  0
 20 21  1  0  0  0  0
 20 22  1  0  0  0  0
 22 23  1  0  0  0  0
 22 24  1  0  0  0  0
 22 25  1  0  0  0  0
M  END
$$$$

  -OEChem-01062216063D

 25 24  0     1  0  0  0  0  0999 V2000
   -2.7635   -3.4035    1.0308 H   0  0  0  0  0  0  0  0  0  0  0  0
   -2.7686   -2.3590    0.7067 C   0  0  0  0  0  0  0  0  0  0  0  0
   -3.3832   -1.7779    1.3985 H   0  0  0  0  0  0  0  0  0  0  0  0
   -3.2046   -2.3031   -0.2935 H   0  0  0  0  0  0  0  0  0  0  0  0
   -1.3540   -1.8112    0.6856 C   0  0  0  0  0  0  0  0  0  0  0  0
   -0.4353   -2.5077    1.0816 O   0  0  0  0  0  0  0  0  0  0  0  0
   -1.1418   -0.5048    0.2919 N   0  0  0  0  0  0  0  0  0  0  0  0
   -1.9716    0.0845    0.2453 H   0  0  0  0  0  0  0  0  0  0  0  0
    0.1519    0.1990    0.3370 C   0  0  1  0  0  0  0  0  0  0  0  0
    0.8732   -0.3371    0.9651 H   0  0  0  0  0  0  0  0  0  0  0  0
    0.6759    0.3114   -1.1187 C   0  0  0  0  0  0  0  0  0  0  0  0
   -0.1029    0.7656   -1.7382 H   0  0  0  0  0  0  0  0  0  0  0  0
    1.5453    0.9708   -1.1521 H   0  0  0  0  0  0  0  0  0  0  0  0
    1.1099   -0.9939   -1.7780 C   0  0  0  0  0  0  0  0  0  0  0  0
    1.5421   -1.9067   -1.1001 O   0  0  0  0  0  0  0  0  0  0  0  0
    0.9992   -1.0574   -3.1248 O   0  0  0  0  0  0  0  0  0  0  0  0
    1.3024   -1.9458   -3.3686 H   0  0  0  0  0  0  0  0  0  0  0  0
   -0.0327    1.6191    0.9307 C   0  0  0  0  0  0  0  0  0  0  0  0
   -1.1098    1.9464    1.4169 O   0  0  0  0  0  0  0  0  0  0  0  0
    0.9501    2.5864    0.8060 N   0  0  0  0  0  0  0  0  0  0  0  0
    1.8505    2.2968    0.4364 H   0  0  0  0  0  0  0  0  0  0  0  0
    0.8024    3.9481    1.3075 C   0  0  0  0  0  0  0  0  0  0  0  0
    0.6312    3.9422    2.3892 H   0  0  0  0  0  0  0  0  0  0  0  0
    1.7083    4.5271    1.1039 H   0  0  0  0  0  0  0  0  0  0  0  0
   -0.0420    4.4467    0.8201 H   0  0  0  0  0  0  0  0  0  0  0  0
  1  2  1  0  0  0  0
  2  3  1  0  0  0  0
  2  4  1  0  0  0  0
  2  5  1  0  0  0  0
  5  6  2  0  0  0  0
  5  7  1  0  0  0  0
  7  8  1  0  0  0  0
  7  9  1  0  0  0  0
  9 10  1  0  0  0  0
  9 11  1  0  0  0  0
  9 18  1  0  0  0  0
 11 12  1  0  0  0  0
 11 13  1  0  0  0  0
 11 14  1  0  0  0  0
 14 15  2  0  0  0  0
 14 16  1  0  0  0  0
 16 17  1  0  0  0  0
 18 19  2  0  0  0  0
 18 20  1  0  0  0  0
 20 21  1  0  0  0  0
 20 22  1  0  0  0  0
 22 23  1  0  0  0  0
 22 24  1  0  0  0  0
 22 25  1  0  0  0  0
M  END
$$$$

  -OEChem-01062216063D

 25 24  0     1  0  0  0  0  0999 V2000
   -2.7684   -3.3837    1.0486 H   0  0  0  0  0  0  0  0  0  0  0  0
   -2.7703   -2.3406    0.7208 C   0  0  0  0  0  0  0  0  0  0  0  0
   -3.3701   -1.7529    1.4201 H   0  0  0  0  0  0  0  0  0  0  0  0
   -3.2204   -2.2850   -0.2731 H   0  0  0  0  0  0  0  0  0  0  0  0
   -1.3522   -1.8033    0.6771 C   0  0  0  0  0  0  0  0  0  0  0  0
   -0.4330   -2.5091    1.0542 O   0  0  0  0  0  0  0  0  0  0  0  0
   -1.1388   -0.4969    0.2832 N   0  0  0  0  0  0  0  0  0  0  0  0
   -1.9675    0.0945    0.2664 H   0  0  0  0  0  0  0  0  0  0  0  0
    0.1586    0.2018    0.3214 C   0  0  1  0  0  0  0  0  0  0  0  0
    0.8784   -0.3322    0.9533 H   0  0  0  0  0  0  0  0  0  0  0  0
    0.6873    0.2961   -1.1353 C   0  0  0  0  0  0  0  0  0  0  0  0
   -0.0847    0.7522   -1.7618 H   0  0  0  0  0  0  0  0  0  0  0  0
    1.5657    0.9428   -1.1703 H   0  0  0  0  0  0  0  0  0  0  0  0
    1.1184   -1.0159   -1.7839 C   0  0  0  0  0  0  0  0  0  0  0  0
    1.5464   -1.9255   -1.1000 O   0  0  0  0  0  0  0  0  0  0  0  0
    1.0117   -1.0869   -3.1306 O   0  0  0  0  0  0  0  0  0  0  0  0
    1.3128   -1.9780   -3.3677 H   0  0  0  0  0  0  0  0  0  0  0  0
   -0.0314    1.6211    0.9204 C   0  0  0  0  0  0  0  0  0  0  0  0
   -1.0006    1.8542    1.6334 O   0  0  0  0  0  0  0  0  0  0  0  0
    0.7743    2.6882    0.5588 N   0  0  0  0  0  0  0  0  0  0  0  0
    1.5861    2.4910   -0.0176 H   0  0  0  0  0  0  0  0  0  0  0  0
    0.5830    4.0450    1.0592 C   0  0  0  0  0  0  0  0  0  0  0  0
    0.6633    4.0655    2.1513 H   0  0  0  0  0  0  0  0  0  0  0  0
    1.3438    4.7129    0.6439 H   0  0  0  0  0  0  0  0  0  0  0  0
   -0.4032    4.4243    0.7713 H   0  0  0  0  0  0  0  0  0  0  0  0
  1  2  1  0  0  0  0
  2  3  1  0  0  0  0
  2  4  1  0  0  0  0
  2  5  1  0  0  0  0
  5  6  2  0  0  0  0
  5  7  1  0  0  0  0
  7  8  1  0  0  0  0
  7  9  1  0  0  0  0
  9 10  1  0  0  0  0
  9 11  1  0  0  0  0
  9 18  1  0  0  0  0
 11 12  1  0  0  0  0
 11 13  1  0  0  0  0
 11 14  1  0  0  0  0
 14 15  2  0  0  0  0
 14 16  1  0  0  0  0
 16 17  1  0  0  0  0
 18 19  2  0  0  0  0
 18 20  1  0  0  0  0
 20 21  1  0  0  0  0
 20 22  1  0  0  0  0
 22 23  1  0  0  0  0
 22 24  1  0  0  0  0
 22 25  1  0  0  0  0
M  END
$$$$

  -OEChem-01062216063D

 25 24  0     1  0  0  0  0  0999 V2000
   -2.7715   -3.3720    1.0637 H   0  0  0  0  0  0  0  0  0  0  0  0
   -2.7739   -2.3295    0.7334 C   0  0  0  0  0  0  0  0  0  0  0  0
   -3.3663   -1.7390    1.4364 H   0  0  0  0  0  0  0  0  0  0  0  0
   -3.2322   -2.2753   -0.2568 H   0  0  0  0  0  0  0  0  0  0  0  0
   -1.3547   -1.7962    0.6771 C   0  0  0  0  0  0  0  0  0  0  0  0
   -0.4345   -2.5076    1.0401 O   0  0  0  0  0  0  0  0  0  0  0  0
   -1.1427   -0.4897    0.2818 N   0  0  0  0  0  0  0  0  0  0  0  0
   -1.9731    0.0978    0.2595 H   0  0  0  0  0  0  0  0  0  0  0  0
    0.1571    0.2057    0.3079 C   0  0  1  0  0  0  0  0  0  0  0  0
    0.8751   -0.3260    0.9441 H   0  0  0  0  0  0  0  0  0  0  0  0
    0.6971    0.2874   -1.1450 C   0  0  0  0  0  0  0  0  0  0  0  0
   -0.0675    0.7414   -1.7817 H   0  0  0  0  0  0  0  0  0  0  0  0
    1.5801    0.9289   -1.1710 H   0  0  0  0  0  0  0  0  0  0  0  0
    1.1319   -1.0284   -1.7834 C   0  0  0  0  0  0  0  0  0  0  0  0
    1.5543   -1.9361   -1.0937 O   0  0  0  0  0  0  0  0  0  0  0  0
    1.0359   -1.1031   -3.1306 O   0  0  0  0  0  0  0  0  0  0  0  0
    1.3395   -1.9950   -3.3621 H   0  0  0  0  0  0  0  0  0  0  0  0
   -0.0334    1.6232    0.9111 C   0  0  0  0  0  0  0  0  0  0  0  0
   -0.8221    1.7822    1.8342 O   0  0  0  0  0  0  0  0  0  0  0  0
    0.5369    2.7555    0.3518 N   0  0  0  0  0  0  0  0  0  0  0  0
    1.1679    2.6283   -0.4327 H   0  0  0  0  0  0  0  0  0  0  0  0
    0.3096    4.1048    0.8581 C   0  0  0  0  0  0  0  0  0  0  0  0
    0.6346    4.1827    1.9010 H   0  0  0  0  0  0  0  0  0  0  0  0
    0.8733    4.8319    0.2657 H   0  0  0  0  0  0  0  0  0  0  0  0
   -0.7533    4.3623    0.8004 H   0  0  0  0  0  0  0  0  0  0  0  0
  1  2  1  0  0  0  0
  2  3  1  0  0  0  0
  2  4  1  0  0  0  0
  2  5  1  0  0  0  0
  5  6  2  0  0  0  0
  5  7  1  0  0  0  0
  7  8  1  0  0  0  0
  7  9  1  0  0  0  0
  9 10  1  0  0  0  0
  9 11  1  0  0  0  0
  9 18  1  0  0  0  0
 11 12  1  0  0  0  0
 11 13  1  0  0  0  0
 11 14  1  0  0  0  0
 14 15  2  0  0  0  0
 14 16  1  0  0  0  0
 16 17  1  0  0  0  0
 18 19  2  0  0  0  0
 18 20  1  0  0  0  0
 20 21  1  0  0  0  0
 20 22  1  0  0  0  0
 22 23  1  0  0  0  0
 22 24  1  0  0  0  0
 22 25  1  0  0  0  0
M  END
$$$$

  -OEChem-01062216063D

 25 24  0     1  0  0  0  0  0999 V2000
   -2.7630   -3.3789    1.0675 H   0  0  0  0  0  0  0  0  0  0  0  0
   -2.7717   -2.3368    0.7358 C   0  0  0  0  0  0  0  0  0  0  0  0
   -3.3709   -1.7497    1.4361 H   0  0  0  0  0  0  0  0  0  0  0  0
   -3.2266   -2.2874   -0.2563 H   0  0  0  0  0  0  0  0  0  0  0  0
   -1.3560   -1.7934    0.6853 C   0  0  0  0  0  0  0  0  0  0  0  0
   -0.4328   -2.4997    1.0501 O   0  0  0  0  0  0  0  0  0  0  0  0
   -1.1507   -0.4864    0.2868 N   0  0  0  0  0  0  0  0  0  0  0  0
   -1.9868    0.0887    0.2237 H   0  0  0  0  0  0  0  0  0  0  0  0
    0.1468    0.2135    0.3042 C   0  0  1  0  0  0  0  0  0  0  0  0
    0.8661   -0.3132    0.9436 H   0  0  0  0  0  0  0  0  0  0  0  0
    0.6938    0.2906   -1.1455 C   0  0  0  0  0  0  0  0  0  0  0  0
   -0.0704    0.7336   -1.7903 H   0  0  0  0  0  0  0  0  0  0  0  0
    1.5715    0.9409   -1.1651 H   0  0  0  0  0  0  0  0  0  0  0  0
    1.1385   -1.0255   -1.7762 C   0  0  0  0  0  0  0  0  0  0  0  0
    1.5619   -1.9287   -1.0817 O   0  0  0  0  0  0  0  0  0  0  0  0
    1.0444   -1.1067   -3.1232 O   0  0  0  0  0  0  0  0  0  0  0  0
    1.3559   -1.9971   -3.3504 H   0  0  0  0  0  0  0  0  0  0  0  0
   -0.0429    1.6295    0.9052 C   0  0  0  0  0  0  0  0  0  0  0  0
   -0.6029    1.7507    1.9859 O   0  0  0  0  0  0  0  0  0  0  0  0
    0.2519    2.7841    0.1977 N   0  0  0  0  0  0  0  0  0  0  0  0
    0.6798    2.6807   -0.7168 H   0  0  0  0  0  0  0  0  0  0  0  0
    0.0068    4.1270    0.7117 C   0  0  0  0  0  0  0  0  0  0  0  0
    0.5593    4.2877    1.6435 H   0  0  0  0  0  0  0  0  0  0  0  0
    0.3321    4.8766   -0.0160 H   0  0  0  0  0  0  0  0  0  0  0  0
   -1.0609    4.2743    0.9057 H   0  0  0  0  0  0  0  0  0  0  0  0
  1  2  1  0  0  0  0
  2  3  1  0  0  0  0
  2  4  1  0  0  0  0
  2  5  1  0  0  0  0
  5  6  2  0  0  0  0
  5  7  1  0  0  0  0
  7  8  1  0  0  0  0
  7  9  1  0  0  0  0
  9 10  1  0  0  0  0
  9 11  1  0  0  0  0
  9 18  1  0  0  0  0
 11 12  1  0  0  0  0
 11 13  1  0  0  0  0
 11 14  1  0  0  0  0
 14 15  2  0  0  0  0
 14 16  1  0  0  0  0
 16 17  1  0  0  0  0
 18 19  2  0  0  0  0
 18 20  1  0  0  0  0
 20 21  1  0  0  0  0
 20 22  1  0  0  0  0
 22 23  1  0  0  0  0
 22 24  1  0  0  0  0
 22 25  1  0  0  0  0
M  END
$$$$

  -OEChem-01062216063D

 25 24  0     1  0  0  0  0  0999 V2000
   -2.7464   -3.4028    1.0572 H   0  0  0  0  0  0  0  0  0  0  0  0
   -2.7654   -2.3602    0.7275 C   0  0  0  0  0  0  0  0  0  0  0  0
   -3.3851   -1.7843    1.4191 H   0  0  0  0  0  0  0  0  0  0  0  0
   -3.2044   -2.3159   -0.2719 H   0  0  0  0  0  0  0  0  0  0  0  0
   -1.3575   -1.7957    0.7019 C   0  0  0  0  0  0  0  0  0  0  0  0
   -0.4311   -2.4874    1.0848 O   0  0  0  0  0  0  0  0  0  0  0  0
   -1.1628   -0.4879    0.2994 N   0  0  0  0  0  0  0  0  0  0  0  0
   -2.0048    0.0681    0.1791 H   0  0  0  0  0  0  0  0  0  0  0  0
    0.1294    0.2216    0.3090 C   0  0  1  0  0  0  0  0  0  0  0  0
    0.8535   -0.2992    0.9483 H   0  0  0  0  0  0  0  0  0  0  0  0
    0.6779    0.3007   -1.1393 C   0  0  0  0  0  0  0  0  0  0  0  0
   -0.0908    0.7291   -1.7883 H   0  0  0  0  0  0  0  0  0  0  0  0
    1.5447    0.9666   -1.1567 H   0  0  0  0  0  0  0  0  0  0  0  0
    1.1343   -1.0137   -1.7653 C   0  0  0  0  0  0  0  0  0  0  0  0
    1.5636   -1.9121   -1.0681 O   0  0  0  0  0  0  0  0  0  0  0  0
    1.0433   -1.0987   -3.1124 O   0  0  0  0  0  0  0  0  0  0  0  0
    1.3673   -1.9852   -3.3372 H   0  0  0  0  0  0  0  0  0  0  0  0
   -0.0579    1.6375    0.9054 C   0  0  0  0  0  0  0  0  0  0  0  0
   -0.3404    1.7594    2.0883 O   0  0  0  0  0  0  0  0  0  0  0  0
   -0.0659    2.7741    0.1128 N   0  0  0  0  0  0  0  0  0  0  0  0
    0.1452    2.6621   -0.8738 H   0  0  0  0  0  0  0  0  0  0  0  0
   -0.3079    4.1150    0.6337 C   0  0  0  0  0  0  0  0  0  0  0  0
    0.4391    4.3720    1.3922 H   0  0  0  0  0  0  0  0  0  0  0  0
   -0.2483    4.8517   -0.1732 H   0  0  0  0  0  0  0  0  0  0  0  0
   -1.3037    4.1772    1.0852 H   0  0  0  0  0  0  0  0  0  0  0  0
  1  2  1  0  0  0  0
  2  3  1  0  0  0  0
  2  4  1  0  0  0  0
  2  5  1  0  0  0  0
  5  6  2  0  0  0  0
  5  7  1  0  0  0  0
  7  8  1  0  0  0  0
  7  9  1  0  0  0  0
  9 10  1  0  0  0  0
  9 11  1  0  0  0  0
  9 18  1  0  0  0  0
 11 12  1  0  0  0  0
 11 13  1  0  0  0  0
 11 14  1  0  0  0  0
 14 15  2  0  0  0  0
 14 16  1  0  0  0  0
 16 17  1  0  0  0  0
 18 19  2  0  0  0  0
 18 20  1  0  0  0  0
 20 21  1  0  0  0  0
 20 22  1  0  0  0  0
 22 23  1  0  0  0  0
 22 24  1  0  0  0  0
 22 25  1  0  0  0  0
M  END
$$$$

  -OEChem-01062216063D

 25 24  0     1  0  0  0  0  0999 V2000
   -2.7276   -3.4360    1.0409 H   0  0  0  0  0  0  0  0  0  0  0  0
   -2.7575   -2.3927    0.7139 C   0  0  0  0  0  0  0  0  0  0  0  0
   -3.4023   -1.8300    1.3931 H   0  0  0  0  0  0  0  0  0  0  0  0
   -3.1755   -2.3527   -0.2946 H   0  0  0  0  0  0  0  0  0  0  0  0
   -1.3591   -1.8040    0.7207 C   0  0  0  0  0  0  0  0  0  0  0  0
   -0.4305   -2.4789    1.1270 O   0  0  0  0  0  0  0  0  0  0  0  0
   -1.1759   -0.4950    0.3154 N   0  0  0  0  0  0  0  0  0  0  0  0
   -2.0213    0.0390    0.1363 H   0  0  0  0  0  0  0  0  0  0  0  0
    0.1102    0.2261    0.3207 C   0  0  1  0  0  0  0  0  0  0  0  0
    0.8402   -0.2901    0.9574 H   0  0  0  0  0  0  0  0  0  0  0  0
    0.6577    0.3159   -1.1261 C   0  0  0  0  0  0  0  0  0  0  0  0
   -0.1140    0.7354   -1.7763 H   0  0  0  0  0  0  0  0  0  0  0  0
    1.5143    0.9956   -1.1398 H   0  0  0  0  0  0  0  0  0  0  0  0
    1.1260   -0.9938   -1.7535 C   0  0  0  0  0  0  0  0  0  0  0  0
    1.5624   -1.8891   -1.0567 O   0  0  0  0  0  0  0  0  0  0  0  0
    1.0318   -1.0805   -3.1003 O   0  0  0  0  0  0  0  0  0  0  0  0
    1.3668   -1.9629   -3.3257 H   0  0  0  0  0  0  0  0  0  0  0  0
   -0.0772    1.6417    0.9123 C   0  0  0  0  0  0  0  0  0  0  0  0
   -0.0489    1.8037    2.1228 O   0  0  0  0  0  0  0  0  0  0  0  0
   -0.3959    2.7252    0.1097 N   0  0  0  0  0  0  0  0  0  0  0  0
   -0.4101    2.5789   -0.8946 H   0  0  0  0  0  0  0  0  0  0  0  0
   -0.6193    4.0695    0.6300 C   0  0  0  0  0  0  0  0  0  0  0  0
    0.2683    4.4265    1.1632 H   0  0  0  0  0  0  0  0  0  0  0  0
   -0.8322    4.7631   -0.1893 H   0  0  0  0  0  0  0  0  0  0  0  0
   -1.4706    4.0768    1.3190 H   0  0  0  0  0  0  0  0  0  0  0  0
  1  2  1  0  0  0  0
  2  3  1  0  0  0  0
  2  4  1  0  0  0  0
  2  5  1  0  0  0  0
  5  6  2  0  0  0  0
  5  7  1  0  0  0  0
  7  8  1  0  0  0  0
  7  9  1  0  0  0  0
  9 10  1  0  0  0  0
  9 11  1  0  0  0  0
  9 18  1  0  0  0  0
 11 12  1  0  0  0  0
 11 13  1  0  0  0  0
 11 14  1  0  0  0  0
 14 15  2  0  0  0  0
 14 16  1  0  0  0  0
 16 17  1  0  0  0  0
 18 19  2  0  0  0  0
 18 20  1  0  0  0  0
 20 21  1  0  0  0  0
 20 22  1  0  0  0  0
 22 23  1  0  0  0  0
 22 24  1  0  0  0  0
 22 25  1  0  0  0  0
M  END
$$$$

  -OEChem-01062216063D

 25 24  0     1  0  0  0  0  0999 V2000
   -2.7108   -3.4748    1.0258 H   0  0  0  0  0  0  0  0  0  0  0  0
   -2.7514   -2.4320    0.6981 C   0  0  0  0  0  0  0  0  0  0  0  0
   -3.4220   -1.8812    1.3620 H   0  0  0  0  0  0  0  0  0  0  0  0
   -3.1457   -2.3991   -0.3202 H   0  0  0  0  0  0  0  0  0  0  0  0
   -1.3638   -1.8192    0.7374 C   0  0  0  0  0  0  0  0  0  0  0  0
   -0.4338   -2.4770    1.1673 O   0  0  0  0  0  0  0  0  0  0  0  0
   -1.1919   -0.5081    0.3329 N   0  0  0  0  0  0  0  0  0  0  0  0
   -2.0383    0.0067    0.1099 H   0  0  0  0  0  0  0  0  0  0  0  0
    0.0894    0.2231    0.3402 C   0  0  1  0  0  0  0  0  0  0  0  0
    0.8248   -0.2924    0.9721 H   0  0  0  0  0  0  0  0  0  0  0  0
    0.6360    0.3341   -1.1039 C   0  0  0  0  0  0  0  0  0  0  0  0
   -0.1355    0.7578   -1.7514 H   0  0  0  0  0  0  0  0  0  0  0  0
    1.4870    1.0211   -1.1075 H   0  0  0  0  0  0  0  0  0  0  0  0
    1.1135   -0.9667   -1.7422 C   0  0  0  0  0  0  0  0  0  0  0  0
    1.5552   -1.8652   -1.0526 O   0  0  0  0  0  0  0  0  0  0  0  0
    1.0195   -1.0434   -3.0897 O   0  0  0  0  0  0  0  0  0  0  0  0
    1.3678   -1.9185   -3.3229 H   0  0  0  0  0  0  0  0  0  0  0  0
   -0.0999    1.6369    0.9304 C   0  0  0  0  0  0  0  0  0  0  0  0
    0.2482    1.8778    2.0760 O   0  0  0  0  0  0  0  0  0  0  0  0
   -0.7133    2.6378    0.1950 N   0  0  0  0  0  0  0  0  0  0  0  0
   -0.9532    2.4326   -0.7694 H   0  0  0  0  0  0  0  0  0  0  0  0
   -0.9049    3.9942    0.6960 C   0  0  0  0  0  0  0  0  0  0  0  0
    0.0582    4.4491    0.9508 H   0  0  0  0  0  0  0  0  0  0  0  0
   -1.3892    4.6143   -0.0643 H   0  0  0  0  0  0  0  0  0  0  0  0
   -1.5376    3.9865    1.5898 H   0  0  0  0  0  0  0  0  0  0  0  0
  1  2  1  0  0  0  0
  2  3  1  0  0  0  0
  2  4  1  0  0  0  0
  2  5  1  0  0  0  0
  5  6  2  0  0  0  0
  5  7  1  0  0  0  0
  7  8  1  0  0  0  0
  7  9  1  0  0  0  0
  9 10  1  0  0  0  0
  9 11  1  0  0  0  0
  9 18  1  0  0  0  0
 11 12  1  0  0  0  0
 11 13  1  0  0  0  0
 11 14  1  0  0  0  0
 14 15  2  0  0  0  0
 14 16  1  0  0  0  0
 16 17  1  0  0  0  0
 18 19  2  0  0  0  0
 18 20  1  0  0  0  0
 20 21  1  0  0  0  0
 20 22  1  0  0  0  0
 22 23  1  0  0  0  0
 22 24  1  0  0  0  0
 22 25  1  0  0  0  0
M  END
$$$$

  -OEChem-01062216063D

 25 24  0     1  0  0  0  0  0999 V2000
   -2.6874   -3.5173    0.9938 H   0  0  0  0  0  0  0  0  0  0  0  0
   -2.7369   -2.4760    0.6627 C   0  0  0  0  0  0  0  0  0  0  0  0
   -3.4474   -1.9395    1.2959 H   0  0  0  0  0  0  0  0  0  0  0  0
   -3.0879   -2.4536   -0.3717 H   0  0  0  0  0  0  0  0  0  0  0  0
   -1.3661   -1.8326    0.7606 C   0  0  0  0  0  0  0  0  0  0  0  0
   -0.4425   -2.4654    1.2389 O   0  0  0  0  0  0  0  0  0  0  0  0
   -1.2036   -0.5199    0.3572 N   0  0  0  0  0  0  0  0  0  0  0  0
   -2.0437   -0.0327    0.0624 H   0  0  0  0  0  0  0  0  0  0  0  0
    0.0747    0.2183    0.3676 C   0  0  1  0  0  0  0  0  0  0  0  0
    0.8154   -0.2975    0.9928 H   0  0  0  0  0  0  0  0  0  0  0  0
    0.6127    0.3484   -1.0762 C   0  0  0  0  0  0  0  0  0  0  0  0
   -0.1603    0.7821   -1.7150 H   0  0  0  0  0  0  0  0  0  0  0  0
    1.4635    1.0360   -1.0747 H   0  0  0  0  0  0  0  0  0  0  0  0
    1.0907   -0.9463   -1.7263 C   0  0  0  0  0  0  0  0  0  0  0  0
    1.5374   -1.8488   -1.0447 O   0  0  0  0  0  0  0  0  0  0  0  0
    0.9834   -1.0170   -3.0731 O   0  0  0  0  0  0  0  0  0  0  0  0
    1.3346   -1.8885   -3.3148 H   0  0  0  0  0  0  0  0  0  0  0  0
   -0.1106    1.6316    0.9572 C   0  0  0  0  0  0  0  0  0  0  0  0
    0.5237    1.9797    1.9412 O   0  0  0  0  0  0  0  0  0  0  0  0
   -0.9802    2.5331    0.3654 N   0  0  0  0  0  0  0  0  0  0  0  0
   -1.4201    2.2581   -0.5062 H   0  0  0  0  0  0  0  0  0  0  0  0
   -1.1527    3.9016    0.8403 C   0  0  0  0  0  0  0  0  0  0  0  0
   -0.2101    4.4546    0.7678 H   0  0  0  0  0  0  0  0  0  0  0  0
   -1.9059    4.4197    0.2389 H   0  0  0  0  0  0  0  0  0  0  0  0
   -1.4833    3.9060    1.8846 H   0  0  0  0  0  0  0  0  0  0  0  0
  1  2  1  0  0  0  0
  2  3  1  0  0  0  0
  2  4  1  0  0  0  0
  2  5  1  0  0  0  0
  5  6  2  0  0  0  0
  5  7  1  0  0  0  0
  7  8  1  0  0  0  0
  7  9  1  0  0  0  0
  9 10  1  0  0  0  0
  9 11  1  0  0  0  0
  9 18  1  0  0  0  0
 11 12  1  0  0  0  0
 11 13  1  0  0  0  0
 11 14  1  0  0  0  0
 14 15  2  0  0  0  0
 14 16  1  0  0  0  0
 16 17  1  0  0  0  0
 18 19  2  0  0  0  0
 18 20  1  0  0  0  0
 20 21  1  0  0  0  0
 20 22  1  0  0  0  0
 22 23  1  0  0  0  0
 22 24  1  0  0  0  0
 22 25  1  0  0  0  0
M  END
$$$$

  -OEChem-01062216063D

 25 24  0     1  0  0  0  0  0999 V2000
   -2.5900   -3.5973    0.8978 H   0  0  0  0  0  0  0  0  0  0  0  0
   -2.6690   -2.5604    0.5588 C   0  0  0  0  0  0  0  0  0  0  0  0
   -3.4889   -2.0768    1.0951 H   0  0  0  0  0  0  0  0  0  0  0  0
   -2.8874   -2.5584   -0.5117 H   0  0  0  0  0  0  0  0  0  0  0  0
   -1.3691   -1.8250    0.8270 C   0  0  0  0  0  0  0  0  0  0  0  0
   -0.4817   -2.3832    1.4465 O   0  0  0  0  0  0  0  0  0  0  0  0
   -1.2331   -0.5129    0.4114 N   0  0  0  0  0  0  0  0  0  0  0  0
   -2.0091   -0.1385   -0.1232 H   0  0  0  0  0  0  0  0  0  0  0  0
    0.0454    0.2277    0.4062 C   0  0  1  0  0  0  0  0  0  0  0  0
    0.7966   -0.2872    1.0196 H   0  0  0  0  0  0  0  0  0  0  0  0
    0.5554    0.3515   -1.0467 C   0  0  0  0  0  0  0  0  0  0  0  0
   -0.2269    0.7890   -1.6721 H   0  0  0  0  0  0  0  0  0  0  0  0
    1.4087    1.0362   -1.0638 H   0  0  0  0  0  0  0  0  0  0  0  0
    1.0185   -0.9509   -1.6920 C   0  0  0  0  0  0  0  0  0  0  0  0
    1.4748   -1.8473   -1.0075 O   0  0  0  0  0  0  0  0  0  0  0  0
    0.8795   -1.0399   -3.0347 O   0  0  0  0  0  0  0  0  0  0  0  0
    1.2332   -1.9106   -3.2755 H   0  0  0  0  0  0  0  0  0  0  0  0
   -0.1051    1.6492    0.9865 C   0  0  0  0  0  0  0  0  0  0  0  0
    0.7810    2.1209    1.6832 O   0  0  0  0  0  0  0  0  0  0  0  0
   -1.1669    2.4593    0.6198 N   0  0  0  0  0  0  0  0  0  0  0  0
   -1.8717    2.0663    0.0071 H   0  0  0  0  0  0  0  0  0  0  0  0
   -1.3097    3.8398    1.0681 C   0  0  0  0  0  0  0  0  0  0  0  0
   -0.4691    4.4461    0.7141 H   0  0  0  0  0  0  0  0  0  0  0  0
   -2.2364    4.2717    0.6782 H   0  0  0  0  0  0  0  0  0  0  0  0
   -1.3411    3.8863    2.1619 H   0  0  0  0  0  0  0  0  0  0  0  0
  1  2  1  0  0  0  0
  2  3  1  0  0  0  0
  2  4  1  0  0  0  0
  2  5  1  0  0  0  0
  5  6  2  0  0  0  0
  5  7  1  0  0  0  0
  7  8  1  0  0  0  0
  7  9  1  0  0  0  0
  9 10  1  0  0  0  0
  9 11  1  0  0  0  0
  9 18  1  0  0  0  0
 11 12  1  0  0  0  0
 11 13  1  0  0  0  0
 11 14  1  0  0  0  0
 14 15  2  0  0  0  0
 14 16  1  0  0  0  0
 16 17  1  0  0  0  0
 18 19  2  0  0  0  0
 18 20  1  0  0  0  0
 20 21  1  0  0  0  0
 20 22  1  0  0  0  0
 22 23  1  0  0  0  0
 22 24  1  0  0  0  0
 22 25  1  0  0  0  0
M  END
$$$$

  -OEChem-01062216063D

 25 24  0     1  0  0  0  0  0999 V2000
   -2.5251   -3.6174    0.8670 H   0  0  0  0  0  0  0  0  0  0  0  0
   -2.6024   -2.6000    0.4729 C   0  0  0  0  0  0  0  0  0  0  0  0
   -3.5002   -2.1315    0.8829 H   0  0  0  0  0  0  0  0  0  0  0  0
   -2.6878   -2.6520   -0.6151 H   0  0  0  0  0  0  0  0  0  0  0  0
   -1.3746   -1.7974    0.8601 C   0  0  0  0  0  0  0  0  0  0  0  0
   -0.5338   -2.2976    1.5859 O   0  0  0  0  0  0  0  0  0  0  0  0
   -1.2540   -0.4882    0.4300 N   0  0  0  0  0  0  0  0  0  0  0  0
   -1.9618   -0.1926   -0.2345 H   0  0  0  0  0  0  0  0  0  0  0  0
    0.0314    0.2410    0.4150 C   0  0  1  0  0  0  0  0  0  0  0  0
    0.7844   -0.2745    1.0251 H   0  0  0  0  0  0  0  0  0  0  0  0
    0.5256    0.3435   -1.0448 C   0  0  0  0  0  0  0  0  0  0  0  0
   -0.2586    0.7848   -1.6653 H   0  0  0  0  0  0  0  0  0  0  0  0
    1.3872    1.0171   -1.0810 H   0  0  0  0  0  0  0  0  0  0  0  0
    0.9660   -0.9739   -1.6751 C   0  0  0  0  0  0  0  0  0  0  0  0
    1.4188   -1.8648   -0.9804 O   0  0  0  0  0  0  0  0  0  0  0  0
    0.8048   -1.0861   -3.0135 O   0  0  0  0  0  0  0  0  0  0  0  0
    1.1506   -1.9623   -3.2454 H   0  0  0  0  0  0  0  0  0  0  0  0
   -0.0938    1.6693    0.9857 C   0  0  0  0  0  0  0  0  0  0  0  0
    0.9040    2.2507    1.3867 O   0  0  0  0  0  0  0  0  0  0  0  0
   -1.2787    2.3766    0.8763 N   0  0  0  0  0  0  0  0  0  0  0  0
   -2.1089    1.8424    0.6469 H   0  0  0  0  0  0  0  0  0  0  0  0
   -1.4372    3.7387    1.3729 C   0  0  0  0  0  0  0  0  0  0  0  0
   -0.7350    4.4135    0.8720 H   0  0  0  0  0  0  0  0  0  0  0  0
   -2.4536    4.0956    1.1813 H   0  0  0  0  0  0  0  0  0  0  0  0
   -1.2531    3.7770    2.4518 H   0  0  0  0  0  0  0  0  0  0  0  0
  1  2  1  0  0  0  0
  2  3  1  0  0  0  0
  2  4  1  0  0  0  0
  2  5  1  0  0  0  0
  5  6  2  0  0  0  0
  5  7  1  0  0  0  0
  7  8  1  0  0  0  0
  7  9  1  0  0  0  0
  9 10  1  0  0  0  0
  9 11  1  0  0  0  0
  9 18  1  0  0  0  0
 11 12  1  0  0  0  0
 11 13  1  0  0  0  0
 11 14  1  0  0  0  0
 14 15  2  0  0  0  0
 14 16  1  0  0  0  0
 16 17  1  0  0  0  0
 18 19  2  0  0  0  0
 18 20  1  0  0  0  0
 20 21  1  0  0  0  0
 20 22  1  0  0  0  0
 22 23  1  0  0  0  0
 22 24  1  0  0  0  0
 22 25  1  0  0  0  0
M  END
$$$$

  -OEChem-01062216063D

 25 24  0     1  0  0  0  0  0999 V2000
   -2.5124   -3.6220    0.8379 H   0  0  0  0  0  0  0  0  0  0  0  0
   -2.5934   -2.6028    0.4494 C   0  0  0  0  0  0  0  0  0  0  0  0
   -3.4988   -2.1437    0.8531 H   0  0  0  0  0  0  0  0  0  0  0  0
   -2.6673   -2.6482   -0.6397 H   0  0  0  0  0  0  0  0  0  0  0  0
   -1.3755   -1.7938    0.8541 C   0  0  0  0  0  0  0  0  0  0  0  0
   -0.5461   -2.2851    1.5987 O   0  0  0  0  0  0  0  0  0  0  0  0
   -1.2535   -0.4842    0.4265 N   0  0  0  0  0  0  0  0  0  0  0  0
   -1.9529   -0.1893   -0.2484 H   0  0  0  0  0  0  0  0  0  0  0  0
    0.0338    0.2427    0.4126 C   0  0  1  0  0  0  0  0  0  0  0  0
    0.7863   -0.2730    1.0226 H   0  0  0  0  0  0  0  0  0  0  0  0
    0.5239    0.3377   -1.0505 C   0  0  0  0  0  0  0  0  0  0  0  0
   -0.2620    0.7789   -1.6688 H   0  0  0  0  0  0  0  0  0  0  0  0
    1.3872    1.0082   -1.0959 H   0  0  0  0  0  0  0  0  0  0  0  0
    0.9592   -0.9830   -1.6778 C   0  0  0  0  0  0  0  0  0  0  0  0
    1.4122   -1.8725   -0.9809 O   0  0  0  0  0  0  0  0  0  0  0  0
    0.7991   -1.0979   -3.0164 O   0  0  0  0  0  0  0  0  0  0  0  0
    1.1471   -1.9732   -3.2479 H   0  0  0  0  0  0  0  0  0  0  0  0
   -0.0918    1.6707    0.9871 C   0  0  0  0  0  0  0  0  0  0  0  0
    0.9110    2.3494    1.1584 O   0  0  0  0  0  0  0  0  0  0  0  0
   -1.3331    2.2580    1.1589 N   0  0  0  0  0  0  0  0  0  0  0  0
   -2.1296    1.6294    1.1528 H   0  0  0  0  0  0  0  0  0  0  0  0
   -1.5048    3.5998    1.7039 C   0  0  0  0  0  0  0  0  0  0  0  0
   -0.9867    4.3358    1.0800 H   0  0  0  0  0  0  0  0  0  0  0  0
   -2.5663    3.8631    1.7357 H   0  0  0  0  0  0  0  0  0  0  0  0
   -1.1019    3.6551    2.7208 H   0  0  0  0  0  0  0  0  0  0  0  0
  1  2  1  0  0  0  0
  2  3  1  0  0  0  0
  2  4  1  0  0  0  0
  2  5  1  0  0  0  0
  5  6  2  0  0  0  0
  5  7  1  0  0  0  0
  7  8  1  0  0  0  0
  7  9  1  0  0  0  0
  9 10  1  0  0  0  0
  9 11  1  0  0  0  0
  9 18  1  0  0  0  0
 11 12  1  0  0  0  0
 11 13  1  0  0  0  0
 11 14  1  0  0  0  0
 14 15  2  0  0  0  0
 14 16  1  0  0  0  0
 16 17  1  0  0  0  0
 18 19  2  0  0  0  0
 18 20  1  0  0  0  0
 20 21  1  0  0  0  0
 20 22  1  0  0  0  0
 22 23  1  0  0  0  0
 22 24  1  0  0  0  0
 22 25  1  0  0  0  0
M  END
$$$$

  -OEChem-01062216063D

 25 24  0     1  0  0  0  0  0999 V2000
   -2.5048   -3.6200    0.7993 H   0  0  0  0  0  0  0  0  0  0  0  0
   -2.5959   -2.5913    0.4389 C   0  0  0  0  0  0  0  0  0  0  0  0
   -3.4941   -2.1445    0.8714 H   0  0  0  0  0  0  0  0  0  0  0  0
   -2.6911   -2.6095   -0.6493 H   0  0  0  0  0  0  0  0  0  0  0  0
   -1.3719   -1.7895    0.8393 C   0  0  0  0  0  0  0  0  0  0  0  0
   -0.5437   -2.2839    1.5835 O   0  0  0  0  0  0  0  0  0  0  0  0
   -1.2450   -0.4787    0.4172 N   0  0  0  0  0  0  0  0  0  0  0  0
   -1.9529   -0.1668   -0.2418 H   0  0  0  0  0  0  0  0  0  0  0  0
    0.0429    0.2476    0.4050 C   0  0  1  0  0  0  0  0  0  0  0  0
    0.7946   -0.2685    1.0154 H   0  0  0  0  0  0  0  0  0  0  0  0
    0.5300    0.3333   -1.0609 C   0  0  0  0  0  0  0  0  0  0  0  0
   -0.2569    0.7727   -1.6795 H   0  0  0  0  0  0  0  0  0  0  0  0
    1.3953    1.0004   -1.1160 H   0  0  0  0  0  0  0  0  0  0  0  0
    0.9619   -0.9919   -1.6803 C   0  0  0  0  0  0  0  0  0  0  0  0
    1.4152   -1.8768   -0.9778 O   0  0  0  0  0  0  0  0  0  0  0  0
    0.7987   -1.1164   -3.0176 O   0  0  0  0  0  0  0  0  0  0  0  0
    1.1440   -1.9943   -3.2429 H   0  0  0  0  0  0  0  0  0  0  0  0
   -0.0896    1.6741    0.9866 C   0  0  0  0  0  0  0  0  0  0  0  0
    0.8598    2.4452    0.9580 O   0  0  0  0  0  0  0  0  0  0  0  0
   -1.3104    2.1367    1.4451 N   0  0  0  0  0  0  0  0  0  0  0  0
   -2.0270    1.4322    1.5911 H   0  0  0  0  0  0  0  0  0  0  0  0
   -1.4866    3.4538    2.0459 C   0  0  0  0  0  0  0  0  0  0  0  0
   -1.1859    4.2391    1.3442 H   0  0  0  0  0  0  0  0  0  0  0  0
   -2.5366    3.6123    2.3097 H   0  0  0  0  0  0  0  0  0  0  0  0
   -0.8819    3.5441    2.9543 H   0  0  0  0  0  0  0  0  0  0  0  0
  1  2  1  0  0  0  0
  2  3  1  0  0  0  0
  2  4  1  0  0  0  0
  2  5  1  0  0  0  0
  5  6  2  0  0  0  0
  5  7  1  0  0  0  0
  7  8  1  0  0  0  0
  7  9  1  0  0  0  0
  9 10  1  0  0  0  0
  9 11  1  0  0  0  0
  9 18  1  0  0  0  0
 11 12  1  0  0  0  0
 11 13  1  0  0  0  0
 11 14  1  0  0  0  0
 14 15  2  0  0  0  0
 14 16  1  0  0  0  0
 16 17  1  0  0  0  0
 18 19  2  0  0  0  0
 18 20  1  0  0  0  0
 20 21  1  0  0  0  0
 20 22  1  0  0  0  0
 22 23  1  0  0  0  0
 22 24  1  0  0  0  0
 22 25  1  0  0  0  0
M  END
$$$$

  -OEChem-01062216063D

 25 24  0     1  0  0  0  0  0999 V2000
   -2.5371   -3.5879    0.8292 H   0  0  0  0  0  0  0  0  0  0  0  0
   -2.6005   -2.5711    0.4309 C   0  0  0  0  0  0  0  0  0  0  0  0
   -3.4983   -2.0924    0.8290 H   0  0  0  0  0  0  0  0  0  0  0  0
   -2.6750   -2.6258   -0.6578 H   0  0  0  0  0  0  0  0  0  0  0  0
   -1.3689   -1.7789    0.8271 C   0  0  0  0  0  0  0  0  0  0  0  0
   -0.5428   -2.2766    1.5715 O   0  0  0  0  0  0  0  0  0  0  0  0
   -1.2351   -0.4672    0.4114 N   0  0  0  0  0  0  0  0  0  0  0  0
   -1.9532   -0.1374   -0.2280 H   0  0  0  0  0  0  0  0  0  0  0  0
    0.0544    0.2554    0.3959 C   0  0  1  0  0  0  0  0  0  0  0  0
    0.8059   -0.2611    1.0057 H   0  0  0  0  0  0  0  0  0  0  0  0
    0.5387    0.3311   -1.0731 C   0  0  0  0  0  0  0  0  0  0  0  0
   -0.2482    0.7701   -1.6918 H   0  0  0  0  0  0  0  0  0  0  0  0
    1.4072    0.9932   -1.1358 H   0  0  0  0  0  0  0  0  0  0  0  0
    0.9649   -0.9988   -1.6858 C   0  0  0  0  0  0  0  0  0  0  0  0
    1.4172   -1.8806   -0.9783 O   0  0  0  0  0  0  0  0  0  0  0  0
    0.7956   -1.1326   -3.0214 O   0  0  0  0  0  0  0  0  0  0  0  0
    1.1348   -2.0140   -3.2421 H   0  0  0  0  0  0  0  0  0  0  0  0
   -0.0873    1.6783    0.9880 C   0  0  0  0  0  0  0  0  0  0  0  0
    0.7540    2.5398    0.7698 O   0  0  0  0  0  0  0  0  0  0  0  0
   -1.2092    2.0167    1.7230 N   0  0  0  0  0  0  0  0  0  0  0  0
   -1.8175    1.2479    1.9898 H   0  0  0  0  0  0  0  0  0  0  0  0
   -1.3766    3.3100    2.3754 C   0  0  0  0  0  0  0  0  0  0  0  0
   -1.3395    4.1192    1.6383 H   0  0  0  0  0  0  0  0  0  0  0  0
   -2.3431    3.3547    2.8864 H   0  0  0  0  0  0  0  0  0  0  0  0
   -0.5848    3.4710    3.1146 H   0  0  0  0  0  0  0  0  0  0  0  0
  1  2  1  0  0  0  0
  2  3  1  0  0  0  0
  2  4  1  0  0  0  0
  2  5  1  0  0  0  0
  5  6  2  0  0  0  0
  5  7  1  0  0  0  0
  7  8  1  0  0  0  0
  7  9  1  0  0  0  0
  9 10  1  0  0  0  0
  9 11  1  0  0  0  0
  9 18  1  0  0  0  0
 11 12  1  0  0  0  0
 11 13  1  0  0  0  0
 11 14  1  0  0  0  0
 14 15  2  0  0  0  0
 14 16  1  0  0  0  0
 16 17  1  0  0  0  0
 18 19  2  0  0  0  0
 18 20  1  0  0  0  0
 20 21  1  0  0  0  0
 20 22  1  0  0  0  0
 22 23  1  0  0  0  0
 22 24  1  0  0  0  0
 22 25  1  0  0  0  0
M  END
$$$$

  -OEChem-01062216063D

 25 24  0     1  0  0  0  0  0999 V2000
   -2.5592   -3.5600    0.8282 H   0  0  0  0  0  0  0  0  0  0  0  0
   -2.6197   -2.5378    0.4437 C   0  0  0  0  0  0  0  0  0  0  0  0
   -3.5000   -2.0520    0.8711 H   0  0  0  0  0  0  0  0  0  0  0  0
   -2.7237   -2.5784   -0.6432 H   0  0  0  0  0  0  0  0  0  0  0  0
   -1.3679   -1.7664    0.8165 C   0  0  0  0  0  0  0  0  0  0  0  0
   -0.5377   -2.2756    1.5487 O   0  0  0  0  0  0  0  0  0  0  0  0
   -1.2233   -0.4544    0.4075 N   0  0  0  0  0  0  0  0  0  0  0  0
   -1.9556   -0.1000   -0.2022 H   0  0  0  0  0  0  0  0  0  0  0  0
    0.0693    0.2605    0.3855 C   0  0  1  0  0  0  0  0  0  0  0  0
    0.8195   -0.2582    0.9947 H   0  0  0  0  0  0  0  0  0  0  0  0
    0.5557    0.3293   -1.0841 C   0  0  0  0  0  0  0  0  0  0  0  0
   -0.2279    0.7716   -1.7048 H   0  0  0  0  0  0  0  0  0  0  0  0
    1.4280    0.9859   -1.1475 H   0  0  0  0  0  0  0  0  0  0  0  0
    0.9763   -1.0039   -1.6936 C   0  0  0  0  0  0  0  0  0  0  0  0
    1.4240   -1.8857   -0.9831 O   0  0  0  0  0  0  0  0  0  0  0  0
    0.8123   -1.1394   -3.0297 O   0  0  0  0  0  0  0  0  0  0  0  0
    1.1481   -2.0227   -3.2472 H   0  0  0  0  0  0  0  0  0  0  0  0
   -0.0818    1.6777    0.9894 C   0  0  0  0  0  0  0  0  0  0  0  0
    0.5891    2.6214    0.5925 O   0  0  0  0  0  0  0  0  0  0  0  0
   -1.0298    1.9028    1.9707 N   0  0  0  0  0  0  0  0  0  0  0  0
   -1.4985    1.0806    2.3417 H   0  0  0  0  0  0  0  0  0  0  0  0
   -1.1916    3.1807    2.6535 C   0  0  0  0  0  0  0  0  0  0  0  0
   -1.4284    3.9726    1.9350 H   0  0  0  0  0  0  0  0  0  0  0  0
   -2.0069    3.1207    3.3808 H   0  0  0  0  0  0  0  0  0  0  0  0
   -0.2721    3.4500    3.1839 H   0  0  0  0  0  0  0  0  0  0  0  0
  1  2  1  0  0  0  0
  2  3  1  0  0  0  0
  2  4  1  0  0  0  0
  2  5  1  0  0  0  0
  5  6  2  0  0  0  0
  5  7  1  0  0  0  0
  7  8  1  0  0  0  0
  7  9  1  0  0  0  0
  9 10  1  0  0  0  0
  9 11  1  0  0  0  0
  9 18  1  0  0  0  0
 11 12  1  0  0  0  0
 11 13  1  0  0  0  0
 11 14  1  0  0  0  0
 14 15  2  0  0  0  0
 14 16  1  0  0  0  0
 16 17  1  0  0  0  0
 18 19  2  0  0  0  0
 18 20  1  0  0  0  0
 20 21  1  0  0  0  0
 20 22  1  0  0  0  0
 22 23  1  0  0  0  0
 22 24  1  0  0  0  0
 22 25  1  0  0  0  0
M  END
$$$$

  -OEChem-01062216063D

 25 24  0     1  0  0  0  0  0999 V2000
   -2.5924   -3.5249    0.8520 H   0  0  0  0  0  0  0  0  0  0  0  0
   -2.6354   -2.5060    0.4568 C   0  0  0  0  0  0  0  0  0  0  0  0
   -3.5037   -1.9986    0.8836 H   0  0  0  0  0  0  0  0  0  0  0  0
   -2.7463   -2.5557   -0.6289 H   0  0  0  0  0  0  0  0  0  0  0  0
   -1.3665   -1.7550    0.8135 C   0  0  0  0  0  0  0  0  0  0  0  0
   -0.5325   -2.2785    1.5317 O   0  0  0  0  0  0  0  0  0  0  0  0
   -1.2091   -0.4429    0.4114 N   0  0  0  0  0  0  0  0  0  0  0  0
   -1.9505   -0.0670   -0.1740 H   0  0  0  0  0  0  0  0  0  0  0  0
    0.0885    0.2597    0.3824 C   0  0  1  0  0  0  0  0  0  0  0  0
    0.8386   -0.2662    0.9851 H   0  0  0  0  0  0  0  0  0  0  0  0
    0.5734    0.3302   -1.0873 C   0  0  0  0  0  0  0  0  0  0  0  0
   -0.2078    0.7811   -1.7052 H   0  0  0  0  0  0  0  0  0  0  0  0
    1.4496    0.9822   -1.1467 H   0  0  0  0  0  0  0  0  0  0  0  0
    0.9822   -1.0041   -1.7024 C   0  0  0  0  0  0  0  0  0  0  0  0
    1.4235   -1.8915   -0.9947 O   0  0  0  0  0  0  0  0  0  0  0  0
    0.8157   -1.1346   -3.0388 O   0  0  0  0  0  0  0  0  0  0  0  0
    1.1393   -2.0217   -3.2591 H   0  0  0  0  0  0  0  0  0  0  0  0
   -0.0630    1.6703    0.9983 C   0  0  0  0  0  0  0  0  0  0  0  0
    0.3827    2.6711    0.4515 O   0  0  0  0  0  0  0  0  0  0  0  0
   -0.7689    1.8136    2.1782 N   0  0  0  0  0  0  0  0  0  0  0  0
   -1.0860    0.9581    2.6276 H   0  0  0  0  0  0  0  0  0  0  0  0
   -0.9428    3.0872    2.8657 C   0  0  0  0  0  0  0  0  0  0  0  0
   -1.4559    3.8054    2.2174 H   0  0  0  0  0  0  0  0  0  0  0  0
   -1.5420    2.9505    3.7711 H   0  0  0  0  0  0  0  0  0  0  0  0
    0.0289    3.5025    3.1526 H   0  0  0  0  0  0  0  0  0  0  0  0
  1  2  1  0  0  0  0
  2  3  1  0  0  0  0
  2  4  1  0  0  0  0
  2  5  1  0  0  0  0
  5  6  2  0  0  0  0
  5  7  1  0  0  0  0
  7  8  1  0  0  0  0
  7  9  1  0  0  0  0
  9 10  1  0  0  0  0
  9 11  1  0  0  0  0
  9 18  1  0  0  0  0
 11 12  1  0  0  0  0
 11 13  1  0  0  0  0
 11 14  1  0  0  0  0
 14 15  2  0  0  0  0
 14 16  1  0  0  0  0
 16 17  1  0  0  0  0
 18 19  2  0  0  0  0
 18 20  1  0  0  0  0
 20 21  1  0  0  0  0
 20 22  1  0  0  0  0
 22 23  1  0  0  0  0
 22 24  1  0  0  0  0
 22 25  1  0  0  0  0
M  END
$$$$

  -OEChem-01062216063D

 25 24  0     1  0  0  0  0  0999 V2000
   -2.5922   -3.5196    0.8144 H   0  0  0  0  0  0  0  0  0  0  0  0
   -2.6503   -2.4828    0.4715 C   0  0  0  0  0  0  0  0  0  0  0  0
   -3.5002   -1.9977    0.9572 H   0  0  0  0  0  0  0  0  0  0  0  0
   -2.8048   -2.4796   -0.6102 H   0  0  0  0  0  0  0  0  0  0  0  0
   -1.3676   -1.7488    0.8141 C   0  0  0  0  0  0  0  0  0  0  0  0
   -0.5304   -2.2848    1.5199 O   0  0  0  0  0  0  0  0  0  0  0  0
   -1.1982   -0.4378    0.4142 N   0  0  0  0  0  0  0  0  0  0  0  0
   -1.9442   -0.0444   -0.1539 H   0  0  0  0  0  0  0  0  0  0  0  0
    0.1034    0.2536    0.3841 C   0  0  1  0  0  0  0  0  0  0  0  0
    0.8518   -0.2797    0.9825 H   0  0  0  0  0  0  0  0  0  0  0  0
    0.5884    0.3280   -1.0848 C   0  0  0  0  0  0  0  0  0  0  0  0
   -0.1919    0.7843   -1.7003 H   0  0  0  0  0  0  0  0  0  0  0  0
    1.4658    0.9788   -1.1395 H   0  0  0  0  0  0  0  0  0  0  0  0
    0.9874   -1.0054   -1.7078 C   0  0  0  0  0  0  0  0  0  0  0  0
    1.4224   -1.8994   -1.0044 O   0  0  0  0  0  0  0  0  0  0  0  0
    0.8233   -1.1265   -3.0453 O   0  0  0  0  0  0  0  0  0  0  0  0
    1.1396   -2.0150   -3.2702 H   0  0  0  0  0  0  0  0  0  0  0  0
   -0.0425    1.6619    1.0030 C   0  0  0  0  0  0  0  0  0  0  0  0
    0.1561    2.6821    0.3551 O   0  0  0  0  0  0  0  0  0  0  0  0
   -0.4631    1.7726    2.3149 N   0  0  0  0  0  0  0  0  0  0  0  0
   -0.6276    0.9058    2.8214 H   0  0  0  0  0  0  0  0  0  0  0  0
   -0.6422    3.0456    3.0020 C   0  0  0  0  0  0  0  0  0  0  0  0
   -1.3976    3.6531    2.4925 H   0  0  0  0  0  0  0  0  0  0  0  0
   -0.9707    2.8772    4.0321 H   0  0  0  0  0  0  0  0  0  0  0  0
    0.3001    3.6030    3.0269 H   0  0  0  0  0  0  0  0  0  0  0  0
  1  2  1  0  0  0  0
  2  3  1  0  0  0  0
  2  4  1  0  0  0  0
  2  5  1  0  0  0  0
  5  6  2  0  0  0  0
  5  7  1  0  0  0  0
  7  8  1  0  0  0  0
  7  9  1  0  0  0  0
  9 10  1  0  0  0  0
  9 11  1  0  0  0  0
  9 18  1  0  0  0  0
 11 12  1  0  0  0  0
 11 13  1  0  0  0  0
 11 14  1  0  0  0  0
 14 15  2  0  0  0  0
 14 16  1  0  0  0  0
 16 17  1  0  0  0  0
 18 19  2  0  0  0  0
 18 20  1  0  0  0  0
 20 21  1  0  0  0  0
 20 22  1  0  0  0  0
 22 23  1  0  0  0  0
 22 24  1  0  0  0  0
 22 25  1  0  0  0  0
M  END
$$$$

  -OEChem-01062216063D

 25 24  0     1  0  0  0  0  0999 V2000
   -2.6178   -3.4999    0.8324 H   0  0  0  0  0  0  0  0  0  0  0  0
   -2.6648   -2.4618    0.4910 C   0  0  0  0  0  0  0  0  0  0  0  0
   -3.5003   -1.9638    0.9889 H   0  0  0  0  0  0  0  0  0  0  0  0
   -2.8349   -2.4551   -0.5883 H   0  0  0  0  0  0  0  0  0  0  0  0
   -1.3664   -1.7474    0.8150 C   0  0  0  0  0  0  0  0  0  0  0  0
   -0.5221   -2.3007    1.4991 O   0  0  0  0  0  0  0  0  0  0  0  0
   -1.1852   -0.4381    0.4156 N   0  0  0  0  0  0  0  0  0  0  0  0
   -1.9381   -0.0247   -0.1290 H   0  0  0  0  0  0  0  0  0  0  0  0
    0.1190    0.2450    0.3855 C   0  0  1  0  0  0  0  0  0  0  0  0
    0.8666   -0.2949    0.9788 H   0  0  0  0  0  0  0  0  0  0  0  0
    0.6025    0.3279   -1.0828 C   0  0  0  0  0  0  0  0  0  0  0  0
   -0.1788    0.7885   -1.6942 H   0  0  0  0  0  0  0  0  0  0  0  0
    1.4793    0.9797   -1.1337 H   0  0  0  0  0  0  0  0  0  0  0  0
    0.9938   -1.0026   -1.7168 C   0  0  0  0  0  0  0  0  0  0  0  0
    1.4250   -1.9041   -1.0206 O   0  0  0  0  0  0  0  0  0  0  0  0
    0.8294   -1.1122   -3.0554 O   0  0  0  0  0  0  0  0  0  0  0  0
    1.1369   -2.0021   -3.2869 H   0  0  0  0  0  0  0  0  0  0  0  0
   -0.0217    1.6523    1.0037 C   0  0  0  0  0  0  0  0  0  0  0  0
   -0.0874    2.6587    0.3087 O   0  0  0  0  0  0  0  0  0  0  0  0
   -0.1334    1.7722    2.3757 N   0  0  0  0  0  0  0  0  0  0  0  0
   -0.1370    0.9111    2.9175 H   0  0  0  0  0  0  0  0  0  0  0  0
   -0.3153    3.0456    3.0613 C   0  0  0  0  0  0  0  0  0  0  0  0
   -1.2511    3.5196    2.7469 H   0  0  0  0  0  0  0  0  0  0  0  0
   -0.3519    2.8909    4.1440 H   0  0  0  0  0  0  0  0  0  0  0  0
    0.5156    3.7230    2.8370 H   0  0  0  0  0  0  0  0  0  0  0  0
  1  2  1  0  0  0  0
  2  3  1  0  0  0  0
  2  4  1  0  0  0  0
  2  5  1  0  0  0  0
  5  6  2  0  0  0  0
  5  7  1  0  0  0  0
  7  8  1  0  0  0  0
  7  9  1  0  0  0  0
  9 10  1  0  0  0  0
  9 11  1  0  0  0  0
  9 18  1  0  0  0  0
 11 12  1  0  0  0  0
 11 13  1  0  0  0  0
 11 14  1  0  0  0  0
 14 15  2  0  0  0  0
 14 16  1  0  0  0  0
 16 17  1  0  0  0  0
 18 19  2  0  0  0  0
 18 20  1  0  0  0  0
 20 21  1  0  0  0  0
 20 22  1  0  0  0  0
 22 23  1  0  0  0  0
 22 24  1  0  0  0  0
 22 25  1  0  0  0  0
M  END
$$$$

  -OEChem-01062216063D

 25 24  0     1  0  0  0  0  0999 V2000
   -2.6519   -3.4809    0.8610 H   0  0  0  0  0  0  0  0  0  0  0  0
   -2.6876   -2.4412    0.5236 C   0  0  0  0  0  0  0  0  0  0  0  0
   -3.4954   -1.9267    1.0496 H   0  0  0  0  0  0  0  0  0  0  0  0
   -2.8922   -2.4274   -0.5496 H   0  0  0  0  0  0  0  0  0  0  0  0
   -1.3646   -1.7553    0.8073 C   0  0  0  0  0  0  0  0  0  0  0  0
   -0.5078   -2.3317    1.4563 O   0  0  0  0  0  0  0  0  0  0  0  0
   -1.1723   -0.4476    0.4082 N   0  0  0  0  0  0  0  0  0  0  0  0
   -1.9368   -0.0075   -0.0982 H   0  0  0  0  0  0  0  0  0  0  0  0
    0.1321    0.2325    0.3827 C   0  0  1  0  0  0  0  0  0  0  0  0
    0.8776   -0.3133    0.9727 H   0  0  0  0  0  0  0  0  0  0  0  0
    0.6182    0.3287   -1.0831 C   0  0  0  0  0  0  0  0  0  0  0  0
   -0.1632    0.7929   -1.6916 H   0  0  0  0  0  0  0  0  0  0  0  0
    1.4933    0.9828   -1.1269 H   0  0  0  0  0  0  0  0  0  0  0  0
    1.0089   -0.9963   -1.7288 C   0  0  0  0  0  0  0  0  0  0  0  0
    1.4376   -1.9045   -1.0399 O   0  0  0  0  0  0  0  0  0  0  0  0
    0.8515   -1.0919   -3.0692 O   0  0  0  0  0  0  0  0  0  0  0  0
    1.1527   -1.9823   -3.3068 H   0  0  0  0  0  0  0  0  0  0  0  0
   -0.0056    1.6405    0.9972 C   0  0  0  0  0  0  0  0  0  0  0  0
   -0.3389    2.6007    0.3133 O   0  0  0  0  0  0  0  0  0  0  0  0
    0.1897    1.8112    2.3545 N   0  0  0  0  0  0  0  0  0  0  0  0
    0.3734    0.9768    2.9067 H   0  0  0  0  0  0  0  0  0  0  0  0
    0.0114    3.0872    3.0364 C   0  0  0  0  0  0  0  0  0  0  0  0
   -1.0246    3.4298    2.9438 H   0  0  0  0  0  0  0  0  0  0  0  0
    0.2492    2.9847    4.0996 H   0  0  0  0  0  0  0  0  0  0  0  0
    0.6736    3.8465    2.6069 H   0  0  0  0  0  0  0  0  0  0  0  0
  1  2  1  0  0  0  0
  2  3  1  0  0  0  0
  2  4  1  0  0  0  0
  2  5  1  0  0  0  0
  5  6  2  0  0  0  0
  5  7  1  0  0  0  0
  7  8  1  0  0  0  0
  7  9  1  0  0  0  0
  9 10  1  0  0  0  0
  9 11  1  0  0  0  0
  9 18  1  0  0  0  0
 11 12  1  0  0  0  0
 11 13  1  0  0  0  0
 11 14  1  0  0  0  0
 14 15  2  0  0  0  0
 14 16  1  0  0  0  0
 16 17  1  0  0  0  0
 18 19  2  0  0  0  0
 18 20  1  0  0  0  0
 20 21  1  0  0  0  0
 20 22  1  0  0  0  0
 22 23  1  0  0  0  0
 22 24  1  0  0  0  0
 22 25  1  0  0  0  0
M  END
$$$$

  -OEChem-01062216063D

 25 24  0     1  0  0  0  0  0999 V2000
   -2.6900   -3.4635    0.9008 H   0  0  0  0  0  0  0  0  0  0  0  0
   -2.7142   -2.4243    0.5610 C   0  0  0  0  0  0  0  0  0  0  0  0
   -3.4910   -1.8900    1.1132 H   0  0  0  0  0  0  0  0  0  0  0  0
   -2.9565   -2.4089   -0.5042 H   0  0  0  0  0  0  0  0  0  0  0  0
   -1.3668   -1.7678    0.7954 C   0  0  0  0  0  0  0  0  0  0  0  0
   -0.4955   -2.3691    1.4012 O   0  0  0  0  0  0  0  0  0  0  0  0
   -1.1635   -0.4619    0.3963 N   0  0  0  0  0  0  0  0  0  0  0  0
   -1.9444    0.0115   -0.0526 H   0  0  0  0  0  0  0  0  0  0  0  0
    0.1395    0.2200    0.3764 C   0  0  1  0  0  0  0  0  0  0  0  0
    0.8810   -0.3294    0.9678 H   0  0  0  0  0  0  0  0  0  0  0  0
    0.6324    0.3294   -1.0850 C   0  0  0  0  0  0  0  0  0  0  0  0
   -0.1489    0.7951   -1.6928 H   0  0  0  0  0  0  0  0  0  0  0  0
    1.5051    0.9869   -1.1199 H   0  0  0  0  0  0  0  0  0  0  0  0
    1.0294   -0.9889   -1.7409 C   0  0  0  0  0  0  0  0  0  0  0  0
    1.4570   -1.9023   -1.0584 O   0  0  0  0  0  0  0  0  0  0  0  0
    0.8859   -1.0699   -3.0838 O   0  0  0  0  0  0  0  0  0  0  0  0
    1.1907   -1.9573   -3.3281 H   0  0  0  0  0  0  0  0  0  0  0  0
    0.0012    1.6294    0.9849 C   0  0  0  0  0  0  0  0  0  0  0  0
   -0.5777    2.5175    0.3708 O   0  0  0  0  0  0  0  0  0  0  0  0
    0.4818    1.8835    2.2556 N   0  0  0  0  0  0  0  0  0  0  0  0
    0.8661    1.0982    2.7749 H   0  0  0  0  0  0  0  0  0  0  0  0
    0.3199    3.1654    2.9308 C   0  0  0  0  0  0  0  0  0  0  0  0
   -0.7419    3.3916    3.0747 H   0  0  0  0  0  0  0  0  0  0  0  0
    0.8051    3.1405    3.9112 H   0  0  0  0  0  0  0  0  0  0  0  0
    0.7751    3.9687    2.3417 H   0  0  0  0  0  0  0  0  0  0  0  0
  1  2  1  0  0  0  0
  2  3  1  0  0  0  0
  2  4  1  0  0  0  0
  2  5  1  0  0  0  0
  5  6  2  0  0  0  0
  5  7  1  0  0  0  0
  7  8  1  0  0  0  0
  7  9  1  0  0  0  0
  9 10  1  0  0  0  0
  9 11  1  0  0  0  0
  9 18  1  0  0  0  0
 11 12  1  0  0  0  0
 11 13  1  0  0  0  0
 11 14  1  0  0  0  0
 14 15  2  0  0  0  0
 14 16  1  0  0  0  0
 16 17  1  0  0  0  0
 18 19  2  0  0  0  0
 18 20  1  0  0  0  0
 20 21  1  0  0  0  0
 20 22  1  0  0  0  0
 22 23  1  0  0  0  0
 22 24  1  0  0  0  0
 22 25  1  0  0  0  0
M  END
$$$$

  -OEChem-01062216063D

 25 24  0     1  0  0  0  0  0999 V2000
   -2.7138   -3.4558    0.9133 H   0  0  0  0  0  0  0  0  0  0  0  0
   -2.7347   -2.4084    0.5996 C   0  0  0  0  0  0  0  0  0  0  0  0
   -3.4731   -1.8739    1.2019 H   0  0  0  0  0  0  0  0  0  0  0  0
   -3.0290   -2.3628   -0.4517 H   0  0  0  0  0  0  0  0  0  0  0  0
   -1.3655   -1.7812    0.7824 C   0  0  0  0  0  0  0  0  0  0  0  0
   -0.4828   -2.4060    1.3464 O   0  0  0  0  0  0  0  0  0  0  0  0
   -1.1530   -0.4777    0.3812 N   0  0  0  0  0  0  0  0  0  0  0  0
   -1.9490    0.0279   -0.0020 H   0  0  0  0  0  0  0  0  0  0  0  0
    0.1479    0.2077    0.3699 C   0  0  1  0  0  0  0  0  0  0  0  0
    0.8851   -0.3421    0.9663 H   0  0  0  0  0  0  0  0  0  0  0  0
    0.6458    0.3297   -1.0882 C   0  0  0  0  0  0  0  0  0  0  0  0
   -0.1357    0.7975   -1.6943 H   0  0  0  0  0  0  0  0  0  0  0  0
    1.5170    0.9894   -1.1165 H   0  0  0  0  0  0  0  0  0  0  0  0
    1.0490   -0.9825   -1.7524 C   0  0  0  0  0  0  0  0  0  0  0  0
    1.4766   -1.8995   -1.0750 O   0  0  0  0  0  0  0  0  0  0  0  0
    0.9140   -1.0527   -3.0966 O   0  0  0  0  0  0  0  0  0  0  0  0
    1.2168   -1.9397   -3.3448 H   0  0  0  0  0  0  0  0  0  0  0  0
    0.0029    1.6195    0.9699 C   0  0  0  0  0  0  0  0  0  0  0  0
   -0.7811    2.4190    0.4722 O   0  0  0  0  0  0  0  0  0  0  0  0
    0.7258    1.9814    2.0912 N   0  0  0  0  0  0  0  0  0  0  0  0
    1.2995    1.2662    2.5304 H   0  0  0  0  0  0  0  0  0  0  0  0
    0.5835    3.2738    2.7503 C   0  0  0  0  0  0  0  0  0  0  0  0
   -0.4460    3.4167    3.0955 H   0  0  0  0  0  0  0  0  0  0  0  0
    1.2500    3.3329    3.6161 H   0  0  0  0  0  0  0  0  0  0  0  0
    0.8402    4.0853    2.0613 H   0  0  0  0  0  0  0  0  0  0  0  0
  1  2  1  0  0  0  0
  2  3  1  0  0  0  0
  2  4  1  0  0  0  0
  2  5  1  0  0  0  0
  5  6  2  0  0  0  0
  5  7  1  0  0  0  0
  7  8  1  0  0  0  0
  7  9  1  0  0  0  0
  9 10  1  0  0  0  0
  9 11  1  0  0  0  0
  9 18  1  0  0  0  0
 11 12  1  0  0  0  0
 11 13  1  0  0  0  0
 11 14  1  0  0  0  0
 14 15  2  0  0  0  0
 14 16  1  0  0  0  0
 16 17  1  0  0  0  0
 18 19  2  0  0  0  0
 18 20  1  0  0  0  0
 20 21  1  0  0  0  0
 20 22  1  0  0  0  0
 22 23  1  0  0  0  0
 22 24  1  0  0  0  0
 22 25  1  0  0  0  0
M  END
$$$$

  -OEChem-01062216063D

 25 24  0     1  0  0  0  0  0999 V2000
   -2.7418   -3.4480    0.9497 H   0  0  0  0  0  0  0  0  0  0  0  0
   -2.7537   -2.4029    0.6278 C   0  0  0  0  0  0  0  0  0  0  0  0
   -3.4640   -1.8504    1.2475 H   0  0  0  0  0  0  0  0  0  0  0  0
   -3.0783   -2.3599   -0.4147 H   0  0  0  0  0  0  0  0  0  0  0  0
   -1.3688   -1.7988    0.7641 C   0  0  0  0  0  0  0  0  0  0  0  0
   -0.4749   -2.4439    1.2856 O   0  0  0  0  0  0  0  0  0  0  0  0
   -1.1529   -0.4954    0.3643 N   0  0  0  0  0  0  0  0  0  0  0  0
   -1.9633    0.0392    0.0564 H   0  0  0  0  0  0  0  0  0  0  0  0
    0.1439    0.1984    0.3675 C   0  0  1  0  0  0  0  0  0  0  0  0
    0.8758   -0.3495    0.9721 H   0  0  0  0  0  0  0  0  0  0  0  0
    0.6527    0.3328   -1.0846 C   0  0  0  0  0  0  0  0  0  0  0  0
   -0.1282    0.7994   -1.6925 H   0  0  0  0  0  0  0  0  0  0  0  0
    1.5194    0.9984   -1.1025 H   0  0  0  0  0  0  0  0  0  0  0  0
    1.0708   -0.9706   -1.7562 C   0  0  0  0  0  0  0  0  0  0  0  0
    1.5000   -1.8900   -1.0833 O   0  0  0  0  0  0  0  0  0  0  0  0
    0.9488   -1.0295   -3.1022 O   0  0  0  0  0  0  0  0  0  0  0  0
    1.2557   -1.9139   -3.3547 H   0  0  0  0  0  0  0  0  0  0  0  0
   -0.0097    1.6120    0.9614 C   0  0  0  0  0  0  0  0  0  0  0  0
   -0.9472    2.3218    0.6152 O   0  0  0  0  0  0  0  0  0  0  0  0
    0.9047    2.0896    1.8818 N   0  0  0  0  0  0  0  0  0  0  0  0
    1.6347    1.4548    2.1938 H   0  0  0  0  0  0  0  0  0  0  0  0
    0.8005    3.4046    2.5027 C   0  0  0  0  0  0  0  0  0  0  0  0
   -0.1305    3.4863    3.0734 H   0  0  0  0  0  0  0  0  0  0  0  0
    1.6405    3.5690    3.1845 H   0  0  0  0  0  0  0  0  0  0  0  0
    0.8162    4.1904    1.7401 H   0  0  0  0  0  0  0  0  0  0  0  0
  1  2  1  0  0  0  0
  2  3  1  0  0  0  0
  2  4  1  0  0  0  0
  2  5  1  0  0  0  0
  5  6  2  0  0  0  0
  5  7  1  0  0  0  0
  7  8  1  0  0  0  0
  7  9  1  0  0  0  0
  9 10  1  0  0  0  0
  9 11  1  0  0  0  0
  9 18  1  0  0  0  0
 11 12  1  0  0  0  0
 11 13  1  0  0  0  0
 11 14  1  0  0  0  0
 14 15  2  0  0  0  0
 14 16  1  0  0  0  0
 16 17  1  0  0  0  0
 18 19  2  0  0  0  0
 18 20  1  0  0  0  0
 20 21  1  0  0  0  0
 20 22  1  0  0  0  0
 22 23  1  0  0  0  0
 22 24  1  0  0  0  0
 22 25  1  0  0  0  0
M  END
$$$$

  -OEChem-01062216063D

 25 24  0     1  0  0  0  0  0999 V2000
   -2.7593   -3.4372    0.9838 H   0  0  0  0  0  0  0  0  0  0  0  0
   -2.7683   -2.3908    0.6659 C   0  0  0  0  0  0  0  0  0  0  0  0
   -3.4402   -1.8289    1.3192 H   0  0  0  0  0  0  0  0  0  0  0  0
   -3.1396   -2.3380   -0.3603 H   0  0  0  0  0  0  0  0  0  0  0  0
   -1.3686   -1.8102    0.7402 C   0  0  0  0  0  0  0  0  0  0  0  0
   -0.4636   -2.4745    1.2164 O   0  0  0  0  0  0  0  0  0  0  0  0
   -1.1516   -0.5070    0.3406 N   0  0  0  0  0  0  0  0  0  0  0  0
   -1.9734    0.0532    0.1194 H   0  0  0  0  0  0  0  0  0  0  0  0
    0.1418    0.1939    0.3581 C   0  0  1  0  0  0  0  0  0  0  0  0
    0.8687   -0.3502    0.9724 H   0  0  0  0  0  0  0  0  0  0  0  0
    0.6618    0.3339   -1.0899 C   0  0  0  0  0  0  0  0  0  0  0  0
   -0.1183    0.7961   -1.7022 H   0  0  0  0  0  0  0  0  0  0  0  0
    1.5247    1.0050   -1.1015 H   0  0  0  0  0  0  0  0  0  0  0  0
    1.0934   -0.9643   -1.7635 C   0  0  0  0  0  0  0  0  0  0  0  0
    1.5232   -1.8837   -1.0915 O   0  0  0  0  0  0  0  0  0  0  0  0
    0.9853   -1.0163   -3.1111 O   0  0  0  0  0  0  0  0  0  0  0  0
    1.2960   -1.8990   -3.3650 H   0  0  0  0  0  0  0  0  0  0  0  0
   -0.0208    1.6097    0.9460 C   0  0  0  0  0  0  0  0  0  0  0  0
   -1.0695    2.2244    0.7858 O   0  0  0  0  0  0  0  0  0  0  0  0
    1.0237    2.2098    1.6247 N   0  0  0  0  0  0  0  0  0  0  0  0
    1.8646    1.6599    1.7780 H   0  0  0  0  0  0  0  0  0  0  0  0
    0.9322    3.5396    2.2156 C   0  0  0  0  0  0  0  0  0  0  0  0
    0.1253    3.5759    2.9552 H   0  0  0  0  0  0  0  0  0  0  0  0
    1.8710    3.7972    2.7152 H   0  0  0  0  0  0  0  0  0  0  0  0
    0.7350    4.2894    1.4422 H   0  0  0  0  0  0  0  0  0  0  0  0
  1  2  1  0  0  0  0
  2  3  1  0  0  0  0
  2  4  1  0  0  0  0
  2  5  1  0  0  0  0
  5  6  2  0  0  0  0
  5  7  1  0  0  0  0
  7  8  1  0  0  0  0
  7  9  1  0  0  0  0
  9 10  1  0  0  0  0
  9 11  1  0  0  0  0
  9 18  1  0  0  0  0
 11 12  1  0  0  0  0
 11 13  1  0  0  0  0
 11 14  1  0  0  0  0
 14 15  2  0  0  0  0
 14 16  1  0  0  0  0
 16 17  1  0  0  0  0
 18 19  2  0  0  0  0
 18 20  1  0  0  0  0
 20 21  1  0  0  0  0
 20 22  1  0  0  0  0
 22 23  1  0  0  0  0
 22 24  1  0  0  0  0
 22 25  1  0  0  0  0
M  END
$$$$

  -OEChem-01062216063D

 25 24  0     1  0  0  0  0  0999 V2000
   -2.7632   -3.4290    1.0034 H   0  0  0  0  0  0  0  0  0  0  0  0
   -2.7713   -2.3828    0.6851 C   0  0  0  0  0  0  0  0  0  0  0  0
   -3.4182   -1.8140    1.3572 H   0  0  0  0  0  0  0  0  0  0  0  0
   -3.1715   -2.3271   -0.3299 H   0  0  0  0  0  0  0  0  0  0  0  0
   -1.3647   -1.8156    0.7188 C   0  0  0  0  0  0  0  0  0  0  0  0
   -0.4522   -2.4914    1.1629 O   0  0  0  0  0  0  0  0  0  0  0  0
   -1.1505   -0.5115    0.3205 N   0  0  0  0  0  0  0  0  0  0  0  0
   -1.9782    0.0635    0.1689 H   0  0  0  0  0  0  0  0  0  0  0  0
    0.1409    0.1937    0.3531 C   0  0  1  0  0  0  0  0  0  0  0  0
    0.8644   -0.3467    0.9746 H   0  0  0  0  0  0  0  0  0  0  0  0
    0.6659    0.3320   -1.0949 C   0  0  0  0  0  0  0  0  0  0  0  0
   -0.1137    0.7915   -1.7098 H   0  0  0  0  0  0  0  0  0  0  0  0
    1.5281    1.0035   -1.1073 H   0  0  0  0  0  0  0  0  0  0  0  0
    1.1040   -0.9647   -1.7679 C   0  0  0  0  0  0  0  0  0  0  0  0
    1.5352   -1.8834   -1.0960 O   0  0  0  0  0  0  0  0  0  0  0  0
    0.9990   -1.0157   -3.1158 O   0  0  0  0  0  0  0  0  0  0  0  0
    1.3075   -1.8997   -3.3683 H   0  0  0  0  0  0  0  0  0  0  0  0
   -0.0304    1.6117    0.9389 C   0  0  0  0  0  0  0  0  0  0  0  0
   -1.1396    2.1330    0.9822 O   0  0  0  0  0  0  0  0  0  0  0  0
    1.0730    2.3361    1.3520 N   0  0  0  0  0  0  0  0  0  0  0  0
    1.9742    1.8668    1.3465 H   0  0  0  0  0  0  0  0  0  0  0  0
    0.9825    3.6827    1.9043 C   0  0  0  0  0  0  0  0  0  0  0  0
    0.3531    3.6881    2.8005 H   0  0  0  0  0  0  0  0  0  0  0  0
    1.9770    4.0479    2.1783 H   0  0  0  0  0  0  0  0  0  0  0  0
    0.5530    4.3701    1.1679 H   0  0  0  0  0  0  0  0  0  0  0  0
  1  2  1  0  0  0  0
  2  3  1  0  0  0  0
  2  4  1  0  0  0  0
  2  5  1  0  0  0  0
  5  6  2  0  0  0  0
  5  7  1  0  0  0  0
  7  8  1  0  0  0  0
  7  9  1  0  0  0  0
  9 10  1  0  0  0  0
  9 11  1  0  0  0  0
  9 18  1  0  0  0  0
 11 12  1  0  0  0  0
 11 13  1  0  0  0  0
 11 14  1  0  0  0  0
 14 15  2  0  0  0  0
 14 16  1  0  0  0  0
 16 17  1  0  0  0  0
 18 19  2  0  0  0  0
 18 20  1  0  0  0  0
 20 21  1  0  0  0  0
 20 22  1  0  0  0  0
 22 23  1  0  0  0  0
 22 24  1  0  0  0  0
 22 25  1  0  0  0  0
M  END
$$$$

  -OEChem-01062216063D

 25 24  0     1  0  0  0  0  0999 V2000
   -2.7302   -3.3994    1.0617 H   0  0  0  0  0  0  0  0  0  0  0  0
   -2.7562   -2.3571    0.7322 C   0  0  0  0  0  0  0  0  0  0  0  0
   -3.3301   -1.7729    1.4556 H   0  0  0  0  0  0  0  0  0  0  0  0
   -3.2499   -2.3077   -0.2412 H   0  0  0  0  0  0  0  0  0  0  0  0
   -1.3463   -1.8076    0.6250 C   0  0  0  0  0  0  0  0  0  0  0  0
   -0.3983   -2.5184    0.9165 O   0  0  0  0  0  0  0  0  0  0  0  0
   -1.1600   -0.4940    0.2420 N   0  0  0  0  0  0  0  0  0  0  0  0
   -1.9905    0.0946    0.2779 H   0  0  0  0  0  0  0  0  0  0  0  0
    0.1330    0.2074    0.3036 C   0  0  1  0  0  0  0  0  0  0  0  0
    0.9229   -0.4440    0.6959 H   0  0  0  0  0  0  0  0  0  0  0  0
    0.4809    0.6594   -1.1328 C   0  0  0  0  0  0  0  0  0  0  0  0
   -0.3622    1.2229   -1.5431 H   0  0  0  0  0  0  0  0  0  0  0  0
    1.3427    1.3303   -1.1128 H   0  0  0  0  0  0  0  0  0  0  0  0
    0.8208   -0.4739   -2.0961 C   0  0  0  0  0  0  0  0  0  0  0  0
    1.3170   -1.5029   -1.6742 O   0  0  0  0  0  0  0  0  0  0  0  0
    0.5610   -0.2565   -3.4058 O   0  0  0  0  0  0  0  0  0  0  0  0
    0.8296   -1.0678   -3.8642 H   0  0  0  0  0  0  0  0  0  0  0  0
    0.0484    1.4424    1.2301 C   0  0  0  0  0  0  0  0  0  0  0  0
   -1.0276    1.7859    1.7077 O   0  0  0  0  0  0  0  0  0  0  0  0
    1.1561    2.2463    1.4336 N   0  0  0  0  0  0  0  0  0  0  0  0
    2.0451    1.9249    1.0613 H   0  0  0  0  0  0  0  0  0  0  0  0
    1.1336    3.4439    2.2656 C   0  0  0  0  0  0  0  0  0  0  0  0
    0.8537    3.1915    3.2939 H   0  0  0  0  0  0  0  0  0  0  0  0
    2.1225    3.9124    2.2813 H   0  0  0  0  0  0  0  0  0  0  0  0
    0.4142    4.1703    1.8728 H   0  0  0  0  0  0  0  0  0  0  0  0
  1  2  1  0  0  0  0
  2  3  1  0  0  0  0
  2  4  1  0  0  0  0
  2  5  1  0  0  0  0
  5  6  2  0  0  0  0
  5  7  1  0  0  0  0
  7  8  1  0  0  0  0
  7  9  1  0  0  0  0
  9 10  1  0  0  0  0
  9 11  1  0  0  0  0
  9 18  1  0  0  0  0
 11 12  1  0  0  0  0
 11 13  1  0  0  0  0
 11 14  1  0  0  0  0
 14 15  2  0  0  0  0
 14 16  1  0  0  0  0
 16 17  1  0  0  0  0
 18 19  2  0  0  0  0
 18 20  1  0  0  0  0
 20 21  1  0  0  0  0
 20 22  1  0  0  0  0
 22 23  1  0  0  0  0
 22 24  1  0  0  0  0
 22 25  1  0  0  0  0
M  END
$$$$

  -OEChem-01062216063D

 25 24  0     1  0  0  0  0  0999 V2000
   -2.7239   -3.3842    1.0778 H   0  0  0  0  0  0  0  0  0  0  0  0
   -2.7511   -2.3422    0.7467 C   0  0  0  0  0  0  0  0  0  0  0  0
   -3.3054   -1.7531    1.4815 H   0  0  0  0  0  0  0  0  0  0  0  0
   -3.2656   -2.2915   -0.2158 H   0  0  0  0  0  0  0  0  0  0  0  0
   -1.3410   -1.8004    0.6080 C   0  0  0  0  0  0  0  0  0  0  0  0
   -0.3914   -2.5201    0.8702 O   0  0  0  0  0  0  0  0  0  0  0  0
   -1.1579   -0.4855    0.2271 N   0  0  0  0  0  0  0  0  0  0  0  0
   -1.9863    0.1021    0.2989 H   0  0  0  0  0  0  0  0  0  0  0  0
    0.1371    0.2133    0.2919 C   0  0  1  0  0  0  0  0  0  0  0  0
    0.9262   -0.4366    0.6888 H   0  0  0  0  0  0  0  0  0  0  0  0
    0.4845    0.6490   -1.1522 C   0  0  0  0  0  0  0  0  0  0  0  0
   -0.3570    1.2110   -1.5675 H   0  0  0  0  0  0  0  0  0  0  0  0
    1.3506    1.3135   -1.1455 H   0  0  0  0  0  0  0  0  0  0  0  0
    0.8220   -0.4942   -2.1050 C   0  0  0  0  0  0  0  0  0  0  0  0
    1.3178   -1.5199   -1.6756 O   0  0  0  0  0  0  0  0  0  0  0  0
    0.5614   -0.2869   -3.4163 O   0  0  0  0  0  0  0  0  0  0  0  0
    0.8256   -1.1037   -3.8674 H   0  0  0  0  0  0  0  0  0  0  0  0
    0.0461    1.4468    1.2250 C   0  0  0  0  0  0  0  0  0  0  0  0
   -0.9624    1.6395    1.8952 O   0  0  0  0  0  0  0  0  0  0  0  0
    1.0241    2.4265    1.2142 N   0  0  0  0  0  0  0  0  0  0  0  0
    1.8698    2.2396    0.6839 H   0  0  0  0  0  0  0  0  0  0  0  0
    0.9633    3.6290    2.0376 C   0  0  0  0  0  0  0  0  0  0  0  0
    0.9310    3.3653    3.1000 H   0  0  0  0  0  0  0  0  0  0  0  0
    1.8455    4.2523    1.8625 H   0  0  0  0  0  0  0  0  0  0  0  0
    0.0721    4.2167    1.7932 H   0  0  0  0  0  0  0  0  0  0  0  0
  1  2  1  0  0  0  0
  2  3  1  0  0  0  0
  2  4  1  0  0  0  0
  2  5  1  0  0  0  0
  5  6  2  0  0  0  0
  5  7  1  0  0  0  0
  7  8  1  0  0  0  0
  7  9  1  0  0  0  0
  9 10  1  0  0  0  0
  9 11  1  0  0  0  0
  9 18  1  0  0  0  0
 11 12  1  0  0  0  0
 11 13  1  0  0  0  0
 11 14  1  0  0  0  0
 14 15  2  0  0  0  0
 14 16  1  0  0  0  0
 16 17  1  0  0  0  0
 18 19  2  0  0  0  0
 18 20  1  0  0  0  0
 20 21  1  0  0  0  0
 20 22  1  0  0  0  0
 22 23  1  0  0  0  0
 22 24  1  0  0  0  0
 22 25  1  0  0  0  0
M  END
$$$$

  -OEChem-01062216063D

 25 24  0     1  0  0  0  0  0999 V2000
   -2.7194   -3.3663    1.0960 H   0  0  0  0  0  0  0  0  0  0  0  0
   -2.7474   -2.3259    0.7607 C   0  0  0  0  0  0  0  0  0  0  0  0
   -3.2880   -1.7318    1.5015 H   0  0  0  0  0  0  0  0  0  0  0  0
   -3.2761   -2.2769   -0.1939 H   0  0  0  0  0  0  0  0  0  0  0  0
   -1.3373   -1.7909    0.5982 C   0  0  0  0  0  0  0  0  0  0  0  0
   -0.3876   -2.5172    0.8402 O   0  0  0  0  0  0  0  0  0  0  0  0
   -1.1567   -0.4752    0.2174 N   0  0  0  0  0  0  0  0  0  0  0  0
   -1.9849    0.1101    0.3009 H   0  0  0  0  0  0  0  0  0  0  0  0
    0.1408    0.2207    0.2765 C   0  0  1  0  0  0  0  0  0  0  0  0
    0.9290   -0.4275    0.6780 H   0  0  0  0  0  0  0  0  0  0  0  0
    0.4922    0.6381   -1.1729 C   0  0  0  0  0  0  0  0  0  0  0  0
   -0.3441    1.2016   -1.5963 H   0  0  0  0  0  0  0  0  0  0  0  0
    1.3663    1.2918   -1.1734 H   0  0  0  0  0  0  0  0  0  0  0  0
    0.8276   -0.5172   -2.1123 C   0  0  0  0  0  0  0  0  0  0  0  0
    1.3193   -1.5401   -1.6728 O   0  0  0  0  0  0  0  0  0  0  0  0
    0.5661   -0.3234   -3.4255 O   0  0  0  0  0  0  0  0  0  0  0  0
    0.8259   -1.1469   -3.8671 H   0  0  0  0  0  0  0  0  0  0  0  0
    0.0447    1.4516    1.2156 C   0  0  0  0  0  0  0  0  0  0  0  0
   -0.8320    1.4992    2.0707 O   0  0  0  0  0  0  0  0  0  0  0  0
    0.8209    2.5822    1.0219 N   0  0  0  0  0  0  0  0  0  0  0  0
    1.5592    2.5329    0.3270 H   0  0  0  0  0  0  0  0  0  0  0  0
    0.7173    3.7779    1.8513 C   0  0  0  0  0  0  0  0  0  0  0  0
    0.9361    3.5389    2.8974 H   0  0  0  0  0  0  0  0  0  0  0  0
    1.4300    4.5365    1.5137 H   0  0  0  0  0  0  0  0  0  0  0  0
   -0.2909    4.2011    1.7902 H   0  0  0  0  0  0  0  0  0  0  0  0
  1  2  1  0  0  0  0
  2  3  1  0  0  0  0
  2  4  1  0  0  0  0
  2  5  1  0  0  0  0
  5  6  2  0  0  0  0
  5  7  1  0  0  0  0
  7  8  1  0  0  0  0
  7  9  1  0  0  0  0
  9 10  1  0  0  0  0
  9 11  1  0  0  0  0
  9 18  1  0  0  0  0
 11 12  1  0  0  0  0
 11 13  1  0  0  0  0
 11 14  1  0  0  0  0
 14 15  2  0  0  0  0
 14 16  1  0  0  0  0
 16 17  1  0  0  0  0
 18 19  2  0  0  0  0
 18 20  1  0  0  0  0
 20 21  1  0  0  0  0
 20 22  1  0  0  0  0
 22 23  1  0  0  0  0
 22 24  1  0  0  0  0
 22 25  1  0  0  0  0
M  END
$$$$

  -OEChem-01062216063D

 25 24  0     1  0  0  0  0  0999 V2000
   -2.7182   -3.3618    1.1049 H   0  0  0  0  0  0  0  0  0  0  0  0
   -2.7489   -2.3207    0.7714 C   0  0  0  0  0  0  0  0  0  0  0  0
   -3.2852   -1.7284    1.5168 H   0  0  0  0  0  0  0  0  0  0  0  0
   -3.2841   -2.2709   -0.1799 H   0  0  0  0  0  0  0  0  0  0  0  0
   -1.3399   -1.7848    0.6014 C   0  0  0  0  0  0  0  0  0  0  0  0
   -0.3893   -2.5143    0.8288 O   0  0  0  0  0  0  0  0  0  0  0  0
   -1.1627   -0.4685    0.2194 N   0  0  0  0  0  0  0  0  0  0  0  0
   -1.9946    0.1120    0.2879 H   0  0  0  0  0  0  0  0  0  0  0  0
    0.1352    0.2279    0.2667 C   0  0  1  0  0  0  0  0  0  0  0  0
    0.9222   -0.4183    0.6745 H   0  0  0  0  0  0  0  0  0  0  0  0
    0.4980    0.6319   -1.1837 C   0  0  0  0  0  0  0  0  0  0  0  0
   -0.3327    1.1946   -1.6193 H   0  0  0  0  0  0  0  0  0  0  0  0
    1.3767    1.2797   -1.1783 H   0  0  0  0  0  0  0  0  0  0  0  0
    0.8390   -0.5300   -2.1130 C   0  0  0  0  0  0  0  0  0  0  0  0
    1.3264   -1.5509   -1.6647 O   0  0  0  0  0  0  0  0  0  0  0  0
    0.5890   -0.3421   -3.4290 O   0  0  0  0  0  0  0  0  0  0  0  0
    0.8552   -1.1671   -3.8646 H   0  0  0  0  0  0  0  0  0  0  0  0
    0.0384    1.4564    1.2088 C   0  0  0  0  0  0  0  0  0  0  0  0
   -0.6337    1.3834    2.2295 O   0  0  0  0  0  0  0  0  0  0  0  0
    0.5578    2.6943    0.8665 N   0  0  0  0  0  0  0  0  0  0  0  0
    1.0987    2.7591    0.0103 H   0  0  0  0  0  0  0  0  0  0  0  0
    0.4255    3.8811    1.7046 C   0  0  0  0  0  0  0  0  0  0  0  0
    0.8834    3.7111    2.6849 H   0  0  0  0  0  0  0  0  0  0  0  0
    0.9233    4.7344    1.2341 H   0  0  0  0  0  0  0  0  0  0  0  0
   -0.6304    4.1339    1.8483 H   0  0  0  0  0  0  0  0  0  0  0  0
  1  2  1  0  0  0  0
  2  3  1  0  0  0  0
  2  4  1  0  0  0  0
  2  5  1  0  0  0  0
  5  6  2  0  0  0  0
  5  7  1  0  0  0  0
  7  8  1  0  0  0  0
  7  9  1  0  0  0  0
  9 10  1  0  0  0  0
  9 11  1  0  0  0  0
  9 18  1  0  0  0  0
 11 12  1  0  0  0  0
 11 13  1  0  0  0  0
 11 14  1  0  0  0  0
 14 15  2  0  0  0  0
 14 16  1  0  0  0  0
 16 17  1  0  0  0  0
 18 19  2  0  0  0  0
 18 20  1  0  0  0  0
 20 21  1  0  0  0  0
 20 22  1  0  0  0  0
 22 23  1  0  0  0  0
 22 24  1  0  0  0  0
 22 25  1  0  0  0  0
M  END
$$$$

  -OEChem-01062216063D

 25 24  0     1  0  0  0  0  0999 V2000
   -2.7136   -3.3713    1.1012 H   0  0  0  0  0  0  0  0  0  0  0  0
   -2.7494   -2.3301    0.7687 C   0  0  0  0  0  0  0  0  0  0  0  0
   -3.2964   -1.7433    1.5107 H   0  0  0  0  0  0  0  0  0  0  0  0
   -3.2767   -2.2833   -0.1869 H   0  0  0  0  0  0  0  0  0  0  0  0
   -1.3427   -1.7838    0.6121 C   0  0  0  0  0  0  0  0  0  0  0  0
   -0.3901   -2.5080    0.8463 O   0  0  0  0  0  0  0  0  0  0  0  0
   -1.1702   -0.4670    0.2285 N   0  0  0  0  0  0  0  0  0  0  0  0
   -2.0100    0.1045    0.2524 H   0  0  0  0  0  0  0  0  0  0  0  0
    0.1249    0.2350    0.2675 C   0  0  1  0  0  0  0  0  0  0  0  0
    0.9132   -0.4076    0.6786 H   0  0  0  0  0  0  0  0  0  0  0  0
    0.4954    0.6350   -1.1813 C   0  0  0  0  0  0  0  0  0  0  0  0
   -0.3345    1.1911   -1.6261 H   0  0  0  0  0  0  0  0  0  0  0  0
    1.3716    1.2877   -1.1666 H   0  0  0  0  0  0  0  0  0  0  0  0
    0.8458   -0.5292   -2.1046 C   0  0  0  0  0  0  0  0  0  0  0  0
    1.3332   -1.5477   -1.6511 O   0  0  0  0  0  0  0  0  0  0  0  0
    0.6027   -0.3451   -3.4226 O   0  0  0  0  0  0  0  0  0  0  0  0
    0.8769   -1.1695   -3.8544 H   0  0  0  0  0  0  0  0  0  0  0  0
    0.0294    1.4624    1.2077 C   0  0  0  0  0  0  0  0  0  0  0  0
   -0.3914    1.3175    2.3469 O   0  0  0  0  0  0  0  0  0  0  0  0
    0.2569    2.7540    0.7607 N   0  0  0  0  0  0  0  0  0  0  0  0
    0.5698    2.8737   -0.1974 H   0  0  0  0  0  0  0  0  0  0  0  0
    0.1079    3.9340    1.6054 C   0  0  0  0  0  0  0  0  0  0  0  0
    0.7784    3.8737    2.4693 H   0  0  0  0  0  0  0  0  0  0  0  0
    0.3530    4.8384    1.0404 H   0  0  0  0  0  0  0  0  0  0  0  0
   -0.9227    4.0205    1.9653 H   0  0  0  0  0  0  0  0  0  0  0  0
  1  2  1  0  0  0  0
  2  3  1  0  0  0  0
  2  4  1  0  0  0  0
  2  5  1  0  0  0  0
  5  6  2  0  0  0  0
  5  7  1  0  0  0  0
  7  8  1  0  0  0  0
  7  9  1  0  0  0  0
  9 10  1  0  0  0  0
  9 11  1  0  0  0  0
  9 18  1  0  0  0  0
 11 12  1  0  0  0  0
 11 13  1  0  0  0  0
 11 14  1  0  0  0  0
 14 15  2  0  0  0  0
 14 16  1  0  0  0  0
 16 17  1  0  0  0  0
 18 19  2  0  0  0  0
 18 20  1  0  0  0  0
 20 21  1  0  0  0  0
 20 22  1  0  0  0  0
 22 23  1  0  0  0  0
 22 24  1  0  0  0  0
 22 25  1  0  0  0  0
M  END
$$$$

  -OEChem-01062216063D

 25 24  0     1  0  0  0  0  0999 V2000
   -2.7061   -3.3974    1.0778 H   0  0  0  0  0  0  0  0  0  0  0  0
   -2.7474   -2.3547    0.7501 C   0  0  0  0  0  0  0  0  0  0  0  0
   -3.3205   -1.7795    1.4813 H   0  0  0  0  0  0  0  0  0  0  0  0
   -3.2518   -2.3098   -0.2179 H   0  0  0  0  0  0  0  0  0  0  0  0
   -1.3444   -1.7897    0.6309 C   0  0  0  0  0  0  0  0  0  0  0  0
   -0.3895   -2.5019    0.8895 O   0  0  0  0  0  0  0  0  0  0  0  0
   -1.1782   -0.4723    0.2453 N   0  0  0  0  0  0  0  0  0  0  0  0
   -2.0261    0.0860    0.2104 H   0  0  0  0  0  0  0  0  0  0  0  0
    0.1111    0.2402    0.2800 C   0  0  1  0  0  0  0  0  0  0  0  0
    0.9041   -0.3973    0.6909 H   0  0  0  0  0  0  0  0  0  0  0  0
    0.4824    0.6434   -1.1666 C   0  0  0  0  0  0  0  0  0  0  0  0
   -0.3516    1.1886   -1.6165 H   0  0  0  0  0  0  0  0  0  0  0  0
    1.3493    1.3090   -1.1448 H   0  0  0  0  0  0  0  0  0  0  0  0
    0.8442   -0.5176   -2.0891 C   0  0  0  0  0  0  0  0  0  0  0  0
    1.3381   -1.5328   -1.6353 O   0  0  0  0  0  0  0  0  0  0  0  0
    0.5990   -0.3356   -3.4071 O   0  0  0  0  0  0  0  0  0  0  0  0
    0.8845   -1.1558   -3.8396 H   0  0  0  0  0  0  0  0  0  0  0  0
    0.0164    1.4691    1.2147 C   0  0  0  0  0  0  0  0  0  0  0  0
   -0.1154    1.3062    2.4187 O   0  0  0  0  0  0  0  0  0  0  0  0
   -0.0677    2.7591    0.7163 N   0  0  0  0  0  0  0  0  0  0  0  0
    0.0184    2.8832   -0.2875 H   0  0  0  0  0  0  0  0  0  0  0  0
   -0.2142    3.9381    1.5628 C   0  0  0  0  0  0  0  0  0  0  0  0
    0.6275    4.0159    2.2592 H   0  0  0  0  0  0  0  0  0  0  0  0
   -0.2404    4.8446    0.9504 H   0  0  0  0  0  0  0  0  0  0  0  0
   -1.1439    3.8835    2.1390 H   0  0  0  0  0  0  0  0  0  0  0  0
  1  2  1  0  0  0  0
  2  3  1  0  0  0  0
  2  4  1  0  0  0  0
  2  5  1  0  0  0  0
  5  6  2  0  0  0  0
  5  7  1  0  0  0  0
  7  8  1  0  0  0  0
  7  9  1  0  0  0  0
  9 10  1  0  0  0  0
  9 11  1  0  0  0  0
  9 18  1  0  0  0  0
 11 12  1  0  0  0  0
 11 13  1  0  0  0  0
 11 14  1  0  0  0  0
 14 15  2  0  0  0  0
 14 16  1  0  0  0  0
 16 17  1  0  0  0  0
 18 19  2  0  0  0  0
 18 20  1  0  0  0  0
 20 21  1  0  0  0  0
 20 22  1  0  0  0  0
 22 23  1  0  0  0  0
 22 24  1  0  0  0  0
 22 25  1  0  0  0  0
M  END
$$$$

  -OEChem-01062216063D

 25 24  0     1  0  0  0  0  0999 V2000
   -2.6984   -3.4292    1.0500 H   0  0  0  0  0  0  0  0  0  0  0  0
   -2.7455   -2.3850    0.7276 C   0  0  0  0  0  0  0  0  0  0  0  0
   -3.3458   -1.8224    1.4464 H   0  0  0  0  0  0  0  0  0  0  0  0
   -3.2238   -2.3408   -0.2535 H   0  0  0  0  0  0  0  0  0  0  0  0
   -1.3477   -1.8001    0.6496 C   0  0  0  0  0  0  0  0  0  0  0  0
   -0.3916   -2.4970    0.9410 O   0  0  0  0  0  0  0  0  0  0  0  0
   -1.1873   -0.4820    0.2631 N   0  0  0  0  0  0  0  0  0  0  0  0
   -2.0402    0.0615    0.1712 H   0  0  0  0  0  0  0  0  0  0  0  0
    0.0967    0.2407    0.2963 C   0  0  1  0  0  0  0  0  0  0  0  0
    0.8945   -0.3931    0.7048 H   0  0  0  0  0  0  0  0  0  0  0  0
    0.4665    0.6538   -1.1470 C   0  0  0  0  0  0  0  0  0  0  0  0
   -0.3711    1.1918   -1.5983 H   0  0  0  0  0  0  0  0  0  0  0  0
    1.3248    1.3309   -1.1176 H   0  0  0  0  0  0  0  0  0  0  0  0
    0.8381   -0.5009   -2.0735 C   0  0  0  0  0  0  0  0  0  0  0  0
    1.3386   -1.5143   -1.6229 O   0  0  0  0  0  0  0  0  0  0  0  0
    0.5904   -0.3169   -3.3908 O   0  0  0  0  0  0  0  0  0  0  0  0
    0.8882   -1.1310   -3.8267 H   0  0  0  0  0  0  0  0  0  0  0  0
    0.0018    1.4708    1.2262 C   0  0  0  0  0  0  0  0  0  0  0  0
    0.1804    1.3452    2.4280 O   0  0  0  0  0  0  0  0  0  0  0  0
   -0.3924    2.7079    0.7434 N   0  0  0  0  0  0  0  0  0  0  0  0
   -0.5295    2.8010   -0.2579 H   0  0  0  0  0  0  0  0  0  0  0  0
   -0.5268    3.8904    1.5869 C   0  0  0  0  0  0  0  0  0  0  0  0
    0.4262    4.1251    2.0728 H   0  0  0  0  0  0  0  0  0  0  0  0
   -0.8293    4.7528    0.9852 H   0  0  0  0  0  0  0  0  0  0  0  0
   -1.2846    3.7254    2.3600 H   0  0  0  0  0  0  0  0  0  0  0  0
  1  2  1  0  0  0  0
  2  3  1  0  0  0  0
  2  4  1  0  0  0  0
  2  5  1  0  0  0  0
  5  6  2  0  0  0  0
  5  7  1  0  0  0  0
  7  8  1  0  0  0  0
  7  9  1  0  0  0  0
  9 10  1  0  0  0  0
  9 11  1  0  0  0  0
  9 18  1  0  0  0  0
 11 12  1  0  0  0  0
 11 13  1  0  0  0  0
 11 14  1  0  0  0  0
 14 15  2  0  0  0  0
 14 16  1  0  0  0  0
 16 17  1  0  0  0  0
 18 19  2  0  0  0  0
 18 20  1  0  0  0  0
 20 21  1  0  0  0  0
 20 22  1  0  0  0  0
 22 23  1  0  0  0  0
 22 24  1  0  0  0  0
 22 25  1  0  0  0  0
M  END
$$$$

  -OEChem-01062216063D

 25 24  0     1  0  0  0  0  0999 V2000
   -2.6911   -3.4665    1.0147 H   0  0  0  0  0  0  0  0  0  0  0  0
   -2.7430   -2.4211    0.6978 C   0  0  0  0  0  0  0  0  0  0  0  0
   -3.3762   -1.8730    1.3997 H   0  0  0  0  0  0  0  0  0  0  0  0
   -3.1882   -2.3784   -0.2989 H   0  0  0  0  0  0  0  0  0  0  0  0
   -1.3523   -1.8150    0.6714 C   0  0  0  0  0  0  0  0  0  0  0  0
   -0.3986   -2.4936    1.0093 O   0  0  0  0  0  0  0  0  0  0  0  0
   -1.1962   -0.4963    0.2850 N   0  0  0  0  0  0  0  0  0  0  0  0
   -2.0504    0.0297    0.1293 H   0  0  0  0  0  0  0  0  0  0  0  0
    0.0838    0.2345    0.3184 C   0  0  1  0  0  0  0  0  0  0  0  0
    0.8865   -0.3973    0.7207 H   0  0  0  0  0  0  0  0  0  0  0  0
    0.4501    0.6650   -1.1194 C   0  0  0  0  0  0  0  0  0  0  0  0
   -0.3879    1.2062   -1.5654 H   0  0  0  0  0  0  0  0  0  0  0  0
    1.3048    1.3463   -1.0811 H   0  0  0  0  0  0  0  0  0  0  0  0
    0.8268   -0.4789   -2.0568 C   0  0  0  0  0  0  0  0  0  0  0  0
    1.3324   -1.4942   -1.6158 O   0  0  0  0  0  0  0  0  0  0  0  0
    0.5730   -0.2862   -3.3718 O   0  0  0  0  0  0  0  0  0  0  0  0
    0.8792   -1.0925   -3.8161 H   0  0  0  0  0  0  0  0  0  0  0  0
   -0.0115    1.4649    1.2452 C   0  0  0  0  0  0  0  0  0  0  0  0
    0.4811    1.4379    2.3625 O   0  0  0  0  0  0  0  0  0  0  0  0
   -0.6928    2.6024    0.8446 N   0  0  0  0  0  0  0  0  0  0  0  0
   -1.0543    2.6257   -0.1031 H   0  0  0  0  0  0  0  0  0  0  0  0
   -0.8060    3.7978    1.6727 C   0  0  0  0  0  0  0  0  0  0  0  0
    0.1867    4.1918    1.9157 H   0  0  0  0  0  0  0  0  0  0  0  0
   -1.3661    4.5744    1.1431 H   0  0  0  0  0  0  0  0  0  0  0  0
   -1.3312    3.5685    2.6059 H   0  0  0  0  0  0  0  0  0  0  0  0
  1  2  1  0  0  0  0
  2  3  1  0  0  0  0
  2  4  1  0  0  0  0
  2  5  1  0  0  0  0
  5  6  2  0  0  0  0
  5  7  1  0  0  0  0
  7  8  1  0  0  0  0
  7  9  1  0  0  0  0
  9 10  1  0  0  0  0
  9 11  1  0  0  0  0
  9 18  1  0  0  0  0
 11 12  1  0  0  0  0
 11 13  1  0  0  0  0
 11 14  1  0  0  0  0
 14 15  2  0  0  0  0
 14 16  1  0  0  0  0
 16 17  1  0  0  0  0
 18 19  2  0  0  0  0
 18 20  1  0  0  0  0
 20 21  1  0  0  0  0
 20 22  1  0  0  0  0
 22 23  1  0  0  0  0
 22 24  1  0  0  0  0
 22 25  1  0  0  0  0
M  END
$$$$

  -OEChem-01062216063D

 25 24  0     1  0  0  0  0  0999 V2000
   -2.6660   -3.5310    0.9293 H   0  0  0  0  0  0  0  0  0  0  0  0
   -2.7273   -2.4845    0.6166 C   0  0  0  0  0  0  0  0  0  0  0  0
   -3.4404   -1.9663    1.2621 H   0  0  0  0  0  0  0  0  0  0  0  0
   -3.0825   -2.4473   -0.4158 H   0  0  0  0  0  0  0  0  0  0  0  0
   -1.3626   -1.8294    0.7202 C   0  0  0  0  0  0  0  0  0  0  0  0
   -0.4256   -2.4670    1.1667 O   0  0  0  0  0  0  0  0  0  0  0  0
   -1.2117   -0.5107    0.3315 N   0  0  0  0  0  0  0  0  0  0  0  0
   -2.0485   -0.0324    0.0152 H   0  0  0  0  0  0  0  0  0  0  0  0
    0.0661    0.2264    0.3601 C   0  0  1  0  0  0  0  0  0  0  0  0
    0.8747   -0.4052    0.7511 H   0  0  0  0  0  0  0  0  0  0  0  0
    0.4176    0.6727   -1.0748 C   0  0  0  0  0  0  0  0  0  0  0  0
   -0.4225    1.2220   -1.5064 H   0  0  0  0  0  0  0  0  0  0  0  0
    1.2727    1.3539   -1.0351 H   0  0  0  0  0  0  0  0  0  0  0  0
    0.7898   -0.4623   -2.0241 C   0  0  0  0  0  0  0  0  0  0  0  0
    1.3022   -1.4796   -1.5950 O   0  0  0  0  0  0  0  0  0  0  0  0
    0.5164   -0.2636   -3.3342 O   0  0  0  0  0  0  0  0  0  0  0  0
    0.8262   -1.0624   -3.7893 H   0  0  0  0  0  0  0  0  0  0  0  0
   -0.0152    1.4612    1.2813 C   0  0  0  0  0  0  0  0  0  0  0  0
    0.7712    1.5971    2.2061 O   0  0  0  0  0  0  0  0  0  0  0  0
   -0.9343    2.4671    1.0313 N   0  0  0  0  0  0  0  0  0  0  0  0
   -1.5232    2.3739    0.2112 H   0  0  0  0  0  0  0  0  0  0  0  0
   -1.0091    3.6926    1.8187 C   0  0  0  0  0  0  0  0  0  0  0  0
   -0.0735    4.2564    1.7400 H   0  0  0  0  0  0  0  0  0  0  0  0
   -1.8260    4.3256    1.4593 H   0  0  0  0  0  0  0  0  0  0  0  0
   -1.1920    3.4600    2.8731 H   0  0  0  0  0  0  0  0  0  0  0  0
  1  2  1  0  0  0  0
  2  3  1  0  0  0  0
  2  4  1  0  0  0  0
  2  5  1  0  0  0  0
  5  6  2  0  0  0  0
  5  7  1  0  0  0  0
  7  8  1  0  0  0  0
  7  9  1  0  0  0  0
  9 10  1  0  0  0  0
  9 11  1  0  0  0  0
  9 18  1  0  0  0  0
 11 12  1  0  0  0  0
 11 13  1  0  0  0  0
 11 14  1  0  0  0  0
 14 15  2  0  0  0  0
 14 16  1  0  0  0  0
 16 17  1  0  0  0  0
 18 19  2  0  0  0  0
 18 20  1  0  0  0  0
 20 21  1  0  0  0  0
 20 22  1  0  0  0  0
 22 23  1  0  0  0  0
 22 24  1  0  0  0  0
 22 25  1  0  0  0  0
M  END
$$$$

  -OEChem-01062216063D

 25 24  0     1  0  0  0  0  0999 V2000
   -2.6016   -3.5765    0.8578 H   0  0  0  0  0  0  0  0  0  0  0  0
   -2.6697   -2.5468    0.4953 C   0  0  0  0  0  0  0  0  0  0  0  0
   -3.5067   -2.0529    0.9943 H   0  0  0  0  0  0  0  0  0  0  0  0
   -2.8528   -2.5662   -0.5817 H   0  0  0  0  0  0  0  0  0  0  0  0
   -1.3798   -1.8043    0.7899 C   0  0  0  0  0  0  0  0  0  0  0  0
   -0.4945   -2.3633    1.4126 O   0  0  0  0  0  0  0  0  0  0  0  0
   -1.2438   -0.4893    0.3831 N   0  0  0  0  0  0  0  0  0  0  0  0
   -1.9936   -0.1300   -0.1984 H   0  0  0  0  0  0  0  0  0  0  0  0
    0.0417    0.2373    0.3896 C   0  0  1  0  0  0  0  0  0  0  0  0
    0.8508   -0.3991    0.7711 H   0  0  0  0  0  0  0  0  0  0  0  0
    0.3743    0.6703   -1.0529 C   0  0  0  0  0  0  0  0  0  0  0  0
   -0.4656    1.2293   -1.4733 H   0  0  0  0  0  0  0  0  0  0  0  0
    1.2374    1.3424   -1.0321 H   0  0  0  0  0  0  0  0  0  0  0  0
    0.7206   -0.4794   -1.9946 C   0  0  0  0  0  0  0  0  0  0  0  0
    1.2291   -1.4965   -1.5591 O   0  0  0  0  0  0  0  0  0  0  0  0
    0.4233   -0.2987   -3.3019 O   0  0  0  0  0  0  0  0  0  0  0  0
    0.7289   -1.1009   -3.7538 H   0  0  0  0  0  0  0  0  0  0  0  0
    0.0042    1.4845    1.2963 C   0  0  0  0  0  0  0  0  0  0  0  0
    0.9988    1.8089    1.9281 O   0  0  0  0  0  0  0  0  0  0  0  0
   -1.0747    2.3512    1.2609 N   0  0  0  0  0  0  0  0  0  0  0  0
   -1.9043    2.0402    0.7688 H   0  0  0  0  0  0  0  0  0  0  0  0
   -1.1439    3.5683    2.0613 C   0  0  0  0  0  0  0  0  0  0  0  0
   -0.3175    4.2410    1.8082 H   0  0  0  0  0  0  0  0  0  0  0  0
   -2.0852    4.0933    1.8728 H   0  0  0  0  0  0  0  0  0  0  0  0
   -1.0879    3.3286    3.1285 H   0  0  0  0  0  0  0  0  0  0  0  0
  1  2  1  0  0  0  0
  2  3  1  0  0  0  0
  2  4  1  0  0  0  0
  2  5  1  0  0  0  0
  5  6  2  0  0  0  0
  5  7  1  0  0  0  0
  7  8  1  0  0  0  0
  7  9  1  0  0  0  0
  9 10  1  0  0  0  0
  9 11  1  0  0  0  0
  9 18  1  0  0  0  0
 11 12  1  0  0  0  0
 11 13  1  0  0  0  0
 11 14  1  0  0  0  0
 14 15  2  0  0  0  0
 14 16  1  0  0  0  0
 16 17  1  0  0  0  0
 18 19  2  0  0  0  0
 18 20  1  0  0  0  0
 20 21  1  0  0  0  0
 20 22  1  0  0  0  0
 22 23  1  0  0  0  0
 22 24  1  0  0  0  0
 22 25  1  0  0  0  0
M  END
$$$$

  -OEChem-01062216063D

 25 24  0     1  0  0  0  0  0999 V2000
   -2.5811   -3.5897    0.8214 H   0  0  0  0  0  0  0  0  0  0  0  0
   -2.6443   -2.5671    0.4386 C   0  0  0  0  0  0  0  0  0  0  0  0
   -3.5204   -2.0815    0.8748 H   0  0  0  0  0  0  0  0  0  0  0  0
   -2.7574   -2.6060   -0.6474 H   0  0  0  0  0  0  0  0  0  0  0  0
   -1.3888   -1.7970    0.8014 C   0  0  0  0  0  0  0  0  0  0  0  0
   -0.5307   -2.3301    1.4826 O   0  0  0  0  0  0  0  0  0  0  0  0
   -1.2544   -0.4825    0.3933 N   0  0  0  0  0  0  0  0  0  0  0  0
   -1.9711   -0.1498   -0.2444 H   0  0  0  0  0  0  0  0  0  0  0  0
    0.0365    0.2352    0.4024 C   0  0  1  0  0  0  0  0  0  0  0  0
    0.8435   -0.4057    0.7802 H   0  0  0  0  0  0  0  0  0  0  0  0
    0.3628    0.6675   -1.0418 C   0  0  0  0  0  0  0  0  0  0  0  0
   -0.4757    1.2342   -1.4547 H   0  0  0  0  0  0  0  0  0  0  0  0
    1.2309    1.3335   -1.0268 H   0  0  0  0  0  0  0  0  0  0  0  0
    0.6957   -0.4840   -1.9858 C   0  0  0  0  0  0  0  0  0  0  0  0
    1.2003   -1.5046   -1.5528 O   0  0  0  0  0  0  0  0  0  0  0  0
    0.3871   -0.3037   -3.2906 O   0  0  0  0  0  0  0  0  0  0  0  0
    0.6867   -1.1066   -3.7451 H   0  0  0  0  0  0  0  0  0  0  0  0
    0.0107    1.4826    1.3092 C   0  0  0  0  0  0  0  0  0  0  0  0
    1.0612    1.9670    1.7049 O   0  0  0  0  0  0  0  0  0  0  0  0
   -1.1656    2.1836    1.5079 N   0  0  0  0  0  0  0  0  0  0  0  0
   -2.0246    1.7031    1.2638 H   0  0  0  0  0  0  0  0  0  0  0  0
   -1.2424    3.3877    2.3265 C   0  0  0  0  0  0  0  0  0  0  0  0
   -0.5869    4.1673    1.9238 H   0  0  0  0  0  0  0  0  0  0  0  0
   -2.2667    3.7724    2.3388 H   0  0  0  0  0  0  0  0  0  0  0  0
   -0.9392    3.1707    3.3563 H   0  0  0  0  0  0  0  0  0  0  0  0
  1  2  1  0  0  0  0
  2  3  1  0  0  0  0
  2  4  1  0  0  0  0
  2  5  1  0  0  0  0
  5  6  2  0  0  0  0
  5  7  1  0  0  0  0
  7  8  1  0  0  0  0
  7  9  1  0  0  0  0
  9 10  1  0  0  0  0
  9 11  1  0  0  0  0
  9 18  1  0  0  0  0
 11 12  1  0  0  0  0
 11 13  1  0  0  0  0
 11 14  1  0  0  0  0
 14 15  2  0  0  0  0
 14 16  1  0  0  0  0
 16 17  1  0  0  0  0
 18 19  2  0  0  0  0
 18 20  1  0  0  0  0
 20 21  1  0  0  0  0
 20 22  1  0  0  0  0
 22 23  1  0  0  0  0
 22 24  1  0  0  0  0
 22 25  1  0  0  0  0
M  END
$$$$

  -OEChem-01062216063D

 25 24  0     1  0  0  0  0  0999 V2000
   -2.5814   -3.5859    0.8157 H   0  0  0  0  0  0  0  0  0  0  0  0
   -2.6362   -2.5706    0.4126 C   0  0  0  0  0  0  0  0  0  0  0  0
   -3.5242   -2.0792    0.8172 H   0  0  0  0  0  0  0  0  0  0  0  0
   -2.7214   -2.6299   -0.6750 H   0  0  0  0  0  0  0  0  0  0  0  0
   -1.3911   -1.7919    0.7934 C   0  0  0  0  0  0  0  0  0  0  0  0
   -0.5438   -2.3150    1.4956 O   0  0  0  0  0  0  0  0  0  0  0  0
   -1.2556   -0.4769    0.3880 N   0  0  0  0  0  0  0  0  0  0  0  0
   -1.9671   -0.1428   -0.2557 H   0  0  0  0  0  0  0  0  0  0  0  0
    0.0372    0.2389    0.3998 C   0  0  1  0  0  0  0  0  0  0  0  0
    0.8432   -0.4031    0.7776 H   0  0  0  0  0  0  0  0  0  0  0  0
    0.3596    0.6650   -1.0484 C   0  0  0  0  0  0  0  0  0  0  0  0
   -0.4796    1.2314   -1.4601 H   0  0  0  0  0  0  0  0  0  0  0  0
    1.2289    1.3295   -1.0425 H   0  0  0  0  0  0  0  0  0  0  0  0
    0.6885   -0.4912   -1.9878 C   0  0  0  0  0  0  0  0  0  0  0  0
    1.1935   -1.5100   -1.5506 O   0  0  0  0  0  0  0  0  0  0  0  0
    0.3766   -0.3179   -3.2928 O   0  0  0  0  0  0  0  0  0  0  0  0
    0.6749   -1.1229   -3.7442 H   0  0  0  0  0  0  0  0  0  0  0  0
    0.0144    1.4860    1.3097 C   0  0  0  0  0  0  0  0  0  0  0  0
    1.0457    2.1112    1.5132 O   0  0  0  0  0  0  0  0  0  0  0  0
   -1.1848    2.0085    1.7601 N   0  0  0  0  0  0  0  0  0  0  0  0
   -1.9937    1.4005    1.6824 H   0  0  0  0  0  0  0  0  0  0  0  0
   -1.2650    3.1780    2.6272 C   0  0  0  0  0  0  0  0  0  0  0  0
   -0.8139    4.0484    2.1392 H   0  0  0  0  0  0  0  0  0  0  0  0
   -2.3099    3.4128    2.8515 H   0  0  0  0  0  0  0  0  0  0  0  0
   -0.7400    2.9924    3.5702 H   0  0  0  0  0  0  0  0  0  0  0  0
  1  2  1  0  0  0  0
  2  3  1  0  0  0  0
  2  4  1  0  0  0  0
  2  5  1  0  0  0  0
  5  6  2  0  0  0  0
  5  7  1  0  0  0  0
  7  8  1  0  0  0  0
  7  9  1  0  0  0  0
  9 10  1  0  0  0  0
  9 11  1  0  0  0  0
  9 18  1  0  0  0  0
 11 12  1  0  0  0  0
 11 13  1  0  0  0  0
 11 14  1  0  0  0  0
 14 15  2  0  0  0  0
 14 16  1  0  0  0  0
 16 17  1  0  0  0  0
 18 19  2  0  0  0  0
 18 20  1  0  0  0  0
 20 21  1  0  0  0  0
 20 22  1  0  0  0  0
 22 23  1  0  0  0  0
 22 24  1  0  0  0  0
 22 25  1  0  0  0  0
M  END
$$$$

  -OEChem-01062216063D

 25 24  0     1  0  0  0  0  0999 V2000
   -2.5805   -3.5754    0.7949 H   0  0  0  0  0  0  0  0  0  0  0  0
   -2.6330   -2.5581    0.3964 C   0  0  0  0  0  0  0  0  0  0  0  0
   -3.5218   -2.0675    0.7997 H   0  0  0  0  0  0  0  0  0  0  0  0
   -2.7149   -2.6124   -0.6918 H   0  0  0  0  0  0  0  0  0  0  0  0
   -1.3883   -1.7823    0.7842 C   0  0  0  0  0  0  0  0  0  0  0  0
   -0.5470   -2.3038    1.4947 O   0  0  0  0  0  0  0  0  0  0  0  0
   -1.2479   -0.4670    0.3827 N   0  0  0  0  0  0  0  0  0  0  0  0
   -1.9651   -0.1197   -0.2480 H   0  0  0  0  0  0  0  0  0  0  0  0
    0.0464    0.2464    0.3955 C   0  0  1  0  0  0  0  0  0  0  0  0
    0.8520   -0.3956    0.7732 H   0  0  0  0  0  0  0  0  0  0  0  0
    0.3621    0.6629   -1.0582 C   0  0  0  0  0  0  0  0  0  0  0  0
   -0.4788    1.2275   -1.4688 H   0  0  0  0  0  0  0  0  0  0  0  0
    1.2324    1.3258   -1.0646 H   0  0  0  0  0  0  0  0  0  0  0  0
    0.6853   -0.5005   -1.9904 C   0  0  0  0  0  0  0  0  0  0  0  0
    1.1916   -1.5166   -1.5478 O   0  0  0  0  0  0  0  0  0  0  0  0
    0.3623   -0.3388   -3.2941 O   0  0  0  0  0  0  0  0  0  0  0  0
    0.6540   -1.1489   -3.7405 H   0  0  0  0  0  0  0  0  0  0  0  0
    0.0201    1.4914    1.3110 C   0  0  0  0  0  0  0  0  0  0  0  0
    0.9796    2.2494    1.3527 O   0  0  0  0  0  0  0  0  0  0  0  0
   -1.1276    1.8274    2.0059 N   0  0  0  0  0  0  0  0  0  0  0  0
   -1.8488    1.1136    2.0463 H   0  0  0  0  0  0  0  0  0  0  0  0
   -1.2018    2.9586    2.9227 C   0  0  0  0  0  0  0  0  0  0  0  0
   -0.9783    3.8929    2.3971 H   0  0  0  0  0  0  0  0  0  0  0  0
   -2.2064    3.0360    3.3490 H   0  0  0  0  0  0  0  0  0  0  0  0
   -0.4855    2.8352    3.7417 H   0  0  0  0  0  0  0  0  0  0  0  0
  1  2  1  0  0  0  0
  2  3  1  0  0  0  0
  2  4  1  0  0  0  0
  2  5  1  0  0  0  0
  5  6  2  0  0  0  0
  5  7  1  0  0  0  0
  7  8  1  0  0  0  0
  7  9  1  0  0  0  0
  9 10  1  0  0  0  0
  9 11  1  0  0  0  0
  9 18  1  0  0  0  0
 11 12  1  0  0  0  0
 11 13  1  0  0  0  0
 11 14  1  0  0  0  0
 14 15  2  0  0  0  0
 14 16  1  0  0  0  0
 16 17  1  0  0  0  0
 18 19  2  0  0  0  0
 18 20  1  0  0  0  0
 20 21  1  0  0  0  0
 20 22  1  0  0  0  0
 22 23  1  0  0  0  0
 22 24  1  0  0  0  0
 22 25  1  0  0  0  0
M  END
$$$$

  -OEChem-01062216063D

 25 24  0     1  0  0  0  0  0999 V2000
   -2.5889   -3.5570    0.7853 H   0  0  0  0  0  0  0  0  0  0  0  0
   -2.6420   -2.5349    0.3992 C   0  0  0  0  0  0  0  0  0  0  0  0
   -3.5205   -2.0432    0.8236 H   0  0  0  0  0  0  0  0  0  0  0  0
   -2.7437   -2.5763   -0.6878 H   0  0  0  0  0  0  0  0  0  0  0  0
   -1.3856   -1.7709    0.7725 C   0  0  0  0  0  0  0  0  0  0  0  0
   -0.5419   -2.2982    1.4760 O   0  0  0  0  0  0  0  0  0  0  0  0
   -1.2391   -0.4546    0.3781 N   0  0  0  0  0  0  0  0  0  0  0  0
   -1.9715   -0.0850   -0.2219 H   0  0  0  0  0  0  0  0  0  0  0  0
    0.0557    0.2568    0.3860 C   0  0  1  0  0  0  0  0  0  0  0  0
    0.8608   -0.3854    0.7634 H   0  0  0  0  0  0  0  0  0  0  0  0
    0.3692    0.6627   -1.0727 C   0  0  0  0  0  0  0  0  0  0  0  0
   -0.4716    1.2266   -1.4849 H   0  0  0  0  0  0  0  0  0  0  0  0
    1.2414    1.3226   -1.0884 H   0  0  0  0  0  0  0  0  0  0  0  0
    0.6889   -0.5079   -1.9971 C   0  0  0  0  0  0  0  0  0  0  0  0
    1.1950   -1.5209   -1.5470 O   0  0  0  0  0  0  0  0  0  0  0  0
    0.3689   -0.3546   -3.3028 O   0  0  0  0  0  0  0  0  0  0  0  0
    0.6614   -1.1671   -3.7440 H   0  0  0  0  0  0  0  0  0  0  0  0
    0.0232    1.4956    1.3120 C   0  0  0  0  0  0  0  0  0  0  0  0
    0.8542    2.3871    1.2001 O   0  0  0  0  0  0  0  0  0  0  0  0
   -0.9957    1.6462    2.2348 N   0  0  0  0  0  0  0  0  0  0  0  0
   -1.5880    0.8336    2.3811 H   0  0  0  0  0  0  0  0  0  0  0  0
   -1.0554    2.7466    3.1893 C   0  0  0  0  0  0  0  0  0  0  0  0
   -1.0776    3.7079    2.6651 H   0  0  0  0  0  0  0  0  0  0  0  0
   -1.9589    2.6682    3.8014 H   0  0  0  0  0  0  0  0  0  0  0  0
   -0.1833    2.7264    3.8514 H   0  0  0  0  0  0  0  0  0  0  0  0
  1  2  1  0  0  0  0
  2  3  1  0  0  0  0
  2  4  1  0  0  0  0
  2  5  1  0  0  0  0
  5  6  2  0  0  0  0
  5  7  1  0  0  0  0
  7  8  1  0  0  0  0
  7  9  1  0  0  0  0
  9 10  1  0  0  0  0
  9 11  1  0  0  0  0
  9 18  1  0  0  0  0
 11 12  1  0  0  0  0
 11 13  1  0  0  0  0
 11 14  1  0  0  0  0
 14 15  2  0  0  0  0
 14 16  1  0  0  0  0
 16 17  1  0  0  0  0
 18 19  2  0  0  0  0
 18 20  1  0  0  0  0
 20 21  1  0  0  0  0
 20 22  1  0  0  0  0
 22 23  1  0  0  0  0
 22 24  1  0  0  0  0
 22 25  1  0  0  0  0
M  END
$$$$

  -OEChem-01062216063D

 25 24  0     1  0  0  0  0  0999 V2000
   -2.5835   -3.5441    0.7509 H   0  0  0  0  0  0  0  0  0  0  0  0
   -2.6505   -2.5086    0.4050 C   0  0  0  0  0  0  0  0  0  0  0  0
   -3.5169   -2.0353    0.8727 H   0  0  0  0  0  0  0  0  0  0  0  0
   -2.7841   -2.5103   -0.6794 H   0  0  0  0  0  0  0  0  0  0  0  0
   -1.3859   -1.7545    0.7702 C   0  0  0  0  0  0  0  0  0  0  0  0
   -0.5462   -2.2824    1.4787 O   0  0  0  0  0  0  0  0  0  0  0  0
   -1.2319   -0.4388    0.3788 N   0  0  0  0  0  0  0  0  0  0  0  0
   -1.9701   -0.0563   -0.2059 H   0  0  0  0  0  0  0  0  0  0  0  0
    0.0665    0.2641    0.3799 C   0  0  1  0  0  0  0  0  0  0  0  0
    0.8690   -0.3817    0.7564 H   0  0  0  0  0  0  0  0  0  0  0  0
    0.3814    0.6622   -1.0812 C   0  0  0  0  0  0  0  0  0  0  0  0
   -0.4558    1.2308   -1.4945 H   0  0  0  0  0  0  0  0  0  0  0  0
    1.2581    1.3159   -1.1001 H   0  0  0  0  0  0  0  0  0  0  0  0
    0.6927   -0.5140   -2.0013 C   0  0  0  0  0  0  0  0  0  0  0  0
    1.1927   -1.5282   -1.5468 O   0  0  0  0  0  0  0  0  0  0  0  0
    0.3724   -0.3649   -3.3073 O   0  0  0  0  0  0  0  0  0  0  0  0
    0.6546   -1.1834   -3.7441 H   0  0  0  0  0  0  0  0  0  0  0  0
    0.0298    1.4969    1.3145 C   0  0  0  0  0  0  0  0  0  0  0  0
    0.6777    2.5061    1.0688 O   0  0  0  0  0  0  0  0  0  0  0  0
   -0.7910    1.4862    2.4271 N   0  0  0  0  0  0  0  0  0  0  0  0
   -1.2275    0.5962    2.6537 H   0  0  0  0  0  0  0  0  0  0  0  0
   -0.8334    2.5664    3.4050 C   0  0  0  0  0  0  0  0  0  0  0  0
   -1.1260    3.5066    2.9256 H   0  0  0  0  0  0  0  0  0  0  0  0
   -1.5618    2.3389    4.1891 H   0  0  0  0  0  0  0  0  0  0  0  0
    0.1487    2.6993    3.8713 H   0  0  0  0  0  0  0  0  0  0  0  0
  1  2  1  0  0  0  0
  2  3  1  0  0  0  0
  2  4  1  0  0  0  0
  2  5  1  0  0  0  0
  5  6  2  0  0  0  0
  5  7  1  0  0  0  0
  7  8  1  0  0  0  0
  7  9  1  0  0  0  0
  9 10  1  0  0  0  0
  9 11  1  0  0  0  0
  9 18  1  0  0  0  0
 11 12  1  0  0  0  0
 11 13  1  0  0  0  0
 11 14  1  0  0  0  0
 14 15  2  0  0  0  0
 14 16  1  0  0  0  0
 16 17  1  0  0  0  0
 18 19  2  0  0  0  0
 18 20  1  0  0  0  0
 20 21  1  0  0  0  0
 20 22  1  0  0  0  0
 22 23  1  0  0  0  0
 22 24  1  0  0  0  0
 22 25  1  0  0  0  0
M  END
$$$$

  -OEChem-01062216063D

 25 24  0     1  0  0  0  0  0999 V2000
   -2.6070   -3.5110    0.7856 H   0  0  0  0  0  0  0  0  0  0  0  0
   -2.6631   -2.4780    0.4308 C   0  0  0  0  0  0  0  0  0  0  0  0
   -3.5164   -1.9878    0.9055 H   0  0  0  0  0  0  0  0  0  0  0  0
   -2.8108   -2.4872   -0.6517 H   0  0  0  0  0  0  0  0  0  0  0  0
   -1.3829   -1.7395    0.7725 C   0  0  0  0  0  0  0  0  0  0  0  0
   -0.5382   -2.2740    1.4709 O   0  0  0  0  0  0  0  0  0  0  0  0
   -1.2205   -0.4252    0.3818 N   0  0  0  0  0  0  0  0  0  0  0  0
   -1.9697   -0.0248   -0.1764 H   0  0  0  0  0  0  0  0  0  0  0  0
    0.0809    0.2688    0.3718 C   0  0  1  0  0  0  0  0  0  0  0  0
    0.8825   -0.3796    0.7455 H   0  0  0  0  0  0  0  0  0  0  0  0
    0.3963    0.6641   -1.0898 C   0  0  0  0  0  0  0  0  0  0  0  0
   -0.4391    1.2361   -1.5025 H   0  0  0  0  0  0  0  0  0  0  0  0
    1.2757    1.3143   -1.1076 H   0  0  0  0  0  0  0  0  0  0  0  0
    0.6983   -0.5143   -2.0101 C   0  0  0  0  0  0  0  0  0  0  0  0
    1.1923   -1.5313   -1.5546 O   0  0  0  0  0  0  0  0  0  0  0  0
    0.3825   -0.3629   -3.3170 O   0  0  0  0  0  0  0  0  0  0  0  0
    0.6598   -1.1831   -3.7535 H   0  0  0  0  0  0  0  0  0  0  0  0
    0.0409    1.4951    1.3121 C   0  0  0  0  0  0  0  0  0  0  0  0
    0.4570    2.5931    0.9650 O   0  0  0  0  0  0  0  0  0  0  0  0
   -0.5224    1.3562    2.5666 N   0  0  0  0  0  0  0  0  0  0  0  0
   -0.7925    0.4138    2.8400 H   0  0  0  0  0  0  0  0  0  0  0  0
   -0.5577    2.4231    3.5587 C   0  0  0  0  0  0  0  0  0  0  0  0
   -1.1129    3.2855    3.1750 H   0  0  0  0  0  0  0  0  0  0  0  0
   -1.0499    2.0743    4.4716 H   0  0  0  0  0  0  0  0  0  0  0  0
    0.4583    2.7426    3.8131 H   0  0  0  0  0  0  0  0  0  0  0  0
  1  2  1  0  0  0  0
  2  3  1  0  0  0  0
  2  4  1  0  0  0  0
  2  5  1  0  0  0  0
  5  6  2  0  0  0  0
  5  7  1  0  0  0  0
  7  8  1  0  0  0  0
  7  9  1  0  0  0  0
  9 10  1  0  0  0  0
  9 11  1  0  0  0  0
  9 18  1  0  0  0  0
 11 12  1  0  0  0  0
 11 13  1  0  0  0  0
 11 14  1  0  0  0  0
 14 15  2  0  0  0  0
 14 16  1  0  0  0  0
 16 17  1  0  0  0  0
 18 19  2  0  0  0  0
 18 20  1  0  0  0  0
 20 21  1  0  0  0  0
 20 22  1  0  0  0  0
 22 23  1  0  0  0  0
 22 24  1  0  0  0  0
 22 25  1  0  0  0  0
M  END
$$$$

  -OEChem-01062216063D

 25 24  0     1  0  0  0  0  0999 V2000
   -2.6189   -3.4896    0.8001 H   0  0  0  0  0  0  0  0  0  0  0  0
   -2.6715   -2.4522    0.4577 C   0  0  0  0  0  0  0  0  0  0  0  0
   -3.5077   -1.9579    0.9576 H   0  0  0  0  0  0  0  0  0  0  0  0
   -2.8442   -2.4478   -0.6212 H   0  0  0  0  0  0  0  0  0  0  0  0
   -1.3760   -1.7311    0.7777 C   0  0  0  0  0  0  0  0  0  0  0  0
   -0.5239   -2.2783    1.4579 O   0  0  0  0  0  0  0  0  0  0  0  0
   -1.2035   -0.4186    0.3864 N   0  0  0  0  0  0  0  0  0  0  0  0
   -1.9590   -0.0015   -0.1509 H   0  0  0  0  0  0  0  0  0  0  0  0
    0.1024    0.2628    0.3699 C   0  0  1  0  0  0  0  0  0  0  0  0
    0.9031   -0.3913    0.7354 H   0  0  0  0  0  0  0  0  0  0  0  0
    0.4135    0.6628   -1.0909 C   0  0  0  0  0  0  0  0  0  0  0  0
   -0.4203    1.2429   -1.4960 H   0  0  0  0  0  0  0  0  0  0  0  0
    1.2961    1.3086   -1.1075 H   0  0  0  0  0  0  0  0  0  0  0  0
    0.7000   -0.5126   -2.0198 C   0  0  0  0  0  0  0  0  0  0  0  0
    1.1874   -1.5362   -1.5720 O   0  0  0  0  0  0  0  0  0  0  0  0
    0.3794   -0.3509   -3.3243 O   0  0  0  0  0  0  0  0  0  0  0  0
    0.6437   -1.1722   -3.7667 H   0  0  0  0  0  0  0  0  0  0  0  0
    0.0671    1.4850    1.3124 C   0  0  0  0  0  0  0  0  0  0  0  0
    0.2340    2.6274    0.9035 O   0  0  0  0  0  0  0  0  0  0  0  0
   -0.1991    1.2787    2.6523 N   0  0  0  0  0  0  0  0  0  0  0  0
   -0.3308    0.3144    2.9516 H   0  0  0  0  0  0  0  0  0  0  0  0
   -0.2506    2.3479    3.6411 C   0  0  0  0  0  0  0  0  0  0  0  0
   -1.0404    3.0639    3.3906 H   0  0  0  0  0  0  0  0  0  0  0  0
   -0.4588    1.9359    4.6333 H   0  0  0  0  0  0  0  0  0  0  0  0
    0.7067    2.8785    3.6810 H   0  0  0  0  0  0  0  0  0  0  0  0
  1  2  1  0  0  0  0
  2  3  1  0  0  0  0
  2  4  1  0  0  0  0
  2  5  1  0  0  0  0
  5  6  2  0  0  0  0
  5  7  1  0  0  0  0
  7  8  1  0  0  0  0
  7  9  1  0  0  0  0
  9 10  1  0  0  0  0
  9 11  1  0  0  0  0
  9 18  1  0  0  0  0
 11 12  1  0  0  0  0
 11 13  1  0  0  0  0
 11 14  1  0  0  0  0
 14 15  2  0  0  0  0
 14 16  1  0  0  0  0
 16 17  1  0  0  0  0
 18 19  2  0  0  0  0
 18 20  1  0  0  0  0
 20 21  1  0  0  0  0
 20 22  1  0  0  0  0
 22 23  1  0  0  0  0
 22 24  1  0  0  0  0
 22 25  1  0  0  0  0
M  END
$$$$

  -OEChem-01062216063D

 25 24  0     1  0  0  0  0  0999 V2000
   -2.6418   -3.4688    0.8372 H   0  0  0  0  0  0  0  0  0  0  0  0
   -2.6871   -2.4300    0.4983 C   0  0  0  0  0  0  0  0  0  0  0  0
   -3.4959   -1.9207    1.0276 H   0  0  0  0  0  0  0  0  0  0  0  0
   -2.8976   -2.4199   -0.5737 H   0  0  0  0  0  0  0  0  0  0  0  0
   -1.3680   -1.7335    0.7733 C   0  0  0  0  0  0  0  0  0  0  0  0
   -0.4982   -2.3027    1.4126 O   0  0  0  0  0  0  0  0  0  0  0  0
   -1.1876   -0.4220    0.3817 N   0  0  0  0  0  0  0  0  0  0  0  0
   -1.9575    0.0203   -0.1137 H   0  0  0  0  0  0  0  0  0  0  0  0
    0.1192    0.2546    0.3627 C   0  0  1  0  0  0  0  0  0  0  0  0
    0.9198   -0.4030    0.7219 H   0  0  0  0  0  0  0  0  0  0  0  0
    0.4298    0.6631   -1.0953 C   0  0  0  0  0  0  0  0  0  0  0  0
   -0.4047    1.2452   -1.4967 H   0  0  0  0  0  0  0  0  0  0  0  0
    1.3114    1.3104   -1.1071 H   0  0  0  0  0  0  0  0  0  0  0  0
    0.7111   -0.5070   -2.0325 C   0  0  0  0  0  0  0  0  0  0  0  0
    1.1956   -1.5350   -1.5918 O   0  0  0  0  0  0  0  0  0  0  0  0
    0.3953   -0.3340   -3.3367 O   0  0  0  0  0  0  0  0  0  0  0  0
    0.6542   -1.1544   -3.7838 H   0  0  0  0  0  0  0  0  0  0  0  0
    0.0871    1.4761    1.3040 C   0  0  0  0  0  0  0  0  0  0  0  0
   -0.0096    2.6197    0.8758 O   0  0  0  0  0  0  0  0  0  0  0  0
    0.1366    1.2634    2.6681 N   0  0  0  0  0  0  0  0  0  0  0  0
    0.1518    0.2955    2.9838 H   0  0  0  0  0  0  0  0  0  0  0  0
    0.0738    2.3338    3.6552 C   0  0  0  0  0  0  0  0  0  0  0  0
   -0.8802    2.8665    3.5828 H   0  0  0  0  0  0  0  0  0  0  0  0
    0.1658    1.9225    4.6651 H   0  0  0  0  0  0  0  0  0  0  0  0
    0.8893    3.0478    3.4983 H   0  0  0  0  0  0  0  0  0  0  0  0
  1  2  1  0  0  0  0
  2  3  1  0  0  0  0
  2  4  1  0  0  0  0
  2  5  1  0  0  0  0
  5  6  2  0  0  0  0
  5  7  1  0  0  0  0
  7  8  1  0  0  0  0
  7  9  1  0  0  0  0
  9 10  1  0  0  0  0
  9 11  1  0  0  0  0
  9 18  1  0  0  0  0
 11 12  1  0  0  0  0
 11 13  1  0  0  0  0
 11 14  1  0  0  0  0
 14 15  2  0  0  0  0
 14 16  1  0  0  0  0
 16 17  1  0  0  0  0
 18 19  2  0  0  0  0
 18 20  1  0  0  0  0
 20 21  1  0  0  0  0
 20 22  1  0  0  0  0
 22 23  1  0  0  0  0
 22 24  1  0  0  0  0
 22 25  1  0  0  0  0
M  END
$$$$

  -OEChem-01062216063D

 25 24  0     1  0  0  0  0  0999 V2000
   -2.6643   -3.4534    0.8642 H   0  0  0  0  0  0  0  0  0  0  0  0
   -2.7056   -2.4068    0.5496 C   0  0  0  0  0  0  0  0  0  0  0  0
   -3.4681   -1.8910    1.1379 H   0  0  0  0  0  0  0  0  0  0  0  0
   -2.9810   -2.3690   -0.5070 H   0  0  0  0  0  0  0  0  0  0  0  0
   -1.3563   -1.7458    0.7571 C   0  0  0  0  0  0  0  0  0  0  0  0
   -0.4655   -2.3473    1.3352 O   0  0  0  0  0  0  0  0  0  0  0  0
   -1.1664   -0.4352    0.3668 N   0  0  0  0  0  0  0  0  0  0  0  0
   -1.9567    0.0438   -0.0579 H   0  0  0  0  0  0  0  0  0  0  0  0
    0.1389    0.2422    0.3511 C   0  0  1  0  0  0  0  0  0  0  0  0
    0.9398   -0.4174    0.7052 H   0  0  0  0  0  0  0  0  0  0  0  0
    0.4483    0.6631   -1.1029 C   0  0  0  0  0  0  0  0  0  0  0  0
   -0.3889    1.2448   -1.4994 H   0  0  0  0  0  0  0  0  0  0  0  0
    1.3269    1.3139   -1.1093 H   0  0  0  0  0  0  0  0  0  0  0  0
    0.7302   -0.4989   -2.0502 C   0  0  0  0  0  0  0  0  0  0  0  0
    1.2161   -1.5301   -1.6185 O   0  0  0  0  0  0  0  0  0  0  0  0
    0.4150   -0.3149   -3.3531 O   0  0  0  0  0  0  0  0  0  0  0  0
    0.6668   -1.1348   -3.8051 H   0  0  0  0  0  0  0  0  0  0  0  0
    0.1047    1.4647    1.2898 C   0  0  0  0  0  0  0  0  0  0  0  0
   -0.2643    2.5620    0.8891 O   0  0  0  0  0  0  0  0  0  0  0  0
    0.4596    1.3085    2.6161 N   0  0  0  0  0  0  0  0  0  0  0  0
    0.6573    0.3618    2.9331 H   0  0  0  0  0  0  0  0  0  0  0  0
    0.3821    2.3818    3.5993 C   0  0  0  0  0  0  0  0  0  0  0  0
   -0.6490    2.7370    3.6982 H   0  0  0  0  0  0  0  0  0  0  0  0
    0.7210    2.0244    4.5764 H   0  0  0  0  0  0  0  0  0  0  0  0
    1.0173    3.2223    3.3000 H   0  0  0  0  0  0  0  0  0  0  0  0
  1  2  1  0  0  0  0
  2  3  1  0  0  0  0
  2  4  1  0  0  0  0
  2  5  1  0  0  0  0
  5  6  2  0  0  0  0
  5  7  1  0  0  0  0
  7  8  1  0  0  0  0
  7  9  1  0  0  0  0
  9 10  1  0  0  0  0
  9 11  1  0  0  0  0
  9 18  1  0  0  0  0
 11 12  1  0  0  0  0
 11 13  1  0  0  0  0
 11 14  1  0  0  0  0
 14 15  2  0  0  0  0
 14 16  1  0  0  0  0
 16 17  1  0  0  0  0
 18 19  2  0  0  0  0
 18 20  1  0  0  0  0
 20 21  1  0  0  0  0
 20 22  1  0  0  0  0
 22 23  1  0  0  0  0
 22 24  1  0  0  0  0
 22 25  1  0  0  0  0
M  END
$$$$

  -OEChem-01062216063D

 25 24  0     1  0  0  0  0  0999 V2000
   -2.6939   -3.4391    0.9141 H   0  0  0  0  0  0  0  0  0  0  0  0
   -2.7261   -2.3933    0.5957 C   0  0  0  0  0  0  0  0  0  0  0  0
   -3.4499   -1.8579    1.2149 H   0  0  0  0  0  0  0  0  0  0  0  0
   -3.0479   -2.3536   -0.4476 H   0  0  0  0  0  0  0  0  0  0  0  0
   -1.3541   -1.7619    0.7383 C   0  0  0  0  0  0  0  0  0  0  0  0
   -0.4461   -2.3920    1.2560 O   0  0  0  0  0  0  0  0  0  0  0  0
   -1.1580   -0.4522    0.3477 N   0  0  0  0  0  0  0  0  0  0  0  0
   -1.9663    0.0619    0.0054 H   0  0  0  0  0  0  0  0  0  0  0  0
    0.1445    0.2294    0.3394 C   0  0  1  0  0  0  0  0  0  0  0  0
    0.9434   -0.4319    0.6940 H   0  0  0  0  0  0  0  0  0  0  0  0
    0.4608    0.6635   -1.1083 C   0  0  0  0  0  0  0  0  0  0  0  0
   -0.3776    1.2439   -1.5047 H   0  0  0  0  0  0  0  0  0  0  0  0
    1.3360    1.3187   -1.1050 H   0  0  0  0  0  0  0  0  0  0  0  0
    0.7517   -0.4888   -2.0645 C   0  0  0  0  0  0  0  0  0  0  0  0
    1.2384   -1.5222   -1.6392 O   0  0  0  0  0  0  0  0  0  0  0  0
    0.4509   -0.2909   -3.3687 O   0  0  0  0  0  0  0  0  0  0  0  0
    0.7068   -1.1067   -3.8257 H   0  0  0  0  0  0  0  0  0  0  0  0
    0.1061    1.4552    1.2724 C   0  0  0  0  0  0  0  0  0  0  0  0
   -0.5047    2.4659    0.9462 O   0  0  0  0  0  0  0  0  0  0  0  0
    0.7359    1.4052    2.5016 N   0  0  0  0  0  0  0  0  0  0  0  0
    1.1322    0.5117    2.7833 H   0  0  0  0  0  0  0  0  0  0  0  0
    0.6733    2.4869    3.4767 C   0  0  0  0  0  0  0  0  0  0  0  0
   -0.3626    2.6686    3.7816 H   0  0  0  0  0  0  0  0  0  0  0  0
    1.2561    2.2282    4.3659 H   0  0  0  0  0  0  0  0  0  0  0  0
    1.0829    3.4099    3.0527 H   0  0  0  0  0  0  0  0  0  0  0  0
  1  2  1  0  0  0  0
  2  3  1  0  0  0  0
  2  4  1  0  0  0  0
  2  5  1  0  0  0  0
  5  6  2  0  0  0  0
  5  7  1  0  0  0  0
  7  8  1  0  0  0  0
  7  9  1  0  0  0  0
  9 10  1  0  0  0  0
  9 11  1  0  0  0  0
  9 18  1  0  0  0  0
 11 12  1  0  0  0  0
 11 13  1  0  0  0  0
 11 14  1  0  0  0  0
 14 15  2  0  0  0  0
 14 16  1  0  0  0  0
 16 17  1  0  0  0  0
 18 19  2  0  0  0  0
 18 20  1  0  0  0  0
 20 21  1  0  0  0  0
 20 22  1  0  0  0  0
 22 23  1  0  0  0  0
 22 24  1  0  0  0  0
 22 25  1  0  0  0  0
M  END
$$$$

  -OEChem-01062216063D

 25 24  0     1  0  0  0  0  0999 V2000
   -2.7178   -3.4270    0.9547 H   0  0  0  0  0  0  0  0  0  0  0  0
   -2.7420   -2.3806    0.6375 C   0  0  0  0  0  0  0  0  0  0  0  0
   -3.4234   -1.8294    1.2899 H   0  0  0  0  0  0  0  0  0  0  0  0
   -3.1123   -2.3333   -0.3893 H   0  0  0  0  0  0  0  0  0  0  0  0
   -1.3513   -1.7796    0.7143 C   0  0  0  0  0  0  0  0  0  0  0  0
   -0.4306   -2.4366    1.1726 O   0  0  0  0  0  0  0  0  0  0  0  0
   -1.1504   -0.4707    0.3242 N   0  0  0  0  0  0  0  0  0  0  0  0
   -1.9727    0.0772    0.0803 H   0  0  0  0  0  0  0  0  0  0  0  0
    0.1491    0.2163    0.3283 C   0  0  1  0  0  0  0  0  0  0  0  0
    0.9458   -0.4445    0.6886 H   0  0  0  0  0  0  0  0  0  0  0  0
    0.4720    0.6627   -1.1131 C   0  0  0  0  0  0  0  0  0  0  0  0
   -0.3680    1.2415   -1.5081 H   0  0  0  0  0  0  0  0  0  0  0  0
    1.3441    1.3218   -1.1009 H   0  0  0  0  0  0  0  0  0  0  0  0
    0.7740   -0.4797   -2.0775 C   0  0  0  0  0  0  0  0  0  0  0  0
    1.2631   -1.5144   -1.6586 O   0  0  0  0  0  0  0  0  0  0  0  0
    0.4823   -0.2704   -3.3821 O   0  0  0  0  0  0  0  0  0  0  0  0
    0.7399   -1.0830   -3.8439 H   0  0  0  0  0  0  0  0  0  0  0  0
    0.0992    1.4447    1.2565 C   0  0  0  0  0  0  0  0  0  0  0  0
   -0.7109    2.3394    1.0453 O   0  0  0  0  0  0  0  0  0  0  0  0
    0.9532    1.5381    2.3395 N   0  0  0  0  0  0  0  0  0  0  0  0
    1.5409    0.7334    2.5418 H   0  0  0  0  0  0  0  0  0  0  0  0
    0.9136    2.6387    3.2945 C   0  0  0  0  0  0  0  0  0  0  0  0
   -0.0607    2.6788    3.7929 H   0  0  0  0  0  0  0  0  0  0  0  0
    1.6874    2.5066    4.0567 H   0  0  0  0  0  0  0  0  0  0  0  0
    1.0894    3.5929    2.7868 H   0  0  0  0  0  0  0  0  0  0  0  0
  1  2  1  0  0  0  0
  2  3  1  0  0  0  0
  2  4  1  0  0  0  0
  2  5  1  0  0  0  0
  5  6  2  0  0  0  0
  5  7  1  0  0  0  0
  7  8  1  0  0  0  0
  7  9  1  0  0  0  0
  9 10  1  0  0  0  0
  9 11  1  0  0  0  0
  9 18  1  0  0  0  0
 11 12  1  0  0  0  0
 11 13  1  0  0  0  0
 11 14  1  0  0  0  0
 14 15  2  0  0  0  0
 14 16  1  0  0  0  0
 16 17  1  0  0  0  0
 18 19  2  0  0  0  0
 18 20  1  0  0  0  0
 20 21  1  0  0  0  0
 20 22  1  0  0  0  0
 22 23  1  0  0  0  0
 22 24  1  0  0  0  0
 22 25  1  0  0  0  0
M  END
$$$$

  -OEChem-01062216063D

 25 24  0     1  0  0  0  0  0999 V2000
   -2.7328   -3.4182    1.0009 H   0  0  0  0  0  0  0  0  0  0  0  0
   -2.7539   -2.3729    0.6803 C   0  0  0  0  0  0  0  0  0  0  0  0
   -3.3947   -1.8081    1.3616 H   0  0  0  0  0  0  0  0  0  0  0  0
   -3.1709   -2.3230   -0.3282 H   0  0  0  0  0  0  0  0  0  0  0  0
   -1.3513   -1.7950    0.6892 C   0  0  0  0  0  0  0  0  0  0  0  0
   -0.4197   -2.4725    1.0917 O   0  0  0  0  0  0  0  0  0  0  0  0
   -1.1517   -0.4858    0.2992 N   0  0  0  0  0  0  0  0  0  0  0  0
   -1.9814    0.0842    0.1463 H   0  0  0  0  0  0  0  0  0  0  0  0
    0.1446    0.2074    0.3177 C   0  0  1  0  0  0  0  0  0  0  0  0
    0.9384   -0.4514    0.6879 H   0  0  0  0  0  0  0  0  0  0  0  0
    0.4791    0.6643   -1.1170 C   0  0  0  0  0  0  0  0  0  0  0  0
   -0.3619    1.2397   -1.5153 H   0  0  0  0  0  0  0  0  0  0  0  0
    1.3467    1.3288   -1.0936 H   0  0  0  0  0  0  0  0  0  0  0  0
    0.7961   -0.4694   -2.0870 C   0  0  0  0  0  0  0  0  0  0  0  0
    1.2864   -1.5047   -1.6714 O   0  0  0  0  0  0  0  0  0  0  0  0
    0.5213   -0.2490   -3.3933 O   0  0  0  0  0  0  0  0  0  0  0  0
    0.7846   -1.0579   -3.8584 H   0  0  0  0  0  0  0  0  0  0  0  0
    0.0837    1.4386    1.2413 C   0  0  0  0  0  0  0  0  0  0  0  0
   -0.8721    2.2033    1.1773 O   0  0  0  0  0  0  0  0  0  0  0  0
    1.1068    1.6961    2.1346 N   0  0  0  0  0  0  0  0  0  0  0  0
    1.8455    1.0024    2.2154 H   0  0  0  0  0  0  0  0  0  0  0  0
    1.0913    2.8203    3.0624 C   0  0  0  0  0  0  0  0  0  0  0  0
    0.2225    2.7578    3.7260 H   0  0  0  0  0  0  0  0  0  0  0  0
    1.9970    2.8166    3.6765 H   0  0  0  0  0  0  0  0  0  0  0  0
    1.0489    3.7678    2.5151 H   0  0  0  0  0  0  0  0  0  0  0  0
  1  2  1  0  0  0  0
  2  3  1  0  0  0  0
  2  4  1  0  0  0  0
  2  5  1  0  0  0  0
  5  6  2  0  0  0  0
  5  7  1  0  0  0  0
  7  8  1  0  0  0  0
  7  9  1  0  0  0  0
  9 10  1  0  0  0  0
  9 11  1  0  0  0  0
  9 18  1  0  0  0  0
 11 12  1  0  0  0  0
 11 13  1  0  0  0  0
 11 14  1  0  0  0  0
 14 15  2  0  0  0  0
 14 16  1  0  0  0  0
 16 17  1  0  0  0  0
 18 19  2  0  0  0  0
 18 20  1  0  0  0  0
 20 21  1  0  0  0  0
 20 22  1  0  0  0  0
 22 23  1  0  0  0  0
 22 24  1  0  0  0  0
 22 25  1  0  0  0  0
M  END
$$$$

  -OEChem-01062216063D

 25 24  0     1  0  0  0  0  0999 V2000
   -2.7383   -3.4137    1.0266 H   0  0  0  0  0  0  0  0  0  0  0  0
   -2.7585   -2.3693    0.7028 C   0  0  0  0  0  0  0  0  0  0  0  0
   -3.3720   -1.7952    1.4013 H   0  0  0  0  0  0  0  0  0  0  0  0
   -3.2060   -2.3180   -0.2925 H   0  0  0  0  0  0  0  0  0  0  0  0
   -1.3505   -1.8057    0.6659 C   0  0  0  0  0  0  0  0  0  0  0  0
   -0.4121   -2.4979    1.0253 O   0  0  0  0  0  0  0  0  0  0  0  0
   -1.1543   -0.4954    0.2780 N   0  0  0  0  0  0  0  0  0  0  0  0
   -1.9867    0.0868    0.2030 H   0  0  0  0  0  0  0  0  0  0  0  0
    0.1398    0.2029    0.3132 C   0  0  1  0  0  0  0  0  0  0  0  0
    0.9316   -0.4533    0.6922 H   0  0  0  0  0  0  0  0  0  0  0  0
    0.4816    0.6653   -1.1179 C   0  0  0  0  0  0  0  0  0  0  0  0
   -0.3596    1.2382   -1.5189 H   0  0  0  0  0  0  0  0  0  0  0  0
    1.3467    1.3329   -1.0884 H   0  0  0  0  0  0  0  0  0  0  0  0
    0.8102   -0.4635   -2.0900 C   0  0  0  0  0  0  0  0  0  0  0  0
    1.3027   -1.4978   -1.6750 O   0  0  0  0  0  0  0  0  0  0  0  0
    0.5418   -0.2400   -3.3972 O   0  0  0  0  0  0  0  0  0  0  0  0
    0.8043   -1.0495   -3.8618 H   0  0  0  0  0  0  0  0  0  0  0  0
    0.0691    1.4361    1.2352 C   0  0  0  0  0  0  0  0  0  0  0  0
   -0.9785    2.0645    1.3393 O   0  0  0  0  0  0  0  0  0  0  0  0
    1.1948    1.8719    1.9094 N   0  0  0  0  0  0  0  0  0  0  0  0
    2.0329    1.3005    1.8458 H   0  0  0  0  0  0  0  0  0  0  0  0
    1.1946    3.0269    2.7993 C   0  0  0  0  0  0  0  0  0  0  0  0
    0.4778    2.8825    3.6144 H   0  0  0  0  0  0  0  0  0  0  0  0
    2.1883    3.1704    3.2343 H   0  0  0  0  0  0  0  0  0  0  0  0
    0.9244    3.9343    2.2491 H   0  0  0  0  0  0  0  0  0  0  0  0
  1  2  1  0  0  0  0
  2  3  1  0  0  0  0
  2  4  1  0  0  0  0
  2  5  1  0  0  0  0
  5  6  2  0  0  0  0
  5  7  1  0  0  0  0
  7  8  1  0  0  0  0
  7  9  1  0  0  0  0
  9 10  1  0  0  0  0
  9 11  1  0  0  0  0
  9 18  1  0  0  0  0
 11 12  1  0  0  0  0
 11 13  1  0  0  0  0
 11 14  1  0  0  0  0
 14 15  2  0  0  0  0
 14 16  1  0  0  0  0
 16 17  1  0  0  0  0
 18 19  2  0  0  0  0
 18 20  1  0  0  0  0
 20 21  1  0  0  0  0
 20 22  1  0  0  0  0
 22 23  1  0  0  0  0
 22 24  1  0  0  0  0
 22 25  1  0  0  0  0
M  END
$$$$

  -OEChem-01062216063D

 25 24  0     1  0  0  0  0  0999 V2000
   -2.7344   -3.4097    1.0431 H   0  0  0  0  0  0  0  0  0  0  0  0
   -2.7578   -2.3666    0.7156 C   0  0  0  0  0  0  0  0  0  0  0  0
   -3.3541   -1.7876    1.4251 H   0  0  0  0  0  0  0  0  0  0  0  0
   -3.2260   -2.3175   -0.2704 H   0  0  0  0  0  0  0  0  0  0  0  0
   -1.3489   -1.8083    0.6471 C   0  0  0  0  0  0  0  0  0  0  0  0
   -0.4054   -2.5085    0.9763 O   0  0  0  0  0  0  0  0  0  0  0  0
   -1.1578   -0.4966    0.2609 N   0  0  0  0  0  0  0  0  0  0  0  0
   -1.9901    0.0902    0.2425 H   0  0  0  0  0  0  0  0  0  0  0  0
    0.1350    0.2042    0.3105 C   0  0  1  0  0  0  0  0  0  0  0  0
    0.9258   -0.4495    0.6968 H   0  0  0  0  0  0  0  0  0  0  0  0
    0.4803    0.6647   -1.1217 C   0  0  0  0  0  0  0  0  0  0  0  0
   -0.3619    1.2327   -1.5275 H   0  0  0  0  0  0  0  0  0  0  0  0
    1.3429    1.3350   -1.0941 H   0  0  0  0  0  0  0  0  0  0  0  0
    0.8158   -0.4648   -2.0908 C   0  0  0  0  0  0  0  0  0  0  0  0
    1.3104   -1.4968   -1.6738 O   0  0  0  0  0  0  0  0  0  0  0  0
    0.5515   -0.2428   -3.3989 O   0  0  0  0  0  0  0  0  0  0  0  0
    0.8168   -1.0527   -3.8614 H   0  0  0  0  0  0  0  0  0  0  0  0
    0.0573    1.4392    1.2329 C   0  0  0  0  0  0  0  0  0  0  0  0
   -1.0298    1.9282    1.5204 O   0  0  0  0  0  0  0  0  0  0  0  0
    1.2138    2.0587    1.6701 N   0  0  0  0  0  0  0  0  0  0  0  0
    2.0995    1.6098    1.4540 H   0  0  0  0  0  0  0  0  0  0  0  0
    1.2119    3.2390    2.5262 C   0  0  0  0  0  0  0  0  0  0  0  0
    0.6942    3.0289    3.4682 H   0  0  0  0  0  0  0  0  0  0  0  0
    2.2380    3.5424    2.7557 H   0  0  0  0  0  0  0  0  0  0  0  0
    0.7089    4.0739    2.0269 H   0  0  0  0  0  0  0  0  0  0  0  0
  1  2  1  0  0  0  0
  2  3  1  0  0  0  0
  2  4  1  0  0  0  0
  2  5  1  0  0  0  0
  5  6  2  0  0  0  0
  5  7  1  0  0  0  0
  7  8  1  0  0  0  0
  7  9  1  0  0  0  0
  9 10  1  0  0  0  0
  9 11  1  0  0  0  0
  9 18  1  0  0  0  0
 11 12  1  0  0  0  0
 11 13  1  0  0  0  0
 11 14  1  0  0  0  0
 14 15  2  0  0  0  0
 14 16  1  0  0  0  0
 16 17  1  0  0  0  0
 18 19  2  0  0  0  0
 18 20  1  0  0  0  0
 20 21  1  0  0  0  0
 20 22  1  0  0  0  0
 22 23  1  0  0  0  0
 22 24  1  0  0  0  0
 22 25  1  0  0  0  0
M  END
$$$$

  -OEChem-01062216063D

 25 24  0     1  0  0  0  0  0999 V2000
   -2.6919   -3.3889    1.1017 H   0  0  0  0  0  0  0  0  0  0  0  0
   -2.7375   -2.3475    0.7709 C   0  0  0  0  0  0  0  0  0  0  0  0
   -3.2686   -1.7616    1.5251 H   0  0  0  0  0  0  0  0  0  0  0  0
   -3.2873   -2.3010   -0.1720 H   0  0  0  0  0  0  0  0  0  0  0  0
   -1.3369   -1.7968    0.5809 C   0  0  0  0  0  0  0  0  0  0  0  0
   -0.3720   -2.5145    0.7917 O   0  0  0  0  0  0  0  0  0  0  0  0
   -1.1740   -0.4778    0.2048 N   0  0  0  0  0  0  0  0  0  0  0  0
   -2.0030    0.1028    0.3098 H   0  0  0  0  0  0  0  0  0  0  0  0
    0.1206    0.2196    0.2745 C   0  0  1  0  0  0  0  0  0  0  0  0
    0.9488   -0.4875    0.4023 H   0  0  0  0  0  0  0  0  0  0  0  0
    0.2934    0.9882   -1.0535 C   0  0  0  0  0  0  0  0  0  0  0  0
   -0.5890    1.6110   -1.2265 H   0  0  0  0  0  0  0  0  0  0  0  0
    1.1559    1.6555   -0.9885 H   0  0  0  0  0  0  0  0  0  0  0  0
    0.5079    0.0944   -2.2715 C   0  0  0  0  0  0  0  0  0  0  0  0
    1.0453   -0.9916   -2.1419 O   0  0  0  0  0  0  0  0  0  0  0  0
    0.0928    0.5812   -3.4635 O   0  0  0  0  0  0  0  0  0  0  0  0
    0.2988   -0.1071   -4.1148 H   0  0  0  0  0  0  0  0  0  0  0  0
    0.1678    1.2014    1.4676 C   0  0  0  0  0  0  0  0  0  0  0  0
   -0.8380    1.4174    2.1348 O   0  0  0  0  0  0  0  0  0  0  0  0
    1.3032    1.9543    1.7092 N   0  0  0  0  0  0  0  0  0  0  0  0
    2.1378    1.7284    1.1760 H   0  0  0  0  0  0  0  0  0  0  0  0
    1.4028    2.9252    2.7927 C   0  0  0  0  0  0  0  0  0  0  0  0
    1.2541    2.4358    3.7612 H   0  0  0  0  0  0  0  0  0  0  0  0
    2.3912    3.3945    2.7899 H   0  0  0  0  0  0  0  0  0  0  0  0
    0.6480    3.7101    2.6747 H   0  0  0  0  0  0  0  0  0  0  0  0
  1  2  1  0  0  0  0
  2  3  1  0  0  0  0
  2  4  1  0  0  0  0
  2  5  1  0  0  0  0
  5  6  2  0  0  0  0
  5  7  1  0  0  0  0
  7  8  1  0  0  0  0
  7  9  1  0  0  0  0
  9 10  1  0  0  0  0
  9 11  1  0  0  0  0
  9 18  1  0  0  0  0
 11 12  1  0  0  0  0
 11 13  1  0  0  0  0
 11 14  1  0  0  0  0
 14 15  2  0  0  0  0
 14 16  1  0  0  0  0
 16 17  1  0  0  0  0
 18 19  2  0  0  0  0
 18 20  1  0  0  0  0
 20 21  1  0  0  0  0
 20 22  1  0  0  0  0
 22 23  1  0  0  0  0
 22 24  1  0  0  0  0
 22 25  1  0  0  0  0
M  END
$$$$

  -OEChem-01062216063D

 25 24  0     1  0  0  0  0  0999 V2000
   -2.6809   -3.3745    1.1178 H   0  0  0  0  0  0  0  0  0  0  0  0
   -2.7311   -2.3326    0.7893 C   0  0  0  0  0  0  0  0  0  0  0  0
   -3.2391   -1.7456    1.5583 H   0  0  0  0  0  0  0  0  0  0  0  0
   -3.3053   -2.2825   -0.1388 H   0  0  0  0  0  0  0  0  0  0  0  0
   -1.3335   -1.7879    0.5631 C   0  0  0  0  0  0  0  0  0  0  0  0
   -0.3683   -2.5147    0.7378 O   0  0  0  0  0  0  0  0  0  0  0  0
   -1.1750   -0.4669    0.1905 N   0  0  0  0  0  0  0  0  0  0  0  0
   -2.0019    0.1104    0.3225 H   0  0  0  0  0  0  0  0  0  0  0  0
    0.1214    0.2290    0.2628 C   0  0  1  0  0  0  0  0  0  0  0  0
    0.9502   -0.4765    0.3955 H   0  0  0  0  0  0  0  0  0  0  0  0
    0.2933    0.9821   -1.0766 C   0  0  0  0  0  0  0  0  0  0  0  0
   -0.5890    1.6031   -1.2564 H   0  0  0  0  0  0  0  0  0  0  0  0
    1.1576    1.6471   -1.0266 H   0  0  0  0  0  0  0  0  0  0  0  0
    0.5085    0.0738   -2.2844 C   0  0  0  0  0  0  0  0  0  0  0  0
    1.0471   -1.0100   -2.1442 O   0  0  0  0  0  0  0  0  0  0  0  0
    0.0947    0.5491   -3.4814 O   0  0  0  0  0  0  0  0  0  0  0  0
    0.3014   -0.1460   -4.1255 H   0  0  0  0  0  0  0  0  0  0  0  0
    0.1638    1.2068    1.4640 C   0  0  0  0  0  0  0  0  0  0  0  0
   -0.7525    1.2277    2.2780 O   0  0  0  0  0  0  0  0  0  0  0  0
    1.1447    2.1794    1.5559 N   0  0  0  0  0  0  0  0  0  0  0  0
    1.9186    2.1272    0.9006 H   0  0  0  0  0  0  0  0  0  0  0  0
    1.2081    3.1536    2.6395 C   0  0  0  0  0  0  0  0  0  0  0  0
    1.3118    2.6471    3.6050 H   0  0  0  0  0  0  0  0  0  0  0  0
    2.0677    3.8165    2.5023 H   0  0  0  0  0  0  0  0  0  0  0  0
    0.3005    3.7662    2.6586 H   0  0  0  0  0  0  0  0  0  0  0  0
  1  2  1  0  0  0  0
  2  3  1  0  0  0  0
  2  4  1  0  0  0  0
  2  5  1  0  0  0  0
  5  6  2  0  0  0  0
  5  7  1  0  0  0  0
  7  8  1  0  0  0  0
  7  9  1  0  0  0  0
  9 10  1  0  0  0  0
  9 11  1  0  0  0  0
  9 18  1  0  0  0  0
 11 12  1  0  0  0  0
 11 13  1  0  0  0  0
 11 14  1  0  0  0  0
 14 15  2  0  0  0  0
 14 16  1  0  0  0  0
 16 17  1  0  0  0  0
 18 19  2  0  0  0  0
 18 20  1  0  0  0  0
 20 21  1  0  0  0  0
 20 22  1  0  0  0  0
 22 23  1  0  0  0  0
 22 24  1  0  0  0  0
 22 25  1  0  0  0  0
M  END
$$$$

  -OEChem-01062216063D

 25 24  0     1  0  0  0  0  0999 V2000
   -2.6712   -3.3608    1.1328 H   0  0  0  0  0  0  0  0  0  0  0  0
   -2.7258   -2.3192    0.8041 C   0  0  0  0  0  0  0  0  0  0  0  0
   -3.2206   -1.7310    1.5808 H   0  0  0  0  0  0  0  0  0  0  0  0
   -3.3142   -2.2691   -0.1149 H   0  0  0  0  0  0  0  0  0  0  0  0
   -1.3313   -1.7763    0.5558 C   0  0  0  0  0  0  0  0  0  0  0  0
   -0.3659   -2.5089    0.7017 O   0  0  0  0  0  0  0  0  0  0  0  0
   -1.1776   -0.4540    0.1841 N   0  0  0  0  0  0  0  0  0  0  0  0
   -2.0057    0.1200    0.3196 H   0  0  0  0  0  0  0  0  0  0  0  0
    0.1201    0.2411    0.2503 C   0  0  1  0  0  0  0  0  0  0  0  0
    0.9485   -0.4638    0.3890 H   0  0  0  0  0  0  0  0  0  0  0  0
    0.2959    0.9760   -1.0998 C   0  0  0  0  0  0  0  0  0  0  0  0
   -0.5824    1.5992   -1.2901 H   0  0  0  0  0  0  0  0  0  0  0  0
    1.1659    1.6337   -1.0600 H   0  0  0  0  0  0  0  0  0  0  0  0
    0.5120    0.0505   -2.2945 C   0  0  0  0  0  0  0  0  0  0  0  0
    1.0483   -1.0321   -2.1401 O   0  0  0  0  0  0  0  0  0  0  0  0
    0.1006    0.5115   -3.4979 O   0  0  0  0  0  0  0  0  0  0  0  0
    0.3076   -0.1924   -4.1323 H   0  0  0  0  0  0  0  0  0  0  0  0
    0.1598    1.2146    1.4573 C   0  0  0  0  0  0  0  0  0  0  0  0
   -0.6002    1.0503    2.4042 O   0  0  0  0  0  0  0  0  0  0  0  0
    0.9190    2.3727    1.4317 N   0  0  0  0  0  0  0  0  0  0  0  0
    1.5677    2.4923    0.6603 H   0  0  0  0  0  0  0  0  0  0  0  0
    0.9452    3.3380    2.5251 C   0  0  0  0  0  0  0  0  0  0  0  0
    1.2979    2.8640    3.4473 H   0  0  0  0  0  0  0  0  0  0  0  0
    1.6179    4.1664    2.2829 H   0  0  0  0  0  0  0  0  0  0  0  0
   -0.0557    3.7467    2.7001 H   0  0  0  0  0  0  0  0  0  0  0  0
  1  2  1  0  0  0  0
  2  3  1  0  0  0  0
  2  4  1  0  0  0  0
  2  5  1  0  0  0  0
  5  6  2  0  0  0  0
  5  7  1  0  0  0  0
  7  8  1  0  0  0  0
  7  9  1  0  0  0  0
  9 10  1  0  0  0  0
  9 11  1  0  0  0  0
  9 18  1  0  0  0  0
 11 12  1  0  0  0  0
 11 13  1  0  0  0  0
 11 14  1  0  0  0  0
 14 15  2  0  0  0  0
 14 16  1  0  0  0  0
 16 17  1  0  0  0  0
 18 19  2  0  0  0  0
 18 20  1  0  0  0  0
 20 21  1  0  0  0  0
 20 22  1  0  0  0  0
 22 23  1  0  0  0  0
 22 24  1  0  0  0  0
 22 25  1  0  0  0  0
M  END
$$$$

  -OEChem-01062216063D

 25 24  0     1  0  0  0  0  0999 V2000
   -2.6691   -3.3606    1.1322 H   0  0  0  0  0  0  0  0  0  0  0  0
   -2.7263   -2.3179    0.8077 C   0  0  0  0  0  0  0  0  0  0  0  0
   -3.2224   -1.7345    1.5871 H   0  0  0  0  0  0  0  0  0  0  0  0
   -3.3153   -2.2661   -0.1109 H   0  0  0  0  0  0  0  0  0  0  0  0
   -1.3329   -1.7708    0.5615 C   0  0  0  0  0  0  0  0  0  0  0  0
   -0.3674   -2.5052    0.6952 O   0  0  0  0  0  0  0  0  0  0  0  0
   -1.1822   -0.4477    0.1896 N   0  0  0  0  0  0  0  0  0  0  0  0
   -2.0158    0.1220    0.3028 H   0  0  0  0  0  0  0  0  0  0  0  0
    0.1147    0.2498    0.2467 C   0  0  1  0  0  0  0  0  0  0  0  0
    0.9431   -0.4544    0.3917 H   0  0  0  0  0  0  0  0  0  0  0  0
    0.2990    0.9724   -1.1085 C   0  0  0  0  0  0  0  0  0  0  0  0
   -0.5755    1.5976   -1.3097 H   0  0  0  0  0  0  0  0  0  0  0  0
    1.1749    1.6226   -1.0675 H   0  0  0  0  0  0  0  0  0  0  0  0
    0.5199    0.0374   -2.2947 C   0  0  0  0  0  0  0  0  0  0  0  0
    1.0531   -1.0450   -2.1306 O   0  0  0  0  0  0  0  0  0  0  0  0
    0.1155    0.4915   -3.5032 O   0  0  0  0  0  0  0  0  0  0  0  0
    0.3262   -0.2166   -4.1319 H   0  0  0  0  0  0  0  0  0  0  0  0
    0.1541    1.2210    1.4556 C   0  0  0  0  0  0  0  0  0  0  0  0
   -0.3879    0.9072    2.5074 O   0  0  0  0  0  0  0  0  0  0  0  0
    0.6422    2.5128    1.3428 N   0  0  0  0  0  0  0  0  0  0  0  0
    1.0842    2.7752    0.4680 H   0  0  0  0  0  0  0  0  0  0  0  0
    0.6408    3.4713    2.4426 C   0  0  0  0  0  0  0  0  0  0  0  0
    1.2224    3.0857    3.2867 H   0  0  0  0  0  0  0  0  0  0  0  0
    1.0848    4.4182    2.1207 H   0  0  0  0  0  0  0  0  0  0  0  0
   -0.3825    3.6675    2.7797 H   0  0  0  0  0  0  0  0  0  0  0  0
  1  2  1  0  0  0  0
  2  3  1  0  0  0  0
  2  4  1  0  0  0  0
  2  5  1  0  0  0  0
  5  6  2  0  0  0  0
  5  7  1  0  0  0  0
  7  8  1  0  0  0  0
  7  9  1  0  0  0  0
  9 10  1  0  0  0  0
  9 11  1  0  0  0  0
  9 18  1  0  0  0  0
 11 12  1  0  0  0  0
 11 13  1  0  0  0  0
 11 14  1  0  0  0  0
 14 15  2  0  0  0  0
 14 16  1  0  0  0  0
 16 17  1  0  0  0  0
 18 19  2  0  0  0  0
 18 20  1  0  0  0  0
 20 21  1  0  0  0  0
 20 22  1  0  0  0  0
 22 23  1  0  0  0  0
 22 24  1  0  0  0  0
 22 25  1  0  0  0  0
M  END
$$$$

  -OEChem-01062216063D

 25 24  0     1  0  0  0  0  0999 V2000
   -2.6717   -3.3678    1.1256 H   0  0  0  0  0  0  0  0  0  0  0  0
   -2.7297   -2.3238    0.8053 C   0  0  0  0  0  0  0  0  0  0  0  0
   -3.2340   -1.7457    1.5834 H   0  0  0  0  0  0  0  0  0  0  0  0
   -3.3115   -2.2701   -0.1178 H   0  0  0  0  0  0  0  0  0  0  0  0
   -1.3359   -1.7716    0.5726 C   0  0  0  0  0  0  0  0  0  0  0  0
   -0.3706   -2.5043    0.7128 O   0  0  0  0  0  0  0  0  0  0  0  0
   -1.1858   -0.4484    0.1992 N   0  0  0  0  0  0  0  0  0  0  0  0
   -2.0262    0.1170    0.2728 H   0  0  0  0  0  0  0  0  0  0  0  0
    0.1088    0.2533    0.2502 C   0  0  1  0  0  0  0  0  0  0  0  0
    0.9377   -0.4497    0.3993 H   0  0  0  0  0  0  0  0  0  0  0  0
    0.3021    0.9735   -1.1043 C   0  0  0  0  0  0  0  0  0  0  0  0
   -0.5715    1.5967   -1.3147 H   0  0  0  0  0  0  0  0  0  0  0  0
    1.1782    1.6244   -1.0513 H   0  0  0  0  0  0  0  0  0  0  0  0
    0.5306    0.0380   -2.2888 C   0  0  0  0  0  0  0  0  0  0  0  0
    1.0623   -1.0446   -2.1222 O   0  0  0  0  0  0  0  0  0  0  0  0
    0.1300    0.4912   -3.4988 O   0  0  0  0  0  0  0  0  0  0  0  0
    0.3453   -0.2166   -4.1265 H   0  0  0  0  0  0  0  0  0  0  0  0
    0.1464    1.2244    1.4568 C   0  0  0  0  0  0  0  0  0  0  0  0
   -0.1363    0.8167    2.5746 O   0  0  0  0  0  0  0  0  0  0  0  0
    0.3325    2.5877    1.2931 N   0  0  0  0  0  0  0  0  0  0  0  0
    0.5373    2.9269    0.3589 H   0  0  0  0  0  0  0  0  0  0  0  0
    0.3093    3.5402    2.3978 C   0  0  0  0  0  0  0  0  0  0  0  0
    1.0867    3.2969    3.1299 H   0  0  0  0  0  0  0  0  0  0  0  0
    0.4890    4.5540    2.0274 H   0  0  0  0  0  0  0  0  0  0  0  0
   -0.6642    3.5230    2.8992 H   0  0  0  0  0  0  0  0  0  0  0  0
  1  2  1  0  0  0  0
  2  3  1  0  0  0  0
  2  4  1  0  0  0  0
  2  5  1  0  0  0  0
  5  6  2  0  0  0  0
  5  7  1  0  0  0  0
  7  8  1  0  0  0  0
  7  9  1  0  0  0  0
  9 10  1  0  0  0  0
  9 11  1  0  0  0  0
  9 18  1  0  0  0  0
 11 12  1  0  0  0  0
 11 13  1  0  0  0  0
 11 14  1  0  0  0  0
 14 15  2  0  0  0  0
 14 16  1  0  0  0  0
 16 17  1  0  0  0  0
 18 19  2  0  0  0  0
 18 20  1  0  0  0  0
 20 21  1  0  0  0  0
 20 22  1  0  0  0  0
 22 23  1  0  0  0  0
 22 24  1  0  0  0  0
 22 25  1  0  0  0  0
M  END
$$$$

  -OEChem-01062216063D

 25 24  0     1  0  0  0  0  0999 V2000
   -2.6765   -3.3862    1.1046 H   0  0  0  0  0  0  0  0  0  0  0  0
   -2.7346   -2.3407    0.7888 C   0  0  0  0  0  0  0  0  0  0  0  0
   -3.2594   -1.7705    1.5591 H   0  0  0  0  0  0  0  0  0  0  0  0
   -3.2968   -2.2862   -0.1462 H   0  0  0  0  0  0  0  0  0  0  0  0
   -1.3399   -1.7784    0.5886 C   0  0  0  0  0  0  0  0  0  0  0  0
   -0.3733   -2.5031    0.7541 O   0  0  0  0  0  0  0  0  0  0  0  0
   -1.1913   -0.4553    0.2140 N   0  0  0  0  0  0  0  0  0  0  0  0
   -2.0390    0.1030    0.2407 H   0  0  0  0  0  0  0  0  0  0  0  0
    0.0987    0.2545    0.2620 C   0  0  1  0  0  0  0  0  0  0  0  0
    0.9303   -0.4454    0.4128 H   0  0  0  0  0  0  0  0  0  0  0  0
    0.2956    0.9777   -1.0897 C   0  0  0  0  0  0  0  0  0  0  0  0
   -0.5813    1.5936   -1.3067 H   0  0  0  0  0  0  0  0  0  0  0  0
    1.1653    1.6370   -1.0249 H   0  0  0  0  0  0  0  0  0  0  0  0
    0.5336    0.0458   -2.2754 C   0  0  0  0  0  0  0  0  0  0  0  0
    1.0688   -1.0351   -2.1094 O   0  0  0  0  0  0  0  0  0  0  0  0
    0.1377    0.5010   -3.4864 O   0  0  0  0  0  0  0  0  0  0  0  0
    0.3656   -0.2011   -4.1161 H   0  0  0  0  0  0  0  0  0  0  0  0
    0.1360    1.2280    1.4637 C   0  0  0  0  0  0  0  0  0  0  0  0
    0.1445    0.7898    2.6044 O   0  0  0  0  0  0  0  0  0  0  0  0
    0.0068    2.5967    1.2913 N   0  0  0  0  0  0  0  0  0  0  0  0
   -0.0116    2.9525    0.3410 H   0  0  0  0  0  0  0  0  0  0  0  0
   -0.0213    3.5451    2.3993 C   0  0  0  0  0  0  0  0  0  0  0  0
    0.9074    3.4869    2.9767 H   0  0  0  0  0  0  0  0  0  0  0  0
   -0.1303    4.5662    2.0215 H   0  0  0  0  0  0  0  0  0  0  0  0
   -0.8637    3.3315    3.0659 H   0  0  0  0  0  0  0  0  0  0  0  0
  1  2  1  0  0  0  0
  2  3  1  0  0  0  0
  2  4  1  0  0  0  0
  2  5  1  0  0  0  0
  5  6  2  0  0  0  0
  5  7  1  0  0  0  0
  7  8  1  0  0  0  0
  7  9  1  0  0  0  0
  9 10  1  0  0  0  0
  9 11  1  0  0  0  0
  9 18  1  0  0  0  0
 11 12  1  0  0  0  0
 11 13  1  0  0  0  0
 11 14  1  0  0  0  0
 14 15  2  0  0  0  0
 14 16  1  0  0  0  0
 16 17  1  0  0  0  0
 18 19  2  0  0  0  0
 18 20  1  0  0  0  0
 20 21  1  0  0  0  0
 20 22  1  0  0  0  0
 22 23  1  0  0  0  0
 22 24  1  0  0  0  0
 22 25  1  0  0  0  0
M  END
$$$$

  -OEChem-01062216063D

 25 24  0     1  0  0  0  0  0999 V2000
   -2.6799   -3.4213    1.0633 H   0  0  0  0  0  0  0  0  0  0  0  0
   -2.7398   -2.3773    0.7426 C   0  0  0  0  0  0  0  0  0  0  0  0
   -3.3122   -1.8154    1.4844 H   0  0  0  0  0  0  0  0  0  0  0  0
   -3.2558   -2.3340   -0.2193 H   0  0  0  0  0  0  0  0  0  0  0  0
   -1.3460   -1.7921    0.6112 C   0  0  0  0  0  0  0  0  0  0  0  0
   -0.3780   -2.4994    0.8309 O   0  0  0  0  0  0  0  0  0  0  0  0
   -1.1993   -0.4685    0.2373 N   0  0  0  0  0  0  0  0  0  0  0  0
   -2.0547    0.0760    0.1906 H   0  0  0  0  0  0  0  0  0  0  0  0
    0.0843    0.2535    0.2856 C   0  0  1  0  0  0  0  0  0  0  0  0
    0.9204   -0.4420    0.4344 H   0  0  0  0  0  0  0  0  0  0  0  0
    0.2803    0.9847   -1.0609 C   0  0  0  0  0  0  0  0  0  0  0  0
   -0.5999    1.5943   -1.2808 H   0  0  0  0  0  0  0  0  0  0  0  0
    1.1424    1.6532   -0.9851 H   0  0  0  0  0  0  0  0  0  0  0  0
    0.5293    0.0601   -2.2500 C   0  0  0  0  0  0  0  0  0  0  0  0
    1.0719   -1.0177   -2.0873 O   0  0  0  0  0  0  0  0  0  0  0  0
    0.1253    0.5140   -3.4589 O   0  0  0  0  0  0  0  0  0  0  0  0
    0.3611   -0.1833   -4.0909 H   0  0  0  0  0  0  0  0  0  0  0  0
    0.1216    1.2308    1.4820 C   0  0  0  0  0  0  0  0  0  0  0  0
    0.4646    0.8409    2.5873 O   0  0  0  0  0  0  0  0  0  0  0  0
   -0.3164    2.5385    1.3502 N   0  0  0  0  0  0  0  0  0  0  0  0
   -0.5874    2.8538    0.4247 H   0  0  0  0  0  0  0  0  0  0  0  0
   -0.3151    3.4966    2.4500 C   0  0  0  0  0  0  0  0  0  0  0  0
    0.7009    3.6375    2.8340 H   0  0  0  0  0  0  0  0  0  0  0  0
   -0.6936    4.4653    2.1097 H   0  0  0  0  0  0  0  0  0  0  0  0
   -0.9541    3.1440    3.2666 H   0  0  0  0  0  0  0  0  0  0  0  0
  1  2  1  0  0  0  0
  2  3  1  0  0  0  0
  2  4  1  0  0  0  0
  2  5  1  0  0  0  0
  5  6  2  0  0  0  0
  5  7  1  0  0  0  0
  7  8  1  0  0  0  0
  7  9  1  0  0  0  0
  9 10  1  0  0  0  0
  9 11  1  0  0  0  0
  9 18  1  0  0  0  0
 11 12  1  0  0  0  0
 11 13  1  0  0  0  0
 11 14  1  0  0  0  0
 14 15  2  0  0  0  0
 14 16  1  0  0  0  0
 16 17  1  0  0  0  0
 18 19  2  0  0  0  0
 18 20  1  0  0  0  0
 20 21  1  0  0  0  0
 20 22  1  0  0  0  0
 22 23  1  0  0  0  0
 22 24  1  0  0  0  0
 22 25  1  0  0  0  0
M  END
$$$$

  -OEChem-01062216063D

 25 24  0     1  0  0  0  0  0999 V2000
   -2.6846   -3.4690    0.9884 H   0  0  0  0  0  0  0  0  0  0  0  0
   -2.7429   -2.4216    0.6787 C   0  0  0  0  0  0  0  0  0  0  0  0
   -3.3753   -1.8808    1.3868 H   0  0  0  0  0  0  0  0  0  0  0  0
   -3.1930   -2.3736   -0.3155 H   0  0  0  0  0  0  0  0  0  0  0  0
   -1.3551   -1.8088    0.6498 C   0  0  0  0  0  0  0  0  0  0  0  0
   -0.3940   -2.4883    0.9644 O   0  0  0  0  0  0  0  0  0  0  0  0
   -1.2060   -0.4862    0.2739 N   0  0  0  0  0  0  0  0  0  0  0  0
   -2.0610    0.0346    0.1080 H   0  0  0  0  0  0  0  0  0  0  0  0
    0.0741    0.2438    0.3166 C   0  0  1  0  0  0  0  0  0  0  0  0
    0.9140   -0.4495    0.4563 H   0  0  0  0  0  0  0  0  0  0  0  0
    0.2615    0.9881   -1.0226 C   0  0  0  0  0  0  0  0  0  0  0  0
   -0.6191    1.5999   -1.2328 H   0  0  0  0  0  0  0  0  0  0  0  0
    1.1215    1.6591   -0.9420 H   0  0  0  0  0  0  0  0  0  0  0  0
    0.5091    0.0754   -2.2208 C   0  0  0  0  0  0  0  0  0  0  0  0
    1.0563   -1.0020   -2.0701 O   0  0  0  0  0  0  0  0  0  0  0  0
    0.0931    0.5360   -3.4229 O   0  0  0  0  0  0  0  0  0  0  0  0
    0.3367   -0.1504   -4.0638 H   0  0  0  0  0  0  0  0  0  0  0  0
    0.1183    1.2267    1.5062 C   0  0  0  0  0  0  0  0  0  0  0  0
    0.7862    0.9744    2.4970 O   0  0  0  0  0  0  0  0  0  0  0  0
   -0.5944    2.4139    1.4686 N   0  0  0  0  0  0  0  0  0  0  0  0
   -1.1071    2.6299    0.6205 H   0  0  0  0  0  0  0  0  0  0  0  0
   -0.5677    3.3948    2.5476 C   0  0  0  0  0  0  0  0  0  0  0  0
    0.4545    3.7490    2.7182 H   0  0  0  0  0  0  0  0  0  0  0  0
   -1.1937    4.2554    2.2936 H   0  0  0  0  0  0  0  0  0  0  0  0
   -0.9465    2.9534    3.4755 H   0  0  0  0  0  0  0  0  0  0  0  0
  1  2  1  0  0  0  0
  2  3  1  0  0  0  0
  2  4  1  0  0  0  0
  2  5  1  0  0  0  0
  5  6  2  0  0  0  0
  5  7  1  0  0  0  0
  7  8  1  0  0  0  0
  7  9  1  0  0  0  0
  9 10  1  0  0  0  0
  9 11  1  0  0  0  0
  9 18  1  0  0  0  0
 11 12  1  0  0  0  0
 11 13  1  0  0  0  0
 11 14  1  0  0  0  0
 14 15  2  0  0  0  0
 14 16  1  0  0  0  0
 16 17  1  0  0  0  0
 18 19  2  0  0  0  0
 18 20  1  0  0  0  0
 20 21  1  0  0  0  0
 20 22  1  0  0  0  0
 22 23  1  0  0  0  0
 22 24  1  0  0  0  0
 22 25  1  0  0  0  0
M  END
$$$$

  -OEChem-01062216063D

 25 24  0     1  0  0  0  0  0999 V2000
   -2.6516   -3.5400    0.8386 H   0  0  0  0  0  0  0  0  0  0  0  0
   -2.7218   -2.4899    0.5405 C   0  0  0  0  0  0  0  0  0  0  0  0
   -3.4828   -2.0001    1.1527 H   0  0  0  0  0  0  0  0  0  0  0  0
   -3.0194   -2.4432   -0.5096 H   0  0  0  0  0  0  0  0  0  0  0  0
   -1.3823   -1.8036    0.7324 C   0  0  0  0  0  0  0  0  0  0  0  0
   -0.4609   -2.4162    1.2419 O   0  0  0  0  0  0  0  0  0  0  0  0
   -1.2315   -0.4852    0.3441 N   0  0  0  0  0  0  0  0  0  0  0  0
   -2.0273   -0.0545   -0.1145 H   0  0  0  0  0  0  0  0  0  0  0  0
    0.0544    0.2366    0.3674 C   0  0  1  0  0  0  0  0  0  0  0  0
    0.8896   -0.4650    0.4940 H   0  0  0  0  0  0  0  0  0  0  0  0
    0.2271    0.9843   -0.9702 C   0  0  0  0  0  0  0  0  0  0  0  0
   -0.6471    1.6114   -1.1610 H   0  0  0  0  0  0  0  0  0  0  0  0
    1.0961    1.6448   -0.8983 H   0  0  0  0  0  0  0  0  0  0  0  0
    0.4488    0.0729   -2.1741 C   0  0  0  0  0  0  0  0  0  0  0  0
    0.9891   -1.0096   -2.0335 O   0  0  0  0  0  0  0  0  0  0  0  0
    0.0070    0.5339   -3.3668 O   0  0  0  0  0  0  0  0  0  0  0  0
    0.2426   -0.1479   -4.0155 H   0  0  0  0  0  0  0  0  0  0  0  0
    0.1345    1.2315    1.5442 C   0  0  0  0  0  0  0  0  0  0  0  0
    1.0867    1.2088    2.3095 O   0  0  0  0  0  0  0  0  0  0  0  0
   -0.7840    2.2620    1.6544 N   0  0  0  0  0  0  0  0  0  0  0  0
   -1.5643    2.2656    1.0074 H   0  0  0  0  0  0  0  0  0  0  0  0
   -0.7279    3.2754    2.7016 C   0  0  0  0  0  0  0  0  0  0  0  0
    0.2177    3.8257    2.6521 H   0  0  0  0  0  0  0  0  0  0  0  0
   -1.5486    3.9894    2.5828 H   0  0  0  0  0  0  0  0  0  0  0  0
   -0.8130    2.8104    3.6895 H   0  0  0  0  0  0  0  0  0  0  0  0
  1  2  1  0  0  0  0
  2  3  1  0  0  0  0
  2  4  1  0  0  0  0
  2  5  1  0  0  0  0
  5  6  2  0  0  0  0
  5  7  1  0  0  0  0
  7  8  1  0  0  0  0
  7  9  1  0  0  0  0
  9 10  1  0  0  0  0
  9 11  1  0  0  0  0
  9 18  1  0  0  0  0
 11 12  1  0  0  0  0
 11 13  1  0  0  0  0
 11 14  1  0  0  0  0
 14 15  2  0  0  0  0
 14 16  1  0  0  0  0
 16 17  1  0  0  0  0
 18 19  2  0  0  0  0
 18 20  1  0  0  0  0
 20 21  1  0  0  0  0
 20 22  1  0  0  0  0
 22 23  1  0  0  0  0
 22 24  1  0  0  0  0
 22 25  1  0  0  0  0
M  END
$$$$

  -OEChem-01062216063D

 25 24  0     1  0  0  0  0  0999 V2000
   -2.6461   -3.5524    0.8357 H   0  0  0  0  0  0  0  0  0  0  0  0
   -2.6951   -2.5295    0.4514 C   0  0  0  0  0  0  0  0  0  0  0  0
   -3.5440   -2.0203    0.9138 H   0  0  0  0  0  0  0  0  0  0  0  0
   -2.8446   -2.5680   -0.6302 H   0  0  0  0  0  0  0  0  0  0  0  0
   -1.4085   -1.7912    0.7702 C   0  0  0  0  0  0  0  0  0  0  0  0
   -0.5278   -2.3557    1.3949 O   0  0  0  0  0  0  0  0  0  0  0  0
   -1.2606   -0.4751    0.3735 N   0  0  0  0  0  0  0  0  0  0  0  0
   -1.9951   -0.1091   -0.2240 H   0  0  0  0  0  0  0  0  0  0  0  0
    0.0359    0.2294    0.3909 C   0  0  1  0  0  0  0  0  0  0  0  0
    0.8628   -0.4831    0.5103 H   0  0  0  0  0  0  0  0  0  0  0  0
    0.2081    0.9814   -0.9436 C   0  0  0  0  0  0  0  0  0  0  0  0
   -0.6588    1.6235   -1.1203 H   0  0  0  0  0  0  0  0  0  0  0  0
    1.0872    1.6293   -0.8757 H   0  0  0  0  0  0  0  0  0  0  0  0
    0.4076    0.0726   -2.1531 C   0  0  0  0  0  0  0  0  0  0  0  0
    0.9342   -1.0179   -2.0196 O   0  0  0  0  0  0  0  0  0  0  0  0
   -0.0403    0.5410   -3.3405 O   0  0  0  0  0  0  0  0  0  0  0  0
    0.1872   -0.1378   -3.9952 H   0  0  0  0  0  0  0  0  0  0  0  0
    0.1450    1.2281    1.5606 C   0  0  0  0  0  0  0  0  0  0  0  0
    1.2262    1.4247    2.0959 O   0  0  0  0  0  0  0  0  0  0  0  0
   -0.9094    2.0747    1.8552 N   0  0  0  0  0  0  0  0  0  0  0  0
   -1.8080    1.8458    1.4450 H   0  0  0  0  0  0  0  0  0  0  0  0
   -0.8494    3.0850    2.9049 C   0  0  0  0  0  0  0  0  0  0  0  0
   -0.0501    3.8048    2.6989 H   0  0  0  0  0  0  0  0  0  0  0  0
   -1.7966    3.6298    2.9611 H   0  0  0  0  0  0  0  0  0  0  0  0
   -0.6595    2.6169    3.8767 H   0  0  0  0  0  0  0  0  0  0  0  0
  1  2  1  0  0  0  0
  2  3  1  0  0  0  0
  2  4  1  0  0  0  0
  2  5  1  0  0  0  0
  5  6  2  0  0  0  0
  5  7  1  0  0  0  0
  7  8  1  0  0  0  0
  7  9  1  0  0  0  0
  9 10  1  0  0  0  0
  9 11  1  0  0  0  0
  9 18  1  0  0  0  0
 11 12  1  0  0  0  0
 11 13  1  0  0  0  0
 11 14  1  0  0  0  0
 14 15  2  0  0  0  0
 14 16  1  0  0  0  0
 16 17  1  0  0  0  0
 18 19  2  0  0  0  0
 18 20  1  0  0  0  0
 20 21  1  0  0  0  0
 20 22  1  0  0  0  0
 22 23  1  0  0  0  0
 22 24  1  0  0  0  0
 22 25  1  0  0  0  0
M  END
$$$$

  -OEChem-01062216063D

 25 24  0     1  0  0  0  0  0999 V2000
   -2.6289   -3.5651    0.7891 H   0  0  0  0  0  0  0  0  0  0  0  0
   -2.6837   -2.5401    0.4115 C   0  0  0  0  0  0  0  0  0  0  0  0
   -3.5536   -2.0487    0.8534 H   0  0  0  0  0  0  0  0  0  0  0  0
   -2.8018   -2.5726   -0.6743 H   0  0  0  0  0  0  0  0  0  0  0  0
   -1.4183   -1.7848    0.7724 C   0  0  0  0  0  0  0  0  0  0  0  0
   -0.5562   -2.3315    1.4378 O   0  0  0  0  0  0  0  0  0  0  0  0
   -1.2689   -0.4694    0.3750 N   0  0  0  0  0  0  0  0  0  0  0  0
   -1.9842   -0.1151   -0.2529 H   0  0  0  0  0  0  0  0  0  0  0  0
    0.0326    0.2272    0.3959 C   0  0  1  0  0  0  0  0  0  0  0  0
    0.8561   -0.4890    0.5143 H   0  0  0  0  0  0  0  0  0  0  0  0
    0.2029    0.9779   -0.9400 C   0  0  0  0  0  0  0  0  0  0  0  0
   -0.6615    1.6245   -1.1121 H   0  0  0  0  0  0  0  0  0  0  0  0
    1.0851    1.6219   -0.8774 H   0  0  0  0  0  0  0  0  0  0  0  0
    0.3944    0.0667   -2.1489 C   0  0  0  0  0  0  0  0  0  0  0  0
    0.9173   -1.0257   -2.0142 O   0  0  0  0  0  0  0  0  0  0  0  0
   -0.0579    0.5325   -3.3357 O   0  0  0  0  0  0  0  0  0  0  0  0
    0.1660   -0.1482   -3.9895 H   0  0  0  0  0  0  0  0  0  0  0  0
    0.1523    1.2268    1.5642 C   0  0  0  0  0  0  0  0  0  0  0  0
    1.2558    1.6141    1.9215 O   0  0  0  0  0  0  0  0  0  0  0  0
   -0.9727    1.8600    2.0610 N   0  0  0  0  0  0  0  0  0  0  0  0
   -1.8668    1.4502    1.8121 H   0  0  0  0  0  0  0  0  0  0  0  0
   -0.9216    2.8402    3.1391 C   0  0  0  0  0  0  0  0  0  0  0  0
   -0.2965    3.6927    2.8526 H   0  0  0  0  0  0  0  0  0  0  0  0
   -1.9267    3.2103    3.3625 H   0  0  0  0  0  0  0  0  0  0  0  0
   -0.5069    2.3896    4.0471 H   0  0  0  0  0  0  0  0  0  0  0  0
  1  2  1  0  0  0  0
  2  3  1  0  0  0  0
  2  4  1  0  0  0  0
  2  5  1  0  0  0  0
  5  6  2  0  0  0  0
  5  7  1  0  0  0  0
  7  8  1  0  0  0  0
  7  9  1  0  0  0  0
  9 10  1  0  0  0  0
  9 11  1  0  0  0  0
  9 18  1  0  0  0  0
 11 12  1  0  0  0  0
 11 13  1  0  0  0  0
 11 14  1  0  0  0  0
 14 15  2  0  0  0  0
 14 16  1  0  0  0  0
 16 17  1  0  0  0  0
 18 19  2  0  0  0  0
 18 20  1  0  0  0  0
 20 21  1  0  0  0  0
 20 22  1  0  0  0  0
 22 23  1  0  0  0  0
 22 24  1  0  0  0  0
 22 25  1  0  0  0  0
M  END
$$$$

  -OEChem-01062216063D

 25 24  0     1  0  0  0  0  0999 V2000
   -2.6301   -3.5579    0.7736 H   0  0  0  0  0  0  0  0  0  0  0  0
   -2.6813   -2.5332    0.3943 C   0  0  0  0  0  0  0  0  0  0  0  0
   -3.5532   -2.0398    0.8299 H   0  0  0  0  0  0  0  0  0  0  0  0
   -2.7922   -2.5672   -0.6923 H   0  0  0  0  0  0  0  0  0  0  0  0
   -1.4182   -1.7781    0.7624 C   0  0  0  0  0  0  0  0  0  0  0  0
   -0.5647   -2.3186    1.4437 O   0  0  0  0  0  0  0  0  0  0  0  0
   -1.2654   -0.4625    0.3679 N   0  0  0  0  0  0  0  0  0  0  0  0
   -1.9799   -0.1016   -0.2576 H   0  0  0  0  0  0  0  0  0  0  0  0
    0.0377    0.2322    0.3921 C   0  0  1  0  0  0  0  0  0  0  0  0
    0.8608   -0.4842    0.5107 H   0  0  0  0  0  0  0  0  0  0  0  0
    0.2030    0.9771   -0.9490 C   0  0  0  0  0  0  0  0  0  0  0  0
   -0.6636    1.6211   -1.1211 H   0  0  0  0  0  0  0  0  0  0  0  0
    1.0838    1.6241   -0.8957 H   0  0  0  0  0  0  0  0  0  0  0  0
    0.3920    0.0595   -2.1533 C   0  0  0  0  0  0  0  0  0  0  0  0
    0.9168   -1.0318   -2.0141 O   0  0  0  0  0  0  0  0  0  0  0  0
   -0.0665    0.5176   -3.3408 O   0  0  0  0  0  0  0  0  0  0  0  0
    0.1531   -0.1670   -3.9918 H   0  0  0  0  0  0  0  0  0  0  0  0
    0.1587    1.2307    1.5632 C   0  0  0  0  0  0  0  0  0  0  0  0
    1.2239    1.7926    1.7781 O   0  0  0  0  0  0  0  0  0  0  0  0
   -0.9647    1.6310    2.2635 N   0  0  0  0  0  0  0  0  0  0  0  0
   -1.7966    1.0644    2.1326 H   0  0  0  0  0  0  0  0  0  0  0  0
   -0.9144    2.5629    3.3835 C   0  0  0  0  0  0  0  0  0  0  0  0
   -0.4937    3.5225    3.0650 H   0  0  0  0  0  0  0  0  0  0  0  0
   -1.9211    2.7414    3.7734 H   0  0  0  0  0  0  0  0  0  0  0  0
   -0.2950    2.1580    4.1909 H   0  0  0  0  0  0  0  0  0  0  0  0
  1  2  1  0  0  0  0
  2  3  1  0  0  0  0
  2  4  1  0  0  0  0
  2  5  1  0  0  0  0
  5  6  2  0  0  0  0
  5  7  1  0  0  0  0
  7  8  1  0  0  0  0
  7  9  1  0  0  0  0
  9 10  1  0  0  0  0
  9 11  1  0  0  0  0
  9 18  1  0  0  0  0
 11 12  1  0  0  0  0
 11 13  1  0  0  0  0
 11 14  1  0  0  0  0
 14 15  2  0  0  0  0
 14 16  1  0  0  0  0
 16 17  1  0  0  0  0
 18 19  2  0  0  0  0
 18 20  1  0  0  0  0
 20 21  1  0  0  0  0
 20 22  1  0  0  0  0
 22 23  1  0  0  0  0
 22 24  1  0  0  0  0
 22 25  1  0  0  0  0
M  END
$$$$

  -OEChem-01062216063D

 25 24  0     1  0  0  0  0  0999 V2000
   -2.6274   -3.5498    0.7512 H   0  0  0  0  0  0  0  0  0  0  0  0
   -2.6778   -2.5246    0.3733 C   0  0  0  0  0  0  0  0  0  0  0  0
   -3.5569   -2.0353    0.7991 H   0  0  0  0  0  0  0  0  0  0  0  0
   -2.7754   -2.5571   -0.7146 H   0  0  0  0  0  0  0  0  0  0  0  0
   -1.4218   -1.7656    0.7571 C   0  0  0  0  0  0  0  0  0  0  0  0
   -0.5791   -2.2980    1.4581 O   0  0  0  0  0  0  0  0  0  0  0  0
   -1.2659   -0.4500    0.3658 N   0  0  0  0  0  0  0  0  0  0  0  0
   -1.9818   -0.0819   -0.2542 H   0  0  0  0  0  0  0  0  0  0  0  0
    0.0386    0.2421    0.3896 C   0  0  1  0  0  0  0  0  0  0  0  0
    0.8601   -0.4755    0.5089 H   0  0  0  0  0  0  0  0  0  0  0  0
    0.1989    0.9768   -0.9595 C   0  0  0  0  0  0  0  0  0  0  0  0
   -0.6675    1.6204   -1.1328 H   0  0  0  0  0  0  0  0  0  0  0  0
    1.0804    1.6233   -0.9181 H   0  0  0  0  0  0  0  0  0  0  0  0
    0.3844    0.0498   -2.1572 C   0  0  0  0  0  0  0  0  0  0  0  0
    0.9106   -1.0399   -2.0103 O   0  0  0  0  0  0  0  0  0  0  0  0
   -0.0753    0.4988   -3.3478 O   0  0  0  0  0  0  0  0  0  0  0  0
    0.1472   -0.1883   -3.9950 H   0  0  0  0  0  0  0  0  0  0  0  0
    0.1606    1.2383    1.5653 C   0  0  0  0  0  0  0  0  0  0  0  0
    1.1396    1.9666    1.6568 O   0  0  0  0  0  0  0  0  0  0  0  0
   -0.8831    1.4051    2.4571 N   0  0  0  0  0  0  0  0  0  0  0  0
   -1.6104    0.6969    2.4246 H   0  0  0  0  0  0  0  0  0  0  0  0
   -0.8089    2.2881    3.6147 C   0  0  0  0  0  0  0  0  0  0  0  0
   -0.6111    3.3181    3.2995 H   0  0  0  0  0  0  0  0  0  0  0  0
   -1.7550    2.2726    4.1641 H   0  0  0  0  0  0  0  0  0  0  0  0
   -0.0087    1.9670    4.2898 H   0  0  0  0  0  0  0  0  0  0  0  0
  1  2  1  0  0  0  0
  2  3  1  0  0  0  0
  2  4  1  0  0  0  0
  2  5  1  0  0  0  0
  5  6  2  0  0  0  0
  5  7  1  0  0  0  0
  7  8  1  0  0  0  0
  7  9  1  0  0  0  0
  9 10  1  0  0  0  0
  9 11  1  0  0  0  0
  9 18  1  0  0  0  0
 11 12  1  0  0  0  0
 11 13  1  0  0  0  0
 11 14  1  0  0  0  0
 14 15  2  0  0  0  0
 14 16  1  0  0  0  0
 16 17  1  0  0  0  0
 18 19  2  0  0  0  0
 18 20  1  0  0  0  0
 20 21  1  0  0  0  0
 20 22  1  0  0  0  0
 22 23  1  0  0  0  0
 22 24  1  0  0  0  0
 22 25  1  0  0  0  0
M  END
$$$$

  -OEChem-01062216063D

 25 24  0     1  0  0  0  0  0999 V2000
   -2.6435   -3.5240    0.7640 H   0  0  0  0  0  0  0  0  0  0  0  0
   -2.6801   -2.5056    0.3669 C   0  0  0  0  0  0  0  0  0  0  0  0
   -3.5587   -1.9998    0.7741 H   0  0  0  0  0  0  0  0  0  0  0  0
   -2.7674   -2.5569   -0.7210 H   0  0  0  0  0  0  0  0  0  0  0  0
   -1.4208   -1.7511    0.7497 C   0  0  0  0  0  0  0  0  0  0  0  0
   -0.5839   -2.2789    1.4618 O   0  0  0  0  0  0  0  0  0  0  0  0
   -1.2612   -0.4347    0.3645 N   0  0  0  0  0  0  0  0  0  0  0  0
   -1.9860   -0.0528   -0.2367 H   0  0  0  0  0  0  0  0  0  0  0  0
    0.0437    0.2560    0.3850 C   0  0  1  0  0  0  0  0  0  0  0  0
    0.8645   -0.4622    0.5035 H   0  0  0  0  0  0  0  0  0  0  0  0
    0.1995    0.9814   -0.9705 C   0  0  0  0  0  0  0  0  0  0  0  0
   -0.6677    1.6235   -1.1452 H   0  0  0  0  0  0  0  0  0  0  0  0
    1.0810    1.6283   -0.9403 H   0  0  0  0  0  0  0  0  0  0  0  0
    0.3815    0.0443   -2.1606 C   0  0  0  0  0  0  0  0  0  0  0  0
    0.9086   -1.0440   -2.0054 O   0  0  0  0  0  0  0  0  0  0  0  0
   -0.0829    0.4819   -3.3535 O   0  0  0  0  0  0  0  0  0  0  0  0
    0.1362   -0.2118   -3.9947 H   0  0  0  0  0  0  0  0  0  0  0  0
    0.1638    1.2452    1.5687 C   0  0  0  0  0  0  0  0  0  0  0  0
    1.0034    2.1360    1.5580 O   0  0  0  0  0  0  0  0  0  0  0  0
   -0.7294    1.1824    2.6220 N   0  0  0  0  0  0  0  0  0  0  0  0
   -1.3049    0.3456    2.6626 H   0  0  0  0  0  0  0  0  0  0  0  0
   -0.6251    2.0247    3.8072 C   0  0  0  0  0  0  0  0  0  0  0  0
   -0.6640    3.0835    3.5302 H   0  0  0  0  0  0  0  0  0  0  0  0
   -1.4526    1.8180    4.4925 H   0  0  0  0  0  0  0  0  0  0  0  0
    0.3170    1.8324    4.3311 H   0  0  0  0  0  0  0  0  0  0  0  0
  1  2  1  0  0  0  0
  2  3  1  0  0  0  0
  2  4  1  0  0  0  0
  2  5  1  0  0  0  0
  5  6  2  0  0  0  0
  5  7  1  0  0  0  0
  7  8  1  0  0  0  0
  7  9  1  0  0  0  0
  9 10  1  0  0  0  0
  9 11  1  0  0  0  0
  9 18  1  0  0  0  0
 11 12  1  0  0  0  0
 11 13  1  0  0  0  0
 11 14  1  0  0  0  0
 14 15  2  0  0  0  0
 14 16  1  0  0  0  0
 16 17  1  0  0  0  0
 18 19  2  0  0  0  0
 18 20  1  0  0  0  0
 20 21  1  0  0  0  0
 20 22  1  0  0  0  0
 22 23  1  0  0  0  0
 22 24  1  0  0  0  0
 22 25  1  0  0  0  0
M  END
$$$$

  -OEChem-01062216063D

 25 24  0     1  0  0  0  0  0999 V2000
   -2.6476   -3.4982    0.7756 H   0  0  0  0  0  0  0  0  0  0  0  0
   -2.6847   -2.4783    0.3823 C   0  0  0  0  0  0  0  0  0  0  0  0
   -3.5582   -1.9713    0.7991 H   0  0  0  0  0  0  0  0  0  0  0  0
   -2.7817   -2.5254   -0.7050 H   0  0  0  0  0  0  0  0  0  0  0  0
   -1.4200   -1.7287    0.7560 C   0  0  0  0  0  0  0  0  0  0  0  0
   -0.5872   -2.2509    1.4779 O   0  0  0  0  0  0  0  0  0  0  0  0
   -1.2548   -0.4134    0.3726 N   0  0  0  0  0  0  0  0  0  0  0  0
   -1.9883   -0.0186   -0.2095 H   0  0  0  0  0  0  0  0  0  0  0  0
    0.0546    0.2674    0.3779 C   0  0  1  0  0  0  0  0  0  0  0  0
    0.8713   -0.4559    0.4925 H   0  0  0  0  0  0  0  0  0  0  0  0
    0.2112    0.9855   -0.9822 C   0  0  0  0  0  0  0  0  0  0  0  0
   -0.6500    1.6362   -1.1561 H   0  0  0  0  0  0  0  0  0  0  0  0
    1.0997    1.6229   -0.9587 H   0  0  0  0  0  0  0  0  0  0  0  0
    0.3794    0.0405   -2.1681 C   0  0  0  0  0  0  0  0  0  0  0  0
    0.8975   -1.0517   -2.0077 O   0  0  0  0  0  0  0  0  0  0  0  0
   -0.0828    0.4754   -3.3630 O   0  0  0  0  0  0  0  0  0  0  0  0
    0.1266   -0.2246   -4.0004 H   0  0  0  0  0  0  0  0  0  0  0  0
    0.1753    1.2460    1.5704 C   0  0  0  0  0  0  0  0  0  0  0  0
    0.8137    2.2870    1.4806 O   0  0  0  0  0  0  0  0  0  0  0  0
   -0.5025    0.9752    2.7443 N   0  0  0  0  0  0  0  0  0  0  0  0
   -0.8904    0.0372    2.8235 H   0  0  0  0  0  0  0  0  0  0  0  0
   -0.3848    1.7943    3.9442 C   0  0  0  0  0  0  0  0  0  0  0  0
   -0.6785    2.8282    3.7334 H   0  0  0  0  0  0  0  0  0  0  0  0
   -1.0364    1.4059    4.7328 H   0  0  0  0  0  0  0  0  0  0  0  0
    0.6470    1.7894    4.3112 H   0  0  0  0  0  0  0  0  0  0  0  0
  1  2  1  0  0  0  0
  2  3  1  0  0  0  0
  2  4  1  0  0  0  0
  2  5  1  0  0  0  0
  5  6  2  0  0  0  0
  5  7  1  0  0  0  0
  7  8  1  0  0  0  0
  7  9  1  0  0  0  0
  9 10  1  0  0  0  0
  9 11  1  0  0  0  0
  9 18  1  0  0  0  0
 11 12  1  0  0  0  0
 11 13  1  0  0  0  0
 11 14  1  0  0  0  0
 14 15  2  0  0  0  0
 14 16  1  0  0  0  0
 16 17  1  0  0  0  0
 18 19  2  0  0  0  0
 18 20  1  0  0  0  0
 20 21  1  0  0  0  0
 20 22  1  0  0  0  0
 22 23  1  0  0  0  0
 22 24  1  0  0  0  0
 22 25  1  0  0  0  0
M  END
$$$$

  -OEChem-01062216063D

 25 24  0     1  0  0  0  0  0999 V2000
   -2.6486   -3.4710    0.8128 H   0  0  0  0  0  0  0  0  0  0  0  0
   -2.6859   -2.4520    0.4174 C   0  0  0  0  0  0  0  0  0  0  0  0
   -3.5499   -1.9382    0.8456 H   0  0  0  0  0  0  0  0  0  0  0  0
   -2.7996   -2.5013   -0.6683 H   0  0  0  0  0  0  0  0  0  0  0  0
   -1.4114   -1.7091    0.7699 C   0  0  0  0  0  0  0  0  0  0  0  0
   -0.5730   -2.2306    1.4875 O   0  0  0  0  0  0  0  0  0  0  0  0
   -1.2419   -0.3965    0.3801 N   0  0  0  0  0  0  0  0  0  0  0  0
   -1.9833    0.0085   -0.1847 H   0  0  0  0  0  0  0  0  0  0  0  0
    0.0716    0.2728    0.3705 C   0  0  1  0  0  0  0  0  0  0  0  0
    0.8857   -0.4536    0.4816 H   0  0  0  0  0  0  0  0  0  0  0  0
    0.2276    0.9879   -0.9909 C   0  0  0  0  0  0  0  0  0  0  0  0
   -0.6294    1.6453   -1.1608 H   0  0  0  0  0  0  0  0  0  0  0  0
    1.1209    1.6190   -0.9698 H   0  0  0  0  0  0  0  0  0  0  0  0
    0.3796    0.0407   -2.1769 C   0  0  0  0  0  0  0  0  0  0  0  0
    0.8878   -1.0564   -2.0179 O   0  0  0  0  0  0  0  0  0  0  0  0
   -0.0829    0.4795   -3.3702 O   0  0  0  0  0  0  0  0  0  0  0  0
    0.1151   -0.2234   -4.0080 H   0  0  0  0  0  0  0  0  0  0  0  0
    0.1897    1.2463    1.5649 C   0  0  0  0  0  0  0  0  0  0  0  0
    0.6019    2.3917    1.4304 O   0  0  0  0  0  0  0  0  0  0  0  0
   -0.2241    0.8186    2.8120 N   0  0  0  0  0  0  0  0  0  0  0  0
   -0.4641   -0.1693    2.8902 H   0  0  0  0  0  0  0  0  0  0  0  0
   -0.0984    1.6194    4.0226 C   0  0  0  0  0  0  0  0  0  0  0  0
   -0.6401    2.5648    3.9149 H   0  0  0  0  0  0  0  0  0  0  0  0
   -0.5157    1.0793    4.8777 H   0  0  0  0  0  0  0  0  0  0  0  0
    0.9545    1.8378    4.2295 H   0  0  0  0  0  0  0  0  0  0  0  0
  1  2  1  0  0  0  0
  2  3  1  0  0  0  0
  2  4  1  0  0  0  0
  2  5  1  0  0  0  0
  5  6  2  0  0  0  0
  5  7  1  0  0  0  0
  7  8  1  0  0  0  0
  7  9  1  0  0  0  0
  9 10  1  0  0  0  0
  9 11  1  0  0  0  0
  9 18  1  0  0  0  0
 11 12  1  0  0  0  0
 11 13  1  0  0  0  0
 11 14  1  0  0  0  0
 14 15  2  0  0  0  0
 14 16  1  0  0  0  0
 16 17  1  0  0  0  0
 18 19  2  0  0  0  0
 18 20  1  0  0  0  0
 20 21  1  0  0  0  0
 20 22  1  0  0  0  0
 22 23  1  0  0  0  0
 22 24  1  0  0  0  0
 22 25  1  0  0  0  0
M  END
$$$$

  -OEChem-01062216063D

 25 24  0     1  0  0  0  0  0999 V2000
   -2.6329   -3.4593    0.8118 H   0  0  0  0  0  0  0  0  0  0  0  0
   -2.6924   -2.4201    0.4761 C   0  0  0  0  0  0  0  0  0  0  0  0
   -3.5180   -1.9276    0.9953 H   0  0  0  0  0  0  0  0  0  0  0  0
   -2.8878   -2.4098   -0.5989 H   0  0  0  0  0  0  0  0  0  0  0  0
   -1.3904   -1.7011    0.7732 C   0  0  0  0  0  0  0  0  0  0  0  0
   -0.5308   -2.2392    1.4537 O   0  0  0  0  0  0  0  0  0  0  0  0
   -1.2152   -0.3908    0.3785 N   0  0  0  0  0  0  0  0  0  0  0  0
   -1.9703    0.0337   -0.1527 H   0  0  0  0  0  0  0  0  0  0  0  0
    0.1006    0.2694    0.3582 C   0  0  1  0  0  0  0  0  0  0  0  0
    0.9142   -0.4583    0.4640 H   0  0  0  0  0  0  0  0  0  0  0  0
    0.2532    0.9873   -1.0015 C   0  0  0  0  0  0  0  0  0  0  0  0
   -0.6019    1.6493   -1.1644 H   0  0  0  0  0  0  0  0  0  0  0  0
    1.1490    1.6148   -0.9803 H   0  0  0  0  0  0  0  0  0  0  0  0
    0.3909    0.0429   -2.1917 C   0  0  0  0  0  0  0  0  0  0  0  0
    0.8923   -1.0581   -2.0384 O   0  0  0  0  0  0  0  0  0  0  0  0
   -0.0761    0.4882   -3.3809 O   0  0  0  0  0  0  0  0  0  0  0  0
    0.1075   -0.2166   -4.0209 H   0  0  0  0  0  0  0  0  0  0  0  0
    0.2162    1.2398    1.5526 C   0  0  0  0  0  0  0  0  0  0  0  0
    0.3835    2.4439    1.4025 O   0  0  0  0  0  0  0  0  0  0  0  0
    0.1022    0.7207    2.8275 N   0  0  0  0  0  0  0  0  0  0  0  0
   -0.0353   -0.2878    2.8986 H   0  0  0  0  0  0  0  0  0  0  0  0
    0.1979    1.5199    4.0417 C   0  0  0  0  0  0  0  0  0  0  0  0
   -0.5912    2.2787    4.0642 H   0  0  0  0  0  0  0  0  0  0  0  0
    0.0895    0.8814    4.9237 H   0  0  0  0  0  0  0  0  0  0  0  0
    1.1703    2.0208    4.0947 H   0  0  0  0  0  0  0  0  0  0  0  0
  1  2  1  0  0  0  0
  2  3  1  0  0  0  0
  2  4  1  0  0  0  0
  2  5  1  0  0  0  0
  5  6  2  0  0  0  0
  5  7  1  0  0  0  0
  7  8  1  0  0  0  0
  7  9  1  0  0  0  0
  9 10  1  0  0  0  0
  9 11  1  0  0  0  0
  9 18  1  0  0  0  0
 11 12  1  0  0  0  0
 11 13  1  0  0  0  0
 11 14  1  0  0  0  0
 14 15  2  0  0  0  0
 14 16  1  0  0  0  0
 16 17  1  0  0  0  0
 18 19  2  0  0  0  0
 18 20  1  0  0  0  0
 20 21  1  0  0  0  0
 20 22  1  0  0  0  0
 22 23  1  0  0  0  0
 22 24  1  0  0  0  0
 22 25  1  0  0  0  0
M  END
$$$$

  -OEChem-01062216063D

 25 24  0     1  0  0  0  0  0999 V2000
   -2.6431   -3.4401    0.8572 H   0  0  0  0  0  0  0  0  0  0  0  0
   -2.6981   -2.3988    0.5274 C   0  0  0  0  0  0  0  0  0  0  0  0
   -3.4896   -1.8928    1.0854 H   0  0  0  0  0  0  0  0  0  0  0  0
   -2.9419   -2.3807   -0.5376 H   0  0  0  0  0  0  0  0  0  0  0  0
   -1.3706   -1.7051    0.7662 C   0  0  0  0  0  0  0  0  0  0  0  0
   -0.4833   -2.2709    1.3865 O   0  0  0  0  0  0  0  0  0  0  0  0
   -1.1936   -0.3949    0.3713 N   0  0  0  0  0  0  0  0  0  0  0  0
   -1.9725    0.0606   -0.0967 H   0  0  0  0  0  0  0  0  0  0  0  0
    0.1196    0.2666    0.3454 C   0  0  1  0  0  0  0  0  0  0  0  0
    0.9360   -0.4590    0.4424 H   0  0  0  0  0  0  0  0  0  0  0  0
    0.2667    0.9893   -1.0114 C   0  0  0  0  0  0  0  0  0  0  0  0
   -0.5917    1.6481   -1.1703 H   0  0  0  0  0  0  0  0  0  0  0  0
    1.1595    1.6205   -0.9881 H   0  0  0  0  0  0  0  0  0  0  0  0
    0.4011    0.0491   -2.2052 C   0  0  0  0  0  0  0  0  0  0  0  0
    0.9044   -1.0519   -2.0571 O   0  0  0  0  0  0  0  0  0  0  0  0
   -0.0655    0.4995   -3.3926 O   0  0  0  0  0  0  0  0  0  0  0  0
    0.1157   -0.2040   -4.0346 H   0  0  0  0  0  0  0  0  0  0  0  0
    0.2363    1.2363    1.5379 C   0  0  0  0  0  0  0  0  0  0  0  0
    0.1425    2.4499    1.3996 O   0  0  0  0  0  0  0  0  0  0  0  0
    0.4430    0.7022    2.7947 N   0  0  0  0  0  0  0  0  0  0  0  0
    0.4218   -0.3149    2.8671 H   0  0  0  0  0  0  0  0  0  0  0  0
    0.5143    1.5016    4.0105 C   0  0  0  0  0  0  0  0  0  0  0  0
   -0.4306    2.0291    4.1773 H   0  0  0  0  0  0  0  0  0  0  0  0
    0.7106    0.8585    4.8740 H   0  0  0  0  0  0  0  0  0  0  0  0
    1.3220    2.2378    3.9382 H   0  0  0  0  0  0  0  0  0  0  0  0
  1  2  1  0  0  0  0
  2  3  1  0  0  0  0
  2  4  1  0  0  0  0
  2  5  1  0  0  0  0
  5  6  2  0  0  0  0
  5  7  1  0  0  0  0
  7  8  1  0  0  0  0
  7  9  1  0  0  0  0
  9 10  1  0  0  0  0
  9 11  1  0  0  0  0
  9 18  1  0  0  0  0
 11 12  1  0  0  0  0
 11 13  1  0  0  0  0
 11 14  1  0  0  0  0
 14 15  2  0  0  0  0
 14 16  1  0  0  0  0
 16 17  1  0  0  0  0
 18 19  2  0  0  0  0
 18 20  1  0  0  0  0
 20 21  1  0  0  0  0
 20 22  1  0  0  0  0
 22 23  1  0  0  0  0
 22 24  1  0  0  0  0
 22 25  1  0  0  0  0
M  END
$$$$

  -OEChem-01062216063D

 25 24  0     1  0  0  0  0  0999 V2000
   -2.6633   -3.4278    0.9053 H   0  0  0  0  0  0  0  0  0  0  0  0
   -2.7118   -2.3844    0.5811 C   0  0  0  0  0  0  0  0  0  0  0  0
   -3.4536   -1.8603    1.1884 H   0  0  0  0  0  0  0  0  0  0  0  0
   -3.0212   -2.3564   -0.4663 H   0  0  0  0  0  0  0  0  0  0  0  0
   -1.3542   -1.7259    0.7377 C   0  0  0  0  0  0  0  0  0  0  0  0
   -0.4388   -2.3291    1.2765 O   0  0  0  0  0  0  0  0  0  0  0  0
   -1.1737   -0.4149    0.3465 N   0  0  0  0  0  0  0  0  0  0  0  0
   -1.9798    0.0843   -0.0201 H   0  0  0  0  0  0  0  0  0  0  0  0
    0.1339    0.2555    0.3298 C   0  0  1  0  0  0  0  0  0  0  0  0
    0.9546   -0.4655    0.4233 H   0  0  0  0  0  0  0  0  0  0  0  0
    0.2789    0.9906   -1.0202 C   0  0  0  0  0  0  0  0  0  0  0  0
   -0.5865    1.6409   -1.1769 H   0  0  0  0  0  0  0  0  0  0  0  0
    1.1642    1.6317   -0.9887 H   0  0  0  0  0  0  0  0  0  0  0  0
    0.4232    0.0621   -2.2220 C   0  0  0  0  0  0  0  0  0  0  0  0
    0.9345   -1.0363   -2.0822 O   0  0  0  0  0  0  0  0  0  0  0  0
   -0.0407    0.5205   -3.4073 O   0  0  0  0  0  0  0  0  0  0  0  0
    0.1408   -0.1796   -4.0529 H   0  0  0  0  0  0  0  0  0  0  0  0
    0.2402    1.2271    1.5212 C   0  0  0  0  0  0  0  0  0  0  0  0
   -0.1180    2.3948    1.4260 O   0  0  0  0  0  0  0  0  0  0  0  0
    0.7482    0.7605    2.7179 N   0  0  0  0  0  0  0  0  0  0  0  0
    0.8995   -0.2445    2.7870 H   0  0  0  0  0  0  0  0  0  0  0  0
    0.8190    1.5695    3.9280 C   0  0  0  0  0  0  0  0  0  0  0  0
   -0.1847    1.8668    4.2498 H   0  0  0  0  0  0  0  0  0  0  0  0
    1.2888    1.0000    4.7359 H   0  0  0  0  0  0  0  0  0  0  0  0
    1.4146    2.4716    3.7517 H   0  0  0  0  0  0  0  0  0  0  0  0
  1  2  1  0  0  0  0
  2  3  1  0  0  0  0
  2  4  1  0  0  0  0
  2  5  1  0  0  0  0
  5  6  2  0  0  0  0
  5  7  1  0  0  0  0
  7  8  1  0  0  0  0
  7  9  1  0  0  0  0
  9 10  1  0  0  0  0
  9 11  1  0  0  0  0
  9 18  1  0  0  0  0
 11 12  1  0  0  0  0
 11 13  1  0  0  0  0
 11 14  1  0  0  0  0
 14 15  2  0  0  0  0
 14 16  1  0  0  0  0
 16 17  1  0  0  0  0
 18 19  2  0  0  0  0
 18 20  1  0  0  0  0
 20 21  1  0  0  0  0
 20 22  1  0  0  0  0
 22 23  1  0  0  0  0
 22 24  1  0  0  0  0
 22 25  1  0  0  0  0
M  END
$$$$

  -OEChem-01062216063D

 25 24  0     1  0  0  0  0  0999 V2000
   -2.6845   -3.4169    0.9580 H   0  0  0  0  0  0  0  0  0  0  0  0
   -2.7261   -2.3714    0.6396 C   0  0  0  0  0  0  0  0  0  0  0  0
   -3.4098   -1.8292    1.2972 H   0  0  0  0  0  0  0  0  0  0  0  0
   -3.1054   -2.3311   -0.3843 H   0  0  0  0  0  0  0  0  0  0  0  0
   -1.3434   -1.7508    0.7040 C   0  0  0  0  0  0  0  0  0  0  0  0
   -0.4067   -2.3916    1.1552 O   0  0  0  0  0  0  0  0  0  0  0  0
   -1.1602   -0.4390    0.3156 N   0  0  0  0  0  0  0  0  0  0  0  0
   -1.9866    0.1017    0.0733 H   0  0  0  0  0  0  0  0  0  0  0  0
    0.1425    0.2404    0.3105 C   0  0  1  0  0  0  0  0  0  0  0  0
    0.9659   -0.4772    0.4031 H   0  0  0  0  0  0  0  0  0  0  0  0
    0.2905    0.9905   -1.0301 C   0  0  0  0  0  0  0  0  0  0  0  0
   -0.5796    1.6351   -1.1849 H   0  0  0  0  0  0  0  0  0  0  0  0
    1.1702    1.6381   -0.9865 H   0  0  0  0  0  0  0  0  0  0  0  0
    0.4474    0.0766   -2.2416 C   0  0  0  0  0  0  0  0  0  0  0  0
    0.9649   -1.0200   -2.1117 O   0  0  0  0  0  0  0  0  0  0  0  0
   -0.0066    0.5486   -3.4254 O   0  0  0  0  0  0  0  0  0  0  0  0
    0.1779   -0.1457   -4.0763 H   0  0  0  0  0  0  0  0  0  0  0  0
    0.2382    1.2155    1.4996 C   0  0  0  0  0  0  0  0  0  0  0  0
   -0.3688    2.2797    1.4835 O   0  0  0  0  0  0  0  0  0  0  0  0
    1.0101    0.8838    2.5965 N   0  0  0  0  0  0  0  0  0  0  0  0
    1.3739   -0.0662    2.6304 H   0  0  0  0  0  0  0  0  0  0  0  0
    1.0828    1.7066    3.7976 C   0  0  0  0  0  0  0  0  0  0  0  0
    0.0956    1.7930    4.2634 H   0  0  0  0  0  0  0  0  0  0  0  0
    1.7702    1.2585    4.5215 H   0  0  0  0  0  0  0  0  0  0  0  0
    1.4466    2.7103    3.5535 H   0  0  0  0  0  0  0  0  0  0  0  0
  1  2  1  0  0  0  0
  2  3  1  0  0  0  0
  2  4  1  0  0  0  0
  2  5  1  0  0  0  0
  5  6  2  0  0  0  0
  5  7  1  0  0  0  0
  7  8  1  0  0  0  0
  7  9  1  0  0  0  0
  9 10  1  0  0  0  0
  9 11  1  0  0  0  0
  9 18  1  0  0  0  0
 11 12  1  0  0  0  0
 11 13  1  0  0  0  0
 11 14  1  0  0  0  0
 14 15  2  0  0  0  0
 14 16  1  0  0  0  0
 16 17  1  0  0  0  0
 18 19  2  0  0  0  0
 18 20  1  0  0  0  0
 20 21  1  0  0  0  0
 20 22  1  0  0  0  0
 22 23  1  0  0  0  0
 22 24  1  0  0  0  0
 22 25  1  0  0  0  0
M  END
$$$$

  -OEChem-01062216063D

 25 24  0     1  0  0  0  0  0999 V2000
   -2.7004   -3.4058    1.0144 H   0  0  0  0  0  0  0  0  0  0  0  0
   -2.7369   -2.3615    0.6916 C   0  0  0  0  0  0  0  0  0  0  0  0
   -3.3691   -1.8000    1.3837 H   0  0  0  0  0  0  0  0  0  0  0  0
   -3.1744   -2.3178   -0.3087 H   0  0  0  0  0  0  0  0  0  0  0  0
   -1.3394   -1.7718    0.6712 C   0  0  0  0  0  0  0  0  0  0  0  0
   -0.3905   -2.4415    1.0482 O   0  0  0  0  0  0  0  0  0  0  0  0
   -1.1561   -0.4597    0.2837 N   0  0  0  0  0  0  0  0  0  0  0  0
   -1.9903    0.1092    0.1596 H   0  0  0  0  0  0  0  0  0  0  0  0
    0.1438    0.2256    0.2930 C   0  0  1  0  0  0  0  0  0  0  0  0
    0.9680   -0.4903    0.3904 H   0  0  0  0  0  0  0  0  0  0  0  0
    0.2999    0.9889   -1.0378 C   0  0  0  0  0  0  0  0  0  0  0  0
   -0.5723    1.6310   -1.1920 H   0  0  0  0  0  0  0  0  0  0  0  0
    1.1768    1.6389   -0.9813 H   0  0  0  0  0  0  0  0  0  0  0  0
    0.4703    0.0896   -2.2583 C   0  0  0  0  0  0  0  0  0  0  0  0
    0.9910   -1.0064   -2.1370 O   0  0  0  0  0  0  0  0  0  0  0  0
    0.0307    0.5772   -3.4414 O   0  0  0  0  0  0  0  0  0  0  0  0
    0.2217   -0.1091   -4.0989 H   0  0  0  0  0  0  0  0  0  0  0  0
    0.2251    1.2039    1.4802 C   0  0  0  0  0  0  0  0  0  0  0  0
   -0.5782    2.1248    1.5712 O   0  0  0  0  0  0  0  0  0  0  0  0
    1.2047    1.0524    2.4434 N   0  0  0  0  0  0  0  0  0  0  0  0
    1.7683    0.2067    2.4024 H   0  0  0  0  0  0  0  0  0  0  0  0
    1.2955    1.8997    3.6261 C   0  0  0  0  0  0  0  0  0  0  0  0
    0.3940    1.7992    4.2395 H   0  0  0  0  0  0  0  0  0  0  0  0
    2.1610    1.6132    4.2313 H   0  0  0  0  0  0  0  0  0  0  0  0
    1.4101    2.9499    3.3371 H   0  0  0  0  0  0  0  0  0  0  0  0
  1  2  1  0  0  0  0
  2  3  1  0  0  0  0
  2  4  1  0  0  0  0
  2  5  1  0  0  0  0
  5  6  2  0  0  0  0
  5  7  1  0  0  0  0
  7  8  1  0  0  0  0
  7  9  1  0  0  0  0
  9 10  1  0  0  0  0
  9 11  1  0  0  0  0
  9 18  1  0  0  0  0
 11 12  1  0  0  0  0
 11 13  1  0  0  0  0
 11 14  1  0  0  0  0
 14 15  2  0  0  0  0
 14 16  1  0  0  0  0
 16 17  1  0  0  0  0
 18 19  2  0  0  0  0
 18 20  1  0  0  0  0
 20 21  1  0  0  0  0
 20 22  1  0  0  0  0
 22 23  1  0  0  0  0
 22 24  1  0  0  0  0
 22 25  1  0  0  0  0
M  END
$$$$

  -OEChem-01062216063D

 25 24  0     1  0  0  0  0  0999 V2000
   -2.7055   -3.4000    1.0593 H   0  0  0  0  0  0  0  0  0  0  0  0
   -2.7433   -2.3575    0.7314 C   0  0  0  0  0  0  0  0  0  0  0  0
   -3.3330   -1.7834    1.4503 H   0  0  0  0  0  0  0  0  0  0  0  0
   -3.2281   -2.3135   -0.2468 H   0  0  0  0  0  0  0  0  0  0  0  0
   -1.3400   -1.7879    0.6404 C   0  0  0  0  0  0  0  0  0  0  0  0
   -0.3836   -2.4772    0.9583 O   0  0  0  0  0  0  0  0  0  0  0  0
   -1.1610   -0.4742    0.2553 N   0  0  0  0  0  0  0  0  0  0  0  0
   -1.9959    0.1068    0.2191 H   0  0  0  0  0  0  0  0  0  0  0  0
    0.1366    0.2169    0.2817 C   0  0  1  0  0  0  0  0  0  0  0  0
    0.9609   -0.4976    0.3880 H   0  0  0  0  0  0  0  0  0  0  0  0
    0.3030    0.9896   -1.0414 C   0  0  0  0  0  0  0  0  0  0  0  0
   -0.5720    1.6271   -1.1992 H   0  0  0  0  0  0  0  0  0  0  0  0
    1.1757    1.6443   -0.9729 H   0  0  0  0  0  0  0  0  0  0  0  0
    0.4897    0.1003   -2.2667 C   0  0  0  0  0  0  0  0  0  0  0  0
    1.0139   -0.9941   -2.1482 O   0  0  0  0  0  0  0  0  0  0  0  0
    0.0668    0.5978   -3.4516 O   0  0  0  0  0  0  0  0  0  0  0  0
    0.2640   -0.0851   -4.1108 H   0  0  0  0  0  0  0  0  0  0  0  0
    0.2060    1.1975    1.4680 C   0  0  0  0  0  0  0  0  0  0  0  0
   -0.7315    1.9559    1.6879 O   0  0  0  0  0  0  0  0  0  0  0  0
    1.3331    1.2543    2.2663 N   0  0  0  0  0  0  0  0  0  0  0  0
    2.0498    0.5495    2.1143 H   0  0  0  0  0  0  0  0  0  0  0  0
    1.4457    2.1342    3.4233 C   0  0  0  0  0  0  0  0  0  0  0  0
    0.6769    1.8927    4.1649 H   0  0  0  0  0  0  0  0  0  0  0  0
    2.4280    2.0199    3.8918 H   0  0  0  0  0  0  0  0  0  0  0  0
    1.3277    3.1804    3.1217 H   0  0  0  0  0  0  0  0  0  0  0  0
  1  2  1  0  0  0  0
  2  3  1  0  0  0  0
  2  4  1  0  0  0  0
  2  5  1  0  0  0  0
  5  6  2  0  0  0  0
  5  7  1  0  0  0  0
  7  8  1  0  0  0  0
  7  9  1  0  0  0  0
  9 10  1  0  0  0  0
  9 11  1  0  0  0  0
  9 18  1  0  0  0  0
 11 12  1  0  0  0  0
 11 13  1  0  0  0  0
 11 14  1  0  0  0  0
 14 15  2  0  0  0  0
 14 16  1  0  0  0  0
 16 17  1  0  0  0  0
 18 19  2  0  0  0  0
 18 20  1  0  0  0  0
 20 21  1  0  0  0  0
 20 22  1  0  0  0  0
 22 23  1  0  0  0  0
 22 24  1  0  0  0  0
 22 25  1  0  0  0  0
M  END
$$$$

  -OEChem-01062216063D

 25 24  0     1  0  0  0  0  0999 V2000
   -2.7035   -3.4003    1.0784 H   0  0  0  0  0  0  0  0  0  0  0  0
   -2.7446   -2.3581    0.7500 C   0  0  0  0  0  0  0  0  0  0  0  0
   -3.3105   -1.7792    1.4838 H   0  0  0  0  0  0  0  0  0  0  0  0
   -3.2562   -2.3125   -0.2143 H   0  0  0  0  0  0  0  0  0  0  0  0
   -1.3416   -1.7962    0.6186 C   0  0  0  0  0  0  0  0  0  0  0  0
   -0.3807   -2.4965    0.8955 O   0  0  0  0  0  0  0  0  0  0  0  0
   -1.1684   -0.4808    0.2358 N   0  0  0  0  0  0  0  0  0  0  0  0
   -2.0015    0.1034    0.2621 H   0  0  0  0  0  0  0  0  0  0  0  0
    0.1268    0.2152    0.2790 C   0  0  1  0  0  0  0  0  0  0  0  0
    0.9520   -0.4968    0.3948 H   0  0  0  0  0  0  0  0  0  0  0  0
    0.2998    0.9907   -1.0416 C   0  0  0  0  0  0  0  0  0  0  0  0
   -0.5781    1.6228   -1.2053 H   0  0  0  0  0  0  0  0  0  0  0  0
    1.1682    1.6502   -0.9666 H   0  0  0  0  0  0  0  0  0  0  0  0
    0.5014    0.1043   -2.2669 C   0  0  0  0  0  0  0  0  0  0  0  0
    1.0306   -0.9873   -2.1461 O   0  0  0  0  0  0  0  0  0  0  0  0
    0.0868    0.6025   -3.4544 O   0  0  0  0  0  0  0  0  0  0  0  0
    0.2912   -0.0792   -4.1128 H   0  0  0  0  0  0  0  0  0  0  0  0
    0.1873    1.1982    1.4648 C   0  0  0  0  0  0  0  0  0  0  0  0
   -0.8263    1.7847    1.8277 O   0  0  0  0  0  0  0  0  0  0  0  0
    1.3947    1.4814    2.0759 N   0  0  0  0  0  0  0  0  0  0  0  0
    2.2026    0.9322    1.7954 H   0  0  0  0  0  0  0  0  0  0  0  0
    1.5225    2.3957    3.2043 C   0  0  0  0  0  0  0  0  0  0  0  0
    0.9260    2.0435    4.0525 H   0  0  0  0  0  0  0  0  0  0  0  0
    2.5679    2.4628    3.5202 H   0  0  0  0  0  0  0  0  0  0  0  0
    1.1813    3.3982    2.9254 H   0  0  0  0  0  0  0  0  0  0  0  0
  1  2  1  0  0  0  0
  2  3  1  0  0  0  0
  2  4  1  0  0  0  0
  2  5  1  0  0  0  0
  5  6  2  0  0  0  0
  5  7  1  0  0  0  0
  7  8  1  0  0  0  0
  7  9  1  0  0  0  0
  9 10  1  0  0  0  0
  9 11  1  0  0  0  0
  9 18  1  0  0  0  0
 11 12  1  0  0  0  0
 11 13  1  0  0  0  0
 11 14  1  0  0  0  0
 14 15  2  0  0  0  0
 14 16  1  0  0  0  0
 16 17  1  0  0  0  0
 18 19  2  0  0  0  0
 18 20  1  0  0  0  0
 20 21  1  0  0  0  0
 20 22  1  0  0  0  0
 22 23  1  0  0  0  0
 22 24  1  0  0  0  0
 22 25  1  0  0  0  0
M  END
$$$$

  -OEChem-01062216063D

 25 24  0     1  0  0  0  0  0999 V2000
   -2.6989   -3.3991    1.0882 H   0  0  0  0  0  0  0  0  0  0  0  0
   -2.7433   -2.3568    0.7601 C   0  0  0  0  0  0  0  0  0  0  0  0
   -3.2924   -1.7760    1.5052 H   0  0  0  0  0  0  0  0  0  0  0  0
   -3.2742   -2.3098   -0.1936 H   0  0  0  0  0  0  0  0  0  0  0  0
   -1.3414   -1.7993    0.5998 C   0  0  0  0  0  0  0  0  0  0  0  0
   -0.3778   -2.5081    0.8445 O   0  0  0  0  0  0  0  0  0  0  0  0
   -1.1738   -0.4822    0.2199 N   0  0  0  0  0  0  0  0  0  0  0  0
   -2.0052    0.1009    0.2906 H   0  0  0  0  0  0  0  0  0  0  0  0
    0.1202    0.2166    0.2784 C   0  0  1  0  0  0  0  0  0  0  0  0
    0.9472   -0.4923    0.4017 H   0  0  0  0  0  0  0  0  0  0  0  0
    0.2955    0.9906   -1.0439 C   0  0  0  0  0  0  0  0  0  0  0  0
   -0.5857    1.6162   -1.2135 H   0  0  0  0  0  0  0  0  0  0  0  0
    1.1591    1.6562   -0.9697 H   0  0  0  0  0  0  0  0  0  0  0  0
    0.5075    0.1028   -2.2666 C   0  0  0  0  0  0  0  0  0  0  0  0
    1.0417   -0.9856   -2.1419 O   0  0  0  0  0  0  0  0  0  0  0  0
    0.0957    0.5971   -3.4567 O   0  0  0  0  0  0  0  0  0  0  0  0
    0.3034   -0.0866   -4.1122 H   0  0  0  0  0  0  0  0  0  0  0  0
    0.1742    1.2010    1.4659 C   0  0  0  0  0  0  0  0  0  0  0  0
   -0.8620    1.6055    1.9816 O   0  0  0  0  0  0  0  0  0  0  0  0
    1.3858    1.7201    1.8848 N   0  0  0  0  0  0  0  0  0  0  0  0
    2.2302    1.3323    1.4736 H   0  0  0  0  0  0  0  0  0  0  0  0
    1.5108    2.6658    2.9878 C   0  0  0  0  0  0  0  0  0  0  0  0
    1.1252    2.2275    3.9143 H   0  0  0  0  0  0  0  0  0  0  0  0
    2.5613    2.9310    3.1415 H   0  0  0  0  0  0  0  0  0  0  0  0
    0.9520    3.5826    2.7724 H   0  0  0  0  0  0  0  0  0  0  0  0
  1  2  1  0  0  0  0
  2  3  1  0  0  0  0
  2  4  1  0  0  0  0
  2  5  1  0  0  0  0
  5  6  2  0  0  0  0
  5  7  1  0  0  0  0
  7  8  1  0  0  0  0
  7  9  1  0  0  0  0
  9 10  1  0  0  0  0
  9 11  1  0  0  0  0
  9 18  1  0  0  0  0
 11 12  1  0  0  0  0
 11 13  1  0  0  0  0
 11 14  1  0  0  0  0
 14 15  2  0  0  0  0
 14 16  1  0  0  0  0
 16 17  1  0  0  0  0
 18 19  2  0  0  0  0
 18 20  1  0  0  0  0
 20 21  1  0  0  0  0
 20 22  1  0  0  0  0
 22 23  1  0  0  0  0
 22 24  1  0  0  0  0
 22 25  1  0  0  0  0
M  END
$$$$

  -OEChem-01062216063D

 25 24  0     1  0  0  0  0  0999 V2000
   -2.6399   -3.3944    1.1229 H   0  0  0  0  0  0  0  0  0  0  0  0
   -2.7108   -2.3478    0.8139 C   0  0  0  0  0  0  0  0  0  0  0  0
   -3.1996   -1.7786    1.6084 H   0  0  0  0  0  0  0  0  0  0  0  0
   -3.3142   -2.2880   -0.0948 H   0  0  0  0  0  0  0  0  0  0  0  0
   -1.3267   -1.7845    0.5538 C   0  0  0  0  0  0  0  0  0  0  0  0
   -0.3456   -2.4973    0.6994 O   0  0  0  0  0  0  0  0  0  0  0  0
   -1.1908   -0.4614    0.1803 N   0  0  0  0  0  0  0  0  0  0  0  0
   -2.0198    0.1073    0.3309 H   0  0  0  0  0  0  0  0  0  0  0  0
    0.1042    0.2347    0.2533 C   0  0  1  0  0  0  0  0  0  0  0  0
    0.9344   -0.4674    0.1104 H   0  0  0  0  0  0  0  0  0  0  0  0
    0.1185    1.2837   -0.8792 C   0  0  0  0  0  0  0  0  0  0  0  0
   -0.7768    1.9078   -0.8040 H   0  0  0  0  0  0  0  0  0  0  0  0
    0.9839    1.9410   -0.7679 H   0  0  0  0  0  0  0  0  0  0  0  0
    0.1843    0.6863   -2.2821 C   0  0  0  0  0  0  0  0  0  0  0  0
    0.7315   -0.3883   -2.4603 O   0  0  0  0  0  0  0  0  0  0  0  0
   -0.3671    1.4149   -3.2796 O   0  0  0  0  0  0  0  0  0  0  0  0
   -0.2377    0.8960   -4.0886 H   0  0  0  0  0  0  0  0  0  0  0  0
    0.3123    0.9167    1.6260 C   0  0  0  0  0  0  0  0  0  0  0  0
   -0.6019    0.9675    2.4415 O   0  0  0  0  0  0  0  0  0  0  0  0
    1.4754    1.6197    1.8862 N   0  0  0  0  0  0  0  0  0  0  0  0
    2.2401    1.5183    1.2253 H   0  0  0  0  0  0  0  0  0  0  0  0
    1.7266    2.3047    3.1487 C   0  0  0  0  0  0  0  0  0  0  0  0
    1.6999    1.5943    3.9818 H   0  0  0  0  0  0  0  0  0  0  0  0
    2.7114    2.7811    3.1312 H   0  0  0  0  0  0  0  0  0  0  0  0
    0.9719    3.0793    3.3214 H   0  0  0  0  0  0  0  0  0  0  0  0
  1  2  1  0  0  0  0
  2  3  1  0  0  0  0
  2  4  1  0  0  0  0
  2  5  1  0  0  0  0
  5  6  2  0  0  0  0
  5  7  1  0  0  0  0
  7  8  1  0  0  0  0
  7  9  1  0  0  0  0
  9 10  1  0  0  0  0
  9 11  1  0  0  0  0
  9 18  1  0  0  0  0
 11 12  1  0  0  0  0
 11 13  1  0  0  0  0
 11 14  1  0  0  0  0
 14 15  2  0  0  0  0
 14 16  1  0  0  0  0
 16 17  1  0  0  0  0
 18 19  2  0  0  0  0
 18 20  1  0  0  0  0
 20 21  1  0  0  0  0
 20 22  1  0  0  0  0
 22 23  1  0  0  0  0
 22 24  1  0  0  0  0
 22 25  1  0  0  0  0
M  END
$$$$

  -OEChem-01062216063D

 25 24  0     1  0  0  0  0  0999 V2000
   -2.6325   -3.3948    1.0881 H   0  0  0  0  0  0  0  0  0  0  0  0
   -2.7037   -2.3346    0.8300 C   0  0  0  0  0  0  0  0  0  0  0  0
   -3.1550   -1.7979    1.6681 H   0  0  0  0  0  0  0  0  0  0  0  0
   -3.3414   -2.2280   -0.0505 H   0  0  0  0  0  0  0  0  0  0  0  0
   -1.3240   -1.7737    0.5419 C   0  0  0  0  0  0  0  0  0  0  0  0
   -0.3437   -2.4943    0.6504 O   0  0  0  0  0  0  0  0  0  0  0  0
   -1.1931   -0.4485    0.1712 N   0  0  0  0  0  0  0  0  0  0  0  0
   -2.0216    0.1164    0.3359 H   0  0  0  0  0  0  0  0  0  0  0  0
    0.1033    0.2465    0.2464 C   0  0  1  0  0  0  0  0  0  0  0  0
    0.9350   -0.4549    0.1094 H   0  0  0  0  0  0  0  0  0  0  0  0
    0.1151    1.2820   -0.9014 C   0  0  0  0  0  0  0  0  0  0  0  0
   -0.7812    1.9054   -0.8350 H   0  0  0  0  0  0  0  0  0  0  0  0
    0.9800    1.9414   -0.8059 H   0  0  0  0  0  0  0  0  0  0  0  0
    0.1841    0.6644   -2.2959 C   0  0  0  0  0  0  0  0  0  0  0  0
    0.7344   -0.4105   -2.4599 O   0  0  0  0  0  0  0  0  0  0  0  0
   -0.3674    1.3790   -3.3035 O   0  0  0  0  0  0  0  0  0  0  0  0
   -0.2364    0.8489   -4.1051 H   0  0  0  0  0  0  0  0  0  0  0  0
    0.3082    0.9239    1.6258 C   0  0  0  0  0  0  0  0  0  0  0  0
   -0.5011    0.7515    2.5303 O   0  0  0  0  0  0  0  0  0  0  0  0
    1.3000    1.8723    1.8101 N   0  0  0  0  0  0  0  0  0  0  0  0
    1.9940    1.9710    1.0755 H   0  0  0  0  0  0  0  0  0  0  0  0
    1.5182    2.5628    3.0763 C   0  0  0  0  0  0  0  0  0  0  0  0
    1.7456    1.8437    3.8705 H   0  0  0  0  0  0  0  0  0  0  0  0
    2.3580    3.2586    2.9883 H   0  0  0  0  0  0  0  0  0  0  0  0
    0.6270    3.1321    3.3611 H   0  0  0  0  0  0  0  0  0  0  0  0
  1  2  1  0  0  0  0
  2  3  1  0  0  0  0
  2  4  1  0  0  0  0
  2  5  1  0  0  0  0
  5  6  2  0  0  0  0
  5  7  1  0  0  0  0
  7  8  1  0  0  0  0
  7  9  1  0  0  0  0
  9 10  1  0  0  0  0
  9 11  1  0  0  0  0
  9 18  1  0  0  0  0
 11 12  1  0  0  0  0
 11 13  1  0  0  0  0
 11 14  1  0  0  0  0
 14 15  2  0  0  0  0
 14 16  1  0  0  0  0
 16 17  1  0  0  0  0
 18 19  2  0  0  0  0
 18 20  1  0  0  0  0
 20 21  1  0  0  0  0
 20 22  1  0  0  0  0
 22 23  1  0  0  0  0
 22 24  1  0  0  0  0
 22 25  1  0  0  0  0
M  END
$$$$

  -OEChem-01062216063D

 25 24  0     1  0  0  0  0  0999 V2000
   -2.6191   -3.3673    1.1604 H   0  0  0  0  0  0  0  0  0  0  0  0
   -2.6995   -2.3241    0.8423 C   0  0  0  0  0  0  0  0  0  0  0  0
   -3.1620   -1.7469    1.6466 H   0  0  0  0  0  0  0  0  0  0  0  0
   -3.3320   -2.2738   -0.0470 H   0  0  0  0  0  0  0  0  0  0  0  0
   -1.3234   -1.7659    0.5327 C   0  0  0  0  0  0  0  0  0  0  0  0
   -0.3465   -2.4954    0.6029 O   0  0  0  0  0  0  0  0  0  0  0  0
   -1.1947   -0.4382    0.1684 N   0  0  0  0  0  0  0  0  0  0  0  0
   -2.0244    0.1240    0.3336 H   0  0  0  0  0  0  0  0  0  0  0  0
    0.1025    0.2571    0.2395 C   0  0  1  0  0  0  0  0  0  0  0  0
    0.9344   -0.4449    0.1051 H   0  0  0  0  0  0  0  0  0  0  0  0
    0.1146    1.2812   -0.9194 C   0  0  0  0  0  0  0  0  0  0  0  0
   -0.7793    1.9085   -0.8594 H   0  0  0  0  0  0  0  0  0  0  0  0
    0.9841    1.9358   -0.8363 H   0  0  0  0  0  0  0  0  0  0  0  0
    0.1843    0.6493   -2.3074 C   0  0  0  0  0  0  0  0  0  0  0  0
    0.7343   -0.4270   -2.4622 O   0  0  0  0  0  0  0  0  0  0  0  0
   -0.3685    1.3547   -3.3206 O   0  0  0  0  0  0  0  0  0  0  0  0
   -0.2394    0.8161   -4.1169 H   0  0  0  0  0  0  0  0  0  0  0  0
    0.3088    0.9259    1.6256 C   0  0  0  0  0  0  0  0  0  0  0  0
   -0.3313    0.5452    2.5984 O   0  0  0  0  0  0  0  0  0  0  0  0
    1.0682    2.0760    1.7664 N   0  0  0  0  0  0  0  0  0  0  0  0
    1.6216    2.3729    0.9693 H   0  0  0  0  0  0  0  0  0  0  0  0
    1.2476    2.7675    3.0385 C   0  0  0  0  0  0  0  0  0  0  0  0
    1.7109    2.1017    3.7744 H   0  0  0  0  0  0  0  0  0  0  0  0
    1.8935    3.6410    2.9071 H   0  0  0  0  0  0  0  0  0  0  0  0
    0.2830    3.1080    3.4297 H   0  0  0  0  0  0  0  0  0  0  0  0
  1  2  1  0  0  0  0
  2  3  1  0  0  0  0
  2  4  1  0  0  0  0
  2  5  1  0  0  0  0
  5  6  2  0  0  0  0
  5  7  1  0  0  0  0
  7  8  1  0  0  0  0
  7  9  1  0  0  0  0
  9 10  1  0  0  0  0
  9 11  1  0  0  0  0
  9 18  1  0  0  0  0
 11 12  1  0  0  0  0
 11 13  1  0  0  0  0
 11 14  1  0  0  0  0
 14 15  2  0  0  0  0
 14 16  1  0  0  0  0
 16 17  1  0  0  0  0
 18 19  2  0  0  0  0
 18 20  1  0  0  0  0
 20 21  1  0  0  0  0
 20 22  1  0  0  0  0
 22 23  1  0  0  0  0
 22 24  1  0  0  0  0
 22 25  1  0  0  0  0
M  END
$$$$

  -OEChem-01062216063D

 25 24  0     1  0  0  0  0  0999 V2000
   -2.6269   -3.3754    1.1077 H   0  0  0  0  0  0  0  0  0  0  0  0
   -2.6984   -2.3145    0.8527 C   0  0  0  0  0  0  0  0  0  0  0  0
   -3.1294   -1.7775    1.7012 H   0  0  0  0  0  0  0  0  0  0  0  0
   -3.3530   -2.2029   -0.0146 H   0  0  0  0  0  0  0  0  0  0  0  0
   -1.3222   -1.7597    0.5382 C   0  0  0  0  0  0  0  0  0  0  0  0
   -0.3494   -2.4952    0.5910 O   0  0  0  0  0  0  0  0  0  0  0  0
   -1.1940   -0.4315    0.1743 N   0  0  0  0  0  0  0  0  0  0  0  0
   -2.0269    0.1292    0.3254 H   0  0  0  0  0  0  0  0  0  0  0  0
    0.1024    0.2654    0.2357 C   0  0  1  0  0  0  0  0  0  0  0  0
    0.9334   -0.4389    0.1068 H   0  0  0  0  0  0  0  0  0  0  0  0
    0.1229    1.2780   -0.9331 C   0  0  0  0  0  0  0  0  0  0  0  0
   -0.7667    1.9125   -0.8837 H   0  0  0  0  0  0  0  0  0  0  0  0
    1.0001    1.9228   -0.8515 H   0  0  0  0  0  0  0  0  0  0  0  0
    0.1955    0.6326   -2.3152 C   0  0  0  0  0  0  0  0  0  0  0  0
    0.7414   -0.4468   -2.4598 O   0  0  0  0  0  0  0  0  0  0  0  0
   -0.3569    1.3289   -3.3350 O   0  0  0  0  0  0  0  0  0  0  0  0
   -0.2281    0.7821   -4.1259 H   0  0  0  0  0  0  0  0  0  0  0  0
    0.3087    0.9306    1.6237 C   0  0  0  0  0  0  0  0  0  0  0  0
   -0.1066    0.3834    2.6368 O   0  0  0  0  0  0  0  0  0  0  0  0
    0.7895    2.2242    1.7485 N   0  0  0  0  0  0  0  0  0  0  0  0
    1.1218    2.6872    0.9091 H   0  0  0  0  0  0  0  0  0  0  0  0
    0.9252    2.9101    3.0291 C   0  0  0  0  0  0  0  0  0  0  0  0
    1.5995    2.3562    3.6910 H   0  0  0  0  0  0  0  0  0  0  0  0
    1.3344    3.9139    2.8805 H   0  0  0  0  0  0  0  0  0  0  0  0
   -0.0499    3.0046    3.5184 H   0  0  0  0  0  0  0  0  0  0  0  0
  1  2  1  0  0  0  0
  2  3  1  0  0  0  0
  2  4  1  0  0  0  0
  2  5  1  0  0  0  0
  5  6  2  0  0  0  0
  5  7  1  0  0  0  0
  7  8  1  0  0  0  0
  7  9  1  0  0  0  0
  9 10  1  0  0  0  0
  9 11  1  0  0  0  0
  9 18  1  0  0  0  0
 11 12  1  0  0  0  0
 11 13  1  0  0  0  0
 11 14  1  0  0  0  0
 14 15  2  0  0  0  0
 14 16  1  0  0  0  0
 16 17  1  0  0  0  0
 18 19  2  0  0  0  0
 18 20  1  0  0  0  0
 20 21  1  0  0  0  0
 20 22  1  0  0  0  0
 22 23  1  0  0  0  0
 22 24  1  0  0  0  0
 22 25  1  0  0  0  0
M  END
$$$$

  -OEChem-01062216063D

 25 24  0     1  0  0  0  0  0999 V2000
   -2.6283   -3.3745    1.1268 H   0  0  0  0  0  0  0  0  0  0  0  0
   -2.7041   -2.3191    0.8501 C   0  0  0  0  0  0  0  0  0  0  0  0
   -3.1549   -1.7704    1.6804 H   0  0  0  0  0  0  0  0  0  0  0  0
   -3.3446   -2.2306   -0.0304 H   0  0  0  0  0  0  0  0  0  0  0  0
   -1.3267   -1.7597    0.5480 C   0  0  0  0  0  0  0  0  0  0  0  0
   -0.3551   -2.4963    0.5972 O   0  0  0  0  0  0  0  0  0  0  0  0
   -1.1984   -0.4310    0.1847 N   0  0  0  0  0  0  0  0  0  0  0  0
   -2.0379    0.1270    0.3046 H   0  0  0  0  0  0  0  0  0  0  0  0
    0.0952    0.2715    0.2404 C   0  0  1  0  0  0  0  0  0  0  0  0
    0.9271   -0.4331    0.1168 H   0  0  0  0  0  0  0  0  0  0  0  0
    0.1261    1.2802   -0.9305 C   0  0  0  0  0  0  0  0  0  0  0  0
   -0.7630    1.9155   -0.8914 H   0  0  0  0  0  0  0  0  0  0  0  0
    1.0053    1.9225   -0.8383 H   0  0  0  0  0  0  0  0  0  0  0  0
    0.2070    0.6315   -2.3107 C   0  0  0  0  0  0  0  0  0  0  0  0
    0.7513   -0.4492   -2.4498 O   0  0  0  0  0  0  0  0  0  0  0  0
   -0.3386    1.3264   -3.3351 O   0  0  0  0  0  0  0  0  0  0  0  0
   -0.2038    0.7785   -4.1245 H   0  0  0  0  0  0  0  0  0  0  0  0
    0.3017    0.9365    1.6260 C   0  0  0  0  0  0  0  0  0  0  0  0
    0.1588    0.2830    2.6495 O   0  0  0  0  0  0  0  0  0  0  0  0
    0.4767    2.3049    1.7571 N   0  0  0  0  0  0  0  0  0  0  0  0
    0.5640    2.8534    0.9080 H   0  0  0  0  0  0  0  0  0  0  0  0
    0.5927    2.9793    3.0456 C   0  0  0  0  0  0  0  0  0  0  0  0
    1.4510    2.5918    3.6046 H   0  0  0  0  0  0  0  0  0  0  0  0
    0.7323    4.0547    2.8992 H   0  0  0  0  0  0  0  0  0  0  0  0
   -0.3133    2.8263    3.6415 H   0  0  0  0  0  0  0  0  0  0  0  0
  1  2  1  0  0  0  0
  2  3  1  0  0  0  0
  2  4  1  0  0  0  0
  2  5  1  0  0  0  0
  5  6  2  0  0  0  0
  5  7  1  0  0  0  0
  7  8  1  0  0  0  0
  7  9  1  0  0  0  0
  9 10  1  0  0  0  0
  9 11  1  0  0  0  0
  9 18  1  0  0  0  0
 11 12  1  0  0  0  0
 11 13  1  0  0  0  0
 11 14  1  0  0  0  0
 14 15  2  0  0  0  0
 14 16  1  0  0  0  0
 16 17  1  0  0  0  0
 18 19  2  0  0  0  0
 18 20  1  0  0  0  0
 20 21  1  0  0  0  0
 20 22  1  0  0  0  0
 22 23  1  0  0  0  0
 22 24  1  0  0  0  0
 22 25  1  0  0  0  0
M  END
$$$$

  -OEChem-01062216063D

 25 24  0     1  0  0  0  0  0999 V2000
   -2.6409   -3.3882    1.1280 H   0  0  0  0  0  0  0  0  0  0  0  0
   -2.7180   -2.3423    0.8174 C   0  0  0  0  0  0  0  0  0  0  0  0
   -3.2173   -1.7781    1.6087 H   0  0  0  0  0  0  0  0  0  0  0  0
   -3.3155   -2.2888   -0.0956 H   0  0  0  0  0  0  0  0  0  0  0  0
   -1.3352   -1.7707    0.5661 C   0  0  0  0  0  0  0  0  0  0  0  0
   -0.3608   -2.4984    0.6560 O   0  0  0  0  0  0  0  0  0  0  0  0
   -1.2052   -0.4424    0.2017 N   0  0  0  0  0  0  0  0  0  0  0  0
   -2.0545    0.1099    0.2644 H   0  0  0  0  0  0  0  0  0  0  0  0
    0.0829    0.2697    0.2590 C   0  0  1  0  0  0  0  0  0  0  0  0
    0.9181   -0.4320    0.1384 H   0  0  0  0  0  0  0  0  0  0  0  0
    0.1184    1.2814   -0.9082 C   0  0  0  0  0  0  0  0  0  0  0  0
   -0.7752    1.9105   -0.8769 H   0  0  0  0  0  0  0  0  0  0  0  0
    0.9922    1.9296   -0.8001 H   0  0  0  0  0  0  0  0  0  0  0  0
    0.2110    0.6394   -2.2904 C   0  0  0  0  0  0  0  0  0  0  0  0
    0.7597   -0.4388   -2.4315 O   0  0  0  0  0  0  0  0  0  0  0  0
   -0.3294    1.3385   -3.3147 O   0  0  0  0  0  0  0  0  0  0  0  0
   -0.1802    0.7989   -4.1072 H   0  0  0  0  0  0  0  0  0  0  0  0
    0.2867    0.9415    1.6391 C   0  0  0  0  0  0  0  0  0  0  0  0
    0.4513    0.2611    2.6402 O   0  0  0  0  0  0  0  0  0  0  0  0
    0.1467    2.3106    1.8002 N   0  0  0  0  0  0  0  0  0  0  0  0
    0.0032    2.8710    0.9665 H   0  0  0  0  0  0  0  0  0  0  0  0
    0.2801    2.9840    3.0874 C   0  0  0  0  0  0  0  0  0  0  0  0
    1.2798    2.8205    3.5037 H   0  0  0  0  0  0  0  0  0  0  0  0
    0.1266    4.0609    2.9692 H   0  0  0  0  0  0  0  0  0  0  0  0
   -0.4627    2.6050    3.7973 H   0  0  0  0  0  0  0  0  0  0  0  0
  1  2  1  0  0  0  0
  2  3  1  0  0  0  0
  2  4  1  0  0  0  0
  2  5  1  0  0  0  0
  5  6  2  0  0  0  0
  5  7  1  0  0  0  0
  7  8  1  0  0  0  0
  7  9  1  0  0  0  0
  9 10  1  0  0  0  0
  9 11  1  0  0  0  0
  9 18  1  0  0  0  0
 11 12  1  0  0  0  0
 11 13  1  0  0  0  0
 11 14  1  0  0  0  0
 14 15  2  0  0  0  0
 14 16  1  0  0  0  0
 16 17  1  0  0  0  0
 18 19  2  0  0  0  0
 18 20  1  0  0  0  0
 20 21  1  0  0  0  0
 20 22  1  0  0  0  0
 22 23  1  0  0  0  0
 22 24  1  0  0  0  0
 22 25  1  0  0  0  0
M  END
$$$$

  -OEChem-01062216063D

 25 24  0     1  0  0  0  0  0999 V2000
   -2.6657   -3.4250    1.0663 H   0  0  0  0  0  0  0  0  0  0  0  0
   -2.7368   -2.3801    0.7513 C   0  0  0  0  0  0  0  0  0  0  0  0
   -3.2973   -1.8241    1.5063 H   0  0  0  0  0  0  0  0  0  0  0  0
   -3.2711   -2.3354   -0.2005 H   0  0  0  0  0  0  0  0  0  0  0  0
   -1.3485   -1.7882    0.5949 C   0  0  0  0  0  0  0  0  0  0  0  0
   -0.3724   -2.4962    0.7716 O   0  0  0  0  0  0  0  0  0  0  0  0
   -1.2129   -0.4608    0.2306 N   0  0  0  0  0  0  0  0  0  0  0  0
   -2.0711    0.0796    0.1959 H   0  0  0  0  0  0  0  0  0  0  0  0
    0.0691    0.2627    0.2884 C   0  0  1  0  0  0  0  0  0  0  0  0
    0.9077   -0.4355    0.1672 H   0  0  0  0  0  0  0  0  0  0  0  0
    0.1053    1.2808   -0.8720 C   0  0  0  0  0  0  0  0  0  0  0  0
   -0.7907    1.9057   -0.8440 H   0  0  0  0  0  0  0  0  0  0  0  0
    0.9737    1.9342   -0.7502 H   0  0  0  0  0  0  0  0  0  0  0  0
    0.2071    0.6487   -2.2581 C   0  0  0  0  0  0  0  0  0  0  0  0
    0.7613   -0.4260   -2.4042 O   0  0  0  0  0  0  0  0  0  0  0  0
   -0.3381    1.3490   -3.2792 O   0  0  0  0  0  0  0  0  0  0  0  0
   -0.1781    0.8180   -4.0755 H   0  0  0  0  0  0  0  0  0  0  0  0
    0.2729    0.9425    1.6624 C   0  0  0  0  0  0  0  0  0  0  0  0
    0.7901    0.3360    2.5876 O   0  0  0  0  0  0  0  0  0  0  0  0
   -0.1685    2.2361    1.8890 N   0  0  0  0  0  0  0  0  0  0  0  0
   -0.5769    2.7390    1.1083 H   0  0  0  0  0  0  0  0  0  0  0  0
    0.0074    2.9289    3.1604 C   0  0  0  0  0  0  0  0  0  0  0  0
    1.0712    3.0113    3.4074 H   0  0  0  0  0  0  0  0  0  0  0  0
   -0.4136    3.9374    3.1046 H   0  0  0  0  0  0  0  0  0  0  0  0
   -0.4994    2.3867    3.9657 H   0  0  0  0  0  0  0  0  0  0  0  0
  1  2  1  0  0  0  0
  2  3  1  0  0  0  0
  2  4  1  0  0  0  0
  2  5  1  0  0  0  0
  5  6  2  0  0  0  0
  5  7  1  0  0  0  0
  7  8  1  0  0  0  0
  7  9  1  0  0  0  0
  9 10  1  0  0  0  0
  9 11  1  0  0  0  0
  9 18  1  0  0  0  0
 11 12  1  0  0  0  0
 11 13  1  0  0  0  0
 11 14  1  0  0  0  0
 14 15  2  0  0  0  0
 14 16  1  0  0  0  0
 16 17  1  0  0  0  0
 18 19  2  0  0  0  0
 18 20  1  0  0  0  0
 20 21  1  0  0  0  0
 20 22  1  0  0  0  0
 22 23  1  0  0  0  0
 22 24  1  0  0  0  0
 22 25  1  0  0  0  0
M  END
$$$$

  -OEChem-01062216063D

 25 24  0     1  0  0  0  0  0999 V2000
   -2.6888   -3.4803    0.9323 H   0  0  0  0  0  0  0  0  0  0  0  0
   -2.7514   -2.4303    0.6325 C   0  0  0  0  0  0  0  0  0  0  0  0
   -3.4158   -1.9064    1.3235 H   0  0  0  0  0  0  0  0  0  0  0  0
   -3.1669   -2.3775   -0.3764 H   0  0  0  0  0  0  0  0  0  0  0  0
   -1.3725   -1.7981    0.6598 C   0  0  0  0  0  0  0  0  0  0  0  0
   -0.4128   -2.4637    1.0058 O   0  0  0  0  0  0  0  0  0  0  0  0
   -1.2229   -0.4746    0.2898 N   0  0  0  0  0  0  0  0  0  0  0  0
   -2.0668    0.0281    0.0356 H   0  0  0  0  0  0  0  0  0  0  0  0
    0.0595    0.2497    0.3321 C   0  0  1  0  0  0  0  0  0  0  0  0
    0.8934   -0.4525    0.2004 H   0  0  0  0  0  0  0  0  0  0  0  0
    0.0872    1.2738   -0.8215 C   0  0  0  0  0  0  0  0  0  0  0  0
   -0.8035    1.9053   -0.7792 H   0  0  0  0  0  0  0  0  0  0  0  0
    0.9598    1.9227   -0.7029 H   0  0  0  0  0  0  0  0  0  0  0  0
    0.1727    0.6485   -2.2114 C   0  0  0  0  0  0  0  0  0  0  0  0
    0.7215   -0.4276   -2.3683 O   0  0  0  0  0  0  0  0  0  0  0  0
   -0.3886    1.3512   -3.2219 O   0  0  0  0  0  0  0  0  0  0  0  0
   -0.2315    0.8290   -4.0244 H   0  0  0  0  0  0  0  0  0  0  0  0
    0.2849    0.9405    1.6953 C   0  0  0  0  0  0  0  0  0  0  0  0
    1.1377    0.5325    2.4686 O   0  0  0  0  0  0  0  0  0  0  0  0
   -0.4084    2.0944    2.0218 N   0  0  0  0  0  0  0  0  0  0  0  0
   -1.0974    2.4340    1.3597 H   0  0  0  0  0  0  0  0  0  0  0  0
   -0.2032    2.8243    3.2676 C   0  0  0  0  0  0  0  0  0  0  0  0
    0.8354    3.1624    3.3466 H   0  0  0  0  0  0  0  0  0  0  0  0
   -0.8557    3.7019    3.3054 H   0  0  0  0  0  0  0  0  0  0  0  0
   -0.4315    2.1857    4.1275 H   0  0  0  0  0  0  0  0  0  0  0  0
  1  2  1  0  0  0  0
  2  3  1  0  0  0  0
  2  4  1  0  0  0  0
  2  5  1  0  0  0  0
  5  6  2  0  0  0  0
  5  7  1  0  0  0  0
  7  8  1  0  0  0  0
  7  9  1  0  0  0  0
  9 10  1  0  0  0  0
  9 11  1  0  0  0  0
  9 18  1  0  0  0  0
 11 12  1  0  0  0  0
 11 13  1  0  0  0  0
 11 14  1  0  0  0  0
 14 15  2  0  0  0  0
 14 16  1  0  0  0  0
 16 17  1  0  0  0  0
 18 19  2  0  0  0  0
 18 20  1  0  0  0  0
 20 21  1  0  0  0  0
 20 22  1  0  0  0  0
 22 23  1  0  0  0  0
 22 24  1  0  0  0  0
 22 25  1  0  0  0  0
M  END
$$$$

  -OEChem-01062216063D

 25 24  0     1  0  0  0  0  0999 V2000
   -2.6660   -3.5316    0.7990 H   0  0  0  0  0  0  0  0  0  0  0  0
   -2.7375   -2.4841    0.4921 C   0  0  0  0  0  0  0  0  0  0  0  0
   -3.5345   -2.0033    1.0640 H   0  0  0  0  0  0  0  0  0  0  0  0
   -2.9847   -2.4471   -0.5716 H   0  0  0  0  0  0  0  0  0  0  0  0
   -1.4191   -1.7772    0.7441 C   0  0  0  0  0  0  0  0  0  0  0  0
   -0.5102   -2.3725    1.2948 O   0  0  0  0  0  0  0  0  0  0  0  0
   -1.2641   -0.4600    0.3558 N   0  0  0  0  0  0  0  0  0  0  0  0
   -2.0273   -0.0542   -0.1762 H   0  0  0  0  0  0  0  0  0  0  0  0
    0.0338    0.2382    0.3745 C   0  0  1  0  0  0  0  0  0  0  0  0
    0.8494   -0.4834    0.2323 H   0  0  0  0  0  0  0  0  0  0  0  0
    0.0687    1.2647   -0.7754 C   0  0  0  0  0  0  0  0  0  0  0  0
   -0.8022    1.9220   -0.7127 H   0  0  0  0  0  0  0  0  0  0  0  0
    0.9600    1.8897   -0.6669 H   0  0  0  0  0  0  0  0  0  0  0  0
    0.1179    0.6409   -2.1674 C   0  0  0  0  0  0  0  0  0  0  0  0
    0.6385   -0.4482   -2.3325 O   0  0  0  0  0  0  0  0  0  0  0  0
   -0.4523    1.3512   -3.1673 O   0  0  0  0  0  0  0  0  0  0  0  0
   -0.3133    0.8310   -3.9745 H   0  0  0  0  0  0  0  0  0  0  0  0
    0.3008    0.9385    1.7233 C   0  0  0  0  0  0  0  0  0  0  0  0
    1.3725    0.7910    2.2920 O   0  0  0  0  0  0  0  0  0  0  0  0
   -0.5661    1.9156    2.1815 N   0  0  0  0  0  0  0  0  0  0  0  0
   -1.4653    1.9884    1.7184 H   0  0  0  0  0  0  0  0  0  0  0  0
   -0.3429    2.6647    3.4125 C   0  0  0  0  0  0  0  0  0  0  0  0
    0.6039    3.2130    3.3617 H   0  0  0  0  0  0  0  0  0  0  0  0
   -1.1503    3.3864    3.5687 H   0  0  0  0  0  0  0  0  0  0  0  0
   -0.3111    1.9870    4.2721 H   0  0  0  0  0  0  0  0  0  0  0  0
  1  2  1  0  0  0  0
  2  3  1  0  0  0  0
  2  4  1  0  0  0  0
  2  5  1  0  0  0  0
  5  6  2  0  0  0  0
  5  7  1  0  0  0  0
  7  8  1  0  0  0  0
  7  9  1  0  0  0  0
  9 10  1  0  0  0  0
  9 11  1  0  0  0  0
  9 18  1  0  0  0  0
 11 12  1  0  0  0  0
 11 13  1  0  0  0  0
 11 14  1  0  0  0  0
 14 15  2  0  0  0  0
 14 16  1  0  0  0  0
 16 17  1  0  0  0  0
 18 19  2  0  0  0  0
 18 20  1  0  0  0  0
 20 21  1  0  0  0  0
 20 22  1  0  0  0  0
 22 23  1  0  0  0  0
 22 24  1  0  0  0  0
 22 25  1  0  0  0  0
M  END
$$$$

  -OEChem-01062216063D

 25 24  0     1  0  0  0  0  0999 V2000
   -2.6876   -3.5275    0.8280 H   0  0  0  0  0  0  0  0  0  0  0  0
   -2.7348   -2.5005    0.4543 C   0  0  0  0  0  0  0  0  0  0  0  0
   -3.5684   -1.9878    0.9403 H   0  0  0  0  0  0  0  0  0  0  0  0
   -2.9081   -2.5274   -0.6241 H   0  0  0  0  0  0  0  0  0  0  0  0
   -1.4348   -1.7774    0.7526 C   0  0  0  0  0  0  0  0  0  0  0  0
   -0.5477   -2.3513    1.3591 O   0  0  0  0  0  0  0  0  0  0  0  0
   -1.2762   -0.4615    0.3615 N   0  0  0  0  0  0  0  0  0  0  0  0
   -2.0065   -0.0826   -0.2336 H   0  0  0  0  0  0  0  0  0  0  0  0
    0.0301    0.2223    0.3815 C   0  0  1  0  0  0  0  0  0  0  0  0
    0.8390   -0.5053    0.2333 H   0  0  0  0  0  0  0  0  0  0  0  0
    0.0685    1.2599   -0.7574 C   0  0  0  0  0  0  0  0  0  0  0  0
   -0.7952    1.9257   -0.6797 H   0  0  0  0  0  0  0  0  0  0  0  0
    0.9668    1.8752   -0.6481 H   0  0  0  0  0  0  0  0  0  0  0  0
    0.1029    0.6507   -2.1558 C   0  0  0  0  0  0  0  0  0  0  0  0
    0.6116   -0.4422   -2.3343 O   0  0  0  0  0  0  0  0  0  0  0  0
   -0.4674    1.3760   -3.1451 O   0  0  0  0  0  0  0  0  0  0  0  0
   -0.3334    0.8662   -3.9594 H   0  0  0  0  0  0  0  0  0  0  0  0
    0.3098    0.9213    1.7272 C   0  0  0  0  0  0  0  0  0  0  0  0
    1.4566    1.0089    2.1422 O   0  0  0  0  0  0  0  0  0  0  0  0
   -0.6803    1.6726    2.3352 N   0  0  0  0  0  0  0  0  0  0  0  0
   -1.6283    1.5270    2.0046 H   0  0  0  0  0  0  0  0  0  0  0  0
   -0.4690    2.4127    3.5735 C   0  0  0  0  0  0  0  0  0  0  0  0
    0.3237    3.1573    3.4444 H   0  0  0  0  0  0  0  0  0  0  0  0
   -1.3860    2.9335    3.8650 H   0  0  0  0  0  0  0  0  0  0  0  0
   -0.1834    1.7318    4.3823 H   0  0  0  0  0  0  0  0  0  0  0  0
  1  2  1  0  0  0  0
  2  3  1  0  0  0  0
  2  4  1  0  0  0  0
  2  5  1  0  0  0  0
  5  6  2  0  0  0  0
  5  7  1  0  0  0  0
  7  8  1  0  0  0  0
  7  9  1  0  0  0  0
  9 10  1  0  0  0  0
  9 11  1  0  0  0  0
  9 18  1  0  0  0  0
 11 12  1  0  0  0  0
 11 13  1  0  0  0  0
 11 14  1  0  0  0  0
 14 15  2  0  0  0  0
 14 16  1  0  0  0  0
 16 17  1  0  0  0  0
 18 19  2  0  0  0  0
 18 20  1  0  0  0  0
 20 21  1  0  0  0  0
 20 22  1  0  0  0  0
 22 23  1  0  0  0  0
 22 24  1  0  0  0  0
 22 25  1  0  0  0  0
M  END
$$$$

  -OEChem-01062216063D

 25 24  0     1  0  0  0  0  0999 V2000
   -2.6817   -3.5327    0.7876 H   0  0  0  0  0  0  0  0  0  0  0  0
   -2.7285   -2.5055    0.4148 C   0  0  0  0  0  0  0  0  0  0  0  0
   -3.5829   -2.0031    0.8745 H   0  0  0  0  0  0  0  0  0  0  0  0
   -2.8673   -2.5322   -0.6687 H   0  0  0  0  0  0  0  0  0  0  0  0
   -1.4465   -1.7687    0.7547 C   0  0  0  0  0  0  0  0  0  0  0  0
   -0.5769   -2.3264    1.4009 O   0  0  0  0  0  0  0  0  0  0  0  0
   -1.2842   -0.4540    0.3625 N   0  0  0  0  0  0  0  0  0  0  0  0
   -1.9979   -0.0843   -0.2585 H   0  0  0  0  0  0  0  0  0  0  0  0
    0.0278    0.2204    0.3852 C   0  0  1  0  0  0  0  0  0  0  0  0
    0.8325   -0.5115    0.2364 H   0  0  0  0  0  0  0  0  0  0  0  0
    0.0645    1.2561   -0.7556 C   0  0  0  0  0  0  0  0  0  0  0  0
   -0.7971    1.9239   -0.6734 H   0  0  0  0  0  0  0  0  0  0  0  0
    0.9644    1.8702   -0.6525 H   0  0  0  0  0  0  0  0  0  0  0  0
    0.0915    0.6438   -2.1527 C   0  0  0  0  0  0  0  0  0  0  0  0
    0.5966   -0.4513   -2.3301 O   0  0  0  0  0  0  0  0  0  0  0  0
   -0.4840    1.3662   -3.1410 O   0  0  0  0  0  0  0  0  0  0  0  0
   -0.3545    0.8549   -3.9551 H   0  0  0  0  0  0  0  0  0  0  0  0
    0.3185    0.9206    1.7289 C   0  0  0  0  0  0  0  0  0  0  0  0
    1.4676    1.2239    2.0182 O   0  0  0  0  0  0  0  0  0  0  0  0
   -0.7206    1.4192    2.4938 N   0  0  0  0  0  0  0  0  0  0  0  0
   -1.6477    1.0721    2.2705 H   0  0  0  0  0  0  0  0  0  0  0  0
   -0.5132    2.1193    3.7557 C   0  0  0  0  0  0  0  0  0  0  0  0
    0.1004    3.0131    3.6013 H   0  0  0  0  0  0  0  0  0  0  0  0
   -1.4730    2.4302    4.1794 H   0  0  0  0  0  0  0  0  0  0  0  0
   -0.0092    1.4673    4.4770 H   0  0  0  0  0  0  0  0  0  0  0  0
  1  2  1  0  0  0  0
  2  3  1  0  0  0  0
  2  4  1  0  0  0  0
  2  5  1  0  0  0  0
  5  6  2  0  0  0  0
  5  7  1  0  0  0  0
  7  8  1  0  0  0  0
  7  9  1  0  0  0  0
  9 10  1  0  0  0  0
  9 11  1  0  0  0  0
  9 18  1  0  0  0  0
 11 12  1  0  0  0  0
 11 13  1  0  0  0  0
 11 14  1  0  0  0  0
 14 15  2  0  0  0  0
 14 16  1  0  0  0  0
 16 17  1  0  0  0  0
 18 19  2  0  0  0  0
 18 20  1  0  0  0  0
 20 21  1  0  0  0  0
 20 22  1  0  0  0  0
 22 23  1  0  0  0  0
 22 24  1  0  0  0  0
 22 25  1  0  0  0  0
M  END
$$$$

  -OEChem-01062216063D

 25 24  0     1  0  0  0  0  0999 V2000
   -2.6890   -3.5236    0.7781 H   0  0  0  0  0  0  0  0  0  0  0  0
   -2.7253   -2.5037    0.3848 C   0  0  0  0  0  0  0  0  0  0  0  0
   -3.5941   -1.9940    0.8080 H   0  0  0  0  0  0  0  0  0  0  0  0
   -2.8306   -2.5508   -0.7018 H   0  0  0  0  0  0  0  0  0  0  0  0
   -1.4549   -1.7589    0.7498 C   0  0  0  0  0  0  0  0  0  0  0  0
   -0.5989   -2.3053    1.4234 O   0  0  0  0  0  0  0  0  0  0  0  0
   -1.2896   -0.4444    0.3593 N   0  0  0  0  0  0  0  0  0  0  0  0
   -1.9995   -0.0725   -0.2651 H   0  0  0  0  0  0  0  0  0  0  0  0
    0.0237    0.2290    0.3857 C   0  0  1  0  0  0  0  0  0  0  0  0
    0.8279   -0.5032    0.2385 H   0  0  0  0  0  0  0  0  0  0  0  0
    0.0556    1.2581   -0.7632 C   0  0  0  0  0  0  0  0  0  0  0  0
   -0.8078    1.9239   -0.6833 H   0  0  0  0  0  0  0  0  0  0  0  0
    0.9529    1.8771   -0.6691 H   0  0  0  0  0  0  0  0  0  0  0  0
    0.0838    0.6361   -2.1559 C   0  0  0  0  0  0  0  0  0  0  0  0
    0.5932   -0.4586   -2.3250 O   0  0  0  0  0  0  0  0  0  0  0  0
   -0.4927    1.3495   -3.1502 O   0  0  0  0  0  0  0  0  0  0  0  0
   -0.3601    0.8329   -3.9602 H   0  0  0  0  0  0  0  0  0  0  0  0
    0.3204    0.9314    1.7289 C   0  0  0  0  0  0  0  0  0  0  0  0
    1.4202    1.4315    1.9224 O   0  0  0  0  0  0  0  0  0  0  0  0
   -0.6918    1.1618    2.6423 N   0  0  0  0  0  0  0  0  0  0  0  0
   -1.5449    0.6306    2.5001 H   0  0  0  0  0  0  0  0  0  0  0  0
   -0.4652    1.7984    3.9340 C   0  0  0  0  0  0  0  0  0  0  0  0
   -0.0494    2.8024    3.7989 H   0  0  0  0  0  0  0  0  0  0  0  0
   -1.4073    1.8877    4.4831 H   0  0  0  0  0  0  0  0  0  0  0  0
    0.2330    1.2062    4.5349 H   0  0  0  0  0  0  0  0  0  0  0  0
  1  2  1  0  0  0  0
  2  3  1  0  0  0  0
  2  4  1  0  0  0  0
  2  5  1  0  0  0  0
  5  6  2  0  0  0  0
  5  7  1  0  0  0  0
  7  8  1  0  0  0  0
  7  9  1  0  0  0  0
  9 10  1  0  0  0  0
  9 11  1  0  0  0  0
  9 18  1  0  0  0  0
 11 12  1  0  0  0  0
 11 13  1  0  0  0  0
 11 14  1  0  0  0  0
 14 15  2  0  0  0  0
 14 16  1  0  0  0  0
 16 17  1  0  0  0  0
 18 19  2  0  0  0  0
 18 20  1  0  0  0  0
 20 21  1  0  0  0  0
 20 22  1  0  0  0  0
 22 23  1  0  0  0  0
 22 24  1  0  0  0  0
 22 25  1  0  0  0  0
M  END
$$$$

  -OEChem-01062216063D

 25 24  0     1  0  0  0  0  0999 V2000
   -2.6890   -3.5093    0.7494 H   0  0  0  0  0  0  0  0  0  0  0  0
   -2.7262   -2.4849    0.3681 C   0  0  0  0  0  0  0  0  0  0  0  0
   -3.5954   -1.9806    0.7971 H   0  0  0  0  0  0  0  0  0  0  0  0
   -2.8313   -2.5191   -0.7191 H   0  0  0  0  0  0  0  0  0  0  0  0
   -1.4567   -1.7438    0.7417 C   0  0  0  0  0  0  0  0  0  0  0  0
   -0.6126   -2.2841    1.4353 O   0  0  0  0  0  0  0  0  0  0  0  0
   -1.2859   -0.4292    0.3574 N   0  0  0  0  0  0  0  0  0  0  0  0
   -2.0016   -0.0444   -0.2526 H   0  0  0  0  0  0  0  0  0  0  0  0
    0.0277    0.2438    0.3855 C   0  0  1  0  0  0  0  0  0  0  0  0
    0.8315   -0.4887    0.2400 H   0  0  0  0  0  0  0  0  0  0  0  0
    0.0522    1.2628   -0.7744 C   0  0  0  0  0  0  0  0  0  0  0  0
   -0.8137    1.9259   -0.6989 H   0  0  0  0  0  0  0  0  0  0  0  0
    0.9470    1.8869   -0.6921 H   0  0  0  0  0  0  0  0  0  0  0  0
    0.0808    0.6257   -2.1604 C   0  0  0  0  0  0  0  0  0  0  0  0
    0.5955   -0.4683   -2.3181 O   0  0  0  0  0  0  0  0  0  0  0  0
   -0.5041    1.3233   -3.1612 O   0  0  0  0  0  0  0  0  0  0  0  0
   -0.3726    0.7977   -3.9655 H   0  0  0  0  0  0  0  0  0  0  0  0
    0.3236    0.9416    1.7340 C   0  0  0  0  0  0  0  0  0  0  0  0
    1.3245    1.6349    1.8593 O   0  0  0  0  0  0  0  0  0  0  0  0
   -0.5946    0.8971    2.7668 N   0  0  0  0  0  0  0  0  0  0  0  0
   -1.3143    0.1855    2.6789 H   0  0  0  0  0  0  0  0  0  0  0  0
   -0.3395    1.4758    4.0800 C   0  0  0  0  0  0  0  0  0  0  0  0
   -0.1380    2.5487    3.9940 H   0  0  0  0  0  0  0  0  0  0  0  0
   -1.2102    1.3405    4.7286 H   0  0  0  0  0  0  0  0  0  0  0  0
    0.5232    0.9923    4.5500 H   0  0  0  0  0  0  0  0  0  0  0  0
  1  2  1  0  0  0  0
  2  3  1  0  0  0  0
  2  4  1  0  0  0  0
  2  5  1  0  0  0  0
  5  6  2  0  0  0  0
  5  7  1  0  0  0  0
  7  8  1  0  0  0  0
  7  9  1  0  0  0  0
  9 10  1  0  0  0  0
  9 11  1  0  0  0  0
  9 18  1  0  0  0  0
 11 12  1  0  0  0  0
 11 13  1  0  0  0  0
 11 14  1  0  0  0  0
 14 15  2  0  0  0  0
 14 16  1  0  0  0  0
 16 17  1  0  0  0  0
 18 19  2  0  0  0  0
 18 20  1  0  0  0  0
 20 21  1  0  0  0  0
 20 22  1  0  0  0  0
 22 23  1  0  0  0  0
 22 24  1  0  0  0  0
 22 25  1  0  0  0  0
M  END
$$$$

  -OEChem-01062216063D

 25 24  0     1  0  0  0  0  0999 V2000
   -2.7046   -3.4857    0.7581 H   0  0  0  0  0  0  0  0  0  0  0  0
   -2.7307   -2.4659    0.3637 C   0  0  0  0  0  0  0  0  0  0  0  0
   -3.5991   -1.9490    0.7789 H   0  0  0  0  0  0  0  0  0  0  0  0
   -2.8268   -2.5127   -0.7238 H   0  0  0  0  0  0  0  0  0  0  0  0
   -1.4592   -1.7290    0.7389 C   0  0  0  0  0  0  0  0  0  0  0  0
   -0.6264   -2.2612    1.4532 O   0  0  0  0  0  0  0  0  0  0  0  0
   -1.2829   -0.4137    0.3622 N   0  0  0  0  0  0  0  0  0  0  0  0
   -2.0037   -0.0180   -0.2346 H   0  0  0  0  0  0  0  0  0  0  0  0
    0.0318    0.2571    0.3850 C   0  0  1  0  0  0  0  0  0  0  0  0
    0.8332   -0.4771    0.2365 H   0  0  0  0  0  0  0  0  0  0  0  0
    0.0516    1.2695   -0.7823 C   0  0  0  0  0  0  0  0  0  0  0  0
   -0.8140    1.9332   -0.7069 H   0  0  0  0  0  0  0  0  0  0  0  0
    0.9464    1.8947   -0.7113 H   0  0  0  0  0  0  0  0  0  0  0  0
    0.0751    0.6224   -2.1636 C   0  0  0  0  0  0  0  0  0  0  0  0
    0.5898   -0.4729   -2.3148 O   0  0  0  0  0  0  0  0  0  0  0  0
   -0.5137    1.3119   -3.1675 O   0  0  0  0  0  0  0  0  0  0  0  0
   -0.3860    0.7799   -3.9682 H   0  0  0  0  0  0  0  0  0  0  0  0
    0.3304    0.9440    1.7409 C   0  0  0  0  0  0  0  0  0  0  0  0
    1.1760    1.8261    1.8205 O   0  0  0  0  0  0  0  0  0  0  0  0
   -0.4229    0.6374    2.8589 N   0  0  0  0  0  0  0  0  0  0  0  0
   -0.9496   -0.2313    2.7952 H   0  0  0  0  0  0  0  0  0  0  0  0
   -0.1374    1.1818    4.1805 C   0  0  0  0  0  0  0  0  0  0  0  0
   -0.1629    2.2764    4.1588 H   0  0  0  0  0  0  0  0  0  0  0  0
   -0.8845    0.8357    4.9009 H   0  0  0  0  0  0  0  0  0  0  0  0
    0.8519    0.8593    4.5216 H   0  0  0  0  0  0  0  0  0  0  0  0
  1  2  1  0  0  0  0
  2  3  1  0  0  0  0
  2  4  1  0  0  0  0
  2  5  1  0  0  0  0
  5  6  2  0  0  0  0
  5  7  1  0  0  0  0
  7  8  1  0  0  0  0
  7  9  1  0  0  0  0
  9 10  1  0  0  0  0
  9 11  1  0  0  0  0
  9 18  1  0  0  0  0
 11 12  1  0  0  0  0
 11 13  1  0  0  0  0
 11 14  1  0  0  0  0
 14 15  2  0  0  0  0
 14 16  1  0  0  0  0
 16 17  1  0  0  0  0
 18 19  2  0  0  0  0
 18 20  1  0  0  0  0
 20 21  1  0  0  0  0
 20 22  1  0  0  0  0
 22 23  1  0  0  0  0
 22 24  1  0  0  0  0
 22 25  1  0  0  0  0
M  END
$$$$

  -OEChem-01062216063D

 25 24  0     1  0  0  0  0  0999 V2000
   -2.7026   -3.4679    0.7720 H   0  0  0  0  0  0  0  0  0  0  0  0
   -2.7360   -2.4426    0.3932 C   0  0  0  0  0  0  0  0  0  0  0  0
   -3.5919   -1.9297    0.8384 H   0  0  0  0  0  0  0  0  0  0  0  0
   -2.8611   -2.4736   -0.6918 H   0  0  0  0  0  0  0  0  0  0  0  0
   -1.4528   -1.7147    0.7450 C   0  0  0  0  0  0  0  0  0  0  0  0
   -0.6102   -2.2531    1.4449 O   0  0  0  0  0  0  0  0  0  0  0  0
   -1.2743   -0.3994    0.3694 N   0  0  0  0  0  0  0  0  0  0  0  0
   -2.0096    0.0113   -0.1989 H   0  0  0  0  0  0  0  0  0  0  0  0
    0.0403    0.2705    0.3807 C   0  0  1  0  0  0  0  0  0  0  0  0
    0.8404   -0.4647    0.2313 H   0  0  0  0  0  0  0  0  0  0  0  0
    0.0601    1.2756   -0.7937 C   0  0  0  0  0  0  0  0  0  0  0  0
   -0.8022    1.9436   -0.7206 H   0  0  0  0  0  0  0  0  0  0  0  0
    0.9579    1.8973   -0.7290 H   0  0  0  0  0  0  0  0  0  0  0  0
    0.0786    0.6193   -2.1710 C   0  0  0  0  0  0  0  0  0  0  0  0
    0.5902   -0.4785   -2.3151 O   0  0  0  0  0  0  0  0  0  0  0  0
   -0.5081    1.3041   -3.1796 O   0  0  0  0  0  0  0  0  0  0  0  0
   -0.3839    0.7657   -3.9764 H   0  0  0  0  0  0  0  0  0  0  0  0
    0.3358    0.9495    1.7418 C   0  0  0  0  0  0  0  0  0  0  0  0
    0.9827    1.9875    1.8074 O   0  0  0  0  0  0  0  0  0  0  0  0
   -0.1948    0.4168    2.9017 N   0  0  0  0  0  0  0  0  0  0  0  0
   -0.5472   -0.5371    2.8154 H   0  0  0  0  0  0  0  0  0  0  0  0
    0.1166    0.9290    4.2300 C   0  0  0  0  0  0  0  0  0  0  0  0
   -0.1523    1.9878    4.3063 H   0  0  0  0  0  0  0  0  0  0  0  0
   -0.4456    0.3764    4.9889 H   0  0  0  0  0  0  0  0  0  0  0  0
    1.1857    0.8209    4.4408 H   0  0  0  0  0  0  0  0  0  0  0  0
  1  2  1  0  0  0  0
  2  3  1  0  0  0  0
  2  4  1  0  0  0  0
  2  5  1  0  0  0  0
  5  6  2  0  0  0  0
  5  7  1  0  0  0  0
  7  8  1  0  0  0  0
  7  9  1  0  0  0  0
  9 10  1  0  0  0  0
  9 11  1  0  0  0  0
  9 18  1  0  0  0  0
 11 12  1  0  0  0  0
 11 13  1  0  0  0  0
 11 14  1  0  0  0  0
 14 15  2  0  0  0  0
 14 16  1  0  0  0  0
 16 17  1  0  0  0  0
 18 19  2  0  0  0  0
 18 20  1  0  0  0  0
 20 21  1  0  0  0  0
 20 22  1  0  0  0  0
 22 23  1  0  0  0  0
 22 24  1  0  0  0  0
 22 25  1  0  0  0  0
M  END
$$$$

  -OEChem-01062216063D

 25 24  0     1  0  0  0  0  0999 V2000
   -2.6979   -3.4541    0.8114 H   0  0  0  0  0  0  0  0  0  0  0  0
   -2.7407   -2.4202    0.4572 C   0  0  0  0  0  0  0  0  0  0  0  0
   -3.5587   -1.9060    0.9673 H   0  0  0  0  0  0  0  0  0  0  0  0
   -2.9356   -2.4258   -0.6179 H   0  0  0  0  0  0  0  0  0  0  0  0
   -1.4279   -1.7160    0.7419 C   0  0  0  0  0  0  0  0  0  0  0  0
   -0.5537   -2.2779    1.3840 O   0  0  0  0  0  0  0  0  0  0  0  0
   -1.2502   -0.4004    0.3654 N   0  0  0  0  0  0  0  0  0  0  0  0
   -2.0124    0.0379   -0.1440 H   0  0  0  0  0  0  0  0  0  0  0  0
    0.0616    0.2723    0.3679 C   0  0  1  0  0  0  0  0  0  0  0  0
    0.8644   -0.4589    0.2151 H   0  0  0  0  0  0  0  0  0  0  0  0
    0.0771    1.2786   -0.8050 C   0  0  0  0  0  0  0  0  0  0  0  0
   -0.7865    1.9449   -0.7275 H   0  0  0  0  0  0  0  0  0  0  0  0
    0.9739    1.9014   -0.7393 H   0  0  0  0  0  0  0  0  0  0  0  0
    0.0910    0.6257   -2.1835 C   0  0  0  0  0  0  0  0  0  0  0  0
    0.6028   -0.4716   -2.3312 O   0  0  0  0  0  0  0  0  0  0  0  0
   -0.4931    1.3152   -3.1903 O   0  0  0  0  0  0  0  0  0  0  0  0
   -0.3720    0.7779   -3.9882 H   0  0  0  0  0  0  0  0  0  0  0  0
    0.3471    0.9462    1.7322 C   0  0  0  0  0  0  0  0  0  0  0  0
    0.7661    2.0947    1.8087 O   0  0  0  0  0  0  0  0  0  0  0  0
    0.0865    0.2467    2.8949 N   0  0  0  0  0  0  0  0  0  0  0  0
   -0.1453   -0.7417    2.7766 H   0  0  0  0  0  0  0  0  0  0  0  0
    0.3957    0.7496    4.2268 C   0  0  0  0  0  0  0  0  0  0  0  0
   -0.1270    1.6942    4.4107 H   0  0  0  0  0  0  0  0  0  0  0  0
    0.0794    0.0274    4.9855 H   0  0  0  0  0  0  0  0  0  0  0  0
    1.4727    0.9162    4.3324 H   0  0  0  0  0  0  0  0  0  0  0  0
  1  2  1  0  0  0  0
  2  3  1  0  0  0  0
  2  4  1  0  0  0  0
  2  5  1  0  0  0  0
  5  6  2  0  0  0  0
  5  7  1  0  0  0  0
  7  8  1  0  0  0  0
  7  9  1  0  0  0  0
  9 10  1  0  0  0  0
  9 11  1  0  0  0  0
  9 18  1  0  0  0  0
 11 12  1  0  0  0  0
 11 13  1  0  0  0  0
 11 14  1  0  0  0  0
 14 15  2  0  0  0  0
 14 16  1  0  0  0  0
 16 17  1  0  0  0  0
 18 19  2  0  0  0  0
 18 20  1  0  0  0  0
 20 21  1  0  0  0  0
 20 22  1  0  0  0  0
 22 23  1  0  0  0  0
 22 24  1  0  0  0  0
 22 25  1  0  0  0  0
M  END
$$$$

  -OEChem-01062216063D

 25 24  0     1  0  0  0  0  0999 V2000
   -2.6769   -3.4371    0.8586 H   0  0  0  0  0  0  0  0  0  0  0  0
   -2.7308   -2.3949    0.5315 C   0  0  0  0  0  0  0  0  0  0  0  0
   -3.5066   -1.8840    1.1070 H   0  0  0  0  0  0  0  0  0  0  0  0
   -2.9973   -2.3728   -0.5279 H   0  0  0  0  0  0  0  0  0  0  0  0
   -1.3931   -1.7120    0.7436 C   0  0  0  0  0  0  0  0  0  0  0  0
   -0.4899   -2.2936    1.3264 O   0  0  0  0  0  0  0  0  0  0  0  0
   -1.2176   -0.3975    0.3622 N   0  0  0  0  0  0  0  0  0  0  0  0
   -2.0033    0.0670   -0.0844 H   0  0  0  0  0  0  0  0  0  0  0  0
    0.0945    0.2705    0.3474 C   0  0  1  0  0  0  0  0  0  0  0  0
    0.8965   -0.4594    0.1842 H   0  0  0  0  0  0  0  0  0  0  0  0
    0.1024    1.2810   -0.8209 C   0  0  0  0  0  0  0  0  0  0  0  0
   -0.7583    1.9497   -0.7324 H   0  0  0  0  0  0  0  0  0  0  0  0
    1.0017    1.9005   -0.7574 H   0  0  0  0  0  0  0  0  0  0  0  0
    0.0974    0.6341   -2.2024 C   0  0  0  0  0  0  0  0  0  0  0  0
    0.6018   -0.4652   -2.3598 O   0  0  0  0  0  0  0  0  0  0  0  0
   -0.4943    1.3304   -3.2001 O   0  0  0  0  0  0  0  0  0  0  0  0
   -0.3895    0.7929   -4.0002 H   0  0  0  0  0  0  0  0  0  0  0  0
    0.3801    0.9384    1.7116 C   0  0  0  0  0  0  0  0  0  0  0  0
    0.5539    2.1463    1.8194 O   0  0  0  0  0  0  0  0  0  0  0  0
    0.4215    0.1437    2.8403 N   0  0  0  0  0  0  0  0  0  0  0  0
    0.2586   -0.8559    2.6985 H   0  0  0  0  0  0  0  0  0  0  0  0
    0.6778    0.6468    4.1828 C   0  0  0  0  0  0  0  0  0  0  0  0
   -0.0908    1.3703    4.4737 H   0  0  0  0  0  0  0  0  0  0  0  0
    0.6683   -0.1771    4.9028 H   0  0  0  0  0  0  0  0  0  0  0  0
    1.6571    1.1346    4.2281 H   0  0  0  0  0  0  0  0  0  0  0  0
  1  2  1  0  0  0  0
  2  3  1  0  0  0  0
  2  4  1  0  0  0  0
  2  5  1  0  0  0  0
  5  6  2  0  0  0  0
  5  7  1  0  0  0  0
  7  8  1  0  0  0  0
  7  9  1  0  0  0  0
  9 10  1  0  0  0  0
  9 11  1  0  0  0  0
  9 18  1  0  0  0  0
 11 12  1  0  0  0  0
 11 13  1  0  0  0  0
 11 14  1  0  0  0  0
 14 15  2  0  0  0  0
 14 16  1  0  0  0  0
 16 17  1  0  0  0  0
 18 19  2  0  0  0  0
 18 20  1  0  0  0  0
 20 21  1  0  0  0  0
 20 22  1  0  0  0  0
 22 23  1  0  0  0  0
 22 24  1  0  0  0  0
 22 25  1  0  0  0  0
M  END
$$$$

  -OEChem-01062216063D

 25 24  0     1  0  0  0  0  0999 V2000
   -2.6451   -3.4236    0.9033 H   0  0  0  0  0  0  0  0  0  0  0  0
   -2.7087   -2.3789    0.5862 C   0  0  0  0  0  0  0  0  0  0  0  0
   -3.4630   -1.8709    1.1918 H   0  0  0  0  0  0  0  0  0  0  0  0
   -3.0115   -2.3484   -0.4632 H   0  0  0  0  0  0  0  0  0  0  0  0
   -1.3633   -1.6997    0.7563 C   0  0  0  0  0  0  0  0  0  0  0  0
   -0.4407   -2.2859    1.3044 O   0  0  0  0  0  0  0  0  0  0  0  0
   -1.1933   -0.3880    0.3626 N   0  0  0  0  0  0  0  0  0  0  0  0
   -1.9917    0.0902   -0.0454 H   0  0  0  0  0  0  0  0  0  0  0  0
    0.1208    0.2708    0.3293 C   0  0  1  0  0  0  0  0  0  0  0  0
    0.9199   -0.4598    0.1558 H   0  0  0  0  0  0  0  0  0  0  0  0
    0.1208    1.2843   -0.8356 C   0  0  0  0  0  0  0  0  0  0  0  0
   -0.7355    1.9573   -0.7353 H   0  0  0  0  0  0  0  0  0  0  0  0
    1.0238    1.8990   -0.7785 H   0  0  0  0  0  0  0  0  0  0  0  0
    0.0925    0.6403   -2.2184 C   0  0  0  0  0  0  0  0  0  0  0  0
    0.5865   -0.4626   -2.3846 O   0  0  0  0  0  0  0  0  0  0  0  0
   -0.5059    1.3434   -3.2075 O   0  0  0  0  0  0  0  0  0  0  0  0
   -0.4192    0.8048   -4.0090 H   0  0  0  0  0  0  0  0  0  0  0  0
    0.4113    0.9404    1.6890 C   0  0  0  0  0  0  0  0  0  0  0  0
    0.3478    2.1545    1.8404 O   0  0  0  0  0  0  0  0  0  0  0  0
    0.7612    0.1323    2.7527 N   0  0  0  0  0  0  0  0  0  0  0  0
    0.6587   -0.8736    2.6021 H   0  0  0  0  0  0  0  0  0  0  0  0
    0.9718    0.6288    4.1059 C   0  0  0  0  0  0  0  0  0  0  0  0
    0.0538    1.0815    4.4949 H   0  0  0  0  0  0  0  0  0  0  0  0
    1.2618   -0.1929    4.7678 H   0  0  0  0  0  0  0  0  0  0  0  0
    1.7689    1.3796    4.1191 H   0  0  0  0  0  0  0  0  0  0  0  0
  1  2  1  0  0  0  0
  2  3  1  0  0  0  0
  2  4  1  0  0  0  0
  2  5  1  0  0  0  0
  5  6  2  0  0  0  0
  5  7  1  0  0  0  0
  7  8  1  0  0  0  0
  7  9  1  0  0  0  0
  9 10  1  0  0  0  0
  9 11  1  0  0  0  0
  9 18  1  0  0  0  0
 11 12  1  0  0  0  0
 11 13  1  0  0  0  0
 11 14  1  0  0  0  0
 14 15  2  0  0  0  0
 14 16  1  0  0  0  0
 16 17  1  0  0  0  0
 18 19  2  0  0  0  0
 18 20  1  0  0  0  0
 20 21  1  0  0  0  0
 20 22  1  0  0  0  0
 22 23  1  0  0  0  0
 22 24  1  0  0  0  0
 22 25  1  0  0  0  0
M  END
$$$$

  -OEChem-01062216063D

 25 24  0     1  0  0  0  0  0999 V2000
   -2.6402   -3.4163    0.9727 H   0  0  0  0  0  0  0  0  0  0  0  0
   -2.7050   -2.3728    0.6519 C   0  0  0  0  0  0  0  0  0  0  0  0
   -3.4036   -1.8453    1.3058 H   0  0  0  0  0  0  0  0  0  0  0  0
   -3.0821   -2.3435   -0.3731 H   0  0  0  0  0  0  0  0  0  0  0  0
   -1.3377   -1.7196    0.7200 C   0  0  0  0  0  0  0  0  0  0  0  0
   -0.3861   -2.3299    1.1863 O   0  0  0  0  0  0  0  0  0  0  0  0
   -1.1770   -0.4061    0.3277 N   0  0  0  0  0  0  0  0  0  0  0  0
   -2.0032    0.1123    0.0417 H   0  0  0  0  0  0  0  0  0  0  0  0
    0.1291    0.2656    0.3062 C   0  0  1  0  0  0  0  0  0  0  0  0
    0.9373   -0.4547    0.1317 H   0  0  0  0  0  0  0  0  0  0  0  0
    0.1281    1.2896   -0.8488 C   0  0  0  0  0  0  0  0  0  0  0  0
   -0.7372    1.9516   -0.7499 H   0  0  0  0  0  0  0  0  0  0  0  0
    1.0229    1.9139   -0.7769 H   0  0  0  0  0  0  0  0  0  0  0  0
    0.1147    0.6590   -2.2379 C   0  0  0  0  0  0  0  0  0  0  0  0
    0.6197   -0.4378   -2.4110 O   0  0  0  0  0  0  0  0  0  0  0  0
   -0.4773    1.3691   -3.2257 O   0  0  0  0  0  0  0  0  0  0  0  0
   -0.3839    0.8362   -4.0301 H   0  0  0  0  0  0  0  0  0  0  0  0
    0.3979    0.9369    1.6679 C   0  0  0  0  0  0  0  0  0  0  0  0
    0.0761    2.0995    1.8823 O   0  0  0  0  0  0  0  0  0  0  0  0
    1.0404    0.2078    2.6491 N   0  0  0  0  0  0  0  0  0  0  0  0
    1.1103   -0.7964    2.4824 H   0  0  0  0  0  0  0  0  0  0  0  0
    1.2594    0.7106    3.9989 C   0  0  0  0  0  0  0  0  0  0  0  0
    0.3034    0.9240    4.4883 H   0  0  0  0  0  0  0  0  0  0  0  0
    1.7974   -0.0324    4.5954 H   0  0  0  0  0  0  0  0  0  0  0  0
    1.8556    1.6288    3.9739 H   0  0  0  0  0  0  0  0  0  0  0  0
  1  2  1  0  0  0  0
  2  3  1  0  0  0  0
  2  4  1  0  0  0  0
  2  5  1  0  0  0  0
  5  6  2  0  0  0  0
  5  7  1  0  0  0  0
  7  8  1  0  0  0  0
  7  9  1  0  0  0  0
  9 10  1  0  0  0  0
  9 11  1  0  0  0  0
  9 18  1  0  0  0  0
 11 12  1  0  0  0  0
 11 13  1  0  0  0  0
 11 14  1  0  0  0  0
 14 15  2  0  0  0  0
 14 16  1  0  0  0  0
 16 17  1  0  0  0  0
 18 19  2  0  0  0  0
 18 20  1  0  0  0  0
 20 21  1  0  0  0  0
 20 22  1  0  0  0  0
 22 23  1  0  0  0  0
 22 24  1  0  0  0  0
 22 25  1  0  0  0  0
M  END
$$$$

  -OEChem-01062216063D

 25 24  0     1  0  0  0  0  0999 V2000
   -2.6482   -3.4046    1.0292 H   0  0  0  0  0  0  0  0  0  0  0  0
   -2.7098   -2.3618    0.7057 C   0  0  0  0  0  0  0  0  0  0  0  0
   -3.3494   -1.8137    1.4017 H   0  0  0  0  0  0  0  0  0  0  0  0
   -3.1544   -2.3288   -0.2919 H   0  0  0  0  0  0  0  0  0  0  0  0
   -1.3257   -1.7420    0.6757 C   0  0  0  0  0  0  0  0  0  0  0  0
   -0.3560   -2.3866    1.0473 O   0  0  0  0  0  0  0  0  0  0  0  0
   -1.1678   -0.4270    0.2878 N   0  0  0  0  0  0  0  0  0  0  0  0
   -2.0084    0.1290    0.1544 H   0  0  0  0  0  0  0  0  0  0  0  0
    0.1333    0.2537    0.2828 C   0  0  1  0  0  0  0  0  0  0  0  0
    0.9469   -0.4601    0.1083 H   0  0  0  0  0  0  0  0  0  0  0  0
    0.1347    1.2890   -0.8608 C   0  0  0  0  0  0  0  0  0  0  0  0
   -0.7373    1.9420   -0.7626 H   0  0  0  0  0  0  0  0  0  0  0  0
    1.0234    1.9200   -0.7751 H   0  0  0  0  0  0  0  0  0  0  0  0
    0.1366    0.6730   -2.2566 C   0  0  0  0  0  0  0  0  0  0  0  0
    0.6504   -0.4184   -2.4379 O   0  0  0  0  0  0  0  0  0  0  0  0
   -0.4466    1.3932   -3.2423 O   0  0  0  0  0  0  0  0  0  0  0  0
   -0.3483    0.8669   -4.0504 H   0  0  0  0  0  0  0  0  0  0  0  0
    0.3871    0.9276    1.6455 C   0  0  0  0  0  0  0  0  0  0  0  0
   -0.1847    1.9699    1.9423 O   0  0  0  0  0  0  0  0  0  0  0  0
    1.2820    0.3584    2.5307 N   0  0  0  0  0  0  0  0  0  0  0  0
    1.5797   -0.5925    2.3202 H   0  0  0  0  0  0  0  0  0  0  0  0
    1.5070    0.8778    3.8738 C   0  0  0  0  0  0  0  0  0  0  0  0
    0.5866    0.8239    4.4646 H   0  0  0  0  0  0  0  0  0  0  0  0
    2.2805    0.2925    4.3804 H   0  0  0  0  0  0  0  0  0  0  0  0
    1.8380    1.9209    3.8314 H   0  0  0  0  0  0  0  0  0  0  0  0
  1  2  1  0  0  0  0
  2  3  1  0  0  0  0
  2  4  1  0  0  0  0
  2  5  1  0  0  0  0
  5  6  2  0  0  0  0
  5  7  1  0  0  0  0
  7  8  1  0  0  0  0
  7  9  1  0  0  0  0
  9 10  1  0  0  0  0
  9 11  1  0  0  0  0
  9 18  1  0  0  0  0
 11 12  1  0  0  0  0
 11 13  1  0  0  0  0
 11 14  1  0  0  0  0
 14 15  2  0  0  0  0
 14 16  1  0  0  0  0
 16 17  1  0  0  0  0
 18 19  2  0  0  0  0
 18 20  1  0  0  0  0
 20 21  1  0  0  0  0
 20 22  1  0  0  0  0
 22 23  1  0  0  0  0
 22 24  1  0  0  0  0
 22 25  1  0  0  0  0
M  END
$$$$

  -OEChem-01062216063D

 25 24  0     1  0  0  0  0  0999 V2000
   -2.6496   -3.4014    1.0801 H   0  0  0  0  0  0  0  0  0  0  0  0
   -2.7130   -2.3596    0.7534 C   0  0  0  0  0  0  0  0  0  0  0  0
   -3.3002   -1.7969    1.4832 H   0  0  0  0  0  0  0  0  0  0  0  0
   -3.2166   -2.3245   -0.2158 H   0  0  0  0  0  0  0  0  0  0  0  0
   -1.3229   -1.7635    0.6367 C   0  0  0  0  0  0  0  0  0  0  0  0
   -0.3447   -2.4324    0.9340 O   0  0  0  0  0  0  0  0  0  0  0  0
   -1.1699   -0.4468    0.2517 N   0  0  0  0  0  0  0  0  0  0  0  0
   -2.0105    0.1250    0.2277 H   0  0  0  0  0  0  0  0  0  0  0  0
    0.1281    0.2413    0.2639 C   0  0  1  0  0  0  0  0  0  0  0  0
    0.9452   -0.4693    0.0927 H   0  0  0  0  0  0  0  0  0  0  0  0
    0.1369    1.2890   -0.8673 C   0  0  0  0  0  0  0  0  0  0  0  0
   -0.7398    1.9360   -0.7699 H   0  0  0  0  0  0  0  0  0  0  0  0
    1.0218    1.9232   -0.7663 H   0  0  0  0  0  0  0  0  0  0  0  0
    0.1553    0.6892   -2.2699 C   0  0  0  0  0  0  0  0  0  0  0  0
    0.6752   -0.3980   -2.4581 O   0  0  0  0  0  0  0  0  0  0  0  0
   -0.4126    1.4223   -3.2549 O   0  0  0  0  0  0  0  0  0  0  0  0
   -0.3061    0.9035   -4.0668 H   0  0  0  0  0  0  0  0  0  0  0  0
    0.3686    0.9186    1.6270 C   0  0  0  0  0  0  0  0  0  0  0  0
   -0.3917    1.7970    2.0172 O   0  0  0  0  0  0  0  0  0  0  0  0
    1.4587    0.5627    2.3980 N   0  0  0  0  0  0  0  0  0  0  0  0
    1.9669   -0.2716    2.1144 H   0  0  0  0  0  0  0  0  0  0  0  0
    1.7020    1.1108    3.7266 C   0  0  0  0  0  0  0  0  0  0  0  0
    0.8777    0.8587    4.4019 H   0  0  0  0  0  0  0  0  0  0  0  0
    2.6282    0.7009    4.1409 H   0  0  0  0  0  0  0  0  0  0  0  0
    1.7984    2.2007    3.6799 H   0  0  0  0  0  0  0  0  0  0  0  0
  1  2  1  0  0  0  0
  2  3  1  0  0  0  0
  2  4  1  0  0  0  0
  2  5  1  0  0  0  0
  5  6  2  0  0  0  0
  5  7  1  0  0  0  0
  7  8  1  0  0  0  0
  7  9  1  0  0  0  0
  9 10  1  0  0  0  0
  9 11  1  0  0  0  0
  9 18  1  0  0  0  0
 11 12  1  0  0  0  0
 11 13  1  0  0  0  0
 11 14  1  0  0  0  0
 14 15  2  0  0  0  0
 14 16  1  0  0  0  0
 16 17  1  0  0  0  0
 18 19  2  0  0  0  0
 18 20  1  0  0  0  0
 20 21  1  0  0  0  0
 20 22  1  0  0  0  0
 22 23  1  0  0  0  0
 22 24  1  0  0  0  0
 22 25  1  0  0  0  0
M  END
$$$$

  -OEChem-01062216063D

 25 24  0     1  0  0  0  0  0999 V2000
   -2.6481   -3.3983    1.1003 H   0  0  0  0  0  0  0  0  0  0  0  0
   -2.7120   -2.3532    0.7847 C   0  0  0  0  0  0  0  0  0  0  0  0
   -3.2607   -1.7891    1.5428 H   0  0  0  0  0  0  0  0  0  0  0  0
   -3.2547   -2.3039   -0.1622 H   0  0  0  0  0  0  0  0  0  0  0  0
   -1.3210   -1.7726    0.6148 C   0  0  0  0  0  0  0  0  0  0  0  0
   -0.3403   -2.4560    0.8671 O   0  0  0  0  0  0  0  0  0  0  0  0
   -1.1726   -0.4560    0.2268 N   0  0  0  0  0  0  0  0  0  0  0  0
   -2.0091    0.1208    0.2722 H   0  0  0  0  0  0  0  0  0  0  0  0
    0.1237    0.2359    0.2522 C   0  0  1  0  0  0  0  0  0  0  0  0
    0.9435   -0.4734    0.0894 H   0  0  0  0  0  0  0  0  0  0  0  0
    0.1367    1.2868   -0.8746 C   0  0  0  0  0  0  0  0  0  0  0  0
   -0.7443    1.9285   -0.7810 H   0  0  0  0  0  0  0  0  0  0  0  0
    1.0177    1.9248   -0.7661 H   0  0  0  0  0  0  0  0  0  0  0  0
    0.1673    0.6935   -2.2798 C   0  0  0  0  0  0  0  0  0  0  0  0
    0.6925   -0.3907   -2.4694 O   0  0  0  0  0  0  0  0  0  0  0  0
   -0.3931    1.4312   -3.2658 O   0  0  0  0  0  0  0  0  0  0  0  0
   -0.2823    0.9155   -4.0793 H   0  0  0  0  0  0  0  0  0  0  0  0
    0.3520    0.9201    1.6142 C   0  0  0  0  0  0  0  0  0  0  0  0
   -0.5353    1.6065    2.1083 O   0  0  0  0  0  0  0  0  0  0  0  0
    1.5715    0.8124    2.2558 N   0  0  0  0  0  0  0  0  0  0  0  0
    2.2338    0.1395    1.8790 H   0  0  0  0  0  0  0  0  0  0  0  0
    1.8271    1.3824    3.5730 C   0  0  0  0  0  0  0  0  0  0  0  0
    1.1591    0.9382    4.3185 H   0  0  0  0  0  0  0  0  0  0  0  0
    2.8610    1.1892    3.8744 H   0  0  0  0  0  0  0  0  0  0  0  0
    1.6694    2.4660    3.5596 H   0  0  0  0  0  0  0  0  0  0  0  0
  1  2  1  0  0  0  0
  2  3  1  0  0  0  0
  2  4  1  0  0  0  0
  2  5  1  0  0  0  0
  5  6  2  0  0  0  0
  5  7  1  0  0  0  0
  7  8  1  0  0  0  0
  7  9  1  0  0  0  0
  9 10  1  0  0  0  0
  9 11  1  0  0  0  0
  9 18  1  0  0  0  0
 11 12  1  0  0  0  0
 11 13  1  0  0  0  0
 11 14  1  0  0  0  0
 14 15  2  0  0  0  0
 14 16  1  0  0  0  0
 16 17  1  0  0  0  0
 18 19  2  0  0  0  0
 18 20  1  0  0  0  0
 20 21  1  0  0  0  0
 20 22  1  0  0  0  0
 22 23  1  0  0  0  0
 22 24  1  0  0  0  0
 22 25  1  0  0  0  0
M  END
$$$$

  -OEChem-01062216063D

 25 24  0     1  0  0  0  0  0999 V2000
   -2.6487   -3.4018    1.1095 H   0  0  0  0  0  0  0  0  0  0  0  0
   -2.7154   -2.3568    0.7947 C   0  0  0  0  0  0  0  0  0  0  0  0
   -3.2452   -1.7904    1.5645 H   0  0  0  0  0  0  0  0  0  0  0  0
   -3.2791   -2.3057   -0.1398 H   0  0  0  0  0  0  0  0  0  0  0  0
   -1.3261   -1.7818    0.5930 C   0  0  0  0  0  0  0  0  0  0  0  0
   -0.3440   -2.4759    0.8070 O   0  0  0  0  0  0  0  0  0  0  0  0
   -1.1825   -0.4632    0.2096 N   0  0  0  0  0  0  0  0  0  0  0  0
   -2.0157    0.1125    0.3033 H   0  0  0  0  0  0  0  0  0  0  0  0
    0.1122    0.2327    0.2531 C   0  0  1  0  0  0  0  0  0  0  0  0
    0.9355   -0.4746    0.0988 H   0  0  0  0  0  0  0  0  0  0  0  0
    0.1296    1.2865   -0.8715 C   0  0  0  0  0  0  0  0  0  0  0  0
   -0.7564    1.9222   -0.7843 H   0  0  0  0  0  0  0  0  0  0  0  0
    1.0057    1.9298   -0.7554 H   0  0  0  0  0  0  0  0  0  0  0  0
    0.1764    0.6955   -2.2777 C   0  0  0  0  0  0  0  0  0  0  0  0
    0.7094   -0.3852   -2.4644 O   0  0  0  0  0  0  0  0  0  0  0  0
   -0.3745    1.4341   -3.2683 O   0  0  0  0  0  0  0  0  0  0  0  0
   -0.2531    0.9199   -4.0813 H   0  0  0  0  0  0  0  0  0  0  0  0
    0.3328    0.9186    1.6168 C   0  0  0  0  0  0  0  0  0  0  0  0
   -0.6179    1.4006    2.2224 O   0  0  0  0  0  0  0  0  0  0  0  0
    1.6112    1.0785    2.1187 N   0  0  0  0  0  0  0  0  0  0  0  0
    2.3645    0.5944    1.6379 H   0  0  0  0  0  0  0  0  0  0  0  0
    1.8858    1.6929    3.4121 C   0  0  0  0  0  0  0  0  0  0  0  0
    1.4011    1.1279    4.2153 H   0  0  0  0  0  0  0  0  0  0  0  0
    2.9633    1.7097    3.6019 H   0  0  0  0  0  0  0  0  0  0  0  0
    1.5160    2.7234    3.4334 H   0  0  0  0  0  0  0  0  0  0  0  0
  1  2  1  0  0  0  0
  2  3  1  0  0  0  0
  2  4  1  0  0  0  0
  2  5  1  0  0  0  0
  5  6  2  0  0  0  0
  5  7  1  0  0  0  0
  7  8  1  0  0  0  0
  7  9  1  0  0  0  0
  9 10  1  0  0  0  0
  9 11  1  0  0  0  0
  9 18  1  0  0  0  0
 11 12  1  0  0  0  0
 11 13  1  0  0  0  0
 11 14  1  0  0  0  0
 14 15  2  0  0  0  0
 14 16  1  0  0  0  0
 16 17  1  0  0  0  0
 18 19  2  0  0  0  0
 18 20  1  0  0  0  0
 20 21  1  0  0  0  0
 20 22  1  0  0  0  0
 22 23  1  0  0  0  0
 22 24  1  0  0  0  0
 22 25  1  0  0  0  0
M  END
$$$$

  -OEChem-01062216063D

 25 24  0     1  0  0  0  0  0999 V2000
   -2.6444   -3.4005    1.1222 H   0  0  0  0  0  0  0  0  0  0  0  0
   -2.7146   -2.3558    0.8066 C   0  0  0  0  0  0  0  0  0  0  0  0
   -3.2216   -1.7853    1.5886 H   0  0  0  0  0  0  0  0  0  0  0  0
   -3.3015   -2.3041   -0.1135 H   0  0  0  0  0  0  0  0  0  0  0  0
   -1.3285   -1.7869    0.5695 C   0  0  0  0  0  0  0  0  0  0  0  0
   -0.3460   -2.4907    0.7473 O   0  0  0  0  0  0  0  0  0  0  0  0
   -1.1898   -0.4656    0.1919 N   0  0  0  0  0  0  0  0  0  0  0  0
   -2.0205    0.1068    0.3204 H   0  0  0  0  0  0  0  0  0  0  0  0
    0.1044    0.2312    0.2538 C   0  0  1  0  0  0  0  0  0  0  0  0
    0.9312   -0.4737    0.1062 H   0  0  0  0  0  0  0  0  0  0  0  0
    0.1248    1.2862   -0.8707 C   0  0  0  0  0  0  0  0  0  0  0  0
   -0.7656    1.9168   -0.7905 H   0  0  0  0  0  0  0  0  0  0  0  0
    0.9960    1.9353   -0.7505 H   0  0  0  0  0  0  0  0  0  0  0  0
    0.1853    0.6966   -2.2770 C   0  0  0  0  0  0  0  0  0  0  0  0
    0.7254   -0.3810   -2.4606 O   0  0  0  0  0  0  0  0  0  0  0  0
   -0.3631    1.4328   -3.2708 O   0  0  0  0  0  0  0  0  0  0  0  0
   -0.2357    0.9178   -4.0825 H   0  0  0  0  0  0  0  0  0  0  0  0
    0.3174    0.9151    1.6216 C   0  0  0  0  0  0  0  0  0  0  0  0
   -0.6423    1.1855    2.3353 O   0  0  0  0  0  0  0  0  0  0  0  0
    1.5774    1.3491    1.9916 N   0  0  0  0  0  0  0  0  0  0  0  0
    2.3607    1.0541    1.4156 H   0  0  0  0  0  0  0  0  0  0  0  0
    1.8507    2.0078    3.2634 C   0  0  0  0  0  0  0  0  0  0  0  0
    1.5851    1.3523    4.0995 H   0  0  0  0  0  0  0  0  0  0  0  0
    2.9140    2.2541    3.3408 H   0  0  0  0  0  0  0  0  0  0  0  0
    1.2750    2.9356    3.3463 H   0  0  0  0  0  0  0  0  0  0  0  0
  1  2  1  0  0  0  0
  2  3  1  0  0  0  0
  2  4  1  0  0  0  0
  2  5  1  0  0  0  0
  5  6  2  0  0  0  0
  5  7  1  0  0  0  0
  7  8  1  0  0  0  0
  7  9  1  0  0  0  0
  9 10  1  0  0  0  0
  9 11  1  0  0  0  0
  9 18  1  0  0  0  0
 11 12  1  0  0  0  0
 11 13  1  0  0  0  0
 11 14  1  0  0  0  0
 14 15  2  0  0  0  0
 14 16  1  0  0  0  0
 16 17  1  0  0  0  0
 18 19  2  0  0  0  0
 18 20  1  0  0  0  0
 20 21  1  0  0  0  0
 20 22  1  0  0  0  0
 22 23  1  0  0  0  0
 22 24  1  0  0  0  0
 22 25  1  0  0  0  0
M  END
$$$$

  -OEChem-01062216063D

 25 24  0     1  0  0  0  0  0999 V2000
   -2.5822   -3.4124    1.1267 H   0  0  0  0  0  0  0  0  0  0  0  0
   -2.6782   -2.3591    0.8487 C   0  0  0  0  0  0  0  0  0  0  0  0
   -3.1245   -1.8144    1.6843 H   0  0  0  0  0  0  0  0  0  0  0  0
   -3.3333   -2.2816   -0.0221 H   0  0  0  0  0  0  0  0  0  0  0  0
   -1.3147   -1.7781    0.5255 C   0  0  0  0  0  0  0  0  0  0  0  0
   -0.3208   -2.4862    0.5875 O   0  0  0  0  0  0  0  0  0  0  0  0
   -1.2062   -0.4494    0.1608 N   0  0  0  0  0  0  0  0  0  0  0  0
   -2.0355    0.1058    0.3501 H   0  0  0  0  0  0  0  0  0  0  0  0
    0.0881    0.2469    0.2415 C   0  0  1  0  0  0  0  0  0  0  0  0
    0.8850   -0.3905   -0.1603 H   0  0  0  0  0  0  0  0  0  0  0  0
   -0.0289    1.5268   -0.6138 C   0  0  0  0  0  0  0  0  0  0  0  0
   -0.9062    2.0966   -0.2944 H   0  0  0  0  0  0  0  0  0  0  0  0
    0.8460    2.1617   -0.4562 H   0  0  0  0  0  0  0  0  0  0  0  0
   -0.1288    1.2653   -2.1143 C   0  0  0  0  0  0  0  0  0  0  0  0
    0.3923    0.2733   -2.5948 O   0  0  0  0  0  0  0  0  0  0  0  0
   -0.7963    2.1851   -2.8482 O   0  0  0  0  0  0  0  0  0  0  0  0
   -0.7637    1.8680   -3.7641 H   0  0  0  0  0  0  0  0  0  0  0  0
    0.4774    0.5974    1.6992 C   0  0  0  0  0  0  0  0  0  0  0  0
   -0.3332    0.4676    2.6101 O   0  0  0  0  0  0  0  0  0  0  0  0
    1.6677    1.2524    1.9638 N   0  0  0  0  0  0  0  0  0  0  0  0
    2.3492    1.3005    1.2122 H   0  0  0  0  0  0  0  0  0  0  0  0
    2.0816    1.6374    3.3085 C   0  0  0  0  0  0  0  0  0  0  0  0
    2.1512    0.7560    3.9548 H   0  0  0  0  0  0  0  0  0  0  0  0
    3.0617    2.1230    3.2784 H   0  0  0  0  0  0  0  0  0  0  0  0
    1.3628    2.3383    3.7459 H   0  0  0  0  0  0  0  0  0  0  0  0
  1  2  1  0  0  0  0
  2  3  1  0  0  0  0
  2  4  1  0  0  0  0
  2  5  1  0  0  0  0
  5  6  2  0  0  0  0
  5  7  1  0  0  0  0
  7  8  1  0  0  0  0
  7  9  1  0  0  0  0
  9 10  1  0  0  0  0
  9 11  1  0  0  0  0
  9 18  1  0  0  0  0
 11 12  1  0  0  0  0
 11 13  1  0  0  0  0
 11 14  1  0  0  0  0
 14 15  2  0  0  0  0
 14 16  1  0  0  0  0
 16 17  1  0  0  0  0
 18 19  2  0  0  0  0
 18 20  1  0  0  0  0
 20 21  1  0  0  0  0
 20 22  1  0  0  0  0
 22 23  1  0  0  0  0
 22 24  1  0  0  0  0
 22 25  1  0  0  0  0
M  END
$$$$

  -OEChem-01062216063D

 25 24  0     1  0  0  0  0  0999 V2000
   -2.5797   -3.4088    1.1058 H   0  0  0  0  0  0  0  0  0  0  0  0
   -2.6722   -2.3465    0.8635 C   0  0  0  0  0  0  0  0  0  0  0  0
   -3.0799   -1.8222    1.7313 H   0  0  0  0  0  0  0  0  0  0  0  0
   -3.3581   -2.2351    0.0206 H   0  0  0  0  0  0  0  0  0  0  0  0
   -1.3138   -1.7724    0.5084 C   0  0  0  0  0  0  0  0  0  0  0  0
   -0.3263   -2.4920    0.5237 O   0  0  0  0  0  0  0  0  0  0  0  0
   -1.2057   -0.4405    0.1528 N   0  0  0  0  0  0  0  0  0  0  0  0
   -2.0343    0.1119    0.3519 H   0  0  0  0  0  0  0  0  0  0  0  0
    0.0899    0.2547    0.2404 C   0  0  1  0  0  0  0  0  0  0  0  0
    0.8890   -0.3817   -0.1588 H   0  0  0  0  0  0  0  0  0  0  0  0
   -0.0353    1.5272   -0.6285 C   0  0  0  0  0  0  0  0  0  0  0  0
   -0.9167    2.0940   -0.3157 H   0  0  0  0  0  0  0  0  0  0  0  0
    0.8347    2.1708   -0.4830 H   0  0  0  0  0  0  0  0  0  0  0  0
   -0.1300    1.2498   -2.1269 C   0  0  0  0  0  0  0  0  0  0  0  0
    0.3994    0.2576   -2.5973 O   0  0  0  0  0  0  0  0  0  0  0  0
   -0.8041    2.1569   -2.8703 O   0  0  0  0  0  0  0  0  0  0  0  0
   -0.7694    1.8295   -3.7826 H   0  0  0  0  0  0  0  0  0  0  0  0
    0.4803    0.5974    1.7038 C   0  0  0  0  0  0  0  0  0  0  0  0
   -0.2249    0.2394    2.6405 O   0  0  0  0  0  0  0  0  0  0  0  0
    1.4929    1.5042    1.9692 N   0  0  0  0  0  0  0  0  0  0  0  0
    2.0997    1.7636    1.1977 H   0  0  0  0  0  0  0  0  0  0  0  0
    1.8684    1.9089    3.3194 C   0  0  0  0  0  0  0  0  0  0  0  0
    2.1812    1.0393    3.9072 H   0  0  0  0  0  0  0  0  0  0  0  0
    2.6993    2.6200    3.2846 H   0  0  0  0  0  0  0  0  0  0  0  0
    1.0240    2.3900    3.8244 H   0  0  0  0  0  0  0  0  0  0  0  0
  1  2  1  0  0  0  0
  2  3  1  0  0  0  0
  2  4  1  0  0  0  0
  2  5  1  0  0  0  0
  5  6  2  0  0  0  0
  5  7  1  0  0  0  0
  7  8  1  0  0  0  0
  7  9  1  0  0  0  0
  9 10  1  0  0  0  0
  9 11  1  0  0  0  0
  9 18  1  0  0  0  0
 11 12  1  0  0  0  0
 11 13  1  0  0  0  0
 11 14  1  0  0  0  0
 14 15  2  0  0  0  0
 14 16  1  0  0  0  0
 16 17  1  0  0  0  0
 18 19  2  0  0  0  0
 18 20  1  0  0  0  0
 20 21  1  0  0  0  0
 20 22  1  0  0  0  0
 22 23  1  0  0  0  0
 22 24  1  0  0  0  0
 22 25  1  0  0  0  0
M  END
$$$$

  -OEChem-01062216063D

 25 24  0     1  0  0  0  0  0999 V2000
   -2.5808   -3.4066    1.0845 H   0  0  0  0  0  0  0  0  0  0  0  0
   -2.6671   -2.3355    0.8813 C   0  0  0  0  0  0  0  0  0  0  0  0
   -3.0388   -1.8365    1.7797 H   0  0  0  0  0  0  0  0  0  0  0  0
   -3.3786   -2.1870    0.0658 H   0  0  0  0  0  0  0  0  0  0  0  0
   -1.3138   -1.7662    0.5005 C   0  0  0  0  0  0  0  0  0  0  0  0
   -0.3346   -2.4958    0.4704 O   0  0  0  0  0  0  0  0  0  0  0  0
   -1.2067   -0.4315    0.1530 N   0  0  0  0  0  0  0  0  0  0  0  0
   -2.0357    0.1179    0.3563 H   0  0  0  0  0  0  0  0  0  0  0  0
    0.0885    0.2659    0.2384 C   0  0  1  0  0  0  0  0  0  0  0  0
    0.8878   -0.3722   -0.1578 H   0  0  0  0  0  0  0  0  0  0  0  0
   -0.0373    1.5284   -0.6471 C   0  0  0  0  0  0  0  0  0  0  0  0
   -0.9181    2.1007   -0.3425 H   0  0  0  0  0  0  0  0  0  0  0  0
    0.8347    2.1713   -0.5150 H   0  0  0  0  0  0  0  0  0  0  0  0
   -0.1271    1.2328   -2.1425 C   0  0  0  0  0  0  0  0  0  0  0  0
    0.4049    0.2371   -2.6017 O   0  0  0  0  0  0  0  0  0  0  0  0
   -0.8022    2.1303   -2.8963 O   0  0  0  0  0  0  0  0  0  0  0  0
   -0.7662    1.7922   -3.8048 H   0  0  0  0  0  0  0  0  0  0  0  0
    0.4842    0.6013    1.7052 C   0  0  0  0  0  0  0  0  0  0  0  0
   -0.0506    0.0275    2.6463 O   0  0  0  0  0  0  0  0  0  0  0  0
    1.2609    1.7101    2.0005 N   0  0  0  0  0  0  0  0  0  0  0  0
    1.7277    2.1735    1.2278 H   0  0  0  0  0  0  0  0  0  0  0  0
    1.5916    2.1185    3.3616 C   0  0  0  0  0  0  0  0  0  0  0  0
    2.1362    1.3219    3.8797 H   0  0  0  0  0  0  0  0  0  0  0  0
    2.2201    3.0141    3.3462 H   0  0  0  0  0  0  0  0  0  0  0  0
    0.6808    2.3464    3.9254 H   0  0  0  0  0  0  0  0  0  0  0  0
  1  2  1  0  0  0  0
  2  3  1  0  0  0  0
  2  4  1  0  0  0  0
  2  5  1  0  0  0  0
  5  6  2  0  0  0  0
  5  7  1  0  0  0  0
  7  8  1  0  0  0  0
  7  9  1  0  0  0  0
  9 10  1  0  0  0  0
  9 11  1  0  0  0  0
  9 18  1  0  0  0  0
 11 12  1  0  0  0  0
 11 13  1  0  0  0  0
 11 14  1  0  0  0  0
 14 15  2  0  0  0  0
 14 16  1  0  0  0  0
 16 17  1  0  0  0  0
 18 19  2  0  0  0  0
 18 20  1  0  0  0  0
 20 21  1  0  0  0  0
 20 22  1  0  0  0  0
 22 23  1  0  0  0  0
 22 24  1  0  0  0  0
 22 25  1  0  0  0  0
M  END
$$$$

  -OEChem-01062216063D

 25 24  0     1  0  0  0  0  0999 V2000
   -2.5713   -3.3919    1.1286 H   0  0  0  0  0  0  0  0  0  0  0  0
   -2.6647   -2.3262    0.9017 C   0  0  0  0  0  0  0  0  0  0  0  0
   -3.0312   -1.8093    1.7918 H   0  0  0  0  0  0  0  0  0  0  0  0
   -3.3837   -2.1998    0.0891 H   0  0  0  0  0  0  0  0  0  0  0  0
   -1.3166   -1.7607    0.4973 C   0  0  0  0  0  0  0  0  0  0  0  0
   -0.3474   -2.4996    0.4238 O   0  0  0  0  0  0  0  0  0  0  0  0
   -1.2097   -0.4240    0.1561 N   0  0  0  0  0  0  0  0  0  0  0  0
   -2.0415    0.1235    0.3524 H   0  0  0  0  0  0  0  0  0  0  0  0
    0.0833    0.2788    0.2359 C   0  0  1  0  0  0  0  0  0  0  0  0
    0.8833   -0.3620   -0.1549 H   0  0  0  0  0  0  0  0  0  0  0  0
   -0.0335    1.5323   -0.6628 C   0  0  0  0  0  0  0  0  0  0  0  0
   -0.9122    2.1136   -0.3694 H   0  0  0  0  0  0  0  0  0  0  0  0
    0.8458    2.1666   -0.5345 H   0  0  0  0  0  0  0  0  0  0  0  0
   -0.1152    1.2215   -2.1559 C   0  0  0  0  0  0  0  0  0  0  0  0
    0.4160    0.2205   -2.6036 O   0  0  0  0  0  0  0  0  0  0  0  0
   -0.7852    2.1135   -2.9207 O   0  0  0  0  0  0  0  0  0  0  0  0
   -0.7452    1.7666   -3.8258 H   0  0  0  0  0  0  0  0  0  0  0  0
    0.4822    0.6089    1.7037 C   0  0  0  0  0  0  0  0  0  0  0  0
    0.1902   -0.1483    2.6197 O   0  0  0  0  0  0  0  0  0  0  0  0
    0.9797    1.8544    2.0536 N   0  0  0  0  0  0  0  0  0  0  0  0
    1.2089    2.4984    1.3040 H   0  0  0  0  0  0  0  0  0  0  0  0
    1.2759    2.2459    3.4279 C   0  0  0  0  0  0  0  0  0  0  0  0
    2.0276    1.5788    3.8630 H   0  0  0  0  0  0  0  0  0  0  0  0
    1.6639    3.2687    3.4551 H   0  0  0  0  0  0  0  0  0  0  0  0
    0.3705    2.2041    4.0426 H   0  0  0  0  0  0  0  0  0  0  0  0
  1  2  1  0  0  0  0
  2  3  1  0  0  0  0
  2  4  1  0  0  0  0
  2  5  1  0  0  0  0
  5  6  2  0  0  0  0
  5  7  1  0  0  0  0
  7  8  1  0  0  0  0
  7  9  1  0  0  0  0
  9 10  1  0  0  0  0
  9 11  1  0  0  0  0
  9 18  1  0  0  0  0
 11 12  1  0  0  0  0
 11 13  1  0  0  0  0
 11 14  1  0  0  0  0
 14 15  2  0  0  0  0
 14 16  1  0  0  0  0
 16 17  1  0  0  0  0
 18 19  2  0  0  0  0
 18 20  1  0  0  0  0
 20 21  1  0  0  0  0
 20 22  1  0  0  0  0
 22 23  1  0  0  0  0
 22 24  1  0  0  0  0
 22 25  1  0  0  0  0
M  END
$$$$

  -OEChem-01062216063D

 25 24  0     1  0  0  0  0  0999 V2000
   -2.5860   -3.3956    1.1253 H   0  0  0  0  0  0  0  0  0  0  0  0
   -2.6765   -2.3307    0.8932 C   0  0  0  0  0  0  0  0  0  0  0  0
   -3.0622   -1.8116    1.7738 H   0  0  0  0  0  0  0  0  0  0  0  0
   -3.3788   -2.2083    0.0654 H   0  0  0  0  0  0  0  0  0  0  0  0
   -1.3214   -1.7643    0.5137 C   0  0  0  0  0  0  0  0  0  0  0  0
   -0.3544   -2.5056    0.4478 O   0  0  0  0  0  0  0  0  0  0  0  0
   -1.2123   -0.4283    0.1703 N   0  0  0  0  0  0  0  0  0  0  0  0
   -2.0523    0.1173    0.3332 H   0  0  0  0  0  0  0  0  0  0  0  0
    0.0757    0.2839    0.2456 C   0  0  1  0  0  0  0  0  0  0  0  0
    0.8785   -0.3587   -0.1374 H   0  0  0  0  0  0  0  0  0  0  0  0
   -0.0313    1.5326   -0.6597 C   0  0  0  0  0  0  0  0  0  0  0  0
   -0.9130    2.1155   -0.3788 H   0  0  0  0  0  0  0  0  0  0  0  0
    0.8499    2.1637   -0.5206 H   0  0  0  0  0  0  0  0  0  0  0  0
   -0.1021    1.2172   -2.1523 C   0  0  0  0  0  0  0  0  0  0  0  0
    0.4295    0.2139   -2.5935 O   0  0  0  0  0  0  0  0  0  0  0  0
   -0.7626    2.1101   -2.9245 O   0  0  0  0  0  0  0  0  0  0  0  0
   -0.7112    1.7634   -3.8293 H   0  0  0  0  0  0  0  0  0  0  0  0
    0.4717    0.6205    1.7104 C   0  0  0  0  0  0  0  0  0  0  0  0
    0.4778   -0.2428    2.5755 O   0  0  0  0  0  0  0  0  0  0  0  0
    0.6622    1.9306    2.1211 N   0  0  0  0  0  0  0  0  0  0  0  0
    0.6253    2.6571    1.4140 H   0  0  0  0  0  0  0  0  0  0  0  0
    0.9559    2.3066    3.4999 C   0  0  0  0  0  0  0  0  0  0  0  0
    1.8801    1.8267    3.8391 H   0  0  0  0  0  0  0  0  0  0  0  0
    1.0804    3.3907    3.5793 H   0  0  0  0  0  0  0  0  0  0  0  0
    0.1381    2.0036    4.1623 H   0  0  0  0  0  0  0  0  0  0  0  0
  1  2  1  0  0  0  0
  2  3  1  0  0  0  0
  2  4  1  0  0  0  0
  2  5  1  0  0  0  0
  5  6  2  0  0  0  0
  5  7  1  0  0  0  0
  7  8  1  0  0  0  0
  7  9  1  0  0  0  0
  9 10  1  0  0  0  0
  9 11  1  0  0  0  0
  9 18  1  0  0  0  0
 11 12  1  0  0  0  0
 11 13  1  0  0  0  0
 11 14  1  0  0  0  0
 14 15  2  0  0  0  0
 14 16  1  0  0  0  0
 16 17  1  0  0  0  0
 18 19  2  0  0  0  0
 18 20  1  0  0  0  0
 20 21  1  0  0  0  0
 20 22  1  0  0  0  0
 22 23  1  0  0  0  0
 22 24  1  0  0  0  0
 22 25  1  0  0  0  0
M  END
$$$$

  -OEChem-01062216063D

 25 24  0     1  0  0  0  0  0999 V2000
   -2.6183   -3.4040    1.1036 H   0  0  0  0  0  0  0  0  0  0  0  0
   -2.7025   -2.3443    0.8462 C   0  0  0  0  0  0  0  0  0  0  0  0
   -3.1479   -1.8128    1.6904 H   0  0  0  0  0  0  0  0  0  0  0  0
   -3.3521   -2.2435   -0.0264 H   0  0  0  0  0  0  0  0  0  0  0  0
   -1.3309   -1.7728    0.5404 C   0  0  0  0  0  0  0  0  0  0  0  0
   -0.3595   -2.5091    0.5372 O   0  0  0  0  0  0  0  0  0  0  0  0
   -1.2118   -0.4391    0.1930 N   0  0  0  0  0  0  0  0  0  0  0  0
   -2.0625    0.1060    0.2875 H   0  0  0  0  0  0  0  0  0  0  0  0
    0.0715    0.2808    0.2664 C   0  0  1  0  0  0  0  0  0  0  0  0
    0.8771   -0.3615   -0.1124 H   0  0  0  0  0  0  0  0  0  0  0  0
   -0.0315    1.5291   -0.6376 C   0  0  0  0  0  0  0  0  0  0  0  0
   -0.9157    2.1108   -0.3639 H   0  0  0  0  0  0  0  0  0  0  0  0
    0.8486    2.1598   -0.4851 H   0  0  0  0  0  0  0  0  0  0  0  0
   -0.0961    1.2160   -2.1308 C   0  0  0  0  0  0  0  0  0  0  0  0
    0.4371    0.2136   -2.5720 O   0  0  0  0  0  0  0  0  0  0  0  0
   -0.7610    2.1061   -2.9027 O   0  0  0  0  0  0  0  0  0  0  0  0
   -0.7034    1.7626   -3.8084 H   0  0  0  0  0  0  0  0  0  0  0  0
    0.4625    0.6273    1.7269 C   0  0  0  0  0  0  0  0  0  0  0  0
    0.8003   -0.2432    2.5136 O   0  0  0  0  0  0  0  0  0  0  0  0
    0.3442    1.9213    2.2091 N   0  0  0  0  0  0  0  0  0  0  0  0
    0.0509    2.6425    1.5586 H   0  0  0  0  0  0  0  0  0  0  0  0
    0.6555    2.2970    3.5840 C   0  0  0  0  0  0  0  0  0  0  0  0
    1.7064    2.0870    3.8100 H   0  0  0  0  0  0  0  0  0  0  0  0
    0.4761    3.3658    3.7348 H   0  0  0  0  0  0  0  0  0  0  0  0
    0.0263    1.7393    4.2859 H   0  0  0  0  0  0  0  0  0  0  0  0
  1  2  1  0  0  0  0
  2  3  1  0  0  0  0
  2  4  1  0  0  0  0
  2  5  1  0  0  0  0
  5  6  2  0  0  0  0
  5  7  1  0  0  0  0
  7  8  1  0  0  0  0
  7  9  1  0  0  0  0
  9 10  1  0  0  0  0
  9 11  1  0  0  0  0
  9 18  1  0  0  0  0
 11 12  1  0  0  0  0
 11 13  1  0  0  0  0
 11 14  1  0  0  0  0
 14 15  2  0  0  0  0
 14 16  1  0  0  0  0
 16 17  1  0  0  0  0
 18 19  2  0  0  0  0
 18 20  1  0  0  0  0
 20 21  1  0  0  0  0
 20 22  1  0  0  0  0
 22 23  1  0  0  0  0
 22 24  1  0  0  0  0
 22 25  1  0  0  0  0
M  END
$$$$

  -OEChem-01062216063D

 25 24  0     1  0  0  0  0  0999 V2000
   -2.6776   -3.4422    1.0156 H   0  0  0  0  0  0  0  0  0  0  0  0
   -2.7486   -2.3924    0.7170 C   0  0  0  0  0  0  0  0  0  0  0  0
   -3.3284   -1.8524    1.4692 H   0  0  0  0  0  0  0  0  0  0  0  0
   -3.2627   -2.3341   -0.2451 H   0  0  0  0  0  0  0  0  0  0  0  0
   -1.3609   -1.7905    0.5989 C   0  0  0  0  0  0  0  0  0  0  0  0
   -0.3842   -2.4974    0.7700 O   0  0  0  0  0  0  0  0  0  0  0  0
   -1.2230   -0.4601    0.2481 N   0  0  0  0  0  0  0  0  0  0  0  0
   -2.0823    0.0742    0.1723 H   0  0  0  0  0  0  0  0  0  0  0  0
    0.0562    0.2677    0.3130 C   0  0  1  0  0  0  0  0  0  0  0  0
    0.8602   -0.3752   -0.0690 H   0  0  0  0  0  0  0  0  0  0  0  0
   -0.0474    1.5187   -0.5860 C   0  0  0  0  0  0  0  0  0  0  0  0
   -0.9311    2.1001   -0.3110 H   0  0  0  0  0  0  0  0  0  0  0  0
    0.8314    2.1499   -0.4260 H   0  0  0  0  0  0  0  0  0  0  0  0
   -0.1150    1.2113   -2.0801 C   0  0  0  0  0  0  0  0  0  0  0  0
    0.4162    0.2099   -2.5261 O   0  0  0  0  0  0  0  0  0  0  0  0
   -0.7818    2.1040   -2.8470 O   0  0  0  0  0  0  0  0  0  0  0  0
   -0.7158    1.7710   -3.7560 H   0  0  0  0  0  0  0  0  0  0  0  0
    0.4580    0.6289    1.7642 C   0  0  0  0  0  0  0  0  0  0  0  0
    1.1763   -0.1070    2.4222 O   0  0  0  0  0  0  0  0  0  0  0  0
    0.0561    1.8280    2.3304 N   0  0  0  0  0  0  0  0  0  0  0  0
   -0.5208    2.4447    1.7688 H   0  0  0  0  0  0  0  0  0  0  0  0
    0.4343    2.2449    3.6760 C   0  0  0  0  0  0  0  0  0  0  0  0
    1.5237    2.3172    3.7628 H   0  0  0  0  0  0  0  0  0  0  0  0
    0.0038    3.2245    3.9047 H   0  0  0  0  0  0  0  0  0  0  0  0
    0.0695    1.5250    4.4164 H   0  0  0  0  0  0  0  0  0  0  0  0
  1  2  1  0  0  0  0
  2  3  1  0  0  0  0
  2  4  1  0  0  0  0
  2  5  1  0  0  0  0
  5  6  2  0  0  0  0
  5  7  1  0  0  0  0
  7  8  1  0  0  0  0
  7  9  1  0  0  0  0
  9 10  1  0  0  0  0
  9 11  1  0  0  0  0
  9 18  1  0  0  0  0
 11 12  1  0  0  0  0
 11 13  1  0  0  0  0
 11 14  1  0  0  0  0
 14 15  2  0  0  0  0
 14 16  1  0  0  0  0
 16 17  1  0  0  0  0
 18 19  2  0  0  0  0
 18 20  1  0  0  0  0
 20 21  1  0  0  0  0
 20 22  1  0  0  0  0
 22 23  1  0  0  0  0
 22 24  1  0  0  0  0
 22 25  1  0  0  0  0
M  END
$$$$

  -OEChem-01062216063D

 25 24  0     1  0  0  0  0  0999 V2000
   -2.7176   -3.4977    0.8321 H   0  0  0  0  0  0  0  0  0  0  0  0
   -2.7781   -2.4433    0.5477 C   0  0  0  0  0  0  0  0  0  0  0  0
   -3.5074   -1.9467    1.1919 H   0  0  0  0  0  0  0  0  0  0  0  0
   -3.1122   -2.3789   -0.4906 H   0  0  0  0  0  0  0  0  0  0  0  0
   -1.4192   -1.7853    0.6988 C   0  0  0  0  0  0  0  0  0  0  0  0
   -0.4830   -2.4294    1.1354 O   0  0  0  0  0  0  0  0  0  0  0  0
   -1.2562   -0.4632    0.3311 N   0  0  0  0  0  0  0  0  0  0  0  0
   -2.0567   -0.0054   -0.0927 H   0  0  0  0  0  0  0  0  0  0  0  0
    0.0345    0.2462    0.3674 C   0  0  1  0  0  0  0  0  0  0  0  0
    0.8191   -0.4138   -0.0257 H   0  0  0  0  0  0  0  0  0  0  0  0
   -0.0580    1.5007   -0.5259 C   0  0  0  0  0  0  0  0  0  0  0  0
   -0.9210    2.1028   -0.2309 H   0  0  0  0  0  0  0  0  0  0  0  0
    0.8371    2.1117   -0.3770 H   0  0  0  0  0  0  0  0  0  0  0  0
   -0.1582    1.1985   -2.0187 C   0  0  0  0  0  0  0  0  0  0  0  0
    0.3439    0.1861   -2.4742 O   0  0  0  0  0  0  0  0  0  0  0  0
   -0.8315    2.0985   -2.7713 O   0  0  0  0  0  0  0  0  0  0  0  0
   -0.7807    1.7727   -3.6839 H   0  0  0  0  0  0  0  0  0  0  0  0
    0.4711    0.6210    1.8027 C   0  0  0  0  0  0  0  0  0  0  0  0
    1.4904    0.1489    2.2835 O   0  0  0  0  0  0  0  0  0  0  0  0
   -0.1450    1.6680    2.4680 N   0  0  0  0  0  0  0  0  0  0  0  0
   -0.9953    2.0423    2.0617 H   0  0  0  0  0  0  0  0  0  0  0  0
    0.2762    2.1369    3.7831 C   0  0  0  0  0  0  0  0  0  0  0  0
    1.3102    2.4963    3.7485 H   0  0  0  0  0  0  0  0  0  0  0  0
   -0.3637    2.9597    4.1157 H   0  0  0  0  0  0  0  0  0  0  0  0
    0.2101    1.3274    4.5177 H   0  0  0  0  0  0  0  0  0  0  0  0
  1  2  1  0  0  0  0
  2  3  1  0  0  0  0
  2  4  1  0  0  0  0
  2  5  1  0  0  0  0
  5  6  2  0  0  0  0
  5  7  1  0  0  0  0
  7  8  1  0  0  0  0
  7  9  1  0  0  0  0
  9 10  1  0  0  0  0
  9 11  1  0  0  0  0
  9 18  1  0  0  0  0
 11 12  1  0  0  0  0
 11 13  1  0  0  0  0
 11 14  1  0  0  0  0
 14 15  2  0  0  0  0
 14 16  1  0  0  0  0
 16 17  1  0  0  0  0
 18 19  2  0  0  0  0
 18 20  1  0  0  0  0
 20 21  1  0  0  0  0
 20 22  1  0  0  0  0
 22 23  1  0  0  0  0
 22 24  1  0  0  0  0
 22 25  1  0  0  0  0
M  END
$$$$

  -OEChem-01062216063D

 25 24  0     1  0  0  0  0  0999 V2000
   -2.7323   -3.4990    0.8432 H   0  0  0  0  0  0  0  0  0  0  0  0
   -2.7729   -2.4677    0.4809 C   0  0  0  0  0  0  0  0  0  0  0  0
   -3.5802   -1.9445    0.9987 H   0  0  0  0  0  0  0  0  0  0  0  0
   -2.9819   -2.4803   -0.5914 H   0  0  0  0  0  0  0  0  0  0  0  0
   -1.4509   -1.7712    0.7431 C   0  0  0  0  0  0  0  0  0  0  0  0
   -0.5488   -2.3738    1.2962 O   0  0  0  0  0  0  0  0  0  0  0  0
   -1.2835   -0.4543    0.3601 N   0  0  0  0  0  0  0  0  0  0  0  0
   -2.0290   -0.0536   -0.2009 H   0  0  0  0  0  0  0  0  0  0  0  0
    0.0221    0.2289    0.3790 C   0  0  1  0  0  0  0  0  0  0  0  0
    0.7899   -0.4448   -0.0234 H   0  0  0  0  0  0  0  0  0  0  0  0
   -0.0552    1.4925   -0.5009 C   0  0  0  0  0  0  0  0  0  0  0  0
   -0.8977    2.1125   -0.1835 H   0  0  0  0  0  0  0  0  0  0  0  0
    0.8567    2.0806   -0.3600 H   0  0  0  0  0  0  0  0  0  0  0  0
   -0.1860    1.2066   -1.9940 C   0  0  0  0  0  0  0  0  0  0  0  0
    0.2858    0.1862   -2.4645 O   0  0  0  0  0  0  0  0  0  0  0  0
   -0.8535    2.1252   -2.7290 O   0  0  0  0  0  0  0  0  0  0  0  0
   -0.8186    1.8094   -3.6456 H   0  0  0  0  0  0  0  0  0  0  0  0
    0.4817    0.6045    1.8042 C   0  0  0  0  0  0  0  0  0  0  0  0
    1.6321    0.3830    2.1542 O   0  0  0  0  0  0  0  0  0  0  0  0
   -0.2968    1.4465    2.5792 N   0  0  0  0  0  0  0  0  0  0  0  0
   -1.2611    1.5712    2.2903 H   0  0  0  0  0  0  0  0  0  0  0  0
    0.1096    1.9102    3.9003 C   0  0  0  0  0  0  0  0  0  0  0  0
    1.0410    2.4826    3.8355 H   0  0  0  0  0  0  0  0  0  0  0  0
   -0.6620    2.5564    4.3295 H   0  0  0  0  0  0  0  0  0  0  0  0
    0.2654    1.0600    4.5729 H   0  0  0  0  0  0  0  0  0  0  0  0
  1  2  1  0  0  0  0
  2  3  1  0  0  0  0
  2  4  1  0  0  0  0
  2  5  1  0  0  0  0
  5  6  2  0  0  0  0
  5  7  1  0  0  0  0
  7  8  1  0  0  0  0
  7  9  1  0  0  0  0
  9 10  1  0  0  0  0
  9 11  1  0  0  0  0
  9 18  1  0  0  0  0
 11 12  1  0  0  0  0
 11 13  1  0  0  0  0
 11 14  1  0  0  0  0
 14 15  2  0  0  0  0
 14 16  1  0  0  0  0
 16 17  1  0  0  0  0
 18 19  2  0  0  0  0
 18 20  1  0  0  0  0
 20 21  1  0  0  0  0
 20 22  1  0  0  0  0
 22 23  1  0  0  0  0
 22 24  1  0  0  0  0
 22 25  1  0  0  0  0
M  END
$$$$

  -OEChem-01062216063D

 25 24  0     1  0  0  0  0  0999 V2000
   -2.7263   -3.5106    0.8012 H   0  0  0  0  0  0  0  0  0  0  0  0
   -2.7729   -2.4748    0.4530 C   0  0  0  0  0  0  0  0  0  0  0  0
   -3.5961   -1.9687    0.9626 H   0  0  0  0  0  0  0  0  0  0  0  0
   -2.9626   -2.4754   -0.6231 H   0  0  0  0  0  0  0  0  0  0  0  0
   -1.4642   -1.7663    0.7490 C   0  0  0  0  0  0  0  0  0  0  0  0
   -0.5762   -2.3536    1.3409 O   0  0  0  0  0  0  0  0  0  0  0  0
   -1.2916   -0.4515    0.3610 N   0  0  0  0  0  0  0  0  0  0  0  0
   -2.0169   -0.0641   -0.2351 H   0  0  0  0  0  0  0  0  0  0  0  0
    0.0222    0.2180    0.3789 C   0  0  1  0  0  0  0  0  0  0  0  0
    0.7839   -0.4603   -0.0270 H   0  0  0  0  0  0  0  0  0  0  0  0
   -0.0508    1.4868   -0.4931 C   0  0  0  0  0  0  0  0  0  0  0  0
   -0.8855    2.1115   -0.1640 H   0  0  0  0  0  0  0  0  0  0  0  0
    0.8666    2.0676   -0.3562 H   0  0  0  0  0  0  0  0  0  0  0  0
   -0.1934    1.2088   -1.9865 C   0  0  0  0  0  0  0  0  0  0  0  0
    0.2679    0.1865   -2.4636 O   0  0  0  0  0  0  0  0  0  0  0  0
   -0.8626    2.1325   -2.7135 O   0  0  0  0  0  0  0  0  0  0  0  0
   -0.8362    1.8199   -3.6315 H   0  0  0  0  0  0  0  0  0  0  0  0
    0.4918    0.5949    1.7999 C   0  0  0  0  0  0  0  0  0  0  0  0
    1.6869    0.6122    2.0596 O   0  0  0  0  0  0  0  0  0  0  0  0
   -0.3940    1.1828    2.6850 N   0  0  0  0  0  0  0  0  0  0  0  0
   -1.3799    1.0898    2.4645 H   0  0  0  0  0  0  0  0  0  0  0  0
   -0.0076    1.6191    4.0212 C   0  0  0  0  0  0  0  0  0  0  0  0
    0.7855    2.3722    3.9640 H   0  0  0  0  0  0  0  0  0  0  0  0
   -0.8642    2.0614    4.5386 H   0  0  0  0  0  0  0  0  0  0  0  0
    0.3548    0.7703    4.6107 H   0  0  0  0  0  0  0  0  0  0  0  0
  1  2  1  0  0  0  0
  2  3  1  0  0  0  0
  2  4  1  0  0  0  0
  2  5  1  0  0  0  0
  5  6  2  0  0  0  0
  5  7  1  0  0  0  0
  7  8  1  0  0  0  0
  7  9  1  0  0  0  0
  9 10  1  0  0  0  0
  9 11  1  0  0  0  0
  9 18  1  0  0  0  0
 11 12  1  0  0  0  0
 11 13  1  0  0  0  0
 11 14  1  0  0  0  0
 14 15  2  0  0  0  0
 14 16  1  0  0  0  0
 16 17  1  0  0  0  0
 18 19  2  0  0  0  0
 18 20  1  0  0  0  0
 20 21  1  0  0  0  0
 20 22  1  0  0  0  0
 22 23  1  0  0  0  0
 22 24  1  0  0  0  0
 22 25  1  0  0  0  0
M  END
$$$$

  -OEChem-01062216063D

 25 24  0     1  0  0  0  0  0999 V2000
   -2.7374   -3.5047    0.7898 H   0  0  0  0  0  0  0  0  0  0  0  0
   -2.7742   -2.4744    0.4243 C   0  0  0  0  0  0  0  0  0  0  0  0
   -3.6125   -1.9613    0.9013 H   0  0  0  0  0  0  0  0  0  0  0  0
   -2.9319   -2.4915   -0.6569 H   0  0  0  0  0  0  0  0  0  0  0  0
   -1.4756   -1.7596    0.7473 C   0  0  0  0  0  0  0  0  0  0  0  0
   -0.6034   -2.3344    1.3743 O   0  0  0  0  0  0  0  0  0  0  0  0
   -1.2975   -0.4465    0.3576 N   0  0  0  0  0  0  0  0  0  0  0  0
   -2.0116   -0.0643   -0.2556 H   0  0  0  0  0  0  0  0  0  0  0  0
    0.0200    0.2173    0.3794 C   0  0  1  0  0  0  0  0  0  0  0  0
    0.7802   -0.4623   -0.0262 H   0  0  0  0  0  0  0  0  0  0  0  0
   -0.0560    1.4852   -0.4942 C   0  0  0  0  0  0  0  0  0  0  0  0
   -0.8906    2.1090   -0.1631 H   0  0  0  0  0  0  0  0  0  0  0  0
    0.8604    2.0682   -0.3605 H   0  0  0  0  0  0  0  0  0  0  0  0
   -0.2004    1.2060   -1.9869 C   0  0  0  0  0  0  0  0  0  0  0  0
    0.2619    0.1834   -2.4629 O   0  0  0  0  0  0  0  0  0  0  0  0
   -0.8717    2.1279   -2.7147 O   0  0  0  0  0  0  0  0  0  0  0  0
   -0.8436    1.8162   -3.6328 H   0  0  0  0  0  0  0  0  0  0  0  0
    0.4974    0.5994    1.7974 C   0  0  0  0  0  0  0  0  0  0  0  0
    1.6804    0.8457    1.9896 O   0  0  0  0  0  0  0  0  0  0  0  0
   -0.4218    0.9050    2.7844 N   0  0  0  0  0  0  0  0  0  0  0  0
   -1.3713    0.5871    2.6195 H   0  0  0  0  0  0  0  0  0  0  0  0
   -0.0327    1.2865    4.1363 C   0  0  0  0  0  0  0  0  0  0  0  0
    0.5885    2.1881    4.1164 H   0  0  0  0  0  0  0  0  0  0  0  0
   -0.9203    1.4942    4.7414 H   0  0  0  0  0  0  0  0  0  0  0  0
    0.5335    0.4797    4.6136 H   0  0  0  0  0  0  0  0  0  0  0  0
  1  2  1  0  0  0  0
  2  3  1  0  0  0  0
  2  4  1  0  0  0  0
  2  5  1  0  0  0  0
  5  6  2  0  0  0  0
  5  7  1  0  0  0  0
  7  8  1  0  0  0  0
  7  9  1  0  0  0  0
  9 10  1  0  0  0  0
  9 11  1  0  0  0  0
  9 18  1  0  0  0  0
 11 12  1  0  0  0  0
 11 13  1  0  0  0  0
 11 14  1  0  0  0  0
 14 15  2  0  0  0  0
 14 16  1  0  0  0  0
 16 17  1  0  0  0  0
 18 19  2  0  0  0  0
 18 20  1  0  0  0  0
 20 21  1  0  0  0  0
 20 22  1  0  0  0  0
 22 23  1  0  0  0  0
 22 24  1  0  0  0  0
 22 25  1  0  0  0  0
M  END
$$$$

  -OEChem-01062216063D

 25 24  0     1  0  0  0  0  0999 V2000
   -2.7583   -3.4882    0.7805 H   0  0  0  0  0  0  0  0  0  0  0  0
   -2.7790   -2.4660    0.3919 C   0  0  0  0  0  0  0  0  0  0  0  0
   -3.6283   -1.9387    0.8329 H   0  0  0  0  0  0  0  0  0  0  0  0
   -2.9053   -2.5059   -0.6928 H   0  0  0  0  0  0  0  0  0  0  0  0
   -1.4862   -1.7513    0.7365 C   0  0  0  0  0  0  0  0  0  0  0  0
   -0.6291   -2.3202    1.3894 O   0  0  0  0  0  0  0  0  0  0  0  0
   -1.3010   -0.4377    0.3535 N   0  0  0  0  0  0  0  0  0  0  0  0
   -2.0122   -0.0480   -0.2586 H   0  0  0  0  0  0  0  0  0  0  0  0
    0.0171    0.2266    0.3844 C   0  0  1  0  0  0  0  0  0  0  0  0
    0.7789   -0.4516   -0.0192 H   0  0  0  0  0  0  0  0  0  0  0  0
   -0.0680    1.4892   -0.4983 C   0  0  0  0  0  0  0  0  0  0  0  0
   -0.9088    2.1073   -0.1719 H   0  0  0  0  0  0  0  0  0  0  0  0
    0.8418    2.0836   -0.3699 H   0  0  0  0  0  0  0  0  0  0  0  0
   -0.2061    1.1982   -1.9894 C   0  0  0  0  0  0  0  0  0  0  0  0
    0.2666    0.1763   -2.4573 O   0  0  0  0  0  0  0  0  0  0  0  0
   -0.8838    2.1088   -2.7251 O   0  0  0  0  0  0  0  0  0  0  0  0
   -0.8489    1.7926   -3.6414 H   0  0  0  0  0  0  0  0  0  0  0  0
    0.4989    0.6100    1.8032 C   0  0  0  0  0  0  0  0  0  0  0  0
    1.6233    1.0695    1.9544 O   0  0  0  0  0  0  0  0  0  0  0  0
   -0.3793    0.6191    2.8712 N   0  0  0  0  0  0  0  0  0  0  0  0
   -1.2326    0.0856    2.7365 H   0  0  0  0  0  0  0  0  0  0  0  0
    0.0359    0.9394    4.2313 C   0  0  0  0  0  0  0  0  0  0  0  0
    0.4690    1.9443    4.2736 H   0  0  0  0  0  0  0  0  0  0  0  0
   -0.8242    0.9078    4.9069 H   0  0  0  0  0  0  0  0  0  0  0  0
    0.7821    0.2192    4.5829 H   0  0  0  0  0  0  0  0  0  0  0  0
  1  2  1  0  0  0  0
  2  3  1  0  0  0  0
  2  4  1  0  0  0  0
  2  5  1  0  0  0  0
  5  6  2  0  0  0  0
  5  7  1  0  0  0  0
  7  8  1  0  0  0  0
  7  9  1  0  0  0  0
  9 10  1  0  0  0  0
  9 11  1  0  0  0  0
  9 18  1  0  0  0  0
 11 12  1  0  0  0  0
 11 13  1  0  0  0  0
 11 14  1  0  0  0  0
 14 15  2  0  0  0  0
 14 16  1  0  0  0  0
 16 17  1  0  0  0  0
 18 19  2  0  0  0  0
 18 20  1  0  0  0  0
 20 21  1  0  0  0  0
 20 22  1  0  0  0  0
 22 23  1  0  0  0  0
 22 24  1  0  0  0  0
 22 25  1  0  0  0  0
M  END
$$$$

  -OEChem-01062216063D

 25 24  0     1  0  0  0  0  0999 V2000
   -2.7806   -3.4756    0.7366 H   0  0  0  0  0  0  0  0  0  0  0  0
   -2.7918   -2.4505    0.3554 C   0  0  0  0  0  0  0  0  0  0  0  0
   -3.6474   -1.9239    0.7850 H   0  0  0  0  0  0  0  0  0  0  0  0
   -2.8995   -2.4823   -0.7317 H   0  0  0  0  0  0  0  0  0  0  0  0
   -1.5032   -1.7416    0.7275 C   0  0  0  0  0  0  0  0  0  0  0  0
   -0.6668   -2.3085    1.4092 O   0  0  0  0  0  0  0  0  0  0  0  0
   -1.3045   -0.4270    0.3568 N   0  0  0  0  0  0  0  0  0  0  0  0
   -2.0180   -0.0219   -0.2423 H   0  0  0  0  0  0  0  0  0  0  0  0
    0.0138    0.2384    0.3948 C   0  0  1  0  0  0  0  0  0  0  0  0
    0.7754   -0.4402   -0.0083 H   0  0  0  0  0  0  0  0  0  0  0  0
   -0.0792    1.4945   -0.5001 C   0  0  0  0  0  0  0  0  0  0  0  0
   -0.9243    2.1101   -0.1801 H   0  0  0  0  0  0  0  0  0  0  0  0
    0.8253    2.0978   -0.3797 H   0  0  0  0  0  0  0  0  0  0  0  0
   -0.2111    1.1886   -1.9889 C   0  0  0  0  0  0  0  0  0  0  0  0
    0.2716    0.1659   -2.4453 O   0  0  0  0  0  0  0  0  0  0  0  0
   -0.8950    2.0855   -2.7357 O   0  0  0  0  0  0  0  0  0  0  0  0
   -0.8568    1.7593   -3.6482 H   0  0  0  0  0  0  0  0  0  0  0  0
    0.5013    0.6164    1.8171 C   0  0  0  0  0  0  0  0  0  0  0  0
    1.5177    1.2860    1.9530 O   0  0  0  0  0  0  0  0  0  0  0  0
   -0.2652    0.3334    2.9325 N   0  0  0  0  0  0  0  0  0  0  0  0
   -0.9386   -0.4172    2.7987 H   0  0  0  0  0  0  0  0  0  0  0  0
    0.1907    0.6112    4.2890 C   0  0  0  0  0  0  0  0  0  0  0  0
    0.4037    1.6784    4.4123 H   0  0  0  0  0  0  0  0  0  0  0  0
   -0.5813    0.3299    5.0116 H   0  0  0  0  0  0  0  0  0  0  0  0
    1.1000    0.0428    4.5112 H   0  0  0  0  0  0  0  0  0  0  0  0
  1  2  1  0  0  0  0
  2  3  1  0  0  0  0
  2  4  1  0  0  0  0
  2  5  1  0  0  0  0
  5  6  2  0  0  0  0
  5  7  1  0  0  0  0
  7  8  1  0  0  0  0
  7  9  1  0  0  0  0
  9 10  1  0  0  0  0
  9 11  1  0  0  0  0
  9 18  1  0  0  0  0
 11 12  1  0  0  0  0
 11 13  1  0  0  0  0
 11 14  1  0  0  0  0
 14 15  2  0  0  0  0
 14 16  1  0  0  0  0
 16 17  1  0  0  0  0
 18 19  2  0  0  0  0
 18 20  1  0  0  0  0
 20 21  1  0  0  0  0
 20 22  1  0  0  0  0
 22 23  1  0  0  0  0
 22 24  1  0  0  0  0
 22 25  1  0  0  0  0
M  END
$$$$

  -OEChem-01062216063D

 25 24  0     1  0  0  0  0  0999 V2000
   -2.7974   -3.4609    0.7303 H   0  0  0  0  0  0  0  0  0  0  0  0
   -2.8098   -2.4240    0.3820 C   0  0  0  0  0  0  0  0  0  0  0  0
   -3.6273   -1.8947    0.8774 H   0  0  0  0  0  0  0  0  0  0  0  0
   -2.9812   -2.4183   -0.6971 H   0  0  0  0  0  0  0  0  0  0  0  0
   -1.4884   -1.7506    0.6988 C   0  0  0  0  0  0  0  0  0  0  0  0
   -0.6301   -2.3489    1.3258 O   0  0  0  0  0  0  0  0  0  0  0  0
   -1.2847   -0.4316    0.3479 N   0  0  0  0  0  0  0  0  0  0  0  0
   -2.0316    0.0147   -0.1766 H   0  0  0  0  0  0  0  0  0  0  0  0
    0.0258    0.2488    0.3933 C   0  0  1  0  0  0  0  0  0  0  0  0
    0.7950   -0.4201   -0.0108 H   0  0  0  0  0  0  0  0  0  0  0  0
   -0.0820    1.5005   -0.5083 C   0  0  0  0  0  0  0  0  0  0  0  0
   -0.9370    2.1050   -0.1940 H   0  0  0  0  0  0  0  0  0  0  0  0
    0.8126    2.1187   -0.3907 H   0  0  0  0  0  0  0  0  0  0  0  0
   -0.2023    1.1863   -1.9965 C   0  0  0  0  0  0  0  0  0  0  0  0
    0.2978    0.1691   -2.4466 O   0  0  0  0  0  0  0  0  0  0  0  0
   -0.8937    2.0714   -2.7505 O   0  0  0  0  0  0  0  0  0  0  0  0
   -0.8471    1.7416   -3.6612 H   0  0  0  0  0  0  0  0  0  0  0  0
    0.5067    0.6155    1.8235 C   0  0  0  0  0  0  0  0  0  0  0  0
    1.3579    1.4812    1.9855 O   0  0  0  0  0  0  0  0  0  0  0  0
   -0.0847    0.0537    2.9396 N   0  0  0  0  0  0  0  0  0  0  0  0
   -0.5699   -0.8251    2.7580 H   0  0  0  0  0  0  0  0  0  0  0  0
    0.3868    0.3086    4.2953 C   0  0  0  0  0  0  0  0  0  0  0  0
    0.3584    1.3806    4.5169 H   0  0  0  0  0  0  0  0  0  0  0  0
   -0.2501   -0.2081    5.0195 H   0  0  0  0  0  0  0  0  0  0  0  0
    1.4145   -0.0491    4.4167 H   0  0  0  0  0  0  0  0  0  0  0  0
  1  2  1  0  0  0  0
  2  3  1  0  0  0  0
  2  4  1  0  0  0  0
  2  5  1  0  0  0  0
  5  6  2  0  0  0  0
  5  7  1  0  0  0  0
  7  8  1  0  0  0  0
  7  9  1  0  0  0  0
  9 10  1  0  0  0  0
  9 11  1  0  0  0  0
  9 18  1  0  0  0  0
 11 12  1  0  0  0  0
 11 13  1  0  0  0  0
 11 14  1  0  0  0  0
 14 15  2  0  0  0  0
 14 16  1  0  0  0  0
 16 17  1  0  0  0  0
 18 19  2  0  0  0  0
 18 20  1  0  0  0  0
 20 21  1  0  0  0  0
 20 22  1  0  0  0  0
 22 23  1  0  0  0  0
 22 24  1  0  0  0  0
 22 25  1  0  0  0  0
M  END
$$$$

  -OEChem-01062216063D

 25 24  0     1  0  0  0  0  0999 V2000
   -2.7883   -3.4567    0.7204 H   0  0  0  0  0  0  0  0  0  0  0  0
   -2.8184   -2.4005    0.4384 C   0  0  0  0  0  0  0  0  0  0  0  0
   -3.5801   -1.8969    1.0386 H   0  0  0  0  0  0  0  0  0  0  0  0
   -3.0884   -2.3273   -0.6179 H   0  0  0  0  0  0  0  0  0  0  0  0
   -1.4645   -1.7583    0.6731 C   0  0  0  0  0  0  0  0  0  0  0  0
   -0.5692   -2.3946    1.2056 O   0  0  0  0  0  0  0  0  0  0  0  0
   -1.2619   -0.4351    0.3361 N   0  0  0  0  0  0  0  0  0  0  0  0
   -2.0469    0.0523   -0.0864 H   0  0  0  0  0  0  0  0  0  0  0  0
    0.0410    0.2586    0.3854 C   0  0  1  0  0  0  0  0  0  0  0  0
    0.8170   -0.4027   -0.0181 H   0  0  0  0  0  0  0  0  0  0  0  0
   -0.0746    1.5063   -0.5217 C   0  0  0  0  0  0  0  0  0  0  0  0
   -0.9354    2.1057   -0.2135 H   0  0  0  0  0  0  0  0  0  0  0  0
    0.8149    2.1315   -0.4032 H   0  0  0  0  0  0  0  0  0  0  0  0
   -0.1841    1.1848   -2.0093 C   0  0  0  0  0  0  0  0  0  0  0  0
    0.3286    0.1708   -2.4527 O   0  0  0  0  0  0  0  0  0  0  0  0
   -0.8805    2.0594   -2.7709 O   0  0  0  0  0  0  0  0  0  0  0  0
   -0.8298    1.7228   -3.6789 H   0  0  0  0  0  0  0  0  0  0  0  0
    0.5112    0.6152    1.8233 C   0  0  0  0  0  0  0  0  0  0  0  0
    1.1535    1.6360    2.0383 O   0  0  0  0  0  0  0  0  0  0  0  0
    0.1501   -0.1711    2.9011 N   0  0  0  0  0  0  0  0  0  0  0  0
   -0.1908   -1.1034    2.6583 H   0  0  0  0  0  0  0  0  0  0  0  0
    0.6288    0.0618    4.2578 C   0  0  0  0  0  0  0  0  0  0  0  0
    0.3408    1.0613    4.5999 H   0  0  0  0  0  0  0  0  0  0  0  0
    0.1950   -0.6738    4.9417 H   0  0  0  0  0  0  0  0  0  0  0  0
    1.7194   -0.0248    4.3000 H   0  0  0  0  0  0  0  0  0  0  0  0
  1  2  1  0  0  0  0
  2  3  1  0  0  0  0
  2  4  1  0  0  0  0
  2  5  1  0  0  0  0
  5  6  2  0  0  0  0
  5  7  1  0  0  0  0
  7  8  1  0  0  0  0
  7  9  1  0  0  0  0
  9 10  1  0  0  0  0
  9 11  1  0  0  0  0
  9 18  1  0  0  0  0
 11 12  1  0  0  0  0
 11 13  1  0  0  0  0
 11 14  1  0  0  0  0
 14 15  2  0  0  0  0
 14 16  1  0  0  0  0
 16 17  1  0  0  0  0
 18 19  2  0  0  0  0
 18 20  1  0  0  0  0
 20 21  1  0  0  0  0
 20 22  1  0  0  0  0
 22 23  1  0  0  0  0
 22 24  1  0  0  0  0
 22 25  1  0  0  0  0
M  END
$$$$

  -OEChem-01062216063D

 25 24  0     1  0  0  0  0  0999 V2000
   -2.7688   -3.4461    0.7970 H   0  0  0  0  0  0  0  0  0  0  0  0
   -2.8052   -2.3874    0.5247 C   0  0  0  0  0  0  0  0  0  0  0  0
   -3.5075   -1.8771    1.1883 H   0  0  0  0  0  0  0  0  0  0  0  0
   -3.1587   -2.3023   -0.5058 H   0  0  0  0  0  0  0  0  0  0  0  0
   -1.4269   -1.7673    0.6523 C   0  0  0  0  0  0  0  0  0  0  0  0
   -0.4963   -2.4291    1.0860 O   0  0  0  0  0  0  0  0  0  0  0  0
   -1.2358   -0.4410    0.3188 N   0  0  0  0  0  0  0  0  0  0  0  0
   -2.0533    0.0779    0.0109 H   0  0  0  0  0  0  0  0  0  0  0  0
    0.0605    0.2622    0.3642 C   0  0  1  0  0  0  0  0  0  0  0  0
    0.8418   -0.3908   -0.0424 H   0  0  0  0  0  0  0  0  0  0  0  0
   -0.0599    1.5123   -0.5382 C   0  0  0  0  0  0  0  0  0  0  0  0
   -0.9232    2.1071   -0.2278 H   0  0  0  0  0  0  0  0  0  0  0  0
    0.8274    2.1397   -0.4141 H   0  0  0  0  0  0  0  0  0  0  0  0
   -0.1694    1.1974   -2.0271 C   0  0  0  0  0  0  0  0  0  0  0  0
    0.3467    0.1870   -2.4751 O   0  0  0  0  0  0  0  0  0  0  0  0
   -0.8622    2.0773   -2.7861 O   0  0  0  0  0  0  0  0  0  0  0  0
   -0.8105    1.7443   -3.6953 H   0  0  0  0  0  0  0  0  0  0  0  0
    0.5170    0.6089    1.8074 C   0  0  0  0  0  0  0  0  0  0  0  0
    0.9247    1.7285    2.0921 O   0  0  0  0  0  0  0  0  0  0  0  0
    0.4242   -0.3321    2.8146 N   0  0  0  0  0  0  0  0  0  0  0  0
    0.1851   -1.2813    2.5178 H   0  0  0  0  0  0  0  0  0  0  0  0
    0.8912   -0.1120    4.1770 C   0  0  0  0  0  0  0  0  0  0  0  0
    0.3721    0.7405    4.6270 H   0  0  0  0  0  0  0  0  0  0  0  0
    0.6962   -0.9971    4.7900 H   0  0  0  0  0  0  0  0  0  0  0  0
    1.9680    0.0862    4.1850 H   0  0  0  0  0  0  0  0  0  0  0  0
  1  2  1  0  0  0  0
  2  3  1  0  0  0  0
  2  4  1  0  0  0  0
  2  5  1  0  0  0  0
  5  6  2  0  0  0  0
  5  7  1  0  0  0  0
  7  8  1  0  0  0  0
  7  9  1  0  0  0  0
  9 10  1  0  0  0  0
  9 11  1  0  0  0  0
  9 18  1  0  0  0  0
 11 12  1  0  0  0  0
 11 13  1  0  0  0  0
 11 14  1  0  0  0  0
 14 15  2  0  0  0  0
 14 16  1  0  0  0  0
 16 17  1  0  0  0  0
 18 19  2  0  0  0  0
 18 20  1  0  0  0  0
 20 21  1  0  0  0  0
 20 22  1  0  0  0  0
 22 23  1  0  0  0  0
 22 24  1  0  0  0  0
 22 25  1  0  0  0  0
M  END
$$$$

  -OEChem-01062216063D

 25 24  0     1  0  0  0  0  0999 V2000
   -2.7284   -3.4337    0.8876 H   0  0  0  0  0  0  0  0  0  0  0  0
   -2.7728   -2.3791    0.6014 C   0  0  0  0  0  0  0  0  0  0  0  0
   -3.4407   -1.8553    1.2895 H   0  0  0  0  0  0  0  0  0  0  0  0
   -3.1738   -2.3069   -0.4124 H   0  0  0  0  0  0  0  0  0  0  0  0
   -1.3870   -1.7645    0.6549 C   0  0  0  0  0  0  0  0  0  0  0  0
   -0.4358   -2.4330    1.0314 O   0  0  0  0  0  0  0  0  0  0  0  0
   -1.2085   -0.4385    0.3126 N   0  0  0  0  0  0  0  0  0  0  0  0
   -2.0403    0.0934    0.0725 H   0  0  0  0  0  0  0  0  0  0  0  0
    0.0885    0.2615    0.3365 C   0  0  1  0  0  0  0  0  0  0  0  0
    0.8652   -0.3892   -0.0823 H   0  0  0  0  0  0  0  0  0  0  0  0
   -0.0369    1.5175   -0.5556 C   0  0  0  0  0  0  0  0  0  0  0  0
   -0.8928    2.1146   -0.2290 H   0  0  0  0  0  0  0  0  0  0  0  0
    0.8558    2.1380   -0.4351 H   0  0  0  0  0  0  0  0  0  0  0  0
   -0.1709    1.2149   -2.0449 C   0  0  0  0  0  0  0  0  0  0  0  0
    0.3317    0.2044   -2.5076 O   0  0  0  0  0  0  0  0  0  0  0  0
   -0.8691    2.1049   -2.7871 O   0  0  0  0  0  0  0  0  0  0  0  0
   -0.8393    1.7751   -3.6983 H   0  0  0  0  0  0  0  0  0  0  0  0
    0.5489    0.6018    1.7775 C   0  0  0  0  0  0  0  0  0  0  0  0
    0.7248    1.7605    2.1345 O   0  0  0  0  0  0  0  0  0  0  0  0
    0.7479   -0.4126    2.6932 N   0  0  0  0  0  0  0  0  0  0  0  0
    0.5555   -1.3633    2.3670 H   0  0  0  0  0  0  0  0  0  0  0  0
    1.1600   -0.1991    4.0740 C   0  0  0  0  0  0  0  0  0  0  0  0
    0.4305    0.4258    4.5994 H   0  0  0  0  0  0  0  0  0  0  0  0
    1.2359   -1.1573    4.5970 H   0  0  0  0  0  0  0  0  0  0  0  0
    2.1376    0.2929    4.1095 H   0  0  0  0  0  0  0  0  0  0  0  0
  1  2  1  0  0  0  0
  2  3  1  0  0  0  0
  2  4  1  0  0  0  0
  2  5  1  0  0  0  0
  5  6  2  0  0  0  0
  5  7  1  0  0  0  0
  7  8  1  0  0  0  0
  7  9  1  0  0  0  0
  9 10  1  0  0  0  0
  9 11  1  0  0  0  0
  9 18  1  0  0  0  0
 11 12  1  0  0  0  0
 11 13  1  0  0  0  0
 11 14  1  0  0  0  0
 14 15  2  0  0  0  0
 14 16  1  0  0  0  0
 16 17  1  0  0  0  0
 18 19  2  0  0  0  0
 18 20  1  0  0  0  0
 20 21  1  0  0  0  0
 20 22  1  0  0  0  0
 22 23  1  0  0  0  0
 22 24  1  0  0  0  0
 22 25  1  0  0  0  0
M  END
$$$$

  -OEChem-01062216063D

 25 24  0     1  0  0  0  0  0999 V2000
   -2.6777   -3.4229    0.9625 H   0  0  0  0  0  0  0  0  0  0  0  0
   -2.7344   -2.3726    0.6630 C   0  0  0  0  0  0  0  0  0  0  0  0
   -3.3866   -1.8419    1.3607 H   0  0  0  0  0  0  0  0  0  0  0  0
   -3.1623   -2.3161   -0.3408 H   0  0  0  0  0  0  0  0  0  0  0  0
   -1.3505   -1.7516    0.6711 C   0  0  0  0  0  0  0  0  0  0  0  0
   -0.3832   -2.4113    1.0240 O   0  0  0  0  0  0  0  0  0  0  0  0
   -1.1871   -0.4286    0.3105 N   0  0  0  0  0  0  0  0  0  0  0  0
   -2.0261    0.1095    0.1122 H   0  0  0  0  0  0  0  0  0  0  0  0
    0.1115    0.2638    0.3114 C   0  0  1  0  0  0  0  0  0  0  0  0
    0.8827   -0.3876   -0.1167 H   0  0  0  0  0  0  0  0  0  0  0  0
   -0.0171    1.5234   -0.5733 C   0  0  0  0  0  0  0  0  0  0  0  0
   -0.8655    2.1237   -0.2326 H   0  0  0  0  0  0  0  0  0  0  0  0
    0.8807    2.1374   -0.4585 H   0  0  0  0  0  0  0  0  0  0  0  0
   -0.1776    1.2276   -2.0612 C   0  0  0  0  0  0  0  0  0  0  0  0
    0.3090    0.2142   -2.5350 O   0  0  0  0  0  0  0  0  0  0  0  0
   -0.8757    2.1285   -2.7903 O   0  0  0  0  0  0  0  0  0  0  0  0
   -0.8642    1.8007   -3.7025 H   0  0  0  0  0  0  0  0  0  0  0  0
    0.5722    0.6050    1.7487 C   0  0  0  0  0  0  0  0  0  0  0  0
    0.5228    1.7511    2.1790 O   0  0  0  0  0  0  0  0  0  0  0  0
    1.0599   -0.4011    2.5591 N   0  0  0  0  0  0  0  0  0  0  0  0
    0.9170   -1.3548    2.2168 H   0  0  0  0  0  0  0  0  0  0  0  0
    1.4342   -0.2004    3.9526 C   0  0  0  0  0  0  0  0  0  0  0  0
    0.5672    0.1187    4.5402 H   0  0  0  0  0  0  0  0  0  0  0  0
    1.8190   -1.1323    4.3778 H   0  0  0  0  0  0  0  0  0  0  0  0
    2.2152    0.5630    4.0334 H   0  0  0  0  0  0  0  0  0  0  0  0
  1  2  1  0  0  0  0
  2  3  1  0  0  0  0
  2  4  1  0  0  0  0
  2  5  1  0  0  0  0
  5  6  2  0  0  0  0
  5  7  1  0  0  0  0
  7  8  1  0  0  0  0
  7  9  1  0  0  0  0
  9 10  1  0  0  0  0
  9 11  1  0  0  0  0
  9 18  1  0  0  0  0
 11 12  1  0  0  0  0
 11 13  1  0  0  0  0
 11 14  1  0  0  0  0
 14 15  2  0  0  0  0
 14 16  1  0  0  0  0
 16 17  1  0  0  0  0
 18 19  2  0  0  0  0
 18 20  1  0  0  0  0
 20 21  1  0  0  0  0
 20 22  1  0  0  0  0
 22 23  1  0  0  0  0
 22 24  1  0  0  0  0
 22 25  1  0  0  0  0
M  END
$$$$

  -OEChem-01062216063D

 25 24  0     1  0  0  0  0  0999 V2000
   -2.6177   -3.4172    1.0454 H   0  0  0  0  0  0  0  0  0  0  0  0
   -2.6959   -2.3732    0.7289 C   0  0  0  0  0  0  0  0  0  0  0  0
   -3.3192   -1.8335    1.4459 H   0  0  0  0  0  0  0  0  0  0  0  0
   -3.1697   -2.3388   -0.2552 H   0  0  0  0  0  0  0  0  0  0  0  0
   -1.3177   -1.7431    0.6622 C   0  0  0  0  0  0  0  0  0  0  0  0
   -0.3291   -2.3917    0.9756 O   0  0  0  0  0  0  0  0  0  0  0  0
   -1.1782   -0.4212    0.2877 N   0  0  0  0  0  0  0  0  0  0  0  0
   -2.0259    0.1271    0.1712 H   0  0  0  0  0  0  0  0  0  0  0  0
    0.1187    0.2698    0.2844 C   0  0  1  0  0  0  0  0  0  0  0  0
    0.8923   -0.3781   -0.1449 H   0  0  0  0  0  0  0  0  0  0  0  0
   -0.0054    1.5341   -0.5923 C   0  0  0  0  0  0  0  0  0  0  0  0
   -0.8531    2.1344   -0.2496 H   0  0  0  0  0  0  0  0  0  0  0  0
    0.8937    2.1447   -0.4717 H   0  0  0  0  0  0  0  0  0  0  0  0
   -0.1701    1.2463   -2.0815 C   0  0  0  0  0  0  0  0  0  0  0  0
    0.3110    0.2329   -2.5610 O   0  0  0  0  0  0  0  0  0  0  0  0
   -0.8623    2.1557   -2.8059 O   0  0  0  0  0  0  0  0  0  0  0  0
   -0.8570    1.8300   -3.7190 H   0  0  0  0  0  0  0  0  0  0  0  0
    0.5600    0.6111    1.7247 C   0  0  0  0  0  0  0  0  0  0  0  0
    0.2784    1.6892    2.2345 O   0  0  0  0  0  0  0  0  0  0  0  0
    1.3165   -0.3044    2.4294 N   0  0  0  0  0  0  0  0  0  0  0  0
    1.3065   -1.2548    2.0549 H   0  0  0  0  0  0  0  0  0  0  0  0
    1.6911   -0.1132    3.8246 C   0  0  0  0  0  0  0  0  0  0  0  0
    0.7995   -0.0750    4.4590 H   0  0  0  0  0  0  0  0  0  0  0  0
    2.3239   -0.9397    4.1621 H   0  0  0  0  0  0  0  0  0  0  0  0
    2.2509    0.8201    3.9473 H   0  0  0  0  0  0  0  0  0  0  0  0
  1  2  1  0  0  0  0
  2  3  1  0  0  0  0
  2  4  1  0  0  0  0
  2  5  1  0  0  0  0
  5  6  2  0  0  0  0
  5  7  1  0  0  0  0
  7  8  1  0  0  0  0
  7  9  1  0  0  0  0
  9 10  1  0  0  0  0
  9 11  1  0  0  0  0
  9 18  1  0  0  0  0
 11 12  1  0  0  0  0
 11 13  1  0  0  0  0
 11 14  1  0  0  0  0
 14 15  2  0  0  0  0
 14 16  1  0  0  0  0
 16 17  1  0  0  0  0
 18 19  2  0  0  0  0
 18 20  1  0  0  0  0
 20 21  1  0  0  0  0
 20 22  1  0  0  0  0
 22 23  1  0  0  0  0
 22 24  1  0  0  0  0
 22 25  1  0  0  0  0
M  END
$$$$

  -OEChem-01062216063D

 25 24  0     1  0  0  0  0  0999 V2000
   -2.5863   -3.4131    1.1004 H   0  0  0  0  0  0  0  0  0  0  0  0
   -2.6768   -2.3716    0.7794 C   0  0  0  0  0  0  0  0  0  0  0  0
   -3.2544   -1.8215    1.5261 H   0  0  0  0  0  0  0  0  0  0  0  0
   -3.2057   -2.3423   -0.1762 H   0  0  0  0  0  0  0  0  0  0  0  0
   -1.3013   -1.7503    0.6290 C   0  0  0  0  0  0  0  0  0  0  0  0
   -0.3000   -2.4052    0.8825 O   0  0  0  0  0  0  0  0  0  0  0  0
   -1.1781   -0.4280    0.2510 N   0  0  0  0  0  0  0  0  0  0  0  0
   -2.0270    0.1308    0.2385 H   0  0  0  0  0  0  0  0  0  0  0  0
    0.1160    0.2662    0.2594 C   0  0  1  0  0  0  0  0  0  0  0  0
    0.8937   -0.3772   -0.1685 H   0  0  0  0  0  0  0  0  0  0  0  0
   -0.0028    1.5389   -0.6044 C   0  0  0  0  0  0  0  0  0  0  0  0
   -0.8539    2.1345   -0.2619 H   0  0  0  0  0  0  0  0  0  0  0  0
    0.8944    2.1496   -0.4714 H   0  0  0  0  0  0  0  0  0  0  0  0
   -0.1585    1.2643   -2.0971 C   0  0  0  0  0  0  0  0  0  0  0  0
    0.3259    0.2552   -2.5823 O   0  0  0  0  0  0  0  0  0  0  0  0
   -0.8418    2.1823   -2.8188 O   0  0  0  0  0  0  0  0  0  0  0  0
   -0.8348    1.8608   -3.7333 H   0  0  0  0  0  0  0  0  0  0  0  0
    0.5383    0.6089    1.7035 C   0  0  0  0  0  0  0  0  0  0  0  0
    0.0299    1.5554    2.2926 O   0  0  0  0  0  0  0  0  0  0  0  0
    1.5309   -0.1302    2.3168 N   0  0  0  0  0  0  0  0  0  0  0  0
    1.7396   -1.0289    1.8842 H   0  0  0  0  0  0  0  0  0  0  0  0
    1.9193    0.0730    3.7067 C   0  0  0  0  0  0  0  0  0  0  0  0
    1.0767   -0.1343    4.3745 H   0  0  0  0  0  0  0  0  0  0  0  0
    2.7446   -0.5960    3.9693 H   0  0  0  0  0  0  0  0  0  0  0  0
    2.2499    1.1048    3.8659 H   0  0  0  0  0  0  0  0  0  0  0  0
  1  2  1  0  0  0  0
  2  3  1  0  0  0  0
  2  4  1  0  0  0  0
  2  5  1  0  0  0  0
  5  6  2  0  0  0  0
  5  7  1  0  0  0  0
  7  8  1  0  0  0  0
  7  9  1  0  0  0  0
  9 10  1  0  0  0  0
  9 11  1  0  0  0  0
  9 18  1  0  0  0  0
 11 12  1  0  0  0  0
 11 13  1  0  0  0  0
 11 14  1  0  0  0  0
 14 15  2  0  0  0  0
 14 16  1  0  0  0  0
 16 17  1  0  0  0  0
 18 19  2  0  0  0  0
 18 20  1  0  0  0  0
 20 21  1  0  0  0  0
 20 22  1  0  0  0  0
 22 23  1  0  0  0  0
 22 24  1  0  0  0  0
 22 25  1  0  0  0  0
M  END
$$$$

  -OEChem-01062216063D

 25 24  0     1  0  0  0  0  0999 V2000
   -2.5792   -3.4110    1.1198 H   0  0  0  0  0  0  0  0  0  0  0  0
   -2.6723   -2.3667    0.8085 C   0  0  0  0  0  0  0  0  0  0  0  0
   -3.2139   -1.8158    1.5813 H   0  0  0  0  0  0  0  0  0  0  0  0
   -3.2393   -2.3265   -0.1246 H   0  0  0  0  0  0  0  0  0  0  0  0
   -1.2981   -1.7574    0.6057 C   0  0  0  0  0  0  0  0  0  0  0  0
   -0.2947   -2.4245    0.8127 O   0  0  0  0  0  0  0  0  0  0  0  0
   -1.1802   -0.4356    0.2249 N   0  0  0  0  0  0  0  0  0  0  0  0
   -2.0235    0.1286    0.2862 H   0  0  0  0  0  0  0  0  0  0  0  0
    0.1127    0.2609    0.2432 C   0  0  1  0  0  0  0  0  0  0  0  0
    0.8925   -0.3817   -0.1820 H   0  0  0  0  0  0  0  0  0  0  0  0
   -0.0048    1.5375   -0.6127 C   0  0  0  0  0  0  0  0  0  0  0  0
   -0.8600    2.1273   -0.2704 H   0  0  0  0  0  0  0  0  0  0  0  0
    0.8895    2.1505   -0.4729 H   0  0  0  0  0  0  0  0  0  0  0  0
   -0.1533    1.2714   -2.1078 C   0  0  0  0  0  0  0  0  0  0  0  0
    0.3354    0.2662   -2.5967 O   0  0  0  0  0  0  0  0  0  0  0  0
   -0.8310    2.1948   -2.8279 O   0  0  0  0  0  0  0  0  0  0  0  0
   -0.8214    1.8781   -3.7442 H   0  0  0  0  0  0  0  0  0  0  0  0
    0.5269    0.6101    1.6874 C   0  0  0  0  0  0  0  0  0  0  0  0
   -0.1633    1.3727    2.3538 O   0  0  0  0  0  0  0  0  0  0  0  0
    1.7025    0.1100    2.2139 N   0  0  0  0  0  0  0  0  0  0  0  0
    2.1309   -0.6596    1.7048 H   0  0  0  0  0  0  0  0  0  0  0  0
    2.0996    0.3286    3.5993 C   0  0  0  0  0  0  0  0  0  0  0  0
    1.3629   -0.1072    4.2824 H   0  0  0  0  0  0  0  0  0  0  0  0
    3.0707   -0.1376    3.7920 H   0  0  0  0  0  0  0  0  0  0  0  0
    2.1849    1.4000    3.8095 H   0  0  0  0  0  0  0  0  0  0  0  0
  1  2  1  0  0  0  0
  2  3  1  0  0  0  0
  2  4  1  0  0  0  0
  2  5  1  0  0  0  0
  5  6  2  0  0  0  0
  5  7  1  0  0  0  0
  7  8  1  0  0  0  0
  7  9  1  0  0  0  0
  9 10  1  0  0  0  0
  9 11  1  0  0  0  0
  9 18  1  0  0  0  0
 11 12  1  0  0  0  0
 11 13  1  0  0  0  0
 11 14  1  0  0  0  0
 14 15  2  0  0  0  0
 14 16  1  0  0  0  0
 16 17  1  0  0  0  0
 18 19  2  0  0  0  0
 18 20  1  0  0  0  0
 20 21  1  0  0  0  0
 20 22  1  0  0  0  0
 22 23  1  0  0  0  0
 22 24  1  0  0  0  0
 22 25  1  0  0  0  0
M  END
$$$$

  -OEChem-01062216063D

 25 24  0     1  0  0  0  0  0999 V2000
   -2.5809   -3.4120    1.1350 H   0  0  0  0  0  0  0  0  0  0  0  0
   -2.6751   -2.3672    0.8263 C   0  0  0  0  0  0  0  0  0  0  0  0
   -3.1891   -1.8124    1.6149 H   0  0  0  0  0  0  0  0  0  0  0  0
   -3.2687   -2.3225   -0.0899 H   0  0  0  0  0  0  0  0  0  0  0  0
   -1.3029   -1.7684    0.5837 C   0  0  0  0  0  0  0  0  0  0  0  0
   -0.3004   -2.4468    0.7526 O   0  0  0  0  0  0  0  0  0  0  0  0
   -1.1883   -0.4464    0.2025 N   0  0  0  0  0  0  0  0  0  0  0  0
   -2.0263    0.1181    0.3129 H   0  0  0  0  0  0  0  0  0  0  0  0
    0.1038    0.2526    0.2360 C   0  0  1  0  0  0  0  0  0  0  0  0
    0.8871   -0.3899   -0.1830 H   0  0  0  0  0  0  0  0  0  0  0  0
   -0.0090    1.5332   -0.6134 C   0  0  0  0  0  0  0  0  0  0  0  0
   -0.8691    2.1178   -0.2746 H   0  0  0  0  0  0  0  0  0  0  0  0
    0.8824    2.1480   -0.4627 H   0  0  0  0  0  0  0  0  0  0  0  0
   -0.1442    1.2767   -2.1113 C   0  0  0  0  0  0  0  0  0  0  0  0
    0.3505    0.2759   -2.6026 O   0  0  0  0  0  0  0  0  0  0  0  0
   -0.8137    2.2063   -2.8311 O   0  0  0  0  0  0  0  0  0  0  0  0
   -0.7988    1.8941   -3.7488 H   0  0  0  0  0  0  0  0  0  0  0  0
    0.5083    0.6079    1.6818 C   0  0  0  0  0  0  0  0  0  0  0  0
   -0.2982    1.1606    2.4213 O   0  0  0  0  0  0  0  0  0  0  0  0
    1.7990    0.3839    2.1229 N   0  0  0  0  0  0  0  0  0  0  0  0
    2.3884   -0.2006    1.5360 H   0  0  0  0  0  0  0  0  0  0  0  0
    2.2193    0.6404    3.4950 C   0  0  0  0  0  0  0  0  0  0  0  0
    1.6391    0.0285    4.1937 H   0  0  0  0  0  0  0  0  0  0  0  0
    3.2790    0.3971    3.6178 H   0  0  0  0  0  0  0  0  0  0  0  0
    2.0767    1.6962    3.7488 H   0  0  0  0  0  0  0  0  0  0  0  0
  1  2  1  0  0  0  0
  2  3  1  0  0  0  0
  2  4  1  0  0  0  0
  2  5  1  0  0  0  0
  5  6  2  0  0  0  0
  5  7  1  0  0  0  0
  7  8  1  0  0  0  0
  7  9  1  0  0  0  0
  9 10  1  0  0  0  0
  9 11  1  0  0  0  0
  9 18  1  0  0  0  0
 11 12  1  0  0  0  0
 11 13  1  0  0  0  0
 11 14  1  0  0  0  0
 14 15  2  0  0  0  0
 14 16  1  0  0  0  0
 16 17  1  0  0  0  0
 18 19  2  0  0  0  0
 18 20  1  0  0  0  0
 20 21  1  0  0  0  0
 20 22  1  0  0  0  0
 22 23  1  0  0  0  0
 22 24  1  0  0  0  0
 22 25  1  0  0  0  0
M  END
$$$$

  -OEChem-01062216063D

 25 24  0     1  0  0  0  0  0999 V2000
   -2.5848   -3.4150    1.1354 H   0  0  0  0  0  0  0  0  0  0  0  0
   -2.6799   -2.3690    0.8307 C   0  0  0  0  0  0  0  0  0  0  0  0
   -3.1772   -1.8136    1.6297 H   0  0  0  0  0  0  0  0  0  0  0  0
   -3.2896   -2.3194   -0.0745 H   0  0  0  0  0  0  0  0  0  0  0  0
   -1.3094   -1.7759    0.5648 C   0  0  0  0  0  0  0  0  0  0  0  0
   -0.3087   -2.4637    0.7029 O   0  0  0  0  0  0  0  0  0  0  0  0
   -1.1974   -0.4523    0.1870 N   0  0  0  0  0  0  0  0  0  0  0  0
   -2.0324    0.1095    0.3300 H   0  0  0  0  0  0  0  0  0  0  0  0
    0.0946    0.2474    0.2383 C   0  0  1  0  0  0  0  0  0  0  0  0
    0.8829   -0.3938   -0.1730 H   0  0  0  0  0  0  0  0  0  0  0  0
   -0.0155    1.5300   -0.6082 C   0  0  0  0  0  0  0  0  0  0  0  0
   -0.8815    2.1095   -0.2755 H   0  0  0  0  0  0  0  0  0  0  0  0
    0.8714    2.1490   -0.4493 H   0  0  0  0  0  0  0  0  0  0  0  0
   -0.1359    1.2767   -2.1081 C   0  0  0  0  0  0  0  0  0  0  0  0
    0.3676    0.2793   -2.5974 O   0  0  0  0  0  0  0  0  0  0  0  0
   -0.8013    2.2061   -2.8319 O   0  0  0  0  0  0  0  0  0  0  0  0
   -0.7784    1.8947   -3.7498 H   0  0  0  0  0  0  0  0  0  0  0  0
    0.4916    0.6050    1.6865 C   0  0  0  0  0  0  0  0  0  0  0  0
   -0.3688    0.9391    2.4934 O   0  0  0  0  0  0  0  0  0  0  0  0
    1.8248    0.6757    2.0463 N   0  0  0  0  0  0  0  0  0  0  0  0
    2.5018    0.2982    1.3893 H   0  0  0  0  0  0  0  0  0  0  0  0
    2.2630    0.9807    3.4030 C   0  0  0  0  0  0  0  0  0  0  0  0
    1.8743    0.2374    4.1071 H   0  0  0  0  0  0  0  0  0  0  0  0
    3.3559    0.9725    3.4585 H   0  0  0  0  0  0  0  0  0  0  0  0
    1.9100    1.9720    3.7065 H   0  0  0  0  0  0  0  0  0  0  0  0
  1  2  1  0  0  0  0
  2  3  1  0  0  0  0
  2  4  1  0  0  0  0
  2  5  1  0  0  0  0
  5  6  2  0  0  0  0
  5  7  1  0  0  0  0
  7  8  1  0  0  0  0
  7  9  1  0  0  0  0
  9 10  1  0  0  0  0
  9 11  1  0  0  0  0
  9 18  1  0  0  0  0
 11 12  1  0  0  0  0
 11 13  1  0  0  0  0
 11 14  1  0  0  0  0
 14 15  2  0  0  0  0
 14 16  1  0  0  0  0
 16 17  1  0  0  0  0
 18 19  2  0  0  0  0
 18 20  1  0  0  0  0
 20 21  1  0  0  0  0
 20 22  1  0  0  0  0
 22 23  1  0  0  0  0
 22 24  1  0  0  0  0
 22 25  1  0  0  0  0
M  END
$$$$

  -OEChem-01062216063D

 25 24  0     1  0  0  0  0  0999 V2000
   -2.5831   -3.4121    1.1451 H   0  0  0  0  0  0  0  0  0  0  0  0
   -2.6807   -2.3664    0.8408 C   0  0  0  0  0  0  0  0  0  0  0  0
   -3.1545   -1.8072    1.6512 H   0  0  0  0  0  0  0  0  0  0  0  0
   -3.3124   -2.3150   -0.0491 H   0  0  0  0  0  0  0  0  0  0  0  0
   -1.3145   -1.7806    0.5405 C   0  0  0  0  0  0  0  0  0  0  0  0
   -0.3166   -2.4793    0.6375 O   0  0  0  0  0  0  0  0  0  0  0  0
   -1.2049   -0.4543    0.1703 N   0  0  0  0  0  0  0  0  0  0  0  0
   -2.0358    0.1042    0.3444 H   0  0  0  0  0  0  0  0  0  0  0  0
    0.0883    0.2432    0.2400 C   0  0  1  0  0  0  0  0  0  0  0  0
    0.8806   -0.3970   -0.1662 H   0  0  0  0  0  0  0  0  0  0  0  0
   -0.0203    1.5278   -0.6055 C   0  0  0  0  0  0  0  0  0  0  0  0
   -0.8920    2.1027   -0.2799 H   0  0  0  0  0  0  0  0  0  0  0  0
    0.8614    2.1523   -0.4406 H   0  0  0  0  0  0  0  0  0  0  0  0
   -0.1271    1.2762   -2.1069 C   0  0  0  0  0  0  0  0  0  0  0  0
    0.3844    0.2821   -2.5939 O   0  0  0  0  0  0  0  0  0  0  0  0
   -0.7907    2.2040   -2.8340 O   0  0  0  0  0  0  0  0  0  0  0  0
   -0.7626    1.8918   -3.7517 H   0  0  0  0  0  0  0  0  0  0  0  0
    0.4796    0.5963    1.6928 C   0  0  0  0  0  0  0  0  0  0  0  0
   -0.3817    0.6963    2.5599 O   0  0  0  0  0  0  0  0  0  0  0  0
    1.7791    0.9649    1.9904 N   0  0  0  0  0  0  0  0  0  0  0  0
    2.4833    0.8079    1.2751 H   0  0  0  0  0  0  0  0  0  0  0  0
    2.2142    1.3226    3.3353 C   0  0  0  0  0  0  0  0  0  0  0  0
    2.0458    0.4898    4.0264 H   0  0  0  0  0  0  0  0  0  0  0  0
    3.2816    1.5632    3.3364 H   0  0  0  0  0  0  0  0  0  0  0  0
    1.6630    2.1973    3.6966 H   0  0  0  0  0  0  0  0  0  0  0  0
  1  2  1  0  0  0  0
  2  3  1  0  0  0  0
  2  4  1  0  0  0  0
  2  5  1  0  0  0  0
  5  6  2  0  0  0  0
  5  7  1  0  0  0  0
  7  8  1  0  0  0  0
  7  9  1  0  0  0  0
  9 10  1  0  0  0  0
  9 11  1  0  0  0  0
  9 18  1  0  0  0  0
 11 12  1  0  0  0  0
 11 13  1  0  0  0  0
 11 14  1  0  0  0  0
 14 15  2  0  0  0  0
 14 16  1  0  0  0  0
 16 17  1  0  0  0  0
 18 19  2  0  0  0  0
 18 20  1  0  0  0  0
 20 21  1  0  0  0  0
 20 22  1  0  0  0  0
 22 23  1  0  0  0  0
 22 24  1  0  0  0  0
 22 25  1  0  0  0  0
M  END
$$$$

  -OEChem-01062216063D

 25 24  0     1  0  0  0  0  0999 V2000
   -2.5653   -3.4477    1.0442 H   0  0  0  0  0  0  0  0  0  0  0  0
   -2.6588   -2.3732    0.8645 C   0  0  0  0  0  0  0  0  0  0  0  0
   -3.0201   -1.8940    1.7777 H   0  0  0  0  0  0  0  0  0  0  0  0
   -3.3819   -2.2109    0.0619 H   0  0  0  0  0  0  0  0  0  0  0  0
   -1.3130   -1.7909    0.4778 C   0  0  0  0  0  0  0  0  0  0  0  0
   -0.3255   -2.5097    0.4327 O   0  0  0  0  0  0  0  0  0  0  0  0
   -1.2122   -0.4546    0.1368 N   0  0  0  0  0  0  0  0  0  0  0  0
   -2.0416    0.0908    0.3498 H   0  0  0  0  0  0  0  0  0  0  0  0
    0.0812    0.2426    0.2412 C   0  0  1  0  0  0  0  0  0  0  0  0
    0.8179   -0.2674   -0.3907 H   0  0  0  0  0  0  0  0  0  0  0  0
   -0.1377    1.6842   -0.2671 C   0  0  0  0  0  0  0  0  0  0  0  0
   -0.9749    2.1346    0.2738 H   0  0  0  0  0  0  0  0  0  0  0  0
    0.7465    2.2914   -0.0594 H   0  0  0  0  0  0  0  0  0  0  0  0
   -0.4045    1.7818   -1.7667 C   0  0  0  0  0  0  0  0  0  0  0  0
    0.0645    0.9481   -2.5227 O   0  0  0  0  0  0  0  0  0  0  0  0
   -1.1599    2.8237   -2.1835 O   0  0  0  0  0  0  0  0  0  0  0  0
   -1.2288    2.7341   -3.1468 H   0  0  0  0  0  0  0  0  0  0  0  0
    0.6613    0.2577    1.6803 C   0  0  0  0  0  0  0  0  0  0  0  0
   -0.0407   -0.0389    2.6411 O   0  0  0  0  0  0  0  0  0  0  0  0
    1.8756    0.8746    1.9283 N   0  0  0  0  0  0  0  0  0  0  0  0
    2.4653    1.0777    1.1269 H   0  0  0  0  0  0  0  0  0  0  0  0
    2.4468    0.9969    3.2649 C   0  0  0  0  0  0  0  0  0  0  0  0
    2.6021    0.0069    3.7071 H   0  0  0  0  0  0  0  0  0  0  0  0
    3.4115    1.5112    3.2191 H   0  0  0  0  0  0  0  0  0  0  0  0
    1.7806    1.5727    3.9162 H   0  0  0  0  0  0  0  0  0  0  0  0
  1  2  1  0  0  0  0
  2  3  1  0  0  0  0
  2  4  1  0  0  0  0
  2  5  1  0  0  0  0
  5  6  2  0  0  0  0
  5  7  1  0  0  0  0
  7  8  1  0  0  0  0
  7  9  1  0  0  0  0
  9 10  1  0  0  0  0
  9 11  1  0  0  0  0
  9 18  1  0  0  0  0
 11 12  1  0  0  0  0
 11 13  1  0  0  0  0
 11 14  1  0  0  0  0
 14 15  2  0  0  0  0
 14 16  1  0  0  0  0
 16 17  1  0  0  0  0
 18 19  2  0  0  0  0
 18 20  1  0  0  0  0
 20 21  1  0  0  0  0
 20 22  1  0  0  0  0
 22 23  1  0  0  0  0
 22 24  1  0  0  0  0
 22 25  1  0  0  0  0
M  END
$$$$

  -OEChem-01062216063D

 25 24  0     1  0  0  0  0  0999 V2000
   -2.5473   -3.4336    1.0832 H   0  0  0  0  0  0  0  0  0  0  0  0
   -2.6485   -2.3636    0.8818 C   0  0  0  0  0  0  0  0  0  0  0  0
   -2.9928   -1.8664    1.7919 H   0  0  0  0  0  0  0  0  0  0  0  0
   -3.3878   -2.2209    0.0904 H   0  0  0  0  0  0  0  0  0  0  0  0
   -1.3127   -1.7853    0.4565 C   0  0  0  0  0  0  0  0  0  0  0  0
   -0.3371   -2.5137    0.3500 O   0  0  0  0  0  0  0  0  0  0  0  0
   -1.2128   -0.4442    0.1317 N   0  0  0  0  0  0  0  0  0  0  0  0
   -2.0402    0.0963    0.3626 H   0  0  0  0  0  0  0  0  0  0  0  0
    0.0804    0.2543    0.2457 C   0  0  1  0  0  0  0  0  0  0  0  0
    0.8201   -0.2529   -0.3850 H   0  0  0  0  0  0  0  0  0  0  0  0
   -0.1518    1.6911   -0.2788 C   0  0  0  0  0  0  0  0  0  0  0  0
   -0.9968    2.1387    0.2523 H   0  0  0  0  0  0  0  0  0  0  0  0
    0.7228    2.3134   -0.0796 H   0  0  0  0  0  0  0  0  0  0  0  0
   -0.4093    1.7713   -1.7816 C   0  0  0  0  0  0  0  0  0  0  0  0
    0.0736    0.9370   -2.5277 O   0  0  0  0  0  0  0  0  0  0  0  0
   -1.1718    2.8023   -2.2119 O   0  0  0  0  0  0  0  0  0  0  0  0
   -1.2344    2.7029   -3.1747 H   0  0  0  0  0  0  0  0  0  0  0  0
    0.6695    0.2607    1.6862 C   0  0  0  0  0  0  0  0  0  0  0  0
    0.0719   -0.2687    2.6164 O   0  0  0  0  0  0  0  0  0  0  0  0
    1.7042    1.1221    2.0121 N   0  0  0  0  0  0  0  0  0  0  0  0
    2.2187    1.5414    1.2439 H   0  0  0  0  0  0  0  0  0  0  0  0
    2.2422    1.2482    3.3623 C   0  0  0  0  0  0  0  0  0  0  0  0
    2.6108    0.2805    3.7192 H   0  0  0  0  0  0  0  0  0  0  0  0
    3.0723    1.9608    3.3744 H   0  0  0  0  0  0  0  0  0  0  0  0
    1.4699    1.6069    4.0509 H   0  0  0  0  0  0  0  0  0  0  0  0
  1  2  1  0  0  0  0
  2  3  1  0  0  0  0
  2  4  1  0  0  0  0
  2  5  1  0  0  0  0
  5  6  2  0  0  0  0
  5  7  1  0  0  0  0
  7  8  1  0  0  0  0
  7  9  1  0  0  0  0
  9 10  1  0  0  0  0
  9 11  1  0  0  0  0
  9 18  1  0  0  0  0
 11 12  1  0  0  0  0
 11 13  1  0  0  0  0
 11 14  1  0  0  0  0
 14 15  2  0  0  0  0
 14 16  1  0  0  0  0
 16 17  1  0  0  0  0
 18 19  2  0  0  0  0
 18 20  1  0  0  0  0
 20 21  1  0  0  0  0
 20 22  1  0  0  0  0
 22 23  1  0  0  0  0
 22 24  1  0  0  0  0
 22 25  1  0  0  0  0
M  END
$$$$

  -OEChem-01062216063D

 25 24  0     1  0  0  0  0  0999 V2000
   -2.5698   -3.4341    1.0280 H   0  0  0  0  0  0  0  0  0  0  0  0
   -2.6541   -2.3537    0.8821 C   0  0  0  0  0  0  0  0  0  0  0  0
   -2.9697   -1.8959    1.8227 H   0  0  0  0  0  0  0  0  0  0  0  0
   -3.4074   -2.1587    0.1157 H   0  0  0  0  0  0  0  0  0  0  0  0
   -1.3162   -1.7806    0.4551 C   0  0  0  0  0  0  0  0  0  0  0  0
   -0.3573   -2.5209    0.2965 O   0  0  0  0  0  0  0  0  0  0  0  0
   -1.2091   -0.4368    0.1432 N   0  0  0  0  0  0  0  0  0  0  0  0
   -2.0377    0.1022    0.3727 H   0  0  0  0  0  0  0  0  0  0  0  0
    0.0826    0.2671    0.2572 C   0  0  1  0  0  0  0  0  0  0  0  0
    0.8230   -0.2413   -0.3720 H   0  0  0  0  0  0  0  0  0  0  0  0
   -0.1613    1.6944   -0.2912 C   0  0  0  0  0  0  0  0  0  0  0  0
   -1.0094    2.1461    0.2313 H   0  0  0  0  0  0  0  0  0  0  0  0
    0.7099    2.3256   -0.1086 H   0  0  0  0  0  0  0  0  0  0  0  0
   -0.4131    1.7479   -1.7965 C   0  0  0  0  0  0  0  0  0  0  0  0
    0.0796    0.9078   -2.5291 O   0  0  0  0  0  0  0  0  0  0  0  0
   -1.1858    2.7640   -2.2433 O   0  0  0  0  0  0  0  0  0  0  0  0
   -1.2459    2.6483   -3.2045 H   0  0  0  0  0  0  0  0  0  0  0  0
    0.6871    0.2726    1.6961 C   0  0  0  0  0  0  0  0  0  0  0  0
    0.2670   -0.4768    2.5689 O   0  0  0  0  0  0  0  0  0  0  0  0
    1.4893    1.3201    2.1220 N   0  0  0  0  0  0  0  0  0  0  0  0
    1.8591    1.9430    1.4117 H   0  0  0  0  0  0  0  0  0  0  0  0
    1.9889    1.4474    3.4876 C   0  0  0  0  0  0  0  0  0  0  0  0
    2.5866    0.5712    3.7602 H   0  0  0  0  0  0  0  0  0  0  0  0
    2.6184    2.3377    3.5792 H   0  0  0  0  0  0  0  0  0  0  0  0
    1.1571    1.5398    4.1940 H   0  0  0  0  0  0  0  0  0  0  0  0
  1  2  1  0  0  0  0
  2  3  1  0  0  0  0
  2  4  1  0  0  0  0
  2  5  1  0  0  0  0
  5  6  2  0  0  0  0
  5  7  1  0  0  0  0
  7  8  1  0  0  0  0
  7  9  1  0  0  0  0
  9 10  1  0  0  0  0
  9 11  1  0  0  0  0
  9 18  1  0  0  0  0
 11 12  1  0  0  0  0
 11 13  1  0  0  0  0
 11 14  1  0  0  0  0
 14 15  2  0  0  0  0
 14 16  1  0  0  0  0
 16 17  1  0  0  0  0
 18 19  2  0  0  0  0
 18 20  1  0  0  0  0
 20 21  1  0  0  0  0
 20 22  1  0  0  0  0
 22 23  1  0  0  0  0
 22 24  1  0  0  0  0
 22 25  1  0  0  0  0
M  END
$$$$

  -OEChem-01062216063D

 25 24  0     1  0  0  0  0  0999 V2000
   -2.5636   -3.4228    1.0628 H   0  0  0  0  0  0  0  0  0  0  0  0
   -2.6504   -2.3444    0.9033 C   0  0  0  0  0  0  0  0  0  0  0  0
   -2.9549   -1.8747    1.8414 H   0  0  0  0  0  0  0  0  0  0  0  0
   -3.4126   -2.1597    0.1428 H   0  0  0  0  0  0  0  0  0  0  0  0
   -1.3178   -1.7770    0.4530 C   0  0  0  0  0  0  0  0  0  0  0  0
   -0.3770   -2.5264    0.2449 O   0  0  0  0  0  0  0  0  0  0  0  0
   -1.2106   -0.4315    0.1490 N   0  0  0  0  0  0  0  0  0  0  0  0
   -2.0432    0.1035    0.3726 H   0  0  0  0  0  0  0  0  0  0  0  0
    0.0743    0.2851    0.2634 C   0  0  1  0  0  0  0  0  0  0  0  0
    0.8199   -0.2267   -0.3574 H   0  0  0  0  0  0  0  0  0  0  0  0
   -0.1655    1.7040   -0.3079 C   0  0  0  0  0  0  0  0  0  0  0  0
   -1.0181    2.1649    0.1987 H   0  0  0  0  0  0  0  0  0  0  0  0
    0.7089    2.3328   -0.1295 H   0  0  0  0  0  0  0  0  0  0  0  0
   -0.4007    1.7364   -1.8170 C   0  0  0  0  0  0  0  0  0  0  0  0
    0.1006    0.8880   -2.5335 O   0  0  0  0  0  0  0  0  0  0  0  0
   -1.1721    2.7440   -2.2848 O   0  0  0  0  0  0  0  0  0  0  0  0
   -1.2211    2.6151   -3.2452 H   0  0  0  0  0  0  0  0  0  0  0  0
    0.6805    0.2920    1.7023 C   0  0  0  0  0  0  0  0  0  0  0  0
    0.5324   -0.6481    2.4703 O   0  0  0  0  0  0  0  0  0  0  0  0
    1.2042    1.4531    2.2507 N   0  0  0  0  0  0  0  0  0  0  0  0
    1.3180    2.2536    1.6385 H   0  0  0  0  0  0  0  0  0  0  0  0
    1.6929    1.5482    3.6229 C   0  0  0  0  0  0  0  0  0  0  0  0
    2.4969    0.8245    3.7949 H   0  0  0  0  0  0  0  0  0  0  0  0
    2.0840    2.5514    3.8173 H   0  0  0  0  0  0  0  0  0  0  0  0
    0.8829    1.3501    4.3330 H   0  0  0  0  0  0  0  0  0  0  0  0
  1  2  1  0  0  0  0
  2  3  1  0  0  0  0
  2  4  1  0  0  0  0
  2  5  1  0  0  0  0
  5  6  2  0  0  0  0
  5  7  1  0  0  0  0
  7  8  1  0  0  0  0
  7  9  1  0  0  0  0
  9 10  1  0  0  0  0
  9 11  1  0  0  0  0
  9 18  1  0  0  0  0
 11 12  1  0  0  0  0
 11 13  1  0  0  0  0
 11 14  1  0  0  0  0
 14 15  2  0  0  0  0
 14 16  1  0  0  0  0
 16 17  1  0  0  0  0
 18 19  2  0  0  0  0
 18 20  1  0  0  0  0
 20 21  1  0  0  0  0
 20 22  1  0  0  0  0
 22 23  1  0  0  0  0
 22 24  1  0  0  0  0
 22 25  1  0  0  0  0
M  END
$$$$

  -OEChem-01062216063D

 25 24  0     1  0  0  0  0  0999 V2000
   -2.5669   -3.4161    1.1093 H   0  0  0  0  0  0  0  0  0  0  0  0
   -2.6609   -2.3449    0.9096 C   0  0  0  0  0  0  0  0  0  0  0  0
   -2.9912   -1.8462    1.8237 H   0  0  0  0  0  0  0  0  0  0  0  0
   -3.4079   -2.1958    0.1266 H   0  0  0  0  0  0  0  0  0  0  0  0
   -1.3240   -1.7807    0.4674 C   0  0  0  0  0  0  0  0  0  0  0  0
   -0.3879   -2.5355    0.2641 O   0  0  0  0  0  0  0  0  0  0  0  0
   -1.2151   -0.4366    0.1578 N   0  0  0  0  0  0  0  0  0  0  0  0
   -2.0562    0.0977    0.3489 H   0  0  0  0  0  0  0  0  0  0  0  0
    0.0639    0.2902    0.2701 C   0  0  1  0  0  0  0  0  0  0  0  0
    0.8149   -0.2261   -0.3407 H   0  0  0  0  0  0  0  0  0  0  0  0
   -0.1583    1.7071   -0.3093 C   0  0  0  0  0  0  0  0  0  0  0  0
   -1.0121    2.1786    0.1851 H   0  0  0  0  0  0  0  0  0  0  0  0
    0.7236    2.3242   -0.1202 H   0  0  0  0  0  0  0  0  0  0  0  0
   -0.3792    1.7364   -1.8204 C   0  0  0  0  0  0  0  0  0  0  0  0
    0.1201    0.8821   -2.5310 O   0  0  0  0  0  0  0  0  0  0  0  0
   -1.1361    2.7510   -2.2969 O   0  0  0  0  0  0  0  0  0  0  0  0
   -1.1731    2.6232   -3.2581 H   0  0  0  0  0  0  0  0  0  0  0  0
    0.6579    0.3043    1.7106 C   0  0  0  0  0  0  0  0  0  0  0  0
    0.8341   -0.7218    2.3490 O   0  0  0  0  0  0  0  0  0  0  0  0
    0.8814    1.4996    2.3766 N   0  0  0  0  0  0  0  0  0  0  0  0
    0.7097    2.3613    1.8698 H   0  0  0  0  0  0  0  0  0  0  0  0
    1.3821    1.5775    3.7451 C   0  0  0  0  0  0  0  0  0  0  0  0
    2.3622    1.0947    3.8223 H   0  0  0  0  0  0  0  0  0  0  0  0
    1.4867    2.6225    4.0520 H   0  0  0  0  0  0  0  0  0  0  0  0
    0.6910    1.0820    4.4351 H   0  0  0  0  0  0  0  0  0  0  0  0
  1  2  1  0  0  0  0
  2  3  1  0  0  0  0
  2  4  1  0  0  0  0
  2  5  1  0  0  0  0
  5  6  2  0  0  0  0
  5  7  1  0  0  0  0
  7  8  1  0  0  0  0
  7  9  1  0  0  0  0
  9 10  1  0  0  0  0
  9 11  1  0  0  0  0
  9 18  1  0  0  0  0
 11 12  1  0  0  0  0
 11 13  1  0  0  0  0
 11 14  1  0  0  0  0
 14 15  2  0  0  0  0
 14 16  1  0  0  0  0
 16 17  1  0  0  0  0
 18 19  2  0  0  0  0
 18 20  1  0  0  0  0
 20 21  1  0  0  0  0
 20 22  1  0  0  0  0
 22 23  1  0  0  0  0
 22 24  1  0  0  0  0
 22 25  1  0  0  0  0
M  END
$$$$

  -OEChem-01062216063D

 25 24  0     1  0  0  0  0  0999 V2000
   -2.6725   -3.4218    1.0456 H   0  0  0  0  0  0  0  0  0  0  0  0
   -2.7417   -2.3638    0.7767 C   0  0  0  0  0  0  0  0  0  0  0  0
   -3.2252   -1.8254    1.5950 H   0  0  0  0  0  0  0  0  0  0  0  0
   -3.3495   -2.2690   -0.1262 H   0  0  0  0  0  0  0  0  0  0  0  0
   -1.3554   -1.7982    0.5302 C   0  0  0  0  0  0  0  0  0  0  0  0
   -0.3980   -2.5499    0.5121 O   0  0  0  0  0  0  0  0  0  0  0  0
   -1.2144   -0.4595    0.2130 N   0  0  0  0  0  0  0  0  0  0  0  0
   -2.0711    0.0823    0.2569 H   0  0  0  0  0  0  0  0  0  0  0  0
    0.0596    0.2765    0.3183 C   0  0  1  0  0  0  0  0  0  0  0  0
    0.8133   -0.2420   -0.2879 H   0  0  0  0  0  0  0  0  0  0  0  0
   -0.1625    1.6906   -0.2647 C   0  0  0  0  0  0  0  0  0  0  0  0
   -1.0196    2.1614    0.2241 H   0  0  0  0  0  0  0  0  0  0  0  0
    0.7188    2.3070   -0.0658 H   0  0  0  0  0  0  0  0  0  0  0  0
   -0.3833    1.7173   -1.7757 C   0  0  0  0  0  0  0  0  0  0  0  0
    0.1158    0.8619   -2.4850 O   0  0  0  0  0  0  0  0  0  0  0  0
   -1.1486    2.7257   -2.2521 O   0  0  0  0  0  0  0  0  0  0  0  0
   -1.1803    2.6016   -3.2140 H   0  0  0  0  0  0  0  0  0  0  0  0
    0.6516    0.3119    1.7550 C   0  0  0  0  0  0  0  0  0  0  0  0
    1.2359   -0.6467    2.2335 O   0  0  0  0  0  0  0  0  0  0  0  0
    0.5802    1.4646    2.5219 N   0  0  0  0  0  0  0  0  0  0  0  0
    0.1113    2.2696    2.1207 H   0  0  0  0  0  0  0  0  0  0  0  0
    1.1582    1.5785    3.8568 C   0  0  0  0  0  0  0  0  0  0  0  0
    2.2442    1.4432    3.8166 H   0  0  0  0  0  0  0  0  0  0  0  0
    0.9480    2.5661    4.2783 H   0  0  0  0  0  0  0  0  0  0  0  0
    0.7338    0.8209    4.5241 H   0  0  0  0  0  0  0  0  0  0  0  0
  1  2  1  0  0  0  0
  2  3  1  0  0  0  0
  2  4  1  0  0  0  0
  2  5  1  0  0  0  0
  5  6  2  0  0  0  0
  5  7  1  0  0  0  0
  7  8  1  0  0  0  0
  7  9  1  0  0  0  0
  9 10  1  0  0  0  0
  9 11  1  0  0  0  0
  9 18  1  0  0  0  0
 11 12  1  0  0  0  0
 11 13  1  0  0  0  0
 11 14  1  0  0  0  0
 14 15  2  0  0  0  0
 14 16  1  0  0  0  0
 16 17  1  0  0  0  0
 18 19  2  0  0  0  0
 18 20  1  0  0  0  0
 20 21  1  0  0  0  0
 20 22  1  0  0  0  0
 22 23  1  0  0  0  0
 22 24  1  0  0  0  0
 22 25  1  0  0  0  0
M  END
$$$$

  -OEChem-01062216063D

 25 24  0     1  0  0  0  0  0999 V2000
   -2.7812   -3.4628    0.8424 H   0  0  0  0  0  0  0  0  0  0  0  0
   -2.8141   -2.4033    0.5720 C   0  0  0  0  0  0  0  0  0  0  0  0
   -3.4891   -1.8864    1.2581 H   0  0  0  0  0  0  0  0  0  0  0  0
   -3.1974   -2.3128   -0.4471 H   0  0  0  0  0  0  0  0  0  0  0  0
   -1.4245   -1.8001    0.6592 C   0  0  0  0  0  0  0  0  0  0  0  0
   -0.4903   -2.4991    1.0023 O   0  0  0  0  0  0  0  0  0  0  0  0
   -1.2402   -0.4735    0.3175 N   0  0  0  0  0  0  0  0  0  0  0  0
   -2.0600    0.0230   -0.0164 H   0  0  0  0  0  0  0  0  0  0  0  0
    0.0435    0.2500    0.3809 C   0  0  1  0  0  0  0  0  0  0  0  0
    0.7753   -0.2857   -0.2373 H   0  0  0  0  0  0  0  0  0  0  0  0
   -0.1662    1.6650   -0.2015 C   0  0  0  0  0  0  0  0  0  0  0  0
   -1.0024    2.1529    0.3058 H   0  0  0  0  0  0  0  0  0  0  0  0
    0.7302    2.2650   -0.0185 H   0  0  0  0  0  0  0  0  0  0  0  0
   -0.4250    1.6911   -1.7057 C   0  0  0  0  0  0  0  0  0  0  0  0
    0.0399    0.8225   -2.4224 O   0  0  0  0  0  0  0  0  0  0  0  0
   -1.1906    2.7058   -2.1679 O   0  0  0  0  0  0  0  0  0  0  0  0
   -1.2361    2.5867   -3.1299 H   0  0  0  0  0  0  0  0  0  0  0  0
    0.6678    0.3079    1.7990 C   0  0  0  0  0  0  0  0  0  0  0  0
    1.6079   -0.4140    2.0947 O   0  0  0  0  0  0  0  0  0  0  0  0
    0.3624    1.3506    2.6593 N   0  0  0  0  0  0  0  0  0  0  0  0
   -0.4109    1.9553    2.4054 H   0  0  0  0  0  0  0  0  0  0  0  0
    0.9968    1.5250    3.9611 C   0  0  0  0  0  0  0  0  0  0  0  0
    2.0728    1.6910    3.8436 H   0  0  0  0  0  0  0  0  0  0  0  0
    0.5688    2.3887    4.4789 H   0  0  0  0  0  0  0  0  0  0  0  0
    0.8439    0.6370    4.5837 H   0  0  0  0  0  0  0  0  0  0  0  0
  1  2  1  0  0  0  0
  2  3  1  0  0  0  0
  2  4  1  0  0  0  0
  2  5  1  0  0  0  0
  5  6  2  0  0  0  0
  5  7  1  0  0  0  0
  7  8  1  0  0  0  0
  7  9  1  0  0  0  0
  9 10  1  0  0  0  0
  9 11  1  0  0  0  0
  9 18  1  0  0  0  0
 11 12  1  0  0  0  0
 11 13  1  0  0  0  0
 11 14  1  0  0  0  0
 14 15  2  0  0  0  0
 14 16  1  0  0  0  0
 16 17  1  0  0  0  0
 18 19  2  0  0  0  0
 18 20  1  0  0  0  0
 20 21  1  0  0  0  0
 20 22  1  0  0  0  0
 22 23  1  0  0  0  0
 22 24  1  0  0  0  0
 22 25  1  0  0  0  0
M  END
$$$$

  -OEChem-01062216063D

 25 24  0     1  0  0  0  0  0999 V2000
   -2.7751   -3.4908    0.7646 H   0  0  0  0  0  0  0  0  0  0  0  0
   -2.8164   -2.4318    0.4934 C   0  0  0  0  0  0  0  0  0  0  0  0
   -3.5802   -1.9420    1.1019 H   0  0  0  0  0  0  0  0  0  0  0  0
   -3.0904   -2.3512   -0.5613 H   0  0  0  0  0  0  0  0  0  0  0  0
   -1.4672   -1.7798    0.7319 C   0  0  0  0  0  0  0  0  0  0  0  0
   -0.5716   -2.4255    1.2431 O   0  0  0  0  0  0  0  0  0  0  0  0
   -1.2754   -0.4616    0.3628 N   0  0  0  0  0  0  0  0  0  0  0  0
   -2.0325   -0.0345   -0.1617 H   0  0  0  0  0  0  0  0  0  0  0  0
    0.0251    0.2334    0.3940 C   0  0  1  0  0  0  0  0  0  0  0  0
    0.7333   -0.3212   -0.2346 H   0  0  0  0  0  0  0  0  0  0  0  0
   -0.1565    1.6550   -0.1789 C   0  0  0  0  0  0  0  0  0  0  0  0
   -0.9649    2.1655    0.3508 H   0  0  0  0  0  0  0  0  0  0  0  0
    0.7606    2.2277   -0.0120 H   0  0  0  0  0  0  0  0  0  0  0  0
   -0.4493    1.6936   -1.6760 C   0  0  0  0  0  0  0  0  0  0  0  0
   -0.0263    0.8130   -2.4044 O   0  0  0  0  0  0  0  0  0  0  0  0
   -1.1975    2.7296   -2.1188 O   0  0  0  0  0  0  0  0  0  0  0  0
   -1.2623    2.6201   -3.0807 H   0  0  0  0  0  0  0  0  0  0  0  0
    0.6733    0.2970    1.7979 C   0  0  0  0  0  0  0  0  0  0  0  0
    1.7769   -0.1958    1.9837 O   0  0  0  0  0  0  0  0  0  0  0  0
    0.1780    1.1706    2.7515 N   0  0  0  0  0  0  0  0  0  0  0  0
   -0.7553    1.5364    2.5966 H   0  0  0  0  0  0  0  0  0  0  0  0
    0.7913    1.3423    4.0633 C   0  0  0  0  0  0  0  0  0  0  0  0
    1.8194    1.7060    3.9614 H   0  0  0  0  0  0  0  0  0  0  0  0
    0.2262    2.0694    4.6542 H   0  0  0  0  0  0  0  0  0  0  0  0
    0.8068    0.3905    4.6050 H   0  0  0  0  0  0  0  0  0  0  0  0
  1  2  1  0  0  0  0
  2  3  1  0  0  0  0
  2  4  1  0  0  0  0
  2  5  1  0  0  0  0
  5  6  2  0  0  0  0
  5  7  1  0  0  0  0
  7  8  1  0  0  0  0
  7  9  1  0  0  0  0
  9 10  1  0  0  0  0
  9 11  1  0  0  0  0
  9 18  1  0  0  0  0
 11 12  1  0  0  0  0
 11 13  1  0  0  0  0
 11 14  1  0  0  0  0
 14 15  2  0  0  0  0
 14 16  1  0  0  0  0
 16 17  1  0  0  0  0
 18 19  2  0  0  0  0
 18 20  1  0  0  0  0
 20 21  1  0  0  0  0
 20 22  1  0  0  0  0
 22 23  1  0  0  0  0
 22 24  1  0  0  0  0
 22 25  1  0  0  0  0
M  END
$$$$

  -OEChem-01062216063D

 25 24  0     1  0  0  0  0  0999 V2000
   -2.7946   -3.4838    0.7999 H   0  0  0  0  0  0  0  0  0  0  0  0
   -2.8171   -2.4426    0.4656 C   0  0  0  0  0  0  0  0  0  0  0  0
   -3.6143   -1.9192    0.9987 H   0  0  0  0  0  0  0  0  0  0  0  0
   -3.0285   -2.4231   -0.6062 H   0  0  0  0  0  0  0  0  0  0  0  0
   -1.4825   -1.7765    0.7435 C   0  0  0  0  0  0  0  0  0  0  0  0
   -0.6001   -2.4042    1.2999 O   0  0  0  0  0  0  0  0  0  0  0  0
   -1.2871   -0.4613    0.3656 N   0  0  0  0  0  0  0  0  0  0  0  0
   -2.0208   -0.0547   -0.2069 H   0  0  0  0  0  0  0  0  0  0  0  0
    0.0227    0.2173    0.3879 C   0  0  1  0  0  0  0  0  0  0  0  0
    0.7215   -0.3407   -0.2482 H   0  0  0  0  0  0  0  0  0  0  0  0
   -0.1472    1.6467   -0.1660 C   0  0  0  0  0  0  0  0  0  0  0  0
   -0.9403    2.1622    0.3821 H   0  0  0  0  0  0  0  0  0  0  0  0
    0.7798    2.2049   -0.0043 H   0  0  0  0  0  0  0  0  0  0  0  0
   -0.4583    1.7049   -1.6584 C   0  0  0  0  0  0  0  0  0  0  0  0
   -0.0553    0.8255   -2.3998 O   0  0  0  0  0  0  0  0  0  0  0  0
   -1.1998    2.7535   -2.0825 O   0  0  0  0  0  0  0  0  0  0  0  0
   -1.2757    2.6564   -3.0448 H   0  0  0  0  0  0  0  0  0  0  0  0
    0.6787    0.2790    1.7861 C   0  0  0  0  0  0  0  0  0  0  0  0
    1.8695    0.0275    1.9084 O   0  0  0  0  0  0  0  0  0  0  0  0
    0.0249    0.9182    2.8248 N   0  0  0  0  0  0  0  0  0  0  0  0
   -0.9743    1.0538    2.7140 H   0  0  0  0  0  0  0  0  0  0  0  0
    0.6131    1.0804    4.1490 C   0  0  0  0  0  0  0  0  0  0  0  0
    1.5422    1.6572    4.0881 H   0  0  0  0  0  0  0  0  0  0  0  0
   -0.0792    1.6125    4.8083 H   0  0  0  0  0  0  0  0  0  0  0  0
    0.8339    0.1035    4.5918 H   0  0  0  0  0  0  0  0  0  0  0  0
  1  2  1  0  0  0  0
  2  3  1  0  0  0  0
  2  4  1  0  0  0  0
  2  5  1  0  0  0  0
  5  6  2  0  0  0  0
  5  7  1  0  0  0  0
  7  8  1  0  0  0  0
  7  9  1  0  0  0  0
  9 10  1  0  0  0  0
  9 11  1  0  0  0  0
  9 18  1  0  0  0  0
 11 12  1  0  0  0  0
 11 13  1  0  0  0  0
 11 14  1  0  0  0  0
 14 15  2  0  0  0  0
 14 16  1  0  0  0  0
 16 17  1  0  0  0  0
 18 19  2  0  0  0  0
 18 20  1  0  0  0  0
 20 21  1  0  0  0  0
 20 22  1  0  0  0  0
 22 23  1  0  0  0  0
 22 24  1  0  0  0  0
 22 25  1  0  0  0  0
M  END
$$$$

  -OEChem-01062216063D

 25 24  0     1  0  0  0  0  0999 V2000
   -2.7994   -3.4814    0.8048 H   0  0  0  0  0  0  0  0  0  0  0  0
   -2.8195   -2.4445    0.4565 C   0  0  0  0  0  0  0  0  0  0  0  0
   -3.6253   -1.9162    0.9712 H   0  0  0  0  0  0  0  0  0  0  0  0
   -3.0158   -2.4394   -0.6184 H   0  0  0  0  0  0  0  0  0  0  0  0
   -1.4902   -1.7719    0.7439 C   0  0  0  0  0  0  0  0  0  0  0  0
   -0.6139   -2.3892    1.3217 O   0  0  0  0  0  0  0  0  0  0  0  0
   -1.2913   -0.4591    0.3598 N   0  0  0  0  0  0  0  0  0  0  0  0
   -2.0170   -0.0574   -0.2268 H   0  0  0  0  0  0  0  0  0  0  0  0
    0.0235    0.2121    0.3800 C   0  0  1  0  0  0  0  0  0  0  0  0
    0.7196   -0.3474   -0.2574 H   0  0  0  0  0  0  0  0  0  0  0  0
   -0.1426    1.6443   -0.1666 C   0  0  0  0  0  0  0  0  0  0  0  0
   -0.9296    2.1599    0.3903 H   0  0  0  0  0  0  0  0  0  0  0  0
    0.7876    2.1985   -0.0082 H   0  0  0  0  0  0  0  0  0  0  0  0
   -0.4603    1.7108   -1.6570 C   0  0  0  0  0  0  0  0  0  0  0  0
   -0.0641    0.8323   -2.4036 O   0  0  0  0  0  0  0  0  0  0  0  0
   -1.1998    2.7640   -2.0737 O   0  0  0  0  0  0  0  0  0  0  0  0
   -1.2795    2.6719   -3.0360 H   0  0  0  0  0  0  0  0  0  0  0  0
    0.6847    0.2790    1.7749 C   0  0  0  0  0  0  0  0  0  0  0  0
    1.9051    0.2711    1.8639 O   0  0  0  0  0  0  0  0  0  0  0  0
   -0.0672    0.6416    2.8779 N   0  0  0  0  0  0  0  0  0  0  0  0
   -1.0723    0.5420    2.7822 H   0  0  0  0  0  0  0  0  0  0  0  0
    0.5008    0.7550    4.2154 C   0  0  0  0  0  0  0  0  0  0  0  0
    1.2994    1.5044    4.2310 H   0  0  0  0  0  0  0  0  0  0  0  0
   -0.2701    1.0600    4.9296 H   0  0  0  0  0  0  0  0  0  0  0  0
    0.9145   -0.2065    4.5374 H   0  0  0  0  0  0  0  0  0  0  0  0
  1  2  1  0  0  0  0
  2  3  1  0  0  0  0
  2  4  1  0  0  0  0
  2  5  1  0  0  0  0
  5  6  2  0  0  0  0
  5  7  1  0  0  0  0
  7  8  1  0  0  0  0
  7  9  1  0  0  0  0
  9 10  1  0  0  0  0
  9 11  1  0  0  0  0
  9 18  1  0  0  0  0
 11 12  1  0  0  0  0
 11 13  1  0  0  0  0
 11 14  1  0  0  0  0
 14 15  2  0  0  0  0
 14 16  1  0  0  0  0
 16 17  1  0  0  0  0
 18 19  2  0  0  0  0
 18 20  1  0  0  0  0
 20 21  1  0  0  0  0
 20 22  1  0  0  0  0
 22 23  1  0  0  0  0
 22 24  1  0  0  0  0
 22 25  1  0  0  0  0
M  END
$$$$

  -OEChem-01062216063D

 25 24  0     1  0  0  0  0  0999 V2000
   -2.8340   -3.4644    0.7970 H   0  0  0  0  0  0  0  0  0  0  0  0
   -2.8325   -2.4374    0.4208 C   0  0  0  0  0  0  0  0  0  0  0  0
   -3.6488   -1.8880    0.8957 H   0  0  0  0  0  0  0  0  0  0  0  0
   -2.9953   -2.4594   -0.6596 H   0  0  0  0  0  0  0  0  0  0  0  0
   -1.5060   -1.7699    0.7313 C   0  0  0  0  0  0  0  0  0  0  0  0
   -0.6445   -2.3851    1.3337 O   0  0  0  0  0  0  0  0  0  0  0  0
   -1.2951   -0.4582    0.3516 N   0  0  0  0  0  0  0  0  0  0  0  0
   -2.0122   -0.0518   -0.2425 H   0  0  0  0  0  0  0  0  0  0  0  0
    0.0219    0.2098    0.3839 C   0  0  1  0  0  0  0  0  0  0  0  0
    0.7210   -0.3470   -0.2521 H   0  0  0  0  0  0  0  0  0  0  0  0
   -0.1525    1.6417   -0.1625 C   0  0  0  0  0  0  0  0  0  0  0  0
   -0.9453    2.1501    0.3930 H   0  0  0  0  0  0  0  0  0  0  0  0
    0.7718    2.2047   -0.0007 H   0  0  0  0  0  0  0  0  0  0  0  0
   -0.4645    1.7074   -1.6540 C   0  0  0  0  0  0  0  0  0  0  0  0
   -0.0587    0.8324   -2.3996 O   0  0  0  0  0  0  0  0  0  0  0  0
   -1.2118    2.7542   -2.0729 O   0  0  0  0  0  0  0  0  0  0  0  0
   -1.2862    2.6632   -3.0356 H   0  0  0  0  0  0  0  0  0  0  0  0
    0.6877    0.2837    1.7780 C   0  0  0  0  0  0  0  0  0  0  0  0
    1.8875    0.5131    1.8562 O   0  0  0  0  0  0  0  0  0  0  0  0
   -0.0851    0.3452    2.9230 N   0  0  0  0  0  0  0  0  0  0  0  0
   -1.0343   -0.0007    2.8254 H   0  0  0  0  0  0  0  0  0  0  0  0
    0.4947    0.4134    4.2585 C   0  0  0  0  0  0  0  0  0  0  0  0
    1.1281    1.3013    4.3573 H   0  0  0  0  0  0  0  0  0  0  0  0
   -0.2967    0.4712    5.0116 H   0  0  0  0  0  0  0  0  0  0  0  0
    1.1013   -0.4761    4.4579 H   0  0  0  0  0  0  0  0  0  0  0  0
  1  2  1  0  0  0  0
  2  3  1  0  0  0  0
  2  4  1  0  0  0  0
  2  5  1  0  0  0  0
  5  6  2  0  0  0  0
  5  7  1  0  0  0  0
  7  8  1  0  0  0  0
  7  9  1  0  0  0  0
  9 10  1  0  0  0  0
  9 11  1  0  0  0  0
  9 18  1  0  0  0  0
 11 12  1  0  0  0  0
 11 13  1  0  0  0  0
 11 14  1  0  0  0  0
 14 15  2  0  0  0  0
 14 16  1  0  0  0  0
 16 17  1  0  0  0  0
 18 19  2  0  0  0  0
 18 20  1  0  0  0  0
 20 21  1  0  0  0  0
 20 22  1  0  0  0  0
 22 23  1  0  0  0  0
 22 24  1  0  0  0  0
 22 25  1  0  0  0  0
M  END
$$$$

  -OEChem-01062216063D

 25 24  0     1  0  0  0  0  0999 V2000
   -2.8603   -3.4668    0.6826 H   0  0  0  0  0  0  0  0  0  0  0  0
   -2.8620   -2.4197    0.3665 C   0  0  0  0  0  0  0  0  0  0  0  0
   -3.6772   -1.8994    0.8749 H   0  0  0  0  0  0  0  0  0  0  0  0
   -3.0295   -2.3803   -0.7127 H   0  0  0  0  0  0  0  0  0  0  0  0
   -1.5352   -1.7688    0.7098 C   0  0  0  0  0  0  0  0  0  0  0  0
   -0.6967   -2.3929    1.3356 O   0  0  0  0  0  0  0  0  0  0  0  0
   -1.3024   -0.4566    0.3474 N   0  0  0  0  0  0  0  0  0  0  0  0
   -2.0193   -0.0272   -0.2305 H   0  0  0  0  0  0  0  0  0  0  0  0
    0.0151    0.2119    0.4010 C   0  0  1  0  0  0  0  0  0  0  0  0
    0.7198   -0.3419   -0.2308 H   0  0  0  0  0  0  0  0  0  0  0  0
   -0.1702    1.6401   -0.1568 C   0  0  0  0  0  0  0  0  0  0  0  0
   -0.9753    2.1423    0.3865 H   0  0  0  0  0  0  0  0  0  0  0  0
    0.7433    2.2190    0.0089 H   0  0  0  0  0  0  0  0  0  0  0  0
   -0.4634    1.6916   -1.6529 C   0  0  0  0  0  0  0  0  0  0  0  0
   -0.0364    0.8165   -2.3869 O   0  0  0  0  0  0  0  0  0  0  0  0
   -1.2194    2.7247   -2.0895 O   0  0  0  0  0  0  0  0  0  0  0  0
   -1.2797    2.6251   -3.0523 H   0  0  0  0  0  0  0  0  0  0  0  0
    0.6860    0.2881    1.7964 C   0  0  0  0  0  0  0  0  0  0  0  0
    1.8178    0.7469    1.8872 O   0  0  0  0  0  0  0  0  0  0  0  0
   -0.0290    0.0425    2.9539 N   0  0  0  0  0  0  0  0  0  0  0  0
   -0.8358   -0.5624    2.8252 H   0  0  0  0  0  0  0  0  0  0  0  0
    0.5887    0.0815    4.2738 C   0  0  0  0  0  0  0  0  0  0  0  0
    1.0193    1.0697    4.4672 H   0  0  0  0  0  0  0  0  0  0  0  0
   -0.1577   -0.1246    5.0468 H   0  0  0  0  0  0  0  0  0  0  0  0
    1.3828   -0.6689    4.3469 H   0  0  0  0  0  0  0  0  0  0  0  0
  1  2  1  0  0  0  0
  2  3  1  0  0  0  0
  2  4  1  0  0  0  0
  2  5  1  0  0  0  0
  5  6  2  0  0  0  0
  5  7  1  0  0  0  0
  7  8  1  0  0  0  0
  7  9  1  0  0  0  0
  9 10  1  0  0  0  0
  9 11  1  0  0  0  0
  9 18  1  0  0  0  0
 11 12  1  0  0  0  0
 11 13  1  0  0  0  0
 11 14  1  0  0  0  0
 14 15  2  0  0  0  0
 14 16  1  0  0  0  0
 16 17  1  0  0  0  0
 18 19  2  0  0  0  0
 18 20  1  0  0  0  0
 20 21  1  0  0  0  0
 20 22  1  0  0  0  0
 22 23  1  0  0  0  0
 22 24  1  0  0  0  0
 22 25  1  0  0  0  0
M  END
$$$$

  -OEChem-01062216063D

 25 24  0     1  0  0  0  0  0999 V2000
   -2.9024   -3.4455    0.6384 H   0  0  0  0  0  0  0  0  0  0  0  0
   -2.8908   -2.3892    0.3550 C   0  0  0  0  0  0  0  0  0  0  0  0
   -3.6749   -1.8670    0.9086 H   0  0  0  0  0  0  0  0  0  0  0  0
   -3.0954   -2.3116   -0.7156 H   0  0  0  0  0  0  0  0  0  0  0  0
   -1.5383   -1.7783    0.6688 C   0  0  0  0  0  0  0  0  0  0  0  0
   -0.6910   -2.4414    1.2417 O   0  0  0  0  0  0  0  0  0  0  0  0
   -1.2894   -0.4622    0.3339 N   0  0  0  0  0  0  0  0  0  0  0  0
   -2.0307    0.0110   -0.1747 H   0  0  0  0  0  0  0  0  0  0  0  0
    0.0224    0.2176    0.4105 C   0  0  1  0  0  0  0  0  0  0  0  0
    0.7369   -0.3256   -0.2187 H   0  0  0  0  0  0  0  0  0  0  0  0
   -0.1843    1.6417   -0.1556 C   0  0  0  0  0  0  0  0  0  0  0  0
   -1.0048    2.1308    0.3767 H   0  0  0  0  0  0  0  0  0  0  0  0
    0.7144    2.2418    0.0143 H   0  0  0  0  0  0  0  0  0  0  0  0
   -0.4585    1.6812   -1.6561 C   0  0  0  0  0  0  0  0  0  0  0  0
   -0.0043    0.8122   -2.3811 O   0  0  0  0  0  0  0  0  0  0  0  0
   -1.2334    2.6945   -2.1062 O   0  0  0  0  0  0  0  0  0  0  0  0
   -1.2819    2.5879   -3.0688 H   0  0  0  0  0  0  0  0  0  0  0  0
    0.6904    0.2869    1.8122 C   0  0  0  0  0  0  0  0  0  0  0  0
    1.7086    0.9522    1.9577 O   0  0  0  0  0  0  0  0  0  0  0  0
    0.0952   -0.2586    2.9344 N   0  0  0  0  0  0  0  0  0  0  0  0
   -0.5386   -1.0299    2.7281 H   0  0  0  0  0  0  0  0  0  0  0  0
    0.7369   -0.2448    4.2432 C   0  0  0  0  0  0  0  0  0  0  0  0
    0.9344    0.7836    4.5637 H   0  0  0  0  0  0  0  0  0  0  0  0
    0.0880   -0.7173    4.9866 H   0  0  0  0  0  0  0  0  0  0  0  0
    1.6852   -0.7916    4.2102 H   0  0  0  0  0  0  0  0  0  0  0  0
  1  2  1  0  0  0  0
  2  3  1  0  0  0  0
  2  4  1  0  0  0  0
  2  5  1  0  0  0  0
  5  6  2  0  0  0  0
  5  7  1  0  0  0  0
  7  8  1  0  0  0  0
  7  9  1  0  0  0  0
  9 10  1  0  0  0  0
  9 11  1  0  0  0  0
  9 18  1  0  0  0  0
 11 12  1  0  0  0  0
 11 13  1  0  0  0  0
 11 14  1  0  0  0  0
 14 15  2  0  0  0  0
 14 16  1  0  0  0  0
 16 17  1  0  0  0  0
 18 19  2  0  0  0  0
 18 20  1  0  0  0  0
 20 21  1  0  0  0  0
 20 22  1  0  0  0  0
 22 23  1  0  0  0  0
 22 24  1  0  0  0  0
 22 25  1  0  0  0  0
M  END
$$$$

  -OEChem-01062216063D

 25 24  0     1  0  0  0  0  0999 V2000
   -2.9150   -3.4333    0.6432 H   0  0  0  0  0  0  0  0  0  0  0  0
   -2.9049   -2.3665    0.4020 C   0  0  0  0  0  0  0  0  0  0  0  0
   -3.6221   -1.8526    1.0468 H   0  0  0  0  0  0  0  0  0  0  0  0
   -3.2066   -2.2403   -0.6407 H   0  0  0  0  0  0  0  0  0  0  0  0
   -1.5153   -1.7956    0.6122 C   0  0  0  0  0  0  0  0  0  0  0  0
   -0.6301   -2.5052    1.0600 O   0  0  0  0  0  0  0  0  0  0  0  0
   -1.2678   -0.4719    0.3064 N   0  0  0  0  0  0  0  0  0  0  0  0
   -2.0537    0.0530   -0.0663 H   0  0  0  0  0  0  0  0  0  0  0  0
    0.0328    0.2266    0.4073 C   0  0  1  0  0  0  0  0  0  0  0  0
    0.7612   -0.3032   -0.2173 H   0  0  0  0  0  0  0  0  0  0  0  0
   -0.1919    1.6472   -0.1657 C   0  0  0  0  0  0  0  0  0  0  0  0
   -1.0280    2.1234    0.3534 H   0  0  0  0  0  0  0  0  0  0  0  0
    0.6926    2.2652    0.0128 H   0  0  0  0  0  0  0  0  0  0  0  0
   -0.4414    1.6804   -1.6708 C   0  0  0  0  0  0  0  0  0  0  0  0
    0.0415    0.8204   -2.3881 O   0  0  0  0  0  0  0  0  0  0  0  0
   -1.2266    2.6799   -2.1339 O   0  0  0  0  0  0  0  0  0  0  0  0
   -1.2580    2.5716   -3.0971 H   0  0  0  0  0  0  0  0  0  0  0  0
    0.6877    0.2837    1.8193 C   0  0  0  0  0  0  0  0  0  0  0  0
    1.5466    1.1244    2.0563 O   0  0  0  0  0  0  0  0  0  0  0  0
    0.2720   -0.5253    2.8604 N   0  0  0  0  0  0  0  0  0  0  0  0
   -0.2204   -1.3697    2.5655 H   0  0  0  0  0  0  0  0  0  0  0  0
    0.9274   -0.5389    4.1627 C   0  0  0  0  0  0  0  0  0  0  0  0
    0.8834    0.4526    4.6255 H   0  0  0  0  0  0  0  0  0  0  0  0
    0.4291   -1.2506    4.8277 H   0  0  0  0  0  0  0  0  0  0  0  0
    1.9770   -0.8341    4.0607 H   0  0  0  0  0  0  0  0  0  0  0  0
  1  2  1  0  0  0  0
  2  3  1  0  0  0  0
  2  4  1  0  0  0  0
  2  5  1  0  0  0  0
  5  6  2  0  0  0  0
  5  7  1  0  0  0  0
  7  8  1  0  0  0  0
  7  9  1  0  0  0  0
  9 10  1  0  0  0  0
  9 11  1  0  0  0  0
  9 18  1  0  0  0  0
 11 12  1  0  0  0  0
 11 13  1  0  0  0  0
 11 14  1  0  0  0  0
 14 15  2  0  0  0  0
 14 16  1  0  0  0  0
 16 17  1  0  0  0  0
 18 19  2  0  0  0  0
 18 20  1  0  0  0  0
 20 21  1  0  0  0  0
 20 22  1  0  0  0  0
 22 23  1  0  0  0  0
 22 24  1  0  0  0  0
 22 25  1  0  0  0  0
M  END
$$$$

  -OEChem-01062216063D

 25 24  0     1  0  0  0  0  0999 V2000
   -2.9015   -3.4203    0.7185 H   0  0  0  0  0  0  0  0  0  0  0  0
   -2.8944   -2.3543    0.4741 C   0  0  0  0  0  0  0  0  0  0  0  0
   -3.5469   -1.8282    1.1752 H   0  0  0  0  0  0  0  0  0  0  0  0
   -3.2795   -2.2244   -0.5403 H   0  0  0  0  0  0  0  0  0  0  0  0
   -1.4832   -1.8057    0.5671 C   0  0  0  0  0  0  0  0  0  0  0  0
   -0.5653   -2.5453    0.8832 O   0  0  0  0  0  0  0  0  0  0  0  0
   -1.2486   -0.4746    0.2824 N   0  0  0  0  0  0  0  0  0  0  0  0
   -2.0672    0.0785    0.0454 H   0  0  0  0  0  0  0  0  0  0  0  0
    0.0432    0.2376    0.3958 C   0  0  1  0  0  0  0  0  0  0  0  0
    0.7798   -0.2807   -0.2290 H   0  0  0  0  0  0  0  0  0  0  0  0
   -0.1910    1.6568   -0.1776 C   0  0  0  0  0  0  0  0  0  0  0  0
   -1.0356    2.1250    0.3352 H   0  0  0  0  0  0  0  0  0  0  0  0
    0.6866    2.2824    0.0077 H   0  0  0  0  0  0  0  0  0  0  0  0
   -0.4270    1.6888   -1.6849 C   0  0  0  0  0  0  0  0  0  0  0  0
    0.0716    0.8345   -2.3984 O   0  0  0  0  0  0  0  0  0  0  0  0
   -1.2164    2.6816   -2.1553 O   0  0  0  0  0  0  0  0  0  0  0  0
   -1.2397    2.5703   -3.1184 H   0  0  0  0  0  0  0  0  0  0  0  0
    0.6872    0.2763    1.8151 C   0  0  0  0  0  0  0  0  0  0  0  0
    1.3439    1.2486    2.1677 O   0  0  0  0  0  0  0  0  0  0  0  0
    0.4977   -0.7346    2.7381 N   0  0  0  0  0  0  0  0  0  0  0  0
    0.1269   -1.6076    2.3572 H   0  0  0  0  0  0  0  0  0  0  0  0
    1.1551   -0.7713    4.0385 C   0  0  0  0  0  0  0  0  0  0  0  0
    0.8943    0.1154    4.6257 H   0  0  0  0  0  0  0  0  0  0  0  0
    0.8376   -1.6581    4.5953 H   0  0  0  0  0  0  0  0  0  0  0  0
    2.2429   -0.8072    3.9175 H   0  0  0  0  0  0  0  0  0  0  0  0
  1  2  1  0  0  0  0
  2  3  1  0  0  0  0
  2  4  1  0  0  0  0
  2  5  1  0  0  0  0
  5  6  2  0  0  0  0
  5  7  1  0  0  0  0
  7  8  1  0  0  0  0
  7  9  1  0  0  0  0
  9 10  1  0  0  0  0
  9 11  1  0  0  0  0
  9 18  1  0  0  0  0
 11 12  1  0  0  0  0
 11 13  1  0  0  0  0
 11 14  1  0  0  0  0
 14 15  2  0  0  0  0
 14 16  1  0  0  0  0
 16 17  1  0  0  0  0
 18 19  2  0  0  0  0
 18 20  1  0  0  0  0
 20 21  1  0  0  0  0
 20 22  1  0  0  0  0
 22 23  1  0  0  0  0
 22 24  1  0  0  0  0
 22 25  1  0  0  0  0
M  END
$$$$

  -OEChem-01062216063D

 25 24  0     1  0  0  0  0  0999 V2000
   -2.8595   -3.4157    0.8047 H   0  0  0  0  0  0  0  0  0  0  0  0
   -2.8646   -2.3518    0.5512 C   0  0  0  0  0  0  0  0  0  0  0  0
   -3.4685   -1.8176    1.2886 H   0  0  0  0  0  0  0  0  0  0  0  0
   -3.3134   -2.2282   -0.4375 H   0  0  0  0  0  0  0  0  0  0  0  0
   -1.4484   -1.8082    0.5479 C   0  0  0  0  0  0  0  0  0  0  0  0
   -0.5107   -2.5592    0.7662 O   0  0  0  0  0  0  0  0  0  0  0  0
   -1.2307   -0.4731    0.2679 N   0  0  0  0  0  0  0  0  0  0  0  0
   -2.0650    0.0904    0.1309 H   0  0  0  0  0  0  0  0  0  0  0  0
    0.0581    0.2431    0.3732 C   0  0  1  0  0  0  0  0  0  0  0  0
    0.7931   -0.2695   -0.2583 H   0  0  0  0  0  0  0  0  0  0  0  0
   -0.1772    1.6647   -0.1927 C   0  0  0  0  0  0  0  0  0  0  0  0
   -1.0179    2.1324    0.3268 H   0  0  0  0  0  0  0  0  0  0  0  0
    0.7037    2.2857   -0.0067 H   0  0  0  0  0  0  0  0  0  0  0  0
   -0.4218    1.7038   -1.6987 C   0  0  0  0  0  0  0  0  0  0  0  0
    0.0719    0.8515   -2.4180 O   0  0  0  0  0  0  0  0  0  0  0  0
   -1.2101    2.7011   -2.1618 O   0  0  0  0  0  0  0  0  0  0  0  0
   -1.2424    2.5902   -3.1246 H   0  0  0  0  0  0  0  0  0  0  0  0
    0.7000    0.2644    1.7934 C   0  0  0  0  0  0  0  0  0  0  0  0
    1.1301    1.3094    2.2667 O   0  0  0  0  0  0  0  0  0  0  0  0
    0.7686   -0.8686    2.5808 N   0  0  0  0  0  0  0  0  0  0  0  0
    0.4791   -1.7439    2.1373 H   0  0  0  0  0  0  0  0  0  0  0  0
    1.4057   -0.9174    3.8906 C   0  0  0  0  0  0  0  0  0  0  0  0
    0.9309   -0.2068    4.5751 H   0  0  0  0  0  0  0  0  0  0  0  0
    1.3136   -1.9208    4.3172 H   0  0  0  0  0  0  0  0  0  0  0  0
    2.4696   -0.6717    3.8081 H   0  0  0  0  0  0  0  0  0  0  0  0
  1  2  1  0  0  0  0
  2  3  1  0  0  0  0
  2  4  1  0  0  0  0
  2  5  1  0  0  0  0
  5  6  2  0  0  0  0
  5  7  1  0  0  0  0
  7  8  1  0  0  0  0
  7  9  1  0  0  0  0
  9 10  1  0  0  0  0
  9 11  1  0  0  0  0
  9 18  1  0  0  0  0
 11 12  1  0  0  0  0
 11 13  1  0  0  0  0
 11 14  1  0  0  0  0
 14 15  2  0  0  0  0
 14 16  1  0  0  0  0
 16 17  1  0  0  0  0
 18 19  2  0  0  0  0
 18 20  1  0  0  0  0
 20 21  1  0  0  0  0
 20 22  1  0  0  0  0
 22 23  1  0  0  0  0
 22 24  1  0  0  0  0
 22 25  1  0  0  0  0
M  END
$$$$

  -OEChem-01062216063D

 25 24  0     1  0  0  0  0  0999 V2000
   -2.7996   -3.4176    0.8716 H   0  0  0  0  0  0  0  0  0  0  0  0
   -2.8192   -2.3526    0.6235 C   0  0  0  0  0  0  0  0  0  0  0  0
   -3.3943   -1.8243    1.3877 H   0  0  0  0  0  0  0  0  0  0  0  0
   -3.3095   -2.2266   -0.3449 H   0  0  0  0  0  0  0  0  0  0  0  0
   -1.4066   -1.8026    0.5636 C   0  0  0  0  0  0  0  0  0  0  0  0
   -0.4570   -2.5502    0.7397 O   0  0  0  0  0  0  0  0  0  0  0  0
   -1.2058   -0.4677    0.2694 N   0  0  0  0  0  0  0  0  0  0  0  0
   -2.0457    0.0971    0.1808 H   0  0  0  0  0  0  0  0  0  0  0  0
    0.0852    0.2460    0.3408 C   0  0  1  0  0  0  0  0  0  0  0  0
    0.8056   -0.2672   -0.3063 H   0  0  0  0  0  0  0  0  0  0  0  0
   -0.1500    1.6713   -0.2127 C   0  0  0  0  0  0  0  0  0  0  0  0
   -0.9748    2.1440    0.3280 H   0  0  0  0  0  0  0  0  0  0  0  0
    0.7419    2.2805   -0.0391 H   0  0  0  0  0  0  0  0  0  0  0  0
   -0.4307    1.7196   -1.7118 C   0  0  0  0  0  0  0  0  0  0  0  0
    0.0376    0.8657   -2.4464 O   0  0  0  0  0  0  0  0  0  0  0  0
   -1.2207    2.7261   -2.1511 O   0  0  0  0  0  0  0  0  0  0  0  0
   -1.2820    2.6175   -3.1126 H   0  0  0  0  0  0  0  0  0  0  0  0
    0.7430    0.2614    1.7504 C   0  0  0  0  0  0  0  0  0  0  0  0
    0.9530    1.3191    2.3323 O   0  0  0  0  0  0  0  0  0  0  0  0
    1.0860   -0.9113    2.3932 N   0  0  0  0  0  0  0  0  0  0  0  0
    0.8178   -1.7801    1.9233 H   0  0  0  0  0  0  0  0  0  0  0  0
    1.6510   -0.9745    3.7346 C   0  0  0  0  0  0  0  0  0  0  0  0
    0.9567   -0.5447    4.4639 H   0  0  0  0  0  0  0  0  0  0  0  0
    1.8458   -2.0149    4.0119 H   0  0  0  0  0  0  0  0  0  0  0  0
    2.5959   -0.4229    3.7784 H   0  0  0  0  0  0  0  0  0  0  0  0
  1  2  1  0  0  0  0
  2  3  1  0  0  0  0
  2  4  1  0  0  0  0
  2  5  1  0  0  0  0
  5  6  2  0  0  0  0
  5  7  1  0  0  0  0
  7  8  1  0  0  0  0
  7  9  1  0  0  0  0
  9 10  1  0  0  0  0
  9 11  1  0  0  0  0
  9 18  1  0  0  0  0
 11 12  1  0  0  0  0
 11 13  1  0  0  0  0
 11 14  1  0  0  0  0
 14 15  2  0  0  0  0
 14 16  1  0  0  0  0
 16 17  1  0  0  0  0
 18 19  2  0  0  0  0
 18 20  1  0  0  0  0
 20 21  1  0  0  0  0
 20 22  1  0  0  0  0
 22 23  1  0  0  0  0
 22 24  1  0  0  0  0
 22 25  1  0  0  0  0
M  END
$$$$

  -OEChem-01062216063D

 25 24  0     1  0  0  0  0  0999 V2000
   -2.7084   -3.4218    0.9671 H   0  0  0  0  0  0  0  0  0  0  0  0
   -2.7556   -2.3630    0.6977 C   0  0  0  0  0  0  0  0  0  0  0  0
   -3.3149   -1.8284    1.4693 H   0  0  0  0  0  0  0  0  0  0  0  0
   -3.2792   -2.2659   -0.2565 H   0  0  0  0  0  0  0  0  0  0  0  0
   -1.3559   -1.7903    0.5802 C   0  0  0  0  0  0  0  0  0  0  0  0
   -0.3854   -2.5157    0.7399 O   0  0  0  0  0  0  0  0  0  0  0  0
   -1.1861   -0.4567    0.2619 N   0  0  0  0  0  0  0  0  0  0  0  0
   -2.0323    0.1039    0.2171 H   0  0  0  0  0  0  0  0  0  0  0  0
    0.1030    0.2573    0.3092 C   0  0  1  0  0  0  0  0  0  0  0  0
    0.8194   -0.2543   -0.3440 H   0  0  0  0  0  0  0  0  0  0  0  0
   -0.1318    1.6847   -0.2350 C   0  0  0  0  0  0  0  0  0  0  0  0
   -0.9484    2.1571    0.3182 H   0  0  0  0  0  0  0  0  0  0  0  0
    0.7650    2.2877   -0.0655 H   0  0  0  0  0  0  0  0  0  0  0  0
   -0.4367    1.7413   -1.7290 C   0  0  0  0  0  0  0  0  0  0  0  0
    0.0141    0.8872   -2.4741 O   0  0  0  0  0  0  0  0  0  0  0  0
   -1.2207    2.7590   -2.1531 O   0  0  0  0  0  0  0  0  0  0  0  0
   -1.2962    2.6552   -3.1141 H   0  0  0  0  0  0  0  0  0  0  0  0
    0.7521    0.2728    1.7187 C   0  0  0  0  0  0  0  0  0  0  0  0
    0.7463    1.2909    2.4006 O   0  0  0  0  0  0  0  0  0  0  0  0
    1.3579   -0.8617    2.2211 N   0  0  0  0  0  0  0  0  0  0  0  0
    1.1439   -1.7284    1.7205 H   0  0  0  0  0  0  0  0  0  0  0  0
    1.8901   -0.9535    3.5744 C   0  0  0  0  0  0  0  0  0  0  0  0
    1.0917   -0.8148    4.3106 H   0  0  0  0  0  0  0  0  0  0  0  0
    2.3444   -1.9361    3.7342 H   0  0  0  0  0  0  0  0  0  0  0  0
    2.6572   -0.1893    3.7379 H   0  0  0  0  0  0  0  0  0  0  0  0
  1  2  1  0  0  0  0
  2  3  1  0  0  0  0
  2  4  1  0  0  0  0
  2  5  1  0  0  0  0
  5  6  2  0  0  0  0
  5  7  1  0  0  0  0
  7  8  1  0  0  0  0
  7  9  1  0  0  0  0
  9 10  1  0  0  0  0
  9 11  1  0  0  0  0
  9 18  1  0  0  0  0
 11 12  1  0  0  0  0
 11 13  1  0  0  0  0
 11 14  1  0  0  0  0
 14 15  2  0  0  0  0
 14 16  1  0  0  0  0
 16 17  1  0  0  0  0
 18 19  2  0  0  0  0
 18 20  1  0  0  0  0
 20 21  1  0  0  0  0
 20 22  1  0  0  0  0
 22 23  1  0  0  0  0
 22 24  1  0  0  0  0
 22 25  1  0  0  0  0
M  END
$$$$

  -OEChem-01062216063D

 25 24  0     1  0  0  0  0  0999 V2000
   -2.6145   -3.4292    1.0414 H   0  0  0  0  0  0  0  0  0  0  0  0
   -2.6945   -2.3752    0.7607 C   0  0  0  0  0  0  0  0  0  0  0  0
   -3.2363   -1.8421    1.5459 H   0  0  0  0  0  0  0  0  0  0  0  0
   -3.2543   -2.3013   -0.1749 H   0  0  0  0  0  0  0  0  0  0  0  0
   -1.3127   -1.7750    0.5850 C   0  0  0  0  0  0  0  0  0  0  0  0
   -0.3188   -2.4724    0.7312 O   0  0  0  0  0  0  0  0  0  0  0  0
   -1.1790   -0.4431    0.2432 N   0  0  0  0  0  0  0  0  0  0  0  0
   -2.0299    0.1124    0.2483 H   0  0  0  0  0  0  0  0  0  0  0  0
    0.1081    0.2697    0.2801 C   0  0  1  0  0  0  0  0  0  0  0  0
    0.8262   -0.2406   -0.3724 H   0  0  0  0  0  0  0  0  0  0  0  0
   -0.1192    1.7002   -0.2546 C   0  0  0  0  0  0  0  0  0  0  0  0
   -0.9315    2.1741    0.3039 H   0  0  0  0  0  0  0  0  0  0  0  0
    0.7815    2.2961   -0.0825 H   0  0  0  0  0  0  0  0  0  0  0  0
   -0.4338    1.7656   -1.7462 C   0  0  0  0  0  0  0  0  0  0  0  0
    0.0062    0.9109   -2.4972 O   0  0  0  0  0  0  0  0  0  0  0  0
   -1.2125    2.7909   -2.1616 O   0  0  0  0  0  0  0  0  0  0  0  0
   -1.2990    2.6887   -3.1218 H   0  0  0  0  0  0  0  0  0  0  0  0
    0.7321    0.2839    1.6972 C   0  0  0  0  0  0  0  0  0  0  0  0
    0.5152    1.2129    2.4665 O   0  0  0  0  0  0  0  0  0  0  0  0
    1.5812   -0.7350    2.0822 N   0  0  0  0  0  0  0  0  0  0  0  0
    1.4879   -1.5928    1.5348 H   0  0  0  0  0  0  0  0  0  0  0  0
    2.1177   -0.8422    3.4329 C   0  0  0  0  0  0  0  0  0  0  0  0
    1.3080   -0.9804    4.1568 H   0  0  0  0  0  0  0  0  0  0  0  0
    2.7964   -1.6976    3.5015 H   0  0  0  0  0  0  0  0  0  0  0  0
    2.6766    0.0616    3.6974 H   0  0  0  0  0  0  0  0  0  0  0  0
  1  2  1  0  0  0  0
  2  3  1  0  0  0  0
  2  4  1  0  0  0  0
  2  5  1  0  0  0  0
  5  6  2  0  0  0  0
  5  7  1  0  0  0  0
  7  8  1  0  0  0  0
  7  9  1  0  0  0  0
  9 10  1  0  0  0  0
  9 11  1  0  0  0  0
  9 18  1  0  0  0  0
 11 12  1  0  0  0  0
 11 13  1  0  0  0  0
 11 14  1  0  0  0  0
 14 15  2  0  0  0  0
 14 16  1  0  0  0  0
 16 17  1  0  0  0  0
 18 19  2  0  0  0  0
 18 20  1  0  0  0  0
 20 21  1  0  0  0  0
 20 22  1  0  0  0  0
 22 23  1  0  0  0  0
 22 24  1  0  0  0  0
 22 25  1  0  0  0  0
M  END
$$$$

  -OEChem-01062216063D

 25 24  0     1  0  0  0  0  0999 V2000
   -2.5619   -3.4325    1.1001 H   0  0  0  0  0  0  0  0  0  0  0  0
   -2.6628   -2.3856    0.8004 C   0  0  0  0  0  0  0  0  0  0  0  0
   -3.1880   -1.8429    1.5902 H   0  0  0  0  0  0  0  0  0  0  0  0
   -3.2502   -2.3374   -0.1196 H   0  0  0  0  0  0  0  0  0  0  0  0
   -1.2942   -1.7724    0.5732 C   0  0  0  0  0  0  0  0  0  0  0  0
   -0.2870   -2.4544    0.7001 O   0  0  0  0  0  0  0  0  0  0  0  0
   -1.1840   -0.4416    0.2191 N   0  0  0  0  0  0  0  0  0  0  0  0
   -2.0346    0.1110    0.2786 H   0  0  0  0  0  0  0  0  0  0  0  0
    0.1014    0.2713    0.2573 C   0  0  1  0  0  0  0  0  0  0  0  0
    0.8208   -0.2376   -0.3946 H   0  0  0  0  0  0  0  0  0  0  0  0
   -0.1177    1.7064   -0.2654 C   0  0  0  0  0  0  0  0  0  0  0  0
   -0.9301    2.1780    0.2952 H   0  0  0  0  0  0  0  0  0  0  0  0
    0.7846    2.2973   -0.0861 H   0  0  0  0  0  0  0  0  0  0  0  0
   -0.4320    1.7856   -1.7563 C   0  0  0  0  0  0  0  0  0  0  0  0
    0.0032    0.9342   -2.5140 O   0  0  0  0  0  0  0  0  0  0  0  0
   -1.1951    2.8253   -2.1650 O   0  0  0  0  0  0  0  0  0  0  0  0
   -1.2814    2.7319   -3.1262 H   0  0  0  0  0  0  0  0  0  0  0  0
    0.7071    0.2860    1.6799 C   0  0  0  0  0  0  0  0  0  0  0  0
    0.2865    1.0710    2.5219 O   0  0  0  0  0  0  0  0  0  0  0  0
    1.7743   -0.5376    1.9821 N   0  0  0  0  0  0  0  0  0  0  0  0
    1.8886   -1.3375    1.3609 H   0  0  0  0  0  0  0  0  0  0  0  0
    2.3301   -0.6339    3.3260 C   0  0  0  0  0  0  0  0  0  0  0  0
    1.5741   -1.0014    4.0278 H   0  0  0  0  0  0  0  0  0  0  0  0
    3.1783   -1.3250    3.3343 H   0  0  0  0  0  0  0  0  0  0  0  0
    2.6821    0.3454    3.6673 H   0  0  0  0  0  0  0  0  0  0  0  0
  1  2  1  0  0  0  0
  2  3  1  0  0  0  0
  2  4  1  0  0  0  0
  2  5  1  0  0  0  0
  5  6  2  0  0  0  0
  5  7  1  0  0  0  0
  7  8  1  0  0  0  0
  7  9  1  0  0  0  0
  9 10  1  0  0  0  0
  9 11  1  0  0  0  0
  9 18  1  0  0  0  0
 11 12  1  0  0  0  0
 11 13  1  0  0  0  0
 11 14  1  0  0  0  0
 14 15  2  0  0  0  0
 14 16  1  0  0  0  0
 16 17  1  0  0  0  0
 18 19  2  0  0  0  0
 18 20  1  0  0  0  0
 20 21  1  0  0  0  0
 20 22  1  0  0  0  0
 22 23  1  0  0  0  0
 22 24  1  0  0  0  0
 22 25  1  0  0  0  0
M  END
$$$$

  -OEChem-01062216063D

 25 24  0     1  0  0  0  0  0999 V2000
   -2.5390   -3.4321    1.1150 H   0  0  0  0  0  0  0  0  0  0  0  0
   -2.6472   -2.3814    0.8314 C   0  0  0  0  0  0  0  0  0  0  0  0
   -3.1396   -1.8462    1.6469 H   0  0  0  0  0  0  0  0  0  0  0  0
   -3.2690   -2.3205   -0.0649 H   0  0  0  0  0  0  0  0  0  0  0  0
   -1.2857   -1.7705    0.5596 C   0  0  0  0  0  0  0  0  0  0  0  0
   -0.2761   -2.4533    0.6565 O   0  0  0  0  0  0  0  0  0  0  0  0
   -1.1865   -0.4416    0.1959 N   0  0  0  0  0  0  0  0  0  0  0  0
   -2.0315    0.1105    0.3113 H   0  0  0  0  0  0  0  0  0  0  0  0
    0.0992    0.2701    0.2368 C   0  0  1  0  0  0  0  0  0  0  0  0
    0.8186   -0.2412   -0.4127 H   0  0  0  0  0  0  0  0  0  0  0  0
   -0.1163    1.7074   -0.2773 C   0  0  0  0  0  0  0  0  0  0  0  0
   -0.9278    2.1771    0.2859 H   0  0  0  0  0  0  0  0  0  0  0  0
    0.7874    2.2956   -0.0954 H   0  0  0  0  0  0  0  0  0  0  0  0
   -0.4305    1.7945   -1.7677 C   0  0  0  0  0  0  0  0  0  0  0  0
    0.0027    0.9460   -2.5297 O   0  0  0  0  0  0  0  0  0  0  0  0
   -1.1927    2.8371   -2.1707 O   0  0  0  0  0  0  0  0  0  0  0  0
   -1.2866    2.7439   -3.1311 H   0  0  0  0  0  0  0  0  0  0  0  0
    0.6946    0.2908    1.6626 C   0  0  0  0  0  0  0  0  0  0  0  0
    0.1013    0.8779    2.5603 O   0  0  0  0  0  0  0  0  0  0  0  0
    1.9288   -0.2778    1.9140 N   0  0  0  0  0  0  0  0  0  0  0  0
    2.2669   -0.9310    1.2114 H   0  0  0  0  0  0  0  0  0  0  0  0
    2.4884   -0.3656    3.2571 C   0  0  0  0  0  0  0  0  0  0  0  0
    1.8435   -0.9723    3.9015 H   0  0  0  0  0  0  0  0  0  0  0  0
    3.4799   -0.8270    3.2240 H   0  0  0  0  0  0  0  0  0  0  0  0
    2.5881    0.6321    3.6975 H   0  0  0  0  0  0  0  0  0  0  0  0
  1  2  1  0  0  0  0
  2  3  1  0  0  0  0
  2  4  1  0  0  0  0
  2  5  1  0  0  0  0
  5  6  2  0  0  0  0
  5  7  1  0  0  0  0
  7  8  1  0  0  0  0
  7  9  1  0  0  0  0
  9 10  1  0  0  0  0
  9 11  1  0  0  0  0
  9 18  1  0  0  0  0
 11 12  1  0  0  0  0
 11 13  1  0  0  0  0
 11 14  1  0  0  0  0
 14 15  2  0  0  0  0
 14 16  1  0  0  0  0
 16 17  1  0  0  0  0
 18 19  2  0  0  0  0
 18 20  1  0  0  0  0
 20 21  1  0  0  0  0
 20 22  1  0  0  0  0
 22 23  1  0  0  0  0
 22 24  1  0  0  0  0
 22 25  1  0  0  0  0
M  END
$$$$

  -OEChem-01062216063D

 25 24  0     1  0  0  0  0  0999 V2000
   -2.5374   -3.4341    1.1242 H   0  0  0  0  0  0  0  0  0  0  0  0
   -2.6479   -2.3820    0.8472 C   0  0  0  0  0  0  0  0  0  0  0  0
   -3.1145   -1.8471    1.6780 H   0  0  0  0  0  0  0  0  0  0  0  0
   -3.2935   -2.3144   -0.0315 H   0  0  0  0  0  0  0  0  0  0  0  0
   -1.2910   -1.7772    0.5410 C   0  0  0  0  0  0  0  0  0  0  0  0
   -0.2830   -2.4652    0.6107 O   0  0  0  0  0  0  0  0  0  0  0  0
   -1.1956   -0.4484    0.1752 N   0  0  0  0  0  0  0  0  0  0  0  0
   -2.0366    0.1021    0.3226 H   0  0  0  0  0  0  0  0  0  0  0  0
    0.0903    0.2633    0.2300 C   0  0  1  0  0  0  0  0  0  0  0  0
    0.8140   -0.2497   -0.4137 H   0  0  0  0  0  0  0  0  0  0  0  0
   -0.1197    1.7031   -0.2776 C   0  0  0  0  0  0  0  0  0  0  0  0
   -0.9356    2.1699    0.2819 H   0  0  0  0  0  0  0  0  0  0  0  0
    0.7827    2.2902   -0.0863 H   0  0  0  0  0  0  0  0  0  0  0  0
   -0.4218    1.7984   -1.7700 C   0  0  0  0  0  0  0  0  0  0  0  0
    0.0169    0.9538   -2.5328 O   0  0  0  0  0  0  0  0  0  0  0  0
   -1.1797    2.8438   -2.1734 O   0  0  0  0  0  0  0  0  0  0  0  0
   -1.2700    2.7528   -3.1345 H   0  0  0  0  0  0  0  0  0  0  0  0
    0.6758    0.2896    1.6597 C   0  0  0  0  0  0  0  0  0  0  0  0
   -0.0252    0.6588    2.5953 O   0  0  0  0  0  0  0  0  0  0  0  0
    2.0127    0.0125    1.8759 N   0  0  0  0  0  0  0  0  0  0  0  0
    2.5119   -0.4373    1.1134 H   0  0  0  0  0  0  0  0  0  0  0  0
    2.5968   -0.0391    3.2105 C   0  0  0  0  0  0  0  0  0  0  0  0
    2.1137   -0.8183    3.8093 H   0  0  0  0  0  0  0  0  0  0  0  0
    3.6660   -0.2624    3.1471 H   0  0  0  0  0  0  0  0  0  0  0  0
    2.4759    0.9226    3.7199 H   0  0  0  0  0  0  0  0  0  0  0  0
  1  2  1  0  0  0  0
  2  3  1  0  0  0  0
  2  4  1  0  0  0  0
  2  5  1  0  0  0  0
  5  6  2  0  0  0  0
  5  7  1  0  0  0  0
  7  8  1  0  0  0  0
  7  9  1  0  0  0  0
  9 10  1  0  0  0  0
  9 11  1  0  0  0  0
  9 18  1  0  0  0  0
 11 12  1  0  0  0  0
 11 13  1  0  0  0  0
 11 14  1  0  0  0  0
 14 15  2  0  0  0  0
 14 16  1  0  0  0  0
 16 17  1  0  0  0  0
 18 19  2  0  0  0  0
 18 20  1  0  0  0  0
 20 21  1  0  0  0  0
 20 22  1  0  0  0  0
 22 23  1  0  0  0  0
 22 24  1  0  0  0  0
 22 25  1  0  0  0  0
M  END
$$$$

  -OEChem-01062216063D

 25 24  0     1  0  0  0  0  0999 V2000
   -2.5395   -3.4378    1.1189 H   0  0  0  0  0  0  0  0  0  0  0  0
   -2.6508   -2.3823    0.8555 C   0  0  0  0  0  0  0  0  0  0  0  0
   -3.0917   -1.8529    1.7038 H   0  0  0  0  0  0  0  0  0  0  0  0
   -3.3183   -2.3015   -0.0056 H   0  0  0  0  0  0  0  0  0  0  0  0
   -1.2983   -1.7831    0.5208 C   0  0  0  0  0  0  0  0  0  0  0  0
   -0.2936   -2.4785    0.5589 O   0  0  0  0  0  0  0  0  0  0  0  0
   -1.2052   -0.4531    0.1581 N   0  0  0  0  0  0  0  0  0  0  0  0
   -2.0419    0.0950    0.3347 H   0  0  0  0  0  0  0  0  0  0  0  0
    0.0825    0.2549    0.2300 C   0  0  1  0  0  0  0  0  0  0  0  0
    0.8114   -0.2587   -0.4076 H   0  0  0  0  0  0  0  0  0  0  0  0
   -0.1246    1.6966   -0.2734 C   0  0  0  0  0  0  0  0  0  0  0  0
   -0.9464    2.1593    0.2808 H   0  0  0  0  0  0  0  0  0  0  0  0
    0.7748    2.2849   -0.0720 H   0  0  0  0  0  0  0  0  0  0  0  0
   -0.4129    1.7979   -1.7684 C   0  0  0  0  0  0  0  0  0  0  0  0
    0.0339    0.9572   -2.5306 O   0  0  0  0  0  0  0  0  0  0  0  0
   -1.1658    2.8460   -2.1744 O   0  0  0  0  0  0  0  0  0  0  0  0
   -1.2482    2.7579   -3.1364 H   0  0  0  0  0  0  0  0  0  0  0  0
    0.6598    0.2809    1.6639 C   0  0  0  0  0  0  0  0  0  0  0  0
   -0.0911    0.4305    2.6219 O   0  0  0  0  0  0  0  0  0  0  0  0
    2.0277    0.3096    1.8641 N   0  0  0  0  0  0  0  0  0  0  0  0
    2.6136    0.0769    1.0675 H   0  0  0  0  0  0  0  0  0  0  0  0
    2.6293    0.3153    3.1922 C   0  0  0  0  0  0  0  0  0  0  0  0
    2.3416   -0.5844    3.7464 H   0  0  0  0  0  0  0  0  0  0  0  0
    3.7203    0.3401    3.1130 H   0  0  0  0  0  0  0  0  0  0  0  0
    2.3049    1.1956    3.7571 H   0  0  0  0  0  0  0  0  0  0  0  0
  1  2  1  0  0  0  0
  2  3  1  0  0  0  0
  2  4  1  0  0  0  0
  2  5  1  0  0  0  0
  5  6  2  0  0  0  0
  5  7  1  0  0  0  0
  7  8  1  0  0  0  0
  7  9  1  0  0  0  0
  9 10  1  0  0  0  0
  9 11  1  0  0  0  0
  9 18  1  0  0  0  0
 11 12  1  0  0  0  0
 11 13  1  0  0  0  0
 11 14  1  0  0  0  0
 14 15  2  0  0  0  0
 14 16  1  0  0  0  0
 16 17  1  0  0  0  0
 18 19  2  0  0  0  0
 18 20  1  0  0  0  0
 20 21  1  0  0  0  0
 20 22  1  0  0  0  0
 22 23  1  0  0  0  0
 22 24  1  0  0  0  0
 22 25  1  0  0  0  0
M  END
$$$$

  -OEChem-01062216063D

 25 24  0     1  0  0  0  0  0999 V2000
   -2.5370   -3.4325    1.1396 H   0  0  0  0  0  0  0  0  0  0  0  0
   -2.6526   -2.3810    0.8629 C   0  0  0  0  0  0  0  0  0  0  0  0
   -3.0756   -1.8392    1.7124 H   0  0  0  0  0  0  0  0  0  0  0  0
   -3.3372   -2.3117    0.0144 H   0  0  0  0  0  0  0  0  0  0  0  0
   -1.3063   -1.7886    0.4934 C   0  0  0  0  0  0  0  0  0  0  0  0
   -0.3080   -2.4941    0.4854 O   0  0  0  0  0  0  0  0  0  0  0  0
   -1.2132   -0.4548    0.1427 N   0  0  0  0  0  0  0  0  0  0  0  0
   -2.0453    0.0904    0.3466 H   0  0  0  0  0  0  0  0  0  0  0  0
    0.0771    0.2482    0.2339 C   0  0  1  0  0  0  0  0  0  0  0  0
    0.8104   -0.2632   -0.4006 H   0  0  0  0  0  0  0  0  0  0  0  0
   -0.1318    1.6918   -0.2672 C   0  0  0  0  0  0  0  0  0  0  0  0
   -0.9619    2.1483    0.2798 H   0  0  0  0  0  0  0  0  0  0  0  0
    0.7613    2.2864   -0.0574 H   0  0  0  0  0  0  0  0  0  0  0  0
   -0.4063    1.7960   -1.7648 C   0  0  0  0  0  0  0  0  0  0  0  0
    0.0515    0.9597   -2.5251 O   0  0  0  0  0  0  0  0  0  0  0  0
   -1.1562    2.8443   -2.1756 O   0  0  0  0  0  0  0  0  0  0  0  0
   -1.2294    2.7583   -3.1388 H   0  0  0  0  0  0  0  0  0  0  0  0
    0.6537    0.2669    1.6706 C   0  0  0  0  0  0  0  0  0  0  0  0
   -0.0954    0.1870    2.6383 O   0  0  0  0  0  0  0  0  0  0  0  0
    1.9799    0.6004    1.8805 N   0  0  0  0  0  0  0  0  0  0  0  0
    2.5926    0.5992    1.0703 H   0  0  0  0  0  0  0  0  0  0  0  0
    2.5783    0.6661    3.2087 C   0  0  0  0  0  0  0  0  0  0  0  0
    2.4907   -0.3005    3.7163 H   0  0  0  0  0  0  0  0  0  0  0  0
    3.6392    0.9231    3.1336 H   0  0  0  0  0  0  0  0  0  0  0  0
    2.0807    1.4293    3.8164 H   0  0  0  0  0  0  0  0  0  0  0  0
  1  2  1  0  0  0  0
  2  3  1  0  0  0  0
  2  4  1  0  0  0  0
  2  5  1  0  0  0  0
  5  6  2  0  0  0  0
  5  7  1  0  0  0  0
  7  8  1  0  0  0  0
  7  9  1  0  0  0  0
  9 10  1  0  0  0  0
  9 11  1  0  0  0  0
  9 18  1  0  0  0  0
 11 12  1  0  0  0  0
 11 13  1  0  0  0  0
 11 14  1  0  0  0  0
 14 15  2  0  0  0  0
 14 16  1  0  0  0  0
 16 17  1  0  0  0  0
 18 19  2  0  0  0  0
 18 20  1  0  0  0  0
 20 21  1  0  0  0  0
 20 22  1  0  0  0  0
 22 23  1  0  0  0  0
 22 24  1  0  0  0  0
 22 25  1  0  0  0  0
M  END
$$$$

  -OEChem-01062216063D

 25 24  0     1  0  0  0  0  0999 V2000
   -2.6058   -3.4563    0.9721 H   0  0  0  0  0  0  0  0  0  0  0  0
   -2.6737   -2.3721    0.8466 C   0  0  0  0  0  0  0  0  0  0  0  0
   -2.9687   -1.9262    1.7997 H   0  0  0  0  0  0  0  0  0  0  0  0
   -3.4333   -2.1501    0.0934 H   0  0  0  0  0  0  0  0  0  0  0  0
   -1.3316   -1.8134    0.4139 C   0  0  0  0  0  0  0  0  0  0  0  0
   -0.3809   -2.5625    0.2439 O   0  0  0  0  0  0  0  0  0  0  0  0
   -1.2061   -0.4696    0.1111 N   0  0  0  0  0  0  0  0  0  0  0  0
   -2.0313    0.0770    0.3353 H   0  0  0  0  0  0  0  0  0  0  0  0
    0.0891    0.2239    0.2495 C   0  0  1  0  0  0  0  0  0  0  0  0
    0.7449   -0.0982   -0.5674 H   0  0  0  0  0  0  0  0  0  0  0  0
   -0.2031    1.7368    0.1311 C   0  0  0  0  0  0  0  0  0  0  0  0
   -0.9799    2.0121    0.8503 H   0  0  0  0  0  0  0  0  0  0  0  0
    0.6901    2.3121    0.3859 H   0  0  0  0  0  0  0  0  0  0  0  0
   -0.6334    2.1810   -1.2645 C   0  0  0  0  0  0  0  0  0  0  0  0
   -0.2383    1.5714   -2.2437 O   0  0  0  0  0  0  0  0  0  0  0  0
   -1.4503    3.2566   -1.3365 O   0  0  0  0  0  0  0  0  0  0  0  0
   -1.6210    3.4002   -2.2805 H   0  0  0  0  0  0  0  0  0  0  0  0
    0.8626   -0.0689    1.5661 C   0  0  0  0  0  0  0  0  0  0  0  0
    0.2831   -0.5295    2.5438 O   0  0  0  0  0  0  0  0  0  0  0  0
    2.0916    0.5321    1.7829 N   0  0  0  0  0  0  0  0  0  0  0  0
    2.5764    0.9014    0.9706 H   0  0  0  0  0  0  0  0  0  0  0  0
    2.8228    0.4211    3.0404 C   0  0  0  0  0  0  0  0  0  0  0  0
    3.0241   -0.6296    3.2748 H   0  0  0  0  0  0  0  0  0  0  0  0
    3.7783    0.9498    2.9708 H   0  0  0  0  0  0  0  0  0  0  0  0
    2.2449    0.8604    3.8605 H   0  0  0  0  0  0  0  0  0  0  0  0
  1  2  1  0  0  0  0
  2  3  1  0  0  0  0
  2  4  1  0  0  0  0
  2  5  1  0  0  0  0
  5  6  2  0  0  0  0
  5  7  1  0  0  0  0
  7  8  1  0  0  0  0
  7  9  1  0  0  0  0
  9 10  1  0  0  0  0
  9 11  1  0  0  0  0
  9 18  1  0  0  0  0
 11 12  1  0  0  0  0
 11 13  1  0  0  0  0
 11 14  1  0  0  0  0
 14 15  2  0  0  0  0
 14 16  1  0  0  0  0
 16 17  1  0  0  0  0
 18 19  2  0  0  0  0
 18 20  1  0  0  0  0
 20 21  1  0  0  0  0
 20 22  1  0  0  0  0
 22 23  1  0  0  0  0
 22 24  1  0  0  0  0
 22 25  1  0  0  0  0
M  END
$$$$

  -OEChem-01062216063D

 25 24  0     1  0  0  0  0  0999 V2000
   -2.6105   -3.4451    0.9675 H   0  0  0  0  0  0  0  0  0  0  0  0
   -2.6711   -2.3592    0.8528 C   0  0  0  0  0  0  0  0  0  0  0  0
   -2.9432   -1.9194    1.8152 H   0  0  0  0  0  0  0  0  0  0  0  0
   -3.4430   -2.1237    0.1167 H   0  0  0  0  0  0  0  0  0  0  0  0
   -1.3330   -1.8090    0.3981 C   0  0  0  0  0  0  0  0  0  0  0  0
   -0.4052   -2.5684    0.1625 O   0  0  0  0  0  0  0  0  0  0  0  0
   -1.1989   -0.4618    0.1149 N   0  0  0  0  0  0  0  0  0  0  0  0
   -2.0215    0.0821    0.3531 H   0  0  0  0  0  0  0  0  0  0  0  0
    0.0965    0.2323    0.2626 C   0  0  1  0  0  0  0  0  0  0  0  0
    0.7537   -0.0858   -0.5548 H   0  0  0  0  0  0  0  0  0  0  0  0
   -0.2203    1.7418    0.1266 C   0  0  0  0  0  0  0  0  0  0  0  0
   -1.0067    2.0126    0.8370 H   0  0  0  0  0  0  0  0  0  0  0  0
    0.6586    2.3399    0.3750 H   0  0  0  0  0  0  0  0  0  0  0  0
   -0.6447    2.1650   -1.2777 C   0  0  0  0  0  0  0  0  0  0  0  0
   -0.2314    1.5541   -2.2482 O   0  0  0  0  0  0  0  0  0  0  0  0
   -1.4779    3.2268   -1.3654 O   0  0  0  0  0  0  0  0  0  0  0  0
   -1.6448    3.3574   -2.3120 H   0  0  0  0  0  0  0  0  0  0  0  0
    0.8879   -0.0623    1.5751 C   0  0  0  0  0  0  0  0  0  0  0  0
    0.4080   -0.7493    2.4692 O   0  0  0  0  0  0  0  0  0  0  0  0
    1.9445    0.7577    1.9398 N   0  0  0  0  0  0  0  0  0  0  0  0
    2.3585    1.3308    1.2113 H   0  0  0  0  0  0  0  0  0  0  0  0
    2.6402    0.6495    3.2184 C   0  0  0  0  0  0  0  0  0  0  0  0
    3.0507   -0.3576    3.3473 H   0  0  0  0  0  0  0  0  0  0  0  0
    3.4646    1.3676    3.2631 H   0  0  0  0  0  0  0  0  0  0  0  0
    1.9555    0.8592    4.0471 H   0  0  0  0  0  0  0  0  0  0  0  0
  1  2  1  0  0  0  0
  2  3  1  0  0  0  0
  2  4  1  0  0  0  0
  2  5  1  0  0  0  0
  5  6  2  0  0  0  0
  5  7  1  0  0  0  0
  7  8  1  0  0  0  0
  7  9  1  0  0  0  0
  9 10  1  0  0  0  0
  9 11  1  0  0  0  0
  9 18  1  0  0  0  0
 11 12  1  0  0  0  0
 11 13  1  0  0  0  0
 11 14  1  0  0  0  0
 14 15  2  0  0  0  0
 14 16  1  0  0  0  0
 16 17  1  0  0  0  0
 18 19  2  0  0  0  0
 18 20  1  0  0  0  0
 20 21  1  0  0  0  0
 20 22  1  0  0  0  0
 22 23  1  0  0  0  0
 22 24  1  0  0  0  0
 22 25  1  0  0  0  0
M  END
$$$$

  -OEChem-01062216063D

 25 24  0     1  0  0  0  0  0999 V2000
   -2.5909   -3.4317    1.0228 H   0  0  0  0  0  0  0  0  0  0  0  0
   -2.6630   -2.3503    0.8763 C   0  0  0  0  0  0  0  0  0  0  0  0
   -2.9245   -1.8852    1.8296 H   0  0  0  0  0  0  0  0  0  0  0  0
   -3.4482   -2.1429    0.1457 H   0  0  0  0  0  0  0  0  0  0  0  0
   -1.3361   -1.8041    0.3845 C   0  0  0  0  0  0  0  0  0  0  0  0
   -0.4389   -2.5706    0.0703 O   0  0  0  0  0  0  0  0  0  0  0  0
   -1.1977   -0.4533    0.1216 N   0  0  0  0  0  0  0  0  0  0  0  0
   -2.0214    0.0839    0.3702 H   0  0  0  0  0  0  0  0  0  0  0  0
    0.0927    0.2512    0.2780 C   0  0  1  0  0  0  0  0  0  0  0  0
    0.7540   -0.0674   -0.5361 H   0  0  0  0  0  0  0  0  0  0  0  0
   -0.2393    1.7564    0.1132 C   0  0  0  0  0  0  0  0  0  0  0  0
   -1.0358    2.0325    0.8101 H   0  0  0  0  0  0  0  0  0  0  0  0
    0.6303    2.3701    0.3528 H   0  0  0  0  0  0  0  0  0  0  0  0
   -0.6487    2.1532   -1.3039 C   0  0  0  0  0  0  0  0  0  0  0  0
   -0.2167    1.5338   -2.2604 O   0  0  0  0  0  0  0  0  0  0  0  0
   -1.4879    3.2075   -1.4173 O   0  0  0  0  0  0  0  0  0  0  0  0
   -1.6414    3.3240   -2.3682 H   0  0  0  0  0  0  0  0  0  0  0  0
    0.9002   -0.0411    1.5865 C   0  0  0  0  0  0  0  0  0  0  0  0
    0.6145   -0.9631    2.3385 O   0  0  0  0  0  0  0  0  0  0  0  0
    1.7298    0.9302    2.1272 N   0  0  0  0  0  0  0  0  0  0  0  0
    1.9874    1.7079    1.5289 H   0  0  0  0  0  0  0  0  0  0  0  0
    2.4054    0.7912    3.4138 C   0  0  0  0  0  0  0  0  0  0  0  0
    3.0449   -0.0981    3.4174 H   0  0  0  0  0  0  0  0  0  0  0  0
    3.0305    1.6676    3.6096 H   0  0  0  0  0  0  0  0  0  0  0  0
    1.6735    0.7024    4.2237 H   0  0  0  0  0  0  0  0  0  0  0  0
  1  2  1  0  0  0  0
  2  3  1  0  0  0  0
  2  4  1  0  0  0  0
  2  5  1  0  0  0  0
  5  6  2  0  0  0  0
  5  7  1  0  0  0  0
  7  8  1  0  0  0  0
  7  9  1  0  0  0  0
  9 10  1  0  0  0  0
  9 11  1  0  0  0  0
  9 18  1  0  0  0  0
 11 12  1  0  0  0  0
 11 13  1  0  0  0  0
 11 14  1  0  0  0  0
 14 15  2  0  0  0  0
 14 16  1  0  0  0  0
 16 17  1  0  0  0  0
 18 19  2  0  0  0  0
 18 20  1  0  0  0  0
 20 21  1  0  0  0  0
 20 22  1  0  0  0  0
 22 23  1  0  0  0  0
 22 24  1  0  0  0  0
 22 25  1  0  0  0  0
M  END
$$$$

  -OEChem-01062216063D

 25 24  0     1  0  0  0  0  0999 V2000
   -2.5921   -3.4258    1.0345 H   0  0  0  0  0  0  0  0  0  0  0  0
   -2.6568   -2.3420    0.9038 C   0  0  0  0  0  0  0  0  0  0  0  0
   -2.8924   -1.8870    1.8686 H   0  0  0  0  0  0  0  0  0  0  0  0
   -3.4564   -2.1186    0.1938 H   0  0  0  0  0  0  0  0  0  0  0  0
   -1.3358   -1.8026    0.3887 C   0  0  0  0  0  0  0  0  0  0  0  0
   -0.4656   -2.5771    0.0273 O   0  0  0  0  0  0  0  0  0  0  0  0
   -1.1967   -0.4513    0.1290 N   0  0  0  0  0  0  0  0  0  0  0  0
   -2.0277    0.0811    0.3632 H   0  0  0  0  0  0  0  0  0  0  0  0
    0.0829    0.2724    0.2919 C   0  0  1  0  0  0  0  0  0  0  0  0
    0.7565   -0.0534   -0.5097 H   0  0  0  0  0  0  0  0  0  0  0  0
   -0.2482    1.7733    0.0938 C   0  0  0  0  0  0  0  0  0  0  0  0
   -1.0527    2.0660    0.7744 H   0  0  0  0  0  0  0  0  0  0  0  0
    0.6246    2.3860    0.3265 H   0  0  0  0  0  0  0  0  0  0  0  0
   -0.6350    2.1438   -1.3369 C   0  0  0  0  0  0  0  0  0  0  0  0
   -0.1882    1.5096   -2.2762 O   0  0  0  0  0  0  0  0  0  0  0  0
   -1.4758    3.1934   -1.4799 O   0  0  0  0  0  0  0  0  0  0  0  0
   -1.6158    3.2927   -2.4350 H   0  0  0  0  0  0  0  0  0  0  0  0
    0.8836   -0.0090    1.6071 C   0  0  0  0  0  0  0  0  0  0  0  0
    0.9067   -1.1037    2.1480 O   0  0  0  0  0  0  0  0  0  0  0  0
    1.4431    1.0316    2.3343 N   0  0  0  0  0  0  0  0  0  0  0  0
    1.4227    1.9581    1.9231 H   0  0  0  0  0  0  0  0  0  0  0  0
    2.1348    0.8496    3.6070 C   0  0  0  0  0  0  0  0  0  0  0  0
    2.9822    0.1659    3.4886 H   0  0  0  0  0  0  0  0  0  0  0  0
    2.5138    1.8088    3.9725 H   0  0  0  0  0  0  0  0  0  0  0  0
    1.4530    0.4385    4.3591 H   0  0  0  0  0  0  0  0  0  0  0  0
  1  2  1  0  0  0  0
  2  3  1  0  0  0  0
  2  4  1  0  0  0  0
  2  5  1  0  0  0  0
  5  6  2  0  0  0  0
  5  7  1  0  0  0  0
  7  8  1  0  0  0  0
  7  9  1  0  0  0  0
  9 10  1  0  0  0  0
  9 11  1  0  0  0  0
  9 18  1  0  0  0  0
 11 12  1  0  0  0  0
 11 13  1  0  0  0  0
 11 14  1  0  0  0  0
 14 15  2  0  0  0  0
 14 16  1  0  0  0  0
 16 17  1  0  0  0  0
 18 19  2  0  0  0  0
 18 20  1  0  0  0  0
 20 21  1  0  0  0  0
 20 22  1  0  0  0  0
 22 23  1  0  0  0  0
 22 24  1  0  0  0  0
 22 25  1  0  0  0  0
M  END
$$$$

  -OEChem-01062216063D

 25 24  0     1  0  0  0  0  0999 V2000
   -2.6893   -3.4181    0.9894 H   0  0  0  0  0  0  0  0  0  0  0  0
   -2.7291   -2.3370    0.8284 C   0  0  0  0  0  0  0  0  0  0  0  0
   -3.0662   -1.8582    1.7505 H   0  0  0  0  0  0  0  0  0  0  0  0
   -3.4437   -2.1253    0.0296 H   0  0  0  0  0  0  0  0  0  0  0  0
   -1.3554   -1.8179    0.4470 C   0  0  0  0  0  0  0  0  0  0  0  0
   -0.4617   -2.6117    0.2174 O   0  0  0  0  0  0  0  0  0  0  0  0
   -1.1917   -0.4719    0.1744 N   0  0  0  0  0  0  0  0  0  0  0  0
   -2.0383    0.0719    0.3029 H   0  0  0  0  0  0  0  0  0  0  0  0
    0.0793    0.2671    0.3287 C   0  0  1  0  0  0  0  0  0  0  0  0
    0.7604   -0.0679   -0.4630 H   0  0  0  0  0  0  0  0  0  0  0  0
   -0.2434    1.7655    0.1123 C   0  0  0  0  0  0  0  0  0  0  0  0
   -1.0504    2.0706    0.7842 H   0  0  0  0  0  0  0  0  0  0  0  0
    0.6371    2.3690    0.3470 H   0  0  0  0  0  0  0  0  0  0  0  0
   -0.6237    2.1236   -1.3231 C   0  0  0  0  0  0  0  0  0  0  0  0
   -0.1786    1.4785   -2.2555 O   0  0  0  0  0  0  0  0  0  0  0  0
   -1.4606    3.1745   -1.4775 O   0  0  0  0  0  0  0  0  0  0  0  0
   -1.5908    3.2712   -2.4343 H   0  0  0  0  0  0  0  0  0  0  0  0
    0.8674    0.0066    1.6503 C   0  0  0  0  0  0  0  0  0  0  0  0
    1.3000   -1.0926    1.9539 O   0  0  0  0  0  0  0  0  0  0  0  0
    1.1413    1.0442    2.5289 N   0  0  0  0  0  0  0  0  0  0  0  0
    0.7953    1.9673    2.2908 H   0  0  0  0  0  0  0  0  0  0  0  0
    1.8997    0.8766    3.7645 C   0  0  0  0  0  0  0  0  0  0  0  0
    2.9086    0.5097    3.5477 H   0  0  0  0  0  0  0  0  0  0  0  0
    1.9854    1.8328    4.2893 H   0  0  0  0  0  0  0  0  0  0  0  0
    1.4001    0.1619    4.4270 H   0  0  0  0  0  0  0  0  0  0  0  0
  1  2  1  0  0  0  0
  2  3  1  0  0  0  0
  2  4  1  0  0  0  0
  2  5  1  0  0  0  0
  5  6  2  0  0  0  0
  5  7  1  0  0  0  0
  7  8  1  0  0  0  0
  7  9  1  0  0  0  0
  9 10  1  0  0  0  0
  9 11  1  0  0  0  0
  9 18  1  0  0  0  0
 11 12  1  0  0  0  0
 11 13  1  0  0  0  0
 11 14  1  0  0  0  0
 14 15  2  0  0  0  0
 14 16  1  0  0  0  0
 16 17  1  0  0  0  0
 18 19  2  0  0  0  0
 18 20  1  0  0  0  0
 20 21  1  0  0  0  0
 20 22  1  0  0  0  0
 22 23  1  0  0  0  0
 22 24  1  0  0  0  0
 22 25  1  0  0  0  0
M  END
$$$$

  -OEChem-01062216063D

 25 24  0     1  0  0  0  0  0999 V2000
   -2.9290   -3.4241    0.7315 H   0  0  0  0  0  0  0  0  0  0  0  0
   -2.8869   -2.3732    0.4310 C   0  0  0  0  0  0  0  0  0  0  0  0
   -3.6558   -1.8205    0.9758 H   0  0  0  0  0  0  0  0  0  0  0  0
   -3.0880   -2.3072   -0.6411 H   0  0  0  0  0  0  0  0  0  0  0  0
   -1.5174   -1.7962    0.7386 C   0  0  0  0  0  0  0  0  0  0  0  0
   -0.6894   -2.5057    1.2741 O   0  0  0  0  0  0  0  0  0  0  0  0
   -1.2623   -0.4787    0.4013 N   0  0  0  0  0  0  0  0  0  0  0  0
   -2.0023   -0.0293   -0.1286 H   0  0  0  0  0  0  0  0  0  0  0  0
    0.0370    0.2251    0.4597 C   0  0  1  0  0  0  0  0  0  0  0  0
    0.6667   -0.1557   -0.3537 H   0  0  0  0  0  0  0  0  0  0  0  0
   -0.2468    1.7269    0.2180 C   0  0  0  0  0  0  0  0  0  0  0  0
   -1.0092    2.0743    0.9206 H   0  0  0  0  0  0  0  0  0  0  0  0
    0.6648    2.3034    0.3995 H   0  0  0  0  0  0  0  0  0  0  0  0
   -0.6974    2.0588   -1.2020 C   0  0  0  0  0  0  0  0  0  0  0  0
   -0.3274    1.3694   -2.1360 O   0  0  0  0  0  0  0  0  0  0  0  0
   -1.5150    3.1267   -1.3430 O   0  0  0  0  0  0  0  0  0  0  0  0
   -1.6832    3.2124   -2.2949 H   0  0  0  0  0  0  0  0  0  0  0  0
    0.8849    0.0077    1.7454 C   0  0  0  0  0  0  0  0  0  0  0  0
    1.7517   -0.8544    1.7599 O   0  0  0  0  0  0  0  0  0  0  0  0
    0.9745    0.9957    2.7146 N   0  0  0  0  0  0  0  0  0  0  0  0
    0.2641    1.7193    2.7055 H   0  0  0  0  0  0  0  0  0  0  0  0
    1.8773    0.9145    3.8577 C   0  0  0  0  0  0  0  0  0  0  0  0
    2.9193    0.8825    3.5217 H   0  0  0  0  0  0  0  0  0  0  0  0
    1.7504    1.7880    4.5041 H   0  0  0  0  0  0  0  0  0  0  0  0
    1.6699    0.0144    4.4461 H   0  0  0  0  0  0  0  0  0  0  0  0
  1  2  1  0  0  0  0
  2  3  1  0  0  0  0
  2  4  1  0  0  0  0
  2  5  1  0  0  0  0
  5  6  2  0  0  0  0
  5  7  1  0  0  0  0
  7  8  1  0  0  0  0
  7  9  1  0  0  0  0
  9 10  1  0  0  0  0
  9 11  1  0  0  0  0
  9 18  1  0  0  0  0
 11 12  1  0  0  0  0
 11 13  1  0  0  0  0
 11 14  1  0  0  0  0
 14 15  2  0  0  0  0
 14 16  1  0  0  0  0
 16 17  1  0  0  0  0
 18 19  2  0  0  0  0
 18 20  1  0  0  0  0
 20 21  1  0  0  0  0
 20 22  1  0  0  0  0
 22 23  1  0  0  0  0
 22 24  1  0  0  0  0
 22 25  1  0  0  0  0
M  END
$$$$

  -OEChem-01062216063D

 25 24  0     1  0  0  0  0  0999 V2000
   -2.9052   -3.4340    0.7794 H   0  0  0  0  0  0  0  0  0  0  0  0
   -2.8704   -2.3966    0.4338 C   0  0  0  0  0  0  0  0  0  0  0  0
   -3.6662   -1.8347    0.9281 H   0  0  0  0  0  0  0  0  0  0  0  0
   -3.0364   -2.3811   -0.6461 H   0  0  0  0  0  0  0  0  0  0  0  0
   -1.5215   -1.7829    0.7602 C   0  0  0  0  0  0  0  0  0  0  0  0
   -0.6923   -2.4559    1.3415 O   0  0  0  0  0  0  0  0  0  0  0  0
   -1.2798   -0.4688    0.4010 N   0  0  0  0  0  0  0  0  0  0  0  0
   -2.0052   -0.0463   -0.1702 H   0  0  0  0  0  0  0  0  0  0  0  0
    0.0269    0.2208    0.4364 C   0  0  1  0  0  0  0  0  0  0  0  0
    0.6416   -0.1686   -0.3846 H   0  0  0  0  0  0  0  0  0  0  0  0
   -0.2278    1.7286    0.2104 C   0  0  0  0  0  0  0  0  0  0  0  0
   -0.9702    2.0876    0.9280 H   0  0  0  0  0  0  0  0  0  0  0  0
    0.6996    2.2816    0.3866 H   0  0  0  0  0  0  0  0  0  0  0  0
   -0.6974    2.0810   -1.1978 C   0  0  0  0  0  0  0  0  0  0  0  0
   -0.3602    1.3900   -2.1433 O   0  0  0  0  0  0  0  0  0  0  0  0
   -1.4917    3.1692   -1.3167 O   0  0  0  0  0  0  0  0  0  0  0  0
   -1.6727    3.2681   -2.2647 H   0  0  0  0  0  0  0  0  0  0  0  0
    0.8773   -0.0007    1.7156 C   0  0  0  0  0  0  0  0  0  0  0  0
    1.8800   -0.6989    1.6568 O   0  0  0  0  0  0  0  0  0  0  0  0
    0.7454    0.8440    2.8060 N   0  0  0  0  0  0  0  0  0  0  0  0
   -0.1069    1.3912    2.8599 H   0  0  0  0  0  0  0  0  0  0  0  0
    1.5878    0.7424    3.9921 C   0  0  0  0  0  0  0  0  0  0  0  0
    2.6367    0.9233    3.7343 H   0  0  0  0  0  0  0  0  0  0  0  0
    1.2840    1.4831    4.7378 H   0  0  0  0  0  0  0  0  0  0  0  0
    1.5020   -0.2546    4.4373 H   0  0  0  0  0  0  0  0  0  0  0  0
  1  2  1  0  0  0  0
  2  3  1  0  0  0  0
  2  4  1  0  0  0  0
  2  5  1  0  0  0  0
  5  6  2  0  0  0  0
  5  7  1  0  0  0  0
  7  8  1  0  0  0  0
  7  9  1  0  0  0  0
  9 10  1  0  0  0  0
  9 11  1  0  0  0  0
  9 18  1  0  0  0  0
 11 12  1  0  0  0  0
 11 13  1  0  0  0  0
 11 14  1  0  0  0  0
 14 15  2  0  0  0  0
 14 16  1  0  0  0  0
 16 17  1  0  0  0  0
 18 19  2  0  0  0  0
 18 20  1  0  0  0  0
 20 21  1  0  0  0  0
 20 22  1  0  0  0  0
 22 23  1  0  0  0  0
 22 24  1  0  0  0  0
 22 25  1  0  0  0  0
M  END
$$$$

  -OEChem-01062216063D

 25 24  0     1  0  0  0  0  0999 V2000
   -2.8894   -3.4479    0.7700 H   0  0  0  0  0  0  0  0  0  0  0  0
   -2.8700   -2.4042    0.4431 C   0  0  0  0  0  0  0  0  0  0  0  0
   -3.6584   -1.8574    0.9653 H   0  0  0  0  0  0  0  0  0  0  0  0
   -3.0612   -2.3706   -0.6322 H   0  0  0  0  0  0  0  0  0  0  0  0
   -1.5188   -1.7854    0.7505 C   0  0  0  0  0  0  0  0  0  0  0  0
   -0.6784   -2.4502    1.3268 O   0  0  0  0  0  0  0  0  0  0  0  0
   -1.2816   -0.4727    0.3839 N   0  0  0  0  0  0  0  0  0  0  0  0
   -2.0042   -0.0539   -0.1940 H   0  0  0  0  0  0  0  0  0  0  0  0
    0.0287    0.2096    0.4147 C   0  0  1  0  0  0  0  0  0  0  0  0
    0.6398   -0.1783   -0.4097 H   0  0  0  0  0  0  0  0  0  0  0  0
   -0.2094    1.7216    0.2100 C   0  0  0  0  0  0  0  0  0  0  0  0
   -0.9407    2.0814    0.9386 H   0  0  0  0  0  0  0  0  0  0  0  0
    0.7264    2.2598    0.3882 H   0  0  0  0  0  0  0  0  0  0  0  0
   -0.6868    2.0957   -1.1897 C   0  0  0  0  0  0  0  0  0  0  0  0
   -0.3654    1.4111   -2.1455 O   0  0  0  0  0  0  0  0  0  0  0  0
   -1.4745    3.1905   -1.2898 O   0  0  0  0  0  0  0  0  0  0  0  0
   -1.6609    3.3022   -2.2353 H   0  0  0  0  0  0  0  0  0  0  0  0
    0.8741   -0.0150    1.6931 C   0  0  0  0  0  0  0  0  0  0  0  0
    1.9935   -0.4992    1.5953 O   0  0  0  0  0  0  0  0  0  0  0  0
    0.5342    0.6245    2.8733 N   0  0  0  0  0  0  0  0  0  0  0  0
   -0.4227    0.9526    2.9499 H   0  0  0  0  0  0  0  0  0  0  0  0
    1.3347    0.5159    4.0869 C   0  0  0  0  0  0  0  0  0  0  0  0
    2.3446    0.9035    3.9158 H   0  0  0  0  0  0  0  0  0  0  0  0
    0.8776    1.0939    4.8955 H   0  0  0  0  0  0  0  0  0  0  0  0
    1.4077   -0.5298    4.4045 H   0  0  0  0  0  0  0  0  0  0  0  0
  1  2  1  0  0  0  0
  2  3  1  0  0  0  0
  2  4  1  0  0  0  0
  2  5  1  0  0  0  0
  5  6  2  0  0  0  0
  5  7  1  0  0  0  0
  7  8  1  0  0  0  0
  7  9  1  0  0  0  0
  9 10  1  0  0  0  0
  9 11  1  0  0  0  0
  9 18  1  0  0  0  0
 11 12  1  0  0  0  0
 11 13  1  0  0  0  0
 11 14  1  0  0  0  0
 14 15  2  0  0  0  0
 14 16  1  0  0  0  0
 16 17  1  0  0  0  0
 18 19  2  0  0  0  0
 18 20  1  0  0  0  0
 20 21  1  0  0  0  0
 20 22  1  0  0  0  0
 22 23  1  0  0  0  0
 22 24  1  0  0  0  0
 22 25  1  0  0  0  0
M  END
$$$$

  -OEChem-01062216063D

 25 24  0     1  0  0  0  0  0999 V2000
   -2.8756   -3.4592    0.7448 H   0  0  0  0  0  0  0  0  0  0  0  0
   -2.8699   -2.4085    0.4403 C   0  0  0  0  0  0  0  0  0  0  0  0
   -3.6625   -1.8819    0.9772 H   0  0  0  0  0  0  0  0  0  0  0  0
   -3.0667   -2.3544   -0.6333 H   0  0  0  0  0  0  0  0  0  0  0  0
   -1.5242   -1.7812    0.7539 C   0  0  0  0  0  0  0  0  0  0  0  0
   -0.6824   -2.4378    1.3387 O   0  0  0  0  0  0  0  0  0  0  0  0
   -1.2871   -0.4711    0.3783 N   0  0  0  0  0  0  0  0  0  0  0  0
   -2.0067   -0.0562   -0.2068 H   0  0  0  0  0  0  0  0  0  0  0  0
    0.0268    0.2049    0.4021 C   0  0  1  0  0  0  0  0  0  0  0  0
    0.6332   -0.1857   -0.4244 H   0  0  0  0  0  0  0  0  0  0  0  0
   -0.2001    1.7186    0.2074 C   0  0  0  0  0  0  0  0  0  0  0  0
   -0.9205    2.0801    0.9462 H   0  0  0  0  0  0  0  0  0  0  0  0
    0.7417    2.2481    0.3813 H   0  0  0  0  0  0  0  0  0  0  0  0
   -0.6850    2.1025   -1.1870 C   0  0  0  0  0  0  0  0  0  0  0  0
   -0.3758    1.4186   -2.1476 O   0  0  0  0  0  0  0  0  0  0  0  0
   -1.4643    3.2040   -1.2781 O   0  0  0  0  0  0  0  0  0  0  0  0
   -1.6534    3.3225   -2.2221 H   0  0  0  0  0  0  0  0  0  0  0  0
    0.8746   -0.0147    1.6773 C   0  0  0  0  0  0  0  0  0  0  0  0
    2.0685   -0.2599    1.5674 O   0  0  0  0  0  0  0  0  0  0  0  0
    0.3817    0.3720    2.9110 N   0  0  0  0  0  0  0  0  0  0  0  0
   -0.6272    0.4576    2.9783 H   0  0  0  0  0  0  0  0  0  0  0  0
    1.1503    0.2235    4.1407 C   0  0  0  0  0  0  0  0  0  0  0  0
    2.0837    0.7933    4.0811 H   0  0  0  0  0  0  0  0  0  0  0  0
    0.5755    0.5949    4.9942 H   0  0  0  0  0  0  0  0  0  0  0  0
    1.3920   -0.8305    4.3148 H   0  0  0  0  0  0  0  0  0  0  0  0
  1  2  1  0  0  0  0
  2  3  1  0  0  0  0
  2  4  1  0  0  0  0
  2  5  1  0  0  0  0
  5  6  2  0  0  0  0
  5  7  1  0  0  0  0
  7  8  1  0  0  0  0
  7  9  1  0  0  0  0
  9 10  1  0  0  0  0
  9 11  1  0  0  0  0
  9 18  1  0  0  0  0
 11 12  1  0  0  0  0
 11 13  1  0  0  0  0
 11 14  1  0  0  0  0
 14 15  2  0  0  0  0
 14 16  1  0  0  0  0
 16 17  1  0  0  0  0
 18 19  2  0  0  0  0
 18 20  1  0  0  0  0
 20 21  1  0  0  0  0
 20 22  1  0  0  0  0
 22 23  1  0  0  0  0
 22 24  1  0  0  0  0
 22 25  1  0  0  0  0
M  END
$$$$

  -OEChem-01062216063D

 25 24  0     1  0  0  0  0  0999 V2000
   -2.9186   -3.4377    0.7724 H   0  0  0  0  0  0  0  0  0  0  0  0
   -2.8874   -2.4014    0.4239 C   0  0  0  0  0  0  0  0  0  0  0  0
   -3.6794   -1.8385    0.9235 H   0  0  0  0  0  0  0  0  0  0  0  0
   -3.0641   -2.3893   -0.6544 H   0  0  0  0  0  0  0  0  0  0  0  0
   -1.5359   -1.7857    0.7349 C   0  0  0  0  0  0  0  0  0  0  0  0
   -0.6983   -2.4469    1.3209 O   0  0  0  0  0  0  0  0  0  0  0  0
   -1.2868   -0.4776    0.3610 N   0  0  0  0  0  0  0  0  0  0  0  0
   -2.0043   -0.0523   -0.2195 H   0  0  0  0  0  0  0  0  0  0  0  0
    0.0303    0.1944    0.3937 C   0  0  1  0  0  0  0  0  0  0  0  0
    0.6401   -0.1903   -0.4328 H   0  0  0  0  0  0  0  0  0  0  0  0
   -0.1998    1.7092    0.2126 C   0  0  0  0  0  0  0  0  0  0  0  0
   -0.9205    2.0607    0.9562 H   0  0  0  0  0  0  0  0  0  0  0  0
    0.7401    2.2404    0.3916 H   0  0  0  0  0  0  0  0  0  0  0  0
   -0.6841    2.1058   -1.1783 C   0  0  0  0  0  0  0  0  0  0  0  0
   -0.3723    1.4314   -2.1449 O   0  0  0  0  0  0  0  0  0  0  0  0
   -1.4660    3.2067   -1.2600 O   0  0  0  0  0  0  0  0  0  0  0  0
   -1.6532    3.3352   -2.2029 H   0  0  0  0  0  0  0  0  0  0  0  0
    0.8791   -0.0179    1.6695 C   0  0  0  0  0  0  0  0  0  0  0  0
    2.0998   -0.0062    1.5805 O   0  0  0  0  0  0  0  0  0  0  0  0
    0.2939    0.0787    2.9191 N   0  0  0  0  0  0  0  0  0  0  0  0
   -0.7059   -0.0939    2.9429 H   0  0  0  0  0  0  0  0  0  0  0  0
    1.0529   -0.0958    4.1510 C   0  0  0  0  0  0  0  0  0  0  0  0
    1.8584    0.6435    4.2139 H   0  0  0  0  0  0  0  0  0  0  0  0
    0.3997    0.0339    5.0191 H   0  0  0  0  0  0  0  0  0  0  0  0
    1.4916   -1.0984    4.1912 H   0  0  0  0  0  0  0  0  0  0  0  0
  1  2  1  0  0  0  0
  2  3  1  0  0  0  0
  2  4  1  0  0  0  0
  2  5  1  0  0  0  0
  5  6  2  0  0  0  0
  5  7  1  0  0  0  0
  7  8  1  0  0  0  0
  7  9  1  0  0  0  0
  9 10  1  0  0  0  0
  9 11  1  0  0  0  0
  9 18  1  0  0  0  0
 11 12  1  0  0  0  0
 11 13  1  0  0  0  0
 11 14  1  0  0  0  0
 14 15  2  0  0  0  0
 14 16  1  0  0  0  0
 16 17  1  0  0  0  0
 18 19  2  0  0  0  0
 18 20  1  0  0  0  0
 20 21  1  0  0  0  0
 20 22  1  0  0  0  0
 22 23  1  0  0  0  0
 22 24  1  0  0  0  0
 22 25  1  0  0  0  0
M  END
$$$$

  -OEChem-01062216063D

 25 24  0     1  0  0  0  0  0999 V2000
   -2.9631   -3.4306    0.6772 H   0  0  0  0  0  0  0  0  0  0  0  0
   -2.9265   -2.3794    0.3772 C   0  0  0  0  0  0  0  0  0  0  0  0
   -3.7111   -1.8344    0.9072 H   0  0  0  0  0  0  0  0  0  0  0  0
   -3.1099   -2.3160   -0.6982 H   0  0  0  0  0  0  0  0  0  0  0  0
   -1.5687   -1.7882    0.7072 C   0  0  0  0  0  0  0  0  0  0  0  0
   -0.7482   -2.4648    1.3004 O   0  0  0  0  0  0  0  0  0  0  0  0
   -1.2949   -0.4817    0.3485 N   0  0  0  0  0  0  0  0  0  0  0  0
   -2.0096   -0.0326   -0.2173 H   0  0  0  0  0  0  0  0  0  0  0  0
    0.0249    0.1861    0.4063 C   0  0  1  0  0  0  0  0  0  0  0  0
    0.6434   -0.1951   -0.4148 H   0  0  0  0  0  0  0  0  0  0  0  0
   -0.2155    1.7000    0.2215 C   0  0  0  0  0  0  0  0  0  0  0  0
   -0.9509    2.0437    0.9542 H   0  0  0  0  0  0  0  0  0  0  0  0
    0.7150    2.2428    0.4148 H   0  0  0  0  0  0  0  0  0  0  0  0
   -0.6795    2.0928   -1.1772 C   0  0  0  0  0  0  0  0  0  0  0  0
   -0.3453    1.4215   -2.1387 O   0  0  0  0  0  0  0  0  0  0  0  0
   -1.4715    3.1850   -1.2721 O   0  0  0  0  0  0  0  0  0  0  0  0
   -1.6422    3.3119   -2.2183 H   0  0  0  0  0  0  0  0  0  0  0  0
    0.8769   -0.0173    1.6847 C   0  0  0  0  0  0  0  0  0  0  0  0
    2.0729    0.2412    1.6392 O   0  0  0  0  0  0  0  0  0  0  0  0
    0.2833   -0.2286    2.9157 N   0  0  0  0  0  0  0  0  0  0  0  0
   -0.6257   -0.6805    2.8660 H   0  0  0  0  0  0  0  0  0  0  0  0
    1.0667   -0.4189    4.1301 C   0  0  0  0  0  0  0  0  0  0  0  0
    1.7009    0.4538    4.3192 H   0  0  0  0  0  0  0  0  0  0  0  0
    0.4040   -0.5537    4.9903 H   0  0  0  0  0  0  0  0  0  0  0  0
    1.7041   -1.3047    4.0386 H   0  0  0  0  0  0  0  0  0  0  0  0
  1  2  1  0  0  0  0
  2  3  1  0  0  0  0
  2  4  1  0  0  0  0
  2  5  1  0  0  0  0
  5  6  2  0  0  0  0
  5  7  1  0  0  0  0
  7  8  1  0  0  0  0
  7  9  1  0  0  0  0
  9 10  1  0  0  0  0
  9 11  1  0  0  0  0
  9 18  1  0  0  0  0
 11 12  1  0  0  0  0
 11 13  1  0  0  0  0
 11 14  1  0  0  0  0
 14 15  2  0  0  0  0
 14 16  1  0  0  0  0
 16 17  1  0  0  0  0
 18 19  2  0  0  0  0
 18 20  1  0  0  0  0
 20 21  1  0  0  0  0
 20 22  1  0  0  0  0
 22 23  1  0  0  0  0
 22 24  1  0  0  0  0
 22 25  1  0  0  0  0
M  END
$$$$

  -OEChem-01062216063D

 25 24  0     1  0  0  0  0  0999 V2000
   -3.0200   -3.4093    0.6010 H   0  0  0  0  0  0  0  0  0  0  0  0
   -2.9710   -2.3447    0.3546 C   0  0  0  0  0  0  0  0  0  0  0  0
   -3.7161   -1.8107    0.9493 H   0  0  0  0  0  0  0  0  0  0  0  0
   -3.2030   -2.2204   -0.7060 H   0  0  0  0  0  0  0  0  0  0  0  0
   -1.5852   -1.8023    0.6507 C   0  0  0  0  0  0  0  0  0  0  0  0
   -0.7624   -2.5238    1.1856 O   0  0  0  0  0  0  0  0  0  0  0  0
   -1.2856   -0.4940    0.3214 N   0  0  0  0  0  0  0  0  0  0  0  0
   -2.0158    0.0007   -0.1830 H   0  0  0  0  0  0  0  0  0  0  0  0
    0.0318    0.1781    0.4136 C   0  0  1  0  0  0  0  0  0  0  0  0
    0.6642   -0.1902   -0.4024 H   0  0  0  0  0  0  0  0  0  0  0  0
   -0.2331    1.6903    0.2287 C   0  0  0  0  0  0  0  0  0  0  0  0
   -0.9883    2.0184    0.9483 H   0  0  0  0  0  0  0  0  0  0  0  0
    0.6813    2.2529    0.4397 H   0  0  0  0  0  0  0  0  0  0  0  0
   -0.6741    2.0807   -1.1785 C   0  0  0  0  0  0  0  0  0  0  0  0
   -0.3071    1.4202   -2.1355 O   0  0  0  0  0  0  0  0  0  0  0  0
   -1.4882    3.1556   -1.2854 O   0  0  0  0  0  0  0  0  0  0  0  0
   -1.6425    3.2832   -2.2343 H   0  0  0  0  0  0  0  0  0  0  0  0
    0.8809   -0.0233    1.6994 C   0  0  0  0  0  0  0  0  0  0  0  0
    2.0107    0.4487    1.7343 O   0  0  0  0  0  0  0  0  0  0  0  0
    0.3461   -0.5411    2.8643 N   0  0  0  0  0  0  0  0  0  0  0  0
   -0.4267   -1.1857    2.7055 H   0  0  0  0  0  0  0  0  0  0  0  0
    1.1459   -0.7401    4.0667 C   0  0  0  0  0  0  0  0  0  0  0  0
    1.5683    0.2105    4.4090 H   0  0  0  0  0  0  0  0  0  0  0  0
    0.5240   -1.1478    4.8692 H   0  0  0  0  0  0  0  0  0  0  0  0
    1.9650   -1.4398    3.8707 H   0  0  0  0  0  0  0  0  0  0  0  0
  1  2  1  0  0  0  0
  2  3  1  0  0  0  0
  2  4  1  0  0  0  0
  2  5  1  0  0  0  0
  5  6  2  0  0  0  0
  5  7  1  0  0  0  0
  7  8  1  0  0  0  0
  7  9  1  0  0  0  0
  9 10  1  0  0  0  0
  9 11  1  0  0  0  0
  9 18  1  0  0  0  0
 11 12  1  0  0  0  0
 11 13  1  0  0  0  0
 11 14  1  0  0  0  0
 14 15  2  0  0  0  0
 14 16  1  0  0  0  0
 16 17  1  0  0  0  0
 18 19  2  0  0  0  0
 18 20  1  0  0  0  0
 20 21  1  0  0  0  0
 20 22  1  0  0  0  0
 22 23  1  0  0  0  0
 22 24  1  0  0  0  0
 22 25  1  0  0  0  0
M  END
$$$$

  -OEChem-01062216063D

 25 24  0     1  0  0  0  0  0999 V2000
   -3.0678   -3.3757    0.6007 H   0  0  0  0  0  0  0  0  0  0  0  0
   -2.9983   -2.3096    0.3666 C   0  0  0  0  0  0  0  0  0  0  0  0
   -3.6856   -1.7614    1.0155 H   0  0  0  0  0  0  0  0  0  0  0  0
   -3.2923   -2.1600   -0.6752 H   0  0  0  0  0  0  0  0  0  0  0  0
   -1.5792   -1.8178    0.5806 C   0  0  0  0  0  0  0  0  0  0  0  0
   -0.7333   -2.5932    0.9908 O   0  0  0  0  0  0  0  0  0  0  0  0
   -1.2687   -0.5034    0.2889 N   0  0  0  0  0  0  0  0  0  0  0  0
   -2.0327    0.0438   -0.0970 H   0  0  0  0  0  0  0  0  0  0  0  0
    0.0401    0.1808    0.4193 C   0  0  1  0  0  0  0  0  0  0  0  0
    0.6909   -0.1709   -0.3894 H   0  0  0  0  0  0  0  0  0  0  0  0
   -0.2538    1.6892    0.2305 C   0  0  0  0  0  0  0  0  0  0  0  0
   -1.0316    2.0000    0.9333 H   0  0  0  0  0  0  0  0  0  0  0  0
    0.6408    2.2755    0.4604 H   0  0  0  0  0  0  0  0  0  0  0  0
   -0.6672    2.0735   -1.1872 C   0  0  0  0  0  0  0  0  0  0  0  0
   -0.2614    1.4246   -2.1364 O   0  0  0  0  0  0  0  0  0  0  0  0
   -1.5051    3.1281   -1.3117 O   0  0  0  0  0  0  0  0  0  0  0  0
   -1.6386    3.2535   -2.2641 H   0  0  0  0  0  0  0  0  0  0  0  0
    0.8792   -0.0280    1.7156 C   0  0  0  0  0  0  0  0  0  0  0  0
    1.9071    0.6223    1.8625 O   0  0  0  0  0  0  0  0  0  0  0  0
    0.4666   -0.8265    2.7659 N   0  0  0  0  0  0  0  0  0  0  0  0
   -0.1877   -1.5620    2.4968 H   0  0  0  0  0  0  0  0  0  0  0  0
    1.2858   -1.0555    3.9499 C   0  0  0  0  0  0  0  0  0  0  0  0
    1.4978   -0.1094    4.4589 H   0  0  0  0  0  0  0  0  0  0  0  0
    0.7603   -1.7119    4.6499 H   0  0  0  0  0  0  0  0  0  0  0  0
    2.2343   -1.5284    3.6746 H   0  0  0  0  0  0  0  0  0  0  0  0
  1  2  1  0  0  0  0
  2  3  1  0  0  0  0
  2  4  1  0  0  0  0
  2  5  1  0  0  0  0
  5  6  2  0  0  0  0
  5  7  1  0  0  0  0
  7  8  1  0  0  0  0
  7  9  1  0  0  0  0
  9 10  1  0  0  0  0
  9 11  1  0  0  0  0
  9 18  1  0  0  0  0
 11 12  1  0  0  0  0
 11 13  1  0  0  0  0
 11 14  1  0  0  0  0
 14 15  2  0  0  0  0
 14 16  1  0  0  0  0
 16 17  1  0  0  0  0
 18 19  2  0  0  0  0
 18 20  1  0  0  0  0
 20 21  1  0  0  0  0
 20 22  1  0  0  0  0
 22 23  1  0  0  0  0
 22 24  1  0  0  0  0
 22 25  1  0  0  0  0
M  END
$$$$

  -OEChem-01062216063D

 25 24  0     1  0  0  0  0  0999 V2000
   -3.0815   -3.3567    0.6259 H   0  0  0  0  0  0  0  0  0  0  0  0
   -3.0074   -2.2880    0.4052 C   0  0  0  0  0  0  0  0  0  0  0  0
   -3.6338   -1.7389    1.1124 H   0  0  0  0  0  0  0  0  0  0  0  0
   -3.3740   -2.1130   -0.6092 H   0  0  0  0  0  0  0  0  0  0  0  0
   -1.5666   -1.8277    0.5220 C   0  0  0  0  0  0  0  0  0  0  0  0
   -0.6991   -2.6409    0.7913 O   0  0  0  0  0  0  0  0  0  0  0  0
   -1.2578   -0.5058    0.2645 N   0  0  0  0  0  0  0  0  0  0  0  0
   -2.0501    0.0738    0.0034 H   0  0  0  0  0  0  0  0  0  0  0  0
    0.0433    0.1876    0.4233 C   0  0  1  0  0  0  0  0  0  0  0  0
    0.7061   -0.1535   -0.3800 H   0  0  0  0  0  0  0  0  0  0  0  0
   -0.2675    1.6938    0.2263 C   0  0  0  0  0  0  0  0  0  0  0  0
   -1.0627    1.9964    0.9131 H   0  0  0  0  0  0  0  0  0  0  0  0
    0.6127    2.2955    0.4690 H   0  0  0  0  0  0  0  0  0  0  0  0
   -0.6560    2.0716   -1.2004 C   0  0  0  0  0  0  0  0  0  0  0  0
   -0.2219    1.4287   -2.1413 O   0  0  0  0  0  0  0  0  0  0  0  0
   -1.5041    3.1159   -1.3420 O   0  0  0  0  0  0  0  0  0  0  0  0
   -1.6200    3.2393   -2.2968 H   0  0  0  0  0  0  0  0  0  0  0  0
    0.8747   -0.0389    1.7259 C   0  0  0  0  0  0  0  0  0  0  0  0
    1.7602    0.7573    2.0139 O   0  0  0  0  0  0  0  0  0  0  0  0
    0.6375   -1.0649    2.6209 N   0  0  0  0  0  0  0  0  0  0  0  0
    0.0894   -1.8420    2.2487 H   0  0  0  0  0  0  0  0  0  0  0  0
    1.4775   -1.3203    3.7853 C   0  0  0  0  0  0  0  0  0  0  0  0
    1.4818   -0.4528    4.4536 H   0  0  0  0  0  0  0  0  0  0  0  0
    1.0967   -2.1816    4.3424 H   0  0  0  0  0  0  0  0  0  0  0  0
    2.5064   -1.5332    3.4768 H   0  0  0  0  0  0  0  0  0  0  0  0
  1  2  1  0  0  0  0
  2  3  1  0  0  0  0
  2  4  1  0  0  0  0
  2  5  1  0  0  0  0
  5  6  2  0  0  0  0
  5  7  1  0  0  0  0
  7  8  1  0  0  0  0
  7  9  1  0  0  0  0
  9 10  1  0  0  0  0
  9 11  1  0  0  0  0
  9 18  1  0  0  0  0
 11 12  1  0  0  0  0
 11 13  1  0  0  0  0
 11 14  1  0  0  0  0
 14 15  2  0  0  0  0
 14 16  1  0  0  0  0
 16 17  1  0  0  0  0
 18 19  2  0  0  0  0
 18 20  1  0  0  0  0
 20 21  1  0  0  0  0
 20 22  1  0  0  0  0
 22 23  1  0  0  0  0
 22 24  1  0  0  0  0
 22 25  1  0  0  0  0
M  END
$$$$

  -OEChem-01062216063D

 25 24  0     1  0  0  0  0  0999 V2000
   -3.1300   -3.2796    0.8187 H   0  0  0  0  0  0  0  0  0  0  0  0
   -3.0427   -2.2207    0.5585 C   0  0  0  0  0  0  0  0  0  0  0  0
   -3.5814   -1.6308    1.3042 H   0  0  0  0  0  0  0  0  0  0  0  0
   -3.4977   -2.0606   -0.4221 H   0  0  0  0  0  0  0  0  0  0  0  0
   -1.5830   -1.8084    0.5251 C   0  0  0  0  0  0  0  0  0  0  0  0
   -0.7176   -2.6594    0.6467 O   0  0  0  0  0  0  0  0  0  0  0  0
   -1.2615   -0.4897    0.2672 N   0  0  0  0  0  0  0  0  0  0  0  0
   -2.0631    0.1214    0.1412 H   0  0  0  0  0  0  0  0  0  0  0  0
    0.0549    0.1807    0.3937 C   0  0  1  0  0  0  0  0  0  0  0  0
    0.6919   -0.1757   -0.4236 H   0  0  0  0  0  0  0  0  0  0  0  0
   -0.2319    1.6909    0.1881 C   0  0  0  0  0  0  0  0  0  0  0  0
   -1.0047    2.0173    0.8893 H   0  0  0  0  0  0  0  0  0  0  0  0
    0.6659    2.2768    0.4031 H   0  0  0  0  0  0  0  0  0  0  0  0
   -0.6419    2.0613   -1.2349 C   0  0  0  0  0  0  0  0  0  0  0  0
   -0.2384    1.4011   -2.1776 O   0  0  0  0  0  0  0  0  0  0  0  0
   -1.4784    3.1159   -1.3702 O   0  0  0  0  0  0  0  0  0  0  0  0
   -1.6180    3.2257   -2.3236 H   0  0  0  0  0  0  0  0  0  0  0  0
    0.9086   -0.0776    1.6779 C   0  0  0  0  0  0  0  0  0  0  0  0
    1.6396    0.8062    2.1087 O   0  0  0  0  0  0  0  0  0  0  0  0
    0.8692   -1.2554    2.3991 N   0  0  0  0  0  0  0  0  0  0  0  0
    0.3879   -2.0365    1.9492 H   0  0  0  0  0  0  0  0  0  0  0  0
    1.7217   -1.5354    3.5481 C   0  0  0  0  0  0  0  0  0  0  0  0
    1.5661   -0.7884    4.3335 H   0  0  0  0  0  0  0  0  0  0  0  0
    1.4853   -2.5212    3.9598 H   0  0  0  0  0  0  0  0  0  0  0  0
    2.7765   -1.5249    3.2546 H   0  0  0  0  0  0  0  0  0  0  0  0
  1  2  1  0  0  0  0
  2  3  1  0  0  0  0
  2  4  1  0  0  0  0
  2  5  1  0  0  0  0
  5  6  2  0  0  0  0
  5  7  1  0  0  0  0
  7  8  1  0  0  0  0
  7  9  1  0  0  0  0
  9 10  1  0  0  0  0
  9 11  1  0  0  0  0
  9 18  1  0  0  0  0
 11 12  1  0  0  0  0
 11 13  1  0  0  0  0
 11 14  1  0  0  0  0
 14 15  2  0  0  0  0
 14 16  1  0  0  0  0
 16 17  1  0  0  0  0
 18 19  2  0  0  0  0
 18 20  1  0  0  0  0
 20 21  1  0  0  0  0
 20 22  1  0  0  0  0
 22 23  1  0  0  0  0
 22 24  1  0  0  0  0
 22 25  1  0  0  0  0
M  END
$$$$

  -OEChem-01062216063D

 25 24  0     1  0  0  0  0  0999 V2000
   -2.9962   -3.3594    0.7659 H   0  0  0  0  0  0  0  0  0  0  0  0
   -2.9477   -2.2882    0.5505 C   0  0  0  0  0  0  0  0  0  0  0  0
   -3.4671   -1.7470    1.3451 H   0  0  0  0  0  0  0  0  0  0  0  0
   -3.4498   -2.0973   -0.4011 H   0  0  0  0  0  0  0  0  0  0  0  0
   -1.5020   -1.8344    0.4729 C   0  0  0  0  0  0  0  0  0  0  0  0
   -0.6100   -2.6647    0.5282 O   0  0  0  0  0  0  0  0  0  0  0  0
   -1.2263   -0.5010    0.2384 N   0  0  0  0  0  0  0  0  0  0  0  0
   -2.0491    0.0912    0.1736 H   0  0  0  0  0  0  0  0  0  0  0  0
    0.0692    0.2037    0.3816 C   0  0  1  0  0  0  0  0  0  0  0  0
    0.7203   -0.1229   -0.4369 H   0  0  0  0  0  0  0  0  0  0  0  0
   -0.2457    1.7105    0.1970 C   0  0  0  0  0  0  0  0  0  0  0  0
   -1.0283    2.0109    0.8990 H   0  0  0  0  0  0  0  0  0  0  0  0
    0.6415    2.3068    0.4281 H   0  0  0  0  0  0  0  0  0  0  0  0
   -0.6541    2.0968   -1.2218 C   0  0  0  0  0  0  0  0  0  0  0  0
   -0.2320    1.4600   -2.1725 O   0  0  0  0  0  0  0  0  0  0  0  0
   -1.5049    3.1414   -1.3459 O   0  0  0  0  0  0  0  0  0  0  0  0
   -1.6411    3.2636   -2.2982 H   0  0  0  0  0  0  0  0  0  0  0  0
    0.9121   -0.0669    1.6698 C   0  0  0  0  0  0  0  0  0  0  0  0
    1.4025    0.8685    2.2911 O   0  0  0  0  0  0  0  0  0  0  0  0
    1.1241   -1.3313    2.1827 N   0  0  0  0  0  0  0  0  0  0  0  0
    0.7203   -2.1107    1.6578 H   0  0  0  0  0  0  0  0  0  0  0  0
    1.9091   -1.6152    3.3777 C   0  0  0  0  0  0  0  0  0  0  0  0
    1.4789   -1.1090    4.2481 H   0  0  0  0  0  0  0  0  0  0  0  0
    1.9194   -2.6915    3.5745 H   0  0  0  0  0  0  0  0  0  0  0  0
    2.9423   -1.2772    3.2468 H   0  0  0  0  0  0  0  0  0  0  0  0
  1  2  1  0  0  0  0
  2  3  1  0  0  0  0
  2  4  1  0  0  0  0
  2  5  1  0  0  0  0
  5  6  2  0  0  0  0
  5  7  1  0  0  0  0
  7  8  1  0  0  0  0
  7  9  1  0  0  0  0
  9 10  1  0  0  0  0
  9 11  1  0  0  0  0
  9 18  1  0  0  0  0
 11 12  1  0  0  0  0
 11 13  1  0  0  0  0
 11 14  1  0  0  0  0
 14 15  2  0  0  0  0
 14 16  1  0  0  0  0
 16 17  1  0  0  0  0
 18 19  2  0  0  0  0
 18 20  1  0  0  0  0
 20 21  1  0  0  0  0
 20 22  1  0  0  0  0
 22 23  1  0  0  0  0
 22 24  1  0  0  0  0
 22 25  1  0  0  0  0
M  END
$$$$

  -OEChem-01062216063D

 25 24  0     1  0  0  0  0  0999 V2000
   -2.9098   -3.3769    0.8448 H   0  0  0  0  0  0  0  0  0  0  0  0
   -2.8861   -2.3056    0.6258 C   0  0  0  0  0  0  0  0  0  0  0  0
   -3.3859   -1.7705    1.4370 H   0  0  0  0  0  0  0  0  0  0  0  0
   -3.4247   -2.1255   -0.3079 H   0  0  0  0  0  0  0  0  0  0  0  0
   -1.4517   -1.8292    0.4956 C   0  0  0  0  0  0  0  0  0  0  0  0
   -0.5437   -2.6438    0.5250 O   0  0  0  0  0  0  0  0  0  0  0  0
   -1.2044   -0.4938    0.2416 N   0  0  0  0  0  0  0  0  0  0  0  0
   -2.0345    0.0913    0.2165 H   0  0  0  0  0  0  0  0  0  0  0  0
    0.0898    0.2164    0.3474 C   0  0  1  0  0  0  0  0  0  0  0  0
    0.7241   -0.1102   -0.4842 H   0  0  0  0  0  0  0  0  0  0  0  0
   -0.2193    1.7240    0.1735 C   0  0  0  0  0  0  0  0  0  0  0  0
   -0.9819    2.0279    0.8959 H   0  0  0  0  0  0  0  0  0  0  0  0
    0.6803    2.3082    0.3877 H   0  0  0  0  0  0  0  0  0  0  0  0
   -0.6635    2.1161   -1.2329 C   0  0  0  0  0  0  0  0  0  0  0  0
   -0.2710    1.4773   -2.1949 O   0  0  0  0  0  0  0  0  0  0  0  0
   -1.5063    3.1696   -1.3336 O   0  0  0  0  0  0  0  0  0  0  0  0
   -1.6677    3.2944   -2.2816 H   0  0  0  0  0  0  0  0  0  0  0  0
    0.9455   -0.0592    1.6220 C   0  0  0  0  0  0  0  0  0  0  0  0
    1.2324    0.8565    2.3844 O   0  0  0  0  0  0  0  0  0  0  0  0
    1.4006   -1.3222    1.9451 N   0  0  0  0  0  0  0  0  0  0  0  0
    1.0153   -2.0910    1.3904 H   0  0  0  0  0  0  0  0  0  0  0  0
    2.1230   -1.6377    3.1710 C   0  0  0  0  0  0  0  0  0  0  0  0
    1.4998   -1.4303    4.0470 H   0  0  0  0  0  0  0  0  0  0  0  0
    2.3986   -2.6965    3.1833 H   0  0  0  0  0  0  0  0  0  0  0  0
    3.0397   -1.0427    3.2400 H   0  0  0  0  0  0  0  0  0  0  0  0
  1  2  1  0  0  0  0
  2  3  1  0  0  0  0
  2  4  1  0  0  0  0
  2  5  1  0  0  0  0
  5  6  2  0  0  0  0
  5  7  1  0  0  0  0
  7  8  1  0  0  0  0
  7  9  1  0  0  0  0
  9 10  1  0  0  0  0
  9 11  1  0  0  0  0
  9 18  1  0  0  0  0
 11 12  1  0  0  0  0
 11 13  1  0  0  0  0
 11 14  1  0  0  0  0
 14 15  2  0  0  0  0
 14 16  1  0  0  0  0
 16 17  1  0  0  0  0
 18 19  2  0  0  0  0
 18 20  1  0  0  0  0
 20 21  1  0  0  0  0
 20 22  1  0  0  0  0
 22 23  1  0  0  0  0
 22 24  1  0  0  0  0
 22 25  1  0  0  0  0
M  END
$$$$

  -OEChem-01062216063D

 25 24  0     1  0  0  0  0  0999 V2000
   -2.7930   -3.4040    0.9242 H   0  0  0  0  0  0  0  0  0  0  0  0
   -2.8100   -2.3356    0.6906 C   0  0  0  0  0  0  0  0  0  0  0  0
   -3.3016   -1.8053    1.5098 H   0  0  0  0  0  0  0  0  0  0  0  0
   -3.3818   -2.1852   -0.2283 H   0  0  0  0  0  0  0  0  0  0  0  0
   -1.3955   -1.8171    0.5117 C   0  0  0  0  0  0  0  0  0  0  0  0
   -0.4583   -2.5992    0.5379 O   0  0  0  0  0  0  0  0  0  0  0  0
   -1.1903   -0.4798    0.2311 N   0  0  0  0  0  0  0  0  0  0  0  0
   -2.0290    0.0934    0.2379 H   0  0  0  0  0  0  0  0  0  0  0  0
    0.0994    0.2361    0.3195 C   0  0  1  0  0  0  0  0  0  0  0  0
    0.7331   -0.0894   -0.5131 H   0  0  0  0  0  0  0  0  0  0  0  0
   -0.2027    1.7443    0.1538 C   0  0  0  0  0  0  0  0  0  0  0  0
   -0.9587    2.0486    0.8833 H   0  0  0  0  0  0  0  0  0  0  0  0
    0.7022    2.3205    0.3675 H   0  0  0  0  0  0  0  0  0  0  0  0
   -0.6621    2.1420   -1.2458 C   0  0  0  0  0  0  0  0  0  0  0  0
   -0.2847    1.5024   -2.2134 O   0  0  0  0  0  0  0  0  0  0  0  0
   -1.4977    3.2021   -1.3351 O   0  0  0  0  0  0  0  0  0  0  0  0
   -1.6711    3.3280   -2.2808 H   0  0  0  0  0  0  0  0  0  0  0  0
    0.9372   -0.0417    1.6008 C   0  0  0  0  0  0  0  0  0  0  0  0
    1.0296    0.8089    2.4785 O   0  0  0  0  0  0  0  0  0  0  0  0
    1.6237   -1.2294    1.7610 N   0  0  0  0  0  0  0  0  0  0  0  0
    1.3004   -1.9929    1.1612 H   0  0  0  0  0  0  0  0  0  0  0  0
    2.3366   -1.5763    2.9841 C   0  0  0  0  0  0  0  0  0  0  0  0
    1.6396   -1.6532    3.8249 H   0  0  0  0  0  0  0  0  0  0  0  0
    2.8449   -2.5378    2.8636 H   0  0  0  0  0  0  0  0  0  0  0  0
    3.0898   -0.8168    3.2190 H   0  0  0  0  0  0  0  0  0  0  0  0
  1  2  1  0  0  0  0
  2  3  1  0  0  0  0
  2  4  1  0  0  0  0
  2  5  1  0  0  0  0
  5  6  2  0  0  0  0
  5  7  1  0  0  0  0
  7  8  1  0  0  0  0
  7  9  1  0  0  0  0
  9 10  1  0  0  0  0
  9 11  1  0  0  0  0
  9 18  1  0  0  0  0
 11 12  1  0  0  0  0
 11 13  1  0  0  0  0
 11 14  1  0  0  0  0
 14 15  2  0  0  0  0
 14 16  1  0  0  0  0
 16 17  1  0  0  0  0
 18 19  2  0  0  0  0
 18 20  1  0  0  0  0
 20 21  1  0  0  0  0
 20 22  1  0  0  0  0
 22 23  1  0  0  0  0
 22 24  1  0  0  0  0
 22 25  1  0  0  0  0
M  END
$$$$

  -OEChem-01062216063D

 25 24  0     1  0  0  0  0  0999 V2000
   -2.6780   -3.4236    1.0025 H   0  0  0  0  0  0  0  0  0  0  0  0
   -2.7355   -2.3625    0.7439 C   0  0  0  0  0  0  0  0  0  0  0  0
   -3.2219   -1.8277    1.5634 H   0  0  0  0  0  0  0  0  0  0  0  0
   -3.3357   -2.2525   -0.1625 H   0  0  0  0  0  0  0  0  0  0  0  0
   -1.3440   -1.8044    0.5141 C   0  0  0  0  0  0  0  0  0  0  0  0
   -0.3776   -2.5521    0.5323 O   0  0  0  0  0  0  0  0  0  0  0  0
   -1.1847   -0.4660    0.2093 N   0  0  0  0  0  0  0  0  0  0  0  0
   -2.0300    0.0948    0.2630 H   0  0  0  0  0  0  0  0  0  0  0  0
    0.1002    0.2533    0.2911 C   0  0  1  0  0  0  0  0  0  0  0  0
    0.7385   -0.0695   -0.5391 H   0  0  0  0  0  0  0  0  0  0  0  0
   -0.1931    1.7627    0.1380 C   0  0  0  0  0  0  0  0  0  0  0  0
   -0.9462    2.0642    0.8717 H   0  0  0  0  0  0  0  0  0  0  0  0
    0.7157    2.3307    0.3565 H   0  0  0  0  0  0  0  0  0  0  0  0
   -0.6594    2.1715   -1.2560 C   0  0  0  0  0  0  0  0  0  0  0  0
   -0.2919    1.5349   -2.2293 O   0  0  0  0  0  0  0  0  0  0  0  0
   -1.4861    3.2394   -1.3347 O   0  0  0  0  0  0  0  0  0  0  0  0
   -1.6681    3.3682   -2.2783 H   0  0  0  0  0  0  0  0  0  0  0  0
    0.9073   -0.0316    1.5858 C   0  0  0  0  0  0  0  0  0  0  0  0
    0.8000    0.7081    2.5573 O   0  0  0  0  0  0  0  0  0  0  0  0
    1.8145   -1.0726    1.6275 N   0  0  0  0  0  0  0  0  0  0  0  0
    1.6227   -1.8184    0.9565 H   0  0  0  0  0  0  0  0  0  0  0  0
    2.5380   -1.4285    2.8418 C   0  0  0  0  0  0  0  0  0  0  0  0
    1.8407   -1.7462    3.6239 H   0  0  0  0  0  0  0  0  0  0  0  0
    3.2328   -2.2492    2.6395 H   0  0  0  0  0  0  0  0  0  0  0  0
    3.1150   -0.5736    3.2101 H   0  0  0  0  0  0  0  0  0  0  0  0
  1  2  1  0  0  0  0
  2  3  1  0  0  0  0
  2  4  1  0  0  0  0
  2  5  1  0  0  0  0
  5  6  2  0  0  0  0
  5  7  1  0  0  0  0
  7  8  1  0  0  0  0
  7  9  1  0  0  0  0
  9 10  1  0  0  0  0
  9 11  1  0  0  0  0
  9 18  1  0  0  0  0
 11 12  1  0  0  0  0
 11 13  1  0  0  0  0
 11 14  1  0  0  0  0
 14 15  2  0  0  0  0
 14 16  1  0  0  0  0
 16 17  1  0  0  0  0
 18 19  2  0  0  0  0
 18 20  1  0  0  0  0
 20 21  1  0  0  0  0
 20 22  1  0  0  0  0
 22 23  1  0  0  0  0
 22 24  1  0  0  0  0
 22 25  1  0  0  0  0
M  END
$$$$

  -OEChem-01062216063D

 25 24  0     1  0  0  0  0  0999 V2000
   -2.5924   -3.4390    1.0469 H   0  0  0  0  0  0  0  0  0  0  0  0
   -2.6794   -2.3778    0.7973 C   0  0  0  0  0  0  0  0  0  0  0  0
   -3.1373   -1.8551    1.6406 H   0  0  0  0  0  0  0  0  0  0  0  0
   -3.3211   -2.2736   -0.0809 H   0  0  0  0  0  0  0  0  0  0  0  0
   -1.3086   -1.7949    0.5108 C   0  0  0  0  0  0  0  0  0  0  0  0
   -0.3239   -2.5191    0.5126 O   0  0  0  0  0  0  0  0  0  0  0  0
   -1.1837   -0.4573    0.1863 N   0  0  0  0  0  0  0  0  0  0  0  0
   -2.0309    0.0936    0.2891 H   0  0  0  0  0  0  0  0  0  0  0  0
    0.0974    0.2661    0.2623 C   0  0  1  0  0  0  0  0  0  0  0  0
    0.7367   -0.0569   -0.5668 H   0  0  0  0  0  0  0  0  0  0  0  0
   -0.1885    1.7762    0.1191 C   0  0  0  0  0  0  0  0  0  0  0  0
   -0.9385    2.0765    0.8565 H   0  0  0  0  0  0  0  0  0  0  0  0
    0.7236    2.3382    0.3387 H   0  0  0  0  0  0  0  0  0  0  0  0
   -0.6605    2.1937   -1.2704 C   0  0  0  0  0  0  0  0  0  0  0  0
   -0.3014    1.5595   -2.2486 O   0  0  0  0  0  0  0  0  0  0  0  0
   -1.4777    3.2695   -1.3400 O   0  0  0  0  0  0  0  0  0  0  0  0
   -1.6660    3.4027   -2.2817 H   0  0  0  0  0  0  0  0  0  0  0  0
    0.8853   -0.0179    1.5657 C   0  0  0  0  0  0  0  0  0  0  0  0
    0.5725    0.5506    2.6056 O   0  0  0  0  0  0  0  0  0  0  0  0
    1.9940   -0.8424    1.5443 N   0  0  0  0  0  0  0  0  0  0  0  0
    2.0238   -1.4941    0.7624 H   0  0  0  0  0  0  0  0  0  0  0  0
    2.7057   -1.2158    2.7602 C   0  0  0  0  0  0  0  0  0  0  0  0
    2.0499   -1.7855    3.4270 H   0  0  0  0  0  0  0  0  0  0  0  0
    3.5743   -1.8339    2.5138 H   0  0  0  0  0  0  0  0  0  0  0  0
    3.0579   -0.3242    3.2896 H   0  0  0  0  0  0  0  0  0  0  0  0
  1  2  1  0  0  0  0
  2  3  1  0  0  0  0
  2  4  1  0  0  0  0
  2  5  1  0  0  0  0
  5  6  2  0  0  0  0
  5  7  1  0  0  0  0
  7  8  1  0  0  0  0
  7  9  1  0  0  0  0
  9 10  1  0  0  0  0
  9 11  1  0  0  0  0
  9 18  1  0  0  0  0
 11 12  1  0  0  0  0
 11 13  1  0  0  0  0
 11 14  1  0  0  0  0
 14 15  2  0  0  0  0
 14 16  1  0  0  0  0
 16 17  1  0  0  0  0
 18 19  2  0  0  0  0
 18 20  1  0  0  0  0
 20 21  1  0  0  0  0
 20 22  1  0  0  0  0
 22 23  1  0  0  0  0
 22 24  1  0  0  0  0
 22 25  1  0  0  0  0
M  END
$$$$

  -OEChem-01062216063D

 25 24  0     1  0  0  0  0  0999 V2000
   -2.5583   -3.4411    1.0807 H   0  0  0  0  0  0  0  0  0  0  0  0
   -2.6581   -2.3823    0.8261 C   0  0  0  0  0  0  0  0  0  0  0  0
   -3.0968   -1.8564    1.6776 H   0  0  0  0  0  0  0  0  0  0  0  0
   -3.3224   -2.2875   -0.0361 H   0  0  0  0  0  0  0  0  0  0  0  0
   -1.2984   -1.7938    0.5009 C   0  0  0  0  0  0  0  0  0  0  0  0
   -0.3089   -2.5112    0.4867 O   0  0  0  0  0  0  0  0  0  0  0  0
   -1.1886   -0.4575    0.1654 N   0  0  0  0  0  0  0  0  0  0  0  0
   -2.0346    0.0885    0.2982 H   0  0  0  0  0  0  0  0  0  0  0  0
    0.0913    0.2671    0.2452 C   0  0  1  0  0  0  0  0  0  0  0  0
    0.7322   -0.0579   -0.5816 H   0  0  0  0  0  0  0  0  0  0  0  0
   -0.1900    1.7778    0.1107 C   0  0  0  0  0  0  0  0  0  0  0  0
   -0.9403    2.0745    0.8495 H   0  0  0  0  0  0  0  0  0  0  0  0
    0.7230    2.3365    0.3344 H   0  0  0  0  0  0  0  0  0  0  0  0
   -0.6604    2.2039   -1.2765 C   0  0  0  0  0  0  0  0  0  0  0  0
   -0.3022    1.5736   -2.2575 O   0  0  0  0  0  0  0  0  0  0  0  0
   -1.4717    3.2843   -1.3414 O   0  0  0  0  0  0  0  0  0  0  0  0
   -1.6611    3.4210   -2.2824 H   0  0  0  0  0  0  0  0  0  0  0  0
    0.8671   -0.0115    1.5554 C   0  0  0  0  0  0  0  0  0  0  0  0
    0.3952    0.3522    2.6269 O   0  0  0  0  0  0  0  0  0  0  0  0
    2.1313   -0.5689    1.5179 N   0  0  0  0  0  0  0  0  0  0  0  0
    2.3793   -1.0431    0.6535 H   0  0  0  0  0  0  0  0  0  0  0  0
    2.8553   -0.9354    2.7286 C   0  0  0  0  0  0  0  0  0  0  0  0
    2.3052   -1.7013    3.2855 H   0  0  0  0  0  0  0  0  0  0  0  0
    3.8423   -1.3326    2.4729 H   0  0  0  0  0  0  0  0  0  0  0  0
    2.9932   -0.0611    3.3735 H   0  0  0  0  0  0  0  0  0  0  0  0
  1  2  1  0  0  0  0
  2  3  1  0  0  0  0
  2  4  1  0  0  0  0
  2  5  1  0  0  0  0
  5  6  2  0  0  0  0
  5  7  1  0  0  0  0
  7  8  1  0  0  0  0
  7  9  1  0  0  0  0
  9 10  1  0  0  0  0
  9 11  1  0  0  0  0
  9 18  1  0  0  0  0
 11 12  1  0  0  0  0
 11 13  1  0  0  0  0
 11 14  1  0  0  0  0
 14 15  2  0  0  0  0
 14 16  1  0  0  0  0
 16 17  1  0  0  0  0
 18 19  2  0  0  0  0
 18 20  1  0  0  0  0
 20 21  1  0  0  0  0
 20 22  1  0  0  0  0
 22 23  1  0  0  0  0
 22 24  1  0  0  0  0
 22 25  1  0  0  0  0
M  END
$$$$

  -OEChem-01062216063D

 25 24  0     1  0  0  0  0  0999 V2000
   -2.5589   -3.4429    1.0813 H   0  0  0  0  0  0  0  0  0  0  0  0
   -2.6606   -2.3834    0.8309 C   0  0  0  0  0  0  0  0  0  0  0  0
   -3.0864   -1.8592    1.6898 H   0  0  0  0  0  0  0  0  0  0  0  0
   -3.3365   -2.2850   -0.0217 H   0  0  0  0  0  0  0  0  0  0  0  0
   -1.3047   -1.7962    0.4884 C   0  0  0  0  0  0  0  0  0  0  0  0
   -0.3175   -2.5161    0.4533 O   0  0  0  0  0  0  0  0  0  0  0  0
   -1.1969   -0.4599    0.1513 N   0  0  0  0  0  0  0  0  0  0  0  0
   -2.0392    0.0858    0.3063 H   0  0  0  0  0  0  0  0  0  0  0  0
    0.0853    0.2599    0.2416 C   0  0  1  0  0  0  0  0  0  0  0  0
    0.7289   -0.0682   -0.5819 H   0  0  0  0  0  0  0  0  0  0  0  0
   -0.1924    1.7709    0.1135 C   0  0  0  0  0  0  0  0  0  0  0  0
   -0.9459    2.0651    0.8500 H   0  0  0  0  0  0  0  0  0  0  0  0
    0.7201    2.3276    0.3439 H   0  0  0  0  0  0  0  0  0  0  0  0
   -0.6548    2.2033   -1.2749 C   0  0  0  0  0  0  0  0  0  0  0  0
   -0.2925    1.5767   -2.2566 O   0  0  0  0  0  0  0  0  0  0  0  0
   -1.4659    3.2840   -1.3393 O   0  0  0  0  0  0  0  0  0  0  0  0
   -1.6556    3.4211   -2.2804 H   0  0  0  0  0  0  0  0  0  0  0  0
    0.8541   -0.0168    1.5562 C   0  0  0  0  0  0  0  0  0  0  0  0
    0.2861    0.1383    2.6318 O   0  0  0  0  0  0  0  0  0  0  0  0
    2.2113   -0.2807    1.5345 N   0  0  0  0  0  0  0  0  0  0  0  0
    2.6074   -0.5446    0.6369 H   0  0  0  0  0  0  0  0  0  0  0  0
    2.9645   -0.5999    2.7413 C   0  0  0  0  0  0  0  0  0  0  0  0
    2.5669   -1.5054    3.2119 H   0  0  0  0  0  0  0  0  0  0  0  0
    4.0174   -0.7694    2.4965 H   0  0  0  0  0  0  0  0  0  0  0  0
    2.9066    0.2246    3.4596 H   0  0  0  0  0  0  0  0  0  0  0  0
  1  2  1  0  0  0  0
  2  3  1  0  0  0  0
  2  4  1  0  0  0  0
  2  5  1  0  0  0  0
  5  6  2  0  0  0  0
  5  7  1  0  0  0  0
  7  8  1  0  0  0  0
  7  9  1  0  0  0  0
  9 10  1  0  0  0  0
  9 11  1  0  0  0  0
  9 18  1  0  0  0  0
 11 12  1  0  0  0  0
 11 13  1  0  0  0  0
 11 14  1  0  0  0  0
 14 15  2  0  0  0  0
 14 16  1  0  0  0  0
 16 17  1  0  0  0  0
 18 19  2  0  0  0  0
 18 20  1  0  0  0  0
 20 21  1  0  0  0  0
 20 22  1  0  0  0  0
 22 23  1  0  0  0  0
 22 24  1  0  0  0  0
 22 25  1  0  0  0  0
M  END
$$$$

  -OEChem-01062216063D

 25 24  0     1  0  0  0  0  0999 V2000
   -2.5598   -3.4479    1.0790 H   0  0  0  0  0  0  0  0  0  0  0  0
   -2.6607   -2.3848    0.8436 C   0  0  0  0  0  0  0  0  0  0  0  0
   -3.0499   -1.8662    1.7232 H   0  0  0  0  0  0  0  0  0  0  0  0
   -3.3659   -2.2709    0.0171 H   0  0  0  0  0  0  0  0  0  0  0  0
   -1.3128   -1.8055    0.4597 C   0  0  0  0  0  0  0  0  0  0  0  0
   -0.3326   -2.5319    0.3865 O   0  0  0  0  0  0  0  0  0  0  0  0
   -1.2059   -0.4674    0.1284 N   0  0  0  0  0  0  0  0  0  0  0  0
   -2.0434    0.0760    0.3123 H   0  0  0  0  0  0  0  0  0  0  0  0
    0.0791    0.2461    0.2380 C   0  0  1  0  0  0  0  0  0  0  0  0
    0.7293   -0.0814   -0.5806 H   0  0  0  0  0  0  0  0  0  0  0  0
   -0.1953    1.7586    0.1183 C   0  0  0  0  0  0  0  0  0  0  0  0
   -0.9574    2.0464    0.8484 H   0  0  0  0  0  0  0  0  0  0  0  0
    0.7139    2.3148    0.3627 H   0  0  0  0  0  0  0  0  0  0  0  0
   -0.6424    2.2028   -1.2712 C   0  0  0  0  0  0  0  0  0  0  0  0
   -0.2706    1.5834   -2.2539 O   0  0  0  0  0  0  0  0  0  0  0  0
   -1.4468    3.2884   -1.3354 O   0  0  0  0  0  0  0  0  0  0  0  0
   -1.6262    3.4334   -2.2773 H   0  0  0  0  0  0  0  0  0  0  0  0
    0.8402   -0.0333    1.5573 C   0  0  0  0  0  0  0  0  0  0  0  0
    0.2239   -0.0872    2.6162 O   0  0  0  0  0  0  0  0  0  0  0  0
    2.2225    0.0080    1.5851 N   0  0  0  0  0  0  0  0  0  0  0  0
    2.7018   -0.0355    0.6906 H   0  0  0  0  0  0  0  0  0  0  0  0
    2.9924   -0.2416    2.7979 C   0  0  0  0  0  0  0  0  0  0  0  0
    2.7799   -1.2436    3.1858 H   0  0  0  0  0  0  0  0  0  0  0  0
    4.0638   -0.1709    2.5874 H   0  0  0  0  0  0  0  0  0  0  0  0
    2.7436    0.4951    3.5691 H   0  0  0  0  0  0  0  0  0  0  0  0
  1  2  1  0  0  0  0
  2  3  1  0  0  0  0
  2  4  1  0  0  0  0
  2  5  1  0  0  0  0
  5  6  2  0  0  0  0
  5  7  1  0  0  0  0
  7  8  1  0  0  0  0
  7  9  1  0  0  0  0
  9 10  1  0  0  0  0
  9 11  1  0  0  0  0
  9 18  1  0  0  0  0
 11 12  1  0  0  0  0
 11 13  1  0  0  0  0
 11 14  1  0  0  0  0
 14 15  2  0  0  0  0
 14 16  1  0  0  0  0
 16 17  1  0  0  0  0
 18 19  2  0  0  0  0
 18 20  1  0  0  0  0
 20 21  1  0  0  0  0
 20 22  1  0  0  0  0
 22 23  1  0  0  0  0
 22 24  1  0  0  0  0
 22 25  1  0  0  0  0
M  END
$$$$

  -OEChem-01062216063D

 25 24  0     1  0  0  0  0  0999 V2000
   -2.5807   -3.4460    1.0630 H   0  0  0  0  0  0  0  0  0  0  0  0
   -2.6739   -2.3801    0.8376 C   0  0  0  0  0  0  0  0  0  0  0  0
   -3.0432   -1.8645    1.7275 H   0  0  0  0  0  0  0  0  0  0  0  0
   -3.3907   -2.2518    0.0233 H   0  0  0  0  0  0  0  0  0  0  0  0
   -1.3258   -1.8123    0.4373 C   0  0  0  0  0  0  0  0  0  0  0  0
   -0.3581   -2.5505    0.3257 O   0  0  0  0  0  0  0  0  0  0  0  0
   -1.2087   -0.4718    0.1190 N   0  0  0  0  0  0  0  0  0  0  0  0
   -2.0406    0.0739    0.3198 H   0  0  0  0  0  0  0  0  0  0  0  0
    0.0815    0.2306    0.2446 C   0  0  1  0  0  0  0  0  0  0  0  0
    0.7346   -0.0948   -0.5727 H   0  0  0  0  0  0  0  0  0  0  0  0
   -0.1971    1.7437    0.1305 C   0  0  0  0  0  0  0  0  0  0  0  0
   -0.9663    2.0248    0.8557 H   0  0  0  0  0  0  0  0  0  0  0  0
    0.7066    2.3045    0.3833 H   0  0  0  0  0  0  0  0  0  0  0  0
   -0.6345    2.1931   -1.2605 C   0  0  0  0  0  0  0  0  0  0  0  0
   -0.2529    1.5805   -2.2434 O   0  0  0  0  0  0  0  0  0  0  0  0
   -1.4422    3.2760   -1.3252 O   0  0  0  0  0  0  0  0  0  0  0  0
   -1.6164    3.4237   -2.2678 H   0  0  0  0  0  0  0  0  0  0  0  0
    0.8464   -0.0544    1.5631 C   0  0  0  0  0  0  0  0  0  0  0  0
    0.2294   -0.3099    2.5919 O   0  0  0  0  0  0  0  0  0  0  0  0
    2.1850    0.2818    1.6660 N   0  0  0  0  0  0  0  0  0  0  0  0
    2.6872    0.4553    0.8004 H   0  0  0  0  0  0  0  0  0  0  0  0
    2.9512    0.1125    2.8954 C   0  0  0  0  0  0  0  0  0  0  0  0
    2.9364   -0.9353    3.2139 H   0  0  0  0  0  0  0  0  0  0  0  0
    3.9917    0.4121    2.7377 H   0  0  0  0  0  0  0  0  0  0  0  0
    2.5323    0.7301    3.6969 H   0  0  0  0  0  0  0  0  0  0  0  0
  1  2  1  0  0  0  0
  2  3  1  0  0  0  0
  2  4  1  0  0  0  0
  2  5  1  0  0  0  0
  5  6  2  0  0  0  0
  5  7  1  0  0  0  0
  7  8  1  0  0  0  0
  7  9  1  0  0  0  0
  9 10  1  0  0  0  0
  9 11  1  0  0  0  0
  9 18  1  0  0  0  0
 11 12  1  0  0  0  0
 11 13  1  0  0  0  0
 11 14  1  0  0  0  0
 14 15  2  0  0  0  0
 14 16  1  0  0  0  0
 16 17  1  0  0  0  0
 18 19  2  0  0  0  0
 18 20  1  0  0  0  0
 20 21  1  0  0  0  0
 20 22  1  0  0  0  0
 22 23  1  0  0  0  0
 22 24  1  0  0  0  0
 22 25  1  0  0  0  0
M  END
$$$$

  -OEChem-01062216063D

 25 24  0     1  0  0  0  0  0999 V2000
   -2.7015   -3.4222    0.9429 H   0  0  0  0  0  0  0  0  0  0  0  0
   -2.7269   -2.3352    0.8271 C   0  0  0  0  0  0  0  0  0  0  0  0
   -2.9727   -1.8860    1.7922 H   0  0  0  0  0  0  0  0  0  0  0  0
   -3.4998   -2.0750    0.1004 H   0  0  0  0  0  0  0  0  0  0  0  0
   -1.3766   -1.8309    0.3556 C   0  0  0  0  0  0  0  0  0  0  0  0
   -0.4965   -2.6254    0.0615 O   0  0  0  0  0  0  0  0  0  0  0  0
   -1.1950   -0.4861    0.0879 N   0  0  0  0  0  0  0  0  0  0  0  0
   -2.0091    0.0778    0.3082 H   0  0  0  0  0  0  0  0  0  0  0  0
    0.1101    0.1900    0.2507 C   0  0  1  0  0  0  0  0  0  0  0  0
    0.6603    0.0947   -0.6918 H   0  0  0  0  0  0  0  0  0  0  0  0
   -0.2107    1.6766    0.5346 C   0  0  0  0  0  0  0  0  0  0  0  0
   -0.9045    1.7410    1.3780 H   0  0  0  0  0  0  0  0  0  0  0  0
    0.6975    2.2095    0.8257 H   0  0  0  0  0  0  0  0  0  0  0  0
   -0.7990    2.4271   -0.6570 C   0  0  0  0  0  0  0  0  0  0  0  0
   -0.5090    2.0859   -1.7909 O   0  0  0  0  0  0  0  0  0  0  0  0
   -1.6372    3.4513   -0.3787 O   0  0  0  0  0  0  0  0  0  0  0  0
   -1.9124    3.8135   -1.2356 H   0  0  0  0  0  0  0  0  0  0  0  0
    1.0652   -0.3563    1.3529 C   0  0  0  0  0  0  0  0  0  0  0  0
    0.6237   -0.9796    2.3118 O   0  0  0  0  0  0  0  0  0  0  0  0
    2.3009    0.2453    1.5311 N   0  0  0  0  0  0  0  0  0  0  0  0
    2.6726    0.7796    0.7518 H   0  0  0  0  0  0  0  0  0  0  0  0
    3.1876   -0.0642    2.6480 C   0  0  0  0  0  0  0  0  0  0  0  0
    3.4171   -1.1349    2.6694 H   0  0  0  0  0  0  0  0  0  0  0  0
    4.1267    0.4888    2.5510 H   0  0  0  0  0  0  0  0  0  0  0  0
    2.7201    0.2148    3.5983 H   0  0  0  0  0  0  0  0  0  0  0  0
  1  2  1  0  0  0  0
  2  3  1  0  0  0  0
  2  4  1  0  0  0  0
  2  5  1  0  0  0  0
  5  6  2  0  0  0  0
  5  7  1  0  0  0  0
  7  8  1  0  0  0  0
  7  9  1  0  0  0  0
  9 10  1  0  0  0  0
  9 11  1  0  0  0  0
  9 18  1  0  0  0  0
 11 12  1  0  0  0  0
 11 13  1  0  0  0  0
 11 14  1  0  0  0  0
 14 15  2  0  0  0  0
 14 16  1  0  0  0  0
 16 17  1  0  0  0  0
 18 19  2  0  0  0  0
 18 20  1  0  0  0  0
 20 21  1  0  0  0  0
 20 22  1  0  0  0  0
 22 23  1  0  0  0  0
 22 24  1  0  0  0  0
 22 25  1  0  0  0  0
M  END
$$$$

  -OEChem-01062216063D

 25 24  0     1  0  0  0  0  0999 V2000
   -2.6996   -3.4127    0.9350 H   0  0  0  0  0  0  0  0  0  0  0  0
   -2.7129   -2.3225    0.8493 C   0  0  0  0  0  0  0  0  0  0  0  0
   -2.9092   -1.8960    1.8358 H   0  0  0  0  0  0  0  0  0  0  0  0
   -3.5122   -2.0310    0.1643 H   0  0  0  0  0  0  0  0  0  0  0  0
   -1.3762   -1.8261    0.3323 C   0  0  0  0  0  0  0  0  0  0  0  0
   -0.5354   -2.6246   -0.0507 O   0  0  0  0  0  0  0  0  0  0  0  0
   -1.1849   -0.4783    0.0891 N   0  0  0  0  0  0  0  0  0  0  0  0
   -1.9945    0.0809    0.3354 H   0  0  0  0  0  0  0  0  0  0  0  0
    0.1198    0.1987    0.2649 C   0  0  1  0  0  0  0  0  0  0  0  0
    0.6729    0.1079   -0.6764 H   0  0  0  0  0  0  0  0  0  0  0  0
   -0.2325    1.6850    0.5305 C   0  0  0  0  0  0  0  0  0  0  0  0
   -0.9395    1.7458    1.3630 H   0  0  0  0  0  0  0  0  0  0  0  0
    0.6568    2.2450    0.8251 H   0  0  0  0  0  0  0  0  0  0  0  0
   -0.8132    2.4155   -0.6781 C   0  0  0  0  0  0  0  0  0  0  0  0
   -0.4988    2.0714   -1.8043 O   0  0  0  0  0  0  0  0  0  0  0  0
   -1.6715    3.4283   -0.4210 O   0  0  0  0  0  0  0  0  0  0  0  0
   -1.9398    3.7783   -1.2851 H   0  0  0  0  0  0  0  0  0  0  0  0
    1.0952   -0.3446    1.3595 C   0  0  0  0  0  0  0  0  0  0  0  0
    0.7479   -1.1967    2.1672 O   0  0  0  0  0  0  0  0  0  0  0  0
    2.1727    0.4338    1.7559 N   0  0  0  0  0  0  0  0  0  0  0  0
    2.4793    1.1591    1.1154 H   0  0  0  0  0  0  0  0  0  0  0  0
    3.0252    0.1105    2.8963 C   0  0  0  0  0  0  0  0  0  0  0  0
    3.4626   -0.8866    2.7774 H   0  0  0  0  0  0  0  0  0  0  0  0
    3.8385    0.8378    2.9796 H   0  0  0  0  0  0  0  0  0  0  0  0
    2.4469    0.1325    3.8261 H   0  0  0  0  0  0  0  0  0  0  0  0
  1  2  1  0  0  0  0
  2  3  1  0  0  0  0
  2  4  1  0  0  0  0
  2  5  1  0  0  0  0
  5  6  2  0  0  0  0
  5  7  1  0  0  0  0
  7  8  1  0  0  0  0
  7  9  1  0  0  0  0
  9 10  1  0  0  0  0
  9 11  1  0  0  0  0
  9 18  1  0  0  0  0
 11 12  1  0  0  0  0
 11 13  1  0  0  0  0
 11 14  1  0  0  0  0
 14 15  2  0  0  0  0
 14 16  1  0  0  0  0
 16 17  1  0  0  0  0
 18 19  2  0  0  0  0
 18 20  1  0  0  0  0
 20 21  1  0  0  0  0
 20 22  1  0  0  0  0
 22 23  1  0  0  0  0
 22 24  1  0  0  0  0
 22 25  1  0  0  0  0
M  END
$$$$

  -OEChem-01062216063D

 25 24  0     1  0  0  0  0  0999 V2000
   -2.6765   -3.4045    0.9636 H   0  0  0  0  0  0  0  0  0  0  0  0
   -2.6867   -2.3136    0.8873 C   0  0  0  0  0  0  0  0  0  0  0  0
   -2.8373   -1.8950    1.8851 H   0  0  0  0  0  0  0  0  0  0  0  0
   -3.5133   -2.0119    0.2402 H   0  0  0  0  0  0  0  0  0  0  0  0
   -1.3709   -1.8216    0.3150 C   0  0  0  0  0  0  0  0  0  0  0  0
   -0.5815   -2.6206   -0.1617 O   0  0  0  0  0  0  0  0  0  0  0  0
   -1.1767   -0.4708    0.0935 N   0  0  0  0  0  0  0  0  0  0  0  0
   -1.9896    0.0779    0.3514 H   0  0  0  0  0  0  0  0  0  0  0  0
    0.1182    0.2232    0.2868 C   0  0  1  0  0  0  0  0  0  0  0  0
    0.6825    0.1313   -0.6481 H   0  0  0  0  0  0  0  0  0  0  0  0
   -0.2625    1.7103    0.5162 C   0  0  0  0  0  0  0  0  0  0  0  0
   -0.9858    1.7796    1.3339 H   0  0  0  0  0  0  0  0  0  0  0  0
    0.6120    2.2936    0.8072 H   0  0  0  0  0  0  0  0  0  0  0  0
   -0.8257    2.4090   -0.7201 C   0  0  0  0  0  0  0  0  0  0  0  0
   -0.4819    2.0510   -1.8328 O   0  0  0  0  0  0  0  0  0  0  0  0
   -1.6993    3.4170   -0.4990 O   0  0  0  0  0  0  0  0  0  0  0  0
   -1.9513    3.7489   -1.3753 H   0  0  0  0  0  0  0  0  0  0  0  0
    1.1053   -0.3087    1.3832 C   0  0  0  0  0  0  0  0  0  0  0  0
    0.9697   -1.3911    1.9336 O   0  0  0  0  0  0  0  0  0  0  0  0
    1.9705    0.5658    2.0252 N   0  0  0  0  0  0  0  0  0  0  0  0
    2.1165    1.4739    1.5981 H   0  0  0  0  0  0  0  0  0  0  0  0
    2.8157    0.1871    3.1543 C   0  0  0  0  0  0  0  0  0  0  0  0
    3.4810   -0.6373    2.8759 H   0  0  0  0  0  0  0  0  0  0  0  0
    3.4296    1.0362    3.4697 H   0  0  0  0  0  0  0  0  0  0  0  0
    2.2015   -0.1282    4.0045 H   0  0  0  0  0  0  0  0  0  0  0  0
  1  2  1  0  0  0  0
  2  3  1  0  0  0  0
  2  4  1  0  0  0  0
  2  5  1  0  0  0  0
  5  6  2  0  0  0  0
  5  7  1  0  0  0  0
  7  8  1  0  0  0  0
  7  9  1  0  0  0  0
  9 10  1  0  0  0  0
  9 11  1  0  0  0  0
  9 18  1  0  0  0  0
 11 12  1  0  0  0  0
 11 13  1  0  0  0  0
 11 14  1  0  0  0  0
 14 15  2  0  0  0  0
 14 16  1  0  0  0  0
 16 17  1  0  0  0  0
 18 19  2  0  0  0  0
 18 20  1  0  0  0  0
 20 21  1  0  0  0  0
 20 22  1  0  0  0  0
 22 23  1  0  0  0  0
 22 24  1  0  0  0  0
 22 25  1  0  0  0  0
M  END
$$$$

  -OEChem-01062216063D

 25 24  0     1  0  0  0  0  0999 V2000
   -2.8904   -3.4178    0.7278 H   0  0  0  0  0  0  0  0  0  0  0  0
   -2.7830   -2.4168    0.3004 C   0  0  0  0  0  0  0  0  0  0  0  0
   -3.7267   -1.8793    0.4189 H   0  0  0  0  0  0  0  0  0  0  0  0
   -2.5557   -2.5147   -0.7637 H   0  0  0  0  0  0  0  0  0  0  0  0
   -1.6653   -1.6679    1.0023 C   0  0  0  0  0  0  0  0  0  0  0  0
   -1.2159   -2.1231    2.0376 O   0  0  0  0  0  0  0  0  0  0  0  0
   -1.3613   -0.3824    0.5898 N   0  0  0  0  0  0  0  0  0  0  0  0
   -1.9545   -0.0900   -0.1815 H   0  0  0  0  0  0  0  0  0  0  0  0
   -0.0134    0.2322    0.5534 C   0  0  1  0  0  0  0  0  0  0  0  0
    0.4465    0.0023   -0.4145 H   0  0  0  0  0  0  0  0  0  0  0  0
   -0.2649    1.7587    0.6541 C   0  0  0  0  0  0  0  0  0  0  0  0
   -0.8794    1.9695    1.5347 H   0  0  0  0  0  0  0  0  0  0  0  0
    0.6807    2.2934    0.7670 H   0  0  0  0  0  0  0  0  0  0  0  0
   -0.9311    2.3577   -0.5813 C   0  0  0  0  0  0  0  0  0  0  0  0
   -0.7489    1.8480   -1.6741 O   0  0  0  0  0  0  0  0  0  0  0  0
   -1.6946    3.4572   -0.3898 O   0  0  0  0  0  0  0  0  0  0  0  0
   -2.0223    3.7175   -1.2649 H   0  0  0  0  0  0  0  0  0  0  0  0
    1.0406   -0.2528    1.5938 C   0  0  0  0  0  0  0  0  0  0  0  0
    1.5040   -1.3776    1.4610 O   0  0  0  0  0  0  0  0  0  0  0  0
    1.8336    0.6409    2.2986 N   0  0  0  0  0  0  0  0  0  0  0  0
    1.4665    1.5780    2.4231 H   0  0  0  0  0  0  0  0  0  0  0  0
    2.9647    0.2268    3.1231 C   0  0  0  0  0  0  0  0  0  0  0  0
    3.7286   -0.2627    2.5096 H   0  0  0  0  0  0  0  0  0  0  0  0
    3.4187    1.0967    3.6069 H   0  0  0  0  0  0  0  0  0  0  0  0
    2.6369   -0.4715    3.9007 H   0  0  0  0  0  0  0  0  0  0  0  0
  1  2  1  0  0  0  0
  2  3  1  0  0  0  0
  2  4  1  0  0  0  0
  2  5  1  0  0  0  0
  5  6  2  0  0  0  0
  5  7  1  0  0  0  0
  7  8  1  0  0  0  0
  7  9  1  0  0  0  0
  9 10  1  0  0  0  0
  9 11  1  0  0  0  0
  9 18  1  0  0  0  0
 11 12  1  0  0  0  0
 11 13  1  0  0  0  0
 11 14  1  0  0  0  0
 14 15  2  0  0  0  0
 14 16  1  0  0  0  0
 16 17  1  0  0  0  0
 18 19  2  0  0  0  0
 18 20  1  0  0  0  0
 20 21  1  0  0  0  0
 20 22  1  0  0  0  0
 22 23  1  0  0  0  0
 22 24  1  0  0  0  0
 22 25  1  0  0  0  0
M  END
$$$$

  -OEChem-01062216063D

 25 24  0     1  0  0  0  0  0999 V2000
   -2.9547   -3.4044    0.7166 H   0  0  0  0  0  0  0  0  0  0  0  0
   -2.8682   -2.3792    0.3454 C   0  0  0  0  0  0  0  0  0  0  0  0
   -3.7589   -1.8208    0.6422 H   0  0  0  0  0  0  0  0  0  0  0  0
   -2.8077   -2.4068   -0.7451 H   0  0  0  0  0  0  0  0  0  0  0  0
   -1.6269   -1.7199    0.9178 C   0  0  0  0  0  0  0  0  0  0  0  0
   -1.0188   -2.2923    1.8020 O   0  0  0  0  0  0  0  0  0  0  0  0
   -1.3244   -0.4261    0.5281 N   0  0  0  0  0  0  0  0  0  0  0  0
   -1.9615   -0.0772   -0.1822 H   0  0  0  0  0  0  0  0  0  0  0  0
    0.0108    0.2157    0.5173 C   0  0  1  0  0  0  0  0  0  0  0  0
    0.4868   -0.0001   -0.4463 H   0  0  0  0  0  0  0  0  0  0  0  0
   -0.2506    1.7385    0.6284 C   0  0  0  0  0  0  0  0  0  0  0  0
   -0.8793    1.9389    1.5010 H   0  0  0  0  0  0  0  0  0  0  0  0
    0.6951    2.2700    0.7641 H   0  0  0  0  0  0  0  0  0  0  0  0
   -0.9028    2.3486   -0.6090 C   0  0  0  0  0  0  0  0  0  0  0  0
   -0.7045    1.8538   -1.7055 O   0  0  0  0  0  0  0  0  0  0  0  0
   -1.6792    3.4383   -0.4127 O   0  0  0  0  0  0  0  0  0  0  0  0
   -1.9919    3.7108   -1.2897 H   0  0  0  0  0  0  0  0  0  0  0  0
    1.0529   -0.2638    1.5697 C   0  0  0  0  0  0  0  0  0  0  0  0
    1.6974   -1.2748    1.3238 O   0  0  0  0  0  0  0  0  0  0  0  0
    1.5955    0.6006    2.5087 N   0  0  0  0  0  0  0  0  0  0  0  0
    1.0551    1.4293    2.7323 H   0  0  0  0  0  0  0  0  0  0  0  0
    2.6820    0.2184    3.4045 C   0  0  0  0  0  0  0  0  0  0  0  0
    3.5846   -0.0216    2.8324 H   0  0  0  0  0  0  0  0  0  0  0  0
    2.9161    1.0401    4.0880 H   0  0  0  0  0  0  0  0  0  0  0  0
    2.3983   -0.6574    3.9982 H   0  0  0  0  0  0  0  0  0  0  0  0
  1  2  1  0  0  0  0
  2  3  1  0  0  0  0
  2  4  1  0  0  0  0
  2  5  1  0  0  0  0
  5  6  2  0  0  0  0
  5  7  1  0  0  0  0
  7  8  1  0  0  0  0
  7  9  1  0  0  0  0
  9 10  1  0  0  0  0
  9 11  1  0  0  0  0
  9 18  1  0  0  0  0
 11 12  1  0  0  0  0
 11 13  1  0  0  0  0
 11 14  1  0  0  0  0
 14 15  2  0  0  0  0
 14 16  1  0  0  0  0
 16 17  1  0  0  0  0
 18 19  2  0  0  0  0
 18 20  1  0  0  0  0
 20 21  1  0  0  0  0
 20 22  1  0  0  0  0
 22 23  1  0  0  0  0
 22 24  1  0  0  0  0
 22 25  1  0  0  0  0
M  END
$$$$

  -OEChem-01062216063D

 25 24  0     1  0  0  0  0  0999 V2000
   -2.9761   -3.3966    0.7547 H   0  0  0  0  0  0  0  0  0  0  0  0
   -2.8915   -2.3716    0.3823 C   0  0  0  0  0  0  0  0  0  0  0  0
   -3.7438   -1.7933    0.7465 H   0  0  0  0  0  0  0  0  0  0  0  0
   -2.9119   -2.3935   -0.7100 H   0  0  0  0  0  0  0  0  0  0  0  0
   -1.5956   -1.7461    0.8641 C   0  0  0  0  0  0  0  0  0  0  0  0
   -0.9024   -2.3678    1.6467 O   0  0  0  0  0  0  0  0  0  0  0  0
   -1.3051   -0.4473    0.4819 N   0  0  0  0  0  0  0  0  0  0  0  0
   -1.9713   -0.0702   -0.1860 H   0  0  0  0  0  0  0  0  0  0  0  0
    0.0222    0.2083    0.4803 C   0  0  1  0  0  0  0  0  0  0  0  0
    0.5034    0.0043   -0.4836 H   0  0  0  0  0  0  0  0  0  0  0  0
   -0.2372    1.7284    0.6099 C   0  0  0  0  0  0  0  0  0  0  0  0
   -0.8702    1.9184    1.4814 H   0  0  0  0  0  0  0  0  0  0  0  0
    0.7117    2.2505    0.7633 H   0  0  0  0  0  0  0  0  0  0  0  0
   -0.8878    2.3570   -0.6186 C   0  0  0  0  0  0  0  0  0  0  0  0
   -0.6904    1.8777   -1.7221 O   0  0  0  0  0  0  0  0  0  0  0  0
   -1.6669    3.4419   -0.4059 O   0  0  0  0  0  0  0  0  0  0  0  0
   -1.9757    3.7296   -1.2793 H   0  0  0  0  0  0  0  0  0  0  0  0
    1.0567   -0.2689    1.5377 C   0  0  0  0  0  0  0  0  0  0  0  0
    1.8567   -1.1386    1.2188 O   0  0  0  0  0  0  0  0  0  0  0  0
    1.3523    0.4909    2.6589 N   0  0  0  0  0  0  0  0  0  0  0  0
    0.6535    1.1683    2.9448 H   0  0  0  0  0  0  0  0  0  0  0  0
    2.3822    0.1102    3.6189 C   0  0  0  0  0  0  0  0  0  0  0  0
    3.3655    0.0853    3.1376 H   0  0  0  0  0  0  0  0  0  0  0  0
    2.4193    0.8322    4.4401 H   0  0  0  0  0  0  0  0  0  0  0  0
    2.1690   -0.8799    4.0358 H   0  0  0  0  0  0  0  0  0  0  0  0
  1  2  1  0  0  0  0
  2  3  1  0  0  0  0
  2  4  1  0  0  0  0
  2  5  1  0  0  0  0
  5  6  2  0  0  0  0
  5  7  1  0  0  0  0
  7  8  1  0  0  0  0
  7  9  1  0  0  0  0
  9 10  1  0  0  0  0
  9 11  1  0  0  0  0
  9 18  1  0  0  0  0
 11 12  1  0  0  0  0
 11 13  1  0  0  0  0
 11 14  1  0  0  0  0
 14 15  2  0  0  0  0
 14 16  1  0  0  0  0
 16 17  1  0  0  0  0
 18 19  2  0  0  0  0
 18 20  1  0  0  0  0
 20 21  1  0  0  0  0
 20 22  1  0  0  0  0
 22 23  1  0  0  0  0
 22 24  1  0  0  0  0
 22 25  1  0  0  0  0
M  END
$$$$

  -OEChem-01062216063D

 25 24  0     1  0  0  0  0  0999 V2000
   -2.9778   -3.3963    0.7869 H   0  0  0  0  0  0  0  0  0  0  0  0
   -2.9002   -2.3721    0.4106 C   0  0  0  0  0  0  0  0  0  0  0  0
   -3.7254   -1.7838    0.8191 H   0  0  0  0  0  0  0  0  0  0  0  0
   -2.9784   -2.3926   -0.6791 H   0  0  0  0  0  0  0  0  0  0  0  0
   -1.5732   -1.7625    0.8237 C   0  0  0  0  0  0  0  0  0  0  0  0
   -0.8227   -2.4126    1.5269 O   0  0  0  0  0  0  0  0  0  0  0  0
   -1.2944   -0.4596    0.4470 N   0  0  0  0  0  0  0  0  0  0  0  0
   -1.9818   -0.0631   -0.1878 H   0  0  0  0  0  0  0  0  0  0  0  0
    0.0273    0.2059    0.4525 C   0  0  1  0  0  0  0  0  0  0  0  0
    0.5108    0.0101   -0.5122 H   0  0  0  0  0  0  0  0  0  0  0  0
   -0.2247    1.7242    0.5987 C   0  0  0  0  0  0  0  0  0  0  0  0
   -0.8575    1.9088    1.4711 H   0  0  0  0  0  0  0  0  0  0  0  0
    0.7280    2.2362    0.7638 H   0  0  0  0  0  0  0  0  0  0  0  0
   -0.8736    2.3693   -0.6220 C   0  0  0  0  0  0  0  0  0  0  0  0
   -0.6796    1.9012   -1.7309 O   0  0  0  0  0  0  0  0  0  0  0  0
   -1.6512    3.4527   -0.3964 O   0  0  0  0  0  0  0  0  0  0  0  0
   -1.9567    3.7524   -1.2669 H   0  0  0  0  0  0  0  0  0  0  0  0
    1.0567   -0.2690    1.5124 C   0  0  0  0  0  0  0  0  0  0  0  0
    2.0034   -0.9537    1.1476 O   0  0  0  0  0  0  0  0  0  0  0  0
    1.1169    0.3185    2.7656 N   0  0  0  0  0  0  0  0  0  0  0  0
    0.2771    0.7946    3.0775 H   0  0  0  0  0  0  0  0  0  0  0  0
    2.0983   -0.0793    3.7681 C   0  0  0  0  0  0  0  0  0  0  0  0
    3.1152    0.0989    3.4025 H   0  0  0  0  0  0  0  0  0  0  0  0
    1.9574    0.4982    4.6866 H   0  0  0  0  0  0  0  0  0  0  0  0
    1.9913   -1.1432    4.0055 H   0  0  0  0  0  0  0  0  0  0  0  0
  1  2  1  0  0  0  0
  2  3  1  0  0  0  0
  2  4  1  0  0  0  0
  2  5  1  0  0  0  0
  5  6  2  0  0  0  0
  5  7  1  0  0  0  0
  7  8  1  0  0  0  0
  7  9  1  0  0  0  0
  9 10  1  0  0  0  0
  9 11  1  0  0  0  0
  9 18  1  0  0  0  0
 11 12  1  0  0  0  0
 11 13  1  0  0  0  0
 11 14  1  0  0  0  0
 14 15  2  0  0  0  0
 14 16  1  0  0  0  0
 16 17  1  0  0  0  0
 18 19  2  0  0  0  0
 18 20  1  0  0  0  0
 20 21  1  0  0  0  0
 20 22  1  0  0  0  0
 22 23  1  0  0  0  0
 22 24  1  0  0  0  0
 22 25  1  0  0  0  0
M  END
$$$$

  -OEChem-01062216063D

 25 24  0     1  0  0  0  0  0999 V2000
   -2.9658   -3.4102    0.7507 H   0  0  0  0  0  0  0  0  0  0  0  0
   -2.9117   -2.3676    0.4243 C   0  0  0  0  0  0  0  0  0  0  0  0
   -3.7154   -1.8056    0.9061 H   0  0  0  0  0  0  0  0  0  0  0  0
   -3.0488   -2.3328   -0.6591 H   0  0  0  0  0  0  0  0  0  0  0  0
   -1.5664   -1.7721    0.7965 C   0  0  0  0  0  0  0  0  0  0  0  0
   -0.7884   -2.4383    1.4538 O   0  0  0  0  0  0  0  0  0  0  0  0
   -1.2879   -0.4697    0.4193 N   0  0  0  0  0  0  0  0  0  0  0  0
   -1.9875   -0.0565   -0.1912 H   0  0  0  0  0  0  0  0  0  0  0  0
    0.0329    0.1970    0.4303 C   0  0  1  0  0  0  0  0  0  0  0  0
    0.5192    0.0068   -0.5341 H   0  0  0  0  0  0  0  0  0  0  0  0
   -0.2118    1.7132    0.5934 C   0  0  0  0  0  0  0  0  0  0  0  0
   -0.8411    1.8910    1.4697 H   0  0  0  0  0  0  0  0  0  0  0  0
    0.7439    2.2170    0.7656 H   0  0  0  0  0  0  0  0  0  0  0  0
   -0.8599    2.3735   -0.6195 C   0  0  0  0  0  0  0  0  0  0  0  0
   -0.6694    1.9157   -1.7333 O   0  0  0  0  0  0  0  0  0  0  0  0
   -1.6351    3.4562   -0.3825 O   0  0  0  0  0  0  0  0  0  0  0  0
   -1.9378    3.7660   -1.2503 H   0  0  0  0  0  0  0  0  0  0  0  0
    1.0565   -0.2731    1.4948 C   0  0  0  0  0  0  0  0  0  0  0  0
    2.1288   -0.7320    1.1240 O   0  0  0  0  0  0  0  0  0  0  0  0
    0.9103    0.0924    2.8220 N   0  0  0  0  0  0  0  0  0  0  0  0
   -0.0313    0.3383    3.1093 H   0  0  0  0  0  0  0  0  0  0  0  0
    1.8569   -0.3221    3.8503 C   0  0  0  0  0  0  0  0  0  0  0  0
    2.8597    0.0560    3.6250 H   0  0  0  0  0  0  0  0  0  0  0  0
    1.5529    0.0707    4.8252 H   0  0  0  0  0  0  0  0  0  0  0  0
    1.8982   -1.4149    3.9123 H   0  0  0  0  0  0  0  0  0  0  0  0
  1  2  1  0  0  0  0
  2  3  1  0  0  0  0
  2  4  1  0  0  0  0
  2  5  1  0  0  0  0
  5  6  2  0  0  0  0
  5  7  1  0  0  0  0
  7  8  1  0  0  0  0
  7  9  1  0  0  0  0
  9 10  1  0  0  0  0
  9 11  1  0  0  0  0
  9 18  1  0  0  0  0
 11 12  1  0  0  0  0
 11 13  1  0  0  0  0
 11 14  1  0  0  0  0
 14 15  2  0  0  0  0
 14 16  1  0  0  0  0
 16 17  1  0  0  0  0
 18 19  2  0  0  0  0
 18 20  1  0  0  0  0
 20 21  1  0  0  0  0
 20 22  1  0  0  0  0
 22 23  1  0  0  0  0
 22 24  1  0  0  0  0
 22 25  1  0  0  0  0
M  END
$$$$

  -OEChem-01062216063D

 25 24  0     1  0  0  0  0  0999 V2000
   -3.0052   -3.3914    0.7795 H   0  0  0  0  0  0  0  0  0  0  0  0
   -2.9336   -2.3592    0.4248 C   0  0  0  0  0  0  0  0  0  0  0  0
   -3.7199   -1.7687    0.9011 H   0  0  0  0  0  0  0  0  0  0  0  0
   -3.0834   -2.3498   -0.6577 H   0  0  0  0  0  0  0  0  0  0  0  0
   -1.5720   -1.7824    0.7652 C   0  0  0  0  0  0  0  0  0  0  0  0
   -0.7815   -2.4649    1.3905 O   0  0  0  0  0  0  0  0  0  0  0  0
   -1.2844   -0.4813    0.3906 N   0  0  0  0  0  0  0  0  0  0  0  0
   -1.9896   -0.0511   -0.2018 H   0  0  0  0  0  0  0  0  0  0  0  0
    0.0374    0.1847    0.4122 C   0  0  1  0  0  0  0  0  0  0  0  0
    0.5290    0.0017   -0.5509 H   0  0  0  0  0  0  0  0  0  0  0  0
   -0.2032    1.6985    0.5951 C   0  0  0  0  0  0  0  0  0  0  0  0
   -0.8293    1.8656    1.4758 H   0  0  0  0  0  0  0  0  0  0  0  0
    0.7544    2.1969    0.7743 H   0  0  0  0  0  0  0  0  0  0  0  0
   -0.8482    2.3783   -0.6082 C   0  0  0  0  0  0  0  0  0  0  0  0
   -0.6581    1.9357   -1.7283 O   0  0  0  0  0  0  0  0  0  0  0  0
   -1.6244    3.4572   -0.3559 O   0  0  0  0  0  0  0  0  0  0  0  0
   -1.9255    3.7817   -1.2189 H   0  0  0  0  0  0  0  0  0  0  0  0
    1.0562   -0.2786    1.4822 C   0  0  0  0  0  0  0  0  0  0  0  0
    2.2163   -0.4800    1.1476 O   0  0  0  0  0  0  0  0  0  0  0  0
    0.7503   -0.1790    2.8280 N   0  0  0  0  0  0  0  0  0  0  0  0
   -0.2414   -0.1984    3.0446 H   0  0  0  0  0  0  0  0  0  0  0  0
    1.6826   -0.6022    3.8653 C   0  0  0  0  0  0  0  0  0  0  0  0
    2.6165   -0.0342    3.7979 H   0  0  0  0  0  0  0  0  0  0  0  0
    1.2490   -0.4330    4.8554 H   0  0  0  0  0  0  0  0  0  0  0  0
    1.9104   -1.6685    3.7618 H   0  0  0  0  0  0  0  0  0  0  0  0
  1  2  1  0  0  0  0
  2  3  1  0  0  0  0
  2  4  1  0  0  0  0
  2  5  1  0  0  0  0
  5  6  2  0  0  0  0
  5  7  1  0  0  0  0
  7  8  1  0  0  0  0
  7  9  1  0  0  0  0
  9 10  1  0  0  0  0
  9 11  1  0  0  0  0
  9 18  1  0  0  0  0
 11 12  1  0  0  0  0
 11 13  1  0  0  0  0
 11 14  1  0  0  0  0
 14 15  2  0  0  0  0
 14 16  1  0  0  0  0
 16 17  1  0  0  0  0
 18 19  2  0  0  0  0
 18 20  1  0  0  0  0
 20 21  1  0  0  0  0
 20 22  1  0  0  0  0
 22 23  1  0  0  0  0
 22 24  1  0  0  0  0
 22 25  1  0  0  0  0
M  END
$$$$

  -OEChem-01062216063D

 25 24  0     1  0  0  0  0  0999 V2000
   -3.0761   -3.3699    0.7259 H   0  0  0  0  0  0  0  0  0  0  0  0
   -2.9850   -2.3331    0.3896 C   0  0  0  0  0  0  0  0  0  0  0  0
   -3.7550   -1.7344    0.8821 H   0  0  0  0  0  0  0  0  0  0  0  0
   -3.1421   -2.3008   -0.6914 H   0  0  0  0  0  0  0  0  0  0  0  0
   -1.6089   -1.7916    0.7299 C   0  0  0  0  0  0  0  0  0  0  0  0
   -0.8279   -2.5004    1.3377 O   0  0  0  0  0  0  0  0  0  0  0  0
   -1.2918   -0.4946    0.3684 N   0  0  0  0  0  0  0  0  0  0  0  0
   -1.9951   -0.0359   -0.2046 H   0  0  0  0  0  0  0  0  0  0  0  0
    0.0355    0.1622    0.4119 C   0  0  1  0  0  0  0  0  0  0  0  0
    0.5356   -0.0146   -0.5478 H   0  0  0  0  0  0  0  0  0  0  0  0
   -0.2082    1.6739    0.6065 C   0  0  0  0  0  0  0  0  0  0  0  0
   -0.8432    1.8313    1.4830 H   0  0  0  0  0  0  0  0  0  0  0  0
    0.7464    2.1730    0.8005 H   0  0  0  0  0  0  0  0  0  0  0  0
   -0.8384    2.3651   -0.5978 C   0  0  0  0  0  0  0  0  0  0  0  0
   -0.6346    1.9339   -1.7203 O   0  0  0  0  0  0  0  0  0  0  0  0
   -1.6186    3.4406   -0.3435 O   0  0  0  0  0  0  0  0  0  0  0  0
   -1.9072    3.7757   -1.2065 H   0  0  0  0  0  0  0  0  0  0  0  0
    1.0564   -0.2911    1.4856 C   0  0  0  0  0  0  0  0  0  0  0  0
    2.2502   -0.2191    1.2235 O   0  0  0  0  0  0  0  0  0  0  0  0
    0.6673   -0.4844    2.7986 N   0  0  0  0  0  0  0  0  0  0  0  0
   -0.2954   -0.7950    2.9006 H   0  0  0  0  0  0  0  0  0  0  0  0
    1.6140   -0.8853    3.8320 C   0  0  0  0  0  0  0  0  0  0  0  0
    2.4091   -0.1394    3.9353 H   0  0  0  0  0  0  0  0  0  0  0  0
    1.1037   -0.9785    4.7953 H   0  0  0  0  0  0  0  0  0  0  0  0
    2.0665   -1.8507    3.5821 H   0  0  0  0  0  0  0  0  0  0  0  0
  1  2  1  0  0  0  0
  2  3  1  0  0  0  0
  2  4  1  0  0  0  0
  2  5  1  0  0  0  0
  5  6  2  0  0  0  0
  5  7  1  0  0  0  0
  7  8  1  0  0  0  0
  7  9  1  0  0  0  0
  9 10  1  0  0  0  0
  9 11  1  0  0  0  0
  9 18  1  0  0  0  0
 11 12  1  0  0  0  0
 11 13  1  0  0  0  0
 11 14  1  0  0  0  0
 14 15  2  0  0  0  0
 14 16  1  0  0  0  0
 16 17  1  0  0  0  0
 18 19  2  0  0  0  0
 18 20  1  0  0  0  0
 20 21  1  0  0  0  0
 20 22  1  0  0  0  0
 22 23  1  0  0  0  0
 22 24  1  0  0  0  0
 22 25  1  0  0  0  0
M  END
$$$$

  -OEChem-01062216063D

 25 24  0     1  0  0  0  0  0999 V2000
   -3.1483   -3.3455    0.6322 H   0  0  0  0  0  0  0  0  0  0  0  0
   -3.0447   -2.2907    0.3615 C   0  0  0  0  0  0  0  0  0  0  0  0
   -3.7760   -1.7089    0.9277 H   0  0  0  0  0  0  0  0  0  0  0  0
   -3.2497   -2.1823   -0.7064 H   0  0  0  0  0  0  0  0  0  0  0  0
   -1.6411   -1.8056    0.6730 C   0  0  0  0  0  0  0  0  0  0  0  0
   -0.8620   -2.5655    1.2185 O   0  0  0  0  0  0  0  0  0  0  0  0
   -1.2903   -0.5106    0.3372 N   0  0  0  0  0  0  0  0  0  0  0  0
   -2.0011   -0.0071   -0.1865 H   0  0  0  0  0  0  0  0  0  0  0  0
    0.0382    0.1443    0.4178 C   0  0  1  0  0  0  0  0  0  0  0  0
    0.5559   -0.0215   -0.5343 H   0  0  0  0  0  0  0  0  0  0  0  0
   -0.2268    1.6535    0.6165 C   0  0  0  0  0  0  0  0  0  0  0  0
   -0.8836    1.7971    1.4791 H   0  0  0  0  0  0  0  0  0  0  0  0
    0.7157    2.1645    0.8369 H   0  0  0  0  0  0  0  0  0  0  0  0
   -0.8328    2.3484   -0.5983 C   0  0  0  0  0  0  0  0  0  0  0  0
   -0.5956    1.9288   -1.7186 O   0  0  0  0  0  0  0  0  0  0  0  0
   -1.6330    3.4117   -0.3559 O   0  0  0  0  0  0  0  0  0  0  0  0
   -1.8996    3.7524   -1.2238 H   0  0  0  0  0  0  0  0  0  0  0  0
    1.0590   -0.2952    1.5020 C   0  0  0  0  0  0  0  0  0  0  0  0
    2.2349    0.0081    1.3432 O   0  0  0  0  0  0  0  0  0  0  0  0
    0.6622   -0.7893    2.7306 N   0  0  0  0  0  0  0  0  0  0  0  0
   -0.2161   -1.3050    2.6925 H   0  0  0  0  0  0  0  0  0  0  0  0
    1.6241   -1.1912    3.7495 C   0  0  0  0  0  0  0  0  0  0  0  0
    2.2554   -0.3441    4.0377 H   0  0  0  0  0  0  0  0  0  0  0  0
    1.1006   -1.5485    4.6414 H   0  0  0  0  0  0  0  0  0  0  0  0
    2.2641   -1.9969    3.3749 H   0  0  0  0  0  0  0  0  0  0  0  0
  1  2  1  0  0  0  0
  2  3  1  0  0  0  0
  2  4  1  0  0  0  0
  2  5  1  0  0  0  0
  5  6  2  0  0  0  0
  5  7  1  0  0  0  0
  7  8  1  0  0  0  0
  7  9  1  0  0  0  0
  9 10  1  0  0  0  0
  9 11  1  0  0  0  0
  9 18  1  0  0  0  0
 11 12  1  0  0  0  0
 11 13  1  0  0  0  0
 11 14  1  0  0  0  0
 14 15  2  0  0  0  0
 14 16  1  0  0  0  0
 16 17  1  0  0  0  0
 18 19  2  0  0  0  0
 18 20  1  0  0  0  0
 20 21  1  0  0  0  0
 20 22  1  0  0  0  0
 22 23  1  0  0  0  0
 22 24  1  0  0  0  0
 22 25  1  0  0  0  0
M  END
$$$$

  -OEChem-01062216063D

 25 24  0     1  0  0  0  0  0999 V2000
   -3.2294   -3.2960    0.5891 H   0  0  0  0  0  0  0  0  0  0  0  0
   -3.0957   -2.2372    0.3496 C   0  0  0  0  0  0  0  0  0  0  0  0
   -3.7695   -1.6476    0.9759 H   0  0  0  0  0  0  0  0  0  0  0  0
   -3.3539   -2.0806   -0.7007 H   0  0  0  0  0  0  0  0  0  0  0  0
   -1.6579   -1.8205    0.5982 C   0  0  0  0  0  0  0  0  0  0  0  0
   -0.8700   -2.6452    1.0244 O   0  0  0  0  0  0  0  0  0  0  0  0
   -1.2801   -0.5239    0.3015 N   0  0  0  0  0  0  0  0  0  0  0  0
   -2.0101    0.0337   -0.1333 H   0  0  0  0  0  0  0  0  0  0  0  0
    0.0452    0.1332    0.4271 C   0  0  1  0  0  0  0  0  0  0  0  0
    0.5836   -0.0177   -0.5157 H   0  0  0  0  0  0  0  0  0  0  0  0
   -0.2533    1.6386    0.6261 C   0  0  0  0  0  0  0  0  0  0  0  0
   -0.9392    1.7655    1.4684 H   0  0  0  0  0  0  0  0  0  0  0  0
    0.6692    2.1701    0.8786 H   0  0  0  0  0  0  0  0  0  0  0  0
   -0.8312    2.3310   -0.6041 C   0  0  0  0  0  0  0  0  0  0  0  0
   -0.5504    1.9239   -1.7186 O   0  0  0  0  0  0  0  0  0  0  0  0
   -1.6634    3.3738   -0.3812 O   0  0  0  0  0  0  0  0  0  0  0  0
   -1.9101    3.7138   -1.2553 H   0  0  0  0  0  0  0  0  0  0  0  0
    1.0619   -0.3019    1.5228 C   0  0  0  0  0  0  0  0  0  0  0  0
    2.1856    0.1849    1.4881 O   0  0  0  0  0  0  0  0  0  0  0  0
    0.7266   -1.0795    2.6149 N   0  0  0  0  0  0  0  0  0  0  0  0
   -0.0719   -1.6945    2.4555 H   0  0  0  0  0  0  0  0  0  0  0  0
    1.7070   -1.4989    3.6093 C   0  0  0  0  0  0  0  0  0  0  0  0
    2.1647   -0.6274    4.0891 H   0  0  0  0  0  0  0  0  0  0  0  0
    1.2233   -2.1024    4.3831 H   0  0  0  0  0  0  0  0  0  0  0  0
    2.4948   -2.0990    3.1419 H   0  0  0  0  0  0  0  0  0  0  0  0
  1  2  1  0  0  0  0
  2  3  1  0  0  0  0
  2  4  1  0  0  0  0
  2  5  1  0  0  0  0
  5  6  2  0  0  0  0
  5  7  1  0  0  0  0
  7  8  1  0  0  0  0
  7  9  1  0  0  0  0
  9 10  1  0  0  0  0
  9 11  1  0  0  0  0
  9 18  1  0  0  0  0
 11 12  1  0  0  0  0
 11 13  1  0  0  0  0
 11 14  1  0  0  0  0
 14 15  2  0  0  0  0
 14 16  1  0  0  0  0
 16 17  1  0  0  0  0
 18 19  2  0  0  0  0
 18 20  1  0  0  0  0
 20 21  1  0  0  0  0
 20 22  1  0  0  0  0
 22 23  1  0  0  0  0
 22 24  1  0  0  0  0
 22 25  1  0  0  0  0
M  END
$$$$

  -OEChem-01062216063D

 25 24  0     1  0  0  0  0  0999 V2000
   -3.2727   -3.2549    0.5990 H   0  0  0  0  0  0  0  0  0  0  0  0
   -3.1221   -2.1956    0.3717 C   0  0  0  0  0  0  0  0  0  0  0  0
   -3.7283   -1.5998    1.0585 H   0  0  0  0  0  0  0  0  0  0  0  0
   -3.4509   -2.0064   -0.6531 H   0  0  0  0  0  0  0  0  0  0  0  0
   -1.6572   -1.8303    0.5223 C   0  0  0  0  0  0  0  0  0  0  0  0
   -0.8578   -2.7050    0.8030 O   0  0  0  0  0  0  0  0  0  0  0  0
   -1.2668   -0.5292    0.2662 N   0  0  0  0  0  0  0  0  0  0  0  0
   -2.0208    0.0716   -0.0545 H   0  0  0  0  0  0  0  0  0  0  0  0
    0.0532    0.1316    0.4330 C   0  0  1  0  0  0  0  0  0  0  0  0
    0.6113   -0.0042   -0.5003 H   0  0  0  0  0  0  0  0  0  0  0  0
   -0.2766    1.6335    0.6300 C   0  0  0  0  0  0  0  0  0  0  0  0
   -0.9877    1.7456    1.4532 H   0  0  0  0  0  0  0  0  0  0  0  0
    0.6263    2.1842    0.9092 H   0  0  0  0  0  0  0  0  0  0  0  0
   -0.8284    2.3228   -0.6146 C   0  0  0  0  0  0  0  0  0  0  0  0
   -0.5074    1.9266   -1.7221 O   0  0  0  0  0  0  0  0  0  0  0  0
   -1.6888    3.3468   -0.4123 O   0  0  0  0  0  0  0  0  0  0  0  0
   -1.9143    3.6861   -1.2925 H   0  0  0  0  0  0  0  0  0  0  0  0
    1.0610   -0.3134    1.5392 C   0  0  0  0  0  0  0  0  0  0  0  0
    2.1040    0.3187    1.6573 O   0  0  0  0  0  0  0  0  0  0  0  0
    0.8356   -1.3314    2.4457 N   0  0  0  0  0  0  0  0  0  0  0  0
    0.1128   -1.9978    2.1714 H   0  0  0  0  0  0  0  0  0  0  0  0
    1.8358   -1.7767    3.4088 C   0  0  0  0  0  0  0  0  0  0  0  0
    2.1239   -0.9541    4.0717 H   0  0  0  0  0  0  0  0  0  0  0  0
    1.4323   -2.5875    4.0227 H   0  0  0  0  0  0  0  0  0  0  0  0
    2.7289   -2.1431    2.8920 H   0  0  0  0  0  0  0  0  0  0  0  0
  1  2  1  0  0  0  0
  2  3  1  0  0  0  0
  2  4  1  0  0  0  0
  2  5  1  0  0  0  0
  5  6  2  0  0  0  0
  5  7  1  0  0  0  0
  7  8  1  0  0  0  0
  7  9  1  0  0  0  0
  9 10  1  0  0  0  0
  9 11  1  0  0  0  0
  9 18  1  0  0  0  0
 11 12  1  0  0  0  0
 11 13  1  0  0  0  0
 11 14  1  0  0  0  0
 14 15  2  0  0  0  0
 14 16  1  0  0  0  0
 16 17  1  0  0  0  0
 18 19  2  0  0  0  0
 18 20  1  0  0  0  0
 20 21  1  0  0  0  0
 20 22  1  0  0  0  0
 22 23  1  0  0  0  0
 22 24  1  0  0  0  0
 22 25  1  0  0  0  0
M  END
$$$$

  -OEChem-01062216063D

 25 24  0     1  0  0  0  0  0999 V2000
   -3.3417   -3.1958    0.8005 H   0  0  0  0  0  0  0  0  0  0  0  0
   -3.1753   -2.1419    0.5600 C   0  0  0  0  0  0  0  0  0  0  0  0
   -3.6912   -1.5275    1.3018 H   0  0  0  0  0  0  0  0  0  0  0  0
   -3.5938   -1.9371   -0.4286 H   0  0  0  0  0  0  0  0  0  0  0  0
   -1.6904   -1.8297    0.5692 C   0  0  0  0  0  0  0  0  0  0  0  0
   -0.8984   -2.7405    0.7331 O   0  0  0  0  0  0  0  0  0  0  0  0
   -1.2822   -0.5404    0.2830 N   0  0  0  0  0  0  0  0  0  0  0  0
   -2.0488    0.0876    0.0596 H   0  0  0  0  0  0  0  0  0  0  0  0
    0.0510    0.1050    0.4013 C   0  0  1  0  0  0  0  0  0  0  0  0
    0.5822   -0.0647   -0.5418 H   0  0  0  0  0  0  0  0  0  0  0  0
   -0.2658    1.6175    0.5500 C   0  0  0  0  0  0  0  0  0  0  0  0
   -0.9588    1.7651    1.3828 H   0  0  0  0  0  0  0  0  0  0  0  0
    0.6432    2.1762    0.7884 H   0  0  0  0  0  0  0  0  0  0  0  0
   -0.8356    2.2657   -0.7085 C   0  0  0  0  0  0  0  0  0  0  0  0
   -0.5375    1.8282   -1.8069 O   0  0  0  0  0  0  0  0  0  0  0  0
   -1.6869    3.3011   -0.5270 O   0  0  0  0  0  0  0  0  0  0  0  0
   -1.9262    3.6105   -1.4145 H   0  0  0  0  0  0  0  0  0  0  0  0
    1.0865   -0.3361    1.4882 C   0  0  0  0  0  0  0  0  0  0  0  0
    2.0379    0.3996    1.7233 O   0  0  0  0  0  0  0  0  0  0  0  0
    1.0189   -1.5041    2.2224 N   0  0  0  0  0  0  0  0  0  0  0  0
    0.3478   -2.1984    1.8911 H   0  0  0  0  0  0  0  0  0  0  0  0
    2.0585   -1.9409    3.1469 C   0  0  0  0  0  0  0  0  0  0  0  0
    2.2233   -1.1876    3.9244 H   0  0  0  0  0  0  0  0  0  0  0  0
    1.7620   -2.8758    3.6319 H   0  0  0  0  0  0  0  0  0  0  0  0
    2.9996   -2.1092    2.6132 H   0  0  0  0  0  0  0  0  0  0  0  0
  1  2  1  0  0  0  0
  2  3  1  0  0  0  0
  2  4  1  0  0  0  0
  2  5  1  0  0  0  0
  5  6  2  0  0  0  0
  5  7  1  0  0  0  0
  7  8  1  0  0  0  0
  7  9  1  0  0  0  0
  9 10  1  0  0  0  0
  9 11  1  0  0  0  0
  9 18  1  0  0  0  0
 11 12  1  0  0  0  0
 11 13  1  0  0  0  0
 11 14  1  0  0  0  0
 14 15  2  0  0  0  0
 14 16  1  0  0  0  0
 16 17  1  0  0  0  0
 18 19  2  0  0  0  0
 18 20  1  0  0  0  0
 20 21  1  0  0  0  0
 20 22  1  0  0  0  0
 22 23  1  0  0  0  0
 22 24  1  0  0  0  0
 22 25  1  0  0  0  0
M  END
$$$$

  -OEChem-01062216063D

 25 24  0     1  0  0  0  0  0999 V2000
   -2.7388   -3.4543    1.1360 H   0  0  0  0  0  0  0  0  0  0  0  0
   -2.7205   -2.3700    0.9946 C   0  0  0  0  0  0  0  0  0  0  0  0
   -3.0002   -1.8885    1.9345 H   0  0  0  0  0  0  0  0  0  0  0  0
   -3.4490   -2.1043    0.2245 H   0  0  0  0  0  0  0  0  0  0  0  0
   -1.3339   -1.9212    0.5724 C   0  0  0  0  0  0  0  0  0  0  0  0
   -0.4923   -2.7626    0.3199 O   0  0  0  0  0  0  0  0  0  0  0  0
   -1.1152   -0.5839    0.3094 N   0  0  0  0  0  0  0  0  0  0  0  0
   -1.9447   -0.0078    0.4120 H   0  0  0  0  0  0  0  0  0  0  0  0
    0.1668    0.1561    0.2224 C   0  0  1  0  0  0  0  0  0  0  0  0
    0.5093    0.0759   -0.8156 H   0  0  0  0  0  0  0  0  0  0  0  0
   -0.2158    1.6289    0.5283 C   0  0  0  0  0  0  0  0  0  0  0  0
   -0.7478    1.6778    1.4821 H   0  0  0  0  0  0  0  0  0  0  0  0
    0.6837    2.2416    0.6324 H   0  0  0  0  0  0  0  0  0  0  0  0
   -1.0557    2.3001   -0.5555 C   0  0  0  0  0  0  0  0  0  0  0  0
   -0.9459    1.9513   -1.7183 O   0  0  0  0  0  0  0  0  0  0  0  0
   -1.9195    3.2568   -0.1456 O   0  0  0  0  0  0  0  0  0  0  0  0
   -2.3445    3.5942   -0.9498 H   0  0  0  0  0  0  0  0  0  0  0  0
    1.4390   -0.2375    1.0484 C   0  0  0  0  0  0  0  0  0  0  0  0
    2.3960    0.5222    1.0354 O   0  0  0  0  0  0  0  0  0  0  0  0
    1.8483   -1.4673    1.5023 N   0  0  0  0  0  0  0  0  0  0  0  0
    2.8629   -1.4860    1.5597 H   0  0  0  0  0  0  0  0  0  0  0  0
    1.1841   -2.0749    2.6492 C   0  0  0  0  0  0  0  0  0  0  0  0
    0.2100   -1.6149    2.8416 H   0  0  0  0  0  0  0  0  0  0  0  0
    1.0368   -3.1458    2.4766 H   0  0  0  0  0  0  0  0  0  0  0  0
    1.7995   -1.9492    3.5457 H   0  0  0  0  0  0  0  0  0  0  0  0
  1  2  1  0  0  0  0
  2  3  1  0  0  0  0
  2  4  1  0  0  0  0
  2  5  1  0  0  0  0
  5  6  2  0  0  0  0
  5  7  1  0  0  0  0
  7  8  1  0  0  0  0
  7  9  1  0  0  0  0
  9 10  1  0  0  0  0
  9 11  1  0  0  0  0
  9 18  1  0  0  0  0
 11 12  1  0  0  0  0
 11 13  1  0  0  0  0
 11 14  1  0  0  0  0
 14 15  2  0  0  0  0
 14 16  1  0  0  0  0
 16 17  1  0  0  0  0
 18 19  2  0  0  0  0
 18 20  1  0  0  0  0
 20 21  1  0  0  0  0
 20 22  1  0  0  0  0
 22 23  1  0  0  0  0
 22 24  1  0  0  0  0
 22 25  1  0  0  0  0
M  END
$$$$

  -OEChem-01062216063D

 25 24  0     1  0  0  0  0  0999 V2000
   -3.1799   -3.2591    0.7565 H   0  0  0  0  0  0  0  0  0  0  0  0
   -3.0595   -2.1908    0.5552 C   0  0  0  0  0  0  0  0  0  0  0  0
   -3.5275   -1.6270    1.3658 H   0  0  0  0  0  0  0  0  0  0  0  0
   -3.5622   -1.9509   -0.3850 H   0  0  0  0  0  0  0  0  0  0  0  0
   -1.5867   -1.8387    0.4593 C   0  0  0  0  0  0  0  0  0  0  0  0
   -0.7664   -2.7393    0.4518 O   0  0  0  0  0  0  0  0  0  0  0  0
   -1.2312   -0.5194    0.2485 N   0  0  0  0  0  0  0  0  0  0  0  0
   -2.0288    0.1056    0.1773 H   0  0  0  0  0  0  0  0  0  0  0  0
    0.0845    0.1554    0.3878 C   0  0  1  0  0  0  0  0  0  0  0  0
    0.6121    0.0401   -0.5653 H   0  0  0  0  0  0  0  0  0  0  0  0
   -0.2526    1.6569    0.5941 C   0  0  0  0  0  0  0  0  0  0  0  0
   -0.9393    1.7660    1.4382 H   0  0  0  0  0  0  0  0  0  0  0  0
    0.6544    2.2150    0.8422 H   0  0  0  0  0  0  0  0  0  0  0  0
   -0.8372    2.3454   -0.6364 C   0  0  0  0  0  0  0  0  0  0  0  0
   -0.5377    1.9542   -1.7520 O   0  0  0  0  0  0  0  0  0  0  0  0
   -1.6995    3.3633   -0.4123 O   0  0  0  0  0  0  0  0  0  0  0  0
   -1.9501    3.7011   -1.2862 H   0  0  0  0  0  0  0  0  0  0  0  0
    1.1258   -0.3547    1.4401 C   0  0  0  0  0  0  0  0  0  0  0  0
    1.7264    0.4486    2.1446 O   0  0  0  0  0  0  0  0  0  0  0  0
    1.4366   -1.6861    1.6304 N   0  0  0  0  0  0  0  0  0  0  0  0
    0.8718   -2.3628    1.1124 H   0  0  0  0  0  0  0  0  0  0  0  0
    2.3697   -2.1780    2.6366 C   0  0  0  0  0  0  0  0  0  0  0  0
    2.0238   -1.9142    3.6413 H   0  0  0  0  0  0  0  0  0  0  0  0
    2.4517   -3.2672    2.5727 H   0  0  0  0  0  0  0  0  0  0  0  0
    3.3642   -1.7473    2.4801 H   0  0  0  0  0  0  0  0  0  0  0  0
  1  2  1  0  0  0  0
  2  3  1  0  0  0  0
  2  4  1  0  0  0  0
  2  5  1  0  0  0  0
  5  6  2  0  0  0  0
  5  7  1  0  0  0  0
  7  8  1  0  0  0  0
  7  9  1  0  0  0  0
  9 10  1  0  0  0  0
  9 11  1  0  0  0  0
  9 18  1  0  0  0  0
 11 12  1  0  0  0  0
 11 13  1  0  0  0  0
 11 14  1  0  0  0  0
 14 15  2  0  0  0  0
 14 16  1  0  0  0  0
 16 17  1  0  0  0  0
 18 19  2  0  0  0  0
 18 20  1  0  0  0  0
 20 21  1  0  0  0  0
 20 22  1  0  0  0  0
 22 23  1  0  0  0  0
 22 24  1  0  0  0  0
 22 25  1  0  0  0  0
M  END
$$$$

  -OEChem-01062216063D

 25 24  0     1  0  0  0  0  0999 V2000
   -3.0643   -3.3012    0.8392 H   0  0  0  0  0  0  0  0  0  0  0  0
   -2.9818   -2.2335    0.6167 C   0  0  0  0  0  0  0  0  0  0  0  0
   -3.4494   -1.6700    1.4279 H   0  0  0  0  0  0  0  0  0  0  0  0
   -3.5124   -2.0261   -0.3160 H   0  0  0  0  0  0  0  0  0  0  0  0
   -1.5230   -1.8376    0.4825 C   0  0  0  0  0  0  0  0  0  0  0  0
   -0.6722   -2.7101    0.4697 O   0  0  0  0  0  0  0  0  0  0  0  0
   -1.2104   -0.5113    0.2487 N   0  0  0  0  0  0  0  0  0  0  0  0
   -2.0219    0.0981    0.2054 H   0  0  0  0  0  0  0  0  0  0  0  0
    0.0979    0.1788    0.3593 C   0  0  1  0  0  0  0  0  0  0  0  0
    0.6140    0.0645   -0.6002 H   0  0  0  0  0  0  0  0  0  0  0  0
   -0.2298    1.6792    0.5728 C   0  0  0  0  0  0  0  0  0  0  0  0
   -0.8971    1.7900    1.4322 H   0  0  0  0  0  0  0  0  0  0  0  0
    0.6877    2.2284    0.8037 H   0  0  0  0  0  0  0  0  0  0  0  0
   -0.8411    2.3694   -0.6430 C   0  0  0  0  0  0  0  0  0  0  0  0
   -0.5686    1.9771   -1.7652 O   0  0  0  0  0  0  0  0  0  0  0  0
   -1.6920    3.3923   -0.3990 O   0  0  0  0  0  0  0  0  0  0  0  0
   -1.9638    3.7290   -1.2668 H   0  0  0  0  0  0  0  0  0  0  0  0
    1.1380   -0.3355    1.4052 C   0  0  0  0  0  0  0  0  0  0  0  0
    1.5595    0.4159    2.2774 O   0  0  0  0  0  0  0  0  0  0  0  0
    1.6484   -1.6181    1.3751 N   0  0  0  0  0  0  0  0  0  0  0  0
    1.1121   -2.2847    0.8142 H   0  0  0  0  0  0  0  0  0  0  0  0
    2.5481   -2.1480    2.3923 C   0  0  0  0  0  0  0  0  0  0  0  0
    2.0555   -2.1599    3.3701 H   0  0  0  0  0  0  0  0  0  0  0  0
    2.8431   -3.1704    2.1380 H   0  0  0  0  0  0  0  0  0  0  0  0
    3.4541   -1.5367    2.4602 H   0  0  0  0  0  0  0  0  0  0  0  0
  1  2  1  0  0  0  0
  2  3  1  0  0  0  0
  2  4  1  0  0  0  0
  2  5  1  0  0  0  0
  5  6  2  0  0  0  0
  5  7  1  0  0  0  0
  7  8  1  0  0  0  0
  7  9  1  0  0  0  0
  9 10  1  0  0  0  0
  9 11  1  0  0  0  0
  9 18  1  0  0  0  0
 11 12  1  0  0  0  0
 11 13  1  0  0  0  0
 11 14  1  0  0  0  0
 14 15  2  0  0  0  0
 14 16  1  0  0  0  0
 16 17  1  0  0  0  0
 18 19  2  0  0  0  0
 18 20  1  0  0  0  0
 20 21  1  0  0  0  0
 20 22  1  0  0  0  0
 22 23  1  0  0  0  0
 22 24  1  0  0  0  0
 22 25  1  0  0  0  0
M  END
$$$$

  -OEChem-01062216063D

 25 24  0     1  0  0  0  0  0999 V2000
   -2.9217   -3.3512    0.8933 H   0  0  0  0  0  0  0  0  0  0  0  0
   -2.8892   -2.2804    0.6733 C   0  0  0  0  0  0  0  0  0  0  0  0
   -3.3498   -1.7385    1.5029 H   0  0  0  0  0  0  0  0  0  0  0  0
   -3.4596   -2.0910   -0.2392 H   0  0  0  0  0  0  0  0  0  0  0  0
   -1.4529   -1.8273    0.4902 C   0  0  0  0  0  0  0  0  0  0  0  0
   -0.5626   -2.6606    0.4645 O   0  0  0  0  0  0  0  0  0  0  0  0
   -1.1942   -0.4946    0.2297 N   0  0  0  0  0  0  0  0  0  0  0  0
   -2.0192    0.0979    0.2234 H   0  0  0  0  0  0  0  0  0  0  0  0
    0.1053    0.2068    0.3326 C   0  0  1  0  0  0  0  0  0  0  0  0
    0.6278    0.0953   -0.6237 H   0  0  0  0  0  0  0  0  0  0  0  0
   -0.2152    1.7051    0.5543 C   0  0  0  0  0  0  0  0  0  0  0  0
   -0.8788    1.8127    1.4172 H   0  0  0  0  0  0  0  0  0  0  0  0
    0.7075    2.2445    0.7879 H   0  0  0  0  0  0  0  0  0  0  0  0
   -0.8350    2.4006   -0.6538 C   0  0  0  0  0  0  0  0  0  0  0  0
   -0.5726    2.0099   -1.7789 O   0  0  0  0  0  0  0  0  0  0  0  0
   -1.6810    3.4253   -0.4009 O   0  0  0  0  0  0  0  0  0  0  0  0
   -1.9616    3.7623   -1.2657 H   0  0  0  0  0  0  0  0  0  0  0  0
    1.1160   -0.3166    1.3961 C   0  0  0  0  0  0  0  0  0  0  0  0
    1.3542    0.3424    2.4022 O   0  0  0  0  0  0  0  0  0  0  0  0
    1.8256   -1.4843    1.1934 N   0  0  0  0  0  0  0  0  0  0  0  0
    1.3665   -2.1412    0.5585 H   0  0  0  0  0  0  0  0  0  0  0  0
    2.7228   -2.0412    2.1984 C   0  0  0  0  0  0  0  0  0  0  0  0
    2.1656   -2.3112    3.1014 H   0  0  0  0  0  0  0  0  0  0  0  0
    3.2123   -2.9391    1.8094 H   0  0  0  0  0  0  0  0  0  0  0  0
    3.4990   -1.3164    2.4659 H   0  0  0  0  0  0  0  0  0  0  0  0
  1  2  1  0  0  0  0
  2  3  1  0  0  0  0
  2  4  1  0  0  0  0
  2  5  1  0  0  0  0
  5  6  2  0  0  0  0
  5  7  1  0  0  0  0
  7  8  1  0  0  0  0
  7  9  1  0  0  0  0
  9 10  1  0  0  0  0
  9 11  1  0  0  0  0
  9 18  1  0  0  0  0
 11 12  1  0  0  0  0
 11 13  1  0  0  0  0
 11 14  1  0  0  0  0
 14 15  2  0  0  0  0
 14 16  1  0  0  0  0
 16 17  1  0  0  0  0
 18 19  2  0  0  0  0
 18 20  1  0  0  0  0
 20 21  1  0  0  0  0
 20 22  1  0  0  0  0
 22 23  1  0  0  0  0
 22 24  1  0  0  0  0
 22 25  1  0  0  0  0
M  END
$$$$

  -OEChem-01062216063D

 25 24  0     1  0  0  0  0  0999 V2000
   -2.7875   -3.3903    0.9593 H   0  0  0  0  0  0  0  0  0  0  0  0
   -2.8038   -2.3219    0.7260 C   0  0  0  0  0  0  0  0  0  0  0  0
   -3.2505   -1.7864    1.5672 H   0  0  0  0  0  0  0  0  0  0  0  0
   -3.4161   -2.1648   -0.1653 H   0  0  0  0  0  0  0  0  0  0  0  0
   -1.3935   -1.8189    0.4825 C   0  0  0  0  0  0  0  0  0  0  0  0
   -0.4691   -2.6148    0.4331 O   0  0  0  0  0  0  0  0  0  0  0  0
   -1.1883   -0.4814    0.2002 N   0  0  0  0  0  0  0  0  0  0  0  0
   -2.0241    0.0940    0.2449 H   0  0  0  0  0  0  0  0  0  0  0  0
    0.1030    0.2294    0.3044 C   0  0  1  0  0  0  0  0  0  0  0  0
    0.6342    0.1229   -0.6477 H   0  0  0  0  0  0  0  0  0  0  0  0
   -0.2092    1.7257    0.5379 C   0  0  0  0  0  0  0  0  0  0  0  0
   -0.8730    1.8290    1.4013 H   0  0  0  0  0  0  0  0  0  0  0  0
    0.7175    2.2545    0.7787 H   0  0  0  0  0  0  0  0  0  0  0  0
   -0.8307    2.4331   -0.6621 C   0  0  0  0  0  0  0  0  0  0  0  0
   -0.5743    2.0487   -1.7909 O   0  0  0  0  0  0  0  0  0  0  0  0
   -1.6647    3.4650   -0.3988 O   0  0  0  0  0  0  0  0  0  0  0  0
   -1.9482    3.8087   -1.2600 H   0  0  0  0  0  0  0  0  0  0  0  0
    1.0819   -0.3034    1.3871 C   0  0  0  0  0  0  0  0  0  0  0  0
    1.1218    0.2193    2.4955 O   0  0  0  0  0  0  0  0  0  0  0  0
    1.9967   -1.2910    1.0750 N   0  0  0  0  0  0  0  0  0  0  0  0
    1.6995   -1.9008    0.3137 H   0  0  0  0  0  0  0  0  0  0  0  0
    2.8906   -1.8623    2.0748 C   0  0  0  0  0  0  0  0  0  0  0  0
    2.3154   -2.3706    2.8558 H   0  0  0  0  0  0  0  0  0  0  0  0
    3.5628   -2.5886    1.6078 H   0  0  0  0  0  0  0  0  0  0  0  0
    3.5005   -1.0800    2.5390 H   0  0  0  0  0  0  0  0  0  0  0  0
  1  2  1  0  0  0  0
  2  3  1  0  0  0  0
  2  4  1  0  0  0  0
  2  5  1  0  0  0  0
  5  6  2  0  0  0  0
  5  7  1  0  0  0  0
  7  8  1  0  0  0  0
  7  9  1  0  0  0  0
  9 10  1  0  0  0  0
  9 11  1  0  0  0  0
  9 18  1  0  0  0  0
 11 12  1  0  0  0  0
 11 13  1  0  0  0  0
 11 14  1  0  0  0  0
 14 15  2  0  0  0  0
 14 16  1  0  0  0  0
 16 17  1  0  0  0  0
 18 19  2  0  0  0  0
 18 20  1  0  0  0  0
 20 21  1  0  0  0  0
 20 22  1  0  0  0  0
 22 23  1  0  0  0  0
 22 24  1  0  0  0  0
 22 25  1  0  0  0  0
M  END
$$$$

  -OEChem-01062216063D

 25 24  0     1  0  0  0  0  0999 V2000
   -2.7033   -3.4066    1.0091 H   0  0  0  0  0  0  0  0  0  0  0  0
   -2.7484   -2.3411    0.7664 C   0  0  0  0  0  0  0  0  0  0  0  0
   -3.1811   -1.8066    1.6156 H   0  0  0  0  0  0  0  0  0  0  0  0
   -3.3893   -2.2049   -0.1079 H   0  0  0  0  0  0  0  0  0  0  0  0
   -1.3564   -1.8119    0.4769 C   0  0  0  0  0  0  0  0  0  0  0  0
   -0.4148   -2.5869    0.4115 O   0  0  0  0  0  0  0  0  0  0  0  0
   -1.1842   -0.4729    0.1779 N   0  0  0  0  0  0  0  0  0  0  0  0
   -2.0247    0.0911    0.2602 H   0  0  0  0  0  0  0  0  0  0  0  0
    0.1017    0.2449    0.2800 C   0  0  1  0  0  0  0  0  0  0  0  0
    0.6342    0.1407   -0.6714 H   0  0  0  0  0  0  0  0  0  0  0  0
   -0.2068    1.7386    0.5245 C   0  0  0  0  0  0  0  0  0  0  0  0
   -0.8694    1.8360    1.3895 H   0  0  0  0  0  0  0  0  0  0  0  0
    0.7212    2.2635    0.7689 H   0  0  0  0  0  0  0  0  0  0  0  0
   -0.8346    2.4521   -0.6690 C   0  0  0  0  0  0  0  0  0  0  0  0
   -0.5843    2.0724   -1.8008 O   0  0  0  0  0  0  0  0  0  0  0  0
   -1.6650    3.4847   -0.3970 O   0  0  0  0  0  0  0  0  0  0  0  0
   -1.9571    3.8285   -1.2552 H   0  0  0  0  0  0  0  0  0  0  0  0
    1.0640   -0.2884    1.3735 C   0  0  0  0  0  0  0  0  0  0  0  0
    0.9056    0.0469    2.5421 O   0  0  0  0  0  0  0  0  0  0  0  0
    2.1701   -1.0407    1.0247 N   0  0  0  0  0  0  0  0  0  0  0  0
    2.1048   -1.5069    0.1231 H   0  0  0  0  0  0  0  0  0  0  0  0
    3.0491   -1.6319    2.0262 C   0  0  0  0  0  0  0  0  0  0  0  0
    2.4980   -2.3514    2.6411 H   0  0  0  0  0  0  0  0  0  0  0  0
    3.8793   -2.1533    1.5400 H   0  0  0  0  0  0  0  0  0  0  0  0
    3.4658   -0.8570    2.6782 H   0  0  0  0  0  0  0  0  0  0  0  0
  1  2  1  0  0  0  0
  2  3  1  0  0  0  0
  2  4  1  0  0  0  0
  2  5  1  0  0  0  0
  5  6  2  0  0  0  0
  5  7  1  0  0  0  0
  7  8  1  0  0  0  0
  7  9  1  0  0  0  0
  9 10  1  0  0  0  0
  9 11  1  0  0  0  0
  9 18  1  0  0  0  0
 11 12  1  0  0  0  0
 11 13  1  0  0  0  0
 11 14  1  0  0  0  0
 14 15  2  0  0  0  0
 14 16  1  0  0  0  0
 16 17  1  0  0  0  0
 18 19  2  0  0  0  0
 18 20  1  0  0  0  0
 20 21  1  0  0  0  0
 20 22  1  0  0  0  0
 22 23  1  0  0  0  0
 22 24  1  0  0  0  0
 22 25  1  0  0  0  0
M  END
$$$$

  -OEChem-01062216063D

 25 24  0     1  0  0  0  0  0999 V2000
   -2.6591   -3.4213    1.0284 H   0  0  0  0  0  0  0  0  0  0  0  0
   -2.7215   -2.3551    0.7928 C   0  0  0  0  0  0  0  0  0  0  0  0
   -3.1307   -1.8283    1.6583 H   0  0  0  0  0  0  0  0  0  0  0  0
   -3.3911   -2.2203   -0.0600 H   0  0  0  0  0  0  0  0  0  0  0  0
   -1.3438   -1.8128    0.4629 C   0  0  0  0  0  0  0  0  0  0  0  0
   -0.3967   -2.5789    0.3723 O   0  0  0  0  0  0  0  0  0  0  0  0
   -1.1901   -0.4731    0.1552 N   0  0  0  0  0  0  0  0  0  0  0  0
   -2.0311    0.0839    0.2696 H   0  0  0  0  0  0  0  0  0  0  0  0
    0.0938    0.2468    0.2646 C   0  0  1  0  0  0  0  0  0  0  0  0
    0.6297    0.1405   -0.6844 H   0  0  0  0  0  0  0  0  0  0  0  0
   -0.2075    1.7392    0.5173 C   0  0  0  0  0  0  0  0  0  0  0  0
   -0.8716    1.8341    1.3816 H   0  0  0  0  0  0  0  0  0  0  0  0
    0.7224    2.2585    0.7658 H   0  0  0  0  0  0  0  0  0  0  0  0
   -0.8302    2.4618   -0.6731 C   0  0  0  0  0  0  0  0  0  0  0  0
   -0.5797    2.0868   -1.8065 O   0  0  0  0  0  0  0  0  0  0  0  0
   -1.6539    3.4986   -0.3970 O   0  0  0  0  0  0  0  0  0  0  0  0
   -1.9457    3.8466   -1.2538 H   0  0  0  0  0  0  0  0  0  0  0  0
    1.0441   -0.2831    1.3681 C   0  0  0  0  0  0  0  0  0  0  0  0
    0.7349   -0.1494    2.5471 O   0  0  0  0  0  0  0  0  0  0  0  0
    2.2994   -0.7625    1.0421 N   0  0  0  0  0  0  0  0  0  0  0  0
    2.4319   -1.0342    0.0721 H   0  0  0  0  0  0  0  0  0  0  0  0
    3.1912   -1.3408    2.0397 C   0  0  0  0  0  0  0  0  0  0  0  0
    2.7322   -2.2252    2.4944 H   0  0  0  0  0  0  0  0  0  0  0  0
    4.1357   -1.6387    1.5747 H   0  0  0  0  0  0  0  0  0  0  0  0
    3.4108   -0.6127    2.8278 H   0  0  0  0  0  0  0  0  0  0  0  0
  1  2  1  0  0  0  0
  2  3  1  0  0  0  0
  2  4  1  0  0  0  0
  2  5  1  0  0  0  0
  5  6  2  0  0  0  0
  5  7  1  0  0  0  0
  7  8  1  0  0  0  0
  7  9  1  0  0  0  0
  9 10  1  0  0  0  0
  9 11  1  0  0  0  0
  9 18  1  0  0  0  0
 11 12  1  0  0  0  0
 11 13  1  0  0  0  0
 11 14  1  0  0  0  0
 14 15  2  0  0  0  0
 14 16  1  0  0  0  0
 16 17  1  0  0  0  0
 18 19  2  0  0  0  0
 18 20  1  0  0  0  0
 20 21  1  0  0  0  0
 20 22  1  0  0  0  0
 22 23  1  0  0  0  0
 22 24  1  0  0  0  0
 22 25  1  0  0  0  0
M  END
$$$$

  -OEChem-01062216063D

 25 24  0     1  0  0  0  0  0999 V2000
   -2.6458   -3.4287    1.0278 H   0  0  0  0  0  0  0  0  0  0  0  0
   -2.7131   -2.3591    0.8097 C   0  0  0  0  0  0  0  0  0  0  0  0
   -3.0860   -1.8436    1.6981 H   0  0  0  0  0  0  0  0  0  0  0  0
   -3.4143   -2.2098   -0.0149 H   0  0  0  0  0  0  0  0  0  0  0  0
   -1.3466   -1.8176    0.4349 C   0  0  0  0  0  0  0  0  0  0  0  0
   -0.4057   -2.5850    0.2993 O   0  0  0  0  0  0  0  0  0  0  0  0
   -1.1987   -0.4765    0.1298 N   0  0  0  0  0  0  0  0  0  0  0  0
   -2.0355    0.0781    0.2802 H   0  0  0  0  0  0  0  0  0  0  0  0
    0.0875    0.2371    0.2549 C   0  0  1  0  0  0  0  0  0  0  0  0
    0.6295    0.1301   -0.6905 H   0  0  0  0  0  0  0  0  0  0  0  0
   -0.2103    1.7280    0.5169 C   0  0  0  0  0  0  0  0  0  0  0  0
   -0.8817    1.8168    1.3761 H   0  0  0  0  0  0  0  0  0  0  0  0
    0.7184    2.2431    0.7782 H   0  0  0  0  0  0  0  0  0  0  0  0
   -0.8207    2.4618   -0.6733 C   0  0  0  0  0  0  0  0  0  0  0  0
   -0.5619    2.0943   -1.8071 O   0  0  0  0  0  0  0  0  0  0  0  0
   -1.6398    3.5019   -0.3967 O   0  0  0  0  0  0  0  0  0  0  0  0
   -1.9236    3.8558   -1.2538 H   0  0  0  0  0  0  0  0  0  0  0  0
    1.0283   -0.2958    1.3648 C   0  0  0  0  0  0  0  0  0  0  0  0
    0.6216   -0.3584    2.5201 O   0  0  0  0  0  0  0  0  0  0  0  0
    2.3746   -0.4861    1.1109 N   0  0  0  0  0  0  0  0  0  0  0  0
    2.6493   -0.5436    0.1347 H   0  0  0  0  0  0  0  0  0  0  0  0
    3.2918   -1.0080    2.1169 C   0  0  0  0  0  0  0  0  0  0  0  0
    2.9766   -2.0059    2.4398 H   0  0  0  0  0  0  0  0  0  0  0  0
    4.3034   -1.0793    1.7062 H   0  0  0  0  0  0  0  0  0  0  0  0
    3.3211   -0.3479    2.9904 H   0  0  0  0  0  0  0  0  0  0  0  0
  1  2  1  0  0  0  0
  2  3  1  0  0  0  0
  2  4  1  0  0  0  0
  2  5  1  0  0  0  0
  5  6  2  0  0  0  0
  5  7  1  0  0  0  0
  7  8  1  0  0  0  0
  7  9  1  0  0  0  0
  9 10  1  0  0  0  0
  9 11  1  0  0  0  0
  9 18  1  0  0  0  0
 11 12  1  0  0  0  0
 11 13  1  0  0  0  0
 11 14  1  0  0  0  0
 14 15  2  0  0  0  0
 14 16  1  0  0  0  0
 16 17  1  0  0  0  0
 18 19  2  0  0  0  0
 18 20  1  0  0  0  0
 20 21  1  0  0  0  0
 20 22  1  0  0  0  0
 22 23  1  0  0  0  0
 22 24  1  0  0  0  0
 22 25  1  0  0  0  0
M  END
$$$$

  -OEChem-01062216063D

 25 24  0     1  0  0  0  0  0999 V2000
   -2.6644   -3.4236    1.0383 H   0  0  0  0  0  0  0  0  0  0  0  0
   -2.7298   -2.3578    0.8022 C   0  0  0  0  0  0  0  0  0  0  0  0
   -3.0985   -1.8261    1.6826 H   0  0  0  0  0  0  0  0  0  0  0  0
   -3.4328   -2.2206   -0.0227 H   0  0  0  0  0  0  0  0  0  0  0  0
   -1.3631   -1.8271    0.4134 C   0  0  0  0  0  0  0  0  0  0  0  0
   -0.4353   -2.6035    0.2430 O   0  0  0  0  0  0  0  0  0  0  0  0
   -1.2050   -0.4854    0.1160 N   0  0  0  0  0  0  0  0  0  0  0  0
   -2.0348    0.0735    0.2865 H   0  0  0  0  0  0  0  0  0  0  0  0
    0.0882    0.2147    0.2519 C   0  0  1  0  0  0  0  0  0  0  0  0
    0.6319    0.1087   -0.6929 H   0  0  0  0  0  0  0  0  0  0  0  0
   -0.2035    1.7046    0.5274 C   0  0  0  0  0  0  0  0  0  0  0  0
   -0.8776    1.7885    1.3849 H   0  0  0  0  0  0  0  0  0  0  0  0
    0.7261    2.2142    0.7961 H   0  0  0  0  0  0  0  0  0  0  0  0
   -0.8058    2.4530   -0.6578 C   0  0  0  0  0  0  0  0  0  0  0  0
   -0.5449    2.0959   -1.7943 O   0  0  0  0  0  0  0  0  0  0  0  0
   -1.6217    3.4934   -0.3727 O   0  0  0  0  0  0  0  0  0  0  0  0
   -1.9057    3.8549   -1.2265 H   0  0  0  0  0  0  0  0  0  0  0  0
    1.0281   -0.3238    1.3609 C   0  0  0  0  0  0  0  0  0  0  0  0
    0.5756   -0.5646    2.4750 O   0  0  0  0  0  0  0  0  0  0  0  0
    2.4002   -0.2273    1.2104 N   0  0  0  0  0  0  0  0  0  0  0  0
    2.7520   -0.0820    0.2689 H   0  0  0  0  0  0  0  0  0  0  0  0
    3.3368   -0.6484    2.2455 C   0  0  0  0  0  0  0  0  0  0  0  0
    3.1911   -1.7072    2.4853 H   0  0  0  0  0  0  0  0  0  0  0  0
    4.3670   -0.5087    1.9042 H   0  0  0  0  0  0  0  0  0  0  0  0
    3.1925   -0.0579    3.1563 H   0  0  0  0  0  0  0  0  0  0  0  0
  1  2  1  0  0  0  0
  2  3  1  0  0  0  0
  2  4  1  0  0  0  0
  2  5  1  0  0  0  0
  5  6  2  0  0  0  0
  5  7  1  0  0  0  0
  7  8  1  0  0  0  0
  7  9  1  0  0  0  0
  9 10  1  0  0  0  0
  9 11  1  0  0  0  0
  9 18  1  0  0  0  0
 11 12  1  0  0  0  0
 11 13  1  0  0  0  0
 11 14  1  0  0  0  0
 14 15  2  0  0  0  0
 14 16  1  0  0  0  0
 16 17  1  0  0  0  0
 18 19  2  0  0  0  0
 18 20  1  0  0  0  0
 20 21  1  0  0  0  0
 20 22  1  0  0  0  0
 22 23  1  0  0  0  0
 22 24  1  0  0  0  0
 22 25  1  0  0  0  0
M  END
$$$$

  -OEChem-01062216063D

 25 24  0     1  0  0  0  0  0999 V2000
   -2.6837   -3.4318    0.9715 H   0  0  0  0  0  0  0  0  0  0  0  0
   -2.7285   -2.3506    0.8138 C   0  0  0  0  0  0  0  0  0  0  0  0
   -3.0274   -1.8722    1.7496 H   0  0  0  0  0  0  0  0  0  0  0  0
   -3.4738   -2.1361    0.0446 H   0  0  0  0  0  0  0  0  0  0  0  0
   -1.3705   -1.8315    0.3816 C   0  0  0  0  0  0  0  0  0  0  0  0
   -0.4621   -2.6160    0.1532 O   0  0  0  0  0  0  0  0  0  0  0  0
   -1.2032   -0.4883    0.0963 N   0  0  0  0  0  0  0  0  0  0  0  0
   -2.0251    0.0733    0.2936 H   0  0  0  0  0  0  0  0  0  0  0  0
    0.0962    0.1985    0.2476 C   0  0  1  0  0  0  0  0  0  0  0  0
    0.6449    0.0965   -0.6948 H   0  0  0  0  0  0  0  0  0  0  0  0
   -0.2034    1.6864    0.5311 C   0  0  0  0  0  0  0  0  0  0  0  0
   -0.8863    1.7611    1.3824 H   0  0  0  0  0  0  0  0  0  0  0  0
    0.7192    2.2012    0.8120 H   0  0  0  0  0  0  0  0  0  0  0  0
   -0.7962    2.4416   -0.6550 C   0  0  0  0  0  0  0  0  0  0  0  0
   -0.5225    2.0939   -1.7912 O   0  0  0  0  0  0  0  0  0  0  0  0
   -1.6186    3.4770   -0.3705 O   0  0  0  0  0  0  0  0  0  0  0  0
   -1.8974    3.8419   -1.2248 H   0  0  0  0  0  0  0  0  0  0  0  0
    1.0379   -0.3453    1.3560 C   0  0  0  0  0  0  0  0  0  0  0  0
    0.5682   -0.7677    2.4073 O   0  0  0  0  0  0  0  0  0  0  0  0
    2.3728    0.0221    1.3531 N   0  0  0  0  0  0  0  0  0  0  0  0
    2.7574    0.3624    0.4770 H   0  0  0  0  0  0  0  0  0  0  0  0
    3.2935   -0.3261    2.4297 C   0  0  0  0  0  0  0  0  0  0  0  0
    3.3359   -1.4127    2.5606 H   0  0  0  0  0  0  0  0  0  0  0  0
    4.3003    0.0344    2.1985 H   0  0  0  0  0  0  0  0  0  0  0  0
    2.9724    0.1300    3.3723 H   0  0  0  0  0  0  0  0  0  0  0  0
  1  2  1  0  0  0  0
  2  3  1  0  0  0  0
  2  4  1  0  0  0  0
  2  5  1  0  0  0  0
  5  6  2  0  0  0  0
  5  7  1  0  0  0  0
  7  8  1  0  0  0  0
  7  9  1  0  0  0  0
  9 10  1  0  0  0  0
  9 11  1  0  0  0  0
  9 18  1  0  0  0  0
 11 12  1  0  0  0  0
 11 13  1  0  0  0  0
 11 14  1  0  0  0  0
 14 15  2  0  0  0  0
 14 16  1  0  0  0  0
 16 17  1  0  0  0  0
 18 19  2  0  0  0  0
 18 20  1  0  0  0  0
 20 21  1  0  0  0  0
 20 22  1  0  0  0  0
 22 23  1  0  0  0  0
 22 24  1  0  0  0  0
 22 25  1  0  0  0  0
M  END
$$$$

  -OEChem-01062216063D

 25 24  0     1  0  0  0  0  0999 V2000
   -2.8094   -3.3573    0.9718 H   0  0  0  0  0  0  0  0  0  0  0  0
   -2.7869   -2.2709    0.8489 C   0  0  0  0  0  0  0  0  0  0  0  0
   -2.9622   -1.8058    1.8219 H   0  0  0  0  0  0  0  0  0  0  0  0
   -3.5807   -1.9755    0.1589 H   0  0  0  0  0  0  0  0  0  0  0  0
   -1.4380   -1.8383    0.3064 C   0  0  0  0  0  0  0  0  0  0  0  0
   -0.6609   -2.6763   -0.1222 O   0  0  0  0  0  0  0  0  0  0  0  0
   -1.1910   -0.4994    0.0645 N   0  0  0  0  0  0  0  0  0  0  0  0
   -1.9861    0.0899    0.2868 H   0  0  0  0  0  0  0  0  0  0  0  0
    0.1294    0.1498    0.2354 C   0  0  1  0  0  0  0  0  0  0  0  0
    0.5574    0.2968   -0.7618 H   0  0  0  0  0  0  0  0  0  0  0  0
   -0.1652    1.5180    0.8985 C   0  0  0  0  0  0  0  0  0  0  0  0
   -0.7588    1.3579    1.8036 H   0  0  0  0  0  0  0  0  0  0  0  0
    0.7656    1.9978    1.2095 H   0  0  0  0  0  0  0  0  0  0  0  0
   -0.8878    2.5114   -0.0070 C   0  0  0  0  0  0  0  0  0  0  0  0
   -0.7259    2.4574   -1.2141 O   0  0  0  0  0  0  0  0  0  0  0  0
   -1.6938    3.4134    0.5970 O   0  0  0  0  0  0  0  0  0  0  0  0
   -2.0604    3.9651   -0.1116 H   0  0  0  0  0  0  0  0  0  0  0  0
    1.2370   -0.5846    1.0505 C   0  0  0  0  0  0  0  0  0  0  0  0
    0.9466   -1.3864    1.9297 O   0  0  0  0  0  0  0  0  0  0  0  0
    2.4713    0.0309    1.1943 N   0  0  0  0  0  0  0  0  0  0  0  0
    2.7223    0.7316    0.5039 H   0  0  0  0  0  0  0  0  0  0  0  0
    3.5031   -0.4398    2.1135 C   0  0  0  0  0  0  0  0  0  0  0  0
    3.7508   -1.4867    1.9085 H   0  0  0  0  0  0  0  0  0  0  0  0
    4.4122    0.1586    2.0010 H   0  0  0  0  0  0  0  0  0  0  0  0
    3.1607   -0.3553    3.1503 H   0  0  0  0  0  0  0  0  0  0  0  0
  1  2  1  0  0  0  0
  2  3  1  0  0  0  0
  2  4  1  0  0  0  0
  2  5  1  0  0  0  0
  5  6  2  0  0  0  0
  5  7  1  0  0  0  0
  7  8  1  0  0  0  0
  7  9  1  0  0  0  0
  9 10  1  0  0  0  0
  9 11  1  0  0  0  0
  9 18  1  0  0  0  0
 11 12  1  0  0  0  0
 11 13  1  0  0  0  0
 11 14  1  0  0  0  0
 14 15  2  0  0  0  0
 14 16  1  0  0  0  0
 16 17  1  0  0  0  0
 18 19  2  0  0  0  0
 18 20  1  0  0  0  0
 20 21  1  0  0  0  0
 20 22  1  0  0  0  0
 22 23  1  0  0  0  0
 22 24  1  0  0  0  0
 22 25  1  0  0  0  0
M  END
$$$$

  -OEChem-01062216063D

 25 24  0     1  0  0  0  0  0999 V2000
   -2.7923   -3.3433    0.9742 H   0  0  0  0  0  0  0  0  0  0  0  0
   -2.7537   -2.2542    0.8839 C   0  0  0  0  0  0  0  0  0  0  0  0
   -2.8585   -1.8175    1.8798 H   0  0  0  0  0  0  0  0  0  0  0  0
   -3.5820   -1.9213    0.2542 H   0  0  0  0  0  0  0  0  0  0  0  0
   -1.4312   -1.8319    0.2729 C   0  0  0  0  0  0  0  0  0  0  0  0
   -0.7189   -2.6673   -0.2592 O   0  0  0  0  0  0  0  0  0  0  0  0
   -1.1718   -0.4914    0.0567 N   0  0  0  0  0  0  0  0  0  0  0  0
   -1.9635    0.0916    0.3050 H   0  0  0  0  0  0  0  0  0  0  0  0
    0.1456    0.1616    0.2502 C   0  0  1  0  0  0  0  0  0  0  0  0
    0.5837    0.3140   -0.7421 H   0  0  0  0  0  0  0  0  0  0  0  0
   -0.1969    1.5312    0.8958 C   0  0  0  0  0  0  0  0  0  0  0  0
   -0.8112    1.3665    1.7860 H   0  0  0  0  0  0  0  0  0  0  0  0
    0.7088    2.0433    1.2253 H   0  0  0  0  0  0  0  0  0  0  0  0
   -0.9127    2.5037   -0.0387 C   0  0  0  0  0  0  0  0  0  0  0  0
   -0.7150    2.4463   -1.2398 O   0  0  0  0  0  0  0  0  0  0  0  0
   -1.7559    3.3905    0.5361 O   0  0  0  0  0  0  0  0  0  0  0  0
   -2.1156    3.9283   -0.1871 H   0  0  0  0  0  0  0  0  0  0  0  0
    1.2703   -0.5598    1.0656 C   0  0  0  0  0  0  0  0  0  0  0  0
    1.0689   -1.5877    1.6963 O   0  0  0  0  0  0  0  0  0  0  0  0
    2.3682    0.1729    1.4935 N   0  0  0  0  0  0  0  0  0  0  0  0
    2.5575    1.0460    1.0122 H   0  0  0  0  0  0  0  0  0  0  0  0
    3.3746   -0.3398    2.4191 C   0  0  0  0  0  0  0  0  0  0  0  0
    3.8185   -1.2625    2.0306 H   0  0  0  0  0  0  0  0  0  0  0  0
    4.1724    0.3963    2.5568 H   0  0  0  0  0  0  0  0  0  0  0  0
    2.9261   -0.5495    3.3960 H   0  0  0  0  0  0  0  0  0  0  0  0
  1  2  1  0  0  0  0
  2  3  1  0  0  0  0
  2  4  1  0  0  0  0
  2  5  1  0  0  0  0
  5  6  2  0  0  0  0
  5  7  1  0  0  0  0
  7  8  1  0  0  0  0
  7  9  1  0  0  0  0
  9 10  1  0  0  0  0
  9 11  1  0  0  0  0
  9 18  1  0  0  0  0
 11 12  1  0  0  0  0
 11 13  1  0  0  0  0
 11 14  1  0  0  0  0
 14 15  2  0  0  0  0
 14 16  1  0  0  0  0
 16 17  1  0  0  0  0
 18 19  2  0  0  0  0
 18 20  1  0  0  0  0
 20 21  1  0  0  0  0
 20 22  1  0  0  0  0
 22 23  1  0  0  0  0
 22 24  1  0  0  0  0
 22 25  1  0  0  0  0
M  END
$$$$

  -OEChem-01062216063D

 25 24  0     1  0  0  0  0  0999 V2000
   -2.7883   -3.4419    0.8273 H   0  0  0  0  0  0  0  0  0  0  0  0
   -2.6989   -2.4579    0.3583 C   0  0  0  0  0  0  0  0  0  0  0  0
   -3.6681   -1.9557    0.4009 H   0  0  0  0  0  0  0  0  0  0  0  0
   -2.4088   -2.5944   -0.6862 H   0  0  0  0  0  0  0  0  0  0  0  0
   -1.6526   -1.6312    1.0816 C   0  0  0  0  0  0  0  0  0  0  0  0
   -1.2762   -1.9813    2.1875 O   0  0  0  0  0  0  0  0  0  0  0  0
   -1.3652   -0.3540    0.6355 N   0  0  0  0  0  0  0  0  0  0  0  0
   -1.9587   -0.0912   -0.1463 H   0  0  0  0  0  0  0  0  0  0  0  0
   -0.0075    0.2335    0.5475 C   0  0  1  0  0  0  0  0  0  0  0  0
    0.3099    0.2286   -0.5010 H   0  0  0  0  0  0  0  0  0  0  0  0
   -0.1865    1.6945    1.0319 C   0  0  0  0  0  0  0  0  0  0  0  0
   -0.6726    1.6933    2.0126 H   0  0  0  0  0  0  0  0  0  0  0  0
    0.7805    2.1880    1.1400 H   0  0  0  0  0  0  0  0  0  0  0  0
   -0.9920    2.5646    0.0711 C   0  0  0  0  0  0  0  0  0  0  0  0
   -0.9760    2.3191   -1.1241 O   0  0  0  0  0  0  0  0  0  0  0  0
   -1.6733    3.6010    0.6106 O   0  0  0  0  0  0  0  0  0  0  0  0
   -2.1132    4.0517   -0.1266 H   0  0  0  0  0  0  0  0  0  0  0  0
    1.1538   -0.4875    1.2969 C   0  0  0  0  0  0  0  0  0  0  0  0
    1.3662   -1.6662    1.0416 O   0  0  0  0  0  0  0  0  0  0  0  0
    2.2371    0.2170    1.8004 N   0  0  0  0  0  0  0  0  0  0  0  0
    2.0920    1.1986    2.0083 H   0  0  0  0  0  0  0  0  0  0  0  0
    3.4346   -0.4303    2.3271 C   0  0  0  0  0  0  0  0  0  0  0  0
    3.9400   -1.0015    1.5410 H   0  0  0  0  0  0  0  0  0  0  0  0
    4.1334    0.3192    2.7102 H   0  0  0  0  0  0  0  0  0  0  0  0
    3.1731   -1.1109    3.1443 H   0  0  0  0  0  0  0  0  0  0  0  0
  1  2  1  0  0  0  0
  2  3  1  0  0  0  0
  2  4  1  0  0  0  0
  2  5  1  0  0  0  0
  5  6  2  0  0  0  0
  5  7  1  0  0  0  0
  7  8  1  0  0  0  0
  7  9  1  0  0  0  0
  9 10  1  0  0  0  0
  9 11  1  0  0  0  0
  9 18  1  0  0  0  0
 11 12  1  0  0  0  0
 11 13  1  0  0  0  0
 11 14  1  0  0  0  0
 14 15  2  0  0  0  0
 14 16  1  0  0  0  0
 16 17  1  0  0  0  0
 18 19  2  0  0  0  0
 18 20  1  0  0  0  0
 20 21  1  0  0  0  0
 20 22  1  0  0  0  0
 22 23  1  0  0  0  0
 22 24  1  0  0  0  0
 22 25  1  0  0  0  0
M  END
$$$$

  -OEChem-01062216063D

 25 24  0     1  0  0  0  0  0999 V2000
   -2.8288   -3.4293    0.8405 H   0  0  0  0  0  0  0  0  0  0  0  0
   -2.7514   -2.4358    0.3898 C   0  0  0  0  0  0  0  0  0  0  0  0
   -3.7025   -1.9139    0.5182 H   0  0  0  0  0  0  0  0  0  0  0  0
   -2.5447   -2.5510   -0.6769 H   0  0  0  0  0  0  0  0  0  0  0  0
   -1.6341   -1.6510    1.0509 C   0  0  0  0  0  0  0  0  0  0  0  0
   -1.1561   -2.0626    2.0944 O   0  0  0  0  0  0  0  0  0  0  0  0
   -1.3557   -0.3690    0.6108 N   0  0  0  0  0  0  0  0  0  0  0  0
   -1.9708   -0.0866   -0.1474 H   0  0  0  0  0  0  0  0  0  0  0  0
   -0.0055    0.2336    0.5248 C   0  0  1  0  0  0  0  0  0  0  0  0
    0.3143    0.2255   -0.5232 H   0  0  0  0  0  0  0  0  0  0  0  0
   -0.1811    1.6974    0.9987 C   0  0  0  0  0  0  0  0  0  0  0  0
   -0.6645    1.7064    1.9804 H   0  0  0  0  0  0  0  0  0  0  0  0
    0.7915    2.1843    1.0971 H   0  0  0  0  0  0  0  0  0  0  0  0
   -0.9858    2.5622    0.0325 C   0  0  0  0  0  0  0  0  0  0  0  0
   -0.9724    2.3091   -1.1610 O   0  0  0  0  0  0  0  0  0  0  0  0
   -1.6674    3.6012    0.5663 O   0  0  0  0  0  0  0  0  0  0  0  0
   -2.1027    4.0500   -0.1749 H   0  0  0  0  0  0  0  0  0  0  0  0
    1.1497   -0.4900    1.2769 C   0  0  0  0  0  0  0  0  0  0  0  0
    1.4920   -1.5926    0.8679 O   0  0  0  0  0  0  0  0  0  0  0  0
    2.0691    0.1970    2.0545 N   0  0  0  0  0  0  0  0  0  0  0  0
    1.7708    1.0918    2.4278 H   0  0  0  0  0  0  0  0  0  0  0  0
    3.2350   -0.4455    2.6517 C   0  0  0  0  0  0  0  0  0  0  0  0
    3.8987   -0.8377    1.8739 H   0  0  0  0  0  0  0  0  0  0  0  0
    3.7982    0.2748    3.2528 H   0  0  0  0  0  0  0  0  0  0  0  0
    2.9256   -1.2726    3.2997 H   0  0  0  0  0  0  0  0  0  0  0  0
  1  2  1  0  0  0  0
  2  3  1  0  0  0  0
  2  4  1  0  0  0  0
  2  5  1  0  0  0  0
  5  6  2  0  0  0  0
  5  7  1  0  0  0  0
  7  8  1  0  0  0  0
  7  9  1  0  0  0  0
  9 10  1  0  0  0  0
  9 11  1  0  0  0  0
  9 18  1  0  0  0  0
 11 12  1  0  0  0  0
 11 13  1  0  0  0  0
 11 14  1  0  0  0  0
 14 15  2  0  0  0  0
 14 16  1  0  0  0  0
 16 17  1  0  0  0  0
 18 19  2  0  0  0  0
 18 20  1  0  0  0  0
 20 21  1  0  0  0  0
 20 22  1  0  0  0  0
 22 23  1  0  0  0  0
 22 24  1  0  0  0  0
 22 25  1  0  0  0  0
M  END
$$$$

  -OEChem-01062216063D

 25 24  0     1  0  0  0  0  0999 V2000
   -2.8854   -3.4170    0.8300 H   0  0  0  0  0  0  0  0  0  0  0  0
   -2.8144   -2.4083    0.4132 C   0  0  0  0  0  0  0  0  0  0  0  0
   -3.7306   -1.8627    0.6512 H   0  0  0  0  0  0  0  0  0  0  0  0
   -2.7128   -2.4853   -0.6720 H   0  0  0  0  0  0  0  0  0  0  0  0
   -1.6130   -1.6873    0.9955 C   0  0  0  0  0  0  0  0  0  0  0  0
   -1.0325   -2.1816    1.9462 O   0  0  0  0  0  0  0  0  0  0  0  0
   -1.3329   -0.3996    0.5706 N   0  0  0  0  0  0  0  0  0  0  0  0
   -1.9750   -0.0800   -0.1496 H   0  0  0  0  0  0  0  0  0  0  0  0
    0.0082    0.2240    0.4990 C   0  0  1  0  0  0  0  0  0  0  0  0
    0.3346    0.2246   -0.5473 H   0  0  0  0  0  0  0  0  0  0  0  0
   -0.1768    1.6843    0.9777 C   0  0  0  0  0  0  0  0  0  0  0  0
   -0.6678    1.6878    1.9553 H   0  0  0  0  0  0  0  0  0  0  0  0
    0.7974    2.1682    1.0864 H   0  0  0  0  0  0  0  0  0  0  0  0
   -0.9803    2.5522    0.0133 C   0  0  0  0  0  0  0  0  0  0  0  0
   -0.9615    2.3076   -1.1818 O   0  0  0  0  0  0  0  0  0  0  0  0
   -1.6730    3.5811    0.5527 O   0  0  0  0  0  0  0  0  0  0  0  0
   -2.1030    4.0368   -0.1875 H   0  0  0  0  0  0  0  0  0  0  0  0
    1.1656   -0.4883    1.2547 C   0  0  0  0  0  0  0  0  0  0  0  0
    1.6611   -1.4796    0.7336 O   0  0  0  0  0  0  0  0  0  0  0  0
    1.8785    0.1280    2.2710 N   0  0  0  0  0  0  0  0  0  0  0  0
    1.4157    0.8960    2.7455 H   0  0  0  0  0  0  0  0  0  0  0  0
    3.0071   -0.5137    2.9358 C   0  0  0  0  0  0  0  0  0  0  0  0
    3.8111   -0.7151    2.2199 H   0  0  0  0  0  0  0  0  0  0  0  0
    3.4021    0.1352    3.7231 H   0  0  0  0  0  0  0  0  0  0  0  0
    2.6950   -1.4605    3.3894 H   0  0  0  0  0  0  0  0  0  0  0  0
  1  2  1  0  0  0  0
  2  3  1  0  0  0  0
  2  4  1  0  0  0  0
  2  5  1  0  0  0  0
  5  6  2  0  0  0  0
  5  7  1  0  0  0  0
  7  8  1  0  0  0  0
  7  9  1  0  0  0  0
  9 10  1  0  0  0  0
  9 11  1  0  0  0  0
  9 18  1  0  0  0  0
 11 12  1  0  0  0  0
 11 13  1  0  0  0  0
 11 14  1  0  0  0  0
 14 15  2  0  0  0  0
 14 16  1  0  0  0  0
 16 17  1  0  0  0  0
 18 19  2  0  0  0  0
 18 20  1  0  0  0  0
 20 21  1  0  0  0  0
 20 22  1  0  0  0  0
 22 23  1  0  0  0  0
 22 24  1  0  0  0  0
 22 25  1  0  0  0  0
M  END
$$$$

  -OEChem-01062216063D

 25 24  0     1  0  0  0  0  0999 V2000
   -2.9113   -3.4128    0.8141 H   0  0  0  0  0  0  0  0  0  0  0  0
   -2.8510   -2.3910    0.4287 C   0  0  0  0  0  0  0  0  0  0  0  0
   -3.7379   -1.8397    0.7493 H   0  0  0  0  0  0  0  0  0  0  0  0
   -2.8268   -2.4304   -0.6631 H   0  0  0  0  0  0  0  0  0  0  0  0
   -1.5993   -1.7100    0.9496 C   0  0  0  0  0  0  0  0  0  0  0  0
   -0.9519   -2.2576    1.8244 O   0  0  0  0  0  0  0  0  0  0  0  0
   -1.3183   -0.4196    0.5332 N   0  0  0  0  0  0  0  0  0  0  0  0
   -1.9788   -0.0738   -0.1580 H   0  0  0  0  0  0  0  0  0  0  0  0
    0.0172    0.2162    0.4742 C   0  0  1  0  0  0  0  0  0  0  0  0
    0.3482    0.2255   -0.5710 H   0  0  0  0  0  0  0  0  0  0  0  0
   -0.1694    1.6709    0.9646 C   0  0  0  0  0  0  0  0  0  0  0  0
   -0.6649    1.6667    1.9398 H   0  0  0  0  0  0  0  0  0  0  0  0
    0.8081    2.1466    1.0856 H   0  0  0  0  0  0  0  0  0  0  0  0
   -0.9704    2.5479    0.0072 C   0  0  0  0  0  0  0  0  0  0  0  0
   -0.9488    2.3146   -1.1899 O   0  0  0  0  0  0  0  0  0  0  0  0
   -1.6698    3.5678    0.5553 O   0  0  0  0  0  0  0  0  0  0  0  0
   -2.0974    4.0303   -0.1820 H   0  0  0  0  0  0  0  0  0  0  0  0
    1.1752   -0.4847    1.2354 C   0  0  0  0  0  0  0  0  0  0  0  0
    1.8258   -1.3331    0.6384 O   0  0  0  0  0  0  0  0  0  0  0  0
    1.6673   -0.0001    2.4363 N   0  0  0  0  0  0  0  0  0  0  0  0
    1.0436    0.6018    2.9637 H   0  0  0  0  0  0  0  0  0  0  0  0
    2.7557   -0.6572    3.1502 C   0  0  0  0  0  0  0  0  0  0  0  0
    3.6669   -0.6594    2.5427 H   0  0  0  0  0  0  0  0  0  0  0  0
    2.9676   -0.1316    4.0861 H   0  0  0  0  0  0  0  0  0  0  0  0
    2.4871   -1.6926    3.3857 H   0  0  0  0  0  0  0  0  0  0  0  0
  1  2  1  0  0  0  0
  2  3  1  0  0  0  0
  2  4  1  0  0  0  0
  2  5  1  0  0  0  0
  5  6  2  0  0  0  0
  5  7  1  0  0  0  0
  7  8  1  0  0  0  0
  7  9  1  0  0  0  0
  9 10  1  0  0  0  0
  9 11  1  0  0  0  0
  9 18  1  0  0  0  0
 11 12  1  0  0  0  0
 11 13  1  0  0  0  0
 11 14  1  0  0  0  0
 14 15  2  0  0  0  0
 14 16  1  0  0  0  0
 16 17  1  0  0  0  0
 18 19  2  0  0  0  0
 18 20  1  0  0  0  0
 20 21  1  0  0  0  0
 20 22  1  0  0  0  0
 22 23  1  0  0  0  0
 22 24  1  0  0  0  0
 22 25  1  0  0  0  0
M  END
$$$$

  -OEChem-01062216063D

 25 24  0     1  0  0  0  0  0999 V2000
   -2.9746   -3.3870    0.8337 H   0  0  0  0  0  0  0  0  0  0  0  0
   -2.8905   -2.3714    0.4364 C   0  0  0  0  0  0  0  0  0  0  0  0
   -3.7414   -1.7835    0.7889 H   0  0  0  0  0  0  0  0  0  0  0  0
   -2.9146   -2.4198   -0.6549 H   0  0  0  0  0  0  0  0  0  0  0  0
   -1.5925   -1.7353    0.8981 C   0  0  0  0  0  0  0  0  0  0  0  0
   -0.8930   -2.3359    1.6941 O   0  0  0  0  0  0  0  0  0  0  0  0
   -1.3039   -0.4425    0.4941 N   0  0  0  0  0  0  0  0  0  0  0  0
   -1.9820   -0.0642   -0.1622 H   0  0  0  0  0  0  0  0  0  0  0  0
    0.0273    0.2036    0.4538 C   0  0  1  0  0  0  0  0  0  0  0  0
    0.3650    0.2250   -0.5892 H   0  0  0  0  0  0  0  0  0  0  0  0
   -0.1626    1.6514    0.9604 C   0  0  0  0  0  0  0  0  0  0  0  0
   -0.6648    1.6364    1.9317 H   0  0  0  0  0  0  0  0  0  0  0  0
    0.8156    2.1210    1.0985 H   0  0  0  0  0  0  0  0  0  0  0  0
   -0.9582    2.5413    0.0106 C   0  0  0  0  0  0  0  0  0  0  0  0
   -0.9306    2.3245   -1.1894 O   0  0  0  0  0  0  0  0  0  0  0  0
   -1.6655    3.5500    0.5692 O   0  0  0  0  0  0  0  0  0  0  0  0
   -2.0860    4.0249   -0.1644 H   0  0  0  0  0  0  0  0  0  0  0  0
    1.1859   -0.4844    1.2223 C   0  0  0  0  0  0  0  0  0  0  0  0
    2.0042   -1.1346    0.5846 O   0  0  0  0  0  0  0  0  0  0  0  0
    1.4519   -0.1874    2.5483 N   0  0  0  0  0  0  0  0  0  0  0  0
    0.6738    0.1956    3.0753 H   0  0  0  0  0  0  0  0  0  0  0  0
    2.5173   -0.8513    3.2895 C   0  0  0  0  0  0  0  0  0  0  0  0
    3.4882   -0.6609    2.8200 H   0  0  0  0  0  0  0  0  0  0  0  0
    2.5532   -0.4781    4.3173 H   0  0  0  0  0  0  0  0  0  0  0  0
    2.3459   -1.9327    3.3175 H   0  0  0  0  0  0  0  0  0  0  0  0
  1  2  1  0  0  0  0
  2  3  1  0  0  0  0
  2  4  1  0  0  0  0
  2  5  1  0  0  0  0
  5  6  2  0  0  0  0
  5  7  1  0  0  0  0
  7  8  1  0  0  0  0
  7  9  1  0  0  0  0
  9 10  1  0  0  0  0
  9 11  1  0  0  0  0
  9 18  1  0  0  0  0
 11 12  1  0  0  0  0
 11 13  1  0  0  0  0
 11 14  1  0  0  0  0
 14 15  2  0  0  0  0
 14 16  1  0  0  0  0
 16 17  1  0  0  0  0
 18 19  2  0  0  0  0
 18 20  1  0  0  0  0
 20 21  1  0  0  0  0
 20 22  1  0  0  0  0
 22 23  1  0  0  0  0
 22 24  1  0  0  0  0
 22 25  1  0  0  0  0
M  END
$$$$

  -OEChem-01062216063D

 25 24  0     1  0  0  0  0  0999 V2000
   -3.0313   -3.3666    0.8250 H   0  0  0  0  0  0  0  0  0  0  0  0
   -2.9383   -2.3452    0.4447 C   0  0  0  0  0  0  0  0  0  0  0  0
   -3.7478   -1.7402    0.8602 H   0  0  0  0  0  0  0  0  0  0  0  0
   -3.0296   -2.3674   -0.6440 H   0  0  0  0  0  0  0  0  0  0  0  0
   -1.5954   -1.7599    0.8412 C   0  0  0  0  0  0  0  0  0  0  0  0
   -0.8585   -2.4121    1.5586 O   0  0  0  0  0  0  0  0  0  0  0  0
   -1.2910   -0.4673    0.4493 N   0  0  0  0  0  0  0  0  0  0  0  0
   -1.9847   -0.0513   -0.1670 H   0  0  0  0  0  0  0  0  0  0  0  0
    0.0382    0.1848    0.4326 C   0  0  1  0  0  0  0  0  0  0  0  0
    0.3870    0.2182   -0.6065 H   0  0  0  0  0  0  0  0  0  0  0  0
   -0.1554    1.6241    0.9584 C   0  0  0  0  0  0  0  0  0  0  0  0
   -0.6636    1.5951    1.9263 H   0  0  0  0  0  0  0  0  0  0  0  0
    0.8230    2.0887    1.1130 H   0  0  0  0  0  0  0  0  0  0  0  0
   -0.9420    2.5302    0.0168 C   0  0  0  0  0  0  0  0  0  0  0  0
   -0.9048    2.3328   -1.1862 O   0  0  0  0  0  0  0  0  0  0  0  0
   -1.6554    3.5286    0.5861 O   0  0  0  0  0  0  0  0  0  0  0  0
   -2.0656    4.0180   -0.1436 H   0  0  0  0  0  0  0  0  0  0  0  0
    1.1946   -0.4894    1.2143 C   0  0  0  0  0  0  0  0  0  0  0  0
    2.1720   -0.8872    0.5936 O   0  0  0  0  0  0  0  0  0  0  0  0
    1.2500   -0.4266    2.5959 N   0  0  0  0  0  0  0  0  0  0  0  0
    0.3513   -0.3036    3.0526 H   0  0  0  0  0  0  0  0  0  0  0  0
    2.3088   -1.0819    3.3536 C   0  0  0  0  0  0  0  0  0  0  0  0
    3.2889   -0.6870    3.0663 H   0  0  0  0  0  0  0  0  0  0  0  0
    2.1699   -0.9086    4.4250 H   0  0  0  0  0  0  0  0  0  0  0  0
    2.2963   -2.1618    3.1707 H   0  0  0  0  0  0  0  0  0  0  0  0
  1  2  1  0  0  0  0
  2  3  1  0  0  0  0
  2  4  1  0  0  0  0
  2  5  1  0  0  0  0
  5  6  2  0  0  0  0
  5  7  1  0  0  0  0
  7  8  1  0  0  0  0
  7  9  1  0  0  0  0
  9 10  1  0  0  0  0
  9 11  1  0  0  0  0
  9 18  1  0  0  0  0
 11 12  1  0  0  0  0
 11 13  1  0  0  0  0
 11 14  1  0  0  0  0
 14 15  2  0  0  0  0
 14 16  1  0  0  0  0
 16 17  1  0  0  0  0
 18 19  2  0  0  0  0
 18 20  1  0  0  0  0
 20 21  1  0  0  0  0
 20 22  1  0  0  0  0
 22 23  1  0  0  0  0
 22 24  1  0  0  0  0
 22 25  1  0  0  0  0
M  END
$$$$

  -OEChem-01062216063D

 25 24  0     1  0  0  0  0  0999 V2000
   -3.1283   -3.3312    0.7928 H   0  0  0  0  0  0  0  0  0  0  0  0
   -3.0084   -2.3073    0.4275 C   0  0  0  0  0  0  0  0  0  0  0  0
   -3.7807   -1.6807    0.8798 H   0  0  0  0  0  0  0  0  0  0  0  0
   -3.1351   -2.3062   -0.6578 H   0  0  0  0  0  0  0  0  0  0  0  0
   -1.6328   -1.7790    0.7902 C   0  0  0  0  0  0  0  0  0  0  0  0
   -0.8897   -2.4793    1.4533 O   0  0  0  0  0  0  0  0  0  0  0  0
   -1.2950   -0.4903    0.4151 N   0  0  0  0  0  0  0  0  0  0  0  0
   -1.9935   -0.0338   -0.1664 H   0  0  0  0  0  0  0  0  0  0  0  0
    0.0387    0.1553    0.4253 C   0  0  1  0  0  0  0  0  0  0  0  0
    0.3990    0.1977   -0.6096 H   0  0  0  0  0  0  0  0  0  0  0  0
   -0.1543    1.5882    0.9665 C   0  0  0  0  0  0  0  0  0  0  0  0
   -0.6723    1.5485    1.9288 H   0  0  0  0  0  0  0  0  0  0  0  0
    0.8248    2.0450    1.1396 H   0  0  0  0  0  0  0  0  0  0  0  0
   -0.9230    2.5110    0.0261 C   0  0  0  0  0  0  0  0  0  0  0  0
   -0.8702    2.3287   -1.1788 O   0  0  0  0  0  0  0  0  0  0  0  0
   -1.6416    3.5042    0.5978 O   0  0  0  0  0  0  0  0  0  0  0  0
   -2.0348    4.0080   -0.1315 H   0  0  0  0  0  0  0  0  0  0  0  0
    1.1957   -0.5064    1.2167 C   0  0  0  0  0  0  0  0  0  0  0  0
    2.2889   -0.6104    0.6756 O   0  0  0  0  0  0  0  0  0  0  0  0
    1.0967   -0.7158    2.5806 N   0  0  0  0  0  0  0  0  0  0  0  0
    0.1473   -0.8975    2.8973 H   0  0  0  0  0  0  0  0  0  0  0  0
    2.1800   -1.3236    3.3434 C   0  0  0  0  0  0  0  0  0  0  0  0
    3.0895   -0.7181    3.2702 H   0  0  0  0  0  0  0  0  0  0  0  0
    1.9023   -1.3988    4.3989 H   0  0  0  0  0  0  0  0  0  0  0  0
    2.3949   -2.3293    2.9668 H   0  0  0  0  0  0  0  0  0  0  0  0
  1  2  1  0  0  0  0
  2  3  1  0  0  0  0
  2  4  1  0  0  0  0
  2  5  1  0  0  0  0
  5  6  2  0  0  0  0
  5  7  1  0  0  0  0
  7  8  1  0  0  0  0
  7  9  1  0  0  0  0
  9 10  1  0  0  0  0
  9 11  1  0  0  0  0
  9 18  1  0  0  0  0
 11 12  1  0  0  0  0
 11 13  1  0  0  0  0
 11 14  1  0  0  0  0
 14 15  2  0  0  0  0
 14 16  1  0  0  0  0
 16 17  1  0  0  0  0
 18 19  2  0  0  0  0
 18 20  1  0  0  0  0
 20 21  1  0  0  0  0
 20 22  1  0  0  0  0
 22 23  1  0  0  0  0
 22 24  1  0  0  0  0
 22 25  1  0  0  0  0
M  END
$$$$

  -OEChem-01062216063D

 25 24  0     1  0  0  0  0  0999 V2000
   -3.2376   -3.2877    0.7090 H   0  0  0  0  0  0  0  0  0  0  0  0
   -3.0911   -2.2486    0.4002 C   0  0  0  0  0  0  0  0  0  0  0  0
   -3.8177   -1.6210    0.9220 H   0  0  0  0  0  0  0  0  0  0  0  0
   -3.2632   -2.1761   -0.6765 H   0  0  0  0  0  0  0  0  0  0  0  0
   -1.6809   -1.7961    0.7318 C   0  0  0  0  0  0  0  0  0  0  0  0
   -0.9423   -2.5621    1.3228 O   0  0  0  0  0  0  0  0  0  0  0  0
   -1.2977   -0.5139    0.3805 N   0  0  0  0  0  0  0  0  0  0  0  0
   -1.9992   -0.0076   -0.1539 H   0  0  0  0  0  0  0  0  0  0  0  0
    0.0415    0.1228    0.4243 C   0  0  1  0  0  0  0  0  0  0  0  0
    0.4180    0.1741   -0.6040 H   0  0  0  0  0  0  0  0  0  0  0  0
   -0.1672    1.5496    0.9771 C   0  0  0  0  0  0  0  0  0  0  0  0
   -0.7046    1.4967    1.9283 H   0  0  0  0  0  0  0  0  0  0  0  0
    0.8059    2.0088    1.1765 H   0  0  0  0  0  0  0  0  0  0  0  0
   -0.9153    2.4826    0.0306 C   0  0  0  0  0  0  0  0  0  0  0  0
   -0.8345    2.3152   -1.1749 O   0  0  0  0  0  0  0  0  0  0  0  0
   -1.6517    3.4656    0.5974 O   0  0  0  0  0  0  0  0  0  0  0  0
   -2.0267    3.9790   -0.1347 H   0  0  0  0  0  0  0  0  0  0  0  0
    1.2041   -0.5192    1.2270 C   0  0  0  0  0  0  0  0  0  0  0  0
    2.3445   -0.3626    0.8092 O   0  0  0  0  0  0  0  0  0  0  0  0
    1.0272   -1.0139    2.5057 N   0  0  0  0  0  0  0  0  0  0  0  0
    0.1002   -1.4113    2.6573 H   0  0  0  0  0  0  0  0  0  0  0  0
    2.1278   -1.5896    3.2690 C   0  0  0  0  0  0  0  0  0  0  0  0
    2.9201   -0.8491    3.4205 H   0  0  0  0  0  0  0  0  0  0  0  0
    1.7739   -1.9191    4.2505 H   0  0  0  0  0  0  0  0  0  0  0  0
    2.5478   -2.4530    2.7424 H   0  0  0  0  0  0  0  0  0  0  0  0
  1  2  1  0  0  0  0
  2  3  1  0  0  0  0
  2  4  1  0  0  0  0
  2  5  1  0  0  0  0
  5  6  2  0  0  0  0
  5  7  1  0  0  0  0
  7  8  1  0  0  0  0
  7  9  1  0  0  0  0
  9 10  1  0  0  0  0
  9 11  1  0  0  0  0
  9 18  1  0  0  0  0
 11 12  1  0  0  0  0
 11 13  1  0  0  0  0
 11 14  1  0  0  0  0
 14 15  2  0  0  0  0
 14 16  1  0  0  0  0
 16 17  1  0  0  0  0
 18 19  2  0  0  0  0
 18 20  1  0  0  0  0
 20 21  1  0  0  0  0
 20 22  1  0  0  0  0
 22 23  1  0  0  0  0
 22 24  1  0  0  0  0
 22 25  1  0  0  0  0
M  END
$$$$

  -OEChem-01062216063D

 25 24  0     1  0  0  0  0  0999 V2000
   -3.3434   -3.2300    0.6443 H   0  0  0  0  0  0  0  0  0  0  0  0
   -3.1662   -2.1817    0.3867 C   0  0  0  0  0  0  0  0  0  0  0  0
   -3.8330   -1.5556    0.9844 H   0  0  0  0  0  0  0  0  0  0  0  0
   -3.3941   -2.0386   -0.6724 H   0  0  0  0  0  0  0  0  0  0  0  0
   -1.7207   -1.8106    0.6618 C   0  0  0  0  0  0  0  0  0  0  0  0
   -0.9846   -2.6510    1.1442 O   0  0  0  0  0  0  0  0  0  0  0  0
   -1.2963   -0.5331    0.3426 N   0  0  0  0  0  0  0  0  0  0  0  0
   -2.0046    0.0266   -0.1254 H   0  0  0  0  0  0  0  0  0  0  0  0
    0.0458    0.0975    0.4280 C   0  0  1  0  0  0  0  0  0  0  0  0
    0.4425    0.1599   -0.5920 H   0  0  0  0  0  0  0  0  0  0  0  0
   -0.1917    1.5195    0.9865 C   0  0  0  0  0  0  0  0  0  0  0  0
   -0.7571    1.4536    1.9203 H   0  0  0  0  0  0  0  0  0  0  0  0
    0.7691    1.9881    1.2214 H   0  0  0  0  0  0  0  0  0  0  0  0
   -0.9159    2.4569    0.0256 C   0  0  0  0  0  0  0  0  0  0  0  0
   -0.7958    2.3024   -1.1783 O   0  0  0  0  0  0  0  0  0  0  0  0
   -1.6790    3.4274    0.5785 O   0  0  0  0  0  0  0  0  0  0  0  0
   -2.0316    3.9474   -0.1602 H   0  0  0  0  0  0  0  0  0  0  0  0
    1.2123   -0.5266    1.2453 C   0  0  0  0  0  0  0  0  0  0  0  0
    2.3507   -0.1687    0.9691 O   0  0  0  0  0  0  0  0  0  0  0  0
    1.0290   -1.2953    2.3786 N   0  0  0  0  0  0  0  0  0  0  0  0
    0.1417   -1.8001    2.3963 H   0  0  0  0  0  0  0  0  0  0  0  0
    2.1427   -1.8742    3.1201 C   0  0  0  0  0  0  0  0  0  0  0  0
    2.8108   -1.0879    3.4870 H   0  0  0  0  0  0  0  0  0  0  0  0
    1.7695   -2.4367    3.9812 H   0  0  0  0  0  0  0  0  0  0  0  0
    2.7156   -2.5544    2.4811 H   0  0  0  0  0  0  0  0  0  0  0  0
  1  2  1  0  0  0  0
  2  3  1  0  0  0  0
  2  4  1  0  0  0  0
  2  5  1  0  0  0  0
  5  6  2  0  0  0  0
  5  7  1  0  0  0  0
  7  8  1  0  0  0  0
  7  9  1  0  0  0  0
  9 10  1  0  0  0  0
  9 11  1  0  0  0  0
  9 18  1  0  0  0  0
 11 12  1  0  0  0  0
 11 13  1  0  0  0  0
 11 14  1  0  0  0  0
 14 15  2  0  0  0  0
 14 16  1  0  0  0  0
 16 17  1  0  0  0  0
 18 19  2  0  0  0  0
 18 20  1  0  0  0  0
 20 21  1  0  0  0  0
 20 22  1  0  0  0  0
 22 23  1  0  0  0  0
 22 24  1  0  0  0  0
 22 25  1  0  0  0  0
M  END
$$$$

  -OEChem-01062216063D

 25 24  0     1  0  0  0  0  0999 V2000
   -3.4411   -3.1609    0.6220 H   0  0  0  0  0  0  0  0  0  0  0  0
   -3.2272   -2.1148    0.3842 C   0  0  0  0  0  0  0  0  0  0  0  0
   -3.8387   -1.4768    1.0268 H   0  0  0  0  0  0  0  0  0  0  0  0
   -3.4931   -1.9319   -0.6598 H   0  0  0  0  0  0  0  0  0  0  0  0
   -1.7557   -1.8161    0.6053 C   0  0  0  0  0  0  0  0  0  0  0  0
   -1.0326   -2.7164    0.9882 O   0  0  0  0  0  0  0  0  0  0  0  0
   -1.2940   -0.5448    0.3142 N   0  0  0  0  0  0  0  0  0  0  0  0
   -2.0051    0.0564   -0.0932 H   0  0  0  0  0  0  0  0  0  0  0  0
    0.0518    0.0768    0.4302 C   0  0  1  0  0  0  0  0  0  0  0  0
    0.4642    0.1495   -0.5829 H   0  0  0  0  0  0  0  0  0  0  0  0
   -0.2132    1.4946    0.9941 C   0  0  0  0  0  0  0  0  0  0  0  0
   -0.8003    1.4157    1.9135 H   0  0  0  0  0  0  0  0  0  0  0  0
    0.7340    1.9751    1.2569 H   0  0  0  0  0  0  0  0  0  0  0  0
   -0.9211    2.4346    0.0233 C   0  0  0  0  0  0  0  0  0  0  0  0
   -0.7697    2.2924   -1.1784 O   0  0  0  0  0  0  0  0  0  0  0  0
   -1.7113    3.3893    0.5654 O   0  0  0  0  0  0  0  0  0  0  0  0
   -2.0495    3.9136   -0.1770 H   0  0  0  0  0  0  0  0  0  0  0  0
    1.2202   -0.5406    1.2569 C   0  0  0  0  0  0  0  0  0  0  0  0
    2.3298   -0.0383    1.1236 O   0  0  0  0  0  0  0  0  0  0  0  0
    1.0861   -1.5414    2.1987 N   0  0  0  0  0  0  0  0  0  0  0  0
    0.2317   -2.0948    2.1217 H   0  0  0  0  0  0  0  0  0  0  0  0
    2.2194   -2.1365    2.8963 C   0  0  0  0  0  0  0  0  0  0  0  0
    2.7554   -1.3777    3.4757 H   0  0  0  0  0  0  0  0  0  0  0  0
    1.8722   -2.9130    3.5846 H   0  0  0  0  0  0  0  0  0  0  0  0
    2.9135   -2.5907    2.1814 H   0  0  0  0  0  0  0  0  0  0  0  0
  1  2  1  0  0  0  0
  2  3  1  0  0  0  0
  2  4  1  0  0  0  0
  2  5  1  0  0  0  0
  5  6  2  0  0  0  0
  5  7  1  0  0  0  0
  7  8  1  0  0  0  0
  7  9  1  0  0  0  0
  9 10  1  0  0  0  0
  9 11  1  0  0  0  0
  9 18  1  0  0  0  0
 11 12  1  0  0  0  0
 11 13  1  0  0  0  0
 11 14  1  0  0  0  0
 14 15  2  0  0  0  0
 14 16  1  0  0  0  0
 16 17  1  0  0  0  0
 18 19  2  0  0  0  0
 18 20  1  0  0  0  0
 20 21  1  0  0  0  0
 20 22  1  0  0  0  0
 22 23  1  0  0  0  0
 22 24  1  0  0  0  0
 22 25  1  0  0  0  0
M  END
$$$$

  -OEChem-01062216063D

 25 24  0     1  0  0  0  0  0999 V2000
   -3.0317   -3.3811    0.7531 H   0  0  0  0  0  0  0  0  0  0  0  0
   -2.9027   -2.3268    0.4921 C   0  0  0  0  0  0  0  0  0  0  0  0
   -3.5152   -1.7221    1.1650 H   0  0  0  0  0  0  0  0  0  0  0  0
   -3.2414   -2.1752   -0.5356 H   0  0  0  0  0  0  0  0  0  0  0  0
   -1.4437   -1.9299    0.6214 C   0  0  0  0  0  0  0  0  0  0  0  0
   -0.6261   -2.8009    0.8383 O   0  0  0  0  0  0  0  0  0  0  0  0
   -1.0883   -0.6332    0.3032 N   0  0  0  0  0  0  0  0  0  0  0  0
   -1.8738   -0.0869   -0.0362 H   0  0  0  0  0  0  0  0  0  0  0  0
    0.1127    0.1706    0.6473 C   0  0  1  0  0  0  0  0  0  0  0  0
    0.7432    0.1977   -0.2481 H   0  0  0  0  0  0  0  0  0  0  0  0
   -0.4573    1.5897    0.9228 C   0  0  0  0  0  0  0  0  0  0  0  0
   -1.2453    1.5248    1.6783 H   0  0  0  0  0  0  0  0  0  0  0  0
    0.3196    2.2437    1.3272 H   0  0  0  0  0  0  0  0  0  0  0  0
   -0.9958    2.3031   -0.3144 C   0  0  0  0  0  0  0  0  0  0  0  0
   -0.5234    2.0590   -1.4116 O   0  0  0  0  0  0  0  0  0  0  0  0
   -2.0152    3.1708   -0.1205 O   0  0  0  0  0  0  0  0  0  0  0  0
   -2.2133    3.5518   -0.9901 H   0  0  0  0  0  0  0  0  0  0  0  0
    1.1251   -0.2215    1.7772 C   0  0  0  0  0  0  0  0  0  0  0  0
    1.9090    0.6168    2.1983 O   0  0  0  0  0  0  0  0  0  0  0  0
    1.1035   -1.3094    2.6140 N   0  0  0  0  0  0  0  0  0  0  0  0
    1.3740   -1.0026    3.5439 H   0  0  0  0  0  0  0  0  0  0  0  0
    1.8926   -2.4639    2.1946 C   0  0  0  0  0  0  0  0  0  0  0  0
    2.9163   -2.3784    2.5728 H   0  0  0  0  0  0  0  0  0  0  0  0
    1.4496   -3.3845    2.5877 H   0  0  0  0  0  0  0  0  0  0  0  0
    1.9385   -2.5439    1.1029 H   0  0  0  0  0  0  0  0  0  0  0  0
  1  2  1  0  0  0  0
  2  3  1  0  0  0  0
  2  4  1  0  0  0  0
  2  5  1  0  0  0  0
  5  6  2  0  0  0  0
  5  7  1  0  0  0  0
  7  8  1  0  0  0  0
  7  9  1  0  0  0  0
  9 10  1  0  0  0  0
  9 11  1  0  0  0  0
  9 18  1  0  0  0  0
 11 12  1  0  0  0  0
 11 13  1  0  0  0  0
 11 14  1  0  0  0  0
 14 15  2  0  0  0  0
 14 16  1  0  0  0  0
 16 17  1  0  0  0  0
 18 19  2  0  0  0  0
 18 20  1  0  0  0  0
 20 21  1  0  0  0  0
 20 22  1  0  0  0  0
 22 23  1  0  0  0  0
 22 24  1  0  0  0  0
 22 25  1  0  0  0  0
M  END
$$$$

  -OEChem-01062216063D

 25 24  0     1  0  0  0  0  0999 V2000
   -2.8281   -3.4930    1.0895 H   0  0  0  0  0  0  0  0  0  0  0  0
   -2.7912   -2.4181    0.8903 C   0  0  0  0  0  0  0  0  0  0  0  0
   -3.1207   -1.8842    1.7848 H   0  0  0  0  0  0  0  0  0  0  0  0
   -3.4707   -2.1896    0.0655 H   0  0  0  0  0  0  0  0  0  0  0  0
   -1.3780   -2.0011    0.5272 C   0  0  0  0  0  0  0  0  0  0  0  0
   -0.5487   -2.8674    0.3319 O   0  0  0  0  0  0  0  0  0  0  0  0
   -1.1355   -0.6685    0.2566 N   0  0  0  0  0  0  0  0  0  0  0  0
   -1.9780   -0.1019    0.2638 H   0  0  0  0  0  0  0  0  0  0  0  0
    0.1314    0.1026    0.1787 C   0  0  1  0  0  0  0  0  0  0  0  0
    0.3328    0.2660   -0.8862 H   0  0  0  0  0  0  0  0  0  0  0  0
   -0.2018    1.4533    0.8645 C   0  0  0  0  0  0  0  0  0  0  0  0
   -0.6071    1.2643    1.8624 H   0  0  0  0  0  0  0  0  0  0  0  0
    0.7091    2.0450    0.9949 H   0  0  0  0  0  0  0  0  0  0  0  0
   -1.1728    2.3356    0.0849 C   0  0  0  0  0  0  0  0  0  0  0  0
   -1.2168    2.2673   -1.1313 O   0  0  0  0  0  0  0  0  0  0  0  0
   -1.9698    3.1505    0.8129 O   0  0  0  0  0  0  0  0  0  0  0  0
   -2.4925    3.6575    0.1720 H   0  0  0  0  0  0  0  0  0  0  0  0
    1.5142   -0.3813    0.7288 C   0  0  0  0  0  0  0  0  0  0  0  0
    2.4854    0.3294    0.5170 O   0  0  0  0  0  0  0  0  0  0  0  0
    1.9325   -1.6274    1.1233 N   0  0  0  0  0  0  0  0  0  0  0  0
    2.9400   -1.7026    1.0138 H   0  0  0  0  0  0  0  0  0  0  0  0
    1.4242   -2.1945    2.3666 C   0  0  0  0  0  0  0  0  0  0  0  0
    2.1249   -1.9945    3.1832 H   0  0  0  0  0  0  0  0  0  0  0  0
    0.4549   -1.7653    2.6384 H   0  0  0  0  0  0  0  0  0  0  0  0
    1.3070   -3.2782    2.2647 H   0  0  0  0  0  0  0  0  0  0  0  0
  1  2  1  0  0  0  0
  2  3  1  0  0  0  0
  2  4  1  0  0  0  0
  2  5  1  0  0  0  0
  5  6  2  0  0  0  0
  5  7  1  0  0  0  0
  7  8  1  0  0  0  0
  7  9  1  0  0  0  0
  9 10  1  0  0  0  0
  9 11  1  0  0  0  0
  9 18  1  0  0  0  0
 11 12  1  0  0  0  0
 11 13  1  0  0  0  0
 11 14  1  0  0  0  0
 14 15  2  0  0  0  0
 14 16  1  0  0  0  0
 16 17  1  0  0  0  0
 18 19  2  0  0  0  0
 18 20  1  0  0  0  0
 20 21  1  0  0  0  0
 20 22  1  0  0  0  0
 22 23  1  0  0  0  0
 22 24  1  0  0  0  0
 22 25  1  0  0  0  0
M  END
$$$$

  -OEChem-01062216063D

 25 24  0     1  0  0  0  0  0999 V2000
   -3.4394   -3.1456    0.6398 H   0  0  0  0  0  0  0  0  0  0  0  0
   -3.2084   -2.1072    0.3846 C   0  0  0  0  0  0  0  0  0  0  0  0
   -3.7788   -1.4497    1.0452 H   0  0  0  0  0  0  0  0  0  0  0  0
   -3.5096   -1.9246   -0.6498 H   0  0  0  0  0  0  0  0  0  0  0  0
   -1.7226   -1.8435    0.5460 C   0  0  0  0  0  0  0  0  0  0  0  0
   -0.9988   -2.7825    0.8147 O   0  0  0  0  0  0  0  0  0  0  0  0
   -1.2670   -0.5557    0.3238 N   0  0  0  0  0  0  0  0  0  0  0  0
   -2.0059    0.0705    0.0161 H   0  0  0  0  0  0  0  0  0  0  0  0
    0.0721    0.0875    0.4264 C   0  0  1  0  0  0  0  0  0  0  0  0
    0.4517    0.2053   -0.5942 H   0  0  0  0  0  0  0  0  0  0  0  0
   -0.2476    1.4882    1.0226 C   0  0  0  0  0  0  0  0  0  0  0  0
   -0.8171    1.3677    1.9485 H   0  0  0  0  0  0  0  0  0  0  0  0
    0.6725    2.0193    1.2802 H   0  0  0  0  0  0  0  0  0  0  0  0
   -1.0028    2.4156    0.0751 C   0  0  0  0  0  0  0  0  0  0  0  0
   -0.8551    2.3011   -1.1303 O   0  0  0  0  0  0  0  0  0  0  0  0
   -1.8342    3.3210    0.6395 O   0  0  0  0  0  0  0  0  0  0  0  0
   -2.2013    3.8435   -0.0902 H   0  0  0  0  0  0  0  0  0  0  0  0
    1.2886   -0.5614    1.1722 C   0  0  0  0  0  0  0  0  0  0  0  0
    2.1732    0.1635    1.6133 O   0  0  0  0  0  0  0  0  0  0  0  0
    1.5090   -1.9183    1.2954 N   0  0  0  0  0  0  0  0  0  0  0  0
    0.7417   -2.5303    1.0135 H   0  0  0  0  0  0  0  0  0  0  0  0
    2.6430   -2.5068    1.9978 C   0  0  0  0  0  0  0  0  0  0  0  0
    2.6544   -2.1868    3.0448 H   0  0  0  0  0  0  0  0  0  0  0  0
    2.5758   -3.5986    1.9703 H   0  0  0  0  0  0  0  0  0  0  0  0
    3.5843   -2.2072    1.5257 H   0  0  0  0  0  0  0  0  0  0  0  0
  1  2  1  0  0  0  0
  2  3  1  0  0  0  0
  2  4  1  0  0  0  0
  2  5  1  0  0  0  0
  5  6  2  0  0  0  0
  5  7  1  0  0  0  0
  7  8  1  0  0  0  0
  7  9  1  0  0  0  0
  9 10  1  0  0  0  0
  9 11  1  0  0  0  0
  9 18  1  0  0  0  0
 11 12  1  0  0  0  0
 11 13  1  0  0  0  0
 11 14  1  0  0  0  0
 14 15  2  0  0  0  0
 14 16  1  0  0  0  0
 16 17  1  0  0  0  0
 18 19  2  0  0  0  0
 18 20  1  0  0  0  0
 20 21  1  0  0  0  0
 20 22  1  0  0  0  0
 22 23  1  0  0  0  0
 22 24  1  0  0  0  0
 22 25  1  0  0  0  0
M  END
$$$$

  -OEChem-01062216063D

 25 24  0     1  0  0  0  0  0999 V2000
   -3.3650   -3.1515    0.7926 H   0  0  0  0  0  0  0  0  0  0  0  0
   -3.1683   -2.1034    0.5493 C   0  0  0  0  0  0  0  0  0  0  0  0
   -3.6874   -1.4726    1.2752 H   0  0  0  0  0  0  0  0  0  0  0  0
   -3.5587   -1.8957   -0.4501 H   0  0  0  0  0  0  0  0  0  0  0  0
   -1.6769   -1.8251    0.5928 C   0  0  0  0  0  0  0  0  0  0  0  0
   -0.9214   -2.7577    0.7903 O   0  0  0  0  0  0  0  0  0  0  0  0
   -1.2476   -0.5342    0.3390 N   0  0  0  0  0  0  0  0  0  0  0  0
   -2.0079    0.0963    0.1007 H   0  0  0  0  0  0  0  0  0  0  0  0
    0.0940    0.1061    0.3896 C   0  0  1  0  0  0  0  0  0  0  0  0
    0.4460    0.2021   -0.6431 H   0  0  0  0  0  0  0  0  0  0  0  0
   -0.1818    1.5234    0.9651 C   0  0  0  0  0  0  0  0  0  0  0  0
   -0.7175    1.4338    1.9144 H   0  0  0  0  0  0  0  0  0  0  0  0
    0.7586    2.0408    1.1736 H   0  0  0  0  0  0  0  0  0  0  0  0
   -0.9541    2.4435    0.0248 C   0  0  0  0  0  0  0  0  0  0  0  0
   -0.8501    2.3011   -1.1822 O   0  0  0  0  0  0  0  0  0  0  0  0
   -1.7469    3.3778    0.5975 O   0  0  0  0  0  0  0  0  0  0  0  0
   -2.1281    3.8927   -0.1302 H   0  0  0  0  0  0  0  0  0  0  0  0
    1.3090   -0.5715    1.1087 C   0  0  0  0  0  0  0  0  0  0  0  0
    2.0866    0.1066    1.7707 O   0  0  0  0  0  0  0  0  0  0  0  0
    1.6304   -1.9059    0.9597 N   0  0  0  0  0  0  0  0  0  0  0  0
    0.8723   -2.4972    0.6135 H   0  0  0  0  0  0  0  0  0  0  0  0
    2.7243   -2.5546    1.6727 C   0  0  0  0  0  0  0  0  0  0  0  0
    2.5651   -2.4957    2.7544 H   0  0  0  0  0  0  0  0  0  0  0  0
    2.7855   -3.6090    1.3868 H   0  0  0  0  0  0  0  0  0  0  0  0
    3.6790   -2.0764    1.4294 H   0  0  0  0  0  0  0  0  0  0  0  0
  1  2  1  0  0  0  0
  2  3  1  0  0  0  0
  2  4  1  0  0  0  0
  2  5  1  0  0  0  0
  5  6  2  0  0  0  0
  5  7  1  0  0  0  0
  7  8  1  0  0  0  0
  7  9  1  0  0  0  0
  9 10  1  0  0  0  0
  9 11  1  0  0  0  0
  9 18  1  0  0  0  0
 11 12  1  0  0  0  0
 11 13  1  0  0  0  0
 11 14  1  0  0  0  0
 14 15  2  0  0  0  0
 14 16  1  0  0  0  0
 16 17  1  0  0  0  0
 18 19  2  0  0  0  0
 18 20  1  0  0  0  0
 20 21  1  0  0  0  0
 20 22  1  0  0  0  0
 22 23  1  0  0  0  0
 22 24  1  0  0  0  0
 22 25  1  0  0  0  0
M  END
$$$$

  -OEChem-01062216063D

 25 24  0     1  0  0  0  0  0999 V2000
   -3.2047   -3.2210    0.8847 H   0  0  0  0  0  0  0  0  0  0  0  0
   -3.0677   -2.1695    0.6166 C   0  0  0  0  0  0  0  0  0  0  0  0
   -3.5724   -1.5500    1.3620 H   0  0  0  0  0  0  0  0  0  0  0  0
   -3.5213   -1.9937   -0.3620 H   0  0  0  0  0  0  0  0  0  0  0  0
   -1.5896   -1.8286    0.5723 C   0  0  0  0  0  0  0  0  0  0  0  0
   -0.7794   -2.7306    0.6816 O   0  0  0  0  0  0  0  0  0  0  0  0
   -1.2219   -0.5205    0.3115 N   0  0  0  0  0  0  0  0  0  0  0  0
   -2.0100    0.0997    0.1481 H   0  0  0  0  0  0  0  0  0  0  0  0
    0.1051    0.1435    0.3698 C   0  0  1  0  0  0  0  0  0  0  0  0
    0.4688    0.2450   -0.6583 H   0  0  0  0  0  0  0  0  0  0  0  0
   -0.1694    1.5579    0.9469 C   0  0  0  0  0  0  0  0  0  0  0  0
   -0.7027    1.4670    1.8974 H   0  0  0  0  0  0  0  0  0  0  0  0
    0.7762    2.0669    1.1541 H   0  0  0  0  0  0  0  0  0  0  0  0
   -0.9444    2.4797    0.0109 C   0  0  0  0  0  0  0  0  0  0  0  0
   -0.8437    2.3394   -1.1966 O   0  0  0  0  0  0  0  0  0  0  0  0
   -1.7338    3.4145    0.5876 O   0  0  0  0  0  0  0  0  0  0  0  0
   -2.1183    3.9298   -0.1381 H   0  0  0  0  0  0  0  0  0  0  0  0
    1.2945   -0.5501    1.1084 C   0  0  0  0  0  0  0  0  0  0  0  0
    1.9124    0.0416    1.9867 O   0  0  0  0  0  0  0  0  0  0  0  0
    1.7694   -1.7874    0.7182 N   0  0  0  0  0  0  0  0  0  0  0  0
    1.0677   -2.3708    0.2578 H   0  0  0  0  0  0  0  0  0  0  0  0
    2.8457   -2.4738    1.4228 C   0  0  0  0  0  0  0  0  0  0  0  0
    2.5626   -2.6633    2.4634 H   0  0  0  0  0  0  0  0  0  0  0  0
    3.0601   -3.4320    0.9402 H   0  0  0  0  0  0  0  0  0  0  0  0
    3.7595   -1.8706    1.4097 H   0  0  0  0  0  0  0  0  0  0  0  0
  1  2  1  0  0  0  0
  2  3  1  0  0  0  0
  2  4  1  0  0  0  0
  2  5  1  0  0  0  0
  5  6  2  0  0  0  0
  5  7  1  0  0  0  0
  7  8  1  0  0  0  0
  7  9  1  0  0  0  0
  9 10  1  0  0  0  0
  9 11  1  0  0  0  0
  9 18  1  0  0  0  0
 11 12  1  0  0  0  0
 11 13  1  0  0  0  0
 11 14  1  0  0  0  0
 14 15  2  0  0  0  0
 14 16  1  0  0  0  0
 16 17  1  0  0  0  0
 18 19  2  0  0  0  0
 18 20  1  0  0  0  0
 20 21  1  0  0  0  0
 20 22  1  0  0  0  0
 22 23  1  0  0  0  0
 22 24  1  0  0  0  0
 22 25  1  0  0  0  0
M  END
$$$$

  -OEChem-01062216063D

 25 24  0     1  0  0  0  0  0999 V2000
   -3.0352   -3.2946    0.9099 H   0  0  0  0  0  0  0  0  0  0  0  0
   -2.9599   -2.2268    0.6851 C   0  0  0  0  0  0  0  0  0  0  0  0
   -3.4169   -1.6642    1.5028 H   0  0  0  0  0  0  0  0  0  0  0  0
   -3.5049   -2.0226   -0.2396 H   0  0  0  0  0  0  0  0  0  0  0  0
   -1.5047   -1.8259    0.5304 C   0  0  0  0  0  0  0  0  0  0  0  0
   -0.6481   -2.6925    0.5415 O   0  0  0  0  0  0  0  0  0  0  0  0
   -1.2006   -0.5038    0.2605 N   0  0  0  0  0  0  0  0  0  0  0  0
   -2.0114    0.1037    0.1864 H   0  0  0  0  0  0  0  0  0  0  0  0
    0.1122    0.1791    0.3402 C   0  0  1  0  0  0  0  0  0  0  0  0
    0.4978    0.2906   -0.6789 H   0  0  0  0  0  0  0  0  0  0  0  0
   -0.1645    1.5860    0.9267 C   0  0  0  0  0  0  0  0  0  0  0  0
   -0.7071    1.4866    1.8713 H   0  0  0  0  0  0  0  0  0  0  0  0
    0.7841    2.0834    1.1494 H   0  0  0  0  0  0  0  0  0  0  0  0
   -0.9342    2.5160   -0.0053 C   0  0  0  0  0  0  0  0  0  0  0  0
   -0.8264    2.3857   -1.2133 O   0  0  0  0  0  0  0  0  0  0  0  0
   -1.7285    3.4445    0.5749 O   0  0  0  0  0  0  0  0  0  0  0  0
   -2.1143    3.9618   -0.1488 H   0  0  0  0  0  0  0  0  0  0  0  0
    1.2641   -0.5316    1.1120 C   0  0  0  0  0  0  0  0  0  0  0  0
    1.6880   -0.0705    2.1663 O   0  0  0  0  0  0  0  0  0  0  0  0
    1.9239   -1.6083    0.5499 N   0  0  0  0  0  0  0  0  0  0  0  0
    1.3378   -2.1562   -0.0803 H   0  0  0  0  0  0  0  0  0  0  0  0
    2.9781   -2.3247    1.2580 C   0  0  0  0  0  0  0  0  0  0  0  0
    2.5826   -2.7825    2.1708 H   0  0  0  0  0  0  0  0  0  0  0  0
    3.3895   -3.1141    0.6219 H   0  0  0  0  0  0  0  0  0  0  0  0
    3.7920   -1.6439    1.5291 H   0  0  0  0  0  0  0  0  0  0  0  0
  1  2  1  0  0  0  0
  2  3  1  0  0  0  0
  2  4  1  0  0  0  0
  2  5  1  0  0  0  0
  5  6  2  0  0  0  0
  5  7  1  0  0  0  0
  7  8  1  0  0  0  0
  7  9  1  0  0  0  0
  9 10  1  0  0  0  0
  9 11  1  0  0  0  0
  9 18  1  0  0  0  0
 11 12  1  0  0  0  0
 11 13  1  0  0  0  0
 11 14  1  0  0  0  0
 14 15  2  0  0  0  0
 14 16  1  0  0  0  0
 16 17  1  0  0  0  0
 18 19  2  0  0  0  0
 18 20  1  0  0  0  0
 20 21  1  0  0  0  0
 20 22  1  0  0  0  0
 22 23  1  0  0  0  0
 22 24  1  0  0  0  0
 22 25  1  0  0  0  0
M  END
$$$$

  -OEChem-01062216063D

 25 24  0     1  0  0  0  0  0999 V2000
   -2.9056   -3.3395    0.9637 H   0  0  0  0  0  0  0  0  0  0  0  0
   -2.8763   -2.2714    0.7295 C   0  0  0  0  0  0  0  0  0  0  0  0
   -3.3148   -1.7181    1.5635 H   0  0  0  0  0  0  0  0  0  0  0  0
   -3.4678   -2.0919   -0.1714 H   0  0  0  0  0  0  0  0  0  0  0  0
   -1.4439   -1.8237    0.5078 C   0  0  0  0  0  0  0  0  0  0  0  0
   -0.5577   -2.6607    0.4702 O   0  0  0  0  0  0  0  0  0  0  0  0
   -1.1908   -0.4933    0.2238 N   0  0  0  0  0  0  0  0  0  0  0  0
   -2.0159    0.0987    0.2091 H   0  0  0  0  0  0  0  0  0  0  0  0
    0.1109    0.2048    0.3127 C   0  0  1  0  0  0  0  0  0  0  0  0
    0.5061    0.3233   -0.7018 H   0  0  0  0  0  0  0  0  0  0  0  0
   -0.1626    1.6053    0.9108 C   0  0  0  0  0  0  0  0  0  0  0  0
   -0.7068    1.4966    1.8536 H   0  0  0  0  0  0  0  0  0  0  0  0
    0.7891    2.0932    1.1414 H   0  0  0  0  0  0  0  0  0  0  0  0
   -0.9342    2.5443   -0.0102 C   0  0  0  0  0  0  0  0  0  0  0  0
   -0.8300    2.4240   -1.2195 O   0  0  0  0  0  0  0  0  0  0  0  0
   -1.7201    3.4735    0.5805 O   0  0  0  0  0  0  0  0  0  0  0  0
   -2.1083    3.9970   -0.1373 H   0  0  0  0  0  0  0  0  0  0  0  0
    1.2383   -0.5129    1.1066 C   0  0  0  0  0  0  0  0  0  0  0  0
    1.4594   -0.2175    2.2762 O   0  0  0  0  0  0  0  0  0  0  0  0
    2.0992   -1.3774    0.4560 N   0  0  0  0  0  0  0  0  0  0  0  0
    1.7047   -1.8126   -0.3747 H   0  0  0  0  0  0  0  0  0  0  0  0
    3.1272   -2.1223    1.1728 C   0  0  0  0  0  0  0  0  0  0  0  0
    2.6691   -2.8009    1.9001 H   0  0  0  0  0  0  0  0  0  0  0  0
    3.7232   -2.7136    0.4711 H   0  0  0  0  0  0  0  0  0  0  0  0
    3.7997   -1.4394    1.7028 H   0  0  0  0  0  0  0  0  0  0  0  0
  1  2  1  0  0  0  0
  2  3  1  0  0  0  0
  2  4  1  0  0  0  0
  2  5  1  0  0  0  0
  5  6  2  0  0  0  0
  5  7  1  0  0  0  0
  7  8  1  0  0  0  0
  7  9  1  0  0  0  0
  9 10  1  0  0  0  0
  9 11  1  0  0  0  0
  9 18  1  0  0  0  0
 11 12  1  0  0  0  0
 11 13  1  0  0  0  0
 11 14  1  0  0  0  0
 14 15  2  0  0  0  0
 14 16  1  0  0  0  0
 16 17  1  0  0  0  0
 18 19  2  0  0  0  0
 18 20  1  0  0  0  0
 20 21  1  0  0  0  0
 20 22  1  0  0  0  0
 22 23  1  0  0  0  0
 22 24  1  0  0  0  0
 22 25  1  0  0  0  0
M  END
$$$$

  -OEChem-01062216063D

 25 24  0     1  0  0  0  0  0999 V2000
   -2.8312   -3.3614    0.9914 H   0  0  0  0  0  0  0  0  0  0  0  0
   -2.8292   -2.2921    0.7619 C   0  0  0  0  0  0  0  0  0  0  0  0
   -3.2400   -1.7500    1.6171 H   0  0  0  0  0  0  0  0  0  0  0  0
   -3.4618   -2.1172   -0.1116 H   0  0  0  0  0  0  0  0  0  0  0  0
   -1.4144   -1.8215    0.4816 C   0  0  0  0  0  0  0  0  0  0  0  0
   -0.5177   -2.6442    0.3932 O   0  0  0  0  0  0  0  0  0  0  0  0
   -1.1900   -0.4872    0.1912 N   0  0  0  0  0  0  0  0  0  0  0  0
   -2.0198    0.0963    0.2323 H   0  0  0  0  0  0  0  0  0  0  0  0
    0.1069    0.2158    0.2931 C   0  0  1  0  0  0  0  0  0  0  0  0
    0.5095    0.3394   -0.7175 H   0  0  0  0  0  0  0  0  0  0  0  0
   -0.1648    1.6103    0.9016 C   0  0  0  0  0  0  0  0  0  0  0  0
   -0.7151    1.4947    1.8402 H   0  0  0  0  0  0  0  0  0  0  0  0
    0.7870    2.0915    1.1440 H   0  0  0  0  0  0  0  0  0  0  0  0
   -0.9319    2.5574   -0.0151 C   0  0  0  0  0  0  0  0  0  0  0  0
   -0.8235    2.4455   -1.2249 O   0  0  0  0  0  0  0  0  0  0  0  0
   -1.7195    3.4824    0.5792 O   0  0  0  0  0  0  0  0  0  0  0  0
   -2.1092    4.0070   -0.1371 H   0  0  0  0  0  0  0  0  0  0  0  0
    1.2178   -0.5046    1.1027 C   0  0  0  0  0  0  0  0  0  0  0  0
    1.2503   -0.4007    2.3242 O   0  0  0  0  0  0  0  0  0  0  0  0
    2.2685   -1.1197    0.4468 N   0  0  0  0  0  0  0  0  0  0  0  0
    2.0894   -1.3739   -0.5205 H   0  0  0  0  0  0  0  0  0  0  0  0
    3.2934   -1.8685    1.1637 C   0  0  0  0  0  0  0  0  0  0  0  0
    2.8467   -2.7215    1.6858 H   0  0  0  0  0  0  0  0  0  0  0  0
    4.0463   -2.2431    0.4638 H   0  0  0  0  0  0  0  0  0  0  0  0
    3.7958   -1.2295    1.8976 H   0  0  0  0  0  0  0  0  0  0  0  0
  1  2  1  0  0  0  0
  2  3  1  0  0  0  0
  2  4  1  0  0  0  0
  2  5  1  0  0  0  0
  5  6  2  0  0  0  0
  5  7  1  0  0  0  0
  7  8  1  0  0  0  0
  7  9  1  0  0  0  0
  9 10  1  0  0  0  0
  9 11  1  0  0  0  0
  9 18  1  0  0  0  0
 11 12  1  0  0  0  0
 11 13  1  0  0  0  0
 11 14  1  0  0  0  0
 14 15  2  0  0  0  0
 14 16  1  0  0  0  0
 16 17  1  0  0  0  0
 18 19  2  0  0  0  0
 18 20  1  0  0  0  0
 20 21  1  0  0  0  0
 20 22  1  0  0  0  0
 22 23  1  0  0  0  0
 22 24  1  0  0  0  0
 22 25  1  0  0  0  0
M  END
$$$$

  -OEChem-01062216063D

 25 24  0     1  0  0  0  0  0999 V2000
   -2.7991   -3.3733    0.9997 H   0  0  0  0  0  0  0  0  0  0  0  0
   -2.8078   -2.3012    0.7833 C   0  0  0  0  0  0  0  0  0  0  0  0
   -3.1809   -1.7698    1.6622 H   0  0  0  0  0  0  0  0  0  0  0  0
   -3.4774   -2.1167   -0.0599 H   0  0  0  0  0  0  0  0  0  0  0  0
   -1.4069   -1.8254    0.4482 C   0  0  0  0  0  0  0  0  0  0  0  0
   -0.5139   -2.6451    0.3054 O   0  0  0  0  0  0  0  0  0  0  0  0
   -1.1954   -0.4888    0.1582 N   0  0  0  0  0  0  0  0  0  0  0  0
   -2.0245    0.0910    0.2424 H   0  0  0  0  0  0  0  0  0  0  0  0
    0.1009    0.2122    0.2764 C   0  0  1  0  0  0  0  0  0  0  0  0
    0.5108    0.3389   -0.7307 H   0  0  0  0  0  0  0  0  0  0  0  0
   -0.1673    1.6011    0.8968 C   0  0  0  0  0  0  0  0  0  0  0  0
   -0.7249    1.4787    1.8303 H   0  0  0  0  0  0  0  0  0  0  0  0
    0.7855    2.0747    1.1502 H   0  0  0  0  0  0  0  0  0  0  0  0
   -0.9251    2.5599   -0.0159 C   0  0  0  0  0  0  0  0  0  0  0  0
   -0.8099    2.4581   -1.2260 O   0  0  0  0  0  0  0  0  0  0  0  0
   -1.7104    3.4846    0.5821 O   0  0  0  0  0  0  0  0  0  0  0  0
   -2.0955    4.0154   -0.1322 H   0  0  0  0  0  0  0  0  0  0  0  0
    1.1993   -0.5114    1.0982 C   0  0  0  0  0  0  0  0  0  0  0  0
    1.0851   -0.5976    2.3161 O   0  0  0  0  0  0  0  0  0  0  0  0
    2.4010   -0.8567    0.5067 N   0  0  0  0  0  0  0  0  0  0  0  0
    2.4021   -0.9113   -0.5074 H   0  0  0  0  0  0  0  0  0  0  0  0
    3.4477   -1.5673    1.2315 C   0  0  0  0  0  0  0  0  0  0  0  0
    3.0810   -2.5410    1.5736 H   0  0  0  0  0  0  0  0  0  0  0  0
    4.3135   -1.7298    0.5825 H   0  0  0  0  0  0  0  0  0  0  0  0
    3.7745   -0.9885    2.1017 H   0  0  0  0  0  0  0  0  0  0  0  0
  1  2  1  0  0  0  0
  2  3  1  0  0  0  0
  2  4  1  0  0  0  0
  2  5  1  0  0  0  0
  5  6  2  0  0  0  0
  5  7  1  0  0  0  0
  7  8  1  0  0  0  0
  7  9  1  0  0  0  0
  9 10  1  0  0  0  0
  9 11  1  0  0  0  0
  9 18  1  0  0  0  0
 11 12  1  0  0  0  0
 11 13  1  0  0  0  0
 11 14  1  0  0  0  0
 14 15  2  0  0  0  0
 14 16  1  0  0  0  0
 16 17  1  0  0  0  0
 18 19  2  0  0  0  0
 18 20  1  0  0  0  0
 20 21  1  0  0  0  0
 20 22  1  0  0  0  0
 22 23  1  0  0  0  0
 22 24  1  0  0  0  0
 22 25  1  0  0  0  0
M  END
$$$$

  -OEChem-01062216063D

 25 24  0     1  0  0  0  0  0999 V2000
   -2.7933   -3.3750    1.0059 H   0  0  0  0  0  0  0  0  0  0  0  0
   -2.8047   -2.3021    0.7947 C   0  0  0  0  0  0  0  0  0  0  0  0
   -3.1418   -1.7729    1.6893 H   0  0  0  0  0  0  0  0  0  0  0  0
   -3.5035   -2.1099   -0.0227 H   0  0  0  0  0  0  0  0  0  0  0  0
   -1.4144   -1.8324    0.4108 C   0  0  0  0  0  0  0  0  0  0  0  0
   -0.5357   -2.6558    0.2102 O   0  0  0  0  0  0  0  0  0  0  0  0
   -1.2026   -0.4949    0.1259 N   0  0  0  0  0  0  0  0  0  0  0  0
   -2.0257    0.0861    0.2486 H   0  0  0  0  0  0  0  0  0  0  0  0
    0.0977    0.1955    0.2597 C   0  0  1  0  0  0  0  0  0  0  0  0
    0.5141    0.3248   -0.7444 H   0  0  0  0  0  0  0  0  0  0  0  0
   -0.1642    1.5779    0.8951 C   0  0  0  0  0  0  0  0  0  0  0  0
   -0.7270    1.4468    1.8241 H   0  0  0  0  0  0  0  0  0  0  0  0
    0.7897    2.0429    1.1594 H   0  0  0  0  0  0  0  0  0  0  0  0
   -0.9102    2.5531   -0.0097 C   0  0  0  0  0  0  0  0  0  0  0  0
   -0.7891    2.4657   -1.2201 O   0  0  0  0  0  0  0  0  0  0  0  0
   -1.6915    3.4761    0.5959 O   0  0  0  0  0  0  0  0  0  0  0  0
   -2.0724    4.0165   -0.1135 H   0  0  0  0  0  0  0  0  0  0  0  0
    1.1877   -0.5331    1.0873 C   0  0  0  0  0  0  0  0  0  0  0  0
    0.9738   -0.7930    2.2666 O   0  0  0  0  0  0  0  0  0  0  0  0
    2.4863   -0.6056    0.6152 N   0  0  0  0  0  0  0  0  0  0  0  0
    2.6195   -0.4640   -0.3815 H   0  0  0  0  0  0  0  0  0  0  0  0
    3.5598   -1.2367    1.3738 C   0  0  0  0  0  0  0  0  0  0  0  0
    3.3206   -2.2868    1.5733 H   0  0  0  0  0  0  0  0  0  0  0  0
    4.4969   -1.1948    0.8106 H   0  0  0  0  0  0  0  0  0  0  0  0
    3.7091   -0.7222    2.3290 H   0  0  0  0  0  0  0  0  0  0  0  0
  1  2  1  0  0  0  0
  2  3  1  0  0  0  0
  2  4  1  0  0  0  0
  2  5  1  0  0  0  0
  5  6  2  0  0  0  0
  5  7  1  0  0  0  0
  7  8  1  0  0  0  0
  7  9  1  0  0  0  0
  9 10  1  0  0  0  0
  9 11  1  0  0  0  0
  9 18  1  0  0  0  0
 11 12  1  0  0  0  0
 11 13  1  0  0  0  0
 11 14  1  0  0  0  0
 14 15  2  0  0  0  0
 14 16  1  0  0  0  0
 16 17  1  0  0  0  0
 18 19  2  0  0  0  0
 18 20  1  0  0  0  0
 20 21  1  0  0  0  0
 20 22  1  0  0  0  0
 22 23  1  0  0  0  0
 22 24  1  0  0  0  0
 22 25  1  0  0  0  0
M  END
$$$$

  -OEChem-01062216063D

 25 24  0     1  0  0  0  0  0999 V2000
   -2.7945   -3.3836    0.9658 H   0  0  0  0  0  0  0  0  0  0  0  0
   -2.7951   -2.3003    0.8155 C   0  0  0  0  0  0  0  0  0  0  0  0
   -3.0601   -1.8163    1.7585 H   0  0  0  0  0  0  0  0  0  0  0  0
   -3.5421   -2.0488    0.0590 H   0  0  0  0  0  0  0  0  0  0  0  0
   -1.4222   -1.8369    0.3664 C   0  0  0  0  0  0  0  0  0  0  0  0
   -0.5667   -2.6631    0.0901 O   0  0  0  0  0  0  0  0  0  0  0  0
   -1.2064   -0.4979    0.0922 N   0  0  0  0  0  0  0  0  0  0  0  0
   -2.0208    0.0844    0.2578 H   0  0  0  0  0  0  0  0  0  0  0  0
    0.1002    0.1781    0.2442 C   0  0  1  0  0  0  0  0  0  0  0  0
    0.5249    0.3111   -0.7562 H   0  0  0  0  0  0  0  0  0  0  0  0
   -0.1610    1.5546    0.8928 C   0  0  0  0  0  0  0  0  0  0  0  0
   -0.7344    1.4155    1.8144 H   0  0  0  0  0  0  0  0  0  0  0  0
    0.7917    2.0134    1.1725 H   0  0  0  0  0  0  0  0  0  0  0  0
   -0.8925    2.5439   -0.0088 C   0  0  0  0  0  0  0  0  0  0  0  0
   -0.7590    2.4698   -1.2188 O   0  0  0  0  0  0  0  0  0  0  0  0
   -1.6764    3.4629    0.5992 O   0  0  0  0  0  0  0  0  0  0  0  0
   -2.0502    4.0107   -0.1084 H   0  0  0  0  0  0  0  0  0  0  0  0
    1.1853   -0.5567    1.0743 C   0  0  0  0  0  0  0  0  0  0  0  0
    0.9048   -0.9889    2.1872 O   0  0  0  0  0  0  0  0  0  0  0  0
    2.5226   -0.3662    0.7720 N   0  0  0  0  0  0  0  0  0  0  0  0
    2.7421   -0.0257   -0.1590 H   0  0  0  0  0  0  0  0  0  0  0  0
    3.6009   -0.9227    1.5813 C   0  0  0  0  0  0  0  0  0  0  0  0
    3.5106   -2.0126    1.6411 H   0  0  0  0  0  0  0  0  0  0  0  0
    4.5712   -0.6788    1.1384 H   0  0  0  0  0  0  0  0  0  0  0  0
    3.5720   -0.5109    2.5957 H   0  0  0  0  0  0  0  0  0  0  0  0
  1  2  1  0  0  0  0
  2  3  1  0  0  0  0
  2  4  1  0  0  0  0
  2  5  1  0  0  0  0
  5  6  2  0  0  0  0
  5  7  1  0  0  0  0
  7  8  1  0  0  0  0
  7  9  1  0  0  0  0
  9 10  1  0  0  0  0
  9 11  1  0  0  0  0
  9 18  1  0  0  0  0
 11 12  1  0  0  0  0
 11 13  1  0  0  0  0
 11 14  1  0  0  0  0
 14 15  2  0  0  0  0
 14 16  1  0  0  0  0
 16 17  1  0  0  0  0
 18 19  2  0  0  0  0
 18 20  1  0  0  0  0
 20 21  1  0  0  0  0
 20 22  1  0  0  0  0
 22 23  1  0  0  0  0
 22 24  1  0  0  0  0
 22 25  1  0  0  0  0
M  END
$$$$

  -OEChem-01062216063D

 25 24  0     1  0  0  0  0  0999 V2000
   -2.8131   -3.3727    0.9521 H   0  0  0  0  0  0  0  0  0  0  0  0
   -2.7965   -2.2863    0.8289 C   0  0  0  0  0  0  0  0  0  0  0  0
   -3.0129   -1.8215    1.7938 H   0  0  0  0  0  0  0  0  0  0  0  0
   -3.5668   -1.9998    0.1092 H   0  0  0  0  0  0  0  0  0  0  0  0
   -1.4329   -1.8400    0.3368 C   0  0  0  0  0  0  0  0  0  0  0  0
   -0.6106   -2.6741   -0.0081 O   0  0  0  0  0  0  0  0  0  0  0  0
   -1.2022   -0.5014    0.0750 N   0  0  0  0  0  0  0  0  0  0  0  0
   -2.0063    0.0862    0.2688 H   0  0  0  0  0  0  0  0  0  0  0  0
    0.1125    0.1584    0.2353 C   0  0  1  0  0  0  0  0  0  0  0  0
    0.5391    0.2963   -0.7639 H   0  0  0  0  0  0  0  0  0  0  0  0
   -0.1556    1.5298    0.8954 C   0  0  0  0  0  0  0  0  0  0  0  0
   -0.7369    1.3807    1.8105 H   0  0  0  0  0  0  0  0  0  0  0  0
    0.7911    1.9916    1.1884 H   0  0  0  0  0  0  0  0  0  0  0  0
   -0.8809    2.5266   -0.0030 C   0  0  0  0  0  0  0  0  0  0  0  0
   -0.7379    2.4642   -1.2122 O   0  0  0  0  0  0  0  0  0  0  0  0
   -1.6716    3.4379    0.6077 O   0  0  0  0  0  0  0  0  0  0  0  0
   -2.0447    3.9888   -0.0980 H   0  0  0  0  0  0  0  0  0  0  0  0
    1.2039   -0.5789    1.0595 C   0  0  0  0  0  0  0  0  0  0  0  0
    0.8977   -1.1830    2.0815 O   0  0  0  0  0  0  0  0  0  0  0  0
    2.5183   -0.1529    0.9601 N   0  0  0  0  0  0  0  0  0  0  0  0
    2.7749    0.3712    0.1292 H   0  0  0  0  0  0  0  0  0  0  0  0
    3.5818   -0.6433    1.8306 C   0  0  0  0  0  0  0  0  0  0  0  0
    3.6527   -1.7347    1.7710 H   0  0  0  0  0  0  0  0  0  0  0  0
    4.5441   -0.2171    1.5312 H   0  0  0  0  0  0  0  0  0  0  0  0
    3.3876   -0.3595    2.8704 H   0  0  0  0  0  0  0  0  0  0  0  0
  1  2  1  0  0  0  0
  2  3  1  0  0  0  0
  2  4  1  0  0  0  0
  2  5  1  0  0  0  0
  5  6  2  0  0  0  0
  5  7  1  0  0  0  0
  7  8  1  0  0  0  0
  7  9  1  0  0  0  0
  9 10  1  0  0  0  0
  9 11  1  0  0  0  0
  9 18  1  0  0  0  0
 11 12  1  0  0  0  0
 11 13  1  0  0  0  0
 11 14  1  0  0  0  0
 14 15  2  0  0  0  0
 14 16  1  0  0  0  0
 16 17  1  0  0  0  0
 18 19  2  0  0  0  0
 18 20  1  0  0  0  0
 20 21  1  0  0  0  0
 20 22  1  0  0  0  0
 22 23  1  0  0  0  0
 22 24  1  0  0  0  0
 22 25  1  0  0  0  0
M  END
$$$$

  -OEChem-01062216063D

 25 24  0     1  0  0  0  0  0999 V2000
   -2.9113   -3.2730    1.0603 H   0  0  0  0  0  0  0  0  0  0  0  0
   -2.8303   -2.1896    0.9334 C   0  0  0  0  0  0  0  0  0  0  0  0
   -2.9062   -1.7163    1.9151 H   0  0  0  0  0  0  0  0  0  0  0  0
   -3.6523   -1.8443    0.3021 H   0  0  0  0  0  0  0  0  0  0  0  0
   -1.4999   -1.8405    0.2934 C   0  0  0  0  0  0  0  0  0  0  0  0
   -0.8488   -2.7187   -0.2466 O   0  0  0  0  0  0  0  0  0  0  0  0
   -1.1913   -0.5160    0.0452 N   0  0  0  0  0  0  0  0  0  0  0  0
   -1.9647    0.1030    0.2631 H   0  0  0  0  0  0  0  0  0  0  0  0
    0.1448    0.1085    0.2001 C   0  0  1  0  0  0  0  0  0  0  0  0
    0.4451    0.4855   -0.7830 H   0  0  0  0  0  0  0  0  0  0  0  0
   -0.0768    1.2870    1.1827 C   0  0  0  0  0  0  0  0  0  0  0  0
   -0.5607    0.9117    2.0895 H   0  0  0  0  0  0  0  0  0  0  0  0
    0.8807    1.7149    1.4885 H   0  0  0  0  0  0  0  0  0  0  0  0
   -0.9028    2.4354    0.6108 C   0  0  0  0  0  0  0  0  0  0  0  0
   -0.8800    2.6545   -0.5881 O   0  0  0  0  0  0  0  0  0  0  0  0
   -1.6418    3.1537    1.4860 O   0  0  0  0  0  0  0  0  0  0  0  0
   -2.0890    3.8395    0.9657 H   0  0  0  0  0  0  0  0  0  0  0  0
    1.3638   -0.7308    0.6923 C   0  0  0  0  0  0  0  0  0  0  0  0
    1.2202   -1.7035    1.4198 O   0  0  0  0  0  0  0  0  0  0  0  0
    2.5913   -0.0948    0.8083 N   0  0  0  0  0  0  0  0  0  0  0  0
    2.7297    0.7487    0.2605 H   0  0  0  0  0  0  0  0  0  0  0  0
    3.7465   -0.6837    1.4795 C   0  0  0  0  0  0  0  0  0  0  0  0
    3.9962   -1.6523    1.0334 H   0  0  0  0  0  0  0  0  0  0  0  0
    4.6154   -0.0255    1.3854 H   0  0  0  0  0  0  0  0  0  0  0  0
    3.5386   -0.8295    2.5448 H   0  0  0  0  0  0  0  0  0  0  0  0
  1  2  1  0  0  0  0
  2  3  1  0  0  0  0
  2  4  1  0  0  0  0
  2  5  1  0  0  0  0
  5  6  2  0  0  0  0
  5  7  1  0  0  0  0
  7  8  1  0  0  0  0
  7  9  1  0  0  0  0
  9 10  1  0  0  0  0
  9 11  1  0  0  0  0
  9 18  1  0  0  0  0
 11 12  1  0  0  0  0
 11 13  1  0  0  0  0
 11 14  1  0  0  0  0
 14 15  2  0  0  0  0
 14 16  1  0  0  0  0
 16 17  1  0  0  0  0
 18 19  2  0  0  0  0
 18 20  1  0  0  0  0
 20 21  1  0  0  0  0
 20 22  1  0  0  0  0
 22 23  1  0  0  0  0
 22 24  1  0  0  0  0
 22 25  1  0  0  0  0
M  END
$$$$

  -OEChem-01062216063D

 25 24  0     1  0  0  0  0  0999 V2000
   -2.8177   -3.4303    0.9166 H   0  0  0  0  0  0  0  0  0  0  0  0
   -2.7228   -2.4564    0.4282 C   0  0  0  0  0  0  0  0  0  0  0  0
   -3.6734   -1.9244    0.5103 H   0  0  0  0  0  0  0  0  0  0  0  0
   -2.4890   -2.6163   -0.6269 H   0  0  0  0  0  0  0  0  0  0  0  0
   -1.6176   -1.6514    1.0854 C   0  0  0  0  0  0  0  0  0  0  0  0
   -1.1770   -2.0067    2.1665 O   0  0  0  0  0  0  0  0  0  0  0  0
   -1.3268   -0.3815    0.6220 N   0  0  0  0  0  0  0  0  0  0  0  0
   -1.9375   -0.1056   -0.1419 H   0  0  0  0  0  0  0  0  0  0  0  0
    0.0331    0.1993    0.5254 C   0  0  1  0  0  0  0  0  0  0  0  0
    0.2375    0.4410   -0.5230 H   0  0  0  0  0  0  0  0  0  0  0  0
   -0.0550    1.5011    1.3604 C   0  0  0  0  0  0  0  0  0  0  0  0
   -0.4446    1.2627    2.3555 H   0  0  0  0  0  0  0  0  0  0  0  0
    0.9311    1.9477    1.4940 H   0  0  0  0  0  0  0  0  0  0  0  0
   -0.9316    2.5769    0.7246 C   0  0  0  0  0  0  0  0  0  0  0  0
   -1.0438    2.6231   -0.4903 O   0  0  0  0  0  0  0  0  0  0  0  0
   -1.5254    3.4573    1.5624 O   0  0  0  0  0  0  0  0  0  0  0  0
   -2.0345    4.0645    1.0040 H   0  0  0  0  0  0  0  0  0  0  0  0
    1.2545   -0.6657    0.9619 C   0  0  0  0  0  0  0  0  0  0  0  0
    1.2959   -1.8520    0.6611 O   0  0  0  0  0  0  0  0  0  0  0  0
    2.4865   -0.0697    1.1863 N   0  0  0  0  0  0  0  0  0  0  0  0
    2.5001    0.9313    1.3478 H   0  0  0  0  0  0  0  0  0  0  0  0
    3.7251   -0.8208    1.3656 C   0  0  0  0  0  0  0  0  0  0  0  0
    3.9816   -1.3622    0.4488 H   0  0  0  0  0  0  0  0  0  0  0  0
    4.5480   -0.1416    1.6077 H   0  0  0  0  0  0  0  0  0  0  0  0
    3.6204   -1.5420    2.1833 H   0  0  0  0  0  0  0  0  0  0  0  0
  1  2  1  0  0  0  0
  2  3  1  0  0  0  0
  2  4  1  0  0  0  0
  2  5  1  0  0  0  0
  5  6  2  0  0  0  0
  5  7  1  0  0  0  0
  7  8  1  0  0  0  0
  7  9  1  0  0  0  0
  9 10  1  0  0  0  0
  9 11  1  0  0  0  0
  9 18  1  0  0  0  0
 11 12  1  0  0  0  0
 11 13  1  0  0  0  0
 11 14  1  0  0  0  0
 14 15  2  0  0  0  0
 14 16  1  0  0  0  0
 16 17  1  0  0  0  0
 18 19  2  0  0  0  0
 18 20  1  0  0  0  0
 20 21  1  0  0  0  0
 20 22  1  0  0  0  0
 22 23  1  0  0  0  0
 22 24  1  0  0  0  0
 22 25  1  0  0  0  0
M  END
$$$$

  -OEChem-01062216063D

 25 24  0     1  0  0  0  0  0999 V2000
   -2.7851   -3.4421    0.9199 H   0  0  0  0  0  0  0  0  0  0  0  0
   -2.7217   -2.4561    0.4511 C   0  0  0  0  0  0  0  0  0  0  0  0
   -3.6704   -1.9339    0.5946 H   0  0  0  0  0  0  0  0  0  0  0  0
   -2.5418   -2.5887   -0.6185 H   0  0  0  0  0  0  0  0  0  0  0  0
   -1.5895   -1.6583    1.0699 C   0  0  0  0  0  0  0  0  0  0  0  0
   -1.0730   -2.0500    2.1041 O   0  0  0  0  0  0  0  0  0  0  0  0
   -1.3265   -0.3786    0.6148 N   0  0  0  0  0  0  0  0  0  0  0  0
   -1.9571   -0.0971   -0.1308 H   0  0  0  0  0  0  0  0  0  0  0  0
    0.0227    0.2239    0.5109 C   0  0  1  0  0  0  0  0  0  0  0  0
    0.2225    0.4618   -0.5394 H   0  0  0  0  0  0  0  0  0  0  0  0
   -0.0651    1.5333    1.3327 C   0  0  0  0  0  0  0  0  0  0  0  0
   -0.4380    1.3054    2.3364 H   0  0  0  0  0  0  0  0  0  0  0  0
    0.9205    1.9892    1.4388 H   0  0  0  0  0  0  0  0  0  0  0  0
   -0.9542    2.5970    0.6941 C   0  0  0  0  0  0  0  0  0  0  0  0
   -1.0796    2.6311   -0.5197 O   0  0  0  0  0  0  0  0  0  0  0  0
   -1.5429    3.4833    1.5292 O   0  0  0  0  0  0  0  0  0  0  0  0
   -2.0549    4.0861    0.9684 H   0  0  0  0  0  0  0  0  0  0  0  0
    1.2351   -0.6566    0.9382 C   0  0  0  0  0  0  0  0  0  0  0  0
    1.3535   -1.7654    0.4301 O   0  0  0  0  0  0  0  0  0  0  0  0
    2.3884   -0.0999    1.4690 N   0  0  0  0  0  0  0  0  0  0  0  0
    2.3037    0.8153    1.8974 H   0  0  0  0  0  0  0  0  0  0  0  0
    3.6025   -0.8704    1.7169 C   0  0  0  0  0  0  0  0  0  0  0  0
    4.0090   -1.2588    0.7771 H   0  0  0  0  0  0  0  0  0  0  0  0
    4.3626   -0.2386    2.1858 H   0  0  0  0  0  0  0  0  0  0  0  0
    3.3919   -1.7131    2.3842 H   0  0  0  0  0  0  0  0  0  0  0  0
  1  2  1  0  0  0  0
  2  3  1  0  0  0  0
  2  4  1  0  0  0  0
  2  5  1  0  0  0  0
  5  6  2  0  0  0  0
  5  7  1  0  0  0  0
  7  8  1  0  0  0  0
  7  9  1  0  0  0  0
  9 10  1  0  0  0  0
  9 11  1  0  0  0  0
  9 18  1  0  0  0  0
 11 12  1  0  0  0  0
 11 13  1  0  0  0  0
 11 14  1  0  0  0  0
 14 15  2  0  0  0  0
 14 16  1  0  0  0  0
 16 17  1  0  0  0  0
 18 19  2  0  0  0  0
 18 20  1  0  0  0  0
 20 21  1  0  0  0  0
 20 22  1  0  0  0  0
 22 23  1  0  0  0  0
 22 24  1  0  0  0  0
 22 25  1  0  0  0  0
M  END
$$$$

  -OEChem-01062216063D

 25 24  0     1  0  0  0  0  0999 V2000
   -2.7987   -3.4372    0.9355 H   0  0  0  0  0  0  0  0  0  0  0  0
   -2.7370   -2.4504    0.4679 C   0  0  0  0  0  0  0  0  0  0  0  0
   -3.6702   -1.9129    0.6517 H   0  0  0  0  0  0  0  0  0  0  0  0
   -2.6029   -2.5821   -0.6085 H   0  0  0  0  0  0  0  0  0  0  0  0
   -1.5675   -1.6734    1.0430 C   0  0  0  0  0  0  0  0  0  0  0  0
   -0.9860   -2.1062    2.0248 O   0  0  0  0  0  0  0  0  0  0  0  0
   -1.3209   -0.3860    0.5986 N   0  0  0  0  0  0  0  0  0  0  0  0
   -1.9723   -0.0890   -0.1230 H   0  0  0  0  0  0  0  0  0  0  0  0
    0.0186    0.2359    0.4921 C   0  0  1  0  0  0  0  0  0  0  0  0
    0.2120    0.4764   -0.5592 H   0  0  0  0  0  0  0  0  0  0  0  0
   -0.0671    1.5458    1.3121 C   0  0  0  0  0  0  0  0  0  0  0  0
   -0.4289    1.3199    2.3200 H   0  0  0  0  0  0  0  0  0  0  0  0
    0.9210    2.0020    1.4027 H   0  0  0  0  0  0  0  0  0  0  0  0
   -0.9660    2.6058    0.6814 C   0  0  0  0  0  0  0  0  0  0  0  0
   -1.1038    2.6393   -0.5308 O   0  0  0  0  0  0  0  0  0  0  0  0
   -1.5525    3.4877    1.5231 O   0  0  0  0  0  0  0  0  0  0  0  0
   -2.0698    4.0908    0.9674 H   0  0  0  0  0  0  0  0  0  0  0  0
    1.2323   -0.6449    0.9086 C   0  0  0  0  0  0  0  0  0  0  0  0
    1.4499   -1.6602    0.2578 O   0  0  0  0  0  0  0  0  0  0  0  0
    2.2573   -0.1682    1.7103 N   0  0  0  0  0  0  0  0  0  0  0  0
    2.0404    0.6296    2.2980 H   0  0  0  0  0  0  0  0  0  0  0  0
    3.4357   -0.9637    2.0360 C   0  0  0  0  0  0  0  0  0  0  0  0
    3.9945   -1.2124    1.1276 H   0  0  0  0  0  0  0  0  0  0  0  0
    4.0973   -0.4042    2.7041 H   0  0  0  0  0  0  0  0  0  0  0  0
    3.1430   -1.8935    2.5355 H   0  0  0  0  0  0  0  0  0  0  0  0
  1  2  1  0  0  0  0
  2  3  1  0  0  0  0
  2  4  1  0  0  0  0
  2  5  1  0  0  0  0
  5  6  2  0  0  0  0
  5  7  1  0  0  0  0
  7  8  1  0  0  0  0
  7  9  1  0  0  0  0
  9 10  1  0  0  0  0
  9 11  1  0  0  0  0
  9 18  1  0  0  0  0
 11 12  1  0  0  0  0
 11 13  1  0  0  0  0
 11 14  1  0  0  0  0
 14 15  2  0  0  0  0
 14 16  1  0  0  0  0
 16 17  1  0  0  0  0
 18 19  2  0  0  0  0
 18 20  1  0  0  0  0
 20 21  1  0  0  0  0
 20 22  1  0  0  0  0
 22 23  1  0  0  0  0
 22 24  1  0  0  0  0
 22 25  1  0  0  0  0
M  END
$$$$

  -OEChem-01062216063D

 25 24  0     1  0  0  0  0  0999 V2000
   -2.8133   -3.4331    0.9391 H   0  0  0  0  0  0  0  0  0  0  0  0
   -2.7577   -2.4417    0.4805 C   0  0  0  0  0  0  0  0  0  0  0  0
   -3.6742   -1.8939    0.7116 H   0  0  0  0  0  0  0  0  0  0  0  0
   -2.6734   -2.5615   -0.6024 H   0  0  0  0  0  0  0  0  0  0  0  0
   -1.5525   -1.6891    1.0122 C   0  0  0  0  0  0  0  0  0  0  0  0
   -0.9165   -2.1623    1.9398 O   0  0  0  0  0  0  0  0  0  0  0  0
   -1.3132   -0.3968    0.5771 N   0  0  0  0  0  0  0  0  0  0  0  0
   -1.9824   -0.0816   -0.1202 H   0  0  0  0  0  0  0  0  0  0  0  0
    0.0188    0.2401    0.4735 C   0  0  1  0  0  0  0  0  0  0  0  0
    0.2081    0.4863   -0.5772 H   0  0  0  0  0  0  0  0  0  0  0  0
   -0.0642    1.5465    1.2968 C   0  0  0  0  0  0  0  0  0  0  0  0
   -0.4220    1.3181    2.3052 H   0  0  0  0  0  0  0  0  0  0  0  0
    0.9280    1.9968    1.3835 H   0  0  0  0  0  0  0  0  0  0  0  0
   -0.9681    2.6075    0.6755 C   0  0  0  0  0  0  0  0  0  0  0  0
   -1.1139    2.6454   -0.5354 O   0  0  0  0  0  0  0  0  0  0  0  0
   -1.5528    3.4835    1.5244 O   0  0  0  0  0  0  0  0  0  0  0  0
   -2.0708    4.0903    0.9735 H   0  0  0  0  0  0  0  0  0  0  0  0
    1.2373   -0.6323    0.8849 C   0  0  0  0  0  0  0  0  0  0  0  0
    1.5763   -1.5324    0.1264 O   0  0  0  0  0  0  0  0  0  0  0  0
    2.0948   -0.2790    1.9136 N   0  0  0  0  0  0  0  0  0  0  0  0
    1.7255    0.3730    2.5978 H   0  0  0  0  0  0  0  0  0  0  0  0
    3.2297   -1.1091    2.3003 C   0  0  0  0  0  0  0  0  0  0  0  0
    3.9305   -1.2157    1.4656 H   0  0  0  0  0  0  0  0  0  0  0  0
    3.7634   -0.6537    3.1397 H   0  0  0  0  0  0  0  0  0  0  0  0
    2.8889   -2.1050    2.6035 H   0  0  0  0  0  0  0  0  0  0  0  0
  1  2  1  0  0  0  0
  2  3  1  0  0  0  0
  2  4  1  0  0  0  0
  2  5  1  0  0  0  0
  5  6  2  0  0  0  0
  5  7  1  0  0  0  0
  7  8  1  0  0  0  0
  7  9  1  0  0  0  0
  9 10  1  0  0  0  0
  9 11  1  0  0  0  0
  9 18  1  0  0  0  0
 11 12  1  0  0  0  0
 11 13  1  0  0  0  0
 11 14  1  0  0  0  0
 14 15  2  0  0  0  0
 14 16  1  0  0  0  0
 16 17  1  0  0  0  0
 18 19  2  0  0  0  0
 18 20  1  0  0  0  0
 20 21  1  0  0  0  0
 20 22  1  0  0  0  0
 22 23  1  0  0  0  0
 22 24  1  0  0  0  0
 22 25  1  0  0  0  0
M  END
$$$$

  -OEChem-01062216063D

 25 24  0     1  0  0  0  0  0999 V2000
   -2.8609   -3.4217    0.9154 H   0  0  0  0  0  0  0  0  0  0  0  0
   -2.8058   -2.4167    0.4876 C   0  0  0  0  0  0  0  0  0  0  0  0
   -3.6917   -1.8546    0.7921 H   0  0  0  0  0  0  0  0  0  0  0  0
   -2.7901   -2.5009   -0.6016 H   0  0  0  0  0  0  0  0  0  0  0  0
   -1.5518   -1.7116    0.9696 C   0  0  0  0  0  0  0  0  0  0  0  0
   -0.8711   -2.2354    1.8355 O   0  0  0  0  0  0  0  0  0  0  0  0
   -1.3010   -0.4182    0.5443 N   0  0  0  0  0  0  0  0  0  0  0  0
   -1.9845   -0.0733   -0.1248 H   0  0  0  0  0  0  0  0  0  0  0  0
    0.0274    0.2278    0.4572 C   0  0  1  0  0  0  0  0  0  0  0  0
    0.2216    0.4813   -0.5914 H   0  0  0  0  0  0  0  0  0  0  0  0
   -0.0600    1.5284    1.2875 C   0  0  0  0  0  0  0  0  0  0  0  0
   -0.4256    1.2953    2.2917 H   0  0  0  0  0  0  0  0  0  0  0  0
    0.9352    1.9709    1.3859 H   0  0  0  0  0  0  0  0  0  0  0  0
   -0.9602    2.5947    0.6705 C   0  0  0  0  0  0  0  0  0  0  0  0
   -1.1012    2.6425   -0.5406 O   0  0  0  0  0  0  0  0  0  0  0  0
   -1.5518    3.4613    1.5245 O   0  0  0  0  0  0  0  0  0  0  0  0
   -2.0633    4.0759    0.9760 H   0  0  0  0  0  0  0  0  0  0  0  0
    1.2519   -0.6293    0.8768 C   0  0  0  0  0  0  0  0  0  0  0  0
    1.7481   -1.3730    0.0401 O   0  0  0  0  0  0  0  0  0  0  0  0
    1.9078   -0.4395    2.0815 N   0  0  0  0  0  0  0  0  0  0  0  0
    1.3677    0.0236    2.8054 H   0  0  0  0  0  0  0  0  0  0  0  0
    3.0211   -1.2840    2.4973 C   0  0  0  0  0  0  0  0  0  0  0  0
    3.8400   -1.2266    1.7723 H   0  0  0  0  0  0  0  0  0  0  0  0
    3.4009   -0.9573    3.4699 H   0  0  0  0  0  0  0  0  0  0  0  0
    2.6976   -2.3270    2.5817 H   0  0  0  0  0  0  0  0  0  0  0  0
  1  2  1  0  0  0  0
  2  3  1  0  0  0  0
  2  4  1  0  0  0  0
  2  5  1  0  0  0  0
  5  6  2  0  0  0  0
  5  7  1  0  0  0  0
  7  8  1  0  0  0  0
  7  9  1  0  0  0  0
  9 10  1  0  0  0  0
  9 11  1  0  0  0  0
  9 18  1  0  0  0  0
 11 12  1  0  0  0  0
 11 13  1  0  0  0  0
 11 14  1  0  0  0  0
 14 15  2  0  0  0  0
 14 16  1  0  0  0  0
 16 17  1  0  0  0  0
 18 19  2  0  0  0  0
 18 20  1  0  0  0  0
 20 21  1  0  0  0  0
 20 22  1  0  0  0  0
 22 23  1  0  0  0  0
 22 24  1  0  0  0  0
 22 25  1  0  0  0  0
M  END
$$$$

  -OEChem-01062216063D

 25 24  0     1  0  0  0  0  0999 V2000
   -2.9175   -3.4048    0.8948 H   0  0  0  0  0  0  0  0  0  0  0  0
   -2.8568   -2.3900    0.4915 C   0  0  0  0  0  0  0  0  0  0  0  0
   -3.7145   -1.8160    0.8502 H   0  0  0  0  0  0  0  0  0  0  0  0
   -2.8918   -2.4448   -0.5993 H   0  0  0  0  0  0  0  0  0  0  0  0
   -1.5659   -1.7277    0.9355 C   0  0  0  0  0  0  0  0  0  0  0  0
   -0.8578   -2.2964    1.7489 O   0  0  0  0  0  0  0  0  0  0  0  0
   -1.2944   -0.4366    0.5163 N   0  0  0  0  0  0  0  0  0  0  0  0
   -1.9881   -0.0608   -0.1255 H   0  0  0  0  0  0  0  0  0  0  0  0
    0.0343    0.2112    0.4450 C   0  0  1  0  0  0  0  0  0  0  0  0
    0.2341    0.4696   -0.6015 H   0  0  0  0  0  0  0  0  0  0  0  0
   -0.0535    1.5066    1.2822 C   0  0  0  0  0  0  0  0  0  0  0  0
   -0.4255    1.2703    2.2831 H   0  0  0  0  0  0  0  0  0  0  0  0
    0.9450    1.9397    1.3917 H   0  0  0  0  0  0  0  0  0  0  0  0
   -0.9463    2.5801    0.6671 C   0  0  0  0  0  0  0  0  0  0  0  0
   -1.0803    2.6361   -0.5445 O   0  0  0  0  0  0  0  0  0  0  0  0
   -1.5459    3.4390    1.5233 O   0  0  0  0  0  0  0  0  0  0  0  0
   -2.0506    4.0592    0.9750 H   0  0  0  0  0  0  0  0  0  0  0  0
    1.2636   -0.6305    0.8765 C   0  0  0  0  0  0  0  0  0  0  0  0
    1.9347   -1.1700    0.0062 O   0  0  0  0  0  0  0  0  0  0  0  0
    1.7112   -0.6452    2.1863 N   0  0  0  0  0  0  0  0  0  0  0  0
    1.0058   -0.4132    2.8793 H   0  0  0  0  0  0  0  0  0  0  0  0
    2.8159   -1.4968    2.6096 C   0  0  0  0  0  0  0  0  0  0  0  0
    3.7276   -1.2477    2.0562 H   0  0  0  0  0  0  0  0  0  0  0  0
    3.0131   -1.3579    3.6768 H   0  0  0  0  0  0  0  0  0  0  0  0
    2.5740   -2.5505    2.4343 H   0  0  0  0  0  0  0  0  0  0  0  0
  1  2  1  0  0  0  0
  2  3  1  0  0  0  0
  2  4  1  0  0  0  0
  2  5  1  0  0  0  0
  5  6  2  0  0  0  0
  5  7  1  0  0  0  0
  7  8  1  0  0  0  0
  7  9  1  0  0  0  0
  9 10  1  0  0  0  0
  9 11  1  0  0  0  0
  9 18  1  0  0  0  0
 11 12  1  0  0  0  0
 11 13  1  0  0  0  0
 11 14  1  0  0  0  0
 14 15  2  0  0  0  0
 14 16  1  0  0  0  0
 16 17  1  0  0  0  0
 18 19  2  0  0  0  0
 18 20  1  0  0  0  0
 20 21  1  0  0  0  0
 20 22  1  0  0  0  0
 22 23  1  0  0  0  0
 22 24  1  0  0  0  0
 22 25  1  0  0  0  0
M  END
$$$$

  -OEChem-01062216063D

 25 24  0     1  0  0  0  0  0999 V2000
   -3.0469   -3.3600    0.8773 H   0  0  0  0  0  0  0  0  0  0  0  0
   -2.9499   -2.3443    0.4830 C   0  0  0  0  0  0  0  0  0  0  0  0
   -3.7676   -1.7346    0.8745 H   0  0  0  0  0  0  0  0  0  0  0  0
   -3.0221   -2.3836   -0.6066 H   0  0  0  0  0  0  0  0  0  0  0  0
   -1.6157   -1.7490    0.8927 C   0  0  0  0  0  0  0  0  0  0  0  0
   -0.9001   -2.3731    1.6563 O   0  0  0  0  0  0  0  0  0  0  0  0
   -1.3019   -0.4642    0.4851 N   0  0  0  0  0  0  0  0  0  0  0  0
   -1.9982   -0.0452   -0.1268 H   0  0  0  0  0  0  0  0  0  0  0  0
    0.0342    0.1729    0.4376 C   0  0  1  0  0  0  0  0  0  0  0  0
    0.2437    0.4380   -0.6056 H   0  0  0  0  0  0  0  0  0  0  0  0
   -0.0509    1.4609    1.2850 C   0  0  0  0  0  0  0  0  0  0  0  0
   -0.4361    1.2188    2.2795 H   0  0  0  0  0  0  0  0  0  0  0  0
    0.9514    1.8804    1.4129 H   0  0  0  0  0  0  0  0  0  0  0  0
   -0.9245    2.5500    0.6700 C   0  0  0  0  0  0  0  0  0  0  0  0
   -1.0429    2.6190   -0.5424 O   0  0  0  0  0  0  0  0  0  0  0  0
   -1.5261    3.4071    1.5264 O   0  0  0  0  0  0  0  0  0  0  0  0
   -2.0097    4.0430    0.9770 H   0  0  0  0  0  0  0  0  0  0  0  0
    1.2703   -0.6516    0.8829 C   0  0  0  0  0  0  0  0  0  0  0  0
    2.1263   -0.9170    0.0488 O   0  0  0  0  0  0  0  0  0  0  0  0
    1.5251   -0.9064    2.2187 N   0  0  0  0  0  0  0  0  0  0  0  0
    0.6848   -0.9647    2.7899 H   0  0  0  0  0  0  0  0  0  0  0  0
    2.6714   -1.7013    2.6416 C   0  0  0  0  0  0  0  0  0  0  0  0
    3.6061   -1.2315    2.3178 H   0  0  0  0  0  0  0  0  0  0  0  0
    2.6900   -1.7862    3.7322 H   0  0  0  0  0  0  0  0  0  0  0  0
    2.6166   -2.7084    2.2145 H   0  0  0  0  0  0  0  0  0  0  0  0
  1  2  1  0  0  0  0
  2  3  1  0  0  0  0
  2  4  1  0  0  0  0
  2  5  1  0  0  0  0
  5  6  2  0  0  0  0
  5  7  1  0  0  0  0
  7  8  1  0  0  0  0
  7  9  1  0  0  0  0
  9 10  1  0  0  0  0
  9 11  1  0  0  0  0
  9 18  1  0  0  0  0
 11 12  1  0  0  0  0
 11 13  1  0  0  0  0
 11 14  1  0  0  0  0
 14 15  2  0  0  0  0
 14 16  1  0  0  0  0
 16 17  1  0  0  0  0
 18 19  2  0  0  0  0
 18 20  1  0  0  0  0
 20 21  1  0  0  0  0
 20 22  1  0  0  0  0
 22 23  1  0  0  0  0
 22 24  1  0  0  0  0
 22 25  1  0  0  0  0
M  END
$$$$

  -OEChem-01062216063D

 25 24  0     1  0  0  0  0  0999 V2000
   -3.1930   -3.3023    0.8110 H   0  0  0  0  0  0  0  0  0  0  0  0
   -3.0610   -2.2709    0.4714 C   0  0  0  0  0  0  0  0  0  0  0  0
   -3.8177   -1.6438    0.9490 H   0  0  0  0  0  0  0  0  0  0  0  0
   -3.2011   -2.2390   -0.6119 H   0  0  0  0  0  0  0  0  0  0  0  0
   -1.6728   -1.7747    0.8317 C   0  0  0  0  0  0  0  0  0  0  0  0
   -0.9576   -2.4809    1.5192 O   0  0  0  0  0  0  0  0  0  0  0  0
   -1.3017   -0.4994    0.4438 N   0  0  0  0  0  0  0  0  0  0  0  0
   -2.0039   -0.0204   -0.1151 H   0  0  0  0  0  0  0  0  0  0  0  0
    0.0412    0.1291    0.4269 C   0  0  1  0  0  0  0  0  0  0  0  0
    0.2648    0.4023   -0.6112 H   0  0  0  0  0  0  0  0  0  0  0  0
   -0.0565    1.4071    1.2875 C   0  0  0  0  0  0  0  0  0  0  0  0
   -0.4561    1.1532    2.2736 H   0  0  0  0  0  0  0  0  0  0  0  0
    0.9444    1.8232    1.4366 H   0  0  0  0  0  0  0  0  0  0  0  0
   -0.9135    2.5076    0.6702 C   0  0  0  0  0  0  0  0  0  0  0  0
   -1.0081    2.5928   -0.5432 O   0  0  0  0  0  0  0  0  0  0  0  0
   -1.5318    3.3532    1.5261 O   0  0  0  0  0  0  0  0  0  0  0  0
   -1.9997    4.0002    0.9761 H   0  0  0  0  0  0  0  0  0  0  0  0
    1.2895   -0.6687    0.8895 C   0  0  0  0  0  0  0  0  0  0  0  0
    2.2816   -0.6546    0.1722 O   0  0  0  0  0  0  0  0  0  0  0  0
    1.3971   -1.1830    2.1683 N   0  0  0  0  0  0  0  0  0  0  0  0
    0.4993   -1.4655    2.5629 H   0  0  0  0  0  0  0  0  0  0  0  0
    2.5732   -1.9266    2.6030 C   0  0  0  0  0  0  0  0  0  0  0  0
    3.4699   -1.3018    2.5357 H   0  0  0  0  0  0  0  0  0  0  0  0
    2.4544   -2.2451    3.6430 H   0  0  0  0  0  0  0  0  0  0  0  0
    2.7152   -2.8160    1.9802 H   0  0  0  0  0  0  0  0  0  0  0  0
  1  2  1  0  0  0  0
  2  3  1  0  0  0  0
  2  4  1  0  0  0  0
  2  5  1  0  0  0  0
  5  6  2  0  0  0  0
  5  7  1  0  0  0  0
  7  8  1  0  0  0  0
  7  9  1  0  0  0  0
  9 10  1  0  0  0  0
  9 11  1  0  0  0  0
  9 18  1  0  0  0  0
 11 12  1  0  0  0  0
 11 13  1  0  0  0  0
 11 14  1  0  0  0  0
 14 15  2  0  0  0  0
 14 16  1  0  0  0  0
 16 17  1  0  0  0  0
 18 19  2  0  0  0  0
 18 20  1  0  0  0  0
 20 21  1  0  0  0  0
 20 22  1  0  0  0  0
 22 23  1  0  0  0  0
 22 24  1  0  0  0  0
 22 25  1  0  0  0  0
M  END
$$$$

  -OEChem-01062216063D

 25 24  0     1  0  0  0  0  0999 V2000
   -3.3509   -3.2214    0.7546 H   0  0  0  0  0  0  0  0  0  0  0  0
   -3.1691   -2.1839    0.4597 C   0  0  0  0  0  0  0  0  0  0  0  0
   -3.8584   -1.5367    1.0073 H   0  0  0  0  0  0  0  0  0  0  0  0
   -3.3601   -2.0864   -0.6119 H   0  0  0  0  0  0  0  0  0  0  0  0
   -1.7358   -1.7933    0.7698 C   0  0  0  0  0  0  0  0  0  0  0  0
   -1.0322   -2.5872    1.3660 O   0  0  0  0  0  0  0  0  0  0  0  0
   -1.3063   -0.5294    0.4058 N   0  0  0  0  0  0  0  0  0  0  0  0
   -2.0083    0.0067   -0.0988 H   0  0  0  0  0  0  0  0  0  0  0  0
    0.0444    0.0867    0.4220 C   0  0  1  0  0  0  0  0  0  0  0  0
    0.2838    0.3684   -0.6103 H   0  0  0  0  0  0  0  0  0  0  0  0
   -0.0748    1.3560    1.2938 C   0  0  0  0  0  0  0  0  0  0  0  0
   -0.4984    1.0906    2.2666 H   0  0  0  0  0  0  0  0  0  0  0  0
    0.9217    1.7712    1.4738 H   0  0  0  0  0  0  0  0  0  0  0  0
   -0.9138    2.4655    0.6679 C   0  0  0  0  0  0  0  0  0  0  0  0
   -0.9771    2.5654   -0.5464 O   0  0  0  0  0  0  0  0  0  0  0  0
   -1.5556    3.2999    1.5178 O   0  0  0  0  0  0  0  0  0  0  0  0
   -2.0043    3.9574    0.9644 H   0  0  0  0  0  0  0  0  0  0  0  0
    1.3072   -0.6817    0.9011 C   0  0  0  0  0  0  0  0  0  0  0  0
    2.3654   -0.4390    0.3348 O   0  0  0  0  0  0  0  0  0  0  0  0
    1.3405   -1.4532    2.0465 N   0  0  0  0  0  0  0  0  0  0  0  0
    0.4354   -1.8522    2.3032 H   0  0  0  0  0  0  0  0  0  0  0  0
    2.5356   -2.1713    2.4721 C   0  0  0  0  0  0  0  0  0  0  0  0
    3.3612   -1.4738    2.6480 H   0  0  0  0  0  0  0  0  0  0  0  0
    2.3387   -2.7119    3.4028 H   0  0  0  0  0  0  0  0  0  0  0  0
    2.8407   -2.8933    1.7073 H   0  0  0  0  0  0  0  0  0  0  0  0
  1  2  1  0  0  0  0
  2  3  1  0  0  0  0
  2  4  1  0  0  0  0
  2  5  1  0  0  0  0
  5  6  2  0  0  0  0
  5  7  1  0  0  0  0
  7  8  1  0  0  0  0
  7  9  1  0  0  0  0
  9 10  1  0  0  0  0
  9 11  1  0  0  0  0
  9 18  1  0  0  0  0
 11 12  1  0  0  0  0
 11 13  1  0  0  0  0
 11 14  1  0  0  0  0
 14 15  2  0  0  0  0
 14 16  1  0  0  0  0
 16 17  1  0  0  0  0
 18 19  2  0  0  0  0
 18 20  1  0  0  0  0
 20 21  1  0  0  0  0
 20 22  1  0  0  0  0
 22 23  1  0  0  0  0
 22 24  1  0  0  0  0
 22 25  1  0  0  0  0
M  END
$$$$

  -OEChem-01062216063D

 25 24  0     1  0  0  0  0  0999 V2000
   -3.4874   -3.1370    0.7372 H   0  0  0  0  0  0  0  0  0  0  0  0
   -3.2584   -2.1041    0.4593 C   0  0  0  0  0  0  0  0  0  0  0  0
   -3.8927   -1.4341    1.0447 H   0  0  0  0  0  0  0  0  0  0  0  0
   -3.4802   -1.9707   -0.6024 H   0  0  0  0  0  0  0  0  0  0  0  0
   -1.7958   -1.7996    0.7271 C   0  0  0  0  0  0  0  0  0  0  0  0
   -1.1120   -2.6623    1.2441 O   0  0  0  0  0  0  0  0  0  0  0  0
   -1.3177   -0.5468    0.3849 N   0  0  0  0  0  0  0  0  0  0  0  0
   -2.0166    0.0348   -0.0710 H   0  0  0  0  0  0  0  0  0  0  0  0
    0.0421    0.0530    0.4221 C   0  0  1  0  0  0  0  0  0  0  0  0
    0.2916    0.3391   -0.6063 H   0  0  0  0  0  0  0  0  0  0  0  0
   -0.0932    1.3188    1.2996 C   0  0  0  0  0  0  0  0  0  0  0  0
   -0.5360    1.0479    2.2623 H   0  0  0  0  0  0  0  0  0  0  0  0
    0.8984    1.7345    1.5035 H   0  0  0  0  0  0  0  0  0  0  0  0
   -0.9164    2.4347    0.6643 C   0  0  0  0  0  0  0  0  0  0  0  0
   -0.9548    2.5434   -0.5503 O   0  0  0  0  0  0  0  0  0  0  0  0
   -1.5765    3.2624    1.5064 O   0  0  0  0  0  0  0  0  0  0  0  0
   -2.0103    3.9260    0.9483 H   0  0  0  0  0  0  0  0  0  0  0  0
    1.3166   -0.6987    0.9056 C   0  0  0  0  0  0  0  0  0  0  0  0
    2.3944   -0.2877    0.4940 O   0  0  0  0  0  0  0  0  0  0  0  0
    1.3356   -1.6986    1.8568 N   0  0  0  0  0  0  0  0  0  0  0  0
    0.4377   -2.1554    2.0259 H   0  0  0  0  0  0  0  0  0  0  0  0
    2.5476   -2.4087    2.2459 C   0  0  0  0  0  0  0  0  0  0  0  0
    3.2869   -1.7118    2.6544 H   0  0  0  0  0  0  0  0  0  0  0  0
    2.3165   -3.1539    3.0131 H   0  0  0  0  0  0  0  0  0  0  0  0
    2.9848   -2.9221    1.3832 H   0  0  0  0  0  0  0  0  0  0  0  0
  1  2  1  0  0  0  0
  2  3  1  0  0  0  0
  2  4  1  0  0  0  0
  2  5  1  0  0  0  0
  5  6  2  0  0  0  0
  5  7  1  0  0  0  0
  7  8  1  0  0  0  0
  7  9  1  0  0  0  0
  9 10  1  0  0  0  0
  9 11  1  0  0  0  0
  9 18  1  0  0  0  0
 11 12  1  0  0  0  0
 11 13  1  0  0  0  0
 11 14  1  0  0  0  0
 14 15  2  0  0  0  0
 14 16  1  0  0  0  0
 16 17  1  0  0  0  0
 18 19  2  0  0  0  0
 18 20  1  0  0  0  0
 20 21  1  0  0  0  0
 20 22  1  0  0  0  0
 22 23  1  0  0  0  0
 22 24  1  0  0  0  0
 22 25  1  0  0  0  0
M  END
$$$$

  -OEChem-01062216063D

 25 24  0     1  0  0  0  0  0999 V2000
   -2.9512   -3.4665    0.7410 H   0  0  0  0  0  0  0  0  0  0  0  0
   -2.7724   -2.4701    0.3263 C   0  0  0  0  0  0  0  0  0  0  0  0
   -3.6459   -1.8445    0.5256 H   0  0  0  0  0  0  0  0  0  0  0  0
   -2.6349   -2.5604   -0.7539 H   0  0  0  0  0  0  0  0  0  0  0  0
   -1.5380   -1.8530    0.9581 C   0  0  0  0  0  0  0  0  0  0  0  0
   -1.0385   -2.4177    1.9089 O   0  0  0  0  0  0  0  0  0  0  0  0
   -1.1388   -0.6058    0.5160 N   0  0  0  0  0  0  0  0  0  0  0  0
   -1.7507   -0.2433   -0.2108 H   0  0  0  0  0  0  0  0  0  0  0  0
    0.1385    0.1445    0.6360 C   0  0  1  0  0  0  0  0  0  0  0  0
    0.4893    0.3390   -0.3833 H   0  0  0  0  0  0  0  0  0  0  0  0
   -0.2968    1.4749    1.3043 C   0  0  0  0  0  0  0  0  0  0  0  0
   -0.8486    1.2533    2.2226 H   0  0  0  0  0  0  0  0  0  0  0  0
    0.5779    2.0651    1.5903 H   0  0  0  0  0  0  0  0  0  0  0  0
   -1.1458    2.3722    0.4089 C   0  0  0  0  0  0  0  0  0  0  0  0
   -1.0029    2.3276   -0.8028 O   0  0  0  0  0  0  0  0  0  0  0  0
   -2.0312    3.1901    1.0236 O   0  0  0  0  0  0  0  0  0  0  0  0
   -2.4576    3.7049    0.3219 H   0  0  0  0  0  0  0  0  0  0  0  0
    1.4378   -0.3565    1.3497 C   0  0  0  0  0  0  0  0  0  0  0  0
    2.4087    0.3859    1.3624 O   0  0  0  0  0  0  0  0  0  0  0  0
    1.6297   -1.3992    2.2198 N   0  0  0  0  0  0  0  0  0  0  0  0
    2.3675   -1.1524    2.8731 H   0  0  0  0  0  0  0  0  0  0  0  0
    1.8156   -2.7288    1.6491 C   0  0  0  0  0  0  0  0  0  0  0  0
    2.8777   -2.9092    1.4546 H   0  0  0  0  0  0  0  0  0  0  0  0
    1.4536   -3.4904    2.3474 H   0  0  0  0  0  0  0  0  0  0  0  0
    1.2722   -2.8406    0.7051 H   0  0  0  0  0  0  0  0  0  0  0  0
  1  2  1  0  0  0  0
  2  3  1  0  0  0  0
  2  4  1  0  0  0  0
  2  5  1  0  0  0  0
  5  6  2  0  0  0  0
  5  7  1  0  0  0  0
  7  8  1  0  0  0  0
  7  9  1  0  0  0  0
  9 10  1  0  0  0  0
  9 11  1  0  0  0  0
  9 18  1  0  0  0  0
 11 12  1  0  0  0  0
 11 13  1  0  0  0  0
 11 14  1  0  0  0  0
 14 15  2  0  0  0  0
 14 16  1  0  0  0  0
 16 17  1  0  0  0  0
 18 19  2  0  0  0  0
 18 20  1  0  0  0  0
 20 21  1  0  0  0  0
 20 22  1  0  0  0  0
 22 23  1  0  0  0  0
 22 24  1  0  0  0  0
 22 25  1  0  0  0  0
M  END
$$$$

  -OEChem-01062216063D

 25 24  0     1  0  0  0  0  0999 V2000
   -3.0140   -3.4751    0.9687 H   0  0  0  0  0  0  0  0  0  0  0  0
   -2.9316   -2.4033    0.7670 C   0  0  0  0  0  0  0  0  0  0  0  0
   -3.3239   -1.8540    1.6261 H   0  0  0  0  0  0  0  0  0  0  0  0
   -3.5311   -2.1654   -0.1151 H   0  0  0  0  0  0  0  0  0  0  0  0
   -1.4816   -2.0247    0.5264 C   0  0  0  0  0  0  0  0  0  0  0  0
   -0.6622   -2.9175    0.4689 O   0  0  0  0  0  0  0  0  0  0  0  0
   -1.1962   -0.6965    0.2683 N   0  0  0  0  0  0  0  0  0  0  0  0
   -2.0330   -0.1249    0.1929 H   0  0  0  0  0  0  0  0  0  0  0  0
    0.0720    0.0712    0.1590 C   0  0  1  0  0  0  0  0  0  0  0  0
    0.0931    0.4863   -0.8552 H   0  0  0  0  0  0  0  0  0  0  0  0
   -0.0820    1.2126    1.1947 C   0  0  0  0  0  0  0  0  0  0  0  0
   -0.3225    0.7860    2.1726 H   0  0  0  0  0  0  0  0  0  0  0  0
    0.8647    1.7510    1.3006 H   0  0  0  0  0  0  0  0  0  0  0  0
   -1.1328    2.2566    0.8295 C   0  0  0  0  0  0  0  0  0  0  0  0
   -1.3836    2.4834   -0.3420 O   0  0  0  0  0  0  0  0  0  0  0  0
   -1.7549    2.8785    1.8571 O   0  0  0  0  0  0  0  0  0  0  0  0
   -2.3569    3.5250    1.4567 H   0  0  0  0  0  0  0  0  0  0  0  0
    1.5179   -0.4953    0.3314 C   0  0  0  0  0  0  0  0  0  0  0  0
    2.4373    0.1887   -0.0927 O   0  0  0  0  0  0  0  0  0  0  0  0
    1.9590   -1.7626    0.6158 N   0  0  0  0  0  0  0  0  0  0  0  0
    2.9098   -1.8831    0.2782 H   0  0  0  0  0  0  0  0  0  0  0  0
    1.7251   -2.3064    1.9486 C   0  0  0  0  0  0  0  0  0  0  0  0
    2.5754   -2.0821    2.6004 H   0  0  0  0  0  0  0  0  0  0  0  0
    0.8247   -1.8809    2.4036 H   0  0  0  0  0  0  0  0  0  0  0  0
    1.6033   -3.3930    1.8942 H   0  0  0  0  0  0  0  0  0  0  0  0
  1  2  1  0  0  0  0
  2  3  1  0  0  0  0
  2  4  1  0  0  0  0
  2  5  1  0  0  0  0
  5  6  2  0  0  0  0
  5  7  1  0  0  0  0
  7  8  1  0  0  0  0
  7  9  1  0  0  0  0
  9 10  1  0  0  0  0
  9 11  1  0  0  0  0
  9 18  1  0  0  0  0
 11 12  1  0  0  0  0
 11 13  1  0  0  0  0
 11 14  1  0  0  0  0
 14 15  2  0  0  0  0
 14 16  1  0  0  0  0
 16 17  1  0  0  0  0
 18 19  2  0  0  0  0
 18 20  1  0  0  0  0
 20 21  1  0  0  0  0
 20 22  1  0  0  0  0
 22 23  1  0  0  0  0
 22 24  1  0  0  0  0
 22 25  1  0  0  0  0
M  END
$$$$

  -OEChem-01062216063D

 25 24  0     1  0  0  0  0  0999 V2000
   -3.1828   -3.3686    1.2047 H   0  0  0  0  0  0  0  0  0  0  0  0
   -3.0813   -2.3303    0.8758 C   0  0  0  0  0  0  0  0  0  0  0  0
   -3.6368   -1.6887    1.5641 H   0  0  0  0  0  0  0  0  0  0  0  0
   -3.5084   -2.2366   -0.1256 H   0  0  0  0  0  0  0  0  0  0  0  0
   -1.6182   -1.9265    0.8549 C   0  0  0  0  0  0  0  0  0  0  0  0
   -0.7968   -2.7465    1.2056 O   0  0  0  0  0  0  0  0  0  0  0  0
   -1.3160   -0.6205    0.5158 N   0  0  0  0  0  0  0  0  0  0  0  0
   -2.1454   -0.0808    0.2821 H   0  0  0  0  0  0  0  0  0  0  0  0
   -0.0442    0.0686    0.1765 C   0  0  1  0  0  0  0  0  0  0  0  0
   -0.1642    0.4640   -0.8381 H   0  0  0  0  0  0  0  0  0  0  0  0
    0.0246    1.2366    1.1924 C   0  0  0  0  0  0  0  0  0  0  0  0
   -0.0823    0.8409    2.2066 H   0  0  0  0  0  0  0  0  0  0  0  0
    0.9997    1.7292    1.1390 H   0  0  0  0  0  0  0  0  0  0  0  0
   -1.0218    2.3232    0.9647 C   0  0  0  0  0  0  0  0  0  0  0  0
   -1.4424    2.5342   -0.1613 O   0  0  0  0  0  0  0  0  0  0  0  0
   -1.4342    3.0119    2.0537 O   0  0  0  0  0  0  0  0  0  0  0  0
   -2.0612    3.6773    1.7317 H   0  0  0  0  0  0  0  0  0  0  0  0
    1.3715   -0.5895    0.1190 C   0  0  0  0  0  0  0  0  0  0  0  0
    2.2855    0.0907   -0.3241 O   0  0  0  0  0  0  0  0  0  0  0  0
    1.7145   -1.9169    0.0853 N   0  0  0  0  0  0  0  0  0  0  0  0
    2.4475   -2.0441   -0.6066 H   0  0  0  0  0  0  0  0  0  0  0  0
    2.0700   -2.5293    1.3609 C   0  0  0  0  0  0  0  0  0  0  0  0
    1.5153   -2.0779    2.1906 H   0  0  0  0  0  0  0  0  0  0  0  0
    1.8437   -3.6000    1.3389 H   0  0  0  0  0  0  0  0  0  0  0  0
    3.1394   -2.4010    1.5554 H   0  0  0  0  0  0  0  0  0  0  0  0
  1  2  1  0  0  0  0
  2  3  1  0  0  0  0
  2  4  1  0  0  0  0
  2  5  1  0  0  0  0
  5  6  2  0  0  0  0
  5  7  1  0  0  0  0
  7  8  1  0  0  0  0
  7  9  1  0  0  0  0
  9 10  1  0  0  0  0
  9 11  1  0  0  0  0
  9 18  1  0  0  0  0
 11 12  1  0  0  0  0
 11 13  1  0  0  0  0
 11 14  1  0  0  0  0
 14 15  2  0  0  0  0
 14 16  1  0  0  0  0
 16 17  1  0  0  0  0
 18 19  2  0  0  0  0
 18 20  1  0  0  0  0
 20 21  1  0  0  0  0
 20 22  1  0  0  0  0
 22 23  1  0  0  0  0
 22 24  1  0  0  0  0
 22 25  1  0  0  0  0
M  END
$$$$

  -OEChem-01062216063D

 25 24  0     1  0  0  0  0  0999 V2000
   -3.4508   -3.1196    0.8246 H   0  0  0  0  0  0  0  0  0  0  0  0
   -3.2331   -2.0821    0.5550 C   0  0  0  0  0  0  0  0  0  0  0  0
   -3.8309   -1.4226    1.1888 H   0  0  0  0  0  0  0  0  0  0  0  0
   -3.5133   -1.9255   -0.4895 H   0  0  0  0  0  0  0  0  0  0  0  0
   -1.7567   -1.7880    0.7475 C   0  0  0  0  0  0  0  0  0  0  0  0
   -1.0492   -2.6622    1.2106 O   0  0  0  0  0  0  0  0  0  0  0  0
   -1.2948   -0.5255    0.4191 N   0  0  0  0  0  0  0  0  0  0  0  0
   -2.0216    0.0740    0.0357 H   0  0  0  0  0  0  0  0  0  0  0  0
    0.0676    0.0714    0.3790 C   0  0  1  0  0  0  0  0  0  0  0  0
    0.2584    0.3789   -0.6548 H   0  0  0  0  0  0  0  0  0  0  0  0
   -0.0623    1.3313    1.2789 C   0  0  0  0  0  0  0  0  0  0  0  0
   -0.4547    1.0395    2.2573 H   0  0  0  0  0  0  0  0  0  0  0  0
    0.9160    1.7880    1.4491 H   0  0  0  0  0  0  0  0  0  0  0  0
   -0.9375    2.4319    0.6877 C   0  0  0  0  0  0  0  0  0  0  0  0
   -1.0267    2.5492   -0.5238 O   0  0  0  0  0  0  0  0  0  0  0  0
   -1.5876    3.2333    1.5624 O   0  0  0  0  0  0  0  0  0  0  0  0
   -2.0585    3.8920    1.0296 H   0  0  0  0  0  0  0  0  0  0  0  0
    1.3635   -0.7264    0.7433 C   0  0  0  0  0  0  0  0  0  0  0  0
    2.3746   -0.1091    1.0579 O   0  0  0  0  0  0  0  0  0  0  0  0
    1.5085   -2.0874    0.5578 N   0  0  0  0  0  0  0  0  0  0  0  0
    0.6332   -2.6122    0.5297 H   0  0  0  0  0  0  0  0  0  0  0  0
    2.7219   -2.8172    0.9069 C   0  0  0  0  0  0  0  0  0  0  0  0
    2.9385   -2.7126    1.9751 H   0  0  0  0  0  0  0  0  0  0  0  0
    2.5999   -3.8805    0.6799 H   0  0  0  0  0  0  0  0  0  0  0  0
    3.5754   -2.4391    0.3345 H   0  0  0  0  0  0  0  0  0  0  0  0
  1  2  1  0  0  0  0
  2  3  1  0  0  0  0
  2  4  1  0  0  0  0
  2  5  1  0  0  0  0
  5  6  2  0  0  0  0
  5  7  1  0  0  0  0
  7  8  1  0  0  0  0
  7  9  1  0  0  0  0
  9 10  1  0  0  0  0
  9 11  1  0  0  0  0
  9 18  1  0  0  0  0
 11 12  1  0  0  0  0
 11 13  1  0  0  0  0
 11 14  1  0  0  0  0
 14 15  2  0  0  0  0
 14 16  1  0  0  0  0
 16 17  1  0  0  0  0
 18 19  2  0  0  0  0
 18 20  1  0  0  0  0
 20 21  1  0  0  0  0
 20 22  1  0  0  0  0
 22 23  1  0  0  0  0
 22 24  1  0  0  0  0
 22 25  1  0  0  0  0
M  END
$$$$

  -OEChem-01062216063D

 25 24  0     1  0  0  0  0  0999 V2000
   -3.3299   -3.1651    0.9079 H   0  0  0  0  0  0  0  0  0  0  0  0
   -3.1495   -2.1244    0.6233 C   0  0  0  0  0  0  0  0  0  0  0  0
   -3.7146   -1.4746    1.2960 H   0  0  0  0  0  0  0  0  0  0  0  0
   -3.5026   -1.9746   -0.3998 H   0  0  0  0  0  0  0  0  0  0  0  0
   -1.6689   -1.8037    0.7146 C   0  0  0  0  0  0  0  0  0  0  0  0
   -0.9026   -2.6883    1.0464 O   0  0  0  0  0  0  0  0  0  0  0  0
   -1.2552   -0.5213    0.3991 N   0  0  0  0  0  0  0  0  0  0  0  0
   -2.0129    0.0852    0.0952 H   0  0  0  0  0  0  0  0  0  0  0  0
    0.0919    0.1064    0.3729 C   0  0  1  0  0  0  0  0  0  0  0  0
    0.2898    0.4186   -0.6580 H   0  0  0  0  0  0  0  0  0  0  0  0
   -0.0555    1.3662    1.2695 C   0  0  0  0  0  0  0  0  0  0  0  0
   -0.4434    1.0719    2.2489 H   0  0  0  0  0  0  0  0  0  0  0  0
    0.9183    1.8346    1.4359 H   0  0  0  0  0  0  0  0  0  0  0  0
   -0.9426    2.4547    0.6740 C   0  0  0  0  0  0  0  0  0  0  0  0
   -1.0297    2.5676   -0.5379 O   0  0  0  0  0  0  0  0  0  0  0  0
   -1.6078    3.2481    1.5447 O   0  0  0  0  0  0  0  0  0  0  0  0
   -2.0857    3.8992    1.0086 H   0  0  0  0  0  0  0  0  0  0  0  0
    1.3755   -0.7051    0.7443 C   0  0  0  0  0  0  0  0  0  0  0  0
    2.3041   -0.1572    1.3277 O   0  0  0  0  0  0  0  0  0  0  0  0
    1.6009   -1.9803    0.2614 N   0  0  0  0  0  0  0  0  0  0  0  0
    0.7451   -2.5086    0.0864 H   0  0  0  0  0  0  0  0  0  0  0  0
    2.7940   -2.7477    0.6003 C   0  0  0  0  0  0  0  0  0  0  0  0
    2.8581   -2.8982    1.6830 H   0  0  0  0  0  0  0  0  0  0  0  0
    2.7614   -3.7274    0.1143 H   0  0  0  0  0  0  0  0  0  0  0  0
    3.6959   -2.2266    0.2624 H   0  0  0  0  0  0  0  0  0  0  0  0
  1  2  1  0  0  0  0
  2  3  1  0  0  0  0
  2  4  1  0  0  0  0
  2  5  1  0  0  0  0
  5  6  2  0  0  0  0
  5  7  1  0  0  0  0
  7  8  1  0  0  0  0
  7  9  1  0  0  0  0
  9 10  1  0  0  0  0
  9 11  1  0  0  0  0
  9 18  1  0  0  0  0
 11 12  1  0  0  0  0
 11 13  1  0  0  0  0
 11 14  1  0  0  0  0
 14 15  2  0  0  0  0
 14 16  1  0  0  0  0
 16 17  1  0  0  0  0
 18 19  2  0  0  0  0
 18 20  1  0  0  0  0
 20 21  1  0  0  0  0
 20 22  1  0  0  0  0
 22 23  1  0  0  0  0
 22 24  1  0  0  0  0
 22 25  1  0  0  0  0
M  END
$$$$

  -OEChem-01062216063D

 25 24  0     1  0  0  0  0  0999 V2000
   -3.1951   -3.2140    0.9752 H   0  0  0  0  0  0  0  0  0  0  0  0
   -3.0608   -2.1695    0.6793 C   0  0  0  0  0  0  0  0  0  0  0  0
   -3.5857   -1.5330    1.3959 H   0  0  0  0  0  0  0  0  0  0  0  0
   -3.4955   -2.0267   -0.3129 H   0  0  0  0  0  0  0  0  0  0  0  0
   -1.5850   -1.8166    0.6555 C   0  0  0  0  0  0  0  0  0  0  0  0
   -0.7698   -2.6993    0.8479 O   0  0  0  0  0  0  0  0  0  0  0  0
   -1.2221   -0.5158    0.3532 N   0  0  0  0  0  0  0  0  0  0  0  0
   -2.0071    0.0947    0.1417 H   0  0  0  0  0  0  0  0  0  0  0  0
    0.1095    0.1400    0.3604 C   0  0  1  0  0  0  0  0  0  0  0  0
    0.3300    0.4626   -0.6627 H   0  0  0  0  0  0  0  0  0  0  0  0
   -0.0562    1.3926    1.2607 C   0  0  0  0  0  0  0  0  0  0  0  0
   -0.4512    1.0913    2.2352 H   0  0  0  0  0  0  0  0  0  0  0  0
    0.9168    1.8601    1.4359 H   0  0  0  0  0  0  0  0  0  0  0  0
   -0.9443    2.4787    0.6628 C   0  0  0  0  0  0  0  0  0  0  0  0
   -1.0195    2.5981   -0.5493 O   0  0  0  0  0  0  0  0  0  0  0  0
   -1.6243    3.2619    1.5311 O   0  0  0  0  0  0  0  0  0  0  0  0
   -2.1014    3.9131    0.9943 H   0  0  0  0  0  0  0  0  0  0  0  0
    1.3708   -0.6868    0.7607 C   0  0  0  0  0  0  0  0  0  0  0  0
    2.1607   -0.2645    1.5980 O   0  0  0  0  0  0  0  0  0  0  0  0
    1.7315   -1.8073    0.0355 N   0  0  0  0  0  0  0  0  0  0  0  0
    0.9328   -2.3077   -0.3529 H   0  0  0  0  0  0  0  0  0  0  0  0
    2.9033   -2.6059    0.3758 C   0  0  0  0  0  0  0  0  0  0  0  0
    2.8085   -3.0125    1.3883 H   0  0  0  0  0  0  0  0  0  0  0  0
    3.0078   -3.4390   -0.3256 H   0  0  0  0  0  0  0  0  0  0  0  0
    3.8122   -1.9973    0.3239 H   0  0  0  0  0  0  0  0  0  0  0  0
  1  2  1  0  0  0  0
  2  3  1  0  0  0  0
  2  4  1  0  0  0  0
  2  5  1  0  0  0  0
  5  6  2  0  0  0  0
  5  7  1  0  0  0  0
  7  8  1  0  0  0  0
  7  9  1  0  0  0  0
  9 10  1  0  0  0  0
  9 11  1  0  0  0  0
  9 18  1  0  0  0  0
 11 12  1  0  0  0  0
 11 13  1  0  0  0  0
 11 14  1  0  0  0  0
 14 15  2  0  0  0  0
 14 16  1  0  0  0  0
 16 17  1  0  0  0  0
 18 19  2  0  0  0  0
 18 20  1  0  0  0  0
 20 21  1  0  0  0  0
 20 22  1  0  0  0  0
 22 23  1  0  0  0  0
 22 24  1  0  0  0  0
 22 25  1  0  0  0  0
M  END
$$$$

  -OEChem-01062216063D

 25 24  0     1  0  0  0  0  0999 V2000
   -3.0655   -3.2619    1.0202 H   0  0  0  0  0  0  0  0  0  0  0  0
   -2.9776   -2.2151    0.7149 C   0  0  0  0  0  0  0  0  0  0  0  0
   -3.4859   -1.5919    1.4549 H   0  0  0  0  0  0  0  0  0  0  0  0
   -3.4639   -2.0889   -0.2556 H   0  0  0  0  0  0  0  0  0  0  0  0
   -1.5156   -1.8196    0.6186 C   0  0  0  0  0  0  0  0  0  0  0  0
   -0.6656   -2.6840    0.7317 O   0  0  0  0  0  0  0  0  0  0  0  0
   -1.2011   -0.5061    0.3147 N   0  0  0  0  0  0  0  0  0  0  0  0
   -2.0061    0.0961    0.1654 H   0  0  0  0  0  0  0  0  0  0  0  0
    0.1173    0.1711    0.3413 C   0  0  1  0  0  0  0  0  0  0  0  0
    0.3507    0.5034   -0.6756 H   0  0  0  0  0  0  0  0  0  0  0  0
   -0.0554    1.4143    1.2498 C   0  0  0  0  0  0  0  0  0  0  0  0
   -0.4528    1.1030    2.2204 H   0  0  0  0  0  0  0  0  0  0  0  0
    0.9200    1.8749    1.4320 H   0  0  0  0  0  0  0  0  0  0  0  0
   -0.9473    2.5021    0.6614 C   0  0  0  0  0  0  0  0  0  0  0  0
   -1.0208    2.6308   -0.5498 O   0  0  0  0  0  0  0  0  0  0  0  0
   -1.6325    3.2751    1.5350 O   0  0  0  0  0  0  0  0  0  0  0  0
   -2.1167    3.9249    1.0030 H   0  0  0  0  0  0  0  0  0  0  0  0
    1.3607   -0.6640    0.7659 C   0  0  0  0  0  0  0  0  0  0  0  0
    1.9768   -0.4046    1.7942 O   0  0  0  0  0  0  0  0  0  0  0  0
    1.9004   -1.5817   -0.1171 N   0  0  0  0  0  0  0  0  0  0  0  0
    1.2299   -1.9684   -0.7763 H   0  0  0  0  0  0  0  0  0  0  0  0
    3.0376   -2.4206    0.2425 C   0  0  0  0  0  0  0  0  0  0  0  0
    2.7924   -3.0469    1.1068 H   0  0  0  0  0  0  0  0  0  0  0  0
    3.3050   -3.0724   -0.5946 H   0  0  0  0  0  0  0  0  0  0  0  0
    3.9082   -1.8040    0.4893 H   0  0  0  0  0  0  0  0  0  0  0  0
  1  2  1  0  0  0  0
  2  3  1  0  0  0  0
  2  4  1  0  0  0  0
  2  5  1  0  0  0  0
  5  6  2  0  0  0  0
  5  7  1  0  0  0  0
  7  8  1  0  0  0  0
  7  9  1  0  0  0  0
  9 10  1  0  0  0  0
  9 11  1  0  0  0  0
  9 18  1  0  0  0  0
 11 12  1  0  0  0  0
 11 13  1  0  0  0  0
 11 14  1  0  0  0  0
 14 15  2  0  0  0  0
 14 16  1  0  0  0  0
 16 17  1  0  0  0  0
 18 19  2  0  0  0  0
 18 20  1  0  0  0  0
 20 21  1  0  0  0  0
 20 22  1  0  0  0  0
 22 23  1  0  0  0  0
 22 24  1  0  0  0  0
 22 25  1  0  0  0  0
M  END
$$$$

  -OEChem-01062216063D

 25 24  0     1  0  0  0  0  0999 V2000
   -2.9890   -3.2942    1.0147 H   0  0  0  0  0  0  0  0  0  0  0  0
   -2.9279   -2.2341    0.7523 C   0  0  0  0  0  0  0  0  0  0  0  0
   -3.3859   -1.6487    1.5531 H   0  0  0  0  0  0  0  0  0  0  0  0
   -3.4813   -2.0681   -0.1750 H   0  0  0  0  0  0  0  0  0  0  0  0
   -1.4782   -1.8231    0.5733 C   0  0  0  0  0  0  0  0  0  0  0  0
   -0.6148   -2.6822    0.6042 O   0  0  0  0  0  0  0  0  0  0  0  0
   -1.1932   -0.5029    0.2682 N   0  0  0  0  0  0  0  0  0  0  0  0
   -2.0092    0.0972    0.1884 H   0  0  0  0  0  0  0  0  0  0  0  0
    0.1174    0.1849    0.3169 C   0  0  1  0  0  0  0  0  0  0  0  0
    0.3632    0.5270   -0.6938 H   0  0  0  0  0  0  0  0  0  0  0  0
   -0.0609    1.4177    1.2355 C   0  0  0  0  0  0  0  0  0  0  0  0
   -0.4671    1.0958    2.1991 H   0  0  0  0  0  0  0  0  0  0  0  0
    0.9156    1.8701    1.4314 H   0  0  0  0  0  0  0  0  0  0  0  0
   -0.9500    2.5112    0.6543 C   0  0  0  0  0  0  0  0  0  0  0  0
   -1.0176    2.6529   -0.5557 O   0  0  0  0  0  0  0  0  0  0  0  0
   -1.6405    3.2733    1.5332 O   0  0  0  0  0  0  0  0  0  0  0  0
   -2.1248    3.9269    1.0061 H   0  0  0  0  0  0  0  0  0  0  0  0
    1.3471   -0.6526    0.7665 C   0  0  0  0  0  0  0  0  0  0  0  0
    1.7725   -0.5749    1.9143 O   0  0  0  0  0  0  0  0  0  0  0  0
    2.0930   -1.3347   -0.1780 N   0  0  0  0  0  0  0  0  0  0  0  0
    1.6033   -1.5548   -1.0400 H   0  0  0  0  0  0  0  0  0  0  0  0
    3.2166   -2.1856    0.1957 C   0  0  0  0  0  0  0  0  0  0  0  0
    2.8786   -2.9994    0.8462 H   0  0  0  0  0  0  0  0  0  0  0  0
    3.6750   -2.6207   -0.6973 H   0  0  0  0  0  0  0  0  0  0  0  0
    3.9801   -1.6058    0.7250 H   0  0  0  0  0  0  0  0  0  0  0  0
  1  2  1  0  0  0  0
  2  3  1  0  0  0  0
  2  4  1  0  0  0  0
  2  5  1  0  0  0  0
  5  6  2  0  0  0  0
  5  7  1  0  0  0  0
  7  8  1  0  0  0  0
  7  9  1  0  0  0  0
  9 10  1  0  0  0  0
  9 11  1  0  0  0  0
  9 18  1  0  0  0  0
 11 12  1  0  0  0  0
 11 13  1  0  0  0  0
 11 14  1  0  0  0  0
 14 15  2  0  0  0  0
 14 16  1  0  0  0  0
 16 17  1  0  0  0  0
 18 19  2  0  0  0  0
 18 20  1  0  0  0  0
 20 21  1  0  0  0  0
 20 22  1  0  0  0  0
 22 23  1  0  0  0  0
 22 24  1  0  0  0  0
 22 25  1  0  0  0  0
M  END
$$$$

  -OEChem-01062216063D

 25 24  0     1  0  0  0  0  0999 V2000
   -2.9620   -3.3012    1.0413 H   0  0  0  0  0  0  0  0  0  0  0  0
   -2.9145   -2.2420    0.7726 C   0  0  0  0  0  0  0  0  0  0  0  0
   -3.3402   -1.6546    1.5897 H   0  0  0  0  0  0  0  0  0  0  0  0
   -3.5056   -2.0805   -0.1319 H   0  0  0  0  0  0  0  0  0  0  0  0
   -1.4742   -1.8292    0.5328 C   0  0  0  0  0  0  0  0  0  0  0  0
   -0.6137   -2.6910    0.4887 O   0  0  0  0  0  0  0  0  0  0  0  0
   -1.1992   -0.5058    0.2320 N   0  0  0  0  0  0  0  0  0  0  0  0
   -2.0160    0.0973    0.2064 H   0  0  0  0  0  0  0  0  0  0  0  0
    0.1111    0.1790    0.3026 C   0  0  1  0  0  0  0  0  0  0  0  0
    0.3671    0.5273   -0.7033 H   0  0  0  0  0  0  0  0  0  0  0  0
   -0.0648    1.4033    1.2310 C   0  0  0  0  0  0  0  0  0  0  0  0
   -0.4838    1.0747    2.1868 H   0  0  0  0  0  0  0  0  0  0  0  0
    0.9145    1.8429    1.4422 H   0  0  0  0  0  0  0  0  0  0  0  0
   -0.9419    2.5085    0.6533 C   0  0  0  0  0  0  0  0  0  0  0  0
   -0.9987    2.6611   -0.5558 O   0  0  0  0  0  0  0  0  0  0  0  0
   -1.6315    3.2699    1.5331 O   0  0  0  0  0  0  0  0  0  0  0  0
   -2.1084    3.9302    1.0076 H   0  0  0  0  0  0  0  0  0  0  0  0
    1.3306   -0.6616    0.7691 C   0  0  0  0  0  0  0  0  0  0  0  0
    1.5872   -0.7663    1.9638 O   0  0  0  0  0  0  0  0  0  0  0  0
    2.2685   -1.0861   -0.1550 N   0  0  0  0  0  0  0  0  0  0  0  0
    1.9587   -1.1219   -1.1212 H   0  0  0  0  0  0  0  0  0  0  0  0
    3.4191   -1.8971    0.2246 C   0  0  0  0  0  0  0  0  0  0  0  0
    3.0897   -2.8390    0.6765 H   0  0  0  0  0  0  0  0  0  0  0  0
    4.0264   -2.1270   -0.6559 H   0  0  0  0  0  0  0  0  0  0  0  0
    4.0469   -1.3616    0.9445 H   0  0  0  0  0  0  0  0  0  0  0  0
  1  2  1  0  0  0  0
  2  3  1  0  0  0  0
  2  4  1  0  0  0  0
  2  5  1  0  0  0  0
  5  6  2  0  0  0  0
  5  7  1  0  0  0  0
  7  8  1  0  0  0  0
  7  9  1  0  0  0  0
  9 10  1  0  0  0  0
  9 11  1  0  0  0  0
  9 18  1  0  0  0  0
 11 12  1  0  0  0  0
 11 13  1  0  0  0  0
 11 14  1  0  0  0  0
 14 15  2  0  0  0  0
 14 16  1  0  0  0  0
 16 17  1  0  0  0  0
 18 19  2  0  0  0  0
 18 20  1  0  0  0  0
 20 21  1  0  0  0  0
 20 22  1  0  0  0  0
 22 23  1  0  0  0  0
 22 24  1  0  0  0  0
 22 25  1  0  0  0  0
M  END
$$$$

  -OEChem-01062216063D

 25 24  0     1  0  0  0  0  0999 V2000
   -2.9475   -3.3035    1.0558 H   0  0  0  0  0  0  0  0  0  0  0  0
   -2.9073   -2.2419    0.7959 C   0  0  0  0  0  0  0  0  0  0  0  0
   -3.2804   -1.6608    1.6426 H   0  0  0  0  0  0  0  0  0  0  0  0
   -3.5481   -2.0664   -0.0713 H   0  0  0  0  0  0  0  0  0  0  0  0
   -1.4798   -1.8367    0.4785 C   0  0  0  0  0  0  0  0  0  0  0  0
   -0.6352   -2.7051    0.3424 O   0  0  0  0  0  0  0  0  0  0  0  0
   -1.2081   -0.5107    0.1868 N   0  0  0  0  0  0  0  0  0  0  0  0
   -2.0210    0.0967    0.2197 H   0  0  0  0  0  0  0  0  0  0  0  0
    0.1049    0.1655    0.2808 C   0  0  1  0  0  0  0  0  0  0  0  0
    0.3715    0.5207   -0.7195 H   0  0  0  0  0  0  0  0  0  0  0  0
   -0.0671    1.3792    1.2227 C   0  0  0  0  0  0  0  0  0  0  0  0
   -0.4986    1.0424    2.1704 H   0  0  0  0  0  0  0  0  0  0  0  0
    0.9144    1.8053    1.4495 H   0  0  0  0  0  0  0  0  0  0  0  0
   -0.9288    2.5005    0.6525 C   0  0  0  0  0  0  0  0  0  0  0  0
   -0.9739    2.6694   -0.5549 O   0  0  0  0  0  0  0  0  0  0  0  0
   -1.6170    3.2583    1.5366 O   0  0  0  0  0  0  0  0  0  0  0  0
   -2.0835    3.9297    1.0154 H   0  0  0  0  0  0  0  0  0  0  0  0
    1.3149   -0.6807    0.7596 C   0  0  0  0  0  0  0  0  0  0  0  0
    1.4284   -0.9607    1.9481 O   0  0  0  0  0  0  0  0  0  0  0  0
    2.4143   -0.8435   -0.0652 N   0  0  0  0  0  0  0  0  0  0  0  0
    2.2643   -0.6937   -1.0580 H   0  0  0  0  0  0  0  0  0  0  0  0
    3.5971   -1.5896    0.3483 C   0  0  0  0  0  0  0  0  0  0  0  0
    3.3289   -2.6205    0.6031 H   0  0  0  0  0  0  0  0  0  0  0  0
    4.3329   -1.6119   -0.4611 H   0  0  0  0  0  0  0  0  0  0  0  0
    4.0608   -1.1200    1.2222 H   0  0  0  0  0  0  0  0  0  0  0  0
  1  2  1  0  0  0  0
  2  3  1  0  0  0  0
  2  4  1  0  0  0  0
  2  5  1  0  0  0  0
  5  6  2  0  0  0  0
  5  7  1  0  0  0  0
  7  8  1  0  0  0  0
  7  9  1  0  0  0  0
  9 10  1  0  0  0  0
  9 11  1  0  0  0  0
  9 18  1  0  0  0  0
 11 12  1  0  0  0  0
 11 13  1  0  0  0  0
 11 14  1  0  0  0  0
 14 15  2  0  0  0  0
 14 16  1  0  0  0  0
 16 17  1  0  0  0  0
 18 19  2  0  0  0  0
 18 20  1  0  0  0  0
 20 21  1  0  0  0  0
 20 22  1  0  0  0  0
 22 23  1  0  0  0  0
 22 24  1  0  0  0  0
 22 25  1  0  0  0  0
M  END
$$$$

  -OEChem-01062216063D

 25 24  0     1  0  0  0  0  0999 V2000
   -2.9229   -3.3132    1.0363 H   0  0  0  0  0  0  0  0  0  0  0  0
   -2.8850   -2.2391    0.8341 C   0  0  0  0  0  0  0  0  0  0  0  0
   -3.1665   -1.7022    1.7431 H   0  0  0  0  0  0  0  0  0  0  0  0
   -3.5978   -2.0033    0.0406 H   0  0  0  0  0  0  0  0  0  0  0  0
   -1.4843   -1.8393    0.4108 C   0  0  0  0  0  0  0  0  0  0  0  0
   -0.6704   -2.7100    0.1526 O   0  0  0  0  0  0  0  0  0  0  0  0
   -1.2165   -0.5103    0.1314 N   0  0  0  0  0  0  0  0  0  0  0  0
   -2.0210    0.0988    0.2419 H   0  0  0  0  0  0  0  0  0  0  0  0
    0.1014    0.1521    0.2513 C   0  0  1  0  0  0  0  0  0  0  0  0
    0.3817    0.5138   -0.7430 H   0  0  0  0  0  0  0  0  0  0  0  0
   -0.0679    1.3527    1.2090 C   0  0  0  0  0  0  0  0  0  0  0  0
   -0.5136    1.0060    2.1463 H   0  0  0  0  0  0  0  0  0  0  0  0
    0.9152    1.7650    1.4534 H   0  0  0  0  0  0  0  0  0  0  0  0
   -0.9113    2.4914    0.6458 C   0  0  0  0  0  0  0  0  0  0  0  0
   -0.9410    2.6784   -0.5591 O   0  0  0  0  0  0  0  0  0  0  0  0
   -1.6019    3.2425    1.5334 O   0  0  0  0  0  0  0  0  0  0  0  0
   -2.0584    3.9242    1.0167 H   0  0  0  0  0  0  0  0  0  0  0  0
    1.3002   -0.7031    0.7396 C   0  0  0  0  0  0  0  0  0  0  0  0
    1.2918   -1.1592    1.8777 O   0  0  0  0  0  0  0  0  0  0  0  0
    2.5167   -0.6157    0.0852 N   0  0  0  0  0  0  0  0  0  0  0  0
    2.5047   -0.2619   -0.8662 H   0  0  0  0  0  0  0  0  0  0  0  0
    3.7162   -1.2975    0.5580 C   0  0  0  0  0  0  0  0  0  0  0  0
    3.5421   -2.3769    0.6236 H   0  0  0  0  0  0  0  0  0  0  0  0
    4.5483   -1.1215   -0.1303 H   0  0  0  0  0  0  0  0  0  0  0  0
    4.0033   -0.9265    1.5476 H   0  0  0  0  0  0  0  0  0  0  0  0
  1  2  1  0  0  0  0
  2  3  1  0  0  0  0
  2  4  1  0  0  0  0
  2  5  1  0  0  0  0
  5  6  2  0  0  0  0
  5  7  1  0  0  0  0
  7  8  1  0  0  0  0
  7  9  1  0  0  0  0
  9 10  1  0  0  0  0
  9 11  1  0  0  0  0
  9 18  1  0  0  0  0
 11 12  1  0  0  0  0
 11 13  1  0  0  0  0
 11 14  1  0  0  0  0
 14 15  2  0  0  0  0
 14 16  1  0  0  0  0
 16 17  1  0  0  0  0
 18 19  2  0  0  0  0
 18 20  1  0  0  0  0
 20 21  1  0  0  0  0
 20 22  1  0  0  0  0
 22 23  1  0  0  0  0
 22 24  1  0  0  0  0
 22 25  1  0  0  0  0
M  END
$$$$

  -OEChem-01062216063D

 25 24  0     1  0  0  0  0  0999 V2000
   -2.9106   -3.3079    1.0466 H   0  0  0  0  0  0  0  0  0  0  0  0
   -2.8707   -2.2309    0.8602 C   0  0  0  0  0  0  0  0  0  0  0  0
   -3.0912   -1.7066    1.7930 H   0  0  0  0  0  0  0  0  0  0  0  0
   -3.6259   -1.9729    0.1142 H   0  0  0  0  0  0  0  0  0  0  0  0
   -1.4921   -1.8410    0.3615 C   0  0  0  0  0  0  0  0  0  0  0  0
   -0.7169   -2.7136    0.0075 O   0  0  0  0  0  0  0  0  0  0  0  0
   -1.2180   -0.5119    0.0915 N   0  0  0  0  0  0  0  0  0  0  0  0
   -2.0118    0.1000    0.2509 H   0  0  0  0  0  0  0  0  0  0  0  0
    0.1067    0.1348    0.2261 C   0  0  1  0  0  0  0  0  0  0  0  0
    0.3951    0.5021   -0.7639 H   0  0  0  0  0  0  0  0  0  0  0  0
   -0.0627    1.3234    1.1988 C   0  0  0  0  0  0  0  0  0  0  0  0
   -0.5183    0.9654    2.1270 H   0  0  0  0  0  0  0  0  0  0  0  0
    0.9202    1.7275    1.4580 H   0  0  0  0  0  0  0  0  0  0  0  0
   -0.8939    2.4761    0.6453 C   0  0  0  0  0  0  0  0  0  0  0  0
   -0.9126    2.6809   -0.5568 O   0  0  0  0  0  0  0  0  0  0  0  0
   -1.5874    3.2179    1.5383 O   0  0  0  0  0  0  0  0  0  0  0  0
   -2.0379    3.9081    1.0273 H   0  0  0  0  0  0  0  0  0  0  0  0
    1.3030   -0.7233    0.7171 C   0  0  0  0  0  0  0  0  0  0  0  0
    1.2139   -1.3380    1.7742 O   0  0  0  0  0  0  0  0  0  0  0  0
    2.5787   -0.4081    0.2798 N   0  0  0  0  0  0  0  0  0  0  0  0
    2.6560    0.1150   -0.5870 H   0  0  0  0  0  0  0  0  0  0  0  0
    3.7797   -1.0293    0.8274 C   0  0  0  0  0  0  0  0  0  0  0  0
    3.7233   -2.1192    0.7330 H   0  0  0  0  0  0  0  0  0  0  0  0
    4.6662   -0.6804    0.2892 H   0  0  0  0  0  0  0  0  0  0  0  0
    3.8955   -0.7732    1.8859 H   0  0  0  0  0  0  0  0  0  0  0  0
  1  2  1  0  0  0  0
  2  3  1  0  0  0  0
  2  4  1  0  0  0  0
  2  5  1  0  0  0  0
  5  6  2  0  0  0  0
  5  7  1  0  0  0  0
  7  8  1  0  0  0  0
  7  9  1  0  0  0  0
  9 10  1  0  0  0  0
  9 11  1  0  0  0  0
  9 18  1  0  0  0  0
 11 12  1  0  0  0  0
 11 13  1  0  0  0  0
 11 14  1  0  0  0  0
 14 15  2  0  0  0  0
 14 16  1  0  0  0  0
 16 17  1  0  0  0  0
 18 19  2  0  0  0  0
 18 20  1  0  0  0  0
 20 21  1  0  0  0  0
 20 22  1  0  0  0  0
 22 23  1  0  0  0  0
 22 24  1  0  0  0  0
 22 25  1  0  0  0  0
M  END
$$$$

  -OEChem-01062216063D

 25 24  0     1  0  0  0  0  0999 V2000
   -2.9315   -3.2929    1.0319 H   0  0  0  0  0  0  0  0  0  0  0  0
   -2.8652   -2.2108    0.8873 C   0  0  0  0  0  0  0  0  0  0  0  0
   -3.0156   -1.7200    1.8517 H   0  0  0  0  0  0  0  0  0  0  0  0
   -3.6511   -1.8971    0.1963 H   0  0  0  0  0  0  0  0  0  0  0  0
   -1.5035   -1.8440    0.3283 C   0  0  0  0  0  0  0  0  0  0  0  0
   -0.7799   -2.7236   -0.1078 O   0  0  0  0  0  0  0  0  0  0  0  0
   -1.2109   -0.5179    0.0661 N   0  0  0  0  0  0  0  0  0  0  0  0
   -1.9926    0.1008    0.2545 H   0  0  0  0  0  0  0  0  0  0  0  0
    0.1223    0.1123    0.2069 C   0  0  1  0  0  0  0  0  0  0  0  0
    0.4147    0.4845   -0.7802 H   0  0  0  0  0  0  0  0  0  0  0  0
   -0.0576    1.2927    1.1903 C   0  0  0  0  0  0  0  0  0  0  0  0
   -0.5231    0.9251    2.1099 H   0  0  0  0  0  0  0  0  0  0  0  0
    0.9191    1.6988    1.4668 H   0  0  0  0  0  0  0  0  0  0  0  0
   -0.8826    2.4508    0.6387 C   0  0  0  0  0  0  0  0  0  0  0  0
   -0.8880    2.6671   -0.5613 O   0  0  0  0  0  0  0  0  0  0  0  0
   -1.5869    3.1827    1.5312 O   0  0  0  0  0  0  0  0  0  0  0  0
   -2.0353    3.8755    1.0218 H   0  0  0  0  0  0  0  0  0  0  0  0
    1.3260   -0.7408    0.6960 C   0  0  0  0  0  0  0  0  0  0  0  0
    1.1920   -1.5215    1.6306 O   0  0  0  0  0  0  0  0  0  0  0  0
    2.6030   -0.2342    0.5129 N   0  0  0  0  0  0  0  0  0  0  0  0
    2.7278    0.4574   -0.2198 H   0  0  0  0  0  0  0  0  0  0  0  0
    3.7901   -0.8055    1.1405 C   0  0  0  0  0  0  0  0  0  0  0  0
    3.8905   -1.8641    0.8779 H   0  0  0  0  0  0  0  0  0  0  0  0
    4.6876   -0.2788    0.8026 H   0  0  0  0  0  0  0  0  0  0  0  0
    3.7281   -0.7171    2.2303 H   0  0  0  0  0  0  0  0  0  0  0  0
  1  2  1  0  0  0  0
  2  3  1  0  0  0  0
  2  4  1  0  0  0  0
  2  5  1  0  0  0  0
  5  6  2  0  0  0  0
  5  7  1  0  0  0  0
  7  8  1  0  0  0  0
  7  9  1  0  0  0  0
  9 10  1  0  0  0  0
  9 11  1  0  0  0  0
  9 18  1  0  0  0  0
 11 12  1  0  0  0  0
 11 13  1  0  0  0  0
 11 14  1  0  0  0  0
 14 15  2  0  0  0  0
 14 16  1  0  0  0  0
 16 17  1  0  0  0  0
 18 19  2  0  0  0  0
 18 20  1  0  0  0  0
 20 21  1  0  0  0  0
 20 22  1  0  0  0  0
 22 23  1  0  0  0  0
 22 24  1  0  0  0  0
 22 25  1  0  0  0  0
M  END
$$$$

  -OEChem-01062216063D

 25 24  0     1  0  0  0  0  0999 V2000
   -2.7989   -3.4431    0.9769 H   0  0  0  0  0  0  0  0  0  0  0  0
   -2.7179   -2.4758    0.4730 C   0  0  0  0  0  0  0  0  0  0  0  0
   -3.6578   -1.9328    0.5954 H   0  0  0  0  0  0  0  0  0  0  0  0
   -2.5370   -2.6497   -0.5902 H   0  0  0  0  0  0  0  0  0  0  0  0
   -1.5732   -1.6764    1.0658 C   0  0  0  0  0  0  0  0  0  0  0  0
   -1.0488   -2.0491    2.1035 O   0  0  0  0  0  0  0  0  0  0  0  0
   -1.3024   -0.4054    0.5925 N   0  0  0  0  0  0  0  0  0  0  0  0
   -1.9318   -0.1242   -0.1537 H   0  0  0  0  0  0  0  0  0  0  0  0
    0.0547    0.1796    0.4915 C   0  0  1  0  0  0  0  0  0  0  0  0
    0.1497    0.6625   -0.4866 H   0  0  0  0  0  0  0  0  0  0  0  0
    0.1108    1.2444    1.6127 C   0  0  0  0  0  0  0  0  0  0  0  0
   -0.1788    0.7792    2.5609 H   0  0  0  0  0  0  0  0  0  0  0  0
    1.1265    1.6246    1.7359 H   0  0  0  0  0  0  0  0  0  0  0  0
   -0.7881    2.4508    1.3566 C   0  0  0  0  0  0  0  0  0  0  0  0
   -1.0316    2.7858    0.2078 O   0  0  0  0  0  0  0  0  0  0  0  0
   -1.2464    3.1178    2.4405 O   0  0  0  0  0  0  0  0  0  0  0  0
   -1.7923    3.8439    2.1028 H   0  0  0  0  0  0  0  0  0  0  0  0
    1.2964   -0.7571    0.5844 C   0  0  0  0  0  0  0  0  0  0  0  0
    1.2225   -1.9407    0.2799 O   0  0  0  0  0  0  0  0  0  0  0  0
    2.5615   -0.1969    0.4939 N   0  0  0  0  0  0  0  0  0  0  0  0
    2.6412    0.8072    0.6152 H   0  0  0  0  0  0  0  0  0  0  0  0
    3.7801   -0.9776    0.3058 C   0  0  0  0  0  0  0  0  0  0  0  0
    3.7661   -1.4809   -0.6668 H   0  0  0  0  0  0  0  0  0  0  0  0
    4.6581   -0.3260    0.3453 H   0  0  0  0  0  0  0  0  0  0  0  0
    3.8762   -1.7337    1.0924 H   0  0  0  0  0  0  0  0  0  0  0  0
  1  2  1  0  0  0  0
  2  3  1  0  0  0  0
  2  4  1  0  0  0  0
  2  5  1  0  0  0  0
  5  6  2  0  0  0  0
  5  7  1  0  0  0  0
  7  8  1  0  0  0  0
  7  9  1  0  0  0  0
  9 10  1  0  0  0  0
  9 11  1  0  0  0  0
  9 18  1  0  0  0  0
 11 12  1  0  0  0  0
 11 13  1  0  0  0  0
 11 14  1  0  0  0  0
 14 15  2  0  0  0  0
 14 16  1  0  0  0  0
 16 17  1  0  0  0  0
 18 19  2  0  0  0  0
 18 20  1  0  0  0  0
 20 21  1  0  0  0  0
 20 22  1  0  0  0  0
 22 23  1  0  0  0  0
 22 24  1  0  0  0  0
 22 25  1  0  0  0  0
M  END
$$$$

  -OEChem-01062216063D

 25 24  0     1  0  0  0  0  0999 V2000
   -2.7553   -3.4512    0.9784 H   0  0  0  0  0  0  0  0  0  0  0  0
   -2.7014   -2.4745    0.4894 C   0  0  0  0  0  0  0  0  0  0  0  0
   -3.6400   -1.9415    0.6579 H   0  0  0  0  0  0  0  0  0  0  0  0
   -2.5611   -2.6278   -0.5833 H   0  0  0  0  0  0  0  0  0  0  0  0
   -1.5410   -1.6752    1.0507 C   0  0  0  0  0  0  0  0  0  0  0  0
   -0.9533   -2.0753    2.0437 O   0  0  0  0  0  0  0  0  0  0  0  0
   -1.2995   -0.3940    0.5882 N   0  0  0  0  0  0  0  0  0  0  0  0
   -1.9450   -0.1102   -0.1432 H   0  0  0  0  0  0  0  0  0  0  0  0
    0.0474    0.2117    0.4819 C   0  0  1  0  0  0  0  0  0  0  0  0
    0.1402    0.6976   -0.4949 H   0  0  0  0  0  0  0  0  0  0  0  0
    0.0907    1.2788    1.6029 C   0  0  0  0  0  0  0  0  0  0  0  0
   -0.1840    0.8110    2.5539 H   0  0  0  0  0  0  0  0  0  0  0  0
    1.0974    1.6834    1.7160 H   0  0  0  0  0  0  0  0  0  0  0  0
   -0.8293    2.4698    1.3478 C   0  0  0  0  0  0  0  0  0  0  0  0
   -1.0836    2.8004    0.2003 O   0  0  0  0  0  0  0  0  0  0  0  0
   -1.2923    3.1306    2.4336 O   0  0  0  0  0  0  0  0  0  0  0  0
   -1.8474    3.8504    2.0969 H   0  0  0  0  0  0  0  0  0  0  0  0
    1.2742   -0.7455    0.5595 C   0  0  0  0  0  0  0  0  0  0  0  0
    1.2174   -1.8445    0.0200 O   0  0  0  0  0  0  0  0  0  0  0  0
    2.5464   -0.2426    0.7827 N   0  0  0  0  0  0  0  0  0  0  0  0
    2.6195    0.6920    1.1693 H   0  0  0  0  0  0  0  0  0  0  0  0
    3.7593   -1.0448    0.6623 C   0  0  0  0  0  0  0  0  0  0  0  0
    3.8975   -1.3781   -0.3717 H   0  0  0  0  0  0  0  0  0  0  0  0
    4.6337   -0.4557    0.9551 H   0  0  0  0  0  0  0  0  0  0  0  0
    3.7022   -1.9253    1.3112 H   0  0  0  0  0  0  0  0  0  0  0  0
  1  2  1  0  0  0  0
  2  3  1  0  0  0  0
  2  4  1  0  0  0  0
  2  5  1  0  0  0  0
  5  6  2  0  0  0  0
  5  7  1  0  0  0  0
  7  8  1  0  0  0  0
  7  9  1  0  0  0  0
  9 10  1  0  0  0  0
  9 11  1  0  0  0  0
  9 18  1  0  0  0  0
 11 12  1  0  0  0  0
 11 13  1  0  0  0  0
 11 14  1  0  0  0  0
 14 15  2  0  0  0  0
 14 16  1  0  0  0  0
 16 17  1  0  0  0  0
 18 19  2  0  0  0  0
 18 20  1  0  0  0  0
 20 21  1  0  0  0  0
 20 22  1  0  0  0  0
 22 23  1  0  0  0  0
 22 24  1  0  0  0  0
 22 25  1  0  0  0  0
M  END
$$$$

  -OEChem-01062216063D

 25 24  0     1  0  0  0  0  0999 V2000
   -2.7322   -3.4562    0.9864 H   0  0  0  0  0  0  0  0  0  0  0  0
   -2.6945   -2.4738    0.5073 C   0  0  0  0  0  0  0  0  0  0  0  0
   -3.6239   -1.9404    0.7199 H   0  0  0  0  0  0  0  0  0  0  0  0
   -2.5983   -2.6143   -0.5720 H   0  0  0  0  0  0  0  0  0  0  0  0
   -1.5099   -1.6843    1.0310 C   0  0  0  0  0  0  0  0  0  0  0  0
   -0.8640   -2.1162    1.9734 O   0  0  0  0  0  0  0  0  0  0  0  0
   -1.2934   -0.3928    0.5830 N   0  0  0  0  0  0  0  0  0  0  0  0
   -1.9597   -0.0979   -0.1253 H   0  0  0  0  0  0  0  0  0  0  0  0
    0.0410    0.2385    0.4733 C   0  0  1  0  0  0  0  0  0  0  0  0
    0.1246    0.7249   -0.5046 H   0  0  0  0  0  0  0  0  0  0  0  0
    0.0811    1.3105    1.5888 C   0  0  0  0  0  0  0  0  0  0  0  0
   -0.1728    0.8450    2.5463 H   0  0  0  0  0  0  0  0  0  0  0  0
    1.0827    1.7338    1.6790 H   0  0  0  0  0  0  0  0  0  0  0  0
   -0.8569    2.4881    1.3370 C   0  0  0  0  0  0  0  0  0  0  0  0
   -1.1277    2.8114    0.1914 O   0  0  0  0  0  0  0  0  0  0  0  0
   -1.3219    3.1430    2.4256 O   0  0  0  0  0  0  0  0  0  0  0  0
   -1.8904    3.8536    2.0913 H   0  0  0  0  0  0  0  0  0  0  0  0
    1.2631   -0.7246    0.5333 C   0  0  0  0  0  0  0  0  0  0  0  0
    1.2573   -1.7165   -0.1870 O   0  0  0  0  0  0  0  0  0  0  0  0
    2.4870   -0.3253    1.0463 N   0  0  0  0  0  0  0  0  0  0  0  0
    2.4855    0.4720    1.6732 H   0  0  0  0  0  0  0  0  0  0  0  0
    3.6783   -1.1659    0.9986 C   0  0  0  0  0  0  0  0  0  0  0  0
    3.9603   -1.3732   -0.0392 H   0  0  0  0  0  0  0  0  0  0  0  0
    4.5168   -0.6620    1.4885 H   0  0  0  0  0  0  0  0  0  0  0  0
    3.4972   -2.1168    1.5112 H   0  0  0  0  0  0  0  0  0  0  0  0
  1  2  1  0  0  0  0
  2  3  1  0  0  0  0
  2  4  1  0  0  0  0
  2  5  1  0  0  0  0
  5  6  2  0  0  0  0
  5  7  1  0  0  0  0
  7  8  1  0  0  0  0
  7  9  1  0  0  0  0
  9 10  1  0  0  0  0
  9 11  1  0  0  0  0
  9 18  1  0  0  0  0
 11 12  1  0  0  0  0
 11 13  1  0  0  0  0
 11 14  1  0  0  0  0
 14 15  2  0  0  0  0
 14 16  1  0  0  0  0
 16 17  1  0  0  0  0
 18 19  2  0  0  0  0
 18 20  1  0  0  0  0
 20 21  1  0  0  0  0
 20 22  1  0  0  0  0
 22 23  1  0  0  0  0
 22 24  1  0  0  0  0
 22 25  1  0  0  0  0
M  END
$$$$

  -OEChem-01062216063D

 25 24  0     1  0  0  0  0  0999 V2000
   -2.7136   -3.4637    0.9728 H   0  0  0  0  0  0  0  0  0  0  0  0
   -2.6966   -2.4689    0.5189 C   0  0  0  0  0  0  0  0  0  0  0  0
   -3.6144   -1.9414    0.7888 H   0  0  0  0  0  0  0  0  0  0  0  0
   -2.6515   -2.5805   -0.5670 H   0  0  0  0  0  0  0  0  0  0  0  0
   -1.4877   -1.6940    1.0081 C   0  0  0  0  0  0  0  0  0  0  0  0
   -0.7988   -2.1545    1.9054 O   0  0  0  0  0  0  0  0  0  0  0  0
   -1.2855   -0.3960    0.5723 N   0  0  0  0  0  0  0  0  0  0  0  0
   -1.9693   -0.0875   -0.1134 H   0  0  0  0  0  0  0  0  0  0  0  0
    0.0387    0.2540    0.4636 C   0  0  1  0  0  0  0  0  0  0  0  0
    0.1161    0.7418   -0.5142 H   0  0  0  0  0  0  0  0  0  0  0  0
    0.0782    1.3278    1.5763 C   0  0  0  0  0  0  0  0  0  0  0  0
   -0.1650    0.8634    2.5371 H   0  0  0  0  0  0  0  0  0  0  0  0
    1.0794    1.7570    1.6535 H   0  0  0  0  0  0  0  0  0  0  0  0
   -0.8710    2.4972    1.3287 C   0  0  0  0  0  0  0  0  0  0  0  0
   -1.1529    2.8165    0.1848 O   0  0  0  0  0  0  0  0  0  0  0  0
   -1.3362    3.1478    2.4198 O   0  0  0  0  0  0  0  0  0  0  0  0
   -1.9101    3.8553    2.0882 H   0  0  0  0  0  0  0  0  0  0  0  0
    1.2617   -0.7056    0.5129 C   0  0  0  0  0  0  0  0  0  0  0  0
    1.3376   -1.5813   -0.3412 O   0  0  0  0  0  0  0  0  0  0  0  0
    2.3848   -0.4445    1.2805 N   0  0  0  0  0  0  0  0  0  0  0  0
    2.2624    0.1997    2.0547 H   0  0  0  0  0  0  0  0  0  0  0  0
    3.5420   -1.3318    1.3008 C   0  0  0  0  0  0  0  0  0  0  0  0
    3.9759   -1.4207    0.2990 H   0  0  0  0  0  0  0  0  0  0  0  0
    4.3097   -0.9378    1.9736 H   0  0  0  0  0  0  0  0  0  0  0  0
    3.2526   -2.3293    1.6489 H   0  0  0  0  0  0  0  0  0  0  0  0
  1  2  1  0  0  0  0
  2  3  1  0  0  0  0
  2  4  1  0  0  0  0
  2  5  1  0  0  0  0
  5  6  2  0  0  0  0
  5  7  1  0  0  0  0
  7  8  1  0  0  0  0
  7  9  1  0  0  0  0
  9 10  1  0  0  0  0
  9 11  1  0  0  0  0
  9 18  1  0  0  0  0
 11 12  1  0  0  0  0
 11 13  1  0  0  0  0
 11 14  1  0  0  0  0
 14 15  2  0  0  0  0
 14 16  1  0  0  0  0
 16 17  1  0  0  0  0
 18 19  2  0  0  0  0
 18 20  1  0  0  0  0
 20 21  1  0  0  0  0
 20 22  1  0  0  0  0
 22 23  1  0  0  0  0
 22 24  1  0  0  0  0
 22 25  1  0  0  0  0
M  END
$$$$

  -OEChem-01062216063D

 25 24  0     1  0  0  0  0  0999 V2000
   -2.7174   -3.4646    0.9678 H   0  0  0  0  0  0  0  0  0  0  0  0
   -2.7041   -2.4663    0.5215 C   0  0  0  0  0  0  0  0  0  0  0  0
   -3.6129   -1.9360    0.8155 H   0  0  0  0  0  0  0  0  0  0  0  0
   -2.6836   -2.5693   -0.5662 H   0  0  0  0  0  0  0  0  0  0  0  0
   -1.4806   -1.7019    0.9900 C   0  0  0  0  0  0  0  0  0  0  0  0
   -0.7639   -2.1831    1.8538 O   0  0  0  0  0  0  0  0  0  0  0  0
   -1.2831   -0.4016    0.5592 N   0  0  0  0  0  0  0  0  0  0  0  0
   -1.9774   -0.0833   -0.1117 H   0  0  0  0  0  0  0  0  0  0  0  0
    0.0356    0.2586    0.4533 C   0  0  1  0  0  0  0  0  0  0  0  0
    0.1082    0.7486   -0.5241 H   0  0  0  0  0  0  0  0  0  0  0  0
    0.0802    1.3316    1.5653 C   0  0  0  0  0  0  0  0  0  0  0  0
   -0.1600    0.8679    2.5268 H   0  0  0  0  0  0  0  0  0  0  0  0
    1.0853    1.7550    1.6356 H   0  0  0  0  0  0  0  0  0  0  0  0
   -0.8708    2.5007    1.3264 C   0  0  0  0  0  0  0  0  0  0  0  0
   -1.1615    2.8227    0.1855 O   0  0  0  0  0  0  0  0  0  0  0  0
   -1.3281    3.1480    2.4228 O   0  0  0  0  0  0  0  0  0  0  0  0
   -1.8991    3.8605    2.0971 H   0  0  0  0  0  0  0  0  0  0  0  0
    1.2627   -0.6926    0.5011 C   0  0  0  0  0  0  0  0  0  0  0  0
    1.4444   -1.4410   -0.4517 O   0  0  0  0  0  0  0  0  0  0  0  0
    2.2422   -0.6005    1.4755 N   0  0  0  0  0  0  0  0  0  0  0  0
    1.9763   -0.1152    2.3264 H   0  0  0  0  0  0  0  0  0  0  0  0
    3.3619   -1.5319    1.5410 C   0  0  0  0  0  0  0  0  0  0  0  0
    3.9474   -1.4952    0.6162 H   0  0  0  0  0  0  0  0  0  0  0  0
    4.0215   -1.2732    2.3749 H   0  0  0  0  0  0  0  0  0  0  0  0
    2.9991   -2.5548    1.6877 H   0  0  0  0  0  0  0  0  0  0  0  0
  1  2  1  0  0  0  0
  2  3  1  0  0  0  0
  2  4  1  0  0  0  0
  2  5  1  0  0  0  0
  5  6  2  0  0  0  0
  5  7  1  0  0  0  0
  7  8  1  0  0  0  0
  7  9  1  0  0  0  0
  9 10  1  0  0  0  0
  9 11  1  0  0  0  0
  9 18  1  0  0  0  0
 11 12  1  0  0  0  0
 11 13  1  0  0  0  0
 11 14  1  0  0  0  0
 14 15  2  0  0  0  0
 14 16  1  0  0  0  0
 16 17  1  0  0  0  0
 18 19  2  0  0  0  0
 18 20  1  0  0  0  0
 20 21  1  0  0  0  0
 20 22  1  0  0  0  0
 22 23  1  0  0  0  0
 22 24  1  0  0  0  0
 22 25  1  0  0  0  0
M  END
$$$$

  -OEChem-01062216063D

 25 24  0     1  0  0  0  0  0999 V2000
   -2.7471   -3.4589    0.9419 H   0  0  0  0  0  0  0  0  0  0  0  0
   -2.7432   -2.4443    0.5336 C   0  0  0  0  0  0  0  0  0  0  0  0
   -3.6267   -1.9137    0.8965 H   0  0  0  0  0  0  0  0  0  0  0  0
   -2.7837   -2.5055   -0.5566 H   0  0  0  0  0  0  0  0  0  0  0  0
   -1.4854   -1.7140    0.9640 C   0  0  0  0  0  0  0  0  0  0  0  0
   -0.7465   -2.2266    1.7895 O   0  0  0  0  0  0  0  0  0  0  0  0
   -1.2738   -0.4152    0.5361 N   0  0  0  0  0  0  0  0  0  0  0  0
   -1.9794   -0.0724   -0.1107 H   0  0  0  0  0  0  0  0  0  0  0  0
    0.0433    0.2490    0.4400 C   0  0  1  0  0  0  0  0  0  0  0  0
    0.1178    0.7413   -0.5363 H   0  0  0  0  0  0  0  0  0  0  0  0
    0.0860    1.3187    1.5537 C   0  0  0  0  0  0  0  0  0  0  0  0
   -0.1583    0.8544    2.5138 H   0  0  0  0  0  0  0  0  0  0  0  0
    1.0949    1.7338    1.6279 H   0  0  0  0  0  0  0  0  0  0  0  0
   -0.8633    2.4897    1.3173 C   0  0  0  0  0  0  0  0  0  0  0  0
   -1.1523    2.8163    0.1773 O   0  0  0  0  0  0  0  0  0  0  0  0
   -1.3284    3.1280    2.4158 O   0  0  0  0  0  0  0  0  0  0  0  0
   -1.8975    3.8427    2.0918 H   0  0  0  0  0  0  0  0  0  0  0  0
    1.2787   -0.6885    0.4976 C   0  0  0  0  0  0  0  0  0  0  0  0
    1.6111   -1.2681   -0.5285 O   0  0  0  0  0  0  0  0  0  0  0  0
    2.0777   -0.7910    1.6234 N   0  0  0  0  0  0  0  0  0  0  0  0
    1.6361   -0.5043    2.4919 H   0  0  0  0  0  0  0  0  0  0  0  0
    3.1719   -1.7505    1.7074 C   0  0  0  0  0  0  0  0  0  0  0  0
    3.9042   -1.5700    0.9133 H   0  0  0  0  0  0  0  0  0  0  0  0
    3.6814   -1.6591    2.6713 H   0  0  0  0  0  0  0  0  0  0  0  0
    2.7910   -2.7728    1.6102 H   0  0  0  0  0  0  0  0  0  0  0  0
  1  2  1  0  0  0  0
  2  3  1  0  0  0  0
  2  4  1  0  0  0  0
  2  5  1  0  0  0  0
  5  6  2  0  0  0  0
  5  7  1  0  0  0  0
  7  8  1  0  0  0  0
  7  9  1  0  0  0  0
  9 10  1  0  0  0  0
  9 11  1  0  0  0  0
  9 18  1  0  0  0  0
 11 12  1  0  0  0  0
 11 13  1  0  0  0  0
 11 14  1  0  0  0  0
 14 15  2  0  0  0  0
 14 16  1  0  0  0  0
 16 17  1  0  0  0  0
 18 19  2  0  0  0  0
 18 20  1  0  0  0  0
 20 21  1  0  0  0  0
 20 22  1  0  0  0  0
 22 23  1  0  0  0  0
 22 24  1  0  0  0  0
 22 25  1  0  0  0  0
M  END
$$$$

  -OEChem-01062216063D

 25 24  0     1  0  0  0  0  0999 V2000
   -2.8371   -3.4379    0.9133 H   0  0  0  0  0  0  0  0  0  0  0  0
   -2.8201   -2.4096    0.5410 C   0  0  0  0  0  0  0  0  0  0  0  0
   -3.6709   -1.8676    0.9609 H   0  0  0  0  0  0  0  0  0  0  0  0
   -2.9100   -2.4303   -0.5479 H   0  0  0  0  0  0  0  0  0  0  0  0
   -1.5239   -1.7304    0.9413 C   0  0  0  0  0  0  0  0  0  0  0  0
   -0.7805   -2.2818    1.7364 O   0  0  0  0  0  0  0  0  0  0  0  0
   -1.2765   -0.4378    0.5149 N   0  0  0  0  0  0  0  0  0  0  0  0
   -1.9868   -0.0614   -0.1080 H   0  0  0  0  0  0  0  0  0  0  0  0
    0.0464    0.2181    0.4321 C   0  0  1  0  0  0  0  0  0  0  0  0
    0.1269    0.7124   -0.5431 H   0  0  0  0  0  0  0  0  0  0  0  0
    0.0906    1.2856    1.5474 C   0  0  0  0  0  0  0  0  0  0  0  0
   -0.1648    0.8231    2.5052 H   0  0  0  0  0  0  0  0  0  0  0  0
    1.1049    1.6862    1.6313 H   0  0  0  0  0  0  0  0  0  0  0  0
   -0.8459    2.4661    1.3081 C   0  0  0  0  0  0  0  0  0  0  0  0
   -1.1240    2.7974    0.1669 O   0  0  0  0  0  0  0  0  0  0  0  0
   -1.3142    3.1059    2.4043 O   0  0  0  0  0  0  0  0  0  0  0  0
   -1.8689    3.8305    2.0771 H   0  0  0  0  0  0  0  0  0  0  0  0
    1.2919   -0.7040    0.5061 C   0  0  0  0  0  0  0  0  0  0  0  0
    1.8134   -1.0614   -0.5422 O   0  0  0  0  0  0  0  0  0  0  0  0
    1.8940   -1.0251    1.7100 N   0  0  0  0  0  0  0  0  0  0  0  0
    1.2677   -0.9825    2.5106 H   0  0  0  0  0  0  0  0  0  0  0  0
    3.0099   -1.9600    1.7858 C   0  0  0  0  0  0  0  0  0  0  0  0
    3.8544   -1.6008    1.1883 H   0  0  0  0  0  0  0  0  0  0  0  0
    3.3432   -2.0658    2.8224 H   0  0  0  0  0  0  0  0  0  0  0  0
    2.7089   -2.9452    1.4140 H   0  0  0  0  0  0  0  0  0  0  0  0
  1  2  1  0  0  0  0
  2  3  1  0  0  0  0
  2  4  1  0  0  0  0
  2  5  1  0  0  0  0
  5  6  2  0  0  0  0
  5  7  1  0  0  0  0
  7  8  1  0  0  0  0
  7  9  1  0  0  0  0
  9 10  1  0  0  0  0
  9 11  1  0  0  0  0
  9 18  1  0  0  0  0
 11 12  1  0  0  0  0
 11 13  1  0  0  0  0
 11 14  1  0  0  0  0
 14 15  2  0  0  0  0
 14 16  1  0  0  0  0
 16 17  1  0  0  0  0
 18 19  2  0  0  0  0
 18 20  1  0  0  0  0
 20 21  1  0  0  0  0
 20 22  1  0  0  0  0
 22 23  1  0  0  0  0
 22 24  1  0  0  0  0
 22 25  1  0  0  0  0
M  END
$$$$

  -OEChem-01062216063D

 25 24  0     1  0  0  0  0  0999 V2000
   -3.0207   -3.3632    0.9442 H   0  0  0  0  0  0  0  0  0  0  0  0
   -2.9326   -2.3519    0.5368 C   0  0  0  0  0  0  0  0  0  0  0  0
   -3.7446   -1.7392    0.9356 H   0  0  0  0  0  0  0  0  0  0  0  0
   -3.0236   -2.4036   -0.5509 H   0  0  0  0  0  0  0  0  0  0  0  0
   -1.5927   -1.7496    0.9160 C   0  0  0  0  0  0  0  0  0  0  0  0
   -0.8609   -2.3578    1.6786 O   0  0  0  0  0  0  0  0  0  0  0  0
   -1.2891   -0.4677    0.4954 N   0  0  0  0  0  0  0  0  0  0  0  0
   -2.0023   -0.0433   -0.0929 H   0  0  0  0  0  0  0  0  0  0  0  0
    0.0439    0.1721    0.4248 C   0  0  1  0  0  0  0  0  0  0  0  0
    0.1291    0.6700   -0.5481 H   0  0  0  0  0  0  0  0  0  0  0  0
    0.0927    1.2323    1.5458 C   0  0  0  0  0  0  0  0  0  0  0  0
   -0.1710    0.7667    2.4999 H   0  0  0  0  0  0  0  0  0  0  0  0
    1.1116    1.6195    1.6379 H   0  0  0  0  0  0  0  0  0  0  0  0
   -0.8273    2.4258    1.3072 C   0  0  0  0  0  0  0  0  0  0  0  0
   -1.0934    2.7674    0.1661 O   0  0  0  0  0  0  0  0  0  0  0  0
   -1.2967    3.0641    2.4038 O   0  0  0  0  0  0  0  0  0  0  0  0
   -1.8357    3.8006    2.0768 H   0  0  0  0  0  0  0  0  0  0  0  0
    1.3036   -0.7299    0.5118 C   0  0  0  0  0  0  0  0  0  0  0  0
    2.0179   -0.8270   -0.4775 O   0  0  0  0  0  0  0  0  0  0  0  0
    1.7249   -1.2872    1.7050 N   0  0  0  0  0  0  0  0  0  0  0  0
    0.9593   -1.4789    2.3521 H   0  0  0  0  0  0  0  0  0  0  0  0
    2.8906   -2.1592    1.7792 C   0  0  0  0  0  0  0  0  0  0  0  0
    3.7858   -1.6351    1.4283 H   0  0  0  0  0  0  0  0  0  0  0  0
    3.0603   -2.4741    2.8132 H   0  0  0  0  0  0  0  0  0  0  0  0
    2.7403   -3.0520    1.1631 H   0  0  0  0  0  0  0  0  0  0  0  0
  1  2  1  0  0  0  0
  2  3  1  0  0  0  0
  2  4  1  0  0  0  0
  2  5  1  0  0  0  0
  5  6  2  0  0  0  0
  5  7  1  0  0  0  0
  7  8  1  0  0  0  0
  7  9  1  0  0  0  0
  9 10  1  0  0  0  0
  9 11  1  0  0  0  0
  9 18  1  0  0  0  0
 11 12  1  0  0  0  0
 11 13  1  0  0  0  0
 11 14  1  0  0  0  0
 14 15  2  0  0  0  0
 14 16  1  0  0  0  0
 16 17  1  0  0  0  0
 18 19  2  0  0  0  0
 18 20  1  0  0  0  0
 20 21  1  0  0  0  0
 20 22  1  0  0  0  0
 22 23  1  0  0  0  0
 22 24  1  0  0  0  0
 22 25  1  0  0  0  0
M  END
$$$$

  -OEChem-01062216063D

 25 24  0     1  0  0  0  0  0999 V2000
   -3.1888   -3.2971    0.9048 H   0  0  0  0  0  0  0  0  0  0  0  0
   -3.0560   -2.2752    0.5381 C   0  0  0  0  0  0  0  0  0  0  0  0
   -3.8108   -1.6340    0.9998 H   0  0  0  0  0  0  0  0  0  0  0  0
   -3.1968   -2.2714   -0.5456 H   0  0  0  0  0  0  0  0  0  0  0  0
   -1.6669   -1.7711    0.8820 C   0  0  0  0  0  0  0  0  0  0  0  0
   -0.9527   -2.4542    1.5941 O   0  0  0  0  0  0  0  0  0  0  0  0
   -1.2986   -0.5038    0.4681 N   0  0  0  0  0  0  0  0  0  0  0  0
   -2.0136   -0.0265   -0.0759 H   0  0  0  0  0  0  0  0  0  0  0  0
    0.0438    0.1233    0.4115 C   0  0  1  0  0  0  0  0  0  0  0  0
    0.1339    0.6248   -0.5594 H   0  0  0  0  0  0  0  0  0  0  0  0
    0.0846    1.1763    1.5388 C   0  0  0  0  0  0  0  0  0  0  0  0
   -0.1901    0.7056    2.4873 H   0  0  0  0  0  0  0  0  0  0  0  0
    1.1044    1.5580    1.6452 H   0  0  0  0  0  0  0  0  0  0  0  0
   -0.8238    2.3781    1.2982 C   0  0  0  0  0  0  0  0  0  0  0  0
   -1.0743    2.7302    0.1567 O   0  0  0  0  0  0  0  0  0  0  0  0
   -1.3035    3.0101    2.3941 O   0  0  0  0  0  0  0  0  0  0  0  0
   -1.8302    3.7553    2.0671 H   0  0  0  0  0  0  0  0  0  0  0  0
    1.3275   -0.7445    0.5161 C   0  0  0  0  0  0  0  0  0  0  0  0
    2.1836   -0.6100   -0.3485 O   0  0  0  0  0  0  0  0  0  0  0  0
    1.6143   -1.5331    1.6137 N   0  0  0  0  0  0  0  0  0  0  0  0
    0.7870   -1.8413    2.1296 H   0  0  0  0  0  0  0  0  0  0  0  0
    2.8032   -2.3728    1.6858 C   0  0  0  0  0  0  0  0  0  0  0  0
    3.7094   -1.7633    1.6056 H   0  0  0  0  0  0  0  0  0  0  0  0
    2.8303   -2.9049    2.6413 H   0  0  0  0  0  0  0  0  0  0  0  0
    2.8011   -3.1103    0.8765 H   0  0  0  0  0  0  0  0  0  0  0  0
  1  2  1  0  0  0  0
  2  3  1  0  0  0  0
  2  4  1  0  0  0  0
  2  5  1  0  0  0  0
  5  6  2  0  0  0  0
  5  7  1  0  0  0  0
  7  8  1  0  0  0  0
  7  9  1  0  0  0  0
  9 10  1  0  0  0  0
  9 11  1  0  0  0  0
  9 18  1  0  0  0  0
 11 12  1  0  0  0  0
 11 13  1  0  0  0  0
 11 14  1  0  0  0  0
 14 15  2  0  0  0  0
 14 16  1  0  0  0  0
 16 17  1  0  0  0  0
 18 19  2  0  0  0  0
 18 20  1  0  0  0  0
 20 21  1  0  0  0  0
 20 22  1  0  0  0  0
 22 23  1  0  0  0  0
 22 24  1  0  0  0  0
 22 25  1  0  0  0  0
M  END
$$$$

  -OEChem-01062216063D

 25 24  0     1  0  0  0  0  0999 V2000
   -3.3451   -3.2230    0.8719 H   0  0  0  0  0  0  0  0  0  0  0  0
   -3.1684   -2.1959    0.5399 C   0  0  0  0  0  0  0  0  0  0  0  0
   -3.8742   -1.5351    1.0490 H   0  0  0  0  0  0  0  0  0  0  0  0
   -3.3410   -2.1423   -0.5377 H   0  0  0  0  0  0  0  0  0  0  0  0
   -1.7450   -1.7786    0.8595 C   0  0  0  0  0  0  0  0  0  0  0  0
   -1.0581   -2.5211    1.5363 O   0  0  0  0  0  0  0  0  0  0  0  0
   -1.3186   -0.5276    0.4516 N   0  0  0  0  0  0  0  0  0  0  0  0
   -2.0285   -0.0067   -0.0579 H   0  0  0  0  0  0  0  0  0  0  0  0
    0.0361    0.0781    0.4012 C   0  0  1  0  0  0  0  0  0  0  0  0
    0.1305    0.5810   -0.5686 H   0  0  0  0  0  0  0  0  0  0  0  0
    0.0732    1.1261    1.5340 C   0  0  0  0  0  0  0  0  0  0  0  0
   -0.2158    0.6520    2.4765 H   0  0  0  0  0  0  0  0  0  0  0  0
    1.0944    1.4999    1.6548 H   0  0  0  0  0  0  0  0  0  0  0  0
   -0.8206    2.3378    1.2892 C   0  0  0  0  0  0  0  0  0  0  0  0
   -1.0543    2.6980    0.1467 O   0  0  0  0  0  0  0  0  0  0  0  0
   -1.3101    2.9668    2.3825 O   0  0  0  0  0  0  0  0  0  0  0  0
   -1.8240    3.7199    2.0534 H   0  0  0  0  0  0  0  0  0  0  0  0
    1.3367   -0.7671    0.5122 C   0  0  0  0  0  0  0  0  0  0  0  0
    2.2800   -0.4439   -0.1980 O   0  0  0  0  0  0  0  0  0  0  0  0
    1.5406   -1.7711    1.4373 N   0  0  0  0  0  0  0  0  0  0  0  0
    0.6943   -2.1411    1.8754 H   0  0  0  0  0  0  0  0  0  0  0  0
    2.7545   -2.5752    1.4952 C   0  0  0  0  0  0  0  0  0  0  0  0
    3.6285   -1.9388    1.6684 H   0  0  0  0  0  0  0  0  0  0  0  0
    2.6879   -3.2982    2.3139 H   0  0  0  0  0  0  0  0  0  0  0  0
    2.8964   -3.1227    0.5578 H   0  0  0  0  0  0  0  0  0  0  0  0
  1  2  1  0  0  0  0
  2  3  1  0  0  0  0
  2  4  1  0  0  0  0
  2  5  1  0  0  0  0
  5  6  2  0  0  0  0
  5  7  1  0  0  0  0
  7  8  1  0  0  0  0
  7  9  1  0  0  0  0
  9 10  1  0  0  0  0
  9 11  1  0  0  0  0
  9 18  1  0  0  0  0
 11 12  1  0  0  0  0
 11 13  1  0  0  0  0
 11 14  1  0  0  0  0
 14 15  2  0  0  0  0
 14 16  1  0  0  0  0
 16 17  1  0  0  0  0
 18 19  2  0  0  0  0
 18 20  1  0  0  0  0
 20 21  1  0  0  0  0
 20 22  1  0  0  0  0
 22 23  1  0  0  0  0
 22 24  1  0  0  0  0
 22 25  1  0  0  0  0
M  END
$$$$

  -OEChem-01062216063D

 25 24  0     1  0  0  0  0  0999 V2000
   -2.7815   -3.5441    0.9804 H   0  0  0  0  0  0  0  0  0  0  0  0
   -2.6831   -2.5603    0.5125 C   0  0  0  0  0  0  0  0  0  0  0  0
   -3.5744   -1.9712    0.7414 H   0  0  0  0  0  0  0  0  0  0  0  0
   -2.6089   -2.6931   -0.5694 H   0  0  0  0  0  0  0  0  0  0  0  0
   -1.4469   -1.8531    1.0359 C   0  0  0  0  0  0  0  0  0  0  0  0
   -0.8647   -2.3283    1.9908 O   0  0  0  0  0  0  0  0  0  0  0  0
   -1.1421   -0.6000    0.5429 N   0  0  0  0  0  0  0  0  0  0  0  0
   -1.8215   -0.2665   -0.1362 H   0  0  0  0  0  0  0  0  0  0  0  0
    0.1369    0.1522    0.5304 C   0  0  1  0  0  0  0  0  0  0  0  0
    0.2456    0.5813   -0.4716 H   0  0  0  0  0  0  0  0  0  0  0  0
   -0.0800    1.2872    1.5600 C   0  0  0  0  0  0  0  0  0  0  0  0
   -0.4021    0.8539    2.5118 H   0  0  0  0  0  0  0  0  0  0  0  0
    0.8610    1.8129    1.7456 H   0  0  0  0  0  0  0  0  0  0  0  0
   -1.0922    2.3396    1.1181 C   0  0  0  0  0  0  0  0  0  0  0  0
   -1.2487    2.5680   -0.0714 O   0  0  0  0  0  0  0  0  0  0  0  0
   -1.7700    2.9862    2.0949 O   0  0  0  0  0  0  0  0  0  0  0  0
   -2.3421    3.6280    1.6481 H   0  0  0  0  0  0  0  0  0  0  0  0
    1.5441   -0.4728    0.7954 C   0  0  0  0  0  0  0  0  0  0  0  0
    2.5195    0.2226    0.5553 O   0  0  0  0  0  0  0  0  0  0  0  0
    1.9040   -1.5453    1.5727 N   0  0  0  0  0  0  0  0  0  0  0  0
    2.8160   -1.3645    1.9829 H   0  0  0  0  0  0  0  0  0  0  0  0
    1.8065   -2.8798    0.9928 C   0  0  0  0  0  0  0  0  0  0  0  0
    2.7722   -3.1759    0.5712 H   0  0  0  0  0  0  0  0  0  0  0  0
    1.5247   -3.6046    1.7634 H   0  0  0  0  0  0  0  0  0  0  0  0
    1.0606   -2.9181    0.1926 H   0  0  0  0  0  0  0  0  0  0  0  0
  1  2  1  0  0  0  0
  2  3  1  0  0  0  0
  2  4  1  0  0  0  0
  2  5  1  0  0  0  0
  5  6  2  0  0  0  0
  5  7  1  0  0  0  0
  7  8  1  0  0  0  0
  7  9  1  0  0  0  0
  9 10  1  0  0  0  0
  9 11  1  0  0  0  0
  9 18  1  0  0  0  0
 11 12  1  0  0  0  0
 11 13  1  0  0  0  0
 11 14  1  0  0  0  0
 14 15  2  0  0  0  0
 14 16  1  0  0  0  0
 16 17  1  0  0  0  0
 18 19  2  0  0  0  0
 18 20  1  0  0  0  0
 20 21  1  0  0  0  0
 20 22  1  0  0  0  0
 22 23  1  0  0  0  0
 22 24  1  0  0  0  0
 22 25  1  0  0  0  0
M  END
$$$$

  -OEChem-01062216063D

 25 24  0     1  0  0  0  0  0999 V2000
   -2.7197   -3.5786    1.0669 H   0  0  0  0  0  0  0  0  0  0  0  0
   -2.6448   -2.5966    0.5911 C   0  0  0  0  0  0  0  0  0  0  0  0
   -3.5355   -2.0156    0.8420 H   0  0  0  0  0  0  0  0  0  0  0  0
   -2.5996   -2.7342   -0.4918 H   0  0  0  0  0  0  0  0  0  0  0  0
   -1.4020   -1.8739    1.0756 C   0  0  0  0  0  0  0  0  0  0  0  0
   -0.7731   -2.3460    2.0031 O   0  0  0  0  0  0  0  0  0  0  0  0
   -1.1389   -0.6075    0.5932 N   0  0  0  0  0  0  0  0  0  0  0  0
   -1.8497   -0.2732   -0.0525 H   0  0  0  0  0  0  0  0  0  0  0  0
    0.1312    0.1580    0.5398 C   0  0  1  0  0  0  0  0  0  0  0  0
    0.1949    0.6085   -0.4565 H   0  0  0  0  0  0  0  0  0  0  0  0
   -0.0686    1.2703    1.6001 C   0  0  0  0  0  0  0  0  0  0  0  0
   -0.3486    0.8134    2.5541 H   0  0  0  0  0  0  0  0  0  0  0  0
    0.8659    1.8130    1.7658 H   0  0  0  0  0  0  0  0  0  0  0  0
   -1.1143    2.3121    1.2135 C   0  0  0  0  0  0  0  0  0  0  0  0
   -1.3157    2.5591    0.0344 O   0  0  0  0  0  0  0  0  0  0  0  0
   -1.7718    2.9260    2.2246 O   0  0  0  0  0  0  0  0  0  0  0  0
   -2.3705    3.5648    1.8096 H   0  0  0  0  0  0  0  0  0  0  0  0
    1.5555   -0.4620    0.7289 C   0  0  0  0  0  0  0  0  0  0  0  0
    2.5197    0.2843    0.6502 O   0  0  0  0  0  0  0  0  0  0  0  0
    1.9439   -1.6818    1.2265 N   0  0  0  0  0  0  0  0  0  0  0  0
    2.8981   -1.6216    1.5713 H   0  0  0  0  0  0  0  0  0  0  0  0
    1.6652   -2.8961    0.4690 C   0  0  0  0  0  0  0  0  0  0  0  0
    2.5608   -3.2089   -0.0767 H   0  0  0  0  0  0  0  0  0  0  0  0
    1.3709   -3.7038    1.1468 H   0  0  0  0  0  0  0  0  0  0  0  0
    0.8630   -2.7428   -0.2593 H   0  0  0  0  0  0  0  0  0  0  0  0
  1  2  1  0  0  0  0
  2  3  1  0  0  0  0
  2  4  1  0  0  0  0
  2  5  1  0  0  0  0
  5  6  2  0  0  0  0
  5  7  1  0  0  0  0
  7  8  1  0  0  0  0
  7  9  1  0  0  0  0
  9 10  1  0  0  0  0
  9 11  1  0  0  0  0
  9 18  1  0  0  0  0
 11 12  1  0  0  0  0
 11 13  1  0  0  0  0
 11 14  1  0  0  0  0
 14 15  2  0  0  0  0
 14 16  1  0  0  0  0
 16 17  1  0  0  0  0
 18 19  2  0  0  0  0
 18 20  1  0  0  0  0
 20 21  1  0  0  0  0
 20 22  1  0  0  0  0
 22 23  1  0  0  0  0
 22 24  1  0  0  0  0
 22 25  1  0  0  0  0
M  END
$$$$

  -OEChem-01062216063D

 25 24  0     1  0  0  0  0  0999 V2000
   -3.0057   -3.5004    1.1992 H   0  0  0  0  0  0  0  0  0  0  0  0
   -2.9884   -2.4702    0.8319 C   0  0  0  0  0  0  0  0  0  0  0  0
   -3.7046   -1.8795    1.4082 H   0  0  0  0  0  0  0  0  0  0  0  0
   -3.2856   -2.4688   -0.2194 H   0  0  0  0  0  0  0  0  0  0  0  0
   -1.5957   -1.8856    0.9774 C   0  0  0  0  0  0  0  0  0  0  0  0
   -0.7544   -2.5252    1.5769 O   0  0  0  0  0  0  0  0  0  0  0  0
   -1.3881   -0.5679    0.6207 N   0  0  0  0  0  0  0  0  0  0  0  0
   -2.2382   -0.1123    0.2992 H   0  0  0  0  0  0  0  0  0  0  0  0
   -0.1471    0.1225    0.1926 C   0  0  1  0  0  0  0  0  0  0  0  0
   -0.4060    0.7431   -0.6729 H   0  0  0  0  0  0  0  0  0  0  0  0
    0.2352    1.0269    1.3854 C   0  0  0  0  0  0  0  0  0  0  0  0
    0.2878    0.4217    2.2955 H   0  0  0  0  0  0  0  0  0  0  0  0
    1.2270    1.4587    1.2223 H   0  0  0  0  0  0  0  0  0  0  0  0
   -0.7248    2.1910    1.6127 C   0  0  0  0  0  0  0  0  0  0  0  0
   -1.3349    2.6674    0.6682 O   0  0  0  0  0  0  0  0  0  0  0  0
   -0.8380    2.6517    2.8799 O   0  0  0  0  0  0  0  0  0  0  0  0
   -1.4609    3.3931    2.8427 H   0  0  0  0  0  0  0  0  0  0  0  0
    1.1474   -0.6155   -0.2667 C   0  0  0  0  0  0  0  0  0  0  0  0
    1.9353    0.0170   -0.9530 O   0  0  0  0  0  0  0  0  0  0  0  0
    1.3901   -1.9634   -0.3619 N   0  0  0  0  0  0  0  0  0  0  0  0
    1.9197   -2.1349   -1.2121 H   0  0  0  0  0  0  0  0  0  0  0  0
    2.0140   -2.6005    0.7933 C   0  0  0  0  0  0  0  0  0  0  0  0
    1.7817   -2.0675    1.7218 H   0  0  0  0  0  0  0  0  0  0  0  0
    1.6606   -3.6320    0.8906 H   0  0  0  0  0  0  0  0  0  0  0  0
    3.1018   -2.6134    0.6732 H   0  0  0  0  0  0  0  0  0  0  0  0
  1  2  1  0  0  0  0
  2  3  1  0  0  0  0
  2  4  1  0  0  0  0
  2  5  1  0  0  0  0
  5  6  2  0  0  0  0
  5  7  1  0  0  0  0
  7  8  1  0  0  0  0
  7  9  1  0  0  0  0
  9 10  1  0  0  0  0
  9 11  1  0  0  0  0
  9 18  1  0  0  0  0
 11 12  1  0  0  0  0
 11 13  1  0  0  0  0
 11 14  1  0  0  0  0
 14 15  2  0  0  0  0
 14 16  1  0  0  0  0
 16 17  1  0  0  0  0
 18 19  2  0  0  0  0
 18 20  1  0  0  0  0
 20 21  1  0  0  0  0
 20 22  1  0  0  0  0
 22 23  1  0  0  0  0
 22 24  1  0  0  0  0
 22 25  1  0  0  0  0
M  END
$$$$

  -OEChem-01062216063D

 25 24  0     1  0  0  0  0  0999 V2000
   -3.4030   -3.1532    0.9449 H   0  0  0  0  0  0  0  0  0  0  0  0
   -3.2170   -2.1208    0.6350 C   0  0  0  0  0  0  0  0  0  0  0  0
   -3.8391   -1.4556    1.2387 H   0  0  0  0  0  0  0  0  0  0  0  0
   -3.4953   -2.0154   -0.4164 H   0  0  0  0  0  0  0  0  0  0  0  0
   -1.7525   -1.7716    0.8230 C   0  0  0  0  0  0  0  0  0  0  0  0
   -1.0226   -2.5822    1.3634 O   0  0  0  0  0  0  0  0  0  0  0  0
   -1.3207   -0.5141    0.4422 N   0  0  0  0  0  0  0  0  0  0  0  0
   -2.0585    0.0647    0.0472 H   0  0  0  0  0  0  0  0  0  0  0  0
    0.0401    0.0756    0.3443 C   0  0  1  0  0  0  0  0  0  0  0  0
    0.1026    0.6039   -0.6132 H   0  0  0  0  0  0  0  0  0  0  0  0
    0.0914    1.0979    1.5084 C   0  0  0  0  0  0  0  0  0  0  0  0
   -0.1729    0.5958    2.4436 H   0  0  0  0  0  0  0  0  0  0  0  0
    1.1051    1.4896    1.6287 H   0  0  0  0  0  0  0  0  0  0  0  0
   -0.8167    2.3074    1.3097 C   0  0  0  0  0  0  0  0  0  0  0  0
   -1.0734    2.6929    0.1800 O   0  0  0  0  0  0  0  0  0  0  0  0
   -1.3000    2.9002    2.4257 O   0  0  0  0  0  0  0  0  0  0  0  0
   -1.8212    3.6598    2.1246 H   0  0  0  0  0  0  0  0  0  0  0  0
    1.3411   -0.7872    0.3537 C   0  0  0  0  0  0  0  0  0  0  0  0
    2.4188   -0.2047    0.3811 O   0  0  0  0  0  0  0  0  0  0  0  0
    1.3744   -2.1538    0.1551 N   0  0  0  0  0  0  0  0  0  0  0  0
    0.5040   -2.6394    0.3748 H   0  0  0  0  0  0  0  0  0  0  0  0
    2.6070   -2.9320    0.1806 C   0  0  0  0  0  0  0  0  0  0  0  0
    3.1010   -2.8368    1.1532 H   0  0  0  0  0  0  0  0  0  0  0  0
    2.3877   -3.9893    0.0043 H   0  0  0  0  0  0  0  0  0  0  0  0
    3.2939   -2.5886   -0.6000 H   0  0  0  0  0  0  0  0  0  0  0  0
  1  2  1  0  0  0  0
  2  3  1  0  0  0  0
  2  4  1  0  0  0  0
  2  5  1  0  0  0  0
  5  6  2  0  0  0  0
  5  7  1  0  0  0  0
  7  8  1  0  0  0  0
  7  9  1  0  0  0  0
  9 10  1  0  0  0  0
  9 11  1  0  0  0  0
  9 18  1  0  0  0  0
 11 12  1  0  0  0  0
 11 13  1  0  0  0  0
 11 14  1  0  0  0  0
 14 15  2  0  0  0  0
 14 16  1  0  0  0  0
 16 17  1  0  0  0  0
 18 19  2  0  0  0  0
 18 20  1  0  0  0  0
 20 21  1  0  0  0  0
 20 22  1  0  0  0  0
 22 23  1  0  0  0  0
 22 24  1  0  0  0  0
 22 25  1  0  0  0  0
M  END
$$$$

  -OEChem-01062216063D

 25 24  0     1  0  0  0  0  0999 V2000
   -3.3069   -3.1836    0.9846 H   0  0  0  0  0  0  0  0  0  0  0  0
   -3.1481   -2.1454    0.6789 C   0  0  0  0  0  0  0  0  0  0  0  0
   -3.7403   -1.4949    1.3271 H   0  0  0  0  0  0  0  0  0  0  0  0
   -3.4876   -2.0279   -0.3530 H   0  0  0  0  0  0  0  0  0  0  0  0
   -1.6779   -1.7853    0.7868 C   0  0  0  0  0  0  0  0  0  0  0  0
   -0.8998   -2.6190    1.2121 O   0  0  0  0  0  0  0  0  0  0  0  0
   -1.2802   -0.5113    0.4239 N   0  0  0  0  0  0  0  0  0  0  0  0
   -2.0405    0.0802    0.0967 H   0  0  0  0  0  0  0  0  0  0  0  0
    0.0693    0.1046    0.3429 C   0  0  1  0  0  0  0  0  0  0  0  0
    0.1366    0.6372   -0.6117 H   0  0  0  0  0  0  0  0  0  0  0  0
    0.0928    1.1272    1.5094 C   0  0  0  0  0  0  0  0  0  0  0  0
   -0.1682    0.6195    2.4424 H   0  0  0  0  0  0  0  0  0  0  0  0
    1.0969    1.5399    1.6375 H   0  0  0  0  0  0  0  0  0  0  0  0
   -0.8341    2.3210    1.3038 C   0  0  0  0  0  0  0  0  0  0  0  0
   -1.0871    2.7027    0.1721 O   0  0  0  0  0  0  0  0  0  0  0  0
   -1.3396    2.9034    2.4155 O   0  0  0  0  0  0  0  0  0  0  0  0
   -1.8699    3.6552    2.1107 H   0  0  0  0  0  0  0  0  0  0  0  0
    1.3639   -0.7683    0.3531 C   0  0  0  0  0  0  0  0  0  0  0  0
    2.4379   -0.2431    0.6226 O   0  0  0  0  0  0  0  0  0  0  0  0
    1.3999   -2.0537   -0.1543 N   0  0  0  0  0  0  0  0  0  0  0  0
    0.5132   -2.5515   -0.0703 H   0  0  0  0  0  0  0  0  0  0  0  0
    2.6146   -2.8610   -0.1592 C   0  0  0  0  0  0  0  0  0  0  0  0
    2.9828   -3.0055    0.8620 H   0  0  0  0  0  0  0  0  0  0  0  0
    2.4122   -3.8428   -0.5976 H   0  0  0  0  0  0  0  0  0  0  0  0
    3.3976   -2.3753   -0.7512 H   0  0  0  0  0  0  0  0  0  0  0  0
  1  2  1  0  0  0  0
  2  3  1  0  0  0  0
  2  4  1  0  0  0  0
  2  5  1  0  0  0  0
  5  6  2  0  0  0  0
  5  7  1  0  0  0  0
  7  8  1  0  0  0  0
  7  9  1  0  0  0  0
  9 10  1  0  0  0  0
  9 11  1  0  0  0  0
  9 18  1  0  0  0  0
 11 12  1  0  0  0  0
 11 13  1  0  0  0  0
 11 14  1  0  0  0  0
 14 15  2  0  0  0  0
 14 16  1  0  0  0  0
 16 17  1  0  0  0  0
 18 19  2  0  0  0  0
 18 20  1  0  0  0  0
 20 21  1  0  0  0  0
 20 22  1  0  0  0  0
 22 23  1  0  0  0  0
 22 24  1  0  0  0  0
 22 25  1  0  0  0  0
M  END
$$$$

  -OEChem-01062216063D

 25 24  0     1  0  0  0  0  0999 V2000
   -3.1954   -3.2197    1.0281 H   0  0  0  0  0  0  0  0  0  0  0  0
   -3.0681   -2.1780    0.7189 C   0  0  0  0  0  0  0  0  0  0  0  0
   -3.6266   -1.5382    1.4066 H   0  0  0  0  0  0  0  0  0  0  0  0
   -3.4723   -2.0593   -0.2893 H   0  0  0  0  0  0  0  0  0  0  0  0
   -1.5983   -1.8006    0.7380 C   0  0  0  0  0  0  0  0  0  0  0  0
   -0.7790   -2.6469    1.0439 O   0  0  0  0  0  0  0  0  0  0  0  0
   -1.2397   -0.5095    0.3931 N   0  0  0  0  0  0  0  0  0  0  0  0
   -2.0219    0.0889    0.1384 H   0  0  0  0  0  0  0  0  0  0  0  0
    0.0966    0.1349    0.3411 C   0  0  1  0  0  0  0  0  0  0  0  0
    0.1774    0.6720   -0.6098 H   0  0  0  0  0  0  0  0  0  0  0  0
    0.0919    1.1555    1.5092 C   0  0  0  0  0  0  0  0  0  0  0  0
   -0.1681    0.6424    2.4395 H   0  0  0  0  0  0  0  0  0  0  0  0
    1.0886    1.5841    1.6440 H   0  0  0  0  0  0  0  0  0  0  0  0
   -0.8498    2.3360    1.2965 C   0  0  0  0  0  0  0  0  0  0  0  0
   -1.0956    2.7163    0.1629 O   0  0  0  0  0  0  0  0  0  0  0  0
   -1.3773    2.9077    2.4037 O   0  0  0  0  0  0  0  0  0  0  0  0
   -1.9144    3.6533    2.0954 H   0  0  0  0  0  0  0  0  0  0  0  0
    1.3809   -0.7501    0.3660 C   0  0  0  0  0  0  0  0  0  0  0  0
    2.4060   -0.3431    0.9010 O   0  0  0  0  0  0  0  0  0  0  0  0
    1.4716   -1.8840   -0.4204 N   0  0  0  0  0  0  0  0  0  0  0  0
    0.5780   -2.3554   -0.5505 H   0  0  0  0  0  0  0  0  0  0  0  0
    2.6656   -2.7212   -0.4370 C   0  0  0  0  0  0  0  0  0  0  0  0
    2.8651   -3.1225    0.5622 H   0  0  0  0  0  0  0  0  0  0  0  0
    2.5288   -3.5586   -1.1275 H   0  0  0  0  0  0  0  0  0  0  0  0
    3.5362   -2.1440   -0.7660 H   0  0  0  0  0  0  0  0  0  0  0  0
  1  2  1  0  0  0  0
  2  3  1  0  0  0  0
  2  4  1  0  0  0  0
  2  5  1  0  0  0  0
  5  6  2  0  0  0  0
  5  7  1  0  0  0  0
  7  8  1  0  0  0  0
  7  9  1  0  0  0  0
  9 10  1  0  0  0  0
  9 11  1  0  0  0  0
  9 18  1  0  0  0  0
 11 12  1  0  0  0  0
 11 13  1  0  0  0  0
 11 14  1  0  0  0  0
 14 15  2  0  0  0  0
 14 16  1  0  0  0  0
 16 17  1  0  0  0  0
 18 19  2  0  0  0  0
 18 20  1  0  0  0  0
 20 21  1  0  0  0  0
 20 22  1  0  0  0  0
 22 23  1  0  0  0  0
 22 24  1  0  0  0  0
 22 25  1  0  0  0  0
M  END
$$$$

  -OEChem-01062216063D

 25 24  0     1  0  0  0  0  0999 V2000
   -3.0731   -3.2649    1.0499 H   0  0  0  0  0  0  0  0  0  0  0  0
   -2.9830   -2.2191    0.7417 C   0  0  0  0  0  0  0  0  0  0  0  0
   -3.5250   -1.5959    1.4572 H   0  0  0  0  0  0  0  0  0  0  0  0
   -3.4328   -2.1040   -0.2473 H   0  0  0  0  0  0  0  0  0  0  0  0
   -1.5226   -1.8098    0.6990 C   0  0  0  0  0  0  0  0  0  0  0  0
   -0.6718   -2.6480    0.9323 O   0  0  0  0  0  0  0  0  0  0  0  0
   -1.2081   -0.5038    0.3640 N   0  0  0  0  0  0  0  0  0  0  0  0
   -2.0105    0.0896    0.1683 H   0  0  0  0  0  0  0  0  0  0  0  0
    0.1133    0.1679    0.3349 C   0  0  1  0  0  0  0  0  0  0  0  0
    0.2019    0.7128   -0.6108 H   0  0  0  0  0  0  0  0  0  0  0  0
    0.0913    1.1829    1.5059 C   0  0  0  0  0  0  0  0  0  0  0  0
   -0.1658    0.6625    2.4329 H   0  0  0  0  0  0  0  0  0  0  0  0
    1.0853    1.6178    1.6433 H   0  0  0  0  0  0  0  0  0  0  0  0
   -0.8638    2.3527    1.2954 C   0  0  0  0  0  0  0  0  0  0  0  0
   -1.1095    2.7341    0.1621 O   0  0  0  0  0  0  0  0  0  0  0  0
   -1.4023    2.9140    2.4026 O   0  0  0  0  0  0  0  0  0  0  0  0
   -1.9473    3.6543    2.0954 H   0  0  0  0  0  0  0  0  0  0  0  0
    1.3889   -0.7244    0.3740 C   0  0  0  0  0  0  0  0  0  0  0  0
    2.3040   -0.4935    1.1565 O   0  0  0  0  0  0  0  0  0  0  0  0
    1.6003   -1.6537   -0.6289 N   0  0  0  0  0  0  0  0  0  0  0  0
    0.7512   -1.9941   -1.0706 H   0  0  0  0  0  0  0  0  0  0  0  0
    2.7549   -2.5441   -0.6255 C   0  0  0  0  0  0  0  0  0  0  0  0
    2.7510   -3.1709    0.2725 H   0  0  0  0  0  0  0  0  0  0  0  0
    2.7322   -3.1955   -1.5043 H   0  0  0  0  0  0  0  0  0  0  0  0
    3.6858   -1.9676   -0.6493 H   0  0  0  0  0  0  0  0  0  0  0  0
  1  2  1  0  0  0  0
  2  3  1  0  0  0  0
  2  4  1  0  0  0  0
  2  5  1  0  0  0  0
  5  6  2  0  0  0  0
  5  7  1  0  0  0  0
  7  8  1  0  0  0  0
  7  9  1  0  0  0  0
  9 10  1  0  0  0  0
  9 11  1  0  0  0  0
  9 18  1  0  0  0  0
 11 12  1  0  0  0  0
 11 13  1  0  0  0  0
 11 14  1  0  0  0  0
 14 15  2  0  0  0  0
 14 16  1  0  0  0  0
 16 17  1  0  0  0  0
 18 19  2  0  0  0  0
 18 20  1  0  0  0  0
 20 21  1  0  0  0  0
 20 22  1  0  0  0  0
 22 23  1  0  0  0  0
 22 24  1  0  0  0  0
 22 25  1  0  0  0  0
M  END
$$$$

  -OEChem-01062216063D

 25 24  0     1  0  0  0  0  0999 V2000
   -3.0193   -3.2837    1.0639 H   0  0  0  0  0  0  0  0  0  0  0  0
   -2.9457   -2.2356    0.7595 C   0  0  0  0  0  0  0  0  0  0  0  0
   -3.4655   -1.6200    1.4974 H   0  0  0  0  0  0  0  0  0  0  0  0
   -3.4303   -2.1169   -0.2125 H   0  0  0  0  0  0  0  0  0  0  0  0
   -1.4898   -1.8177    0.6687 C   0  0  0  0  0  0  0  0  0  0  0  0
   -0.6270   -2.6580    0.8443 O   0  0  0  0  0  0  0  0  0  0  0  0
   -1.1959   -0.5056    0.3368 N   0  0  0  0  0  0  0  0  0  0  0  0
   -2.0077    0.0873    0.1838 H   0  0  0  0  0  0  0  0  0  0  0  0
    0.1182    0.1782    0.3285 C   0  0  1  0  0  0  0  0  0  0  0  0
    0.2168    0.7289   -0.6127 H   0  0  0  0  0  0  0  0  0  0  0  0
    0.0868    1.1877    1.5024 C   0  0  0  0  0  0  0  0  0  0  0  0
   -0.1756    0.6628    2.4258 H   0  0  0  0  0  0  0  0  0  0  0  0
    1.0822    1.6177    1.6463 H   0  0  0  0  0  0  0  0  0  0  0  0
   -0.8704    2.3558    1.2931 C   0  0  0  0  0  0  0  0  0  0  0  0
   -1.1108    2.7408    0.1599 O   0  0  0  0  0  0  0  0  0  0  0  0
   -1.4143    2.9127    2.3995 O   0  0  0  0  0  0  0  0  0  0  0  0
   -1.9606    3.6522    2.0930 H   0  0  0  0  0  0  0  0  0  0  0  0
    1.3886   -0.7166    0.3884 C   0  0  0  0  0  0  0  0  0  0  0  0
    2.1614   -0.6654    1.3392 O   0  0  0  0  0  0  0  0  0  0  0  0
    1.7755   -1.4125   -0.7431 N   0  0  0  0  0  0  0  0  0  0  0  0
    1.0400   -1.5857   -1.4210 H   0  0  0  0  0  0  0  0  0  0  0  0
    2.9250   -2.3094   -0.7437 C   0  0  0  0  0  0  0  0  0  0  0  0
    2.7846   -3.1097   -0.0092 H   0  0  0  0  0  0  0  0  0  0  0  0
    3.0511   -2.7624   -1.7316 H   0  0  0  0  0  0  0  0  0  0  0  0
    3.8407   -1.7615   -0.4976 H   0  0  0  0  0  0  0  0  0  0  0  0
  1  2  1  0  0  0  0
  2  3  1  0  0  0  0
  2  4  1  0  0  0  0
  2  5  1  0  0  0  0
  5  6  2  0  0  0  0
  5  7  1  0  0  0  0
  7  8  1  0  0  0  0
  7  9  1  0  0  0  0
  9 10  1  0  0  0  0
  9 11  1  0  0  0  0
  9 18  1  0  0  0  0
 11 12  1  0  0  0  0
 11 13  1  0  0  0  0
 11 14  1  0  0  0  0
 14 15  2  0  0  0  0
 14 16  1  0  0  0  0
 16 17  1  0  0  0  0
 18 19  2  0  0  0  0
 18 20  1  0  0  0  0
 20 21  1  0  0  0  0
 20 22  1  0  0  0  0
 22 23  1  0  0  0  0
 22 24  1  0  0  0  0
 22 25  1  0  0  0  0
M  END
$$$$

  -OEChem-01062216063D

 25 24  0     1  0  0  0  0  0999 V2000
   -3.0310   -3.2754    1.0942 H   0  0  0  0  0  0  0  0  0  0  0  0
   -2.9559   -2.2331    0.7713 C   0  0  0  0  0  0  0  0  0  0  0  0
   -3.4604   -1.6021    1.5068 H   0  0  0  0  0  0  0  0  0  0  0  0
   -3.4549   -2.1268   -0.1949 H   0  0  0  0  0  0  0  0  0  0  0  0
   -1.4988   -1.8267    0.6508 C   0  0  0  0  0  0  0  0  0  0  0  0
   -0.6402   -2.6794    0.7814 O   0  0  0  0  0  0  0  0  0  0  0  0
   -1.2021   -0.5150    0.3200 N   0  0  0  0  0  0  0  0  0  0  0  0
   -2.0128    0.0858    0.1967 H   0  0  0  0  0  0  0  0  0  0  0  0
    0.1140    0.1627    0.3256 C   0  0  1  0  0  0  0  0  0  0  0  0
    0.2203    0.7156   -0.6133 H   0  0  0  0  0  0  0  0  0  0  0  0
    0.0865    1.1700    1.5003 C   0  0  0  0  0  0  0  0  0  0  0  0
   -0.1858    0.6458    2.4215 H   0  0  0  0  0  0  0  0  0  0  0  0
    1.0873    1.5859    1.6489 H   0  0  0  0  0  0  0  0  0  0  0  0
   -0.8596    2.3468    1.2893 C   0  0  0  0  0  0  0  0  0  0  0  0
   -1.0914    2.7352    0.1555 O   0  0  0  0  0  0  0  0  0  0  0  0
   -1.4056    2.9056    2.3937 O   0  0  0  0  0  0  0  0  0  0  0  0
   -1.9494    3.6461    2.0850 H   0  0  0  0  0  0  0  0  0  0  0  0
    1.3805   -0.7348    0.4014 C   0  0  0  0  0  0  0  0  0  0  0  0
    2.0122   -0.8511    1.4460 O   0  0  0  0  0  0  0  0  0  0  0  0
    1.9607   -1.1814   -0.7727 N   0  0  0  0  0  0  0  0  0  0  0  0
    1.3611   -1.1938   -1.5914 H   0  0  0  0  0  0  0  0  0  0  0  0
    3.1561   -2.0165   -0.7839 C   0  0  0  0  0  0  0  0  0  0  0  0
    2.9756   -2.9492   -0.2392 H   0  0  0  0  0  0  0  0  0  0  0  0
    3.4361   -2.2628   -1.8125 H   0  0  0  0  0  0  0  0  0  0  0  0
    3.9957   -1.4921   -0.3157 H   0  0  0  0  0  0  0  0  0  0  0  0
  1  2  1  0  0  0  0
  2  3  1  0  0  0  0
  2  4  1  0  0  0  0
  2  5  1  0  0  0  0
  5  6  2  0  0  0  0
  5  7  1  0  0  0  0
  7  8  1  0  0  0  0
  7  9  1  0  0  0  0
  9 10  1  0  0  0  0
  9 11  1  0  0  0  0
  9 18  1  0  0  0  0
 11 12  1  0  0  0  0
 11 13  1  0  0  0  0
 11 14  1  0  0  0  0
 14 15  2  0  0  0  0
 14 16  1  0  0  0  0
 16 17  1  0  0  0  0
 18 19  2  0  0  0  0
 18 20  1  0  0  0  0
 20 21  1  0  0  0  0
 20 22  1  0  0  0  0
 22 23  1  0  0  0  0
 22 24  1  0  0  0  0
 22 25  1  0  0  0  0
M  END
$$$$

  -OEChem-01062216063D

 25 24  0     1  0  0  0  0  0999 V2000
   -3.0390   -3.2683    1.0963 H   0  0  0  0  0  0  0  0  0  0  0  0
   -2.9631   -2.2167    0.8050 C   0  0  0  0  0  0  0  0  0  0  0  0
   -3.4033   -1.6023    1.5941 H   0  0  0  0  0  0  0  0  0  0  0  0
   -3.5220   -2.0664   -0.1217 H   0  0  0  0  0  0  0  0  0  0  0  0
   -1.5087   -1.8349    0.6017 C   0  0  0  0  0  0  0  0  0  0  0  0
   -0.6630   -2.7092    0.6416 O   0  0  0  0  0  0  0  0  0  0  0  0
   -1.2080   -0.5229    0.2761 N   0  0  0  0  0  0  0  0  0  0  0  0
   -2.0160    0.0898    0.2102 H   0  0  0  0  0  0  0  0  0  0  0  0
    0.1107    0.1486    0.3004 C   0  0  1  0  0  0  0  0  0  0  0  0
    0.2248    0.7092   -0.6329 H   0  0  0  0  0  0  0  0  0  0  0  0
    0.0801    1.1431    1.4849 C   0  0  0  0  0  0  0  0  0  0  0  0
   -0.2054    0.6101    2.3969 H   0  0  0  0  0  0  0  0  0  0  0  0
    1.0835    1.5469    1.6480 H   0  0  0  0  0  0  0  0  0  0  0  0
   -0.8571    2.3282    1.2816 C   0  0  0  0  0  0  0  0  0  0  0  0
   -1.0788    2.7315    0.1511 O   0  0  0  0  0  0  0  0  0  0  0  0
   -1.4080    2.8763    2.3889 O   0  0  0  0  0  0  0  0  0  0  0  0
   -1.9463    3.6232    2.0861 H   0  0  0  0  0  0  0  0  0  0  0  0
    1.3776   -0.7464    0.3921 C   0  0  0  0  0  0  0  0  0  0  0  0
    1.8587   -1.0351    1.4824 O   0  0  0  0  0  0  0  0  0  0  0  0
    2.1578   -0.9383   -0.7351 N   0  0  0  0  0  0  0  0  0  0  0  0
    1.7092   -0.7763   -1.6310 H   0  0  0  0  0  0  0  0  0  0  0  0
    3.3869   -1.7229   -0.7104 C   0  0  0  0  0  0  0  0  0  0  0  0
    3.1814   -2.7438   -0.3710 H   0  0  0  0  0  0  0  0  0  0  0  0
    3.8262   -1.7714   -1.7113 H   0  0  0  0  0  0  0  0  0  0  0  0
    4.1190   -1.2681   -0.0348 H   0  0  0  0  0  0  0  0  0  0  0  0
  1  2  1  0  0  0  0
  2  3  1  0  0  0  0
  2  4  1  0  0  0  0
  2  5  1  0  0  0  0
  5  6  2  0  0  0  0
  5  7  1  0  0  0  0
  7  8  1  0  0  0  0
  7  9  1  0  0  0  0
  9 10  1  0  0  0  0
  9 11  1  0  0  0  0
  9 18  1  0  0  0  0
 11 12  1  0  0  0  0
 11 13  1  0  0  0  0
 11 14  1  0  0  0  0
 14 15  2  0  0  0  0
 14 16  1  0  0  0  0
 16 17  1  0  0  0  0
 18 19  2  0  0  0  0
 18 20  1  0  0  0  0
 20 21  1  0  0  0  0
 20 22  1  0  0  0  0
 22 23  1  0  0  0  0
 22 24  1  0  0  0  0
 22 25  1  0  0  0  0
M  END
$$$$

  -OEChem-01062216063D

 25 24  0     1  0  0  0  0  0999 V2000
   -3.0620   -3.2536    1.1176 H   0  0  0  0  0  0  0  0  0  0  0  0
   -2.9799   -2.2004    0.8341 C   0  0  0  0  0  0  0  0  0  0  0  0
   -3.3622   -1.5873    1.6536 H   0  0  0  0  0  0  0  0  0  0  0  0
   -3.5862   -2.0272   -0.0581 H   0  0  0  0  0  0  0  0  0  0  0  0
   -1.5309   -1.8463    0.5544 C   0  0  0  0  0  0  0  0  0  0  0  0
   -0.7101   -2.7431    0.4990 O   0  0  0  0  0  0  0  0  0  0  0  0
   -1.2189   -0.5355    0.2350 N   0  0  0  0  0  0  0  0  0  0  0  0
   -2.0192    0.0902    0.2233 H   0  0  0  0  0  0  0  0  0  0  0  0
    0.1062    0.1229    0.2750 C   0  0  1  0  0  0  0  0  0  0  0  0
    0.2270    0.6873   -0.6548 H   0  0  0  0  0  0  0  0  0  0  0  0
    0.0814    1.1067    1.4678 C   0  0  0  0  0  0  0  0  0  0  0  0
   -0.2157    0.5684    2.3730 H   0  0  0  0  0  0  0  0  0  0  0  0
    1.0893    1.4950    1.6402 H   0  0  0  0  0  0  0  0  0  0  0  0
   -0.8405    2.3050    1.2721 C   0  0  0  0  0  0  0  0  0  0  0  0
   -1.0521    2.7219    0.1448 O   0  0  0  0  0  0  0  0  0  0  0  0
   -1.3907    2.8473    2.3824 O   0  0  0  0  0  0  0  0  0  0  0  0
   -1.9210    3.6022    2.0851 H   0  0  0  0  0  0  0  0  0  0  0  0
    1.3726   -0.7707    0.3785 C   0  0  0  0  0  0  0  0  0  0  0  0
    1.7189   -1.2248    1.4634 O   0  0  0  0  0  0  0  0  0  0  0  0
    2.3253   -0.7158   -0.6248 N   0  0  0  0  0  0  0  0  0  0  0  0
    2.0260   -0.3604   -1.5271 H   0  0  0  0  0  0  0  0  0  0  0  0
    3.5980   -1.4237   -0.5441 C   0  0  0  0  0  0  0  0  0  0  0  0
    3.4307   -2.4976   -0.4085 H   0  0  0  0  0  0  0  0  0  0  0  0
    4.1728   -1.2755   -1.4632 H   0  0  0  0  0  0  0  0  0  0  0  0
    4.1911   -1.0506    0.2976 H   0  0  0  0  0  0  0  0  0  0  0  0
  1  2  1  0  0  0  0
  2  3  1  0  0  0  0
  2  4  1  0  0  0  0
  2  5  1  0  0  0  0
  5  6  2  0  0  0  0
  5  7  1  0  0  0  0
  7  8  1  0  0  0  0
  7  9  1  0  0  0  0
  9 10  1  0  0  0  0
  9 11  1  0  0  0  0
  9 18  1  0  0  0  0
 11 12  1  0  0  0  0
 11 13  1  0  0  0  0
 11 14  1  0  0  0  0
 14 15  2  0  0  0  0
 14 16  1  0  0  0  0
 16 17  1  0  0  0  0
 18 19  2  0  0  0  0
 18 20  1  0  0  0  0
 20 21  1  0  0  0  0
 20 22  1  0  0  0  0
 22 23  1  0  0  0  0
 22 24  1  0  0  0  0
 22 25  1  0  0  0  0
M  END
$$$$

  -OEChem-01062216063D

 25 24  0     1  0  0  0  0  0999 V2000
   -3.0621   -3.2470    1.1173 H   0  0  0  0  0  0  0  0  0  0  0  0
   -2.9729   -2.1825    0.8824 C   0  0  0  0  0  0  0  0  0  0  0  0
   -3.2578   -1.6053    1.7652 H   0  0  0  0  0  0  0  0  0  0  0  0
   -3.6529   -1.9442    0.0614 H   0  0  0  0  0  0  0  0  0  0  0  0
   -1.5454   -1.8536    0.4871 C   0  0  0  0  0  0  0  0  0  0  0  0
   -0.7667   -2.7682    0.2897 O   0  0  0  0  0  0  0  0  0  0  0  0
   -1.2265   -0.5422    0.1791 N   0  0  0  0  0  0  0  0  0  0  0  0
   -2.0162    0.0932    0.2421 H   0  0  0  0  0  0  0  0  0  0  0  0
    0.1052    0.1021    0.2404 C   0  0  1  0  0  0  0  0  0  0  0  0
    0.2366    0.6717   -0.6846 H   0  0  0  0  0  0  0  0  0  0  0  0
    0.0804    1.0716    1.4444 C   0  0  0  0  0  0  0  0  0  0  0  0
   -0.2307    0.5259    2.3406 H   0  0  0  0  0  0  0  0  0  0  0  0
    1.0905    1.4469    1.6315 H   0  0  0  0  0  0  0  0  0  0  0  0
   -0.8262    2.2828    1.2550 C   0  0  0  0  0  0  0  0  0  0  0  0
   -1.0224    2.7154    0.1311 O   0  0  0  0  0  0  0  0  0  0  0  0
   -1.3801    2.8182    2.3668 O   0  0  0  0  0  0  0  0  0  0  0  0
   -1.8991    3.5828    2.0735 H   0  0  0  0  0  0  0  0  0  0  0  0
    1.3705   -0.7907    0.3547 C   0  0  0  0  0  0  0  0  0  0  0  0
    1.5911   -1.4095    1.3893 O   0  0  0  0  0  0  0  0  0  0  0  0
    2.4631   -0.5104   -0.4492 N   0  0  0  0  0  0  0  0  0  0  0  0
    2.2921    0.0213   -1.2967 H   0  0  0  0  0  0  0  0  0  0  0  0
    3.7572   -1.1641   -0.2867 C   0  0  0  0  0  0  0  0  0  0  0  0
    3.6475   -2.2520   -0.3519 H   0  0  0  0  0  0  0  0  0  0  0  0
    4.4475   -0.8384   -1.0705 H   0  0  0  0  0  0  0  0  0  0  0  0
    4.1949   -0.9121    0.6849 H   0  0  0  0  0  0  0  0  0  0  0  0
  1  2  1  0  0  0  0
  2  3  1  0  0  0  0
  2  4  1  0  0  0  0
  2  5  1  0  0  0  0
  5  6  2  0  0  0  0
  5  7  1  0  0  0  0
  7  8  1  0  0  0  0
  7  9  1  0  0  0  0
  9 10  1  0  0  0  0
  9 11  1  0  0  0  0
  9 18  1  0  0  0  0
 11 12  1  0  0  0  0
 11 13  1  0  0  0  0
 11 14  1  0  0  0  0
 14 15  2  0  0  0  0
 14 16  1  0  0  0  0
 16 17  1  0  0  0  0
 18 19  2  0  0  0  0
 18 20  1  0  0  0  0
 20 21  1  0  0  0  0
 20 22  1  0  0  0  0
 22 23  1  0  0  0  0
 22 24  1  0  0  0  0
 22 25  1  0  0  0  0
M  END
$$$$

  -OEChem-01062216063D

 25 24  0     1  0  0  0  0  0999 V2000
   -3.0405   -3.2341    1.1521 H   0  0  0  0  0  0  0  0  0  0  0  0
   -2.9480   -2.1653    0.9386 C   0  0  0  0  0  0  0  0  0  0  0  0
   -3.1374   -1.6077    1.8589 H   0  0  0  0  0  0  0  0  0  0  0  0
   -3.6935   -1.8890    0.1894 H   0  0  0  0  0  0  0  0  0  0  0  0
   -1.5550   -1.8563    0.4230 C   0  0  0  0  0  0  0  0  0  0  0  0
   -0.8381   -2.7789    0.0808 O   0  0  0  0  0  0  0  0  0  0  0  0
   -1.2288   -0.5456    0.1221 N   0  0  0  0  0  0  0  0  0  0  0  0
   -2.0053    0.0958    0.2506 H   0  0  0  0  0  0  0  0  0  0  0  0
    0.1097    0.0835    0.2017 C   0  0  1  0  0  0  0  0  0  0  0  0
    0.2529    0.6575   -0.7192 H   0  0  0  0  0  0  0  0  0  0  0  0
    0.0775    1.0387    1.4170 C   0  0  0  0  0  0  0  0  0  0  0  0
   -0.2498    0.4839    2.3016 H   0  0  0  0  0  0  0  0  0  0  0  0
    1.0872    1.4048    1.6238 H   0  0  0  0  0  0  0  0  0  0  0  0
   -0.8165    2.2598    1.2316 C   0  0  0  0  0  0  0  0  0  0  0  0
   -0.9946    2.7075    0.1109 O   0  0  0  0  0  0  0  0  0  0  0  0
   -1.3803    2.7862    2.3425 O   0  0  0  0  0  0  0  0  0  0  0  0
   -1.8908    3.5574    2.0509 H   0  0  0  0  0  0  0  0  0  0  0  0
    1.3772   -0.8052    0.3282 C   0  0  0  0  0  0  0  0  0  0  0  0
    1.4907   -1.5864    1.2646 O   0  0  0  0  0  0  0  0  0  0  0  0
    2.5624   -0.3377   -0.2171 N   0  0  0  0  0  0  0  0  0  0  0  0
    2.4946    0.3614   -0.9500 H   0  0  0  0  0  0  0  0  0  0  0  0
    3.8598   -0.9553    0.0383 C   0  0  0  0  0  0  0  0  0  0  0  0
    3.8365   -2.0181   -0.2251 H   0  0  0  0  0  0  0  0  0  0  0  0
    4.6353   -0.4678   -0.5601 H   0  0  0  0  0  0  0  0  0  0  0  0
    4.1288   -0.8603    1.0957 H   0  0  0  0  0  0  0  0  0  0  0  0
  1  2  1  0  0  0  0
  2  3  1  0  0  0  0
  2  4  1  0  0  0  0
  2  5  1  0  0  0  0
  5  6  2  0  0  0  0
  5  7  1  0  0  0  0
  7  8  1  0  0  0  0
  7  9  1  0  0  0  0
  9 10  1  0  0  0  0
  9 11  1  0  0  0  0
  9 18  1  0  0  0  0
 11 12  1  0  0  0  0
 11 13  1  0  0  0  0
 11 14  1  0  0  0  0
 14 15  2  0  0  0  0
 14 16  1  0  0  0  0
 16 17  1  0  0  0  0
 18 19  2  0  0  0  0
 18 20  1  0  0  0  0
 20 21  1  0  0  0  0
 20 22  1  0  0  0  0
 22 23  1  0  0  0  0
 22 24  1  0  0  0  0
 22 25  1  0  0  0  0
M  END
$$$$

  -OEChem-01062216063D

 25 24  0     1  0  0  0  0  0999 V2000
   -2.8098   -3.4524    0.9625 H   0  0  0  0  0  0  0  0  0  0  0  0
   -2.7113   -2.4900    0.4526 C   0  0  0  0  0  0  0  0  0  0  0  0
   -3.6589   -1.9515    0.5261 H   0  0  0  0  0  0  0  0  0  0  0  0
   -2.4819   -2.6742   -0.5995 H   0  0  0  0  0  0  0  0  0  0  0  0
   -1.5992   -1.6776    1.0883 C   0  0  0  0  0  0  0  0  0  0  0  0
   -1.1496   -2.0163    2.1708 O   0  0  0  0  0  0  0  0  0  0  0  0
   -1.3093   -0.4144    0.6074 N   0  0  0  0  0  0  0  0  0  0  0  0
   -1.9302   -0.1387   -0.1476 H   0  0  0  0  0  0  0  0  0  0  0  0
    0.0521    0.1588    0.4978 C   0  0  1  0  0  0  0  0  0  0  0  0
    0.1317    0.6362   -0.4841 H   0  0  0  0  0  0  0  0  0  0  0  0
    0.1342    1.2285    1.6102 C   0  0  0  0  0  0  0  0  0  0  0  0
   -0.1524    0.7731    2.5639 H   0  0  0  0  0  0  0  0  0  0  0  0
    1.1598    1.5892    1.7189 H   0  0  0  0  0  0  0  0  0  0  0  0
   -0.7495    2.4465    1.3579 C   0  0  0  0  0  0  0  0  0  0  0  0
   -0.9999    2.7781    0.2093 O   0  0  0  0  0  0  0  0  0  0  0  0
   -1.1857    3.1273    2.4424 O   0  0  0  0  0  0  0  0  0  0  0  0
   -1.7244    3.8595    2.1068 H   0  0  0  0  0  0  0  0  0  0  0  0
    1.3127   -0.7524    0.5871 C   0  0  0  0  0  0  0  0  0  0  0  0
    1.2583   -1.9734    0.6021 O   0  0  0  0  0  0  0  0  0  0  0  0
    2.5200   -0.2134    0.1701 N   0  0  0  0  0  0  0  0  0  0  0  0
    2.5630    0.7909    0.0287 H   0  0  0  0  0  0  0  0  0  0  0  0
    3.7316   -1.0013   -0.0348 C   0  0  0  0  0  0  0  0  0  0  0  0
    3.5950   -1.7060   -0.8618 H   0  0  0  0  0  0  0  0  0  0  0  0
    4.5743   -0.3456   -0.2740 H   0  0  0  0  0  0  0  0  0  0  0  0
    3.9800   -1.5652    0.8706 H   0  0  0  0  0  0  0  0  0  0  0  0
  1  2  1  0  0  0  0
  2  3  1  0  0  0  0
  2  4  1  0  0  0  0
  2  5  1  0  0  0  0
  5  6  2  0  0  0  0
  5  7  1  0  0  0  0
  7  8  1  0  0  0  0
  7  9  1  0  0  0  0
  9 10  1  0  0  0  0
  9 11  1  0  0  0  0
  9 18  1  0  0  0  0
 11 12  1  0  0  0  0
 11 13  1  0  0  0  0
 11 14  1  0  0  0  0
 14 15  2  0  0  0  0
 14 16  1  0  0  0  0
 16 17  1  0  0  0  0
 18 19  2  0  0  0  0
 18 20  1  0  0  0  0
 20 21  1  0  0  0  0
 20 22  1  0  0  0  0
 22 23  1  0  0  0  0
 22 24  1  0  0  0  0
 22 25  1  0  0  0  0
M  END
$$$$

  -OEChem-01062216063D

 25 24  0     1  0  0  0  0  0999 V2000
   -2.7338   -3.4706    0.9897 H   0  0  0  0  0  0  0  0  0  0  0  0
   -2.6949   -2.4919    0.5031 C   0  0  0  0  0  0  0  0  0  0  0  0
   -3.6186   -1.9512    0.7219 H   0  0  0  0  0  0  0  0  0  0  0  0
   -2.6107   -2.6405   -0.5761 H   0  0  0  0  0  0  0  0  0  0  0  0
   -1.4991   -1.7072    1.0085 C   0  0  0  0  0  0  0  0  0  0  0  0
   -0.8271   -2.1501    1.9275 O   0  0  0  0  0  0  0  0  0  0  0  0
   -1.2809   -0.4171    0.5562 N   0  0  0  0  0  0  0  0  0  0  0  0
   -1.9440   -0.1213   -0.1541 H   0  0  0  0  0  0  0  0  0  0  0  0
    0.0599    0.2014    0.4590 C   0  0  1  0  0  0  0  0  0  0  0  0
    0.0550    0.9052   -0.3795 H   0  0  0  0  0  0  0  0  0  0  0  0
    0.2792    0.9758    1.7812 C   0  0  0  0  0  0  0  0  0  0  0  0
    0.1027    0.3041    2.6272 H   0  0  0  0  0  0  0  0  0  0  0  0
    1.3109    1.3241    1.8555 H   0  0  0  0  0  0  0  0  0  0  0  0
   -0.6179    2.2014    1.9277 C   0  0  0  0  0  0  0  0  0  0  0  0
   -0.9956    2.7937    0.9288 O   0  0  0  0  0  0  0  0  0  0  0  0
   -0.9179    2.5968    3.1862 O   0  0  0  0  0  0  0  0  0  0  0  0
   -1.4843    3.3780    3.0975 H   0  0  0  0  0  0  0  0  0  0  0  0
    1.2615   -0.7453    0.1720 C   0  0  0  0  0  0  0  0  0  0  0  0
    1.0911   -1.8351   -0.3614 O   0  0  0  0  0  0  0  0  0  0  0  0
    2.5359   -0.2091    0.0774 N   0  0  0  0  0  0  0  0  0  0  0  0
    2.6758    0.7348    0.4224 H   0  0  0  0  0  0  0  0  0  0  0  0
    3.6917   -0.9570   -0.4065 C   0  0  0  0  0  0  0  0  0  0  0  0
    3.5606   -1.2259   -1.4600 H   0  0  0  0  0  0  0  0  0  0  0  0
    4.5993   -0.3529   -0.3142 H   0  0  0  0  0  0  0  0  0  0  0  0
    3.8267   -1.8741    0.1769 H   0  0  0  0  0  0  0  0  0  0  0  0
  1  2  1  0  0  0  0
  2  3  1  0  0  0  0
  2  4  1  0  0  0  0
  2  5  1  0  0  0  0
  5  6  2  0  0  0  0
  5  7  1  0  0  0  0
  7  8  1  0  0  0  0
  7  9  1  0  0  0  0
  9 10  1  0  0  0  0
  9 11  1  0  0  0  0
  9 18  1  0  0  0  0
 11 12  1  0  0  0  0
 11 13  1  0  0  0  0
 11 14  1  0  0  0  0
 14 15  2  0  0  0  0
 14 16  1  0  0  0  0
 16 17  1  0  0  0  0
 18 19  2  0  0  0  0
 18 20  1  0  0  0  0
 20 21  1  0  0  0  0
 20 22  1  0  0  0  0
 22 23  1  0  0  0  0
 22 24  1  0  0  0  0
 22 25  1  0  0  0  0
M  END
$$$$

  -OEChem-01062216063D

 25 24  0     1  0  0  0  0  0999 V2000
   -2.6863   -3.4769    0.9842 H   0  0  0  0  0  0  0  0  0  0  0  0
   -2.6792   -2.4852    0.5232 C   0  0  0  0  0  0  0  0  0  0  0  0
   -3.5932   -1.9573    0.8049 H   0  0  0  0  0  0  0  0  0  0  0  0
   -2.6513   -2.6041   -0.5627 H   0  0  0  0  0  0  0  0  0  0  0  0
   -1.4634   -1.7054    0.9864 C   0  0  0  0  0  0  0  0  0  0  0  0
   -0.7385   -2.1710    1.8529 O   0  0  0  0  0  0  0  0  0  0  0  0
   -1.2715   -0.4060    0.5489 N   0  0  0  0  0  0  0  0  0  0  0  0
   -1.9524   -0.1023   -0.1412 H   0  0  0  0  0  0  0  0  0  0  0  0
    0.0578    0.2356    0.4513 C   0  0  1  0  0  0  0  0  0  0  0  0
    0.0482    0.9445   -0.3830 H   0  0  0  0  0  0  0  0  0  0  0  0
    0.2631    1.0059    1.7790 C   0  0  0  0  0  0  0  0  0  0  0  0
    0.1032    0.3261    2.6218 H   0  0  0  0  0  0  0  0  0  0  0  0
    1.2846    1.3819    1.8524 H   0  0  0  0  0  0  0  0  0  0  0  0
   -0.6586    2.2130    1.9310 C   0  0  0  0  0  0  0  0  0  0  0  0
   -1.0485    2.8038    0.9361 O   0  0  0  0  0  0  0  0  0  0  0  0
   -0.9709    2.5912    3.1918 O   0  0  0  0  0  0  0  0  0  0  0  0
   -1.5541    3.3605    3.1067 H   0  0  0  0  0  0  0  0  0  0  0  0
    1.2477   -0.7201    0.1450 C   0  0  0  0  0  0  0  0  0  0  0  0
    1.0725   -1.6889   -0.5856 O   0  0  0  0  0  0  0  0  0  0  0  0
    2.5567   -0.3077    0.3350 N   0  0  0  0  0  0  0  0  0  0  0  0
    2.7094    0.5122    0.9121 H   0  0  0  0  0  0  0  0  0  0  0  0
    3.7121   -1.0996   -0.0721 C   0  0  0  0  0  0  0  0  0  0  0  0
    3.7223   -1.2332   -1.1590 H   0  0  0  0  0  0  0  0  0  0  0  0
    4.6383   -0.5966    0.2220 H   0  0  0  0  0  0  0  0  0  0  0  0
    3.6872   -2.0857    0.4040 H   0  0  0  0  0  0  0  0  0  0  0  0
  1  2  1  0  0  0  0
  2  3  1  0  0  0  0
  2  4  1  0  0  0  0
  2  5  1  0  0  0  0
  5  6  2  0  0  0  0
  5  7  1  0  0  0  0
  7  8  1  0  0  0  0
  7  9  1  0  0  0  0
  9 10  1  0  0  0  0
  9 11  1  0  0  0  0
  9 18  1  0  0  0  0
 11 12  1  0  0  0  0
 11 13  1  0  0  0  0
 11 14  1  0  0  0  0
 14 15  2  0  0  0  0
 14 16  1  0  0  0  0
 16 17  1  0  0  0  0
 18 19  2  0  0  0  0
 18 20  1  0  0  0  0
 20 21  1  0  0  0  0
 20 22  1  0  0  0  0
 22 23  1  0  0  0  0
 22 24  1  0  0  0  0
 22 25  1  0  0  0  0
M  END
$$$$

  -OEChem-01062216063D

 25 24  0     1  0  0  0  0  0999 V2000
   -2.6393   -3.4916    0.9648 H   0  0  0  0  0  0  0  0  0  0  0  0
   -2.6526   -2.4915    0.5226 C   0  0  0  0  0  0  0  0  0  0  0  0
   -3.5655   -1.9789    0.8343 H   0  0  0  0  0  0  0  0  0  0  0  0
   -2.6486   -2.5896   -0.5657 H   0  0  0  0  0  0  0  0  0  0  0  0
   -1.4348   -1.7070    0.9724 C   0  0  0  0  0  0  0  0  0  0  0  0
   -0.6772   -2.1857    1.8033 O   0  0  0  0  0  0  0  0  0  0  0  0
   -1.2652   -0.4000    0.5490 N   0  0  0  0  0  0  0  0  0  0  0  0
   -1.9591   -0.0925   -0.1266 H   0  0  0  0  0  0  0  0  0  0  0  0
    0.0523    0.2637    0.4538 C   0  0  1  0  0  0  0  0  0  0  0  0
    0.0348    0.9727   -0.3805 H   0  0  0  0  0  0  0  0  0  0  0  0
    0.2521    1.0394    1.7785 C   0  0  0  0  0  0  0  0  0  0  0  0
    0.1098    0.3596    2.6245 H   0  0  0  0  0  0  0  0  0  0  0  0
    1.2665    1.4372    1.8389 H   0  0  0  0  0  0  0  0  0  0  0  0
   -0.6866    2.2330    1.9312 C   0  0  0  0  0  0  0  0  0  0  0  0
   -1.0902    2.8166    0.9376 O   0  0  0  0  0  0  0  0  0  0  0  0
   -0.9971    2.6089    3.1931 O   0  0  0  0  0  0  0  0  0  0  0  0
   -1.5887    3.3720    3.1095 H   0  0  0  0  0  0  0  0  0  0  0  0
    1.2361   -0.6937    0.1330 C   0  0  0  0  0  0  0  0  0  0  0  0
    1.0907   -1.5309   -0.7508 O   0  0  0  0  0  0  0  0  0  0  0  0
    2.5231   -0.4472    0.5818 N   0  0  0  0  0  0  0  0  0  0  0  0
    2.6230    0.1965    1.3593 H   0  0  0  0  0  0  0  0  0  0  0  0
    3.6574   -1.2960    0.2351 C   0  0  0  0  0  0  0  0  0  0  0  0
    3.8145   -1.3040   -0.8489 H   0  0  0  0  0  0  0  0  0  0  0  0
    4.5691   -0.9228    0.7114 H   0  0  0  0  0  0  0  0  0  0  0  0
    3.4837   -2.3230    0.5736 H   0  0  0  0  0  0  0  0  0  0  0  0
  1  2  1  0  0  0  0
  2  3  1  0  0  0  0
  2  4  1  0  0  0  0
  2  5  1  0  0  0  0
  5  6  2  0  0  0  0
  5  7  1  0  0  0  0
  7  8  1  0  0  0  0
  7  9  1  0  0  0  0
  9 10  1  0  0  0  0
  9 11  1  0  0  0  0
  9 18  1  0  0  0  0
 11 12  1  0  0  0  0
 11 13  1  0  0  0  0
 11 14  1  0  0  0  0
 14 15  2  0  0  0  0
 14 16  1  0  0  0  0
 16 17  1  0  0  0  0
 18 19  2  0  0  0  0
 18 20  1  0  0  0  0
 20 21  1  0  0  0  0
 20 22  1  0  0  0  0
 22 23  1  0  0  0  0
 22 24  1  0  0  0  0
 22 25  1  0  0  0  0
M  END
$$$$

  -OEChem-01062216063D

 25 24  0     1  0  0  0  0  0999 V2000
   -2.6269   -3.4890    0.9727 H   0  0  0  0  0  0  0  0  0  0  0  0
   -2.6423   -2.4899    0.5282 C   0  0  0  0  0  0  0  0  0  0  0  0
   -3.5463   -1.9713    0.8557 H   0  0  0  0  0  0  0  0  0  0  0  0
   -2.6589   -2.5902   -0.5598 H   0  0  0  0  0  0  0  0  0  0  0  0
   -1.4127   -1.7108    0.9537 C   0  0  0  0  0  0  0  0  0  0  0  0
   -0.6276   -2.2034    1.7500 O   0  0  0  0  0  0  0  0  0  0  0  0
   -1.2562   -0.3996    0.5394 N   0  0  0  0  0  0  0  0  0  0  0  0
   -1.9632   -0.0834   -0.1186 H   0  0  0  0  0  0  0  0  0  0  0  0
    0.0518    0.2809    0.4484 C   0  0  1  0  0  0  0  0  0  0  0  0
    0.0279    0.9911   -0.3851 H   0  0  0  0  0  0  0  0  0  0  0  0
    0.2497    1.0580    1.7715 C   0  0  0  0  0  0  0  0  0  0  0  0
    0.1182    0.3770    2.6181 H   0  0  0  0  0  0  0  0  0  0  0  0
    1.2620    1.4648    1.8215 H   0  0  0  0  0  0  0  0  0  0  0  0
   -0.6994    2.2425    1.9304 C   0  0  0  0  0  0  0  0  0  0  0  0
   -1.1144    2.8238    0.9404 O   0  0  0  0  0  0  0  0  0  0  0  0
   -1.0106    2.6097    3.1948 O   0  0  0  0  0  0  0  0  0  0  0  0
   -1.6095    3.3678    3.1157 H   0  0  0  0  0  0  0  0  0  0  0  0
    1.2363   -0.6710    0.1217 C   0  0  0  0  0  0  0  0  0  0  0  0
    1.1573   -1.3687   -0.8828 O   0  0  0  0  0  0  0  0  0  0  0  0
    2.4451   -0.6145    0.7946 N   0  0  0  0  0  0  0  0  0  0  0  0
    2.4351   -0.1504    1.6969 H   0  0  0  0  0  0  0  0  0  0  0  0
    3.5456   -1.5259    0.5037 C   0  0  0  0  0  0  0  0  0  0  0  0
    3.8632   -1.4251   -0.5396 H   0  0  0  0  0  0  0  0  0  0  0  0
    4.4025   -1.3019    1.1461 H   0  0  0  0  0  0  0  0  0  0  0  0
    3.2399   -2.5628    0.6802 H   0  0  0  0  0  0  0  0  0  0  0  0
  1  2  1  0  0  0  0
  2  3  1  0  0  0  0
  2  4  1  0  0  0  0
  2  5  1  0  0  0  0
  5  6  2  0  0  0  0
  5  7  1  0  0  0  0
  7  8  1  0  0  0  0
  7  9  1  0  0  0  0
  9 10  1  0  0  0  0
  9 11  1  0  0  0  0
  9 18  1  0  0  0  0
 11 12  1  0  0  0  0
 11 13  1  0  0  0  0
 11 14  1  0  0  0  0
 14 15  2  0  0  0  0
 14 16  1  0  0  0  0
 16 17  1  0  0  0  0
 18 19  2  0  0  0  0
 18 20  1  0  0  0  0
 20 21  1  0  0  0  0
 20 22  1  0  0  0  0
 22 23  1  0  0  0  0
 22 24  1  0  0  0  0
 22 25  1  0  0  0  0
M  END
$$$$

  -OEChem-01062216063D

 25 24  0     1  0  0  0  0  0999 V2000
   -2.6286   -3.4908    0.9609 H   0  0  0  0  0  0  0  0  0  0  0  0
   -2.6512   -2.4842    0.5341 C   0  0  0  0  0  0  0  0  0  0  0  0
   -3.5439   -1.9676    0.8943 H   0  0  0  0  0  0  0  0  0  0  0  0
   -2.6978   -2.5657   -0.5545 H   0  0  0  0  0  0  0  0  0  0  0  0
   -1.4077   -1.7167    0.9403 C   0  0  0  0  0  0  0  0  0  0  0  0
   -0.6072   -2.2235    1.7120 O   0  0  0  0  0  0  0  0  0  0  0  0
   -1.2498   -0.4048    0.5298 N   0  0  0  0  0  0  0  0  0  0  0  0
   -1.9651   -0.0766   -0.1136 H   0  0  0  0  0  0  0  0  0  0  0  0
    0.0543    0.2827    0.4446 C   0  0  1  0  0  0  0  0  0  0  0  0
    0.0287    0.9928   -0.3891 H   0  0  0  0  0  0  0  0  0  0  0  0
    0.2528    1.0620    1.7651 C   0  0  0  0  0  0  0  0  0  0  0  0
    0.1204    0.3834    2.6132 H   0  0  0  0  0  0  0  0  0  0  0  0
    1.2679    1.4644    1.8107 H   0  0  0  0  0  0  0  0  0  0  0  0
   -0.6983    2.2446    1.9242 C   0  0  0  0  0  0  0  0  0  0  0  0
   -1.1168    2.8239    0.9345 O   0  0  0  0  0  0  0  0  0  0  0  0
   -1.0103    2.6106    3.1886 O   0  0  0  0  0  0  0  0  0  0  0  0
   -1.6078    3.3697    3.1091 H   0  0  0  0  0  0  0  0  0  0  0  0
    1.2434   -0.6614    0.1215 C   0  0  0  0  0  0  0  0  0  0  0  0
    1.2673   -1.2032   -0.9769 O   0  0  0  0  0  0  0  0  0  0  0  0
    2.3244   -0.8158    0.9724 N   0  0  0  0  0  0  0  0  0  0  0  0
    2.1663   -0.5387    1.9364 H   0  0  0  0  0  0  0  0  0  0  0  0
    3.3928   -1.7711    0.7052 C   0  0  0  0  0  0  0  0  0  0  0  0
    3.8687   -1.5572   -0.2577 H   0  0  0  0  0  0  0  0  0  0  0  0
    4.1567   -1.7121    1.4862 H   0  0  0  0  0  0  0  0  0  0  0  0
    2.9955   -2.7913    0.6826 H   0  0  0  0  0  0  0  0  0  0  0  0
  1  2  1  0  0  0  0
  2  3  1  0  0  0  0
  2  4  1  0  0  0  0
  2  5  1  0  0  0  0
  5  6  2  0  0  0  0
  5  7  1  0  0  0  0
  7  8  1  0  0  0  0
  7  9  1  0  0  0  0
  9 10  1  0  0  0  0
  9 11  1  0  0  0  0
  9 18  1  0  0  0  0
 11 12  1  0  0  0  0
 11 13  1  0  0  0  0
 11 14  1  0  0  0  0
 14 15  2  0  0  0  0
 14 16  1  0  0  0  0
 16 17  1  0  0  0  0
 18 19  2  0  0  0  0
 18 20  1  0  0  0  0
 20 21  1  0  0  0  0
 20 22  1  0  0  0  0
 22 23  1  0  0  0  0
 22 24  1  0  0  0  0
 22 25  1  0  0  0  0
M  END
$$$$

  -OEChem-01062216063D

 25 24  0     1  0  0  0  0  0999 V2000
   -2.6620   -3.4825    0.9600 H   0  0  0  0  0  0  0  0  0  0  0  0
   -2.6822   -2.4703    0.5465 C   0  0  0  0  0  0  0  0  0  0  0  0
   -3.5584   -1.9472    0.9365 H   0  0  0  0  0  0  0  0  0  0  0  0
   -2.7586   -2.5378   -0.5415 H   0  0  0  0  0  0  0  0  0  0  0  0
   -1.4183   -1.7243    0.9300 C   0  0  0  0  0  0  0  0  0  0  0  0
   -0.6123   -2.2470    1.6849 O   0  0  0  0  0  0  0  0  0  0  0  0
   -1.2451   -0.4154    0.5171 N   0  0  0  0  0  0  0  0  0  0  0  0
   -1.9679   -0.0684   -0.1082 H   0  0  0  0  0  0  0  0  0  0  0  0
    0.0594    0.2717    0.4373 C   0  0  1  0  0  0  0  0  0  0  0  0
    0.0355    0.9817   -0.3970 H   0  0  0  0  0  0  0  0  0  0  0  0
    0.2578    1.0522    1.7564 C   0  0  0  0  0  0  0  0  0  0  0  0
    0.1214    0.3764    2.6058 H   0  0  0  0  0  0  0  0  0  0  0  0
    1.2770    1.4454    1.8015 H   0  0  0  0  0  0  0  0  0  0  0  0
   -0.6901    2.2375    1.9147 C   0  0  0  0  0  0  0  0  0  0  0  0
   -1.1067    2.8174    0.9246 O   0  0  0  0  0  0  0  0  0  0  0  0
   -1.0056    2.6017    3.1791 O   0  0  0  0  0  0  0  0  0  0  0  0
   -1.5969    3.3656    3.0995 H   0  0  0  0  0  0  0  0  0  0  0  0
    1.2570   -0.6636    0.1265 C   0  0  0  0  0  0  0  0  0  0  0  0
    1.4288   -1.0179   -1.0329 O   0  0  0  0  0  0  0  0  0  0  0  0
    2.1702   -1.0413    1.0952 N   0  0  0  0  0  0  0  0  0  0  0  0
    1.8277   -0.9721    2.0498 H   0  0  0  0  0  0  0  0  0  0  0  0
    3.2193   -2.0172    0.8268 C   0  0  0  0  0  0  0  0  0  0  0  0
    3.8599   -1.6783    0.0057 H   0  0  0  0  0  0  0  0  0  0  0  0
    3.8434   -2.1543    1.7150 H   0  0  0  0  0  0  0  0  0  0  0  0
    2.7809   -2.9838    0.5563 H   0  0  0  0  0  0  0  0  0  0  0  0
  1  2  1  0  0  0  0
  2  3  1  0  0  0  0
  2  4  1  0  0  0  0
  2  5  1  0  0  0  0
  5  6  2  0  0  0  0
  5  7  1  0  0  0  0
  7  8  1  0  0  0  0
  7  9  1  0  0  0  0
  9 10  1  0  0  0  0
  9 11  1  0  0  0  0
  9 18  1  0  0  0  0
 11 12  1  0  0  0  0
 11 13  1  0  0  0  0
 11 14  1  0  0  0  0
 14 15  2  0  0  0  0
 14 16  1  0  0  0  0
 16 17  1  0  0  0  0
 18 19  2  0  0  0  0
 18 20  1  0  0  0  0
 20 21  1  0  0  0  0
 20 22  1  0  0  0  0
 22 23  1  0  0  0  0
 22 24  1  0  0  0  0
 22 25  1  0  0  0  0
M  END
$$$$

  -OEChem-01062216063D

 25 24  0     1  0  0  0  0  0999 V2000
   -2.7549   -3.4627    0.9497 H   0  0  0  0  0  0  0  0  0  0  0  0
   -2.7596   -2.4401    0.5619 C   0  0  0  0  0  0  0  0  0  0  0  0
   -3.6105   -1.9045    0.9897 H   0  0  0  0  0  0  0  0  0  0  0  0
   -2.8688   -2.4782   -0.5248 H   0  0  0  0  0  0  0  0  0  0  0  0
   -1.4664   -1.7368    0.9275 C   0  0  0  0  0  0  0  0  0  0  0  0
   -0.6701   -2.2862    1.6731 O   0  0  0  0  0  0  0  0  0  0  0  0
   -1.2547   -0.4366    0.5068 N   0  0  0  0  0  0  0  0  0  0  0  0
   -1.9830   -0.0588   -0.0941 H   0  0  0  0  0  0  0  0  0  0  0  0
    0.0580    0.2364    0.4279 C   0  0  1  0  0  0  0  0  0  0  0  0
    0.0373    0.9449   -0.4080 H   0  0  0  0  0  0  0  0  0  0  0  0
    0.2641    1.0180    1.7441 C   0  0  0  0  0  0  0  0  0  0  0  0
    0.1190    0.3470    2.5957 H   0  0  0  0  0  0  0  0  0  0  0  0
    1.2899    1.3944    1.7894 H   0  0  0  0  0  0  0  0  0  0  0  0
   -0.6691    2.2150    1.9001 C   0  0  0  0  0  0  0  0  0  0  0  0
   -1.0785    2.7978    0.9087 O   0  0  0  0  0  0  0  0  0  0  0  0
   -0.9825    2.5849    3.1632 O   0  0  0  0  0  0  0  0  0  0  0  0
   -1.5605    3.3588    3.0813 H   0  0  0  0  0  0  0  0  0  0  0  0
    1.2673   -0.6887    0.1340 C   0  0  0  0  0  0  0  0  0  0  0  0
    1.6307   -0.8207   -1.0274 O   0  0  0  0  0  0  0  0  0  0  0  0
    1.9915   -1.2923    1.1459 N   0  0  0  0  0  0  0  0  0  0  0  0
    1.4563   -1.4369    2.0011 H   0  0  0  0  0  0  0  0  0  0  0  0
    3.0696   -2.2328    0.8670 C   0  0  0  0  0  0  0  0  0  0  0  0
    3.8542   -1.7532    0.2722 H   0  0  0  0  0  0  0  0  0  0  0  0
    3.5145   -2.5847    1.8027 H   0  0  0  0  0  0  0  0  0  0  0  0
    2.6885   -3.0986    0.3154 H   0  0  0  0  0  0  0  0  0  0  0  0
  1  2  1  0  0  0  0
  2  3  1  0  0  0  0
  2  4  1  0  0  0  0
  2  5  1  0  0  0  0
  5  6  2  0  0  0  0
  5  7  1  0  0  0  0
  7  8  1  0  0  0  0
  7  9  1  0  0  0  0
  9 10  1  0  0  0  0
  9 11  1  0  0  0  0
  9 18  1  0  0  0  0
 11 12  1  0  0  0  0
 11 13  1  0  0  0  0
 11 14  1  0  0  0  0
 14 15  2  0  0  0  0
 14 16  1  0  0  0  0
 16 17  1  0  0  0  0
 18 19  2  0  0  0  0
 18 20  1  0  0  0  0
 20 21  1  0  0  0  0
 20 22  1  0  0  0  0
 22 23  1  0  0  0  0
 22 24  1  0  0  0  0
 22 25  1  0  0  0  0
M  END
$$$$

  -OEChem-01062216063D

 25 24  0     1  0  0  0  0  0999 V2000
   -2.9251   -3.4031    0.9749 H   0  0  0  0  0  0  0  0  0  0  0  0
   -2.8752   -2.3850    0.5785 C   0  0  0  0  0  0  0  0  0  0  0  0
   -3.6851   -1.7963    1.0162 H   0  0  0  0  0  0  0  0  0  0  0  0
   -3.0066   -2.4250   -0.5056 H   0  0  0  0  0  0  0  0  0  0  0  0
   -1.5360   -1.7564    0.9154 C   0  0  0  0  0  0  0  0  0  0  0  0
   -0.7602   -2.3542    1.6435 O   0  0  0  0  0  0  0  0  0  0  0  0
   -1.2668   -0.4686    0.4899 N   0  0  0  0  0  0  0  0  0  0  0  0
   -2.0017   -0.0462   -0.0723 H   0  0  0  0  0  0  0  0  0  0  0  0
    0.0552    0.1911    0.4108 C   0  0  1  0  0  0  0  0  0  0  0  0
    0.0344    0.9013   -0.4242 H   0  0  0  0  0  0  0  0  0  0  0  0
    0.2658    0.9668    1.7287 C   0  0  0  0  0  0  0  0  0  0  0  0
    0.1174    0.2938    2.5781 H   0  0  0  0  0  0  0  0  0  0  0  0
    1.2951    1.3336    1.7749 H   0  0  0  0  0  0  0  0  0  0  0  0
   -0.6554    2.1726    1.8883 C   0  0  0  0  0  0  0  0  0  0  0  0
   -1.0583    2.7634    0.8989 O   0  0  0  0  0  0  0  0  0  0  0  0
   -0.9680    2.5393    3.1527 O   0  0  0  0  0  0  0  0  0  0  0  0
   -1.5353    3.3213    3.0738 H   0  0  0  0  0  0  0  0  0  0  0  0
    1.2868   -0.7109    0.1337 C   0  0  0  0  0  0  0  0  0  0  0  0
    1.8431   -0.6185   -0.9525 O   0  0  0  0  0  0  0  0  0  0  0  0
    1.8340   -1.5329    1.1007 N   0  0  0  0  0  0  0  0  0  0  0  0
    1.1693   -1.8142    1.8244 H   0  0  0  0  0  0  0  0  0  0  0  0
    2.9455   -2.4333    0.8218 C   0  0  0  0  0  0  0  0  0  0  0  0
    3.8181   -1.8701    0.4748 H   0  0  0  0  0  0  0  0  0  0  0  0
    3.2261   -2.9771    1.7289 H   0  0  0  0  0  0  0  0  0  0  0  0
    2.6660   -3.1604    0.0523 H   0  0  0  0  0  0  0  0  0  0  0  0
  1  2  1  0  0  0  0
  2  3  1  0  0  0  0
  2  4  1  0  0  0  0
  2  5  1  0  0  0  0
  5  6  2  0  0  0  0
  5  7  1  0  0  0  0
  7  8  1  0  0  0  0
  7  9  1  0  0  0  0
  9 10  1  0  0  0  0
  9 11  1  0  0  0  0
  9 18  1  0  0  0  0
 11 12  1  0  0  0  0
 11 13  1  0  0  0  0
 11 14  1  0  0  0  0
 14 15  2  0  0  0  0
 14 16  1  0  0  0  0
 16 17  1  0  0  0  0
 18 19  2  0  0  0  0
 18 20  1  0  0  0  0
 20 21  1  0  0  0  0
 20 22  1  0  0  0  0
 22 23  1  0  0  0  0
 22 24  1  0  0  0  0
 22 25  1  0  0  0  0
M  END
$$$$

  -OEChem-01062216063D

 25 24  0     1  0  0  0  0  0999 V2000
   -3.0957   -3.3277    0.9998 H   0  0  0  0  0  0  0  0  0  0  0  0
   -2.9923   -2.3158    0.5978 C   0  0  0  0  0  0  0  0  0  0  0  0
   -3.7565   -1.6782    1.0488 H   0  0  0  0  0  0  0  0  0  0  0  0
   -3.1470   -2.3511   -0.4832 H   0  0  0  0  0  0  0  0  0  0  0  0
   -1.6116   -1.7680    0.9063 C   0  0  0  0  0  0  0  0  0  0  0  0
   -0.8624   -2.4156    1.6177 O   0  0  0  0  0  0  0  0  0  0  0  0
   -1.2836   -0.4957    0.4755 N   0  0  0  0  0  0  0  0  0  0  0  0
   -2.0180   -0.0336   -0.0555 H   0  0  0  0  0  0  0  0  0  0  0  0
    0.0494    0.1463    0.3933 C   0  0  1  0  0  0  0  0  0  0  0  0
    0.0292    0.8583   -0.4401 H   0  0  0  0  0  0  0  0  0  0  0  0
    0.2589    0.9142    1.7155 C   0  0  0  0  0  0  0  0  0  0  0  0
    0.1012    0.2374    2.5604 H   0  0  0  0  0  0  0  0  0  0  0  0
    1.2912    1.2723    1.7698 H   0  0  0  0  0  0  0  0  0  0  0  0
   -0.6518    2.1281    1.8746 C   0  0  0  0  0  0  0  0  0  0  0  0
   -1.0427    2.7268    0.8851 O   0  0  0  0  0  0  0  0  0  0  0  0
   -0.9724    2.4904    3.1383 O   0  0  0  0  0  0  0  0  0  0  0  0
   -1.5297    3.2794    3.0589 H   0  0  0  0  0  0  0  0  0  0  0  0
    1.3039   -0.7310    0.1309 C   0  0  0  0  0  0  0  0  0  0  0  0
    2.0105   -0.4507   -0.8282 O   0  0  0  0  0  0  0  0  0  0  0  0
    1.7067   -1.7536    0.9671 N   0  0  0  0  0  0  0  0  0  0  0  0
    0.9850   -2.0991    1.6045 H   0  0  0  0  0  0  0  0  0  0  0  0
    2.8409   -2.6215    0.6771 C   0  0  0  0  0  0  0  0  0  0  0  0
    3.7604   -2.0339    0.5844 H   0  0  0  0  0  0  0  0  0  0  0  0
    2.9763   -3.3464    1.4855 H   0  0  0  0  0  0  0  0  0  0  0  0
    2.6757   -3.1684   -0.2570 H   0  0  0  0  0  0  0  0  0  0  0  0
  1  2  1  0  0  0  0
  2  3  1  0  0  0  0
  2  4  1  0  0  0  0
  2  5  1  0  0  0  0
  5  6  2  0  0  0  0
  5  7  1  0  0  0  0
  7  8  1  0  0  0  0
  7  9  1  0  0  0  0
  9 10  1  0  0  0  0
  9 11  1  0  0  0  0
  9 18  1  0  0  0  0
 11 12  1  0  0  0  0
 11 13  1  0  0  0  0
 11 14  1  0  0  0  0
 14 15  2  0  0  0  0
 14 16  1  0  0  0  0
 16 17  1  0  0  0  0
 18 19  2  0  0  0  0
 18 20  1  0  0  0  0
 20 21  1  0  0  0  0
 20 22  1  0  0  0  0
 22 23  1  0  0  0  0
 22 24  1  0  0  0  0
 22 25  1  0  0  0  0
M  END
$$$$

  -OEChem-01062216063D

 25 24  0     1  0  0  0  0  0999 V2000
   -3.2127   -3.2911    0.9520 H   0  0  0  0  0  0  0  0  0  0  0  0
   -3.0961   -2.2552    0.6211 C   0  0  0  0  0  0  0  0  0  0  0  0
   -3.8195   -1.6317    1.1523 H   0  0  0  0  0  0  0  0  0  0  0  0
   -3.2999   -2.2060   -0.4513 H   0  0  0  0  0  0  0  0  0  0  0  0
   -1.6868   -1.7700    0.9053 C   0  0  0  0  0  0  0  0  0  0  0  0
   -0.9579   -2.4529    1.6035 O   0  0  0  0  0  0  0  0  0  0  0  0
   -1.3143   -0.5116    0.4696 N   0  0  0  0  0  0  0  0  0  0  0  0
   -2.0471   -0.0174   -0.0338 H   0  0  0  0  0  0  0  0  0  0  0  0
    0.0307    0.1069    0.3720 C   0  0  1  0  0  0  0  0  0  0  0  0
    0.0080    0.8196   -0.4608 H   0  0  0  0  0  0  0  0  0  0  0  0
    0.2580    0.8696    1.6941 C   0  0  0  0  0  0  0  0  0  0  0  0
    0.0972    0.1927    2.5385 H   0  0  0  0  0  0  0  0  0  0  0  0
    1.2952    1.2142    1.7435 H   0  0  0  0  0  0  0  0  0  0  0  0
   -0.6327    2.0969    1.8612 C   0  0  0  0  0  0  0  0  0  0  0  0
   -1.0199    2.7042    0.8755 O   0  0  0  0  0  0  0  0  0  0  0  0
   -0.9432    2.4588    3.1276 O   0  0  0  0  0  0  0  0  0  0  0  0
   -1.4876    3.2573    3.0541 H   0  0  0  0  0  0  0  0  0  0  0  0
    1.2924   -0.7609    0.1033 C   0  0  0  0  0  0  0  0  0  0  0  0
    2.1190   -0.3267   -0.6880 O   0  0  0  0  0  0  0  0  0  0  0  0
    1.5739   -1.9541    0.7371 N   0  0  0  0  0  0  0  0  0  0  0  0
    0.8340   -2.3376    1.3296 H   0  0  0  0  0  0  0  0  0  0  0  0
    2.7468   -2.7721    0.4573 C   0  0  0  0  0  0  0  0  0  0  0  0
    3.6643   -2.1981    0.6246 H   0  0  0  0  0  0  0  0  0  0  0  0
    2.7620   -3.6452    1.1168 H   0  0  0  0  0  0  0  0  0  0  0  0
    2.7320   -3.1206   -0.5805 H   0  0  0  0  0  0  0  0  0  0  0  0
  1  2  1  0  0  0  0
  2  3  1  0  0  0  0
  2  4  1  0  0  0  0
  2  5  1  0  0  0  0
  5  6  2  0  0  0  0
  5  7  1  0  0  0  0
  7  8  1  0  0  0  0
  7  9  1  0  0  0  0
  9 10  1  0  0  0  0
  9 11  1  0  0  0  0
  9 18  1  0  0  0  0
 11 12  1  0  0  0  0
 11 13  1  0  0  0  0
 11 14  1  0  0  0  0
 14 15  2  0  0  0  0
 14 16  1  0  0  0  0
 16 17  1  0  0  0  0
 18 19  2  0  0  0  0
 18 20  1  0  0  0  0
 20 21  1  0  0  0  0
 20 22  1  0  0  0  0
 22 23  1  0  0  0  0
 22 24  1  0  0  0  0
 22 25  1  0  0  0  0
M  END
$$$$

  -OEChem-01062216063D

 25 24  0     1  0  0  0  0  0999 V2000
   -2.2622   -3.5323   -0.0893 H   0  0  0  0  0  0  0  0  0  0  0  0
   -2.5615   -2.6375    0.4622 C   0  0  0  0  0  0  0  0  0  0  0  0
   -3.1685   -2.0064   -0.1912 H   0  0  0  0  0  0  0  0  0  0  0  0
   -3.1665   -2.9345    1.3231 H   0  0  0  0  0  0  0  0  0  0  0  0
   -1.3283   -1.8906    0.9351 C   0  0  0  0  0  0  0  0  0  0  0  0
   -0.6494   -2.3850    1.8156 O   0  0  0  0  0  0  0  0  0  0  0  0
   -1.1012   -0.6007    0.4975 N   0  0  0  0  0  0  0  0  0  0  0  0
   -1.8221   -0.2439   -0.1243 H   0  0  0  0  0  0  0  0  0  0  0  0
    0.1575    0.1818    0.5033 C   0  0  1  0  0  0  0  0  0  0  0  0
    0.1146    0.8714   -0.3467 H   0  0  0  0  0  0  0  0  0  0  0  0
    0.1213    0.9911    1.8214 C   0  0  0  0  0  0  0  0  0  0  0  0
   -0.0425    0.3096    2.6615 H   0  0  0  0  0  0  0  0  0  0  0  0
    1.0848    1.4816    1.9864 H   0  0  0  0  0  0  0  0  0  0  0  0
   -0.9421    2.0849    1.8453 C   0  0  0  0  0  0  0  0  0  0  0  0
   -1.2891    2.6164    0.8015 O   0  0  0  0  0  0  0  0  0  0  0  0
   -1.4438    2.4255    3.0552 O   0  0  0  0  0  0  0  0  0  0  0  0
   -2.0784    3.1392    2.8924 H   0  0  0  0  0  0  0  0  0  0  0  0
    1.5728   -0.4653    0.3664 C   0  0  0  0  0  0  0  0  0  0  0  0
    2.5152    0.2866    0.1704 O   0  0  0  0  0  0  0  0  0  0  0  0
    2.0268   -1.7049    0.7482 N   0  0  0  0  0  0  0  0  0  0  0  0
    3.0252   -1.6569    0.9330 H   0  0  0  0  0  0  0  0  0  0  0  0
    1.6254   -2.8918    0.0031 C   0  0  0  0  0  0  0  0  0  0  0  0
    2.4563   -3.2383   -0.6195 H   0  0  0  0  0  0  0  0  0  0  0  0
    1.3510   -3.6966    0.6924 H   0  0  0  0  0  0  0  0  0  0  0  0
    0.7750   -2.6877   -0.6547 H   0  0  0  0  0  0  0  0  0  0  0  0
  1  2  1  0  0  0  0
  2  3  1  0  0  0  0
  2  4  1  0  0  0  0
  2  5  1  0  0  0  0
  5  6  2  0  0  0  0
  5  7  1  0  0  0  0
  7  8  1  0  0  0  0
  7  9  1  0  0  0  0
  9 10  1  0  0  0  0
  9 11  1  0  0  0  0
  9 18  1  0  0  0  0
 11 12  1  0  0  0  0
 11 13  1  0  0  0  0
 11 14  1  0  0  0  0
 14 15  2  0  0  0  0
 14 16  1  0  0  0  0
 16 17  1  0  0  0  0
 18 19  2  0  0  0  0
 18 20  1  0  0  0  0
 20 21  1  0  0  0  0
 20 22  1  0  0  0  0
 22 23  1  0  0  0  0
 22 24  1  0  0  0  0
 22 25  1  0  0  0  0
M  END
$$$$

  -OEChem-01062216063D

 25 24  0     1  0  0  0  0  0999 V2000
   -2.9599   -3.4998    0.9644 H   0  0  0  0  0  0  0  0  0  0  0  0
   -2.9540   -2.4530    0.6478 C   0  0  0  0  0  0  0  0  0  0  0  0
   -3.7131   -1.9086    1.2147 H   0  0  0  0  0  0  0  0  0  0  0  0
   -3.1999   -2.4078   -0.4158 H   0  0  0  0  0  0  0  0  0  0  0  0
   -1.5866   -1.8418    0.8899 C   0  0  0  0  0  0  0  0  0  0  0  0
   -0.7709   -2.4624    1.5450 O   0  0  0  0  0  0  0  0  0  0  0  0
   -1.3731   -0.5202    0.5535 N   0  0  0  0  0  0  0  0  0  0  0  0
   -2.1996   -0.0711    0.1679 H   0  0  0  0  0  0  0  0  0  0  0  0
   -0.1028    0.1597    0.2073 C   0  0  1  0  0  0  0  0  0  0  0  0
   -0.3476    0.9718   -0.4872 H   0  0  0  0  0  0  0  0  0  0  0  0
    0.4348    0.7601    1.5241 C   0  0  0  0  0  0  0  0  0  0  0  0
    0.4898   -0.0231    2.2862 H   0  0  0  0  0  0  0  0  0  0  0  0
    1.4489    1.1393    1.3686 H   0  0  0  0  0  0  0  0  0  0  0  0
   -0.4010    1.9180    2.0621 C   0  0  0  0  0  0  0  0  0  0  0  0
   -1.0256    2.6271    1.2886 O   0  0  0  0  0  0  0  0  0  0  0  0
   -0.3828    2.1140    3.4009 O   0  0  0  0  0  0  0  0  0  0  0  0
   -0.9437    2.8866    3.5670 H   0  0  0  0  0  0  0  0  0  0  0  0
    1.0725   -0.5910   -0.4882 C   0  0  0  0  0  0  0  0  0  0  0  0
    1.7297    0.0371   -1.3029 O   0  0  0  0  0  0  0  0  0  0  0  0
    1.2802   -1.9413   -0.6327 N   0  0  0  0  0  0  0  0  0  0  0  0
    1.7628   -2.1042   -1.5126 H   0  0  0  0  0  0  0  0  0  0  0  0
    1.8897   -2.6648    0.4780 C   0  0  0  0  0  0  0  0  0  0  0  0
    1.7791   -2.1233    1.4237 H   0  0  0  0  0  0  0  0  0  0  0  0
    1.4261   -3.6505    0.5864 H   0  0  0  0  0  0  0  0  0  0  0  0
    2.9594   -2.8025    0.2919 H   0  0  0  0  0  0  0  0  0  0  0  0
  1  2  1  0  0  0  0
  2  3  1  0  0  0  0
  2  4  1  0  0  0  0
  2  5  1  0  0  0  0
  5  6  2  0  0  0  0
  5  7  1  0  0  0  0
  7  8  1  0  0  0  0
  7  9  1  0  0  0  0
  9 10  1  0  0  0  0
  9 11  1  0  0  0  0
  9 18  1  0  0  0  0
 11 12  1  0  0  0  0
 11 13  1  0  0  0  0
 11 14  1  0  0  0  0
 14 15  2  0  0  0  0
 14 16  1  0  0  0  0
 16 17  1  0  0  0  0
 18 19  2  0  0  0  0
 18 20  1  0  0  0  0
 20 21  1  0  0  0  0
 20 22  1  0  0  0  0
 22 23  1  0  0  0  0
 22 24  1  0  0  0  0
 22 25  1  0  0  0  0
M  END
$$$$

  -OEChem-01062216063D

 25 24  0     1  0  0  0  0  0999 V2000
   -3.2999   -3.2083    1.0572 H   0  0  0  0  0  0  0  0  0  0  0  0
   -3.1634   -2.1784    0.7149 C   0  0  0  0  0  0  0  0  0  0  0  0
   -3.7914   -1.5207    1.3209 H   0  0  0  0  0  0  0  0  0  0  0  0
   -3.4778   -2.1113   -0.3294 H   0  0  0  0  0  0  0  0  0  0  0  0
   -1.7078   -1.7705    0.8466 C   0  0  0  0  0  0  0  0  0  0  0  0
   -0.9232   -2.5393    1.3738 O   0  0  0  0  0  0  0  0  0  0  0  0
   -1.3293   -0.5055    0.4371 N   0  0  0  0  0  0  0  0  0  0  0  0
   -2.0913    0.0589    0.0685 H   0  0  0  0  0  0  0  0  0  0  0  0
    0.0200    0.1011    0.3133 C   0  0  1  0  0  0  0  0  0  0  0  0
   -0.0157    0.8342   -0.5001 H   0  0  0  0  0  0  0  0  0  0  0  0
    0.2628    0.8274    1.6573 C   0  0  0  0  0  0  0  0  0  0  0  0
    0.1122    0.1259    2.4831 H   0  0  0  0  0  0  0  0  0  0  0  0
    1.2984    1.1755    1.7125 H   0  0  0  0  0  0  0  0  0  0  0  0
   -0.6248    2.0505    1.8659 C   0  0  0  0  0  0  0  0  0  0  0  0
   -1.0204    2.6843    0.9001 O   0  0  0  0  0  0  0  0  0  0  0  0
   -0.9298    2.3748    3.1437 O   0  0  0  0  0  0  0  0  0  0  0  0
   -1.4675    3.1798    3.0970 H   0  0  0  0  0  0  0  0  0  0  0  0
    1.2748   -0.7592   -0.0227 C   0  0  0  0  0  0  0  0  0  0  0  0
    2.3290   -0.1690   -0.2250 O   0  0  0  0  0  0  0  0  0  0  0  0
    1.2587   -2.1249   -0.2312 N   0  0  0  0  0  0  0  0  0  0  0  0
    0.4600   -2.6111    0.1785 H   0  0  0  0  0  0  0  0  0  0  0  0
    2.4635   -2.9027   -0.4947 C   0  0  0  0  0  0  0  0  0  0  0  0
    3.1654   -2.8183    0.3415 H   0  0  0  0  0  0  0  0  0  0  0  0
    2.2081   -3.9582   -0.6288 H   0  0  0  0  0  0  0  0  0  0  0  0
    2.9568   -2.5501   -1.4065 H   0  0  0  0  0  0  0  0  0  0  0  0
  1  2  1  0  0  0  0
  2  3  1  0  0  0  0
  2  4  1  0  0  0  0
  2  5  1  0  0  0  0
  5  6  2  0  0  0  0
  5  7  1  0  0  0  0
  7  8  1  0  0  0  0
  7  9  1  0  0  0  0
  9 10  1  0  0  0  0
  9 11  1  0  0  0  0
  9 18  1  0  0  0  0
 11 12  1  0  0  0  0
 11 13  1  0  0  0  0
 11 14  1  0  0  0  0
 14 15  2  0  0  0  0
 14 16  1  0  0  0  0
 16 17  1  0  0  0  0
 18 19  2  0  0  0  0
 18 20  1  0  0  0  0
 20 21  1  0  0  0  0
 20 22  1  0  0  0  0
 22 23  1  0  0  0  0
 22 24  1  0  0  0  0
 22 25  1  0  0  0  0
M  END
$$$$

  -OEChem-01062216063D

 25 24  0     1  0  0  0  0  0999 V2000
   -3.2382   -3.2141    1.0871 H   0  0  0  0  0  0  0  0  0  0  0  0
   -3.1172   -2.1790    0.7550 C   0  0  0  0  0  0  0  0  0  0  0  0
   -3.7034   -1.5295    1.4099 H   0  0  0  0  0  0  0  0  0  0  0  0
   -3.4944   -2.0922   -0.2669 H   0  0  0  0  0  0  0  0  0  0  0  0
   -1.6542   -1.7799    0.8044 C   0  0  0  0  0  0  0  0  0  0  0  0
   -0.8351   -2.5782    1.2236 O   0  0  0  0  0  0  0  0  0  0  0  0
   -1.2960   -0.5036    0.4120 N   0  0  0  0  0  0  0  0  0  0  0  0
   -2.0730    0.0811    0.1128 H   0  0  0  0  0  0  0  0  0  0  0  0
    0.0468    0.1198    0.3093 C   0  0  1  0  0  0  0  0  0  0  0  0
    0.0178    0.8560   -0.5011 H   0  0  0  0  0  0  0  0  0  0  0  0
    0.2581    0.8429    1.6621 C   0  0  0  0  0  0  0  0  0  0  0  0
    0.1037    0.1345    2.4811 H   0  0  0  0  0  0  0  0  0  0  0  0
    1.2863    1.2069    1.7399 H   0  0  0  0  0  0  0  0  0  0  0  0
   -0.6494    2.0526    1.8620 C   0  0  0  0  0  0  0  0  0  0  0  0
   -1.0374    2.6856    0.8926 O   0  0  0  0  0  0  0  0  0  0  0  0
   -0.9830    2.3643    3.1358 O   0  0  0  0  0  0  0  0  0  0  0  0
   -1.5294    3.1629    3.0844 H   0  0  0  0  0  0  0  0  0  0  0  0
    1.3005   -0.7438   -0.0239 C   0  0  0  0  0  0  0  0  0  0  0  0
    2.3999   -0.2031   -0.0149 O   0  0  0  0  0  0  0  0  0  0  0  0
    1.2231   -2.0283   -0.5286 N   0  0  0  0  0  0  0  0  0  0  0  0
    0.3849   -2.5344   -0.2417 H   0  0  0  0  0  0  0  0  0  0  0  0
    2.4062   -2.8193   -0.8462 C   0  0  0  0  0  0  0  0  0  0  0  0
    3.0197   -2.9684    0.0485 H   0  0  0  0  0  0  0  0  0  0  0  0
    2.1110   -3.7993   -1.2329 H   0  0  0  0  0  0  0  0  0  0  0  0
    3.0108   -2.3174   -1.6091 H   0  0  0  0  0  0  0  0  0  0  0  0
  1  2  1  0  0  0  0
  2  3  1  0  0  0  0
  2  4  1  0  0  0  0
  2  5  1  0  0  0  0
  5  6  2  0  0  0  0
  5  7  1  0  0  0  0
  7  8  1  0  0  0  0
  7  9  1  0  0  0  0
  9 10  1  0  0  0  0
  9 11  1  0  0  0  0
  9 18  1  0  0  0  0
 11 12  1  0  0  0  0
 11 13  1  0  0  0  0
 11 14  1  0  0  0  0
 14 15  2  0  0  0  0
 14 16  1  0  0  0  0
 16 17  1  0  0  0  0
 18 19  2  0  0  0  0
 18 20  1  0  0  0  0
 20 21  1  0  0  0  0
 20 22  1  0  0  0  0
 22 23  1  0  0  0  0
 22 24  1  0  0  0  0
 22 25  1  0  0  0  0
M  END
$$$$

  -OEChem-01062216063D

 25 24  0     1  0  0  0  0  0999 V2000
   -3.1411   -3.2409    1.1017 H   0  0  0  0  0  0  0  0  0  0  0  0
   -3.0455   -2.2007    0.7768 C   0  0  0  0  0  0  0  0  0  0  0  0
   -3.6020   -1.5649    1.4697 H   0  0  0  0  0  0  0  0  0  0  0  0
   -3.4761   -2.1040   -0.2228 H   0  0  0  0  0  0  0  0  0  0  0  0
   -1.5850   -1.7902    0.7557 C   0  0  0  0  0  0  0  0  0  0  0  0
   -0.7348   -2.6047    1.0660 O   0  0  0  0  0  0  0  0  0  0  0  0
   -1.2569   -0.4990    0.3852 N   0  0  0  0  0  0  0  0  0  0  0  0
   -2.0505    0.0970    0.1612 H   0  0  0  0  0  0  0  0  0  0  0  0
    0.0762    0.1470    0.3100 C   0  0  1  0  0  0  0  0  0  0  0  0
    0.0547    0.8875   -0.4965 H   0  0  0  0  0  0  0  0  0  0  0  0
    0.2564    0.8674    1.6702 C   0  0  0  0  0  0  0  0  0  0  0  0
    0.1037    0.1524    2.4838 H   0  0  0  0  0  0  0  0  0  0  0  0
    1.2760    1.2506    1.7645 H   0  0  0  0  0  0  0  0  0  0  0  0
   -0.6726    2.0616    1.8622 C   0  0  0  0  0  0  0  0  0  0  0  0
   -1.0556    2.6924    0.8894 O   0  0  0  0  0  0  0  0  0  0  0  0
   -1.0318    2.3616    3.1319 O   0  0  0  0  0  0  0  0  0  0  0  0
   -1.5873    3.1538    3.0766 H   0  0  0  0  0  0  0  0  0  0  0  0
    1.3238   -0.7257   -0.0205 C   0  0  0  0  0  0  0  0  0  0  0  0
    2.4454   -0.2955    0.2221 O   0  0  0  0  0  0  0  0  0  0  0  0
    1.2229   -1.8574   -0.8090 N   0  0  0  0  0  0  0  0  0  0  0  0
    0.3307   -2.3387   -0.7124 H   0  0  0  0  0  0  0  0  0  0  0  0
    2.3825   -2.6745   -1.1471 C   0  0  0  0  0  0  0  0  0  0  0  0
    2.8502   -3.0702   -0.2395 H   0  0  0  0  0  0  0  0  0  0  0  0
    2.0793   -3.5161   -1.7771 H   0  0  0  0  0  0  0  0  0  0  0  0
    3.1224   -2.0832   -1.6968 H   0  0  0  0  0  0  0  0  0  0  0  0
  1  2  1  0  0  0  0
  2  3  1  0  0  0  0
  2  4  1  0  0  0  0
  2  5  1  0  0  0  0
  5  6  2  0  0  0  0
  5  7  1  0  0  0  0
  7  8  1  0  0  0  0
  7  9  1  0  0  0  0
  9 10  1  0  0  0  0
  9 11  1  0  0  0  0
  9 18  1  0  0  0  0
 11 12  1  0  0  0  0
 11 13  1  0  0  0  0
 11 14  1  0  0  0  0
 14 15  2  0  0  0  0
 14 16  1  0  0  0  0
 16 17  1  0  0  0  0
 18 19  2  0  0  0  0
 18 20  1  0  0  0  0
 20 21  1  0  0  0  0
 20 22  1  0  0  0  0
 22 23  1  0  0  0  0
 22 24  1  0  0  0  0
 22 25  1  0  0  0  0
M  END
$$$$

  -OEChem-01062216063D

 25 24  0     1  0  0  0  0  0999 V2000
   -3.0173   -3.2893    1.0911 H   0  0  0  0  0  0  0  0  0  0  0  0
   -2.9551   -2.2438    0.7756 C   0  0  0  0  0  0  0  0  0  0  0  0
   -3.5095   -1.6296    1.4893 H   0  0  0  0  0  0  0  0  0  0  0  0
   -3.4124   -2.1467   -0.2119 H   0  0  0  0  0  0  0  0  0  0  0  0
   -1.5057   -1.7984    0.7239 C   0  0  0  0  0  0  0  0  0  0  0  0
   -0.6292   -2.6002    0.9888 O   0  0  0  0  0  0  0  0  0  0  0  0
   -1.2184   -0.4920    0.3698 N   0  0  0  0  0  0  0  0  0  0  0  0
   -2.0288    0.0979    0.1955 H   0  0  0  0  0  0  0  0  0  0  0  0
    0.1012    0.1802    0.3173 C   0  0  1  0  0  0  0  0  0  0  0  0
    0.0824    0.9238   -0.4863 H   0  0  0  0  0  0  0  0  0  0  0  0
    0.2595    0.9008    1.6797 C   0  0  0  0  0  0  0  0  0  0  0  0
    0.1148    0.1819    2.4914 H   0  0  0  0  0  0  0  0  0  0  0  0
    1.2720    1.3015    1.7790 H   0  0  0  0  0  0  0  0  0  0  0  0
   -0.6911    2.0785    1.8657 C   0  0  0  0  0  0  0  0  0  0  0  0
   -1.0765    2.7031    0.8898 O   0  0  0  0  0  0  0  0  0  0  0  0
   -1.0678    2.3702    3.1320 O   0  0  0  0  0  0  0  0  0  0  0  0
   -1.6372    3.1520    3.0730 H   0  0  0  0  0  0  0  0  0  0  0  0
    1.3405   -0.7017   -0.0128 C   0  0  0  0  0  0  0  0  0  0  0  0
    2.4371   -0.4555    0.4757 O   0  0  0  0  0  0  0  0  0  0  0  0
    1.2748   -1.6214   -1.0443 N   0  0  0  0  0  0  0  0  0  0  0  0
    0.3395   -1.9620   -1.2449 H   0  0  0  0  0  0  0  0  0  0  0  0
    2.3947   -2.4925   -1.3810 C   0  0  0  0  0  0  0  0  0  0  0  0
    2.6537   -3.1287   -0.5281 H   0  0  0  0  0  0  0  0  0  0  0  0
    2.1324   -3.1345   -2.2273 H   0  0  0  0  0  0  0  0  0  0  0  0
    3.2731   -1.9004   -1.6588 H   0  0  0  0  0  0  0  0  0  0  0  0
  1  2  1  0  0  0  0
  2  3  1  0  0  0  0
  2  4  1  0  0  0  0
  2  5  1  0  0  0  0
  5  6  2  0  0  0  0
  5  7  1  0  0  0  0
  7  8  1  0  0  0  0
  7  9  1  0  0  0  0
  9 10  1  0  0  0  0
  9 11  1  0  0  0  0
  9 18  1  0  0  0  0
 11 12  1  0  0  0  0
 11 13  1  0  0  0  0
 11 14  1  0  0  0  0
 14 15  2  0  0  0  0
 14 16  1  0  0  0  0
 16 17  1  0  0  0  0
 18 19  2  0  0  0  0
 18 20  1  0  0  0  0
 20 21  1  0  0  0  0
 20 22  1  0  0  0  0
 22 23  1  0  0  0  0
 22 24  1  0  0  0  0
 22 25  1  0  0  0  0
M  END
$$$$

  -OEChem-01062216063D

 25 24  0     1  0  0  0  0  0999 V2000
   -2.9491   -3.3193    1.0767 H   0  0  0  0  0  0  0  0  0  0  0  0
   -2.9039   -2.2714    0.7663 C   0  0  0  0  0  0  0  0  0  0  0  0
   -3.4626   -1.6685    1.4860 H   0  0  0  0  0  0  0  0  0  0  0  0
   -3.3678   -2.1761   -0.2182 H   0  0  0  0  0  0  0  0  0  0  0  0
   -1.4613   -1.8048    0.7084 C   0  0  0  0  0  0  0  0  0  0  0  0
   -0.5732   -2.5966    0.9643 O   0  0  0  0  0  0  0  0  0  0  0  0
   -1.1972   -0.4918    0.3578 N   0  0  0  0  0  0  0  0  0  0  0  0
   -2.0170    0.0891    0.1997 H   0  0  0  0  0  0  0  0  0  0  0  0
    0.1131    0.1966    0.3225 C   0  0  1  0  0  0  0  0  0  0  0  0
    0.0987    0.9416   -0.4798 H   0  0  0  0  0  0  0  0  0  0  0  0
    0.2596    0.9180    1.6846 C   0  0  0  0  0  0  0  0  0  0  0  0
    0.1189    0.1971    2.4953 H   0  0  0  0  0  0  0  0  0  0  0  0
    1.2700    1.3249    1.7841 H   0  0  0  0  0  0  0  0  0  0  0  0
   -0.7014    2.0874    1.8689 C   0  0  0  0  0  0  0  0  0  0  0  0
   -1.0885    2.7089    0.8915 O   0  0  0  0  0  0  0  0  0  0  0  0
   -1.0816    2.3785    3.1343 O   0  0  0  0  0  0  0  0  0  0  0  0
   -1.6574    3.1556    3.0738 H   0  0  0  0  0  0  0  0  0  0  0  0
    1.3486   -0.6924    0.0054 C   0  0  0  0  0  0  0  0  0  0  0  0
    2.3664   -0.6453    0.6866 O   0  0  0  0  0  0  0  0  0  0  0  0
    1.3922   -1.3729   -1.1984 N   0  0  0  0  0  0  0  0  0  0  0  0
    0.4961   -1.5210   -1.6508 H   0  0  0  0  0  0  0  0  0  0  0  0
    2.4935   -2.2607   -1.5522 C   0  0  0  0  0  0  0  0  0  0  0  0
    2.5806   -3.0712   -0.8207 H   0  0  0  0  0  0  0  0  0  0  0  0
    2.3229   -2.7001   -2.5394 H   0  0  0  0  0  0  0  0  0  0  0  0
    3.4387   -1.7085   -1.5805 H   0  0  0  0  0  0  0  0  0  0  0  0
  1  2  1  0  0  0  0
  2  3  1  0  0  0  0
  2  4  1  0  0  0  0
  2  5  1  0  0  0  0
  5  6  2  0  0  0  0
  5  7  1  0  0  0  0
  7  8  1  0  0  0  0
  7  9  1  0  0  0  0
  9 10  1  0  0  0  0
  9 11  1  0  0  0  0
  9 18  1  0  0  0  0
 11 12  1  0  0  0  0
 11 13  1  0  0  0  0
 11 14  1  0  0  0  0
 14 15  2  0  0  0  0
 14 16  1  0  0  0  0
 16 17  1  0  0  0  0
 18 19  2  0  0  0  0
 18 20  1  0  0  0  0
 20 21  1  0  0  0  0
 20 22  1  0  0  0  0
 22 23  1  0  0  0  0
 22 24  1  0  0  0  0
 22 25  1  0  0  0  0
M  END
$$$$

  -OEChem-01062216063D

 25 24  0     1  0  0  0  0  0999 V2000
   -2.9556   -3.3179    1.0901 H   0  0  0  0  0  0  0  0  0  0  0  0
   -2.9078   -2.2711    0.7762 C   0  0  0  0  0  0  0  0  0  0  0  0
   -3.4554   -1.6629    1.5002 H   0  0  0  0  0  0  0  0  0  0  0  0
   -3.3812   -2.1760   -0.2038 H   0  0  0  0  0  0  0  0  0  0  0  0
   -1.4632   -1.8131    0.7021 C   0  0  0  0  0  0  0  0  0  0  0  0
   -0.5784   -2.6133    0.9410 O   0  0  0  0  0  0  0  0  0  0  0  0
   -1.1970   -0.5010    0.3493 N   0  0  0  0  0  0  0  0  0  0  0  0
   -2.0166    0.0834    0.2049 H   0  0  0  0  0  0  0  0  0  0  0  0
    0.1134    0.1858    0.3221 C   0  0  1  0  0  0  0  0  0  0  0  0
    0.1045    0.9316   -0.4793 H   0  0  0  0  0  0  0  0  0  0  0  0
    0.2578    0.9091    1.6829 C   0  0  0  0  0  0  0  0  0  0  0  0
    0.1117    0.1896    2.4942 H   0  0  0  0  0  0  0  0  0  0  0  0
    1.2709    1.3087    1.7828 H   0  0  0  0  0  0  0  0  0  0  0  0
   -0.6999    2.0816    1.8638 C   0  0  0  0  0  0  0  0  0  0  0  0
   -1.0821    2.7025    0.8840 O   0  0  0  0  0  0  0  0  0  0  0  0
   -1.0820    2.3767    3.1279 O   0  0  0  0  0  0  0  0  0  0  0  0
   -1.6568    3.1543    3.0651 H   0  0  0  0  0  0  0  0  0  0  0  0
    1.3493   -0.7063    0.0179 C   0  0  0  0  0  0  0  0  0  0  0  0
    2.2604   -0.8401    0.8270 O   0  0  0  0  0  0  0  0  0  0  0  0
    1.5584   -1.1359   -1.2808 N   0  0  0  0  0  0  0  0  0  0  0  0
    0.7531   -1.1118   -1.8978 H   0  0  0  0  0  0  0  0  0  0  0  0
    2.6918   -1.9736   -1.6549 C   0  0  0  0  0  0  0  0  0  0  0  0
    2.6726   -2.9142   -1.0939 H   0  0  0  0  0  0  0  0  0  0  0  0
    2.6555   -2.2053   -2.7235 H   0  0  0  0  0  0  0  0  0  0  0  0
    3.6355   -1.4584   -1.4467 H   0  0  0  0  0  0  0  0  0  0  0  0
  1  2  1  0  0  0  0
  2  3  1  0  0  0  0
  2  4  1  0  0  0  0
  2  5  1  0  0  0  0
  5  6  2  0  0  0  0
  5  7  1  0  0  0  0
  7  8  1  0  0  0  0
  7  9  1  0  0  0  0
  9 10  1  0  0  0  0
  9 11  1  0  0  0  0
  9 18  1  0  0  0  0
 11 12  1  0  0  0  0
 11 13  1  0  0  0  0
 11 14  1  0  0  0  0
 14 15  2  0  0  0  0
 14 16  1  0  0  0  0
 16 17  1  0  0  0  0
 18 19  2  0  0  0  0
 18 20  1  0  0  0  0
 20 21  1  0  0  0  0
 20 22  1  0  0  0  0
 22 23  1  0  0  0  0
 22 24  1  0  0  0  0
 22 25  1  0  0  0  0
M  END
$$$$

  -OEChem-01062216063D

 25 24  0     1  0  0  0  0  0999 V2000
   -2.9904   -3.3064    1.1119 H   0  0  0  0  0  0  0  0  0  0  0  0
   -2.9329   -2.2618    0.7923 C   0  0  0  0  0  0  0  0  0  0  0  0
   -3.4626   -1.6431    1.5206 H   0  0  0  0  0  0  0  0  0  0  0  0
   -3.4180   -2.1649   -0.1819 H   0  0  0  0  0  0  0  0  0  0  0  0
   -1.4832   -1.8241    0.6959 C   0  0  0  0  0  0  0  0  0  0  0  0
   -0.6080   -2.6412    0.9091 O   0  0  0  0  0  0  0  0  0  0  0  0
   -1.2060   -0.5154    0.3390 N   0  0  0  0  0  0  0  0  0  0  0  0
   -2.0221    0.0763    0.2064 H   0  0  0  0  0  0  0  0  0  0  0  0
    0.1080    0.1641    0.3137 C   0  0  1  0  0  0  0  0  0  0  0  0
    0.0999    0.9111   -0.4865 H   0  0  0  0  0  0  0  0  0  0  0  0
    0.2576    0.8874    1.6733 C   0  0  0  0  0  0  0  0  0  0  0  0
    0.1045    0.1694    2.4847 H   0  0  0  0  0  0  0  0  0  0  0  0
    1.2756    1.2749    1.7725 H   0  0  0  0  0  0  0  0  0  0  0  0
   -0.6912    2.0668    1.8557 C   0  0  0  0  0  0  0  0  0  0  0  0
   -1.0696    2.6901    0.8759 O   0  0  0  0  0  0  0  0  0  0  0  0
   -1.0682    2.3666    3.1201 O   0  0  0  0  0  0  0  0  0  0  0  0
   -1.6384    3.1476    3.0580 H   0  0  0  0  0  0  0  0  0  0  0  0
    1.3480   -0.7263    0.0195 C   0  0  0  0  0  0  0  0  0  0  0  0
    2.1400   -1.0314    0.9039 O   0  0  0  0  0  0  0  0  0  0  0  0
    1.7468   -0.9027   -1.2941 N   0  0  0  0  0  0  0  0  0  0  0  0
    1.0577   -0.7036   -2.0119 H   0  0  0  0  0  0  0  0  0  0  0  0
    2.9332   -1.6675   -1.6616 C   0  0  0  0  0  0  0  0  0  0  0  0
    2.8551   -2.6954   -1.2917 H   0  0  0  0  0  0  0  0  0  0  0  0
    3.0428   -1.6973   -2.7498 H   0  0  0  0  0  0  0  0  0  0  0  0
    3.8325   -1.2080   -1.2376 H   0  0  0  0  0  0  0  0  0  0  0  0
  1  2  1  0  0  0  0
  2  3  1  0  0  0  0
  2  4  1  0  0  0  0
  2  5  1  0  0  0  0
  5  6  2  0  0  0  0
  5  7  1  0  0  0  0
  7  8  1  0  0  0  0
  7  9  1  0  0  0  0
  9 10  1  0  0  0  0
  9 11  1  0  0  0  0
  9 18  1  0  0  0  0
 11 12  1  0  0  0  0
 11 13  1  0  0  0  0
 11 14  1  0  0  0  0
 14 15  2  0  0  0  0
 14 16  1  0  0  0  0
 16 17  1  0  0  0  0
 18 19  2  0  0  0  0
 18 20  1  0  0  0  0
 20 21  1  0  0  0  0
 20 22  1  0  0  0  0
 22 23  1  0  0  0  0
 22 24  1  0  0  0  0
 22 25  1  0  0  0  0
M  END
$$$$

  -OEChem-01062216063D

 25 24  0     1  0  0  0  0  0999 V2000
   -3.0423   -3.2870    1.1410 H   0  0  0  0  0  0  0  0  0  0  0  0
   -2.9687   -2.2463    0.8119 C   0  0  0  0  0  0  0  0  0  0  0  0
   -3.4713   -1.6109    1.5450 H   0  0  0  0  0  0  0  0  0  0  0  0
   -3.4695   -2.1463   -0.1540 H   0  0  0  0  0  0  0  0  0  0  0  0
   -1.5120   -1.8396    0.6857 C   0  0  0  0  0  0  0  0  0  0  0  0
   -0.6526   -2.6797    0.8675 O   0  0  0  0  0  0  0  0  0  0  0  0
   -1.2174   -0.5357    0.3261 N   0  0  0  0  0  0  0  0  0  0  0  0
   -2.0277    0.0669    0.2098 H   0  0  0  0  0  0  0  0  0  0  0  0
    0.1018    0.1340    0.2987 C   0  0  1  0  0  0  0  0  0  0  0  0
    0.0906    0.8816   -0.5003 H   0  0  0  0  0  0  0  0  0  0  0  0
    0.2622    0.8559    1.6572 C   0  0  0  0  0  0  0  0  0  0  0  0
    0.1032    0.1392    2.4688 H   0  0  0  0  0  0  0  0  0  0  0  0
    1.2854    1.2304    1.7542 H   0  0  0  0  0  0  0  0  0  0  0  0
   -0.6758    2.0433    1.8429 C   0  0  0  0  0  0  0  0  0  0  0  0
   -1.0519    2.6695    0.8641 O   0  0  0  0  0  0  0  0  0  0  0  0
   -1.0451    2.3478    3.1085 O   0  0  0  0  0  0  0  0  0  0  0  0
   -1.6095    3.1331    3.0471 H   0  0  0  0  0  0  0  0  0  0  0  0
    1.3485   -0.7489    0.0100 C   0  0  0  0  0  0  0  0  0  0  0  0
    2.0209   -1.2149    0.9224 O   0  0  0  0  0  0  0  0  0  0  0  0
    1.9400   -0.6790   -1.2403 N   0  0  0  0  0  0  0  0  0  0  0  0
    1.3772   -0.3068   -1.9982 H   0  0  0  0  0  0  0  0  0  0  0  0
    3.1864   -1.3630   -1.5679 C   0  0  0  0  0  0  0  0  0  0  0  0
    3.0884   -2.4403   -1.3962 H   0  0  0  0  0  0  0  0  0  0  0  0
    3.4423   -1.2012   -2.6192 H   0  0  0  0  0  0  0  0  0  0  0  0
    4.0072   -0.9818   -0.9511 H   0  0  0  0  0  0  0  0  0  0  0  0
  1  2  1  0  0  0  0
  2  3  1  0  0  0  0
  2  4  1  0  0  0  0
  2  5  1  0  0  0  0
  5  6  2  0  0  0  0
  5  7  1  0  0  0  0
  7  8  1  0  0  0  0
  7  9  1  0  0  0  0
  9 10  1  0  0  0  0
  9 11  1  0  0  0  0
  9 18  1  0  0  0  0
 11 12  1  0  0  0  0
 11 13  1  0  0  0  0
 11 14  1  0  0  0  0
 14 15  2  0  0  0  0
 14 16  1  0  0  0  0
 16 17  1  0  0  0  0
 18 19  2  0  0  0  0
 18 20  1  0  0  0  0
 20 21  1  0  0  0  0
 20 22  1  0  0  0  0
 22 23  1  0  0  0  0
 22 24  1  0  0  0  0
 22 25  1  0  0  0  0
M  END
$$$$

  -OEChem-01062216063D

 25 24  0     1  0  0  0  0  0999 V2000
   -3.1044   -3.2655    1.1558 H   0  0  0  0  0  0  0  0  0  0  0  0
   -3.0084   -2.2291    0.8193 C   0  0  0  0  0  0  0  0  0  0  0  0
   -3.5004   -1.5783    1.5459 H   0  0  0  0  0  0  0  0  0  0  0  0
   -3.5036   -2.1264   -0.1490 H   0  0  0  0  0  0  0  0  0  0  0  0
   -1.5433   -1.8536    0.6950 C   0  0  0  0  0  0  0  0  0  0  0  0
   -0.7054   -2.7110    0.8894 O   0  0  0  0  0  0  0  0  0  0  0  0
   -1.2256   -0.5586    0.3229 N   0  0  0  0  0  0  0  0  0  0  0  0
   -2.0289    0.0495    0.1881 H   0  0  0  0  0  0  0  0  0  0  0  0
    0.0988    0.1009    0.2799 C   0  0  1  0  0  0  0  0  0  0  0  0
    0.0766    0.8458   -0.5212 H   0  0  0  0  0  0  0  0  0  0  0  0
    0.2762    0.8213    1.6363 C   0  0  0  0  0  0  0  0  0  0  0  0
    0.1178    0.1052    2.4488 H   0  0  0  0  0  0  0  0  0  0  0  0
    1.3033    1.1868    1.7254 H   0  0  0  0  0  0  0  0  0  0  0  0
   -0.6521    2.0152    1.8301 C   0  0  0  0  0  0  0  0  0  0  0  0
   -1.0325    2.6436    0.8544 O   0  0  0  0  0  0  0  0  0  0  0  0
   -1.0075    2.3227    3.0988 O   0  0  0  0  0  0  0  0  0  0  0  0
   -1.5716    3.1086    3.0426 H   0  0  0  0  0  0  0  0  0  0  0  0
    1.3558   -0.7688   -0.0059 C   0  0  0  0  0  0  0  0  0  0  0  0
    1.9147   -1.3916    0.8883 O   0  0  0  0  0  0  0  0  0  0  0  0
    2.1207   -0.4768   -1.1238 N   0  0  0  0  0  0  0  0  0  0  0  0
    1.6865    0.0738   -1.8575 H   0  0  0  0  0  0  0  0  0  0  0  0
    3.4200   -1.0874   -1.3849 C   0  0  0  0  0  0  0  0  0  0  0  0
    3.3314   -2.1787   -1.4141 H   0  0  0  0  0  0  0  0  0  0  0  0
    3.8124   -0.7463   -2.3474 H   0  0  0  0  0  0  0  0  0  0  0  0
    4.1369   -0.8134   -0.6038 H   0  0  0  0  0  0  0  0  0  0  0  0
  1  2  1  0  0  0  0
  2  3  1  0  0  0  0
  2  4  1  0  0  0  0
  2  5  1  0  0  0  0
  5  6  2  0  0  0  0
  5  7  1  0  0  0  0
  7  8  1  0  0  0  0
  7  9  1  0  0  0  0
  9 10  1  0  0  0  0
  9 11  1  0  0  0  0
  9 18  1  0  0  0  0
 11 12  1  0  0  0  0
 11 13  1  0  0  0  0
 11 14  1  0  0  0  0
 14 15  2  0  0  0  0
 14 16  1  0  0  0  0
 16 17  1  0  0  0  0
 18 19  2  0  0  0  0
 18 20  1  0  0  0  0
 20 21  1  0  0  0  0
 20 22  1  0  0  0  0
 22 23  1  0  0  0  0
 22 24  1  0  0  0  0
 22 25  1  0  0  0  0
M  END
$$$$

  -OEChem-01062216063D

 25 24  0     1  0  0  0  0  0999 V2000
   -3.1807   -3.2414    1.1721 H   0  0  0  0  0  0  0  0  0  0  0  0
   -3.0532   -2.2215    0.7978 C   0  0  0  0  0  0  0  0  0  0  0  0
   -3.5732   -1.5346    1.4697 H   0  0  0  0  0  0  0  0  0  0  0  0
   -3.4968   -2.1550   -0.1983 H   0  0  0  0  0  0  0  0  0  0  0  0
   -1.5782   -1.8688    0.7341 C   0  0  0  0  0  0  0  0  0  0  0  0
   -0.7695   -2.7296    1.0124 O   0  0  0  0  0  0  0  0  0  0  0  0
   -1.2305   -0.5869    0.3426 N   0  0  0  0  0  0  0  0  0  0  0  0
   -2.0246    0.0179    0.1520 H   0  0  0  0  0  0  0  0  0  0  0  0
    0.0998    0.0616    0.2703 C   0  0  1  0  0  0  0  0  0  0  0  0
    0.0604    0.7991   -0.5370 H   0  0  0  0  0  0  0  0  0  0  0  0
    0.3015    0.7871    1.6197 C   0  0  0  0  0  0  0  0  0  0  0  0
    0.1487    0.0753    2.4372 H   0  0  0  0  0  0  0  0  0  0  0  0
    1.3320    1.1453    1.6948 H   0  0  0  0  0  0  0  0  0  0  0  0
   -0.6157    1.9883    1.8212 C   0  0  0  0  0  0  0  0  0  0  0  0
   -1.0054    2.6144    0.8475 O   0  0  0  0  0  0  0  0  0  0  0  0
   -0.9455    2.3080    3.0936 O   0  0  0  0  0  0  0  0  0  0  0  0
   -1.5077    3.0955    3.0422 H   0  0  0  0  0  0  0  0  0  0  0  0
    1.3704   -0.7874   -0.0198 C   0  0  0  0  0  0  0  0  0  0  0  0
    1.8226   -1.5800    0.7939 O   0  0  0  0  0  0  0  0  0  0  0  0
    2.2757   -0.3007   -0.9501 N   0  0  0  0  0  0  0  0  0  0  0  0
    1.9602    0.4337   -1.5754 H   0  0  0  0  0  0  0  0  0  0  0  0
    3.6140   -0.8521   -1.1381 C   0  0  0  0  0  0  0  0  0  0  0  0
    3.5614   -1.9280   -1.3372 H   0  0  0  0  0  0  0  0  0  0  0  0
    4.1075   -0.3685   -1.9864 H   0  0  0  0  0  0  0  0  0  0  0  0
    4.2241   -0.6894   -0.2434 H   0  0  0  0  0  0  0  0  0  0  0  0
  1  2  1  0  0  0  0
  2  3  1  0  0  0  0
  2  4  1  0  0  0  0
  2  5  1  0  0  0  0
  5  6  2  0  0  0  0
  5  7  1  0  0  0  0
  7  8  1  0  0  0  0
  7  9  1  0  0  0  0
  9 10  1  0  0  0  0
  9 11  1  0  0  0  0
  9 18  1  0  0  0  0
 11 12  1  0  0  0  0
 11 13  1  0  0  0  0
 11 14  1  0  0  0  0
 14 15  2  0  0  0  0
 14 16  1  0  0  0  0
 16 17  1  0  0  0  0
 18 19  2  0  0  0  0
 18 20  1  0  0  0  0
 20 21  1  0  0  0  0
 20 22  1  0  0  0  0
 22 23  1  0  0  0  0
 22 24  1  0  0  0  0
 22 25  1  0  0  0  0
M  END
$$$$

  -OEChem-01062216063D

 25 24  0     1  0  0  0  0  0999 V2000
   -2.7477   -3.4929    0.9457 H   0  0  0  0  0  0  0  0  0  0  0  0
   -2.6964   -2.5106    0.4675 C   0  0  0  0  0  0  0  0  0  0  0  0
   -3.6359   -1.9815    0.6431 H   0  0  0  0  0  0  0  0  0  0  0  0
   -2.5574   -2.6521   -0.6069 H   0  0  0  0  0  0  0  0  0  0  0  0
   -1.5367   -1.7163    1.0381 C   0  0  0  0  0  0  0  0  0  0  0  0
   -0.9738   -2.1144    2.0448 O   0  0  0  0  0  0  0  0  0  0  0  0
   -1.2908   -0.4355    0.5760 N   0  0  0  0  0  0  0  0  0  0  0  0
   -1.9499   -0.1436   -0.1394 H   0  0  0  0  0  0  0  0  0  0  0  0
    0.0539    0.1725    0.4557 C   0  0  1  0  0  0  0  0  0  0  0  0
    0.0161    0.8731   -0.3841 H   0  0  0  0  0  0  0  0  0  0  0  0
    0.3159    0.9544    1.7618 C   0  0  0  0  0  0  0  0  0  0  0  0
    0.1537    0.2917    2.6177 H   0  0  0  0  0  0  0  0  0  0  0  0
    1.3575    1.2827    1.7996 H   0  0  0  0  0  0  0  0  0  0  0  0
   -0.5597    2.1937    1.9226 C   0  0  0  0  0  0  0  0  0  0  0  0
   -0.9544    2.7821    0.9273 O   0  0  0  0  0  0  0  0  0  0  0  0
   -0.8220    2.6053    3.1846 O   0  0  0  0  0  0  0  0  0  0  0  0
   -1.3825    3.3914    3.1044 H   0  0  0  0  0  0  0  0  0  0  0  0
    1.2860   -0.7327    0.1596 C   0  0  0  0  0  0  0  0  0  0  0  0
    1.2676   -1.9527    0.2200 O   0  0  0  0  0  0  0  0  0  0  0  0
    2.3390   -0.1710   -0.5447 N   0  0  0  0  0  0  0  0  0  0  0  0
    2.3413    0.8373   -0.6637 H   0  0  0  0  0  0  0  0  0  0  0  0
    3.4758   -0.9374   -1.0455 C   0  0  0  0  0  0  0  0  0  0  0  0
    3.1461   -1.6722   -1.7876 H   0  0  0  0  0  0  0  0  0  0  0  0
    4.2030   -0.2709   -1.5189 H   0  0  0  0  0  0  0  0  0  0  0  0
    3.9742   -1.4653   -0.2254 H   0  0  0  0  0  0  0  0  0  0  0  0
  1  2  1  0  0  0  0
  2  3  1  0  0  0  0
  2  4  1  0  0  0  0
  2  5  1  0  0  0  0
  5  6  2  0  0  0  0
  5  7  1  0  0  0  0
  7  8  1  0  0  0  0
  7  9  1  0  0  0  0
  9 10  1  0  0  0  0
  9 11  1  0  0  0  0
  9 18  1  0  0  0  0
 11 12  1  0  0  0  0
 11 13  1  0  0  0  0
 11 14  1  0  0  0  0
 14 15  2  0  0  0  0
 14 16  1  0  0  0  0
 16 17  1  0  0  0  0
 18 19  2  0  0  0  0
 18 20  1  0  0  0  0
 20 21  1  0  0  0  0
 20 22  1  0  0  0  0
 22 23  1  0  0  0  0
 22 24  1  0  0  0  0
 22 25  1  0  0  0  0
M  END
$$$$

  -OEChem-01062216063D

 25 24  0     1  0  0  0  0  0999 V2000
   -2.7619   -3.4758    0.9749 H   0  0  0  0  0  0  0  0  0  0  0  0
   -2.7111   -2.4963    0.4910 C   0  0  0  0  0  0  0  0  0  0  0  0
   -3.6364   -1.9525    0.6947 H   0  0  0  0  0  0  0  0  0  0  0  0
   -2.6085   -2.6438   -0.5868 H   0  0  0  0  0  0  0  0  0  0  0  0
   -1.5225   -1.7163    1.0199 C   0  0  0  0  0  0  0  0  0  0  0  0
   -0.9016   -2.1399    1.9822 O   0  0  0  0  0  0  0  0  0  0  0  0
   -1.2838   -0.4327    0.5608 N   0  0  0  0  0  0  0  0  0  0  0  0
   -1.9411   -0.1371   -0.1548 H   0  0  0  0  0  0  0  0  0  0  0  0
    0.0618    0.1754    0.4585 C   0  0  1  0  0  0  0  0  0  0  0  0
    0.0464    0.8757   -0.3828 H   0  0  0  0  0  0  0  0  0  0  0  0
    0.2988    0.9545    1.7727 C   0  0  0  0  0  0  0  0  0  0  0  0
    0.1209    0.2892    2.6234 H   0  0  0  0  0  0  0  0  0  0  0  0
    1.3376    1.2866    1.8345 H   0  0  0  0  0  0  0  0  0  0  0  0
   -0.5829    2.1909    1.9213 C   0  0  0  0  0  0  0  0  0  0  0  0
   -0.9617    2.7820    0.9218 O   0  0  0  0  0  0  0  0  0  0  0  0
   -0.8679    2.5970    3.1800 O   0  0  0  0  0  0  0  0  0  0  0  0
   -1.4278    3.3829    3.0923 H   0  0  0  0  0  0  0  0  0  0  0  0
    1.2820   -0.7491    0.1766 C   0  0  0  0  0  0  0  0  0  0  0  0
    1.1586   -1.9336   -0.1051 O   0  0  0  0  0  0  0  0  0  0  0  0
    2.4671   -0.1518   -0.2224 N   0  0  0  0  0  0  0  0  0  0  0  0
    2.5526    0.8522   -0.0992 H   0  0  0  0  0  0  0  0  0  0  0  0
    3.6142   -0.8944   -0.7351 C   0  0  0  0  0  0  0  0  0  0  0  0
    3.3642   -1.3793   -1.6846 H   0  0  0  0  0  0  0  0  0  0  0  0
    4.4581   -0.2186   -0.9037 H   0  0  0  0  0  0  0  0  0  0  0  0
    3.9251   -1.6624   -0.0186 H   0  0  0  0  0  0  0  0  0  0  0  0
  1  2  1  0  0  0  0
  2  3  1  0  0  0  0
  2  4  1  0  0  0  0
  2  5  1  0  0  0  0
  5  6  2  0  0  0  0
  5  7  1  0  0  0  0
  7  8  1  0  0  0  0
  7  9  1  0  0  0  0
  9 10  1  0  0  0  0
  9 11  1  0  0  0  0
  9 18  1  0  0  0  0
 11 12  1  0  0  0  0
 11 13  1  0  0  0  0
 11 14  1  0  0  0  0
 14 15  2  0  0  0  0
 14 16  1  0  0  0  0
 16 17  1  0  0  0  0
 18 19  2  0  0  0  0
 18 20  1  0  0  0  0
 20 21  1  0  0  0  0
 20 22  1  0  0  0  0
 22 23  1  0  0  0  0
 22 24  1  0  0  0  0
 22 25  1  0  0  0  0
M  END
$$$$

  -OEChem-01062216063D

 25 24  0     1  0  0  0  0  0999 V2000
   -2.7062   -3.4991    0.9340 H   0  0  0  0  0  0  0  0  0  0  0  0
   -2.7006   -2.4920    0.5078 C   0  0  0  0  0  0  0  0  0  0  0  0
   -3.5822   -1.9537    0.8627 H   0  0  0  0  0  0  0  0  0  0  0  0
   -2.7411   -2.5718   -0.5813 H   0  0  0  0  0  0  0  0  0  0  0  0
   -1.4399   -1.7574    0.9228 C   0  0  0  0  0  0  0  0  0  0  0  0
   -0.6471   -2.3014    1.6764 O   0  0  0  0  0  0  0  0  0  0  0  0
   -1.2527   -0.4444    0.5220 N   0  0  0  0  0  0  0  0  0  0  0  0
   -1.9551   -0.1036   -0.1278 H   0  0  0  0  0  0  0  0  0  0  0  0
    0.0699    0.2127    0.4518 C   0  0  1  0  0  0  0  0  0  0  0  0
   -0.0250    1.0945   -0.1899 H   0  0  0  0  0  0  0  0  0  0  0  0
    0.4711    0.6750    1.8753 C   0  0  0  0  0  0  0  0  0  0  0  0
    0.4078   -0.1652    2.5720 H   0  0  0  0  0  0  0  0  0  0  0  0
    1.5068    1.0192    1.8835 H   0  0  0  0  0  0  0  0  0  0  0  0
   -0.3838    1.8211    2.4081 C   0  0  0  0  0  0  0  0  0  0  0  0
   -0.8819    2.6157    1.6260 O   0  0  0  0  0  0  0  0  0  0  0  0
   -0.5100    1.9201    3.7514 O   0  0  0  0  0  0  0  0  0  0  0  0
   -1.0745    2.6906    3.9148 H   0  0  0  0  0  0  0  0  0  0  0  0
    1.1898   -0.6348   -0.2143 C   0  0  0  0  0  0  0  0  0  0  0  0
    0.9130   -1.5934   -0.9261 O   0  0  0  0  0  0  0  0  0  0  0  0
    2.4684   -0.1139   -0.3278 N   0  0  0  0  0  0  0  0  0  0  0  0
    2.6854    0.7218    0.2055 H   0  0  0  0  0  0  0  0  0  0  0  0
    3.5356   -0.7627   -1.0819 C   0  0  0  0  0  0  0  0  0  0  0  0
    3.2776   -0.8126   -2.1450 H   0  0  0  0  0  0  0  0  0  0  0  0
    4.4688   -0.2008   -0.9790 H   0  0  0  0  0  0  0  0  0  0  0  0
    3.7027   -1.7799   -0.7118 H   0  0  0  0  0  0  0  0  0  0  0  0
  1  2  1  0  0  0  0
  2  3  1  0  0  0  0
  2  4  1  0  0  0  0
  2  5  1  0  0  0  0
  5  6  2  0  0  0  0
  5  7  1  0  0  0  0
  7  8  1  0  0  0  0
  7  9  1  0  0  0  0
  9 10  1  0  0  0  0
  9 11  1  0  0  0  0
  9 18  1  0  0  0  0
 11 12  1  0  0  0  0
 11 13  1  0  0  0  0
 11 14  1  0  0  0  0
 14 15  2  0  0  0  0
 14 16  1  0  0  0  0
 16 17  1  0  0  0  0
 18 19  2  0  0  0  0
 18 20  1  0  0  0  0
 20 21  1  0  0  0  0
 20 22  1  0  0  0  0
 22 23  1  0  0  0  0
 22 24  1  0  0  0  0
 22 25  1  0  0  0  0
M  END
$$$$

  -OEChem-01062216063D

 25 24  0     1  0  0  0  0  0999 V2000
   -2.6433   -3.5132    0.8977 H   0  0  0  0  0  0  0  0  0  0  0  0
   -2.6714   -2.4899    0.5130 C   0  0  0  0  0  0  0  0  0  0  0  0
   -3.5442   -1.9801    0.9275 H   0  0  0  0  0  0  0  0  0  0  0  0
   -2.7593   -2.5273   -0.5755 H   0  0  0  0  0  0  0  0  0  0  0  0
   -1.4051   -1.7511    0.9022 C   0  0  0  0  0  0  0  0  0  0  0  0
   -0.5775   -2.3041    1.6109 O   0  0  0  0  0  0  0  0  0  0  0  0
   -1.2414   -0.4305    0.5181 N   0  0  0  0  0  0  0  0  0  0  0  0
   -1.9537   -0.0876   -0.1199 H   0  0  0  0  0  0  0  0  0  0  0  0
    0.0702    0.2472    0.4562 C   0  0  1  0  0  0  0  0  0  0  0  0
   -0.0273    1.1329   -0.1799 H   0  0  0  0  0  0  0  0  0  0  0  0
    0.4546    0.7049    1.8866 C   0  0  0  0  0  0  0  0  0  0  0  0
    0.4029   -0.1415    2.5769 H   0  0  0  0  0  0  0  0  0  0  0  0
    1.4809    1.0745    1.9043 H   0  0  0  0  0  0  0  0  0  0  0  0
   -0.4251    1.8324    2.4197 C   0  0  0  0  0  0  0  0  0  0  0  0
   -0.9317    2.6239    1.6400 O   0  0  0  0  0  0  0  0  0  0  0  0
   -0.5638    1.9183    3.7629 O   0  0  0  0  0  0  0  0  0  0  0  0
   -1.1419    2.6787    3.9264 H   0  0  0  0  0  0  0  0  0  0  0  0
    1.1790   -0.6025   -0.2256 C   0  0  0  0  0  0  0  0  0  0  0  0
    0.8766   -1.4029   -1.1038 O   0  0  0  0  0  0  0  0  0  0  0  0
    2.5170   -0.2682   -0.0978 N   0  0  0  0  0  0  0  0  0  0  0  0
    2.7664    0.3894    0.6332 H   0  0  0  0  0  0  0  0  0  0  0  0
    3.5852   -0.9784   -0.7923 C   0  0  0  0  0  0  0  0  0  0  0  0
    3.4629   -0.8903   -1.8771 H   0  0  0  0  0  0  0  0  0  0  0  0
    4.5585   -0.5587   -0.5204 H   0  0  0  0  0  0  0  0  0  0  0  0
    3.5775   -2.0398   -0.5219 H   0  0  0  0  0  0  0  0  0  0  0  0
  1  2  1  0  0  0  0
  2  3  1  0  0  0  0
  2  4  1  0  0  0  0
  2  5  1  0  0  0  0
  5  6  2  0  0  0  0
  5  7  1  0  0  0  0
  7  8  1  0  0  0  0
  7  9  1  0  0  0  0
  9 10  1  0  0  0  0
  9 11  1  0  0  0  0
  9 18  1  0  0  0  0
 11 12  1  0  0  0  0
 11 13  1  0  0  0  0
 11 14  1  0  0  0  0
 14 15  2  0  0  0  0
 14 16  1  0  0  0  0
 16 17  1  0  0  0  0
 18 19  2  0  0  0  0
 18 20  1  0  0  0  0
 20 21  1  0  0  0  0
 20 22  1  0  0  0  0
 22 23  1  0  0  0  0
 22 24  1  0  0  0  0
 22 25  1  0  0  0  0
M  END
$$$$

  -OEChem-01062216063D

 25 24  0     1  0  0  0  0  0999 V2000
   -2.6028   -3.5163    0.8968 H   0  0  0  0  0  0  0  0  0  0  0  0
   -2.6410   -2.4938    0.5110 C   0  0  0  0  0  0  0  0  0  0  0  0
   -3.5141   -1.9898    0.9320 H   0  0  0  0  0  0  0  0  0  0  0  0
   -2.7374   -2.5321   -0.5769 H   0  0  0  0  0  0  0  0  0  0  0  0
   -1.3766   -1.7460    0.8888 C   0  0  0  0  0  0  0  0  0  0  0  0
   -0.5251   -2.3013    1.5670 O   0  0  0  0  0  0  0  0  0  0  0  0
   -1.2314   -0.4207    0.5156 N   0  0  0  0  0  0  0  0  0  0  0  0
   -1.9517   -0.0763   -0.1130 H   0  0  0  0  0  0  0  0  0  0  0  0
    0.0703    0.2744    0.4627 C   0  0  1  0  0  0  0  0  0  0  0  0
   -0.0311    1.1606   -0.1723 H   0  0  0  0  0  0  0  0  0  0  0  0
    0.4446    0.7341    1.8947 C   0  0  0  0  0  0  0  0  0  0  0  0
    0.4054   -0.1143    2.5834 H   0  0  0  0  0  0  0  0  0  0  0  0
    1.4638    1.1239    1.9109 H   0  0  0  0  0  0  0  0  0  0  0  0
   -0.4515    1.8487    2.4276 C   0  0  0  0  0  0  0  0  0  0  0  0
   -0.9672    2.6356    1.6496 O   0  0  0  0  0  0  0  0  0  0  0  0
   -0.5983    1.9254    3.7704 O   0  0  0  0  0  0  0  0  0  0  0  0
   -1.1866    2.6778    3.9349 H   0  0  0  0  0  0  0  0  0  0  0  0
    1.1741   -0.5753   -0.2260 C   0  0  0  0  0  0  0  0  0  0  0  0
    0.8882   -1.2105   -1.2350 O   0  0  0  0  0  0  0  0  0  0  0  0
    2.5111   -0.4617    0.1166 N   0  0  0  0  0  0  0  0  0  0  0  0
    2.7214   -0.0152    1.0030 H   0  0  0  0  0  0  0  0  0  0  0  0
    3.5606   -1.2375   -0.5346 C   0  0  0  0  0  0  0  0  0  0  0  0
    3.5931   -1.0155   -1.6066 H   0  0  0  0  0  0  0  0  0  0  0  0
    4.5357   -0.9925   -0.1032 H   0  0  0  0  0  0  0  0  0  0  0  0
    3.3816   -2.3099   -0.4024 H   0  0  0  0  0  0  0  0  0  0  0  0
  1  2  1  0  0  0  0
  2  3  1  0  0  0  0
  2  4  1  0  0  0  0
  2  5  1  0  0  0  0
  5  6  2  0  0  0  0
  5  7  1  0  0  0  0
  7  8  1  0  0  0  0
  7  9  1  0  0  0  0
  9 10  1  0  0  0  0
  9 11  1  0  0  0  0
  9 18  1  0  0  0  0
 11 12  1  0  0  0  0
 11 13  1  0  0  0  0
 11 14  1  0  0  0  0
 14 15  2  0  0  0  0
 14 16  1  0  0  0  0
 16 17  1  0  0  0  0
 18 19  2  0  0  0  0
 18 20  1  0  0  0  0
 20 21  1  0  0  0  0
 20 22  1  0  0  0  0
 22 23  1  0  0  0  0
 22 24  1  0  0  0  0
 22 25  1  0  0  0  0
M  END
$$$$

  -OEChem-01062216063D

 25 24  0     1  0  0  0  0  0999 V2000
   -2.5576   -3.5322    0.8539 H   0  0  0  0  0  0  0  0  0  0  0  0
   -2.6267   -2.4941    0.5172 C   0  0  0  0  0  0  0  0  0  0  0  0
   -3.4853   -2.0220    1.0003 H   0  0  0  0  0  0  0  0  0  0  0  0
   -2.7734   -2.4856   -0.5656 H   0  0  0  0  0  0  0  0  0  0  0  0
   -1.3558   -1.7458    0.8715 C   0  0  0  0  0  0  0  0  0  0  0  0
   -0.4865   -2.3046    1.5240 O   0  0  0  0  0  0  0  0  0  0  0  0
   -1.2199   -0.4185    0.5033 N   0  0  0  0  0  0  0  0  0  0  0  0
   -1.9516   -0.0647   -0.1070 H   0  0  0  0  0  0  0  0  0  0  0  0
    0.0735    0.2905    0.4592 C   0  0  1  0  0  0  0  0  0  0  0  0
   -0.0315    1.1763   -0.1763 H   0  0  0  0  0  0  0  0  0  0  0  0
    0.4430    0.7530    1.8906 C   0  0  0  0  0  0  0  0  0  0  0  0
    0.4125   -0.0965    2.5789 H   0  0  0  0  0  0  0  0  0  0  0  0
    1.4590    1.1537    1.9012 H   0  0  0  0  0  0  0  0  0  0  0  0
   -0.4644    1.8580    2.4245 C   0  0  0  0  0  0  0  0  0  0  0  0
   -0.9888    2.6405    1.6480 O   0  0  0  0  0  0  0  0  0  0  0  0
   -0.6135    1.9293    3.7673 O   0  0  0  0  0  0  0  0  0  0  0  0
   -1.2072    2.6774    3.9328 H   0  0  0  0  0  0  0  0  0  0  0  0
    1.1798   -0.5547   -0.2269 C   0  0  0  0  0  0  0  0  0  0  0  0
    0.9541   -1.0213   -1.3374 O   0  0  0  0  0  0  0  0  0  0  0  0
    2.4546   -0.6758    0.2990 N   0  0  0  0  0  0  0  0  0  0  0  0
    2.5595   -0.4315    1.2786 H   0  0  0  0  0  0  0  0  0  0  0  0
    3.4732   -1.5230   -0.3098 C   0  0  0  0  0  0  0  0  0  0  0  0
    3.6877   -1.1923   -1.3315 H   0  0  0  0  0  0  0  0  0  0  0  0
    4.4007   -1.4752    0.2686 H   0  0  0  0  0  0  0  0  0  0  0  0
    3.1356   -2.5644   -0.3403 H   0  0  0  0  0  0  0  0  0  0  0  0
  1  2  1  0  0  0  0
  2  3  1  0  0  0  0
  2  4  1  0  0  0  0
  2  5  1  0  0  0  0
  5  6  2  0  0  0  0
  5  7  1  0  0  0  0
  7  8  1  0  0  0  0
  7  9  1  0  0  0  0
  9 10  1  0  0  0  0
  9 11  1  0  0  0  0
  9 18  1  0  0  0  0
 11 12  1  0  0  0  0
 11 13  1  0  0  0  0
 11 14  1  0  0  0  0
 14 15  2  0  0  0  0
 14 16  1  0  0  0  0
 16 17  1  0  0  0  0
 18 19  2  0  0  0  0
 18 20  1  0  0  0  0
 20 21  1  0  0  0  0
 20 22  1  0  0  0  0
 22 23  1  0  0  0  0
 22 24  1  0  0  0  0
 22 25  1  0  0  0  0
M  END
$$$$

  -OEChem-01062216063D

 25 24  0     1  0  0  0  0  0999 V2000
   -2.5734   -3.5249    0.8640 H   0  0  0  0  0  0  0  0  0  0  0  0
   -2.6390   -2.4850    0.5319 C   0  0  0  0  0  0  0  0  0  0  0  0
   -3.4809   -2.0056    1.0370 H   0  0  0  0  0  0  0  0  0  0  0  0
   -2.8124   -2.4714   -0.5470 H   0  0  0  0  0  0  0  0  0  0  0  0
   -1.3522   -1.7507    0.8576 C   0  0  0  0  0  0  0  0  0  0  0  0
   -0.4728   -2.3199    1.4874 O   0  0  0  0  0  0  0  0  0  0  0  0
   -1.2103   -0.4246    0.4893 N   0  0  0  0  0  0  0  0  0  0  0  0
   -1.9529   -0.0542   -0.0978 H   0  0  0  0  0  0  0  0  0  0  0  0
    0.0805    0.2884    0.4522 C   0  0  1  0  0  0  0  0  0  0  0  0
   -0.0245    1.1740   -0.1840 H   0  0  0  0  0  0  0  0  0  0  0  0
    0.4458    0.7524    1.8833 C   0  0  0  0  0  0  0  0  0  0  0  0
    0.4128   -0.0962    2.5722 H   0  0  0  0  0  0  0  0  0  0  0  0
    1.4639    1.1498    1.8931 H   0  0  0  0  0  0  0  0  0  0  0  0
   -0.4644    1.8555    2.4158 C   0  0  0  0  0  0  0  0  0  0  0  0
   -0.9893    2.6369    1.6387 O   0  0  0  0  0  0  0  0  0  0  0  0
   -0.6198    1.9233    3.7582 O   0  0  0  0  0  0  0  0  0  0  0  0
   -1.2135    2.6716    3.9225 H   0  0  0  0  0  0  0  0  0  0  0  0
    1.1945   -0.5514   -0.2240 C   0  0  0  0  0  0  0  0  0  0  0  0
    1.0725   -0.8349   -1.4093 O   0  0  0  0  0  0  0  0  0  0  0  0
    2.3512   -0.9160    0.4424 N   0  0  0  0  0  0  0  0  0  0  0  0
    2.3038   -0.8699    1.4561 H   0  0  0  0  0  0  0  0  0  0  0  0
    3.3453   -1.8003   -0.1531 C   0  0  0  0  0  0  0  0  0  0  0  0
    3.7387   -1.3686   -1.0795 H   0  0  0  0  0  0  0  0  0  0  0  0
    4.1803   -1.9493    0.5381 H   0  0  0  0  0  0  0  0  0  0  0  0
    2.9020   -2.7759   -0.3796 H   0  0  0  0  0  0  0  0  0  0  0  0
  1  2  1  0  0  0  0
  2  3  1  0  0  0  0
  2  4  1  0  0  0  0
  2  5  1  0  0  0  0
  5  6  2  0  0  0  0
  5  7  1  0  0  0  0
  7  8  1  0  0  0  0
  7  9  1  0  0  0  0
  9 10  1  0  0  0  0
  9 11  1  0  0  0  0
  9 18  1  0  0  0  0
 11 12  1  0  0  0  0
 11 13  1  0  0  0  0
 11 14  1  0  0  0  0
 14 15  2  0  0  0  0
 14 16  1  0  0  0  0
 16 17  1  0  0  0  0
 18 19  2  0  0  0  0
 18 20  1  0  0  0  0
 20 21  1  0  0  0  0
 20 22  1  0  0  0  0
 22 23  1  0  0  0  0
 22 24  1  0  0  0  0
 22 25  1  0  0  0  0
M  END
$$$$

  -OEChem-01062216063D

 25 24  0     1  0  0  0  0  0999 V2000
   -2.6205   -3.5102    0.8823 H   0  0  0  0  0  0  0  0  0  0  0  0
   -2.6738   -2.4685    0.5534 C   0  0  0  0  0  0  0  0  0  0  0  0
   -3.4954   -1.9745    1.0775 H   0  0  0  0  0  0  0  0  0  0  0  0
   -2.8706   -2.4498   -0.5213 H   0  0  0  0  0  0  0  0  0  0  0  0
   -1.3673   -1.7583    0.8529 C   0  0  0  0  0  0  0  0  0  0  0  0
   -0.4881   -2.3405    1.4710 O   0  0  0  0  0  0  0  0  0  0  0  0
   -1.2075   -0.4368    0.4768 N   0  0  0  0  0  0  0  0  0  0  0  0
   -1.9588   -0.0459   -0.0860 H   0  0  0  0  0  0  0  0  0  0  0  0
    0.0855    0.2717    0.4426 C   0  0  1  0  0  0  0  0  0  0  0  0
   -0.0157    1.1559   -0.1967 H   0  0  0  0  0  0  0  0  0  0  0  0
    0.4499    0.7384    1.8719 C   0  0  0  0  0  0  0  0  0  0  0  0
    0.4097   -0.1072    2.5639 H   0  0  0  0  0  0  0  0  0  0  0  0
    1.4728    1.1244    1.8795 H   0  0  0  0  0  0  0  0  0  0  0  0
   -0.4554    1.8465    2.4017 C   0  0  0  0  0  0  0  0  0  0  0  0
   -0.9767    2.6288    1.6232 O   0  0  0  0  0  0  0  0  0  0  0  0
   -0.6135    1.9154    3.7437 O   0  0  0  0  0  0  0  0  0  0  0  0
   -1.1996    2.6699    3.9069 H   0  0  0  0  0  0  0  0  0  0  0  0
    1.2089   -0.5662   -0.2170 C   0  0  0  0  0  0  0  0  0  0  0  0
    1.2413   -0.6409   -1.4386 O   0  0  0  0  0  0  0  0  0  0  0  0
    2.2016   -1.1750    0.5297 N   0  0  0  0  0  0  0  0  0  0  0  0
    1.9584   -1.3359    1.5044 H   0  0  0  0  0  0  0  0  0  0  0  0
    3.1915   -2.0590   -0.0733 C   0  0  0  0  0  0  0  0  0  0  0  0
    3.7619   -1.5290   -0.8434 H   0  0  0  0  0  0  0  0  0  0  0  0
    3.8919   -2.4163    0.6876 H   0  0  0  0  0  0  0  0  0  0  0  0
    2.7022   -2.9256   -0.5304 H   0  0  0  0  0  0  0  0  0  0  0  0
  1  2  1  0  0  0  0
  2  3  1  0  0  0  0
  2  4  1  0  0  0  0
  2  5  1  0  0  0  0
  5  6  2  0  0  0  0
  5  7  1  0  0  0  0
  7  8  1  0  0  0  0
  7  9  1  0  0  0  0
  9 10  1  0  0  0  0
  9 11  1  0  0  0  0
  9 18  1  0  0  0  0
 11 12  1  0  0  0  0
 11 13  1  0  0  0  0
 11 14  1  0  0  0  0
 14 15  2  0  0  0  0
 14 16  1  0  0  0  0
 16 17  1  0  0  0  0
 18 19  2  0  0  0  0
 18 20  1  0  0  0  0
 20 21  1  0  0  0  0
 20 22  1  0  0  0  0
 22 23  1  0  0  0  0
 22 24  1  0  0  0  0
 22 25  1  0  0  0  0
M  END
$$$$

  -OEChem-01062216063D

 25 24  0     1  0  0  0  0  0999 V2000
   -2.7109   -3.4836    0.9190 H   0  0  0  0  0  0  0  0  0  0  0  0
   -2.7371   -2.4447    0.5783 C   0  0  0  0  0  0  0  0  0  0  0  0
   -3.5384   -1.9206    1.1048 H   0  0  0  0  0  0  0  0  0  0  0  0
   -2.9458   -2.4323   -0.4942 H   0  0  0  0  0  0  0  0  0  0  0  0
   -1.4069   -1.7701    0.8550 C   0  0  0  0  0  0  0  0  0  0  0  0
   -0.5394   -2.3733    1.4692 O   0  0  0  0  0  0  0  0  0  0  0  0
   -1.2154   -0.4560    0.4676 N   0  0  0  0  0  0  0  0  0  0  0  0
   -1.9750   -0.0383   -0.0642 H   0  0  0  0  0  0  0  0  0  0  0  0
    0.0840    0.2430    0.4277 C   0  0  1  0  0  0  0  0  0  0  0  0
   -0.0164    1.1270   -0.2124 H   0  0  0  0  0  0  0  0  0  0  0  0
    0.4557    0.7090    1.8542 C   0  0  0  0  0  0  0  0  0  0  0  0
    0.4109   -0.1352    2.5472 H   0  0  0  0  0  0  0  0  0  0  0  0
    1.4832    1.0831    1.8575 H   0  0  0  0  0  0  0  0  0  0  0  0
   -0.4383    1.8250    2.3862 C   0  0  0  0  0  0  0  0  0  0  0  0
   -0.9559    2.6109    1.6086 O   0  0  0  0  0  0  0  0  0  0  0  0
   -0.5929    1.8955    3.7285 O   0  0  0  0  0  0  0  0  0  0  0  0
   -1.1682    2.6580    3.8929 H   0  0  0  0  0  0  0  0  0  0  0  0
    1.2211   -0.5881   -0.2161 C   0  0  0  0  0  0  0  0  0  0  0  0
    1.4451   -0.4527   -1.4117 O   0  0  0  0  0  0  0  0  0  0  0  0
    2.0241   -1.4241    0.5372 N   0  0  0  0  0  0  0  0  0  0  0  0
    1.5856   -1.7477    1.4001 H   0  0  0  0  0  0  0  0  0  0  0  0
    3.0303   -2.2859   -0.0699 C   0  0  0  0  0  0  0  0  0  0  0  0
    3.7620   -1.6898   -0.6252 H   0  0  0  0  0  0  0  0  0  0  0  0
    3.5615   -2.8480    0.7040 H   0  0  0  0  0  0  0  0  0  0  0  0
    2.5604   -2.9972   -0.7572 H   0  0  0  0  0  0  0  0  0  0  0  0
  1  2  1  0  0  0  0
  2  3  1  0  0  0  0
  2  4  1  0  0  0  0
  2  5  1  0  0  0  0
  5  6  2  0  0  0  0
  5  7  1  0  0  0  0
  7  8  1  0  0  0  0
  7  9  1  0  0  0  0
  9 10  1  0  0  0  0
  9 11  1  0  0  0  0
  9 18  1  0  0  0  0
 11 12  1  0  0  0  0
 11 13  1  0  0  0  0
 11 14  1  0  0  0  0
 14 15  2  0  0  0  0
 14 16  1  0  0  0  0
 16 17  1  0  0  0  0
 18 19  2  0  0  0  0
 18 20  1  0  0  0  0
 20 21  1  0  0  0  0
 20 22  1  0  0  0  0
 22 23  1  0  0  0  0
 22 24  1  0  0  0  0
 22 25  1  0  0  0  0
M  END
$$$$

  -OEChem-01062216063D

 25 24  0     1  0  0  0  0  0999 V2000
   -2.8487   -3.4373    0.9568 H   0  0  0  0  0  0  0  0  0  0  0  0
   -2.8332   -2.4007    0.6083 C   0  0  0  0  0  0  0  0  0  0  0  0
   -3.6005   -1.8376    1.1450 H   0  0  0  0  0  0  0  0  0  0  0  0
   -3.0601   -2.3865   -0.4606 H   0  0  0  0  0  0  0  0  0  0  0  0
   -1.4692   -1.7851    0.8574 C   0  0  0  0  0  0  0  0  0  0  0  0
   -0.6250   -2.4225    1.4678 O   0  0  0  0  0  0  0  0  0  0  0  0
   -1.2302   -0.4828    0.4575 N   0  0  0  0  0  0  0  0  0  0  0  0
   -1.9956   -0.0325   -0.0384 H   0  0  0  0  0  0  0  0  0  0  0  0
    0.0773    0.2050    0.4063 C   0  0  1  0  0  0  0  0  0  0  0  0
   -0.0252    1.0888   -0.2338 H   0  0  0  0  0  0  0  0  0  0  0  0
    0.4555    0.6665    1.8315 C   0  0  0  0  0  0  0  0  0  0  0  0
    0.4071   -0.1798    2.5223 H   0  0  0  0  0  0  0  0  0  0  0  0
    1.4865    1.0312    1.8326 H   0  0  0  0  0  0  0  0  0  0  0  0
   -0.4269    1.7893    2.3684 C   0  0  0  0  0  0  0  0  0  0  0  0
   -0.9399    2.5810    1.5935 O   0  0  0  0  0  0  0  0  0  0  0  0
   -0.5793    1.8573    3.7111 O   0  0  0  0  0  0  0  0  0  0  0  0
   -1.1450    2.6261    3.8790 H   0  0  0  0  0  0  0  0  0  0  0  0
    1.2374   -0.6090   -0.2201 C   0  0  0  0  0  0  0  0  0  0  0  0
    1.6510   -0.2872   -1.3260 O   0  0  0  0  0  0  0  0  0  0  0  0
    1.8562   -1.6433    0.4554 N   0  0  0  0  0  0  0  0  0  0  0  0
    1.2998   -2.0424    1.2152 H   0  0  0  0  0  0  0  0  0  0  0  0
    2.8811   -2.4808   -0.1536 C   0  0  0  0  0  0  0  0  0  0  0  0
    3.7297   -1.8715   -0.4820 H   0  0  0  0  0  0  0  0  0  0  0  0
    3.2459   -3.2157    0.5704 H   0  0  0  0  0  0  0  0  0  0  0  0
    2.4747   -3.0149   -1.0187 H   0  0  0  0  0  0  0  0  0  0  0  0
  1  2  1  0  0  0  0
  2  3  1  0  0  0  0
  2  4  1  0  0  0  0
  2  5  1  0  0  0  0
  5  6  2  0  0  0  0
  5  7  1  0  0  0  0
  7  8  1  0  0  0  0
  7  9  1  0  0  0  0
  9 10  1  0  0  0  0
  9 11  1  0  0  0  0
  9 18  1  0  0  0  0
 11 12  1  0  0  0  0
 11 13  1  0  0  0  0
 11 14  1  0  0  0  0
 14 15  2  0  0  0  0
 14 16  1  0  0  0  0
 16 17  1  0  0  0  0
 18 19  2  0  0  0  0
 18 20  1  0  0  0  0
 20 21  1  0  0  0  0
 20 22  1  0  0  0  0
 22 23  1  0  0  0  0
 22 24  1  0  0  0  0
 22 25  1  0  0  0  0
M  END
$$$$

  -OEChem-01062216063D

 25 24  0     1  0  0  0  0  0999 V2000
   -2.9779   -3.3964    0.9542 H   0  0  0  0  0  0  0  0  0  0  0  0
   -2.9330   -2.3503    0.6378 C   0  0  0  0  0  0  0  0  0  0  0  0
   -3.6639   -1.7767    1.2130 H   0  0  0  0  0  0  0  0  0  0  0  0
   -3.1882   -2.2943   -0.4233 H   0  0  0  0  0  0  0  0  0  0  0  0
   -1.5406   -1.7926    0.8668 C   0  0  0  0  0  0  0  0  0  0  0  0
   -0.7219   -2.4632    1.4747 O   0  0  0  0  0  0  0  0  0  0  0  0
   -1.2546   -0.5041    0.4530 N   0  0  0  0  0  0  0  0  0  0  0  0
   -2.0208   -0.0240   -0.0129 H   0  0  0  0  0  0  0  0  0  0  0  0
    0.0633    0.1673    0.3846 C   0  0  1  0  0  0  0  0  0  0  0  0
   -0.0404    1.0510   -0.2559 H   0  0  0  0  0  0  0  0  0  0  0  0
    0.4519    0.6240    1.8077 C   0  0  0  0  0  0  0  0  0  0  0  0
    0.3994   -0.2232    2.4971 H   0  0  0  0  0  0  0  0  0  0  0  0
    1.4867    0.9785    1.8047 H   0  0  0  0  0  0  0  0  0  0  0  0
   -0.4152    1.7570    2.3486 C   0  0  0  0  0  0  0  0  0  0  0  0
   -0.9220    2.5547    1.5759 O   0  0  0  0  0  0  0  0  0  0  0  0
   -0.5651    1.8245    3.6917 O   0  0  0  0  0  0  0  0  0  0  0  0
   -1.1212    2.5997    3.8619 H   0  0  0  0  0  0  0  0  0  0  0  0
    1.2400   -0.6341   -0.2308 C   0  0  0  0  0  0  0  0  0  0  0  0
    1.8215   -0.1625   -1.1987 O   0  0  0  0  0  0  0  0  0  0  0  0
    1.6880   -1.8320    0.2900 N   0  0  0  0  0  0  0  0  0  0  0  0
    1.0771   -2.2683    0.9853 H   0  0  0  0  0  0  0  0  0  0  0  0
    2.7390   -2.6353   -0.3204 C   0  0  0  0  0  0  0  0  0  0  0  0
    3.6605   -2.0517   -0.4190 H   0  0  0  0  0  0  0  0  0  0  0  0
    2.9519   -3.5108    0.3006 H   0  0  0  0  0  0  0  0  0  0  0  0
    2.4309   -2.9788   -1.3132 H   0  0  0  0  0  0  0  0  0  0  0  0
  1  2  1  0  0  0  0
  2  3  1  0  0  0  0
  2  4  1  0  0  0  0
  2  5  1  0  0  0  0
  5  6  2  0  0  0  0
  5  7  1  0  0  0  0
  7  8  1  0  0  0  0
  7  9  1  0  0  0  0
  9 10  1  0  0  0  0
  9 11  1  0  0  0  0
  9 18  1  0  0  0  0
 11 12  1  0  0  0  0
 11 13  1  0  0  0  0
 11 14  1  0  0  0  0
 14 15  2  0  0  0  0
 14 16  1  0  0  0  0
 16 17  1  0  0  0  0
 18 19  2  0  0  0  0
 18 20  1  0  0  0  0
 20 21  1  0  0  0  0
 20 22  1  0  0  0  0
 22 23  1  0  0  0  0
 22 24  1  0  0  0  0
 22 25  1  0  0  0  0
M  END
$$$$

  -OEChem-01062216063D

 25 24  0     1  0  0  0  0  0999 V2000
   -3.1156   -3.3254    1.0663 H   0  0  0  0  0  0  0  0  0  0  0  0
   -3.0278   -2.3016    0.6915 C   0  0  0  0  0  0  0  0  0  0  0  0
   -3.7231   -1.6643    1.2433 H   0  0  0  0  0  0  0  0  0  0  0  0
   -3.2966   -2.2915   -0.3676 H   0  0  0  0  0  0  0  0  0  0  0  0
   -1.6083   -1.7974    0.8716 C   0  0  0  0  0  0  0  0  0  0  0  0
   -0.7956   -2.5001    1.4496 O   0  0  0  0  0  0  0  0  0  0  0  0
   -1.2929   -0.5179    0.4522 N   0  0  0  0  0  0  0  0  0  0  0  0
   -2.0644   -0.0079    0.0287 H   0  0  0  0  0  0  0  0  0  0  0  0
    0.0351    0.1329    0.3561 C   0  0  1  0  0  0  0  0  0  0  0  0
   -0.0727    1.0191   -0.2802 H   0  0  0  0  0  0  0  0  0  0  0  0
    0.4499    0.5797    1.7745 C   0  0  0  0  0  0  0  0  0  0  0  0
    0.3962   -0.2697    2.4614 H   0  0  0  0  0  0  0  0  0  0  0  0
    1.4892    0.9206    1.7585 H   0  0  0  0  0  0  0  0  0  0  0  0
   -0.3934    1.7238    2.3298 C   0  0  0  0  0  0  0  0  0  0  0  0
   -0.8992    2.5309    1.5661 O   0  0  0  0  0  0  0  0  0  0  0  0
   -0.5240    1.7902    3.6749 O   0  0  0  0  0  0  0  0  0  0  0  0
   -1.0622    2.5759    3.8543 H   0  0  0  0  0  0  0  0  0  0  0  0
    1.2094   -0.6613   -0.2767 C   0  0  0  0  0  0  0  0  0  0  0  0
    1.9428   -0.0731   -1.0601 O   0  0  0  0  0  0  0  0  0  0  0  0
    1.4971   -1.9788    0.0180 N   0  0  0  0  0  0  0  0  0  0  0  0
    0.8714   -2.4466    0.6781 H   0  0  0  0  0  0  0  0  0  0  0  0
    2.6135   -2.7211   -0.5525 C   0  0  0  0  0  0  0  0  0  0  0  0
    3.5626   -2.2322   -0.3090 H   0  0  0  0  0  0  0  0  0  0  0  0
    2.6353   -3.7382   -0.1498 H   0  0  0  0  0  0  0  0  0  0  0  0
    2.5167   -2.7818   -1.6415 H   0  0  0  0  0  0  0  0  0  0  0  0
  1  2  1  0  0  0  0
  2  3  1  0  0  0  0
  2  4  1  0  0  0  0
  2  5  1  0  0  0  0
  5  6  2  0  0  0  0
  5  7  1  0  0  0  0
  7  8  1  0  0  0  0
  7  9  1  0  0  0  0
  9 10  1  0  0  0  0
  9 11  1  0  0  0  0
  9 18  1  0  0  0  0
 11 12  1  0  0  0  0
 11 13  1  0  0  0  0
 11 14  1  0  0  0  0
 14 15  2  0  0  0  0
 14 16  1  0  0  0  0
 16 17  1  0  0  0  0
 18 19  2  0  0  0  0
 18 20  1  0  0  0  0
 20 21  1  0  0  0  0
 20 22  1  0  0  0  0
 22 23  1  0  0  0  0
 22 24  1  0  0  0  0
 22 25  1  0  0  0  0
M  END
$$$$

  -OEChem-01062216063D

 25 24  0     1  0  0  0  0  0999 V2000
   -3.1955   -3.2809    0.9846 H   0  0  0  0  0  0  0  0  0  0  0  0
   -3.0891   -2.2475    0.6424 C   0  0  0  0  0  0  0  0  0  0  0  0
   -3.7546   -1.6120    1.2316 H   0  0  0  0  0  0  0  0  0  0  0  0
   -3.3807   -2.1942   -0.4093 H   0  0  0  0  0  0  0  0  0  0  0  0
   -1.6531   -1.7863    0.8068 C   0  0  0  0  0  0  0  0  0  0  0  0
   -0.8471   -2.5295    1.3415 O   0  0  0  0  0  0  0  0  0  0  0  0
   -1.3105   -0.5046    0.4167 N   0  0  0  0  0  0  0  0  0  0  0  0
   -2.0770    0.0410    0.0304 H   0  0  0  0  0  0  0  0  0  0  0  0
    0.0285    0.1278    0.3419 C   0  0  1  0  0  0  0  0  0  0  0  0
   -0.0625    1.0298   -0.2741 H   0  0  0  0  0  0  0  0  0  0  0  0
    0.4351    0.5328    1.7756 C   0  0  0  0  0  0  0  0  0  0  0  0
    0.3636   -0.3333    2.4394 H   0  0  0  0  0  0  0  0  0  0  0  0
    1.4791    0.8600    1.7789 H   0  0  0  0  0  0  0  0  0  0  0  0
   -0.3965    1.6746    2.3517 C   0  0  0  0  0  0  0  0  0  0  0  0
   -0.8830    2.5086    1.6042 O   0  0  0  0  0  0  0  0  0  0  0  0
   -0.5428    1.7061    3.6964 O   0  0  0  0  0  0  0  0  0  0  0  0
   -1.0708    2.4948    3.8915 H   0  0  0  0  0  0  0  0  0  0  0  0
    1.2065   -0.6577   -0.2974 C   0  0  0  0  0  0  0  0  0  0  0  0
    2.0881   -0.0109   -0.8477 O   0  0  0  0  0  0  0  0  0  0  0  0
    1.3271   -2.0329   -0.2788 N   0  0  0  0  0  0  0  0  0  0  0  0
    0.6641   -2.5313    0.3185 H   0  0  0  0  0  0  0  0  0  0  0  0
    2.4919   -2.7504   -0.7806 C   0  0  0  0  0  0  0  0  0  0  0  0
    3.3879   -2.4671   -0.2185 H   0  0  0  0  0  0  0  0  0  0  0  0
    2.3427   -3.8292   -0.6760 H   0  0  0  0  0  0  0  0  0  0  0  0
    2.6537   -2.5262   -1.8402 H   0  0  0  0  0  0  0  0  0  0  0  0
  1  2  1  0  0  0  0
  2  3  1  0  0  0  0
  2  4  1  0  0  0  0
  2  5  1  0  0  0  0
  5  6  2  0  0  0  0
  5  7  1  0  0  0  0
  7  8  1  0  0  0  0
  7  9  1  0  0  0  0
  9 10  1  0  0  0  0
  9 11  1  0  0  0  0
  9 18  1  0  0  0  0
 11 12  1  0  0  0  0
 11 13  1  0  0  0  0
 11 14  1  0  0  0  0
 14 15  2  0  0  0  0
 14 16  1  0  0  0  0
 16 17  1  0  0  0  0
 18 19  2  0  0  0  0
 18 20  1  0  0  0  0
 20 21  1  0  0  0  0
 20 22  1  0  0  0  0
 22 23  1  0  0  0  0
 22 24  1  0  0  0  0
 22 25  1  0  0  0  0
M  END
$$$$

  -OEChem-01062216063D

 25 24  0     1  0  0  0  0  0999 V2000
   -3.1686   -3.2855    1.1086 H   0  0  0  0  0  0  0  0  0  0  0  0
   -3.0838   -2.2494    0.7684 C   0  0  0  0  0  0  0  0  0  0  0  0
   -3.7037   -1.6173    1.4091 H   0  0  0  0  0  0  0  0  0  0  0  0
   -3.4500   -2.1864   -0.2592 H   0  0  0  0  0  0  0  0  0  0  0  0
   -1.6386   -1.7930    0.8342 C   0  0  0  0  0  0  0  0  0  0  0  0
   -0.7943   -2.5494    1.2840 O   0  0  0  0  0  0  0  0  0  0  0  0
   -1.3175   -0.5116    0.4260 N   0  0  0  0  0  0  0  0  0  0  0  0
   -2.1055    0.0464    0.1057 H   0  0  0  0  0  0  0  0  0  0  0  0
    0.0157    0.1279    0.3124 C   0  0  1  0  0  0  0  0  0  0  0  0
   -0.0940    1.0233   -0.3098 H   0  0  0  0  0  0  0  0  0  0  0  0
    0.4446    0.5468    1.7368 C   0  0  0  0  0  0  0  0  0  0  0  0
    0.3902   -0.3154    2.4075 H   0  0  0  0  0  0  0  0  0  0  0  0
    1.4859    0.8817    1.7228 H   0  0  0  0  0  0  0  0  0  0  0  0
   -0.3848    1.6872    2.3189 C   0  0  0  0  0  0  0  0  0  0  0  0
   -0.8900    2.5120    1.5735 O   0  0  0  0  0  0  0  0  0  0  0  0
   -0.5074    1.7289    3.6659 O   0  0  0  0  0  0  0  0  0  0  0  0
   -1.0318    2.5192    3.8645 H   0  0  0  0  0  0  0  0  0  0  0  0
    1.1845   -0.6531   -0.3510 C   0  0  0  0  0  0  0  0  0  0  0  0
    2.1512   -0.0094   -0.7386 O   0  0  0  0  0  0  0  0  0  0  0  0
    1.1743   -2.0141   -0.5874 N   0  0  0  0  0  0  0  0  0  0  0  0
    0.4848   -2.5417   -0.0494 H   0  0  0  0  0  0  0  0  0  0  0  0
    2.3147   -2.7362   -1.1378 C   0  0  0  0  0  0  0  0  0  0  0  0
    3.1909   -2.6208   -0.4913 H   0  0  0  0  0  0  0  0  0  0  0  0
    2.0816   -3.8021   -1.2194 H   0  0  0  0  0  0  0  0  0  0  0  0
    2.5612   -2.3600   -2.1360 H   0  0  0  0  0  0  0  0  0  0  0  0
  1  2  1  0  0  0  0
  2  3  1  0  0  0  0
  2  4  1  0  0  0  0
  2  5  1  0  0  0  0
  5  6  2  0  0  0  0
  5  7  1  0  0  0  0
  7  8  1  0  0  0  0
  7  9  1  0  0  0  0
  9 10  1  0  0  0  0
  9 11  1  0  0  0  0
  9 18  1  0  0  0  0
 11 12  1  0  0  0  0
 11 13  1  0  0  0  0
 11 14  1  0  0  0  0
 14 15  2  0  0  0  0
 14 16  1  0  0  0  0
 16 17  1  0  0  0  0
 18 19  2  0  0  0  0
 18 20  1  0  0  0  0
 20 21  1  0  0  0  0
 20 22  1  0  0  0  0
 22 23  1  0  0  0  0
 22 24  1  0  0  0  0
 22 25  1  0  0  0  0
M  END
$$$$

  -OEChem-01062216063D

 25 24  0     1  0  0  0  0  0999 V2000
   -3.1381   -3.2679    1.1533 H   0  0  0  0  0  0  0  0  0  0  0  0
   -3.0618   -2.2312    0.8126 C   0  0  0  0  0  0  0  0  0  0  0  0
   -3.6322   -1.5953    1.4940 H   0  0  0  0  0  0  0  0  0  0  0  0
   -3.4914   -2.1580   -0.1895 H   0  0  0  0  0  0  0  0  0  0  0  0
   -1.6095   -1.7931    0.7883 C   0  0  0  0  0  0  0  0  0  0  0  0
   -0.7423   -2.5787    1.1299 O   0  0  0  0  0  0  0  0  0  0  0  0
   -1.2990   -0.5049    0.3942 N   0  0  0  0  0  0  0  0  0  0  0  0
   -2.0980    0.0801    0.1608 H   0  0  0  0  0  0  0  0  0  0  0  0
    0.0316    0.1418    0.2966 C   0  0  1  0  0  0  0  0  0  0  0  0
   -0.0723    1.0419   -0.3192 H   0  0  0  0  0  0  0  0  0  0  0  0
    0.4368    0.5460    1.7336 C   0  0  0  0  0  0  0  0  0  0  0  0
    0.3782   -0.3255    2.3917 H   0  0  0  0  0  0  0  0  0  0  0  0
    1.4756    0.8883    1.7429 H   0  0  0  0  0  0  0  0  0  0  0  0
   -0.4090    1.6741    2.3157 C   0  0  0  0  0  0  0  0  0  0  0  0
   -0.9074    2.5041    1.5715 O   0  0  0  0  0  0  0  0  0  0  0  0
   -0.5606    1.6947    3.6603 O   0  0  0  0  0  0  0  0  0  0  0  0
   -1.0919    2.4801    3.8599 H   0  0  0  0  0  0  0  0  0  0  0  0
    1.2029   -0.6358   -0.3670 C   0  0  0  0  0  0  0  0  0  0  0  0
    2.2558   -0.0404   -0.5591 O   0  0  0  0  0  0  0  0  0  0  0  0
    1.0743   -1.9136   -0.8772 N   0  0  0  0  0  0  0  0  0  0  0  0
    0.3264   -2.4597   -0.4483 H   0  0  0  0  0  0  0  0  0  0  0  0
    2.1940   -2.6434   -1.4597 C   0  0  0  0  0  0  0  0  0  0  0  0
    2.9905   -2.7781   -0.7205 H   0  0  0  0  0  0  0  0  0  0  0  0
    1.8643   -3.6298   -1.7997 H   0  0  0  0  0  0  0  0  0  0  0  0
    2.5999   -2.1013   -2.3203 H   0  0  0  0  0  0  0  0  0  0  0  0
  1  2  1  0  0  0  0
  2  3  1  0  0  0  0
  2  4  1  0  0  0  0
  2  5  1  0  0  0  0
  5  6  2  0  0  0  0
  5  7  1  0  0  0  0
  7  8  1  0  0  0  0
  7  9  1  0  0  0  0
  9 10  1  0  0  0  0
  9 11  1  0  0  0  0
  9 18  1  0  0  0  0
 11 12  1  0  0  0  0
 11 13  1  0  0  0  0
 11 14  1  0  0  0  0
 14 15  2  0  0  0  0
 14 16  1  0  0  0  0
 16 17  1  0  0  0  0
 18 19  2  0  0  0  0
 18 20  1  0  0  0  0
 20 21  1  0  0  0  0
 20 22  1  0  0  0  0
 22 23  1  0  0  0  0
 22 24  1  0  0  0  0
 22 25  1  0  0  0  0
M  END
$$$$

  -OEChem-01062216063D

 25 24  0     1  0  0  0  0  0999 V2000
   -3.0687   -3.2713    1.1715 H   0  0  0  0  0  0  0  0  0  0  0  0
   -3.0103   -2.2307    0.8395 C   0  0  0  0  0  0  0  0  0  0  0  0
   -3.5406   -1.6029    1.5598 H   0  0  0  0  0  0  0  0  0  0  0  0
   -3.4952   -2.1447   -0.1358 H   0  0  0  0  0  0  0  0  0  0  0  0
   -1.5610   -1.7936    0.7397 C   0  0  0  0  0  0  0  0  0  0  0  0
   -0.6747   -2.5940    0.9814 O   0  0  0  0  0  0  0  0  0  0  0  0
   -1.2696   -0.4957    0.3636 N   0  0  0  0  0  0  0  0  0  0  0  0
   -2.0767    0.1042    0.2084 H   0  0  0  0  0  0  0  0  0  0  0  0
    0.0570    0.1615    0.2928 C   0  0  1  0  0  0  0  0  0  0  0  0
   -0.0376    1.0655   -0.3184 H   0  0  0  0  0  0  0  0  0  0  0  0
    0.4312    0.5554    1.7423 C   0  0  0  0  0  0  0  0  0  0  0  0
    0.3691   -0.3232    2.3907 H   0  0  0  0  0  0  0  0  0  0  0  0
    1.4653    0.9094    1.7779 H   0  0  0  0  0  0  0  0  0  0  0  0
   -0.4361    1.6708    2.3167 C   0  0  0  0  0  0  0  0  0  0  0  0
   -0.9265    2.5027    1.5694 O   0  0  0  0  0  0  0  0  0  0  0  0
   -0.6210    1.6745    3.6571 O   0  0  0  0  0  0  0  0  0  0  0  0
   -1.1639    2.4529    3.8529 H   0  0  0  0  0  0  0  0  0  0  0  0
    1.2266   -0.6219   -0.3679 C   0  0  0  0  0  0  0  0  0  0  0  0
    2.3478   -0.1282   -0.3635 O   0  0  0  0  0  0  0  0  0  0  0  0
    1.0101   -1.7467   -1.1420 N   0  0  0  0  0  0  0  0  0  0  0  0
    0.1850   -2.2771   -0.8667 H   0  0  0  0  0  0  0  0  0  0  0  0
    2.1017   -2.4852   -1.7655 C   0  0  0  0  0  0  0  0  0  0  0  0
    2.7912   -2.8650   -1.0043 H   0  0  0  0  0  0  0  0  0  0  0  0
    1.7070   -3.3337   -2.3324 H   0  0  0  0  0  0  0  0  0  0  0  0
    2.6575   -1.8407   -2.4546 H   0  0  0  0  0  0  0  0  0  0  0  0
  1  2  1  0  0  0  0
  2  3  1  0  0  0  0
  2  4  1  0  0  0  0
  2  5  1  0  0  0  0
  5  6  2  0  0  0  0
  5  7  1  0  0  0  0
  7  8  1  0  0  0  0
  7  9  1  0  0  0  0
  9 10  1  0  0  0  0
  9 11  1  0  0  0  0
  9 18  1  0  0  0  0
 11 12  1  0  0  0  0
 11 13  1  0  0  0  0
 11 14  1  0  0  0  0
 14 15  2  0  0  0  0
 14 16  1  0  0  0  0
 16 17  1  0  0  0  0
 18 19  2  0  0  0  0
 18 20  1  0  0  0  0
 20 21  1  0  0  0  0
 20 22  1  0  0  0  0
 22 23  1  0  0  0  0
 22 24  1  0  0  0  0
 22 25  1  0  0  0  0
M  END
$$$$

  -OEChem-01062216063D

 25 24  0     1  0  0  0  0  0999 V2000
   -2.9599   -3.3129    1.1403 H   0  0  0  0  0  0  0  0  0  0  0  0
   -2.9313   -2.2658    0.8250 C   0  0  0  0  0  0  0  0  0  0  0  0
   -3.4611   -1.6623    1.5661 H   0  0  0  0  0  0  0  0  0  0  0  0
   -3.4370   -2.1747   -0.1393 H   0  0  0  0  0  0  0  0  0  0  0  0
   -1.4942   -1.7948    0.7053 C   0  0  0  0  0  0  0  0  0  0  0  0
   -0.5866   -2.5793    0.9139 O   0  0  0  0  0  0  0  0  0  0  0  0
   -1.2373   -0.4840    0.3472 N   0  0  0  0  0  0  0  0  0  0  0  0
   -2.0561    0.1093    0.2351 H   0  0  0  0  0  0  0  0  0  0  0  0
    0.0802    0.1911    0.2996 C   0  0  1  0  0  0  0  0  0  0  0  0
   -0.0123    1.0980   -0.3073 H   0  0  0  0  0  0  0  0  0  0  0  0
    0.4336    0.5814    1.7567 C   0  0  0  0  0  0  0  0  0  0  0  0
    0.3772   -0.3027    2.3981 H   0  0  0  0  0  0  0  0  0  0  0  0
    1.4615    0.9508    1.8075 H   0  0  0  0  0  0  0  0  0  0  0  0
   -0.4543    1.6815    2.3283 C   0  0  0  0  0  0  0  0  0  0  0  0
   -0.9469    2.5107    1.5792 O   0  0  0  0  0  0  0  0  0  0  0  0
   -0.6524    1.6778    3.6671 O   0  0  0  0  0  0  0  0  0  0  0  0
   -1.2047    2.4498    3.8617 H   0  0  0  0  0  0  0  0  0  0  0  0
    1.2409   -0.5997   -0.3671 C   0  0  0  0  0  0  0  0  0  0  0  0
    2.4050   -0.2834   -0.1531 O   0  0  0  0  0  0  0  0  0  0  0  0
    0.9832   -1.5079   -1.3781 N   0  0  0  0  0  0  0  0  0  0  0  0
    0.0506   -1.9092   -1.3539 H   0  0  0  0  0  0  0  0  0  0  0  0
    2.0392   -2.2881   -2.0123 C   0  0  0  0  0  0  0  0  0  0  0  0
    2.5501   -2.9133   -1.2724 H   0  0  0  0  0  0  0  0  0  0  0  0
    1.6164   -2.9377   -2.7845 H   0  0  0  0  0  0  0  0  0  0  0  0
    2.7747   -1.6277   -2.4837 H   0  0  0  0  0  0  0  0  0  0  0  0
  1  2  1  0  0  0  0
  2  3  1  0  0  0  0
  2  4  1  0  0  0  0
  2  5  1  0  0  0  0
  5  6  2  0  0  0  0
  5  7  1  0  0  0  0
  7  8  1  0  0  0  0
  7  9  1  0  0  0  0
  9 10  1  0  0  0  0
  9 11  1  0  0  0  0
  9 18  1  0  0  0  0
 11 12  1  0  0  0  0
 11 13  1  0  0  0  0
 11 14  1  0  0  0  0
 14 15  2  0  0  0  0
 14 16  1  0  0  0  0
 16 17  1  0  0  0  0
 18 19  2  0  0  0  0
 18 20  1  0  0  0  0
 20 21  1  0  0  0  0
 20 22  1  0  0  0  0
 22 23  1  0  0  0  0
 22 24  1  0  0  0  0
 22 25  1  0  0  0  0
M  END
$$$$

  -OEChem-01062216063D

 25 24  0     1  0  0  0  0  0999 V2000
   -2.8845   -3.3490    1.1060 H   0  0  0  0  0  0  0  0  0  0  0  0
   -2.8715   -2.3017    0.7908 C   0  0  0  0  0  0  0  0  0  0  0  0
   -3.4256   -1.7089    1.5226 H   0  0  0  0  0  0  0  0  0  0  0  0
   -3.3626   -2.2215   -0.1820 H   0  0  0  0  0  0  0  0  0  0  0  0
   -1.4418   -1.8030    0.6938 C   0  0  0  0  0  0  0  0  0  0  0  0
   -0.5238   -2.5711    0.9161 O   0  0  0  0  0  0  0  0  0  0  0  0
   -1.2071   -0.4842    0.3468 N   0  0  0  0  0  0  0  0  0  0  0  0
   -2.0338    0.0997    0.2453 H   0  0  0  0  0  0  0  0  0  0  0  0
    0.1028    0.2041    0.3204 C   0  0  1  0  0  0  0  0  0  0  0  0
    0.0137    1.1097   -0.2885 H   0  0  0  0  0  0  0  0  0  0  0  0
    0.4397    0.6043    1.7784 C   0  0  0  0  0  0  0  0  0  0  0  0
    0.3870   -0.2776    2.4233 H   0  0  0  0  0  0  0  0  0  0  0  0
    1.4637    0.9837    1.8343 H   0  0  0  0  0  0  0  0  0  0  0  0
   -0.4641    1.6985    2.3356 C   0  0  0  0  0  0  0  0  0  0  0  0
   -0.9569    2.5182    1.5760 O   0  0  0  0  0  0  0  0  0  0  0  0
   -0.6739    1.7031    3.6723 O   0  0  0  0  0  0  0  0  0  0  0  0
   -1.2348    2.4714    3.8564 H   0  0  0  0  0  0  0  0  0  0  0  0
    1.2550   -0.5981   -0.3447 C   0  0  0  0  0  0  0  0  0  0  0  0
    2.4099   -0.5011    0.0526 O   0  0  0  0  0  0  0  0  0  0  0  0
    1.0233   -1.2497   -1.5428 N   0  0  0  0  0  0  0  0  0  0  0  0
    0.0499   -1.4358   -1.7598 H   0  0  0  0  0  0  0  0  0  0  0  0
    2.0449   -2.0418   -2.2170 C   0  0  0  0  0  0  0  0  0  0  0  0
    2.3762   -2.8645   -1.5744 H   0  0  0  0  0  0  0  0  0  0  0  0
    1.6457   -2.4635   -3.1442 H   0  0  0  0  0  0  0  0  0  0  0  0
    2.9109   -1.4197   -2.4671 H   0  0  0  0  0  0  0  0  0  0  0  0
  1  2  1  0  0  0  0
  2  3  1  0  0  0  0
  2  4  1  0  0  0  0
  2  5  1  0  0  0  0
  5  6  2  0  0  0  0
  5  7  1  0  0  0  0
  7  8  1  0  0  0  0
  7  9  1  0  0  0  0
  9 10  1  0  0  0  0
  9 11  1  0  0  0  0
  9 18  1  0  0  0  0
 11 12  1  0  0  0  0
 11 13  1  0  0  0  0
 11 14  1  0  0  0  0
 14 15  2  0  0  0  0
 14 16  1  0  0  0  0
 16 17  1  0  0  0  0
 18 19  2  0  0  0  0
 18 20  1  0  0  0  0
 20 21  1  0  0  0  0
 20 22  1  0  0  0  0
 22 23  1  0  0  0  0
 22 24  1  0  0  0  0
 22 25  1  0  0  0  0
M  END
$$$$

  -OEChem-01062216063D

 25 24  0     1  0  0  0  0  0999 V2000
   -2.8634   -3.3585    1.0911 H   0  0  0  0  0  0  0  0  0  0  0  0
   -2.8528   -2.3090    0.7828 C   0  0  0  0  0  0  0  0  0  0  0  0
   -3.4081   -1.7223    1.5184 H   0  0  0  0  0  0  0  0  0  0  0  0
   -3.3438   -2.2233   -0.1893 H   0  0  0  0  0  0  0  0  0  0  0  0
   -1.4243   -1.8061    0.6897 C   0  0  0  0  0  0  0  0  0  0  0  0
   -0.5068   -2.5700    0.9265 O   0  0  0  0  0  0  0  0  0  0  0  0
   -1.1944   -0.4867    0.3408 N   0  0  0  0  0  0  0  0  0  0  0  0
   -2.0236    0.0928    0.2366 H   0  0  0  0  0  0  0  0  0  0  0  0
    0.1121    0.2062    0.3227 C   0  0  1  0  0  0  0  0  0  0  0  0
    0.0273    1.1124   -0.2857 H   0  0  0  0  0  0  0  0  0  0  0  0
    0.4408    0.6075    1.7817 C   0  0  0  0  0  0  0  0  0  0  0  0
    0.3883   -0.2752    2.4261 H   0  0  0  0  0  0  0  0  0  0  0  0
    1.4641    0.9886    1.8396 H   0  0  0  0  0  0  0  0  0  0  0  0
   -0.4688    1.6986    2.3357 C   0  0  0  0  0  0  0  0  0  0  0  0
   -0.9606    2.5168    1.5735 O   0  0  0  0  0  0  0  0  0  0  0  0
   -0.6854    1.7017    3.6714 O   0  0  0  0  0  0  0  0  0  0  0  0
   -1.2526    2.4658    3.8536 H   0  0  0  0  0  0  0  0  0  0  0  0
    1.2624   -0.6047   -0.3335 C   0  0  0  0  0  0  0  0  0  0  0  0
    2.3595   -0.7171    0.2005 O   0  0  0  0  0  0  0  0  0  0  0  0
    1.1331   -0.9908   -1.6558 N   0  0  0  0  0  0  0  0  0  0  0  0
    0.1933   -0.9763   -2.0381 H   0  0  0  0  0  0  0  0  0  0  0  0
    2.1576   -1.7562   -2.3561 C   0  0  0  0  0  0  0  0  0  0  0  0
    2.3320   -2.7124   -1.8512 H   0  0  0  0  0  0  0  0  0  0  0  0
    1.8427   -1.9584   -3.3841 H   0  0  0  0  0  0  0  0  0  0  0  0
    3.0994   -1.1982   -2.3883 H   0  0  0  0  0  0  0  0  0  0  0  0
  1  2  1  0  0  0  0
  2  3  1  0  0  0  0
  2  4  1  0  0  0  0
  2  5  1  0  0  0  0
  5  6  2  0  0  0  0
  5  7  1  0  0  0  0
  7  8  1  0  0  0  0
  7  9  1  0  0  0  0
  9 10  1  0  0  0  0
  9 11  1  0  0  0  0
  9 18  1  0  0  0  0
 11 12  1  0  0  0  0
 11 13  1  0  0  0  0
 11 14  1  0  0  0  0
 14 15  2  0  0  0  0
 14 16  1  0  0  0  0
 16 17  1  0  0  0  0
 18 19  2  0  0  0  0
 18 20  1  0  0  0  0
 20 21  1  0  0  0  0
 20 22  1  0  0  0  0
 22 23  1  0  0  0  0
 22 24  1  0  0  0  0
 22 25  1  0  0  0  0
M  END
$$$$

  -OEChem-01062216063D

 25 24  0     1  0  0  0  0  0999 V2000
   -2.8814   -3.3613    1.0918 H   0  0  0  0  0  0  0  0  0  0  0  0
   -2.8648   -2.3135    0.7782 C   0  0  0  0  0  0  0  0  0  0  0  0
   -3.4295   -1.7220    1.5026 H   0  0  0  0  0  0  0  0  0  0  0  0
   -3.3416   -2.2322   -0.2014 H   0  0  0  0  0  0  0  0  0  0  0  0
   -1.4340   -1.8141    0.7020 C   0  0  0  0  0  0  0  0  0  0  0  0
   -0.5235   -2.5794    0.9578 O   0  0  0  0  0  0  0  0  0  0  0  0
   -1.1985   -0.4976    0.3458 N   0  0  0  0  0  0  0  0  0  0  0  0
   -2.0266    0.0799    0.2247 H   0  0  0  0  0  0  0  0  0  0  0  0
    0.1083    0.1929    0.3228 C   0  0  1  0  0  0  0  0  0  0  0  0
    0.0227    1.0988   -0.2861 H   0  0  0  0  0  0  0  0  0  0  0  0
    0.4442    0.6005    1.7777 C   0  0  0  0  0  0  0  0  0  0  0  0
    0.3908   -0.2790    2.4263 H   0  0  0  0  0  0  0  0  0  0  0  0
    1.4704    0.9752    1.8272 H   0  0  0  0  0  0  0  0  0  0  0  0
   -0.4592    1.6961    2.3325 C   0  0  0  0  0  0  0  0  0  0  0  0
   -0.9526    2.5123    1.5691 O   0  0  0  0  0  0  0  0  0  0  0  0
   -0.6658    1.7081    3.6697 O   0  0  0  0  0  0  0  0  0  0  0  0
   -1.2306    2.4739    3.8517 H   0  0  0  0  0  0  0  0  0  0  0  0
    1.2582   -0.6224   -0.3289 C   0  0  0  0  0  0  0  0  0  0  0  0
    2.2661   -0.9322    0.2951 O   0  0  0  0  0  0  0  0  0  0  0  0
    1.2835   -0.7468   -1.7070 N   0  0  0  0  0  0  0  0  0  0  0  0
    0.4214   -0.5410   -2.2008 H   0  0  0  0  0  0  0  0  0  0  0  0
    2.3475   -1.4457   -2.4187 C   0  0  0  0  0  0  0  0  0  0  0  0
    2.4089   -2.4879   -2.0876 H   0  0  0  0  0  0  0  0  0  0  0  0
    2.1543   -1.4343   -3.4956 H   0  0  0  0  0  0  0  0  0  0  0  0
    3.3128   -0.9613   -2.2370 H   0  0  0  0  0  0  0  0  0  0  0  0
  1  2  1  0  0  0  0
  2  3  1  0  0  0  0
  2  4  1  0  0  0  0
  2  5  1  0  0  0  0
  5  6  2  0  0  0  0
  5  7  1  0  0  0  0
  7  8  1  0  0  0  0
  7  9  1  0  0  0  0
  9 10  1  0  0  0  0
  9 11  1  0  0  0  0
  9 18  1  0  0  0  0
 11 12  1  0  0  0  0
 11 13  1  0  0  0  0
 11 14  1  0  0  0  0
 14 15  2  0  0  0  0
 14 16  1  0  0  0  0
 16 17  1  0  0  0  0
 18 19  2  0  0  0  0
 18 20  1  0  0  0  0
 20 21  1  0  0  0  0
 20 22  1  0  0  0  0
 22 23  1  0  0  0  0
 22 24  1  0  0  0  0
 22 25  1  0  0  0  0
M  END
$$$$

  -OEChem-01062216063D

 25 24  0     1  0  0  0  0  0999 V2000
   -2.9182   -3.3583    1.1019 H   0  0  0  0  0  0  0  0  0  0  0  0
   -2.8903   -2.3133    0.7800 C   0  0  0  0  0  0  0  0  0  0  0  0
   -3.4592   -1.7117    1.4928 H   0  0  0  0  0  0  0  0  0  0  0  0
   -3.3541   -2.2374   -0.2064 H   0  0  0  0  0  0  0  0  0  0  0  0
   -1.4552   -1.8247    0.7173 C   0  0  0  0  0  0  0  0  0  0  0  0
   -0.5561   -2.5944    0.9960 O   0  0  0  0  0  0  0  0  0  0  0  0
   -1.2090   -0.5127    0.3521 N   0  0  0  0  0  0  0  0  0  0  0  0
   -2.0343    0.0631    0.2083 H   0  0  0  0  0  0  0  0  0  0  0  0
    0.0997    0.1733    0.3159 C   0  0  1  0  0  0  0  0  0  0  0  0
    0.0065    1.0785   -0.2923 H   0  0  0  0  0  0  0  0  0  0  0  0
    0.4511    0.5857    1.7651 C   0  0  0  0  0  0  0  0  0  0  0  0
    0.3978   -0.2909    2.4180 H   0  0  0  0  0  0  0  0  0  0  0  0
    1.4810    0.9518    1.8019 H   0  0  0  0  0  0  0  0  0  0  0  0
   -0.4425    1.6871    2.3244 C   0  0  0  0  0  0  0  0  0  0  0  0
   -0.9400    2.5020    1.5620 O   0  0  0  0  0  0  0  0  0  0  0  0
   -0.6354    1.7066    3.6635 O   0  0  0  0  0  0  0  0  0  0  0  0
   -1.2000    2.4721    3.8472 H   0  0  0  0  0  0  0  0  0  0  0  0
    1.2539   -0.6375   -0.3350 C   0  0  0  0  0  0  0  0  0  0  0  0
    2.1518   -1.1354    0.3330 O   0  0  0  0  0  0  0  0  0  0  0  0
    1.4646   -0.5126   -1.6976 N   0  0  0  0  0  0  0  0  0  0  0  0
    0.7127   -0.1119   -2.2486 H   0  0  0  0  0  0  0  0  0  0  0  0
    2.5824   -1.1431   -2.3909 C   0  0  0  0  0  0  0  0  0  0  0  0
    2.5556   -2.2290   -2.2509 H   0  0  0  0  0  0  0  0  0  0  0  0
    2.5324   -0.9302   -3.4630 H   0  0  0  0  0  0  0  0  0  0  0  0
    3.5351   -0.7625   -2.0077 H   0  0  0  0  0  0  0  0  0  0  0  0
  1  2  1  0  0  0  0
  2  3  1  0  0  0  0
  2  4  1  0  0  0  0
  2  5  1  0  0  0  0
  5  6  2  0  0  0  0
  5  7  1  0  0  0  0
  7  8  1  0  0  0  0
  7  9  1  0  0  0  0
  9 10  1  0  0  0  0
  9 11  1  0  0  0  0
  9 18  1  0  0  0  0
 11 12  1  0  0  0  0
 11 13  1  0  0  0  0
 11 14  1  0  0  0  0
 14 15  2  0  0  0  0
 14 16  1  0  0  0  0
 16 17  1  0  0  0  0
 18 19  2  0  0  0  0
 18 20  1  0  0  0  0
 20 21  1  0  0  0  0
 20 22  1  0  0  0  0
 22 23  1  0  0  0  0
 22 24  1  0  0  0  0
 22 25  1  0  0  0  0
M  END
$$$$

  -OEChem-01062216063D

 25 24  0     1  0  0  0  0  0999 V2000
   -2.9628   -3.3584    1.1008 H   0  0  0  0  0  0  0  0  0  0  0  0
   -2.9194   -2.3182    0.7657 C   0  0  0  0  0  0  0  0  0  0  0  0
   -3.5112   -1.7045    1.4489 H   0  0  0  0  0  0  0  0  0  0  0  0
   -3.3473   -2.2540   -0.2375 H   0  0  0  0  0  0  0  0  0  0  0  0
   -1.4809   -1.8354    0.7475 C   0  0  0  0  0  0  0  0  0  0  0  0
   -0.6000   -2.6009    1.0858 O   0  0  0  0  0  0  0  0  0  0  0  0
   -1.2206   -0.5301    0.3682 N   0  0  0  0  0  0  0  0  0  0  0  0
   -2.0413    0.0359    0.1709 H   0  0  0  0  0  0  0  0  0  0  0  0
    0.0896    0.1525    0.3084 C   0  0  1  0  0  0  0  0  0  0  0  0
   -0.0181    1.0552   -0.3003 H   0  0  0  0  0  0  0  0  0  0  0  0
    0.4650    0.5705    1.7492 C   0  0  0  0  0  0  0  0  0  0  0  0
    0.4165   -0.3029    2.4071 H   0  0  0  0  0  0  0  0  0  0  0  0
    1.4978    0.9296    1.7686 H   0  0  0  0  0  0  0  0  0  0  0  0
   -0.4166    1.6774    2.3173 C   0  0  0  0  0  0  0  0  0  0  0  0
   -0.9233    2.4898    1.5581 O   0  0  0  0  0  0  0  0  0  0  0  0
   -0.5838    1.7081    3.6598 O   0  0  0  0  0  0  0  0  0  0  0  0
   -1.1463    2.4740    3.8481 H   0  0  0  0  0  0  0  0  0  0  0  0
    1.2500   -0.6483   -0.3450 C   0  0  0  0  0  0  0  0  0  0  0  0
    2.0252   -1.3254    0.3171 O   0  0  0  0  0  0  0  0  0  0  0  0
    1.6541   -0.3014   -1.6237 N   0  0  0  0  0  0  0  0  0  0  0  0
    1.0326    0.2872   -2.1685 H   0  0  0  0  0  0  0  0  0  0  0  0
    2.8278   -0.8730   -2.2752 C   0  0  0  0  0  0  0  0  0  0  0  0
    2.7423   -1.9635   -2.3297 H   0  0  0  0  0  0  0  0  0  0  0  0
    2.9240   -0.4822   -3.2925 H   0  0  0  0  0  0  0  0  0  0  0  0
    3.7369   -0.6189   -1.7202 H   0  0  0  0  0  0  0  0  0  0  0  0
  1  2  1  0  0  0  0
  2  3  1  0  0  0  0
  2  4  1  0  0  0  0
  2  5  1  0  0  0  0
  5  6  2  0  0  0  0
  5  7  1  0  0  0  0
  7  8  1  0  0  0  0
  7  9  1  0  0  0  0
  9 10  1  0  0  0  0
  9 11  1  0  0  0  0
  9 18  1  0  0  0  0
 11 12  1  0  0  0  0
 11 13  1  0  0  0  0
 11 14  1  0  0  0  0
 14 15  2  0  0  0  0
 14 16  1  0  0  0  0
 16 17  1  0  0  0  0
 18 19  2  0  0  0  0
 18 20  1  0  0  0  0
 20 21  1  0  0  0  0
 20 22  1  0  0  0  0
 22 23  1  0  0  0  0
 22 24  1  0  0  0  0
 22 25  1  0  0  0  0
M  END
$$$$

  -OEChem-01062216063D

 25 24  0     1  0  0  0  0  0999 V2000
   -2.9602   -3.4105    1.0046 H   0  0  0  0  0  0  0  0  0  0  0  0
   -2.9141   -2.3708    0.6678 C   0  0  0  0  0  0  0  0  0  0  0  0
   -3.6162   -1.7780    1.2588 H   0  0  0  0  0  0  0  0  0  0  0  0
   -3.2059   -2.3305   -0.3841 H   0  0  0  0  0  0  0  0  0  0  0  0
   -1.5069   -1.8285    0.8382 C   0  0  0  0  0  0  0  0  0  0  0  0
   -0.6796   -2.5178    1.4014 O   0  0  0  0  0  0  0  0  0  0  0  0
   -1.2422   -0.5315    0.4329 N   0  0  0  0  0  0  0  0  0  0  0  0
   -2.0395   -0.0347    0.0463 H   0  0  0  0  0  0  0  0  0  0  0  0
    0.0703    0.1437    0.3287 C   0  0  1  0  0  0  0  0  0  0  0  0
   -0.0624    1.0390   -0.2857 H   0  0  0  0  0  0  0  0  0  0  0  0
    0.4984    0.5784    1.7484 C   0  0  0  0  0  0  0  0  0  0  0  0
    0.4644   -0.2847    2.4207 H   0  0  0  0  0  0  0  0  0  0  0  0
    1.5342    0.9280    1.7282 H   0  0  0  0  0  0  0  0  0  0  0  0
   -0.3563    1.6993    2.3304 C   0  0  0  0  0  0  0  0  0  0  0  0
   -0.8835    2.5040    1.5766 O   0  0  0  0  0  0  0  0  0  0  0  0
   -0.4667    1.7588    3.6777 O   0  0  0  0  0  0  0  0  0  0  0  0
   -1.0249    2.5260    3.8725 H   0  0  0  0  0  0  0  0  0  0  0  0
    1.2271   -0.6494   -0.3404 C   0  0  0  0  0  0  0  0  0  0  0  0
    1.8180   -1.5631    0.2147 O   0  0  0  0  0  0  0  0  0  0  0  0
    1.8141   -0.1231   -1.4798 N   0  0  0  0  0  0  0  0  0  0  0  0
    1.3813    0.6914   -1.9029 H   0  0  0  0  0  0  0  0  0  0  0  0
    3.0184   -0.6744   -2.0921 C   0  0  0  0  0  0  0  0  0  0  0  0
    2.8627   -1.7226   -2.3684 H   0  0  0  0  0  0  0  0  0  0  0  0
    3.2746   -0.1139   -2.9961 H   0  0  0  0  0  0  0  0  0  0  0  0
    3.8630   -0.6152   -1.3976 H   0  0  0  0  0  0  0  0  0  0  0  0
  1  2  1  0  0  0  0
  2  3  1  0  0  0  0
  2  4  1  0  0  0  0
  2  5  1  0  0  0  0
  5  6  2  0  0  0  0
  5  7  1  0  0  0  0
  7  8  1  0  0  0  0
  7  9  1  0  0  0  0
  9 10  1  0  0  0  0
  9 11  1  0  0  0  0
  9 18  1  0  0  0  0
 11 12  1  0  0  0  0
 11 13  1  0  0  0  0
 11 14  1  0  0  0  0
 14 15  2  0  0  0  0
 14 16  1  0  0  0  0
 16 17  1  0  0  0  0
 18 19  2  0  0  0  0
 18 20  1  0  0  0  0
 20 21  1  0  0  0  0
 20 22  1  0  0  0  0
 22 23  1  0  0  0  0
 22 24  1  0  0  0  0
 22 25  1  0  0  0  0
M  END
$$$$

  -OEChem-01062216063D

 25 24  0     1  0  0  0  0  0999 V2000
   -2.7568   -3.5056    0.8889 H   0  0  0  0  0  0  0  0  0  0  0  0
   -2.7258   -2.4973    0.4667 C   0  0  0  0  0  0  0  0  0  0  0  0
   -3.6228   -1.9564    0.7772 H   0  0  0  0  0  0  0  0  0  0  0  0
   -2.7106   -2.5750   -0.6229 H   0  0  0  0  0  0  0  0  0  0  0  0
   -1.4857   -1.7692    0.9501 C   0  0  0  0  0  0  0  0  0  0  0  0
   -0.8020   -2.2790    1.8211 O   0  0  0  0  0  0  0  0  0  0  0  0
   -1.2643   -0.4664    0.5344 N   0  0  0  0  0  0  0  0  0  0  0  0
   -1.9720   -0.1232   -0.1078 H   0  0  0  0  0  0  0  0  0  0  0  0
    0.0581    0.1902    0.4286 C   0  0  1  0  0  0  0  0  0  0  0  0
   -0.0746    1.0741   -0.2023 H   0  0  0  0  0  0  0  0  0  0  0  0
    0.5132    0.6528    1.8312 C   0  0  0  0  0  0  0  0  0  0  0  0
    0.4777   -0.1876    2.5301 H   0  0  0  0  0  0  0  0  0  0  0  0
    1.5523    0.9887    1.7881 H   0  0  0  0  0  0  0  0  0  0  0  0
   -0.3159    1.8021    2.3958 C   0  0  0  0  0  0  0  0  0  0  0  0
   -0.8404    2.5968    1.6297 O   0  0  0  0  0  0  0  0  0  0  0  0
   -0.3960    1.9028    3.7427 O   0  0  0  0  0  0  0  0  0  0  0  0
   -0.9546    2.6728    3.9255 H   0  0  0  0  0  0  0  0  0  0  0  0
    1.2028   -0.6184   -0.2438 C   0  0  0  0  0  0  0  0  0  0  0  0
    1.3437   -1.8256   -0.1264 O   0  0  0  0  0  0  0  0  0  0  0  0
    2.0065    0.0251   -1.1706 N   0  0  0  0  0  0  0  0  0  0  0  0
    1.8887    1.0271   -1.2847 H   0  0  0  0  0  0  0  0  0  0  0  0
    3.0559   -0.6480   -1.9289 C   0  0  0  0  0  0  0  0  0  0  0  0
    2.6312   -1.4491   -2.5432 H   0  0  0  0  0  0  0  0  0  0  0  0
    3.5607    0.0626   -2.5903 H   0  0  0  0  0  0  0  0  0  0  0  0
    3.8011   -1.0804   -1.2527 H   0  0  0  0  0  0  0  0  0  0  0  0
  1  2  1  0  0  0  0
  2  3  1  0  0  0  0
  2  4  1  0  0  0  0
  2  5  1  0  0  0  0
  5  6  2  0  0  0  0
  5  7  1  0  0  0  0
  7  8  1  0  0  0  0
  7  9  1  0  0  0  0
  9 10  1  0  0  0  0
  9 11  1  0  0  0  0
  9 18  1  0  0  0  0
 11 12  1  0  0  0  0
 11 13  1  0  0  0  0
 11 14  1  0  0  0  0
 14 15  2  0  0  0  0
 14 16  1  0  0  0  0
 16 17  1  0  0  0  0
 18 19  2  0  0  0  0
 18 20  1  0  0  0  0
 20 21  1  0  0  0  0
 20 22  1  0  0  0  0
 22 23  1  0  0  0  0
 22 24  1  0  0  0  0
 22 25  1  0  0  0  0
M  END
$$$$

  -OEChem-01062216063D

 25 24  0     1  0  0  0  0  0999 V2000
   -2.7416   -3.5087    0.9117 H   0  0  0  0  0  0  0  0  0  0  0  0
   -2.7097   -2.5085    0.4707 C   0  0  0  0  0  0  0  0  0  0  0  0
   -3.6135   -1.9664    0.7582 H   0  0  0  0  0  0  0  0  0  0  0  0
   -2.6781   -2.6072   -0.6170 H   0  0  0  0  0  0  0  0  0  0  0  0
   -1.4794   -1.7655    0.9563 C   0  0  0  0  0  0  0  0  0  0  0  0
   -0.7747   -2.2729    1.8140 O   0  0  0  0  0  0  0  0  0  0  0  0
   -1.2637   -0.4622    0.5385 N   0  0  0  0  0  0  0  0  0  0  0  0
   -1.9544   -0.1310   -0.1281 H   0  0  0  0  0  0  0  0  0  0  0  0
    0.0661    0.1807    0.4497 C   0  0  1  0  0  0  0  0  0  0  0  0
   -0.0478    1.0580   -0.1946 H   0  0  0  0  0  0  0  0  0  0  0  0
    0.5023    0.6551    1.8555 C   0  0  0  0  0  0  0  0  0  0  0  0
    0.4447   -0.1757    2.5640 H   0  0  0  0  0  0  0  0  0  0  0  0
    1.5451    0.9802    1.8296 H   0  0  0  0  0  0  0  0  0  0  0  0
   -0.3251    1.8188    2.3929 C   0  0  0  0  0  0  0  0  0  0  0  0
   -0.8286    2.6096    1.6097 O   0  0  0  0  0  0  0  0  0  0  0  0
   -0.4237    1.9372    3.7370 O   0  0  0  0  0  0  0  0  0  0  0  0
   -0.9768    2.7155    3.9014 H   0  0  0  0  0  0  0  0  0  0  0  0
    1.2104   -0.6419   -0.2069 C   0  0  0  0  0  0  0  0  0  0  0  0
    1.1216   -1.8379   -0.4467 O   0  0  0  0  0  0  0  0  0  0  0  0
    2.2136    0.0503   -0.8656 N   0  0  0  0  0  0  0  0  0  0  0  0
    2.2568    1.0563   -0.7351 H   0  0  0  0  0  0  0  0  0  0  0  0
    3.2391   -0.5962   -1.6781 C   0  0  0  0  0  0  0  0  0  0  0  0
    2.7857   -1.0991   -2.5388 H   0  0  0  0  0  0  0  0  0  0  0  0
    3.9533    0.1457   -2.0479 H   0  0  0  0  0  0  0  0  0  0  0  0
    3.7866   -1.3369   -1.0856 H   0  0  0  0  0  0  0  0  0  0  0  0
  1  2  1  0  0  0  0
  2  3  1  0  0  0  0
  2  4  1  0  0  0  0
  2  5  1  0  0  0  0
  5  6  2  0  0  0  0
  5  7  1  0  0  0  0
  7  8  1  0  0  0  0
  7  9  1  0  0  0  0
  9 10  1  0  0  0  0
  9 11  1  0  0  0  0
  9 18  1  0  0  0  0
 11 12  1  0  0  0  0
 11 13  1  0  0  0  0
 11 14  1  0  0  0  0
 14 15  2  0  0  0  0
 14 16  1  0  0  0  0
 16 17  1  0  0  0  0
 18 19  2  0  0  0  0
 18 20  1  0  0  0  0
 20 21  1  0  0  0  0
 20 22  1  0  0  0  0
 22 23  1  0  0  0  0
 22 24  1  0  0  0  0
 22 25  1  0  0  0  0
M  END
$$$$

  -OEChem-01062216063D

 25 24  0     1  0  0  0  0  0999 V2000
   -2.7408   -3.4985    0.9304 H   0  0  0  0  0  0  0  0  0  0  0  0
   -2.7208   -2.4932    0.5006 C   0  0  0  0  0  0  0  0  0  0  0  0
   -3.6061   -1.9481    0.8359 H   0  0  0  0  0  0  0  0  0  0  0  0
   -2.7401   -2.5775   -0.5885 H   0  0  0  0  0  0  0  0  0  0  0  0
   -1.4641   -1.7650    0.9382 C   0  0  0  0  0  0  0  0  0  0  0  0
   -0.7124   -2.2950    1.7414 O   0  0  0  0  0  0  0  0  0  0  0  0
   -1.2564   -0.4588    0.5252 N   0  0  0  0  0  0  0  0  0  0  0  0
   -1.9519   -0.1199   -0.1326 H   0  0  0  0  0  0  0  0  0  0  0  0
    0.0718    0.1867    0.4470 C   0  0  1  0  0  0  0  0  0  0  0  0
   -0.0280    1.0647   -0.1989 H   0  0  0  0  0  0  0  0  0  0  0  0
    0.4892    0.6558    1.8620 C   0  0  0  0  0  0  0  0  0  0  0  0
    0.4250   -0.1786    2.5655 H   0  0  0  0  0  0  0  0  0  0  0  0
    1.5300    0.9866    1.8543 H   0  0  0  0  0  0  0  0  0  0  0  0
   -0.3496    1.8141    2.3938 C   0  0  0  0  0  0  0  0  0  0  0  0
   -0.8463    2.6071    1.6089 O   0  0  0  0  0  0  0  0  0  0  0  0
   -0.4663    1.9240    3.7371 O   0  0  0  0  0  0  0  0  0  0  0  0
   -1.0246    2.6991    3.8989 H   0  0  0  0  0  0  0  0  0  0  0  0
    1.2063   -0.6499   -0.2076 C   0  0  0  0  0  0  0  0  0  0  0  0
    0.9970   -1.7455   -0.7129 O   0  0  0  0  0  0  0  0  0  0  0  0
    2.3693   -0.0005   -0.5877 N   0  0  0  0  0  0  0  0  0  0  0  0
    2.5145    0.9443   -0.2461 H   0  0  0  0  0  0  0  0  0  0  0  0
    3.4199   -0.6285   -1.3817 C   0  0  0  0  0  0  0  0  0  0  0  0
    3.0422   -0.8969   -2.3741 H   0  0  0  0  0  0  0  0  0  0  0  0
    4.2619    0.0589   -1.5067 H   0  0  0  0  0  0  0  0  0  0  0  0
    3.7845   -1.5351   -0.8867 H   0  0  0  0  0  0  0  0  0  0  0  0
  1  2  1  0  0  0  0
  2  3  1  0  0  0  0
  2  4  1  0  0  0  0
  2  5  1  0  0  0  0
  5  6  2  0  0  0  0
  5  7  1  0  0  0  0
  7  8  1  0  0  0  0
  7  9  1  0  0  0  0
  9 10  1  0  0  0  0
  9 11  1  0  0  0  0
  9 18  1  0  0  0  0
 11 12  1  0  0  0  0
 11 13  1  0  0  0  0
 11 14  1  0  0  0  0
 14 15  2  0  0  0  0
 14 16  1  0  0  0  0
 16 17  1  0  0  0  0
 18 19  2  0  0  0  0
 18 20  1  0  0  0  0
 20 21  1  0  0  0  0
 20 22  1  0  0  0  0
 22 23  1  0  0  0  0
 22 24  1  0  0  0  0
 22 25  1  0  0  0  0
M  END
$$$$

  -OEChem-01062216063D

 25 24  0     1  0  0  0  0  0999 V2000
   -2.7257   -3.5204    0.8235 H   0  0  0  0  0  0  0  0  0  0  0  0
   -2.7361   -2.4762    0.4985 C   0  0  0  0  0  0  0  0  0  0  0  0
   -3.5521   -1.9563    1.0059 H   0  0  0  0  0  0  0  0  0  0  0  0
   -2.9064   -2.4465   -0.5805 H   0  0  0  0  0  0  0  0  0  0  0  0
   -1.4123   -1.8127    0.8283 C   0  0  0  0  0  0  0  0  0  0  0  0
   -0.5509   -2.4565    1.4063 O   0  0  0  0  0  0  0  0  0  0  0  0
   -1.2233   -0.4835    0.4875 N   0  0  0  0  0  0  0  0  0  0  0  0
   -1.9610   -0.0839   -0.0853 H   0  0  0  0  0  0  0  0  0  0  0  0
    0.0853    0.2023    0.4532 C   0  0  1  0  0  0  0  0  0  0  0  0
   -0.0829    1.2061    0.0506 H   0  0  0  0  0  0  0  0  0  0  0  0
    0.6796    0.3561    1.8786 C   0  0  0  0  0  0  0  0  0  0  0  0
    0.7252   -0.6097    2.3856 H   0  0  0  0  0  0  0  0  0  0  0  0
    1.7042    0.7265    1.8167 H   0  0  0  0  0  0  0  0  0  0  0  0
   -0.0918    1.3371    2.7564 C   0  0  0  0  0  0  0  0  0  0  0  0
   -0.6893    2.2685    2.2400 O   0  0  0  0  0  0  0  0  0  0  0  0
   -0.0357    1.1385    4.0935 O   0  0  0  0  0  0  0  0  0  0  0  0
   -0.5730    1.8382    4.4940 H   0  0  0  0  0  0  0  0  0  0  0  0
    1.0843   -0.4424   -0.5445 C   0  0  0  0  0  0  0  0  0  0  0  0
    0.7013   -1.2471   -1.3858 O   0  0  0  0  0  0  0  0  0  0  0  0
    2.3568    0.0842   -0.6913 N   0  0  0  0  0  0  0  0  0  0  0  0
    2.6609    0.7760   -0.0141 H   0  0  0  0  0  0  0  0  0  0  0  0
    3.3175   -0.4058   -1.6734 C   0  0  0  0  0  0  0  0  0  0  0  0
    2.9339   -0.2651   -2.6894 H   0  0  0  0  0  0  0  0  0  0  0  0
    4.2624    0.1383   -1.5831 H   0  0  0  0  0  0  0  0  0  0  0  0
    3.5155   -1.4714   -1.5160 H   0  0  0  0  0  0  0  0  0  0  0  0
  1  2  1  0  0  0  0
  2  3  1  0  0  0  0
  2  4  1  0  0  0  0
  2  5  1  0  0  0  0
  5  6  2  0  0  0  0
  5  7  1  0  0  0  0
  7  8  1  0  0  0  0
  7  9  1  0  0  0  0
  9 10  1  0  0  0  0
  9 11  1  0  0  0  0
  9 18  1  0  0  0  0
 11 12  1  0  0  0  0
 11 13  1  0  0  0  0
 11 14  1  0  0  0  0
 14 15  2  0  0  0  0
 14 16  1  0  0  0  0
 16 17  1  0  0  0  0
 18 19  2  0  0  0  0
 18 20  1  0  0  0  0
 20 21  1  0  0  0  0
 20 22  1  0  0  0  0
 22 23  1  0  0  0  0
 22 24  1  0  0  0  0
 22 25  1  0  0  0  0
M  END
$$$$

  -OEChem-01062216063D

 25 24  0     1  0  0  0  0  0999 V2000
   -2.6749   -3.5289    0.7895 H   0  0  0  0  0  0  0  0  0  0  0  0
   -2.7078   -2.4754    0.4982 C   0  0  0  0  0  0  0  0  0  0  0  0
   -3.5145   -1.9828    1.0457 H   0  0  0  0  0  0  0  0  0  0  0  0
   -2.9109   -2.4143   -0.5737 H   0  0  0  0  0  0  0  0  0  0  0  0
   -1.3831   -1.8052    0.8102 C   0  0  0  0  0  0  0  0  0  0  0  0
   -0.4972   -2.4516    1.3475 O   0  0  0  0  0  0  0  0  0  0  0  0
   -1.2097   -0.4708    0.4847 N   0  0  0  0  0  0  0  0  0  0  0  0
   -1.9529   -0.0671   -0.0783 H   0  0  0  0  0  0  0  0  0  0  0  0
    0.0912    0.2283    0.4659 C   0  0  1  0  0  0  0  0  0  0  0  0
   -0.0756    1.2339    0.0667 H   0  0  0  0  0  0  0  0  0  0  0  0
    0.6647    0.3785    1.9009 C   0  0  0  0  0  0  0  0  0  0  0  0
    0.7155   -0.5904    2.4015 H   0  0  0  0  0  0  0  0  0  0  0  0
    1.6831    0.7675    1.8577 H   0  0  0  0  0  0  0  0  0  0  0  0
   -0.1303    1.3461    2.7731 C   0  0  0  0  0  0  0  0  0  0  0  0
   -0.7307    2.2745    2.2552 O   0  0  0  0  0  0  0  0  0  0  0  0
   -0.0911    1.1387    4.1094 O   0  0  0  0  0  0  0  0  0  0  0  0
   -0.6383    1.8326    4.5070 H   0  0  0  0  0  0  0  0  0  0  0  0
    1.0826   -0.4163   -0.5399 C   0  0  0  0  0  0  0  0  0  0  0  0
    0.6555   -1.0242   -1.5153 O   0  0  0  0  0  0  0  0  0  0  0  0
    2.4360   -0.1258   -0.4992 N   0  0  0  0  0  0  0  0  0  0  0  0
    2.7861    0.3526    0.3241 H   0  0  0  0  0  0  0  0  0  0  0  0
    3.3967   -0.6723   -1.4508 C   0  0  0  0  0  0  0  0  0  0  0  0
    3.1425   -0.3669   -2.4714 H   0  0  0  0  0  0  0  0  0  0  0  0
    4.4034   -0.3089   -1.2236 H   0  0  0  0  0  0  0  0  0  0  0  0
    3.4031   -1.7663   -1.4016 H   0  0  0  0  0  0  0  0  0  0  0  0
  1  2  1  0  0  0  0
  2  3  1  0  0  0  0
  2  4  1  0  0  0  0
  2  5  1  0  0  0  0
  5  6  2  0  0  0  0
  5  7  1  0  0  0  0
  7  8  1  0  0  0  0
  7  9  1  0  0  0  0
  9 10  1  0  0  0  0
  9 11  1  0  0  0  0
  9 18  1  0  0  0  0
 11 12  1  0  0  0  0
 11 13  1  0  0  0  0
 11 14  1  0  0  0  0
 14 15  2  0  0  0  0
 14 16  1  0  0  0  0
 16 17  1  0  0  0  0
 18 19  2  0  0  0  0
 18 20  1  0  0  0  0
 20 21  1  0  0  0  0
 20 22  1  0  0  0  0
 22 23  1  0  0  0  0
 22 24  1  0  0  0  0
 22 25  1  0  0  0  0
M  END
$$$$

  -OEChem-01062216063D

 25 24  0     1  0  0  0  0  0999 V2000
   -2.6405   -3.5315    0.7870 H   0  0  0  0  0  0  0  0  0  0  0  0
   -2.6827   -2.4776    0.4981 C   0  0  0  0  0  0  0  0  0  0  0  0
   -3.4832   -1.9896    1.0589 H   0  0  0  0  0  0  0  0  0  0  0  0
   -2.9024   -2.4153   -0.5705 H   0  0  0  0  0  0  0  0  0  0  0  0
   -1.3571   -1.8011    0.7921 C   0  0  0  0  0  0  0  0  0  0  0  0
   -0.4523   -2.4468    1.2981 O   0  0  0  0  0  0  0  0  0  0  0  0
   -1.1960   -0.4633    0.4776 N   0  0  0  0  0  0  0  0  0  0  0  0
   -1.9475   -0.0523   -0.0693 H   0  0  0  0  0  0  0  0  0  0  0  0
    0.0965    0.2493    0.4753 C   0  0  1  0  0  0  0  0  0  0  0  0
   -0.0724    1.2551    0.0769 H   0  0  0  0  0  0  0  0  0  0  0  0
    0.6560    0.4011    1.9149 C   0  0  0  0  0  0  0  0  0  0  0  0
    0.7156   -0.5692    2.4129 H   0  0  0  0  0  0  0  0  0  0  0  0
    1.6681    0.8084    1.8782 H   0  0  0  0  0  0  0  0  0  0  0  0
   -0.1579    1.3569    2.7828 C   0  0  0  0  0  0  0  0  0  0  0  0
   -0.7648    2.2799    2.2632 O   0  0  0  0  0  0  0  0  0  0  0  0
   -0.1284    1.1445    4.1186 O   0  0  0  0  0  0  0  0  0  0  0  0
   -0.6859    1.8321    4.5133 H   0  0  0  0  0  0  0  0  0  0  0  0
    1.0872   -0.3933   -0.5311 C   0  0  0  0  0  0  0  0  0  0  0  0
    0.6665   -0.7944   -1.6104 O   0  0  0  0  0  0  0  0  0  0  0  0
    2.4567   -0.3659   -0.3294 N   0  0  0  0  0  0  0  0  0  0  0  0
    2.7774   -0.1368    0.6056 H   0  0  0  0  0  0  0  0  0  0  0  0
    3.4031   -0.9764   -1.2560 C   0  0  0  0  0  0  0  0  0  0  0  0
    3.3168   -0.5216   -2.2484 H   0  0  0  0  0  0  0  0  0  0  0  0
    4.4276   -0.8326   -0.9000 H   0  0  0  0  0  0  0  0  0  0  0  0
    3.2129   -2.0514   -1.3434 H   0  0  0  0  0  0  0  0  0  0  0  0
  1  2  1  0  0  0  0
  2  3  1  0  0  0  0
  2  4  1  0  0  0  0
  2  5  1  0  0  0  0
  5  6  2  0  0  0  0
  5  7  1  0  0  0  0
  7  8  1  0  0  0  0
  7  9  1  0  0  0  0
  9 10  1  0  0  0  0
  9 11  1  0  0  0  0
  9 18  1  0  0  0  0
 11 12  1  0  0  0  0
 11 13  1  0  0  0  0
 11 14  1  0  0  0  0
 14 15  2  0  0  0  0
 14 16  1  0  0  0  0
 16 17  1  0  0  0  0
 18 19  2  0  0  0  0
 18 20  1  0  0  0  0
 20 21  1  0  0  0  0
 20 22  1  0  0  0  0
 22 23  1  0  0  0  0
 22 24  1  0  0  0  0
 22 25  1  0  0  0  0
M  END
$$$$

  -OEChem-01062216063D

 25 24  0     1  0  0  0  0  0999 V2000
   -2.6287   -3.5287    0.7890 H   0  0  0  0  0  0  0  0  0  0  0  0
   -2.6769   -2.4726    0.5096 C   0  0  0  0  0  0  0  0  0  0  0  0
   -3.4628   -1.9885    1.0941 H   0  0  0  0  0  0  0  0  0  0  0  0
   -2.9229   -2.4010   -0.5527 H   0  0  0  0  0  0  0  0  0  0  0  0
   -1.3437   -1.8002    0.7764 C   0  0  0  0  0  0  0  0  0  0  0  0
   -0.4265   -2.4491    1.2557 O   0  0  0  0  0  0  0  0  0  0  0  0
   -1.1848   -0.4621    0.4643 N   0  0  0  0  0  0  0  0  0  0  0  0
   -1.9469   -0.0375   -0.0575 H   0  0  0  0  0  0  0  0  0  0  0  0
    0.1033    0.2560    0.4746 C   0  0  1  0  0  0  0  0  0  0  0  0
   -0.0651    1.2612    0.0738 H   0  0  0  0  0  0  0  0  0  0  0  0
    0.6523    0.4108    1.9172 C   0  0  0  0  0  0  0  0  0  0  0  0
    0.7111   -0.5596    2.4153 H   0  0  0  0  0  0  0  0  0  0  0  0
    1.6634    0.8224    1.8825 H   0  0  0  0  0  0  0  0  0  0  0  0
   -0.1711    1.3626    2.7802 C   0  0  0  0  0  0  0  0  0  0  0  0
   -0.7794    2.2830    2.2579 O   0  0  0  0  0  0  0  0  0  0  0  0
   -0.1515    1.1468    4.1156 O   0  0  0  0  0  0  0  0  0  0  0  0
   -0.7127    1.8331    4.5073 H   0  0  0  0  0  0  0  0  0  0  0  0
    1.0994   -0.3867   -0.5233 C   0  0  0  0  0  0  0  0  0  0  0  0
    0.7360   -0.5806   -1.6774 O   0  0  0  0  0  0  0  0  0  0  0  0
    2.4197   -0.6341   -0.1889 N   0  0  0  0  0  0  0  0  0  0  0  0
    2.6393   -0.6329    0.8024 H   0  0  0  0  0  0  0  0  0  0  0  0
    3.3506   -1.2903   -1.0996 C   0  0  0  0  0  0  0  0  0  0  0  0
    3.4448   -0.7189   -2.0290 H   0  0  0  0  0  0  0  0  0  0  0  0
    4.3409   -1.3645   -0.6402 H   0  0  0  0  0  0  0  0  0  0  0  0
    3.0024   -2.3002   -1.3407 H   0  0  0  0  0  0  0  0  0  0  0  0
  1  2  1  0  0  0  0
  2  3  1  0  0  0  0
  2  4  1  0  0  0  0
  2  5  1  0  0  0  0
  5  6  2  0  0  0  0
  5  7  1  0  0  0  0
  7  8  1  0  0  0  0
  7  9  1  0  0  0  0
  9 10  1  0  0  0  0
  9 11  1  0  0  0  0
  9 18  1  0  0  0  0
 11 12  1  0  0  0  0
 11 13  1  0  0  0  0
 11 14  1  0  0  0  0
 14 15  2  0  0  0  0
 14 16  1  0  0  0  0
 16 17  1  0  0  0  0
 18 19  2  0  0  0  0
 18 20  1  0  0  0  0
 20 21  1  0  0  0  0
 20 22  1  0  0  0  0
 22 23  1  0  0  0  0
 22 24  1  0  0  0  0
 22 25  1  0  0  0  0
M  END
$$$$

  -OEChem-01062216063D

 25 24  0     1  0  0  0  0  0999 V2000
   -2.6322   -3.5201    0.8129 H   0  0  0  0  0  0  0  0  0  0  0  0
   -2.6788   -2.4652    0.5286 C   0  0  0  0  0  0  0  0  0  0  0  0
   -3.4473   -1.9720    1.1284 H   0  0  0  0  0  0  0  0  0  0  0  0
   -2.9499   -2.3980   -0.5278 H   0  0  0  0  0  0  0  0  0  0  0  0
   -1.3351   -1.8010    0.7607 C   0  0  0  0  0  0  0  0  0  0  0  0
   -0.4081   -2.4548    1.2148 O   0  0  0  0  0  0  0  0  0  0  0  0
   -1.1742   -0.4636    0.4470 N   0  0  0  0  0  0  0  0  0  0  0  0
   -1.9494   -0.0215   -0.0400 H   0  0  0  0  0  0  0  0  0  0  0  0
    0.1112    0.2575    0.4672 C   0  0  1  0  0  0  0  0  0  0  0  0
   -0.0553    1.2628    0.0651 H   0  0  0  0  0  0  0  0  0  0  0  0
    0.6525    0.4124    1.9115 C   0  0  0  0  0  0  0  0  0  0  0  0
    0.7070   -0.5579    2.4103 H   0  0  0  0  0  0  0  0  0  0  0  0
    1.6657    0.8206    1.8768 H   0  0  0  0  0  0  0  0  0  0  0  0
   -0.1767    1.3614    2.7722 C   0  0  0  0  0  0  0  0  0  0  0  0
   -0.7850    2.2812    2.2489 O   0  0  0  0  0  0  0  0  0  0  0  0
   -0.1672    1.1402    4.1068 O   0  0  0  0  0  0  0  0  0  0  0  0
   -0.7281    1.8277    4.4970 H   0  0  0  0  0  0  0  0  0  0  0  0
    1.1161   -0.3849   -0.5189 C   0  0  0  0  0  0  0  0  0  0  0  0
    0.8569   -0.3702   -1.7158 O   0  0  0  0  0  0  0  0  0  0  0  0
    2.3262   -0.9049   -0.0950 N   0  0  0  0  0  0  0  0  0  0  0  0
    2.3910   -1.1093    0.8983 H   0  0  0  0  0  0  0  0  0  0  0  0
    3.2348   -1.6020   -0.9973 C   0  0  0  0  0  0  0  0  0  0  0  0
    3.5290   -0.9494   -1.8262 H   0  0  0  0  0  0  0  0  0  0  0  0
    4.1395   -1.9061   -0.4624 H   0  0  0  0  0  0  0  0  0  0  0  0
    2.7548   -2.4972   -1.4067 H   0  0  0  0  0  0  0  0  0  0  0  0
  1  2  1  0  0  0  0
  2  3  1  0  0  0  0
  2  4  1  0  0  0  0
  2  5  1  0  0  0  0
  5  6  2  0  0  0  0
  5  7  1  0  0  0  0
  7  8  1  0  0  0  0
  7  9  1  0  0  0  0
  9 10  1  0  0  0  0
  9 11  1  0  0  0  0
  9 18  1  0  0  0  0
 11 12  1  0  0  0  0
 11 13  1  0  0  0  0
 11 14  1  0  0  0  0
 14 15  2  0  0  0  0
 14 16  1  0  0  0  0
 16 17  1  0  0  0  0
 18 19  2  0  0  0  0
 18 20  1  0  0  0  0
 20 21  1  0  0  0  0
 20 22  1  0  0  0  0
 22 23  1  0  0  0  0
 22 24  1  0  0  0  0
 22 25  1  0  0  0  0
M  END
$$$$

  -OEChem-01062216063D

 25 24  0     1  0  0  0  0  0999 V2000
   -2.6623   -3.5092    0.8394 H   0  0  0  0  0  0  0  0  0  0  0  0
   -2.7048   -2.4528    0.5601 C   0  0  0  0  0  0  0  0  0  0  0  0
   -3.4469   -1.9524    1.1869 H   0  0  0  0  0  0  0  0  0  0  0  0
   -3.0105   -2.3785   -0.4865 H   0  0  0  0  0  0  0  0  0  0  0  0
   -1.3457   -1.8064    0.7500 C   0  0  0  0  0  0  0  0  0  0  0  0
   -0.4136   -2.4708    1.1790 O   0  0  0  0  0  0  0  0  0  0  0  0
   -1.1736   -0.4726    0.4273 N   0  0  0  0  0  0  0  0  0  0  0  0
   -1.9638   -0.0059   -0.0106 H   0  0  0  0  0  0  0  0  0  0  0  0
    0.1138    0.2447    0.4497 C   0  0  1  0  0  0  0  0  0  0  0  0
   -0.0497    1.2498    0.0448 H   0  0  0  0  0  0  0  0  0  0  0  0
    0.6549    0.4002    1.8933 C   0  0  0  0  0  0  0  0  0  0  0  0
    0.7033   -0.5692    2.3942 H   0  0  0  0  0  0  0  0  0  0  0  0
    1.6723    0.7988    1.8550 H   0  0  0  0  0  0  0  0  0  0  0  0
   -0.1699    1.3524    2.7541 C   0  0  0  0  0  0  0  0  0  0  0  0
   -0.7755    2.2739    2.2308 O   0  0  0  0  0  0  0  0  0  0  0  0
   -0.1623    1.1301    4.0888 O   0  0  0  0  0  0  0  0  0  0  0  0
   -0.7172    1.8220    4.4796 H   0  0  0  0  0  0  0  0  0  0  0  0
    1.1297   -0.4005   -0.5210 C   0  0  0  0  0  0  0  0  0  0  0  0
    1.0323   -0.1717   -1.7198 O   0  0  0  0  0  0  0  0  0  0  0  0
    2.1749   -1.1768   -0.0551 N   0  0  0  0  0  0  0  0  0  0  0  0
    2.0319   -1.5670    0.8741 H   0  0  0  0  0  0  0  0  0  0  0  0
    3.0856   -1.8767   -0.9523 C   0  0  0  0  0  0  0  0  0  0  0  0
    3.5825   -1.1693   -1.6246 H   0  0  0  0  0  0  0  0  0  0  0  0
    3.8547   -2.4000   -0.3762 H   0  0  0  0  0  0  0  0  0  0  0  0
    2.5408   -2.6115   -1.5542 H   0  0  0  0  0  0  0  0  0  0  0  0
  1  2  1  0  0  0  0
  2  3  1  0  0  0  0
  2  4  1  0  0  0  0
  2  5  1  0  0  0  0
  5  6  2  0  0  0  0
  5  7  1  0  0  0  0
  7  8  1  0  0  0  0
  7  9  1  0  0  0  0
  9 10  1  0  0  0  0
  9 11  1  0  0  0  0
  9 18  1  0  0  0  0
 11 12  1  0  0  0  0
 11 13  1  0  0  0  0
 11 14  1  0  0  0  0
 14 15  2  0  0  0  0
 14 16  1  0  0  0  0
 16 17  1  0  0  0  0
 18 19  2  0  0  0  0
 18 20  1  0  0  0  0
 20 21  1  0  0  0  0
 20 22  1  0  0  0  0
 22 23  1  0  0  0  0
 22 24  1  0  0  0  0
 22 25  1  0  0  0  0
M  END
$$$$

  -OEChem-01062216063D

 25 24  0     1  0  0  0  0  0999 V2000
   -2.7223   -3.4871    0.8858 H   0  0  0  0  0  0  0  0  0  0  0  0
   -2.7476   -2.4327    0.5963 C   0  0  0  0  0  0  0  0  0  0  0  0
   -3.4632   -1.9095    1.2351 H   0  0  0  0  0  0  0  0  0  0  0  0
   -3.0766   -2.3617   -0.4434 H   0  0  0  0  0  0  0  0  0  0  0  0
   -1.3698   -1.8157    0.7465 C   0  0  0  0  0  0  0  0  0  0  0  0
   -0.4431   -2.4976    1.1596 O   0  0  0  0  0  0  0  0  0  0  0  0
   -1.1780   -0.4875    0.4114 N   0  0  0  0  0  0  0  0  0  0  0  0
   -1.9811    0.0051    0.0282 H   0  0  0  0  0  0  0  0  0  0  0  0
    0.1124    0.2265    0.4283 C   0  0  1  0  0  0  0  0  0  0  0  0
   -0.0505    1.2315    0.0225 H   0  0  0  0  0  0  0  0  0  0  0  0
    0.6576    0.3789    1.8694 C   0  0  0  0  0  0  0  0  0  0  0  0
    0.7043   -0.5914    2.3683 H   0  0  0  0  0  0  0  0  0  0  0  0
    1.6775    0.7707    1.8270 H   0  0  0  0  0  0  0  0  0  0  0  0
   -0.1610    1.3327    2.7340 C   0  0  0  0  0  0  0  0  0  0  0  0
   -0.7652    2.2567    2.2135 O   0  0  0  0  0  0  0  0  0  0  0  0
   -0.1537    1.1063    4.0680 O   0  0  0  0  0  0  0  0  0  0  0  0
   -0.7020    1.8019    4.4616 H   0  0  0  0  0  0  0  0  0  0  0  0
    1.1427   -0.4176   -0.5270 C   0  0  0  0  0  0  0  0  0  0  0  0
    1.2423    0.0034   -1.6719 O   0  0  0  0  0  0  0  0  0  0  0  0
    1.9900   -1.4165   -0.0865 N   0  0  0  0  0  0  0  0  0  0  0  0
    1.6494   -1.9198    0.7339 H   0  0  0  0  0  0  0  0  0  0  0  0
    2.9061   -2.1139   -0.9797 C   0  0  0  0  0  0  0  0  0  0  0  0
    3.5877   -1.4046   -1.4611 H   0  0  0  0  0  0  0  0  0  0  0  0
    3.5047   -2.8364   -0.4164 H   0  0  0  0  0  0  0  0  0  0  0  0
    2.3502   -2.6508   -1.7555 H   0  0  0  0  0  0  0  0  0  0  0  0
  1  2  1  0  0  0  0
  2  3  1  0  0  0  0
  2  4  1  0  0  0  0
  2  5  1  0  0  0  0
  5  6  2  0  0  0  0
  5  7  1  0  0  0  0
  7  8  1  0  0  0  0
  7  9  1  0  0  0  0
  9 10  1  0  0  0  0
  9 11  1  0  0  0  0
  9 18  1  0  0  0  0
 11 12  1  0  0  0  0
 11 13  1  0  0  0  0
 11 14  1  0  0  0  0
 14 15  2  0  0  0  0
 14 16  1  0  0  0  0
 16 17  1  0  0  0  0
 18 19  2  0  0  0  0
 18 20  1  0  0  0  0
 20 21  1  0  0  0  0
 20 22  1  0  0  0  0
 22 23  1  0  0  0  0
 22 24  1  0  0  0  0
 22 25  1  0  0  0  0
M  END
$$$$

  -OEChem-01062216063D

 25 24  0     1  0  0  0  0  0999 V2000
   -2.8236   -3.4529    0.9312 H   0  0  0  0  0  0  0  0  0  0  0  0
   -2.8192   -2.4000    0.6349 C   0  0  0  0  0  0  0  0  0  0  0  0
   -3.5048   -1.8493    1.2837 H   0  0  0  0  0  0  0  0  0  0  0  0
   -3.1660   -2.3247   -0.3986 H   0  0  0  0  0  0  0  0  0  0  0  0
   -1.4193   -1.8277    0.7550 C   0  0  0  0  0  0  0  0  0  0  0  0
   -0.5129   -2.5359    1.1670 O   0  0  0  0  0  0  0  0  0  0  0  0
   -1.1932   -0.5089    0.4039 N   0  0  0  0  0  0  0  0  0  0  0  0
   -1.9974    0.0028    0.0490 H   0  0  0  0  0  0  0  0  0  0  0  0
    0.1033    0.1991    0.4060 C   0  0  1  0  0  0  0  0  0  0  0  0
   -0.0613    1.2040    0.0001 H   0  0  0  0  0  0  0  0  0  0  0  0
    0.6552    0.3476    1.8435 C   0  0  0  0  0  0  0  0  0  0  0  0
    0.7004   -0.6248    2.3393 H   0  0  0  0  0  0  0  0  0  0  0  0
    1.6774    0.7331    1.7959 H   0  0  0  0  0  0  0  0  0  0  0  0
   -0.1525    1.3056    2.7139 C   0  0  0  0  0  0  0  0  0  0  0  0
   -0.7537    2.2341    2.1977 O   0  0  0  0  0  0  0  0  0  0  0  0
   -0.1413    1.0766    4.0474 O   0  0  0  0  0  0  0  0  0  0  0  0
   -0.6802    1.7770    4.4452 H   0  0  0  0  0  0  0  0  0  0  0  0
    1.1539   -0.4379   -0.5331 C   0  0  0  0  0  0  0  0  0  0  0  0
    1.4502    0.1339   -1.5737 O   0  0  0  0  0  0  0  0  0  0  0  0
    1.7985   -1.6120   -0.1952 N   0  0  0  0  0  0  0  0  0  0  0  0
    1.3373   -2.1582    0.5367 H   0  0  0  0  0  0  0  0  0  0  0  0
    2.7231   -2.2956   -1.0896 C   0  0  0  0  0  0  0  0  0  0  0  0
    3.5400   -1.6271   -1.3817 H   0  0  0  0  0  0  0  0  0  0  0  0
    3.1558   -3.1674   -0.5894 H   0  0  0  0  0  0  0  0  0  0  0  0
    2.2034   -2.6332   -1.9922 H   0  0  0  0  0  0  0  0  0  0  0  0
  1  2  1  0  0  0  0
  2  3  1  0  0  0  0
  2  4  1  0  0  0  0
  2  5  1  0  0  0  0
  5  6  2  0  0  0  0
  5  7  1  0  0  0  0
  7  8  1  0  0  0  0
  7  9  1  0  0  0  0
  9 10  1  0  0  0  0
  9 11  1  0  0  0  0
  9 18  1  0  0  0  0
 11 12  1  0  0  0  0
 11 13  1  0  0  0  0
 11 14  1  0  0  0  0
 14 15  2  0  0  0  0
 14 16  1  0  0  0  0
 16 17  1  0  0  0  0
 18 19  2  0  0  0  0
 18 20  1  0  0  0  0
 20 21  1  0  0  0  0
 20 22  1  0  0  0  0
 22 23  1  0  0  0  0
 22 24  1  0  0  0  0
 22 25  1  0  0  0  0
M  END
$$$$

  -OEChem-01062216063D

 25 24  0     1  0  0  0  0  0999 V2000
   -2.9291   -3.4151    0.9822 H   0  0  0  0  0  0  0  0  0  0  0  0
   -2.8954   -2.3669    0.6720 C   0  0  0  0  0  0  0  0  0  0  0  0
   -3.5588   -1.7873    1.3185 H   0  0  0  0  0  0  0  0  0  0  0  0
   -3.2477   -2.2948   -0.3599 H   0  0  0  0  0  0  0  0  0  0  0  0
   -1.4782   -1.8353    0.7741 C   0  0  0  0  0  0  0  0  0  0  0  0
   -0.5917   -2.5680    1.1846 O   0  0  0  0  0  0  0  0  0  0  0  0
   -1.2205   -0.5266    0.4072 N   0  0  0  0  0  0  0  0  0  0  0  0
   -2.0235    0.0030    0.0768 H   0  0  0  0  0  0  0  0  0  0  0  0
    0.0842    0.1704    0.3858 C   0  0  1  0  0  0  0  0  0  0  0  0
   -0.0813    1.1749   -0.0209 H   0  0  0  0  0  0  0  0  0  0  0  0
    0.6504    0.3154    1.8170 C   0  0  0  0  0  0  0  0  0  0  0  0
    0.6914   -0.6581    2.3114 H   0  0  0  0  0  0  0  0  0  0  0  0
    1.6758    0.6913    1.7598 H   0  0  0  0  0  0  0  0  0  0  0  0
   -0.1393    1.2823    2.6938 C   0  0  0  0  0  0  0  0  0  0  0  0
   -0.7361    2.2161    2.1818 O   0  0  0  0  0  0  0  0  0  0  0  0
   -0.1174    1.0554    4.0276 O   0  0  0  0  0  0  0  0  0  0  0  0
   -0.6428    1.7636    4.4297 H   0  0  0  0  0  0  0  0  0  0  0  0
    1.1454   -0.4615   -0.5470 C   0  0  0  0  0  0  0  0  0  0  0  0
    1.6255    0.2178   -1.4441 O   0  0  0  0  0  0  0  0  0  0  0  0
    1.5885   -1.7585   -0.3791 N   0  0  0  0  0  0  0  0  0  0  0  0
    1.0756   -2.3231    0.3032 H   0  0  0  0  0  0  0  0  0  0  0  0
    2.5365   -2.4127   -1.2707 C   0  0  0  0  0  0  0  0  0  0  0  0
    3.4631   -1.8328   -1.3375 H   0  0  0  0  0  0  0  0  0  0  0  0
    2.7816   -3.4102   -0.8936 H   0  0  0  0  0  0  0  0  0  0  0  0
    2.1102   -2.5145   -2.2739 H   0  0  0  0  0  0  0  0  0  0  0  0
  1  2  1  0  0  0  0
  2  3  1  0  0  0  0
  2  4  1  0  0  0  0
  2  5  1  0  0  0  0
  5  6  2  0  0  0  0
  5  7  1  0  0  0  0
  7  8  1  0  0  0  0
  7  9  1  0  0  0  0
  9 10  1  0  0  0  0
  9 11  1  0  0  0  0
  9 18  1  0  0  0  0
 11 12  1  0  0  0  0
 11 13  1  0  0  0  0
 11 14  1  0  0  0  0
 14 15  2  0  0  0  0
 14 16  1  0  0  0  0
 16 17  1  0  0  0  0
 18 19  2  0  0  0  0
 18 20  1  0  0  0  0
 20 21  1  0  0  0  0
 20 22  1  0  0  0  0
 22 23  1  0  0  0  0
 22 24  1  0  0  0  0
 22 25  1  0  0  0  0
M  END
$$$$

  -OEChem-01062216063D

 25 24  0     1  0  0  0  0  0999 V2000
   -3.0255   -3.3679    1.0880 H   0  0  0  0  0  0  0  0  0  0  0  0
   -2.9750   -2.3290    0.7502 C   0  0  0  0  0  0  0  0  0  0  0  0
   -3.5915   -1.7144    1.4107 H   0  0  0  0  0  0  0  0  0  0  0  0
   -3.3712   -2.2706   -0.2665 H   0  0  0  0  0  0  0  0  0  0  0  0
   -1.5394   -1.8390    0.7768 C   0  0  0  0  0  0  0  0  0  0  0  0
   -0.6552   -2.5975    1.1418 O   0  0  0  0  0  0  0  0  0  0  0  0
   -1.2649   -0.5366    0.4001 N   0  0  0  0  0  0  0  0  0  0  0  0
   -2.0732    0.0174    0.1275 H   0  0  0  0  0  0  0  0  0  0  0  0
    0.0478    0.1463    0.3454 C   0  0  1  0  0  0  0  0  0  0  0  0
   -0.1196    1.1531   -0.0546 H   0  0  0  0  0  0  0  0  0  0  0  0
    0.6421    0.2784    1.7657 C   0  0  0  0  0  0  0  0  0  0  0  0
    0.6836   -0.6987    2.2535 H   0  0  0  0  0  0  0  0  0  0  0  0
    1.6700    0.6449    1.6912 H   0  0  0  0  0  0  0  0  0  0  0  0
   -0.1196    1.2505    2.6611 C   0  0  0  0  0  0  0  0  0  0  0  0
   -0.7151    2.1936    2.1647 O   0  0  0  0  0  0  0  0  0  0  0  0
   -0.0788    1.0147    3.9928 O   0  0  0  0  0  0  0  0  0  0  0  0
   -0.5887    1.7265    4.4081 H   0  0  0  0  0  0  0  0  0  0  0  0
    1.1023   -0.4785   -0.6021 C   0  0  0  0  0  0  0  0  0  0  0  0
    1.7693    0.2661   -1.3076 O   0  0  0  0  0  0  0  0  0  0  0  0
    1.3458   -1.8365   -0.6569 N   0  0  0  0  0  0  0  0  0  0  0  0
    0.8159   -2.4200   -0.0049 H   0  0  0  0  0  0  0  0  0  0  0  0
    2.3810   -2.4470   -1.4801 C   0  0  0  0  0  0  0  0  0  0  0  0
    3.3704   -2.0845   -1.1822 H   0  0  0  0  0  0  0  0  0  0  0  0
    2.3614   -3.5351   -1.3652 H   0  0  0  0  0  0  0  0  0  0  0  0
    2.2209   -2.2079   -2.5366 H   0  0  0  0  0  0  0  0  0  0  0  0
  1  2  1  0  0  0  0
  2  3  1  0  0  0  0
  2  4  1  0  0  0  0
  2  5  1  0  0  0  0
  5  6  2  0  0  0  0
  5  7  1  0  0  0  0
  7  8  1  0  0  0  0
  7  9  1  0  0  0  0
  9 10  1  0  0  0  0
  9 11  1  0  0  0  0
  9 18  1  0  0  0  0
 11 12  1  0  0  0  0
 11 13  1  0  0  0  0
 11 14  1  0  0  0  0
 14 15  2  0  0  0  0
 14 16  1  0  0  0  0
 16 17  1  0  0  0  0
 18 19  2  0  0  0  0
 18 20  1  0  0  0  0
 20 21  1  0  0  0  0
 20 22  1  0  0  0  0
 22 23  1  0  0  0  0
 22 24  1  0  0  0  0
 22 25  1  0  0  0  0
M  END
$$$$

  -OEChem-01062216063D

 25 24  0     1  0  0  0  0  0999 V2000
   -3.0572   -3.3431    1.1406 H   0  0  0  0  0  0  0  0  0  0  0  0
   -3.0059   -2.3024    0.8076 C   0  0  0  0  0  0  0  0  0  0  0  0
   -3.5774   -1.6832    1.5035 H   0  0  0  0  0  0  0  0  0  0  0  0
   -3.4530   -2.2289   -0.1868 H   0  0  0  0  0  0  0  0  0  0  0  0
   -1.5627   -1.8366    0.7633 C   0  0  0  0  0  0  0  0  0  0  0  0
   -0.6716   -2.6173    1.0565 O   0  0  0  0  0  0  0  0  0  0  0  0
   -1.2852   -0.5346    0.3881 N   0  0  0  0  0  0  0  0  0  0  0  0
   -2.0982    0.0410    0.1822 H   0  0  0  0  0  0  0  0  0  0  0  0
    0.0311    0.1419    0.3193 C   0  0  1  0  0  0  0  0  0  0  0  0
   -0.1355    1.1513   -0.0735 H   0  0  0  0  0  0  0  0  0  0  0  0
    0.6339    0.2587    1.7377 C   0  0  0  0  0  0  0  0  0  0  0  0
    0.6706   -0.7232    2.2161 H   0  0  0  0  0  0  0  0  0  0  0  0
    1.6641    0.6189    1.6622 H   0  0  0  0  0  0  0  0  0  0  0  0
   -0.1174    1.2283    2.6444 C   0  0  0  0  0  0  0  0  0  0  0  0
   -0.7096    2.1789    2.1582 O   0  0  0  0  0  0  0  0  0  0  0  0
   -0.0758    0.9793    3.9738 O   0  0  0  0  0  0  0  0  0  0  0  0
   -0.5763    1.6929    4.3971 H   0  0  0  0  0  0  0  0  0  0  0  0
    1.0829   -0.4724   -0.6393 C   0  0  0  0  0  0  0  0  0  0  0  0
    1.9041    0.2741   -1.1552 O   0  0  0  0  0  0  0  0  0  0  0  0
    1.1350   -1.8201   -0.9358 N   0  0  0  0  0  0  0  0  0  0  0  0
    0.5636   -2.4239   -0.3409 H   0  0  0  0  0  0  0  0  0  0  0  0
    2.1924   -2.4254   -1.7351 C   0  0  0  0  0  0  0  0  0  0  0  0
    3.1653   -2.2856   -1.2527 H   0  0  0  0  0  0  0  0  0  0  0  0
    2.0113   -3.4984   -1.8486 H   0  0  0  0  0  0  0  0  0  0  0  0
    2.2249   -1.9740   -2.7322 H   0  0  0  0  0  0  0  0  0  0  0  0
  1  2  1  0  0  0  0
  2  3  1  0  0  0  0
  2  4  1  0  0  0  0
  2  5  1  0  0  0  0
  5  6  2  0  0  0  0
  5  7  1  0  0  0  0
  7  8  1  0  0  0  0
  7  9  1  0  0  0  0
  9 10  1  0  0  0  0
  9 11  1  0  0  0  0
  9 18  1  0  0  0  0
 11 12  1  0  0  0  0
 11 13  1  0  0  0  0
 11 14  1  0  0  0  0
 14 15  2  0  0  0  0
 14 16  1  0  0  0  0
 16 17  1  0  0  0  0
 18 19  2  0  0  0  0
 18 20  1  0  0  0  0
 20 21  1  0  0  0  0
 20 22  1  0  0  0  0
 22 23  1  0  0  0  0
 22 24  1  0  0  0  0
 22 25  1  0  0  0  0
M  END
$$$$

  -OEChem-01062216063D

 25 24  0     1  0  0  0  0  0999 V2000
   -3.0427   -3.3185    1.1943 H   0  0  0  0  0  0  0  0  0  0  0  0
   -3.0001   -2.2793    0.8557 C   0  0  0  0  0  0  0  0  0  0  0  0
   -3.5257   -1.6531    1.5809 H   0  0  0  0  0  0  0  0  0  0  0  0
   -3.5008   -2.2036   -0.1126 H   0  0  0  0  0  0  0  0  0  0  0  0
   -1.5570   -1.8285    0.7304 C   0  0  0  0  0  0  0  0  0  0  0  0
   -0.6575   -2.6273    0.9332 O   0  0  0  0  0  0  0  0  0  0  0  0
   -1.2845   -0.5238    0.3625 N   0  0  0  0  0  0  0  0  0  0  0  0
   -2.0998    0.0699    0.2300 H   0  0  0  0  0  0  0  0  0  0  0  0
    0.0336    0.1505    0.3028 C   0  0  1  0  0  0  0  0  0  0  0  0
   -0.1256    1.1633   -0.0837 H   0  0  0  0  0  0  0  0  0  0  0  0
    0.6214    0.2482    1.7299 C   0  0  0  0  0  0  0  0  0  0  0  0
    0.6500   -0.7405    2.1950 H   0  0  0  0  0  0  0  0  0  0  0  0
    1.6536    0.6062    1.6726 H   0  0  0  0  0  0  0  0  0  0  0  0
   -0.1370    1.2093    2.6396 C   0  0  0  0  0  0  0  0  0  0  0  0
   -0.7207    2.1673    2.1575 O   0  0  0  0  0  0  0  0  0  0  0  0
   -0.1149    0.9427    3.9662 O   0  0  0  0  0  0  0  0  0  0  0  0
   -0.6149    1.6547    4.3929 H   0  0  0  0  0  0  0  0  0  0  0  0
    1.0904   -0.4593   -0.6541 C   0  0  0  0  0  0  0  0  0  0  0  0
    2.0390    0.2368   -0.9922 O   0  0  0  0  0  0  0  0  0  0  0  0
    0.9709   -1.7259   -1.1930 N   0  0  0  0  0  0  0  0  0  0  0  0
    0.3343   -2.3442   -0.6873 H   0  0  0  0  0  0  0  0  0  0  0  0
    2.0051   -2.3346   -2.0201 C   0  0  0  0  0  0  0  0  0  0  0  0
    2.9454   -2.4114   -1.4643 H   0  0  0  0  0  0  0  0  0  0  0  0
    1.6997   -3.3395   -2.3270 H   0  0  0  0  0  0  0  0  0  0  0  0
    2.1762   -1.7367   -2.9214 H   0  0  0  0  0  0  0  0  0  0  0  0
  1  2  1  0  0  0  0
  2  3  1  0  0  0  0
  2  4  1  0  0  0  0
  2  5  1  0  0  0  0
  5  6  2  0  0  0  0
  5  7  1  0  0  0  0
  7  8  1  0  0  0  0
  7  9  1  0  0  0  0
  9 10  1  0  0  0  0
  9 11  1  0  0  0  0
  9 18  1  0  0  0  0
 11 12  1  0  0  0  0
 11 13  1  0  0  0  0
 11 14  1  0  0  0  0
 14 15  2  0  0  0  0
 14 16  1  0  0  0  0
 16 17  1  0  0  0  0
 18 19  2  0  0  0  0
 18 20  1  0  0  0  0
 20 21  1  0  0  0  0
 20 22  1  0  0  0  0
 22 23  1  0  0  0  0
 22 24  1  0  0  0  0
 22 25  1  0  0  0  0
M  END
$$$$

  -OEChem-01062216063D

 25 24  0     1  0  0  0  0  0999 V2000
   -2.9900   -3.3152    1.2177 H   0  0  0  0  0  0  0  0  0  0  0  0
   -2.9650   -2.2721    0.8893 C   0  0  0  0  0  0  0  0  0  0  0  0
   -3.4511   -1.6543    1.6483 H   0  0  0  0  0  0  0  0  0  0  0  0
   -3.5161   -2.1854   -0.0502 H   0  0  0  0  0  0  0  0  0  0  0  0
   -1.5303   -1.8201    0.6925 C   0  0  0  0  0  0  0  0  0  0  0  0
   -0.6228   -2.6269    0.8022 O   0  0  0  0  0  0  0  0  0  0  0  0
   -1.2710   -0.5098    0.3367 N   0  0  0  0  0  0  0  0  0  0  0  0
   -2.0867    0.0958    0.2824 H   0  0  0  0  0  0  0  0  0  0  0  0
    0.0481    0.1634    0.2956 C   0  0  1  0  0  0  0  0  0  0  0  0
   -0.1009    1.1792   -0.0866 H   0  0  0  0  0  0  0  0  0  0  0  0
    0.6118    0.2471    1.7347 C   0  0  0  0  0  0  0  0  0  0  0  0
    0.6310   -0.7464    2.1906 H   0  0  0  0  0  0  0  0  0  0  0  0
    1.6454    0.6037    1.7022 H   0  0  0  0  0  0  0  0  0  0  0  0
   -0.1616    1.2014    2.6388 C   0  0  0  0  0  0  0  0  0  0  0  0
   -0.7352    2.1643    2.1543 O   0  0  0  0  0  0  0  0  0  0  0  0
   -0.1701    0.9194    3.9622 O   0  0  0  0  0  0  0  0  0  0  0  0
   -0.6737    1.6302    4.3868 H   0  0  0  0  0  0  0  0  0  0  0  0
    1.1053   -0.4486   -0.6603 C   0  0  0  0  0  0  0  0  0  0  0  0
    2.1608    0.1483   -0.8313 O   0  0  0  0  0  0  0  0  0  0  0  0
    0.8392   -1.5633   -1.4329 N   0  0  0  0  0  0  0  0  0  0  0  0
    0.1168   -2.1701   -1.0456 H   0  0  0  0  0  0  0  0  0  0  0  0
    1.8404   -2.1716   -2.3005 C   0  0  0  0  0  0  0  0  0  0  0  0
    2.7054   -2.5017   -1.7157 H   0  0  0  0  0  0  0  0  0  0  0  0
    1.4163   -3.0392   -2.8145 H   0  0  0  0  0  0  0  0  0  0  0  0
    2.1785   -1.4556   -3.0570 H   0  0  0  0  0  0  0  0  0  0  0  0
  1  2  1  0  0  0  0
  2  3  1  0  0  0  0
  2  4  1  0  0  0  0
  2  5  1  0  0  0  0
  5  6  2  0  0  0  0
  5  7  1  0  0  0  0
  7  8  1  0  0  0  0
  7  9  1  0  0  0  0
  9 10  1  0  0  0  0
  9 11  1  0  0  0  0
  9 18  1  0  0  0  0
 11 12  1  0  0  0  0
 11 13  1  0  0  0  0
 11 14  1  0  0  0  0
 14 15  2  0  0  0  0
 14 16  1  0  0  0  0
 16 17  1  0  0  0  0
 18 19  2  0  0  0  0
 18 20  1  0  0  0  0
 20 21  1  0  0  0  0
 20 22  1  0  0  0  0
 22 23  1  0  0  0  0
 22 24  1  0  0  0  0
 22 25  1  0  0  0  0
M  END
$$$$

  -OEChem-01062216063D

 25 24  0     1  0  0  0  0  0999 V2000
   -2.9158   -3.3367    1.1967 H   0  0  0  0  0  0  0  0  0  0  0  0
   -2.9116   -2.2848    0.8966 C   0  0  0  0  0  0  0  0  0  0  0  0
   -3.3705   -1.6918    1.6915 H   0  0  0  0  0  0  0  0  0  0  0  0
   -3.5014   -2.1767   -0.0170 H   0  0  0  0  0  0  0  0  0  0  0  0
   -1.4892   -1.8159    0.6561 C   0  0  0  0  0  0  0  0  0  0  0  0
   -0.5714   -2.6150    0.7138 O   0  0  0  0  0  0  0  0  0  0  0  0
   -1.2528   -0.4971    0.3160 N   0  0  0  0  0  0  0  0  0  0  0  0
   -2.0714    0.1072    0.3209 H   0  0  0  0  0  0  0  0  0  0  0  0
    0.0636    0.1813    0.2951 C   0  0  1  0  0  0  0  0  0  0  0  0
   -0.0811    1.1993   -0.0821 H   0  0  0  0  0  0  0  0  0  0  0  0
    0.6087    0.2556    1.7435 C   0  0  0  0  0  0  0  0  0  0  0  0
    0.6266   -0.7417    2.1907 H   0  0  0  0  0  0  0  0  0  0  0  0
    1.6405    0.6179    1.7311 H   0  0  0  0  0  0  0  0  0  0  0  0
   -0.1808    1.1997    2.6438 C   0  0  0  0  0  0  0  0  0  0  0  0
   -0.7516    2.1637    2.1578 O   0  0  0  0  0  0  0  0  0  0  0  0
   -0.2067    0.9084    3.9650 O   0  0  0  0  0  0  0  0  0  0  0  0
   -0.7174    1.6149    4.3881 H   0  0  0  0  0  0  0  0  0  0  0  0
    1.1154   -0.4322   -0.6663 C   0  0  0  0  0  0  0  0  0  0  0  0
    2.2605    0.0024   -0.6658 O   0  0  0  0  0  0  0  0  0  0  0  0
    0.7468   -1.3288   -1.6521 N   0  0  0  0  0  0  0  0  0  0  0  0
   -0.1093   -1.8396   -1.4519 H   0  0  0  0  0  0  0  0  0  0  0  0
    1.7197   -1.9541   -2.5397 C   0  0  0  0  0  0  0  0  0  0  0  0
    2.4420   -2.5410   -1.9625 H   0  0  0  0  0  0  0  0  0  0  0  0
    1.2140   -2.6201   -3.2451 H   0  0  0  0  0  0  0  0  0  0  0  0
    2.2609   -1.1940   -3.1128 H   0  0  0  0  0  0  0  0  0  0  0  0
  1  2  1  0  0  0  0
  2  3  1  0  0  0  0
  2  4  1  0  0  0  0
  2  5  1  0  0  0  0
  5  6  2  0  0  0  0
  5  7  1  0  0  0  0
  7  8  1  0  0  0  0
  7  9  1  0  0  0  0
  9 10  1  0  0  0  0
  9 11  1  0  0  0  0
  9 18  1  0  0  0  0
 11 12  1  0  0  0  0
 11 13  1  0  0  0  0
 11 14  1  0  0  0  0
 14 15  2  0  0  0  0
 14 16  1  0  0  0  0
 16 17  1  0  0  0  0
 18 19  2  0  0  0  0
 18 20  1  0  0  0  0
 20 21  1  0  0  0  0
 20 22  1  0  0  0  0
 22 23  1  0  0  0  0
 22 24  1  0  0  0  0
 22 25  1  0  0  0  0
M  END
$$$$

  -OEChem-01062216063D

 25 24  0     1  0  0  0  0  0999 V2000
   -2.8438   -3.3706    1.1447 H   0  0  0  0  0  0  0  0  0  0  0  0
   -2.8559   -2.3159    0.8546 C   0  0  0  0  0  0  0  0  0  0  0  0
   -3.3362   -1.7398    1.6493 H   0  0  0  0  0  0  0  0  0  0  0  0
   -3.4359   -2.2104   -0.0652 H   0  0  0  0  0  0  0  0  0  0  0  0
   -1.4394   -1.8184    0.6367 C   0  0  0  0  0  0  0  0  0  0  0  0
   -0.5078   -2.5989    0.7164 O   0  0  0  0  0  0  0  0  0  0  0  0
   -1.2241   -0.4915    0.3109 N   0  0  0  0  0  0  0  0  0  0  0  0
   -2.0497    0.1028    0.3291 H   0  0  0  0  0  0  0  0  0  0  0  0
    0.0864    0.1969    0.3109 C   0  0  1  0  0  0  0  0  0  0  0  0
   -0.0569    1.2151   -0.0652 H   0  0  0  0  0  0  0  0  0  0  0  0
    0.6162    0.2743    1.7656 C   0  0  0  0  0  0  0  0  0  0  0  0
    0.6398   -0.7234    2.2114 H   0  0  0  0  0  0  0  0  0  0  0  0
    1.6440    0.6475    1.7654 H   0  0  0  0  0  0  0  0  0  0  0  0
   -0.1906    1.2108    2.6582 C   0  0  0  0  0  0  0  0  0  0  0  0
   -0.7640    2.1701    2.1657 O   0  0  0  0  0  0  0  0  0  0  0  0
   -0.2250    0.9219    3.9798 O   0  0  0  0  0  0  0  0  0  0  0  0
   -0.7433    1.6255    4.3981 H   0  0  0  0  0  0  0  0  0  0  0  0
    1.1290   -0.4225   -0.6567 C   0  0  0  0  0  0  0  0  0  0  0  0
    2.3258   -0.2115   -0.5038 O   0  0  0  0  0  0  0  0  0  0  0  0
    0.7111   -1.0529   -1.8145 N   0  0  0  0  0  0  0  0  0  0  0  0
   -0.2588   -1.3517   -1.8194 H   0  0  0  0  0  0  0  0  0  0  0  0
    1.6385   -1.6980   -2.7360 C   0  0  0  0  0  0  0  0  0  0  0  0
    2.1855   -2.4996   -2.2285 H   0  0  0  0  0  0  0  0  0  0  0  0
    1.0935   -2.1293   -3.5810 H   0  0  0  0  0  0  0  0  0  0  0  0
    2.3595   -0.9720   -3.1265 H   0  0  0  0  0  0  0  0  0  0  0  0
  1  2  1  0  0  0  0
  2  3  1  0  0  0  0
  2  4  1  0  0  0  0
  2  5  1  0  0  0  0
  5  6  2  0  0  0  0
  5  7  1  0  0  0  0
  7  8  1  0  0  0  0
  7  9  1  0  0  0  0
  9 10  1  0  0  0  0
  9 11  1  0  0  0  0
  9 18  1  0  0  0  0
 11 12  1  0  0  0  0
 11 13  1  0  0  0  0
 11 14  1  0  0  0  0
 14 15  2  0  0  0  0
 14 16  1  0  0  0  0
 16 17  1  0  0  0  0
 18 19  2  0  0  0  0
 18 20  1  0  0  0  0
 20 21  1  0  0  0  0
 20 22  1  0  0  0  0
 22 23  1  0  0  0  0
 22 24  1  0  0  0  0
 22 25  1  0  0  0  0
M  END
$$$$

  -OEChem-01062216063D

 25 24  0     1  0  0  0  0  0999 V2000
   -2.8176   -3.3824    1.1261 H   0  0  0  0  0  0  0  0  0  0  0  0
   -2.8303   -2.3326    0.8188 C   0  0  0  0  0  0  0  0  0  0  0  0
   -3.3412   -1.7488    1.5881 H   0  0  0  0  0  0  0  0  0  0  0  0
   -3.3812   -2.2471   -0.1207 H   0  0  0  0  0  0  0  0  0  0  0  0
   -1.4120   -1.8251    0.6372 C   0  0  0  0  0  0  0  0  0  0  0  0
   -0.4781   -2.5982    0.7517 O   0  0  0  0  0  0  0  0  0  0  0  0
   -1.2004   -0.4964    0.3144 N   0  0  0  0  0  0  0  0  0  0  0  0
   -2.0291    0.0934    0.3195 H   0  0  0  0  0  0  0  0  0  0  0  0
    0.1077    0.1940    0.3264 C   0  0  1  0  0  0  0  0  0  0  0  0
   -0.0305    1.2112   -0.0542 H   0  0  0  0  0  0  0  0  0  0  0  0
    0.6261    0.2813    1.7848 C   0  0  0  0  0  0  0  0  0  0  0  0
    0.6491   -0.7136    2.2371 H   0  0  0  0  0  0  0  0  0  0  0  0
    1.6528    0.6572    1.7894 H   0  0  0  0  0  0  0  0  0  0  0  0
   -0.1909    1.2215    2.6641 C   0  0  0  0  0  0  0  0  0  0  0  0
   -0.7620    2.1757    2.1588 O   0  0  0  0  0  0  0  0  0  0  0  0
   -0.2392    0.9414    3.9870 O   0  0  0  0  0  0  0  0  0  0  0  0
   -0.7674    1.6441    4.3941 H   0  0  0  0  0  0  0  0  0  0  0  0
    1.1421   -0.4399   -0.6398 C   0  0  0  0  0  0  0  0  0  0  0  0
    2.3375   -0.4582   -0.3738 O   0  0  0  0  0  0  0  0  0  0  0  0
    0.7453   -0.7839   -1.9194 N   0  0  0  0  0  0  0  0  0  0  0  0
   -0.2551   -0.8667   -2.0674 H   0  0  0  0  0  0  0  0  0  0  0  0
    1.6479   -1.3887   -2.8914 C   0  0  0  0  0  0  0  0  0  0  0  0
    2.0370   -2.3394   -2.5119 H   0  0  0  0  0  0  0  0  0  0  0  0
    1.1197   -1.5794   -3.8304 H   0  0  0  0  0  0  0  0  0  0  0  0
    2.4905   -0.7210   -3.1002 H   0  0  0  0  0  0  0  0  0  0  0  0
  1  2  1  0  0  0  0
  2  3  1  0  0  0  0
  2  4  1  0  0  0  0
  2  5  1  0  0  0  0
  5  6  2  0  0  0  0
  5  7  1  0  0  0  0
  7  8  1  0  0  0  0
  7  9  1  0  0  0  0
  9 10  1  0  0  0  0
  9 11  1  0  0  0  0
  9 18  1  0  0  0  0
 11 12  1  0  0  0  0
 11 13  1  0  0  0  0
 11 14  1  0  0  0  0
 14 15  2  0  0  0  0
 14 16  1  0  0  0  0
 16 17  1  0  0  0  0
 18 19  2  0  0  0  0
 18 20  1  0  0  0  0
 20 21  1  0  0  0  0
 20 22  1  0  0  0  0
 22 23  1  0  0  0  0
 22 24  1  0  0  0  0
 22 25  1  0  0  0  0
M  END
$$$$

  -OEChem-01062216063D

 25 24  0     1  0  0  0  0  0999 V2000
   -2.8169   -3.3920    1.1008 H   0  0  0  0  0  0  0  0  0  0  0  0
   -2.8260   -2.3391    0.8053 C   0  0  0  0  0  0  0  0  0  0  0  0
   -3.3410   -1.7629    1.5776 H   0  0  0  0  0  0  0  0  0  0  0  0
   -3.3699   -2.2432   -0.1373 H   0  0  0  0  0  0  0  0  0  0  0  0
   -1.4058   -1.8316    0.6391 C   0  0  0  0  0  0  0  0  0  0  0  0
   -0.4744   -2.6038    0.7742 O   0  0  0  0  0  0  0  0  0  0  0  0
   -1.1941   -0.5035    0.3140 N   0  0  0  0  0  0  0  0  0  0  0  0
   -2.0252    0.0824    0.3103 H   0  0  0  0  0  0  0  0  0  0  0  0
    0.1109    0.1901    0.3275 C   0  0  1  0  0  0  0  0  0  0  0  0
   -0.0277    1.2069   -0.0537 H   0  0  0  0  0  0  0  0  0  0  0  0
    0.6288    0.2831    1.7853 C   0  0  0  0  0  0  0  0  0  0  0  0
    0.6543   -0.7111    2.2396 H   0  0  0  0  0  0  0  0  0  0  0  0
    1.6552    0.6601    1.7855 H   0  0  0  0  0  0  0  0  0  0  0  0
   -0.1895    1.2227    2.6637 C   0  0  0  0  0  0  0  0  0  0  0  0
   -0.7633    2.1743    2.1562 O   0  0  0  0  0  0  0  0  0  0  0  0
   -0.2321    0.9486    3.9881 O   0  0  0  0  0  0  0  0  0  0  0  0
   -0.7618    1.6506    4.3944 H   0  0  0  0  0  0  0  0  0  0  0  0
    1.1426   -0.4503   -0.6370 C   0  0  0  0  0  0  0  0  0  0  0  0
    2.2899   -0.6946   -0.2848 O   0  0  0  0  0  0  0  0  0  0  0  0
    0.8441   -0.5097   -1.9866 N   0  0  0  0  0  0  0  0  0  0  0  0
   -0.1299   -0.3814   -2.2407 H   0  0  0  0  0  0  0  0  0  0  0  0
    1.7579   -1.0694   -2.9755 C   0  0  0  0  0  0  0  0  0  0  0  0
    1.9783   -2.1168   -2.7429 H   0  0  0  0  0  0  0  0  0  0  0  0
    1.3120   -1.0213   -3.9735 H   0  0  0  0  0  0  0  0  0  0  0  0
    2.6975   -0.5069   -2.9908 H   0  0  0  0  0  0  0  0  0  0  0  0
  1  2  1  0  0  0  0
  2  3  1  0  0  0  0
  2  4  1  0  0  0  0
  2  5  1  0  0  0  0
  5  6  2  0  0  0  0
  5  7  1  0  0  0  0
  7  8  1  0  0  0  0
  7  9  1  0  0  0  0
  9 10  1  0  0  0  0
  9 11  1  0  0  0  0
  9 18  1  0  0  0  0
 11 12  1  0  0  0  0
 11 13  1  0  0  0  0
 11 14  1  0  0  0  0
 14 15  2  0  0  0  0
 14 16  1  0  0  0  0
 16 17  1  0  0  0  0
 18 19  2  0  0  0  0
 18 20  1  0  0  0  0
 20 21  1  0  0  0  0
 20 22  1  0  0  0  0
 22 23  1  0  0  0  0
 22 24  1  0  0  0  0
 22 25  1  0  0  0  0
M  END
$$$$

  -OEChem-01062216063D

 25 24  0     1  0  0  0  0  0999 V2000
   -2.8374   -3.3974    1.0945 H   0  0  0  0  0  0  0  0  0  0  0  0
   -2.8392   -2.3453    0.7952 C   0  0  0  0  0  0  0  0  0  0  0  0
   -3.3688   -1.7656    1.5551 H   0  0  0  0  0  0  0  0  0  0  0  0
   -3.3639   -2.2520   -0.1586 H   0  0  0  0  0  0  0  0  0  0  0  0
   -1.4153   -1.8401    0.6562 C   0  0  0  0  0  0  0  0  0  0  0  0
   -0.4900   -2.6111    0.8305 O   0  0  0  0  0  0  0  0  0  0  0  0
   -1.1984   -0.5145    0.3236 N   0  0  0  0  0  0  0  0  0  0  0  0
   -2.0313    0.0669    0.2835 H   0  0  0  0  0  0  0  0  0  0  0  0
    0.1052    0.1811    0.3251 C   0  0  1  0  0  0  0  0  0  0  0  0
   -0.0397    1.1976   -0.0545 H   0  0  0  0  0  0  0  0  0  0  0  0
    0.6363    0.2803    1.7772 C   0  0  0  0  0  0  0  0  0  0  0  0
    0.6660   -0.7121    2.2354 H   0  0  0  0  0  0  0  0  0  0  0  0
    1.6635    0.6553    1.7636 H   0  0  0  0  0  0  0  0  0  0  0  0
   -0.1750    1.2219    2.6601 C   0  0  0  0  0  0  0  0  0  0  0  0
   -0.7547    2.1709    2.1539 O   0  0  0  0  0  0  0  0  0  0  0  0
   -0.2054    0.9527    3.9858 O   0  0  0  0  0  0  0  0  0  0  0  0
   -0.7382    1.6511    4.3938 H   0  0  0  0  0  0  0  0  0  0  0  0
    1.1362   -0.4590   -0.6407 C   0  0  0  0  0  0  0  0  0  0  0  0
    2.1959   -0.9246   -0.2408 O   0  0  0  0  0  0  0  0  0  0  0  0
    0.9904   -0.2517   -2.0013 N   0  0  0  0  0  0  0  0  0  0  0  0
    0.0923    0.0956   -2.3211 H   0  0  0  0  0  0  0  0  0  0  0  0
    1.9397   -0.7554   -2.9875 C   0  0  0  0  0  0  0  0  0  0  0  0
    2.0168   -1.8460   -2.9221 H   0  0  0  0  0  0  0  0  0  0  0  0
    1.6135   -0.4907   -3.9977 H   0  0  0  0  0  0  0  0  0  0  0  0
    2.9317   -0.3222   -2.8210 H   0  0  0  0  0  0  0  0  0  0  0  0
  1  2  1  0  0  0  0
  2  3  1  0  0  0  0
  2  4  1  0  0  0  0
  2  5  1  0  0  0  0
  5  6  2  0  0  0  0
  5  7  1  0  0  0  0
  7  8  1  0  0  0  0
  7  9  1  0  0  0  0
  9 10  1  0  0  0  0
  9 11  1  0  0  0  0
  9 18  1  0  0  0  0
 11 12  1  0  0  0  0
 11 13  1  0  0  0  0
 11 14  1  0  0  0  0
 14 15  2  0  0  0  0
 14 16  1  0  0  0  0
 16 17  1  0  0  0  0
 18 19  2  0  0  0  0
 18 20  1  0  0  0  0
 20 21  1  0  0  0  0
 20 22  1  0  0  0  0
 22 23  1  0  0  0  0
 22 24  1  0  0  0  0
 22 25  1  0  0  0  0
M  END
$$$$

  -OEChem-01062216063D

 25 24  0     1  0  0  0  0  0999 V2000
   -2.8702   -3.4088    1.0758 H   0  0  0  0  0  0  0  0  0  0  0  0
   -2.8611   -2.3592    0.7676 C   0  0  0  0  0  0  0  0  0  0  0  0
   -3.4260   -1.7745    1.4976 H   0  0  0  0  0  0  0  0  0  0  0  0
   -3.3423   -2.2759   -0.2096 H   0  0  0  0  0  0  0  0  0  0  0  0
   -1.4335   -1.8513    0.6878 C   0  0  0  0  0  0  0  0  0  0  0  0
   -0.5187   -2.6165    0.9269 O   0  0  0  0  0  0  0  0  0  0  0  0
   -1.2084   -0.5296    0.3450 N   0  0  0  0  0  0  0  0  0  0  0  0
   -2.0419    0.0428    0.2423 H   0  0  0  0  0  0  0  0  0  0  0  0
    0.0937    0.1687    0.3247 C   0  0  1  0  0  0  0  0  0  0  0  0
   -0.0641    1.1835   -0.0534 H   0  0  0  0  0  0  0  0  0  0  0  0
    0.6499    0.2789    1.7658 C   0  0  0  0  0  0  0  0  0  0  0  0
    0.6871   -0.7101    2.2311 H   0  0  0  0  0  0  0  0  0  0  0  0
    1.6774    0.6512    1.7298 H   0  0  0  0  0  0  0  0  0  0  0  0
   -0.1474    1.2247    2.6573 C   0  0  0  0  0  0  0  0  0  0  0  0
   -0.7378    2.1690    2.1543 O   0  0  0  0  0  0  0  0  0  0  0  0
   -0.1489    0.9696    3.9861 O   0  0  0  0  0  0  0  0  0  0  0  0
   -0.6798    1.6677    4.3971 H   0  0  0  0  0  0  0  0  0  0  0  0
    1.1235   -0.4663   -0.6462 C   0  0  0  0  0  0  0  0  0  0  0  0
    2.0623   -1.1416   -0.2456 O   0  0  0  0  0  0  0  0  0  0  0  0
    1.1643   -0.0238   -1.9575 N   0  0  0  0  0  0  0  0  0  0  0  0
    0.3860    0.5380   -2.2862 H   0  0  0  0  0  0  0  0  0  0  0  0
    2.1634   -0.4731   -2.9208 C   0  0  0  0  0  0  0  0  0  0  0  0
    2.1174   -1.5607   -3.0410 H   0  0  0  0  0  0  0  0  0  0  0  0
    1.9858   -0.0089   -3.8956 H   0  0  0  0  0  0  0  0  0  0  0  0
    3.1694   -0.1983   -2.5861 H   0  0  0  0  0  0  0  0  0  0  0  0
  1  2  1  0  0  0  0
  2  3  1  0  0  0  0
  2  4  1  0  0  0  0
  2  5  1  0  0  0  0
  5  6  2  0  0  0  0
  5  7  1  0  0  0  0
  7  8  1  0  0  0  0
  7  9  1  0  0  0  0
  9 10  1  0  0  0  0
  9 11  1  0  0  0  0
  9 18  1  0  0  0  0
 11 12  1  0  0  0  0
 11 13  1  0  0  0  0
 11 14  1  0  0  0  0
 14 15  2  0  0  0  0
 14 16  1  0  0  0  0
 16 17  1  0  0  0  0
 18 19  2  0  0  0  0
 18 20  1  0  0  0  0
 20 21  1  0  0  0  0
 20 22  1  0  0  0  0
 22 23  1  0  0  0  0
 22 24  1  0  0  0  0
 22 25  1  0  0  0  0
M  END
$$$$

  -OEChem-01062216063D

 25 24  0     1  0  0  0  0  0999 V2000
   -2.8936   -3.4346    1.0092 H   0  0  0  0  0  0  0  0  0  0  0  0
   -2.8734   -2.3858    0.6995 C   0  0  0  0  0  0  0  0  0  0  0  0
   -3.5067   -1.8073    1.3762 H   0  0  0  0  0  0  0  0  0  0  0  0
   -3.2702   -2.3122   -0.3158 H   0  0  0  0  0  0  0  0  0  0  0  0
   -1.4514   -1.8577    0.7403 C   0  0  0  0  0  0  0  0  0  0  0  0
   -0.5609   -2.5976    1.1122 O   0  0  0  0  0  0  0  0  0  0  0  0
   -1.2192   -0.5399    0.3849 N   0  0  0  0  0  0  0  0  0  0  0  0
   -2.0472   -0.0004    0.1494 H   0  0  0  0  0  0  0  0  0  0  0  0
    0.0800    0.1639    0.3360 C   0  0  1  0  0  0  0  0  0  0  0  0
   -0.0988    1.1748   -0.0417 H   0  0  0  0  0  0  0  0  0  0  0  0
    0.6732    0.2888    1.7600 C   0  0  0  0  0  0  0  0  0  0  0  0
    0.7260   -0.6951    2.2342 H   0  0  0  0  0  0  0  0  0  0  0  0
    1.6986    0.6621    1.6930 H   0  0  0  0  0  0  0  0  0  0  0  0
   -0.1046    1.2384    2.6646 C   0  0  0  0  0  0  0  0  0  0  0  0
   -0.7126    2.1759    2.1694 O   0  0  0  0  0  0  0  0  0  0  0  0
   -0.0621    0.9994    3.9958 O   0  0  0  0  0  0  0  0  0  0  0  0
   -0.5905    1.6944    4.4149 H   0  0  0  0  0  0  0  0  0  0  0  0
    1.1079   -0.4608   -0.6430 C   0  0  0  0  0  0  0  0  0  0  0  0
    1.8742   -1.3520   -0.3067 O   0  0  0  0  0  0  0  0  0  0  0  0
    1.3549    0.1736   -1.8493 N   0  0  0  0  0  0  0  0  0  0  0  0
    0.7486    0.9438   -2.1120 H   0  0  0  0  0  0  0  0  0  0  0  0
    2.3889   -0.2573   -2.7839 C   0  0  0  0  0  0  0  0  0  0  0  0
    2.2184   -1.2944   -3.0920 H   0  0  0  0  0  0  0  0  0  0  0  0
    2.3798    0.3747   -3.6771 H   0  0  0  0  0  0  0  0  0  0  0  0
    3.3785   -0.1861   -2.3203 H   0  0  0  0  0  0  0  0  0  0  0  0
  1  2  1  0  0  0  0
  2  3  1  0  0  0  0
  2  4  1  0  0  0  0
  2  5  1  0  0  0  0
  5  6  2  0  0  0  0
  5  7  1  0  0  0  0
  7  8  1  0  0  0  0
  7  9  1  0  0  0  0
  9 10  1  0  0  0  0
  9 11  1  0  0  0  0
  9 18  1  0  0  0  0
 11 12  1  0  0  0  0
 11 13  1  0  0  0  0
 11 14  1  0  0  0  0
 14 15  2  0  0  0  0
 14 16  1  0  0  0  0
 16 17  1  0  0  0  0
 18 19  2  0  0  0  0
 18 20  1  0  0  0  0
 20 21  1  0  0  0  0
 20 22  1  0  0  0  0
 22 23  1  0  0  0  0
 22 24  1  0  0  0  0
 22 25  1  0  0  0  0
M  END
$$$$

  -OEChem-01062216063D

 25 24  0     1  0  0  0  0  0999 V2000
   -2.8463   -3.4875    0.8765 H   0  0  0  0  0  0  0  0  0  0  0  0
   -2.8254   -2.4437    0.5503 C   0  0  0  0  0  0  0  0  0  0  0  0
   -3.5917   -1.8890    1.0970 H   0  0  0  0  0  0  0  0  0  0  0  0
   -3.0479   -2.4067   -0.5187 H   0  0  0  0  0  0  0  0  0  0  0  0
   -1.4581   -1.8415    0.8166 C   0  0  0  0  0  0  0  0  0  0  0  0
   -0.6339   -2.5073    1.4157 O   0  0  0  0  0  0  0  0  0  0  0  0
   -1.2318   -0.5231    0.4547 N   0  0  0  0  0  0  0  0  0  0  0  0
   -2.0166   -0.0698   -0.0032 H   0  0  0  0  0  0  0  0  0  0  0  0
    0.0692    0.1784    0.3871 C   0  0  1  0  0  0  0  0  0  0  0  0
   -0.1271    1.1848    0.0062 H   0  0  0  0  0  0  0  0  0  0  0  0
    0.7033    0.3225    1.7911 C   0  0  0  0  0  0  0  0  0  0  0  0
    0.7754   -0.6524    2.2791 H   0  0  0  0  0  0  0  0  0  0  0  0
    1.7245    0.6986    1.6895 H   0  0  0  0  0  0  0  0  0  0  0  0
   -0.0488    1.2845    2.7051 C   0  0  0  0  0  0  0  0  0  0  0  0
   -0.6711    2.2151    2.2146 O   0  0  0  0  0  0  0  0  0  0  0  0
    0.0439    1.0724    4.0383 O   0  0  0  0  0  0  0  0  0  0  0  0
   -0.4825    1.7661    4.4620 H   0  0  0  0  0  0  0  0  0  0  0  0
    1.0889   -0.4410   -0.6034 C   0  0  0  0  0  0  0  0  0  0  0  0
    1.5301   -1.5729   -0.4811 O   0  0  0  0  0  0  0  0  0  0  0  0
    1.5647    0.3297   -1.6514 N   0  0  0  0  0  0  0  0  0  0  0  0
    1.2314    1.2855   -1.7278 H   0  0  0  0  0  0  0  0  0  0  0  0
    2.5545   -0.1477   -2.6111 C   0  0  0  0  0  0  0  0  0  0  0  0
    2.1959   -1.0517   -3.1147 H   0  0  0  0  0  0  0  0  0  0  0  0
    2.7455    0.6165   -3.3705 H   0  0  0  0  0  0  0  0  0  0  0  0
    3.4982   -0.3780   -2.1054 H   0  0  0  0  0  0  0  0  0  0  0  0
  1  2  1  0  0  0  0
  2  3  1  0  0  0  0
  2  4  1  0  0  0  0
  2  5  1  0  0  0  0
  5  6  2  0  0  0  0
  5  7  1  0  0  0  0
  7  8  1  0  0  0  0
  7  9  1  0  0  0  0
  9 10  1  0  0  0  0
  9 11  1  0  0  0  0
  9 18  1  0  0  0  0
 11 12  1  0  0  0  0
 11 13  1  0  0  0  0
 11 14  1  0  0  0  0
 14 15  2  0  0  0  0
 14 16  1  0  0  0  0
 16 17  1  0  0  0  0
 18 19  2  0  0  0  0
 18 20  1  0  0  0  0
 20 21  1  0  0  0  0
 20 22  1  0  0  0  0
 22 23  1  0  0  0  0
 22 24  1  0  0  0  0
 22 25  1  0  0  0  0
M  END
$$$$

  -OEChem-01062216063D

 25 24  0     1  0  0  0  0  0999 V2000
   -2.7711   -3.5267    0.7962 H   0  0  0  0  0  0  0  0  0  0  0  0
   -2.7640   -2.4838    0.4670 C   0  0  0  0  0  0  0  0  0  0  0  0
   -3.6005   -1.9601    0.9352 H   0  0  0  0  0  0  0  0  0  0  0  0
   -2.8853   -2.4593   -0.6185 H   0  0  0  0  0  0  0  0  0  0  0  0
   -1.4545   -1.8236    0.8565 C   0  0  0  0  0  0  0  0  0  0  0  0
   -0.6727   -2.4399    1.5602 O   0  0  0  0  0  0  0  0  0  0  0  0
   -1.2387   -0.5036    0.4922 N   0  0  0  0  0  0  0  0  0  0  0  0
   -1.9767   -0.1070   -0.0813 H   0  0  0  0  0  0  0  0  0  0  0  0
    0.0721    0.1799    0.4313 C   0  0  1  0  0  0  0  0  0  0  0  0
   -0.1190    1.1814    0.0345 H   0  0  0  0  0  0  0  0  0  0  0  0
    0.7104    0.3425    1.8320 C   0  0  0  0  0  0  0  0  0  0  0  0
    0.7745   -0.6218    2.3405 H   0  0  0  0  0  0  0  0  0  0  0  0
    1.7346    0.7075    1.7226 H   0  0  0  0  0  0  0  0  0  0  0  0
   -0.0291    1.3300    2.7294 C   0  0  0  0  0  0  0  0  0  0  0  0
   -0.6412    2.2588    2.2240 O   0  0  0  0  0  0  0  0  0  0  0  0
    0.0692    1.1431    4.0657 O   0  0  0  0  0  0  0  0  0  0  0  0
   -0.4557    1.8450    4.4779 H   0  0  0  0  0  0  0  0  0  0  0  0
    1.0906   -0.4492   -0.5549 C   0  0  0  0  0  0  0  0  0  0  0  0
    1.1596   -1.6521   -0.7591 O   0  0  0  0  0  0  0  0  0  0  0  0
    1.8147    0.3857   -1.3897 N   0  0  0  0  0  0  0  0  0  0  0  0
    1.7486    1.3867   -1.2320 H   0  0  0  0  0  0  0  0  0  0  0  0
    2.7326   -0.1042   -2.4125 C   0  0  0  0  0  0  0  0  0  0  0  0
    2.2020   -0.7335   -3.1350 H   0  0  0  0  0  0  0  0  0  0  0  0
    3.1822    0.7350   -2.9518 H   0  0  0  0  0  0  0  0  0  0  0  0
    3.5353   -0.6927   -1.9559 H   0  0  0  0  0  0  0  0  0  0  0  0
  1  2  1  0  0  0  0
  2  3  1  0  0  0  0
  2  4  1  0  0  0  0
  2  5  1  0  0  0  0
  5  6  2  0  0  0  0
  5  7  1  0  0  0  0
  7  8  1  0  0  0  0
  7  9  1  0  0  0  0
  9 10  1  0  0  0  0
  9 11  1  0  0  0  0
  9 18  1  0  0  0  0
 11 12  1  0  0  0  0
 11 13  1  0  0  0  0
 11 14  1  0  0  0  0
 14 15  2  0  0  0  0
 14 16  1  0  0  0  0
 16 17  1  0  0  0  0
 18 19  2  0  0  0  0
 18 20  1  0  0  0  0
 20 21  1  0  0  0  0
 20 22  1  0  0  0  0
 22 23  1  0  0  0  0
 22 24  1  0  0  0  0
 22 25  1  0  0  0  0
M  END
$$$$

  -OEChem-01062216063D

 25 24  0     1  0  0  0  0  0999 V2000
   -2.7699   -3.5232    0.8253 H   0  0  0  0  0  0  0  0  0  0  0  0
   -2.7563   -2.4883    0.4718 C   0  0  0  0  0  0  0  0  0  0  0  0
   -3.5961   -1.9514    0.9188 H   0  0  0  0  0  0  0  0  0  0  0  0
   -2.8660   -2.4886   -0.6153 H   0  0  0  0  0  0  0  0  0  0  0  0
   -1.4485   -1.8227    0.8574 C   0  0  0  0  0  0  0  0  0  0  0  0
   -0.6474   -2.4432    1.5369 O   0  0  0  0  0  0  0  0  0  0  0  0
   -1.2365   -0.5016    0.4953 N   0  0  0  0  0  0  0  0  0  0  0  0
   -1.9654   -0.1099   -0.0933 H   0  0  0  0  0  0  0  0  0  0  0  0
    0.0794    0.1719    0.4431 C   0  0  1  0  0  0  0  0  0  0  0  0
   -0.1006    1.1715    0.0359 H   0  0  0  0  0  0  0  0  0  0  0  0
    0.7049    0.3404    1.8499 C   0  0  0  0  0  0  0  0  0  0  0  0
    0.7560   -0.6194    2.3678 H   0  0  0  0  0  0  0  0  0  0  0  0
    1.7327    0.6977    1.7507 H   0  0  0  0  0  0  0  0  0  0  0  0
   -0.0370    1.3400    2.7322 C   0  0  0  0  0  0  0  0  0  0  0  0
   -0.6373    2.2693    2.2147 O   0  0  0  0  0  0  0  0  0  0  0  0
    0.0459    1.1613    4.0707 O   0  0  0  0  0  0  0  0  0  0  0  0
   -0.4795    1.8691    4.4725 H   0  0  0  0  0  0  0  0  0  0  0  0
    1.0966   -0.4657   -0.5396 C   0  0  0  0  0  0  0  0  0  0  0  0
    0.9397   -1.5839   -1.0110 O   0  0  0  0  0  0  0  0  0  0  0  0
    2.0451    0.3490   -1.1353 N   0  0  0  0  0  0  0  0  0  0  0  0
    2.1446    1.2954   -0.7809 H   0  0  0  0  0  0  0  0  0  0  0  0
    2.9583   -0.1105   -2.1763 C   0  0  0  0  0  0  0  0  0  0  0  0
    2.4000   -0.4353   -3.0607 H   0  0  0  0  0  0  0  0  0  0  0  0
    3.6332    0.6982   -2.4724 H   0  0  0  0  0  0  0  0  0  0  0  0
    3.5619   -0.9493   -1.8135 H   0  0  0  0  0  0  0  0  0  0  0  0
  1  2  1  0  0  0  0
  2  3  1  0  0  0  0
  2  4  1  0  0  0  0
  2  5  1  0  0  0  0
  5  6  2  0  0  0  0
  5  7  1  0  0  0  0
  7  8  1  0  0  0  0
  7  9  1  0  0  0  0
  9 10  1  0  0  0  0
  9 11  1  0  0  0  0
  9 18  1  0  0  0  0
 11 12  1  0  0  0  0
 11 13  1  0  0  0  0
 11 14  1  0  0  0  0
 14 15  2  0  0  0  0
 14 16  1  0  0  0  0
 16 17  1  0  0  0  0
 18 19  2  0  0  0  0
 18 20  1  0  0  0  0
 20 21  1  0  0  0  0
 20 22  1  0  0  0  0
 22 23  1  0  0  0  0
 22 24  1  0  0  0  0
 22 25  1  0  0  0  0
M  END
$$$$

  -OEChem-01062216063D

 25 24  0     1  0  0  0  0  0999 V2000
   -2.7618   -3.5165    0.8450 H   0  0  0  0  0  0  0  0  0  0  0  0
   -2.7538   -2.4814    0.4921 C   0  0  0  0  0  0  0  0  0  0  0  0
   -3.5805   -1.9426    0.9605 H   0  0  0  0  0  0  0  0  0  0  0  0
   -2.8909   -2.4795   -0.5919 H   0  0  0  0  0  0  0  0  0  0  0  0
   -1.4349   -1.8197    0.8447 C   0  0  0  0  0  0  0  0  0  0  0  0
   -0.6020   -2.4531    1.4731 O   0  0  0  0  0  0  0  0  0  0  0  0
   -1.2322   -0.4957    0.4898 N   0  0  0  0  0  0  0  0  0  0  0  0
   -1.9642   -0.1008   -0.0929 H   0  0  0  0  0  0  0  0  0  0  0  0
    0.0817    0.1809    0.4446 C   0  0  1  0  0  0  0  0  0  0  0  0
   -0.0910    1.1820    0.0375 H   0  0  0  0  0  0  0  0  0  0  0  0
    0.6949    0.3429    1.8591 C   0  0  0  0  0  0  0  0  0  0  0  0
    0.7431   -0.6190    2.3730 H   0  0  0  0  0  0  0  0  0  0  0  0
    1.7223    0.7036    1.7753 H   0  0  0  0  0  0  0  0  0  0  0  0
   -0.0577    1.3363    2.7394 C   0  0  0  0  0  0  0  0  0  0  0  0
   -0.6556    2.2673    2.2221 O   0  0  0  0  0  0  0  0  0  0  0  0
    0.0123    1.1485    4.0773 O   0  0  0  0  0  0  0  0  0  0  0  0
   -0.5193    1.8524    4.4780 H   0  0  0  0  0  0  0  0  0  0  0  0
    1.0910   -0.4618   -0.5427 C   0  0  0  0  0  0  0  0  0  0  0  0
    0.7963   -1.4395   -1.2191 O   0  0  0  0  0  0  0  0  0  0  0  0
    2.2246    0.2470   -0.9039 N   0  0  0  0  0  0  0  0  0  0  0  0
    2.4399    1.0907   -0.3820 H   0  0  0  0  0  0  0  0  0  0  0  0
    3.1666   -0.2108   -1.9192 C   0  0  0  0  0  0  0  0  0  0  0  0
    2.6767   -0.2735   -2.8966 H   0  0  0  0  0  0  0  0  0  0  0  0
    4.0070    0.4855   -1.9979 H   0  0  0  0  0  0  0  0  0  0  0  0
    3.5600   -1.1991   -1.6584 H   0  0  0  0  0  0  0  0  0  0  0  0
  1  2  1  0  0  0  0
  2  3  1  0  0  0  0
  2  4  1  0  0  0  0
  2  5  1  0  0  0  0
  5  6  2  0  0  0  0
  5  7  1  0  0  0  0
  7  8  1  0  0  0  0
  7  9  1  0  0  0  0
  9 10  1  0  0  0  0
  9 11  1  0  0  0  0
  9 18  1  0  0  0  0
 11 12  1  0  0  0  0
 11 13  1  0  0  0  0
 11 14  1  0  0  0  0
 14 15  2  0  0  0  0
 14 16  1  0  0  0  0
 16 17  1  0  0  0  0
 18 19  2  0  0  0  0
 18 20  1  0  0  0  0
 20 21  1  0  0  0  0
 20 22  1  0  0  0  0
 22 23  1  0  0  0  0
 22 24  1  0  0  0  0
 22 25  1  0  0  0  0
M  END
$$$$

  -OEChem-01062216063D

 25 24  0     1  0  0  0  0  0999 V2000
   -2.8067   -3.5117    0.7460 H   0  0  0  0  0  0  0  0  0  0  0  0
   -2.7888   -2.4528    0.4729 C   0  0  0  0  0  0  0  0  0  0  0  0
   -3.5509   -1.9265    1.0521 H   0  0  0  0  0  0  0  0  0  0  0  0
   -3.0188   -2.3612   -0.5915 H   0  0  0  0  0  0  0  0  0  0  0  0
   -1.4206   -1.8618    0.7567 C   0  0  0  0  0  0  0  0  0  0  0  0
   -0.5522   -2.5825    1.2194 O   0  0  0  0  0  0  0  0  0  0  0  0
   -1.1984   -0.5280    0.4601 N   0  0  0  0  0  0  0  0  0  0  0  0
   -1.9521   -0.0803   -0.0531 H   0  0  0  0  0  0  0  0  0  0  0  0
    0.1046    0.1728    0.4553 C   0  0  1  0  0  0  0  0  0  0  0  0
   -0.1105    1.2368    0.3152 H   0  0  0  0  0  0  0  0  0  0  0  0
    0.8928    0.0402    1.7879 C   0  0  0  0  0  0  0  0  0  0  0  0
    1.0336   -1.0047    2.0664 H   0  0  0  0  0  0  0  0  0  0  0  0
    1.8922    0.4613    1.6665 H   0  0  0  0  0  0  0  0  0  0  0  0
    0.2487    0.7878    2.9519 C   0  0  0  0  0  0  0  0  0  0  0  0
   -0.4175    1.7874    2.7327 O   0  0  0  0  0  0  0  0  0  0  0  0
    0.4954    0.3159    4.1955 O   0  0  0  0  0  0  0  0  0  0  0  0
    0.0134    0.8940    4.8056 H   0  0  0  0  0  0  0  0  0  0  0  0
    0.9523   -0.2011   -0.7884 C   0  0  0  0  0  0  0  0  0  0  0  0
    0.4592   -0.8312   -1.7170 O   0  0  0  0  0  0  0  0  0  0  0  0
    2.2084    0.3509   -0.9747 N   0  0  0  0  0  0  0  0  0  0  0  0
    2.6050    0.8905   -0.2121 H   0  0  0  0  0  0  0  0  0  0  0  0
    3.0273    0.0950   -2.1543 C   0  0  0  0  0  0  0  0  0  0  0  0
    2.5175    0.4443   -3.0584 H   0  0  0  0  0  0  0  0  0  0  0  0
    3.9839    0.6201   -2.0731 H   0  0  0  0  0  0  0  0  0  0  0  0
    3.2285   -0.9769   -2.2551 H   0  0  0  0  0  0  0  0  0  0  0  0
  1  2  1  0  0  0  0
  2  3  1  0  0  0  0
  2  4  1  0  0  0  0
  2  5  1  0  0  0  0
  5  6  2  0  0  0  0
  5  7  1  0  0  0  0
  7  8  1  0  0  0  0
  7  9  1  0  0  0  0
  9 10  1  0  0  0  0
  9 11  1  0  0  0  0
  9 18  1  0  0  0  0
 11 12  1  0  0  0  0
 11 13  1  0  0  0  0
 11 14  1  0  0  0  0
 14 15  2  0  0  0  0
 14 16  1  0  0  0  0
 16 17  1  0  0  0  0
 18 19  2  0  0  0  0
 18 20  1  0  0  0  0
 20 21  1  0  0  0  0
 20 22  1  0  0  0  0
 22 23  1  0  0  0  0
 22 24  1  0  0  0  0
 22 25  1  0  0  0  0
M  END
$$$$

  -OEChem-01062216063D

 25 24  0     1  0  0  0  0  0999 V2000
   -2.7823   -3.5111    0.7409 H   0  0  0  0  0  0  0  0  0  0  0  0
   -2.7739   -2.4475    0.4868 C   0  0  0  0  0  0  0  0  0  0  0  0
   -3.5150   -1.9323    1.1021 H   0  0  0  0  0  0  0  0  0  0  0  0
   -3.0416   -2.3360   -0.5668 H   0  0  0  0  0  0  0  0  0  0  0  0
   -1.3966   -1.8606    0.7331 C   0  0  0  0  0  0  0  0  0  0  0  0
   -0.5075   -2.5877    1.1446 O   0  0  0  0  0  0  0  0  0  0  0  0
   -1.1819   -0.5231    0.4517 N   0  0  0  0  0  0  0  0  0  0  0  0
   -1.9435   -0.0638   -0.0400 H   0  0  0  0  0  0  0  0  0  0  0  0
    0.1153    0.1864    0.4646 C   0  0  1  0  0  0  0  0  0  0  0  0
   -0.0997    1.2508    0.3263 H   0  0  0  0  0  0  0  0  0  0  0  0
    0.8812    0.0503    1.8107 C   0  0  0  0  0  0  0  0  0  0  0  0
    1.0237   -0.9954    2.0859 H   0  0  0  0  0  0  0  0  0  0  0  0
    1.8776    0.4839    1.7130 H   0  0  0  0  0  0  0  0  0  0  0  0
    0.2113    0.7887    2.9659 C   0  0  0  0  0  0  0  0  0  0  0  0
   -0.4566    1.7856    2.7413 O   0  0  0  0  0  0  0  0  0  0  0  0
    0.4354    0.3086    4.2105 O   0  0  0  0  0  0  0  0  0  0  0  0
   -0.0586    0.8827    4.8148 H   0  0  0  0  0  0  0  0  0  0  0  0
    0.9615   -0.1819   -0.7822 C   0  0  0  0  0  0  0  0  0  0  0  0
    0.4101   -0.5811   -1.8018 O   0  0  0  0  0  0  0  0  0  0  0  0
    2.3149    0.1041   -0.8443 N   0  0  0  0  0  0  0  0  0  0  0  0
    2.7709    0.3965    0.0136 H   0  0  0  0  0  0  0  0  0  0  0  0
    3.1416   -0.1983   -2.0070 C   0  0  0  0  0  0  0  0  0  0  0  0
    2.7616    0.3200   -2.8938 H   0  0  0  0  0  0  0  0  0  0  0  0
    4.1718    0.1271   -1.8338 H   0  0  0  0  0  0  0  0  0  0  0  0
    3.1459   -1.2758   -2.2028 H   0  0  0  0  0  0  0  0  0  0  0  0
  1  2  1  0  0  0  0
  2  3  1  0  0  0  0
  2  4  1  0  0  0  0
  2  5  1  0  0  0  0
  5  6  2  0  0  0  0
  5  7  1  0  0  0  0
  7  8  1  0  0  0  0
  7  9  1  0  0  0  0
  9 10  1  0  0  0  0
  9 11  1  0  0  0  0
  9 18  1  0  0  0  0
 11 12  1  0  0  0  0
 11 13  1  0  0  0  0
 11 14  1  0  0  0  0
 14 15  2  0  0  0  0
 14 16  1  0  0  0  0
 16 17  1  0  0  0  0
 18 19  2  0  0  0  0
 18 20  1  0  0  0  0
 20 21  1  0  0  0  0
 20 22  1  0  0  0  0
 22 23  1  0  0  0  0
 22 24  1  0  0  0  0
 22 25  1  0  0  0  0
M  END
$$$$

  -OEChem-01062216063D

 25 24  0     1  0  0  0  0  0999 V2000
   -2.7537   -3.5111    0.7444 H   0  0  0  0  0  0  0  0  0  0  0  0
   -2.7539   -2.4472    0.4916 C   0  0  0  0  0  0  0  0  0  0  0  0
   -3.4835   -1.9345    1.1229 H   0  0  0  0  0  0  0  0  0  0  0  0
   -3.0438   -2.3351   -0.5561 H   0  0  0  0  0  0  0  0  0  0  0  0
   -1.3737   -1.8569    0.7111 C   0  0  0  0  0  0  0  0  0  0  0  0
   -0.4670   -2.5843    1.0824 O   0  0  0  0  0  0  0  0  0  0  0  0
   -1.1678   -0.5164    0.4411 N   0  0  0  0  0  0  0  0  0  0  0  0
   -1.9377   -0.0455   -0.0263 H   0  0  0  0  0  0  0  0  0  0  0  0
    0.1236    0.1997    0.4744 C   0  0  1  0  0  0  0  0  0  0  0  0
   -0.0921    1.2644    0.3360 H   0  0  0  0  0  0  0  0  0  0  0  0
    0.8720    0.0648    1.8299 C   0  0  0  0  0  0  0  0  0  0  0  0
    1.0178   -0.9809    2.1042 H   0  0  0  0  0  0  0  0  0  0  0  0
    1.8645    0.5105    1.7444 H   0  0  0  0  0  0  0  0  0  0  0  0
    0.1820    0.7957    2.9782 C   0  0  0  0  0  0  0  0  0  0  0  0
   -0.4893    1.7891    2.7486 O   0  0  0  0  0  0  0  0  0  0  0  0
    0.3924    0.3119    4.2239 O   0  0  0  0  0  0  0  0  0  0  0  0
   -0.1095    0.8841    4.8237 H   0  0  0  0  0  0  0  0  0  0  0  0
    0.9721   -0.1664   -0.7701 C   0  0  0  0  0  0  0  0  0  0  0  0
    0.4160   -0.3258   -1.8508 O   0  0  0  0  0  0  0  0  0  0  0  0
    2.3561   -0.1737   -0.7364 N   0  0  0  0  0  0  0  0  0  0  0  0
    2.7938   -0.1506    0.1789 H   0  0  0  0  0  0  0  0  0  0  0  0
    3.1752   -0.5326   -1.8885 C   0  0  0  0  0  0  0  0  0  0  0  0
    2.9695    0.1375   -2.7298 H   0  0  0  0  0  0  0  0  0  0  0  0
    4.2372   -0.4525   -1.6376 H   0  0  0  0  0  0  0  0  0  0  0  0
    2.9682   -1.5621   -2.1994 H   0  0  0  0  0  0  0  0  0  0  0  0
  1  2  1  0  0  0  0
  2  3  1  0  0  0  0
  2  4  1  0  0  0  0
  2  5  1  0  0  0  0
  5  6  2  0  0  0  0
  5  7  1  0  0  0  0
  7  8  1  0  0  0  0
  7  9  1  0  0  0  0
  9 10  1  0  0  0  0
  9 11  1  0  0  0  0
  9 18  1  0  0  0  0
 11 12  1  0  0  0  0
 11 13  1  0  0  0  0
 11 14  1  0  0  0  0
 14 15  2  0  0  0  0
 14 16  1  0  0  0  0
 16 17  1  0  0  0  0
 18 19  2  0  0  0  0
 18 20  1  0  0  0  0
 20 21  1  0  0  0  0
 20 22  1  0  0  0  0
 22 23  1  0  0  0  0
 22 24  1  0  0  0  0
 22 25  1  0  0  0  0
M  END
$$$$

  -OEChem-01062216063D

 25 24  0     1  0  0  0  0  0999 V2000
   -2.7472   -3.5066    0.7595 H   0  0  0  0  0  0  0  0  0  0  0  0
   -2.7518   -2.4415    0.5118 C   0  0  0  0  0  0  0  0  0  0  0  0
   -3.4589   -1.9301    1.1694 H   0  0  0  0  0  0  0  0  0  0  0  0
   -3.0761   -2.3233   -0.5251 H   0  0  0  0  0  0  0  0  0  0  0  0
   -1.3634   -1.8565    0.6894 C   0  0  0  0  0  0  0  0  0  0  0  0
   -0.4437   -2.5868    1.0217 O   0  0  0  0  0  0  0  0  0  0  0  0
   -1.1583   -0.5157    0.4225 N   0  0  0  0  0  0  0  0  0  0  0  0
   -1.9425   -0.0247    0.0014 H   0  0  0  0  0  0  0  0  0  0  0  0
    0.1307    0.2016    0.4704 C   0  0  1  0  0  0  0  0  0  0  0  0
   -0.0830    1.2664    0.3287 H   0  0  0  0  0  0  0  0  0  0  0  0
    0.8668    0.0690    1.8319 C   0  0  0  0  0  0  0  0  0  0  0  0
    1.0075   -0.9770    2.1088 H   0  0  0  0  0  0  0  0  0  0  0  0
    1.8605    0.5151    1.7498 H   0  0  0  0  0  0  0  0  0  0  0  0
    0.1660    0.7989    2.9744 C   0  0  0  0  0  0  0  0  0  0  0  0
   -0.5053    1.7909    2.7400 O   0  0  0  0  0  0  0  0  0  0  0  0
    0.3644    0.3130    4.2212 O   0  0  0  0  0  0  0  0  0  0  0  0
   -0.1398    0.8871    4.8174 H   0  0  0  0  0  0  0  0  0  0  0  0
    0.9881   -0.1655   -0.7647 C   0  0  0  0  0  0  0  0  0  0  0  0
    0.4864   -0.0916   -1.8801 O   0  0  0  0  0  0  0  0  0  0  0  0
    2.3335   -0.4714   -0.6572 N   0  0  0  0  0  0  0  0  0  0  0  0
    2.6738   -0.6884    0.2746 H   0  0  0  0  0  0  0  0  0  0  0  0
    3.1471   -0.8688   -1.8000 C   0  0  0  0  0  0  0  0  0  0  0  0
    3.1298   -0.0927   -2.5725 H   0  0  0  0  0  0  0  0  0  0  0  0
    4.1852   -1.0213   -1.4900 H   0  0  0  0  0  0  0  0  0  0  0  0
    2.7714   -1.8026   -2.2312 H   0  0  0  0  0  0  0  0  0  0  0  0
  1  2  1  0  0  0  0
  2  3  1  0  0  0  0
  2  4  1  0  0  0  0
  2  5  1  0  0  0  0
  5  6  2  0  0  0  0
  5  7  1  0  0  0  0
  7  8  1  0  0  0  0
  7  9  1  0  0  0  0
  9 10  1  0  0  0  0
  9 11  1  0  0  0  0
  9 18  1  0  0  0  0
 11 12  1  0  0  0  0
 11 13  1  0  0  0  0
 11 14  1  0  0  0  0
 14 15  2  0  0  0  0
 14 16  1  0  0  0  0
 16 17  1  0  0  0  0
 18 19  2  0  0  0  0
 18 20  1  0  0  0  0
 20 21  1  0  0  0  0
 20 22  1  0  0  0  0
 22 23  1  0  0  0  0
 22 24  1  0  0  0  0
 22 25  1  0  0  0  0
M  END
$$$$

  -OEChem-01062216063D

 25 24  0     1  0  0  0  0  0999 V2000
   -2.7408   -3.5027    0.7760 H   0  0  0  0  0  0  0  0  0  0  0  0
   -2.7493   -2.4369    0.5311 C   0  0  0  0  0  0  0  0  0  0  0  0
   -3.4387   -1.9260    1.2074 H   0  0  0  0  0  0  0  0  0  0  0  0
   -3.0994   -2.3149   -0.4969 H   0  0  0  0  0  0  0  0  0  0  0  0
   -1.3557   -1.8550    0.6744 C   0  0  0  0  0  0  0  0  0  0  0  0
   -0.4261   -2.5874    0.9746 O   0  0  0  0  0  0  0  0  0  0  0  0
   -1.1520   -0.5148    0.4042 N   0  0  0  0  0  0  0  0  0  0  0  0
   -1.9502   -0.0067    0.0319 H   0  0  0  0  0  0  0  0  0  0  0  0
    0.1351    0.2032    0.4623 C   0  0  1  0  0  0  0  0  0  0  0  0
   -0.0774    1.2680    0.3176 H   0  0  0  0  0  0  0  0  0  0  0  0
    0.8645    0.0720    1.8265 C   0  0  0  0  0  0  0  0  0  0  0  0
    1.0010   -0.9739    2.1059 H   0  0  0  0  0  0  0  0  0  0  0  0
    1.8604    0.5143    1.7431 H   0  0  0  0  0  0  0  0  0  0  0  0
    0.1587    0.8004    2.9667 C   0  0  0  0  0  0  0  0  0  0  0  0
   -0.5131    1.7917    2.7303 O   0  0  0  0  0  0  0  0  0  0  0  0
    0.3489    0.3109    4.2135 O   0  0  0  0  0  0  0  0  0  0  0  0
   -0.1552    0.8864    4.8085 H   0  0  0  0  0  0  0  0  0  0  0  0
    1.0025   -0.1681   -0.7615 C   0  0  0  0  0  0  0  0  0  0  0  0
    0.6035    0.1224   -1.8824 O   0  0  0  0  0  0  0  0  0  0  0  0
    2.2437   -0.7618   -0.6179 N   0  0  0  0  0  0  0  0  0  0  0  0
    2.4365   -1.1730    0.2914 H   0  0  0  0  0  0  0  0  0  0  0  0
    3.0423   -1.1996   -1.7563 C   0  0  0  0  0  0  0  0  0  0  0  0
    3.2483   -0.3584   -2.4266 H   0  0  0  0  0  0  0  0  0  0  0  0
    3.9981   -1.6067   -1.4132 H   0  0  0  0  0  0  0  0  0  0  0  0
    2.5140   -1.9771   -2.3182 H   0  0  0  0  0  0  0  0  0  0  0  0
  1  2  1  0  0  0  0
  2  3  1  0  0  0  0
  2  4  1  0  0  0  0
  2  5  1  0  0  0  0
  5  6  2  0  0  0  0
  5  7  1  0  0  0  0
  7  8  1  0  0  0  0
  7  9  1  0  0  0  0
  9 10  1  0  0  0  0
  9 11  1  0  0  0  0
  9 18  1  0  0  0  0
 11 12  1  0  0  0  0
 11 13  1  0  0  0  0
 11 14  1  0  0  0  0
 14 15  2  0  0  0  0
 14 16  1  0  0  0  0
 16 17  1  0  0  0  0
 18 19  2  0  0  0  0
 18 20  1  0  0  0  0
 20 21  1  0  0  0  0
 20 22  1  0  0  0  0
 22 23  1  0  0  0  0
 22 24  1  0  0  0  0
 22 25  1  0  0  0  0
M  END
$$$$

  -OEChem-01062216063D

 25 24  0     1  0  0  0  0  0999 V2000
   -2.7410   -3.4852    0.8400 H   0  0  0  0  0  0  0  0  0  0  0  0
   -2.7535   -2.4232    0.5795 C   0  0  0  0  0  0  0  0  0  0  0  0
   -3.4037   -1.8963    1.2820 H   0  0  0  0  0  0  0  0  0  0  0  0
   -3.1545   -2.3136   -0.4312 H   0  0  0  0  0  0  0  0  0  0  0  0
   -1.3496   -1.8521    0.6441 C   0  0  0  0  0  0  0  0  0  0  0  0
   -0.4072   -2.5905    0.8872 O   0  0  0  0  0  0  0  0  0  0  0  0
   -1.1470   -0.5128    0.3693 N   0  0  0  0  0  0  0  0  0  0  0  0
   -1.9649    0.0222    0.0886 H   0  0  0  0  0  0  0  0  0  0  0  0
    0.1402    0.2023    0.4404 C   0  0  1  0  0  0  0  0  0  0  0  0
   -0.0673    1.2684    0.2952 H   0  0  0  0  0  0  0  0  0  0  0  0
    0.8586    0.0637    1.8085 C   0  0  0  0  0  0  0  0  0  0  0  0
    0.9885   -0.9836    2.0859 H   0  0  0  0  0  0  0  0  0  0  0  0
    1.8581    0.4996    1.7294 H   0  0  0  0  0  0  0  0  0  0  0  0
    0.1457    0.7882    2.9466 C   0  0  0  0  0  0  0  0  0  0  0  0
   -0.5228    1.7817    2.7104 O   0  0  0  0  0  0  0  0  0  0  0  0
    0.3204    0.2882    4.1916 O   0  0  0  0  0  0  0  0  0  0  0  0
   -0.1816    0.8654    4.7866 H   0  0  0  0  0  0  0  0  0  0  0  0
    1.0223   -0.1747   -0.7688 C   0  0  0  0  0  0  0  0  0  0  0  0
    0.7885    0.3272   -1.8607 O   0  0  0  0  0  0  0  0  0  0  0  0
    2.0975   -1.0323   -0.6253 N   0  0  0  0  0  0  0  0  0  0  0  0
    2.0823   -1.6088    0.2134 H   0  0  0  0  0  0  0  0  0  0  0  0
    2.8879   -1.4935   -1.7600 C   0  0  0  0  0  0  0  0  0  0  0  0
    3.3099   -0.6427   -2.3055 H   0  0  0  0  0  0  0  0  0  0  0  0
    3.7134   -2.1229   -1.4142 H   0  0  0  0  0  0  0  0  0  0  0  0
    2.2671   -2.0785   -2.4467 H   0  0  0  0  0  0  0  0  0  0  0  0
  1  2  1  0  0  0  0
  2  3  1  0  0  0  0
  2  4  1  0  0  0  0
  2  5  1  0  0  0  0
  5  6  2  0  0  0  0
  5  7  1  0  0  0  0
  7  8  1  0  0  0  0
  7  9  1  0  0  0  0
  9 10  1  0  0  0  0
  9 11  1  0  0  0  0
  9 18  1  0  0  0  0
 11 12  1  0  0  0  0
 11 13  1  0  0  0  0
 11 14  1  0  0  0  0
 14 15  2  0  0  0  0
 14 16  1  0  0  0  0
 16 17  1  0  0  0  0
 18 19  2  0  0  0  0
 18 20  1  0  0  0  0
 20 21  1  0  0  0  0
 20 22  1  0  0  0  0
 22 23  1  0  0  0  0
 22 24  1  0  0  0  0
 22 25  1  0  0  0  0
M  END
$$$$

  -OEChem-01062216063D

 25 24  0     1  0  0  0  0  0999 V2000
   -2.7503   -3.4719    0.8905 H   0  0  0  0  0  0  0  0  0  0  0  0
   -2.7639   -2.4119    0.6216 C   0  0  0  0  0  0  0  0  0  0  0  0
   -3.3808   -1.8737    1.3451 H   0  0  0  0  0  0  0  0  0  0  0  0
   -3.2039   -2.3066   -0.3731 H   0  0  0  0  0  0  0  0  0  0  0  0
   -1.3536   -1.8533    0.6254 C   0  0  0  0  0  0  0  0  0  0  0  0
   -0.4062   -2.6000    0.8231 O   0  0  0  0  0  0  0  0  0  0  0  0
   -1.1493   -0.5157    0.3423 N   0  0  0  0  0  0  0  0  0  0  0  0
   -1.9780    0.0367    0.1367 H   0  0  0  0  0  0  0  0  0  0  0  0
    0.1391    0.1973    0.4188 C   0  0  1  0  0  0  0  0  0  0  0  0
   -0.0653    1.2641    0.2733 H   0  0  0  0  0  0  0  0  0  0  0  0
    0.8552    0.0533    1.7864 C   0  0  0  0  0  0  0  0  0  0  0  0
    0.9828   -0.9953    2.0597 H   0  0  0  0  0  0  0  0  0  0  0  0
    1.8567    0.4850    1.7072 H   0  0  0  0  0  0  0  0  0  0  0  0
    0.1423    0.7748    2.9262 C   0  0  0  0  0  0  0  0  0  0  0  0
   -0.5245    1.7700    2.6923 O   0  0  0  0  0  0  0  0  0  0  0  0
    0.3106    0.2676    4.1691 O   0  0  0  0  0  0  0  0  0  0  0  0
   -0.1876    0.8464    4.7658 H   0  0  0  0  0  0  0  0  0  0  0  0
    1.0343   -0.1856   -0.7773 C   0  0  0  0  0  0  0  0  0  0  0  0
    1.0118    0.4937   -1.7952 O   0  0  0  0  0  0  0  0  0  0  0  0
    1.8962   -1.2614   -0.6834 N   0  0  0  0  0  0  0  0  0  0  0  0
    1.6625   -1.9287    0.0528 H   0  0  0  0  0  0  0  0  0  0  0  0
    2.6809   -1.7363   -1.8156 C   0  0  0  0  0  0  0  0  0  0  0  0
    3.3174   -0.9347   -2.2049 H   0  0  0  0  0  0  0  0  0  0  0  0
    3.3240   -2.5661   -1.5072 H   0  0  0  0  0  0  0  0  0  0  0  0
    2.0229   -2.0843   -2.6187 H   0  0  0  0  0  0  0  0  0  0  0  0
  1  2  1  0  0  0  0
  2  3  1  0  0  0  0
  2  4  1  0  0  0  0
  2  5  1  0  0  0  0
  5  6  2  0  0  0  0
  5  7  1  0  0  0  0
  7  8  1  0  0  0  0
  7  9  1  0  0  0  0
  9 10  1  0  0  0  0
  9 11  1  0  0  0  0
  9 18  1  0  0  0  0
 11 12  1  0  0  0  0
 11 13  1  0  0  0  0
 11 14  1  0  0  0  0
 14 15  2  0  0  0  0
 14 16  1  0  0  0  0
 16 17  1  0  0  0  0
 18 19  2  0  0  0  0
 18 20  1  0  0  0  0
 20 21  1  0  0  0  0
 20 22  1  0  0  0  0
 22 23  1  0  0  0  0
 22 24  1  0  0  0  0
 22 25  1  0  0  0  0
M  END
$$$$

  -OEChem-01062216063D

 25 24  0     1  0  0  0  0  0999 V2000
   -2.8014   -3.4501    0.9429 H   0  0  0  0  0  0  0  0  0  0  0  0
   -2.8021   -2.3922    0.6655 C   0  0  0  0  0  0  0  0  0  0  0  0
   -3.3900   -1.8368    1.4001 H   0  0  0  0  0  0  0  0  0  0  0  0
   -3.2658   -2.2863   -0.3183 H   0  0  0  0  0  0  0  0  0  0  0  0
   -1.3819   -1.8602    0.6288 C   0  0  0  0  0  0  0  0  0  0  0  0
   -0.4458   -2.6246    0.8100 O   0  0  0  0  0  0  0  0  0  0  0  0
   -1.1619   -0.5282    0.3296 N   0  0  0  0  0  0  0  0  0  0  0  0
   -1.9920    0.0357    0.1642 H   0  0  0  0  0  0  0  0  0  0  0  0
    0.1293    0.1850    0.3956 C   0  0  1  0  0  0  0  0  0  0  0  0
   -0.0757    1.2518    0.2497 H   0  0  0  0  0  0  0  0  0  0  0  0
    0.8502    0.0352    1.7585 C   0  0  0  0  0  0  0  0  0  0  0  0
    0.9774   -1.0153    2.0254 H   0  0  0  0  0  0  0  0  0  0  0  0
    1.8525    0.4642    1.6754 H   0  0  0  0  0  0  0  0  0  0  0  0
    0.1441    0.7544    2.9038 C   0  0  0  0  0  0  0  0  0  0  0  0
   -0.5215    1.7518    2.6761 O   0  0  0  0  0  0  0  0  0  0  0  0
    0.3140    0.2412    4.1439 O   0  0  0  0  0  0  0  0  0  0  0  0
   -0.1786    0.8201    4.7450 H   0  0  0  0  0  0  0  0  0  0  0  0
    1.0413   -0.2001   -0.7873 C   0  0  0  0  0  0  0  0  0  0  0  0
    1.2299    0.5960   -1.6972 O   0  0  0  0  0  0  0  0  0  0  0  0
    1.6748   -1.4275   -0.8022 N   0  0  0  0  0  0  0  0  0  0  0  0
    1.3034   -2.1138   -0.1407 H   0  0  0  0  0  0  0  0  0  0  0  0
    2.4571   -1.9038   -1.9349 C   0  0  0  0  0  0  0  0  0  0  0  0
    3.2690   -1.2051   -2.1617 H   0  0  0  0  0  0  0  0  0  0  0  0
    2.8971   -2.8790   -1.7053 H   0  0  0  0  0  0  0  0  0  0  0  0
    1.8231   -2.0069   -2.8215 H   0  0  0  0  0  0  0  0  0  0  0  0
  1  2  1  0  0  0  0
  2  3  1  0  0  0  0
  2  4  1  0  0  0  0
  2  5  1  0  0  0  0
  5  6  2  0  0  0  0
  5  7  1  0  0  0  0
  7  8  1  0  0  0  0
  7  9  1  0  0  0  0
  9 10  1  0  0  0  0
  9 11  1  0  0  0  0
  9 18  1  0  0  0  0
 11 12  1  0  0  0  0
 11 13  1  0  0  0  0
 11 14  1  0  0  0  0
 14 15  2  0  0  0  0
 14 16  1  0  0  0  0
 16 17  1  0  0  0  0
 18 19  2  0  0  0  0
 18 20  1  0  0  0  0
 20 21  1  0  0  0  0
 20 22  1  0  0  0  0
 22 23  1  0  0  0  0
 22 24  1  0  0  0  0
 22 25  1  0  0  0  0
M  END
$$$$

  -OEChem-01062216063D

 25 24  0     1  0  0  0  0  0999 V2000
   -2.8803   -3.4195    1.0194 H   0  0  0  0  0  0  0  0  0  0  0  0
   -2.8641   -2.3654    0.7279 C   0  0  0  0  0  0  0  0  0  0  0  0
   -3.4179   -1.7873    1.4718 H   0  0  0  0  0  0  0  0  0  0  0  0
   -3.3532   -2.2610   -0.2437 H   0  0  0  0  0  0  0  0  0  0  0  0
   -1.4335   -1.8680    0.6439 C   0  0  0  0  0  0  0  0  0  0  0  0
   -0.5129   -2.6550    0.8035 O   0  0  0  0  0  0  0  0  0  0  0  0
   -1.1927   -0.5433    0.3276 N   0  0  0  0  0  0  0  0  0  0  0  0
   -2.0197    0.0341    0.1961 H   0  0  0  0  0  0  0  0  0  0  0  0
    0.1060    0.1630    0.3686 C   0  0  1  0  0  0  0  0  0  0  0  0
   -0.0968    1.2304    0.2225 H   0  0  0  0  0  0  0  0  0  0  0  0
    0.8392    0.0075    1.7227 C   0  0  0  0  0  0  0  0  0  0  0  0
    0.9595   -1.0453    1.9855 H   0  0  0  0  0  0  0  0  0  0  0  0
    1.8445    0.4275    1.6294 H   0  0  0  0  0  0  0  0  0  0  0  0
    0.1525    0.7331    2.8755 C   0  0  0  0  0  0  0  0  0  0  0  0
   -0.5063    1.7366    2.6542 O   0  0  0  0  0  0  0  0  0  0  0  0
    0.3279    0.2170    4.1137 O   0  0  0  0  0  0  0  0  0  0  0  0
   -0.1526    0.8008    4.7198 H   0  0  0  0  0  0  0  0  0  0  0  0
    1.0271   -0.2214   -0.8090 C   0  0  0  0  0  0  0  0  0  0  0  0
    1.4320    0.6460   -1.5709 O   0  0  0  0  0  0  0  0  0  0  0  0
    1.4273   -1.5303   -0.9913 N   0  0  0  0  0  0  0  0  0  0  0  0
    0.9911   -2.2239   -0.3781 H   0  0  0  0  0  0  0  0  0  0  0  0
    2.2474   -1.9801   -2.1073 C   0  0  0  0  0  0  0  0  0  0  0  0
    3.1928   -1.4281   -2.1356 H   0  0  0  0  0  0  0  0  0  0  0  0
    2.4739   -3.0456   -2.0031 H   0  0  0  0  0  0  0  0  0  0  0  0
    1.7205   -1.8270   -3.0548 H   0  0  0  0  0  0  0  0  0  0  0  0
  1  2  1  0  0  0  0
  2  3  1  0  0  0  0
  2  4  1  0  0  0  0
  2  5  1  0  0  0  0
  5  6  2  0  0  0  0
  5  7  1  0  0  0  0
  7  8  1  0  0  0  0
  7  9  1  0  0  0  0
  9 10  1  0  0  0  0
  9 11  1  0  0  0  0
  9 18  1  0  0  0  0
 11 12  1  0  0  0  0
 11 13  1  0  0  0  0
 11 14  1  0  0  0  0
 14 15  2  0  0  0  0
 14 16  1  0  0  0  0
 16 17  1  0  0  0  0
 18 19  2  0  0  0  0
 18 20  1  0  0  0  0
 20 21  1  0  0  0  0
 20 22  1  0  0  0  0
 22 23  1  0  0  0  0
 22 24  1  0  0  0  0
 22 25  1  0  0  0  0
M  END
$$$$

  -OEChem-01062216063D

 25 24  0     1  0  0  0  0  0999 V2000
   -2.9384   -3.4078    1.0766 H   0  0  0  0  0  0  0  0  0  0  0  0
   -2.9194   -2.3486    0.8045 C   0  0  0  0  0  0  0  0  0  0  0  0
   -3.4240   -1.7766    1.5870 H   0  0  0  0  0  0  0  0  0  0  0  0
   -3.4567   -2.2177   -0.1380 H   0  0  0  0  0  0  0  0  0  0  0  0
   -1.4868   -1.8719    0.6555 C   0  0  0  0  0  0  0  0  0  0  0  0
   -0.5716   -2.6726    0.7665 O   0  0  0  0  0  0  0  0  0  0  0  0
   -1.2414   -0.5506    0.3286 N   0  0  0  0  0  0  0  0  0  0  0  0
   -2.0676    0.0370    0.2463 H   0  0  0  0  0  0  0  0  0  0  0  0
    0.0627    0.1500    0.3327 C   0  0  1  0  0  0  0  0  0  0  0  0
   -0.1400    1.2181    0.1926 H   0  0  0  0  0  0  0  0  0  0  0  0
    0.8247   -0.0138    1.6691 C   0  0  0  0  0  0  0  0  0  0  0  0
    0.9445   -1.0685    1.9241 H   0  0  0  0  0  0  0  0  0  0  0  0
    1.8304    0.4006    1.5546 H   0  0  0  0  0  0  0  0  0  0  0  0
    0.1703    0.7134    2.8395 C   0  0  0  0  0  0  0  0  0  0  0  0
   -0.4864    1.7222    2.6362 O   0  0  0  0  0  0  0  0  0  0  0  0
    0.3691    0.1916    4.0719 O   0  0  0  0  0  0  0  0  0  0  0  0
   -0.0904    0.7787    4.6909 H   0  0  0  0  0  0  0  0  0  0  0  0
    0.9701   -0.2279   -0.8593 C   0  0  0  0  0  0  0  0  0  0  0  0
    1.5831    0.6512   -1.4494 O   0  0  0  0  0  0  0  0  0  0  0  0
    1.1340   -1.5436   -1.2451 N   0  0  0  0  0  0  0  0  0  0  0  0
    0.6784   -2.2458   -0.6568 H   0  0  0  0  0  0  0  0  0  0  0  0
    2.0541   -1.9747   -2.2886 C   0  0  0  0  0  0  0  0  0  0  0  0
    3.0838   -1.7148   -2.0223 H   0  0  0  0  0  0  0  0  0  0  0  0
    1.9930   -3.0591   -2.4210 H   0  0  0  0  0  0  0  0  0  0  0  0
    1.8043   -1.4958   -3.2411 H   0  0  0  0  0  0  0  0  0  0  0  0
  1  2  1  0  0  0  0
  2  3  1  0  0  0  0
  2  4  1  0  0  0  0
  2  5  1  0  0  0  0
  5  6  2  0  0  0  0
  5  7  1  0  0  0  0
  7  8  1  0  0  0  0
  7  9  1  0  0  0  0
  9 10  1  0  0  0  0
  9 11  1  0  0  0  0
  9 18  1  0  0  0  0
 11 12  1  0  0  0  0
 11 13  1  0  0  0  0
 11 14  1  0  0  0  0
 14 15  2  0  0  0  0
 14 16  1  0  0  0  0
 16 17  1  0  0  0  0
 18 19  2  0  0  0  0
 18 20  1  0  0  0  0
 20 21  1  0  0  0  0
 20 22  1  0  0  0  0
 22 23  1  0  0  0  0
 22 24  1  0  0  0  0
 22 25  1  0  0  0  0
M  END
$$$$

  -OEChem-01062216063D

 25 24  0     1  0  0  0  0  0999 V2000
   -2.9415   -3.3923    1.1388 H   0  0  0  0  0  0  0  0  0  0  0  0
   -2.9289   -2.3328    0.8674 C   0  0  0  0  0  0  0  0  0  0  0  0
   -3.3866   -1.7585    1.6766 H   0  0  0  0  0  0  0  0  0  0  0  0
   -3.5147   -2.1959   -0.0448 H   0  0  0  0  0  0  0  0  0  0  0  0
   -1.5028   -1.8666    0.6430 C   0  0  0  0  0  0  0  0  0  0  0  0
   -0.5907   -2.6771    0.6765 O   0  0  0  0  0  0  0  0  0  0  0  0
   -1.2612   -0.5452    0.3159 N   0  0  0  0  0  0  0  0  0  0  0  0
   -2.0852    0.0508    0.2961 H   0  0  0  0  0  0  0  0  0  0  0  0
    0.0461    0.1511    0.3109 C   0  0  1  0  0  0  0  0  0  0  0  0
   -0.1529    1.2204    0.1764 H   0  0  0  0  0  0  0  0  0  0  0  0
    0.8094   -0.0267    1.6451 C   0  0  0  0  0  0  0  0  0  0  0  0
    0.9211   -1.0847    1.8914 H   0  0  0  0  0  0  0  0  0  0  0  0
    1.8184    0.3807    1.5328 H   0  0  0  0  0  0  0  0  0  0  0  0
    0.1613    0.6971    2.8211 C   0  0  0  0  0  0  0  0  0  0  0  0
   -0.4890    1.7116    2.6249 O   0  0  0  0  0  0  0  0  0  0  0  0
    0.3534    0.1629    4.0494 O   0  0  0  0  0  0  0  0  0  0  0  0
   -0.1004    0.7494    4.6732 H   0  0  0  0  0  0  0  0  0  0  0  0
    0.9547   -0.2181   -0.8840 C   0  0  0  0  0  0  0  0  0  0  0  0
    1.7444    0.6134   -1.3113 O   0  0  0  0  0  0  0  0  0  0  0  0
    0.8971   -1.4647   -1.4762 N   0  0  0  0  0  0  0  0  0  0  0  0
    0.3824   -2.1732   -0.9485 H   0  0  0  0  0  0  0  0  0  0  0  0
    1.8262   -1.9012   -2.5097 C   0  0  0  0  0  0  0  0  0  0  0  0
    2.8492   -1.9231   -2.1202 H   0  0  0  0  0  0  0  0  0  0  0  0
    1.5627   -2.9061   -2.8535 H   0  0  0  0  0  0  0  0  0  0  0  0
    1.7903   -1.2232   -3.3688 H   0  0  0  0  0  0  0  0  0  0  0  0
  1  2  1  0  0  0  0
  2  3  1  0  0  0  0
  2  4  1  0  0  0  0
  2  5  1  0  0  0  0
  5  6  2  0  0  0  0
  5  7  1  0  0  0  0
  7  8  1  0  0  0  0
  7  9  1  0  0  0  0
  9 10  1  0  0  0  0
  9 11  1  0  0  0  0
  9 18  1  0  0  0  0
 11 12  1  0  0  0  0
 11 13  1  0  0  0  0
 11 14  1  0  0  0  0
 14 15  2  0  0  0  0
 14 16  1  0  0  0  0
 16 17  1  0  0  0  0
 18 19  2  0  0  0  0
 18 20  1  0  0  0  0
 20 21  1  0  0  0  0
 20 22  1  0  0  0  0
 22 23  1  0  0  0  0
 22 24  1  0  0  0  0
 22 25  1  0  0  0  0
M  END
$$$$

  -OEChem-01062216063D

 25 24  0     1  0  0  0  0  0999 V2000
   -2.9159   -3.3832    1.1804 H   0  0  0  0  0  0  0  0  0  0  0  0
   -2.9153   -2.3215    0.9175 C   0  0  0  0  0  0  0  0  0  0  0  0
   -3.3268   -1.7530    1.7550 H   0  0  0  0  0  0  0  0  0  0  0  0
   -3.5493   -2.1755    0.0395 H   0  0  0  0  0  0  0  0  0  0  0  0
   -1.5019   -1.8578    0.6205 C   0  0  0  0  0  0  0  0  0  0  0  0
   -0.5949   -2.6720    0.5691 O   0  0  0  0  0  0  0  0  0  0  0  0
   -1.2676   -0.5347    0.2983 N   0  0  0  0  0  0  0  0  0  0  0  0
   -2.0857    0.0681    0.3457 H   0  0  0  0  0  0  0  0  0  0  0  0
    0.0436    0.1546    0.2989 C   0  0  1  0  0  0  0  0  0  0  0  0
   -0.1472    1.2256    0.1680 H   0  0  0  0  0  0  0  0  0  0  0  0
    0.7931   -0.0385    1.6397 C   0  0  0  0  0  0  0  0  0  0  0  0
    0.8925   -1.0994    1.8791 H   0  0  0  0  0  0  0  0  0  0  0  0
    1.8073    0.3593    1.5424 H   0  0  0  0  0  0  0  0  0  0  0  0
    0.1398    0.6831    2.8138 C   0  0  0  0  0  0  0  0  0  0  0  0
   -0.5001    1.7041    2.6173 O   0  0  0  0  0  0  0  0  0  0  0  0
    0.3174    0.1421    4.0411 O   0  0  0  0  0  0  0  0  0  0  0  0
   -0.1289    0.7346    4.6646 H   0  0  0  0  0  0  0  0  0  0  0  0
    0.9572   -0.2102   -0.8947 C   0  0  0  0  0  0  0  0  0  0  0  0
    1.8932    0.5275   -1.1737 O   0  0  0  0  0  0  0  0  0  0  0  0
    0.7048   -1.3135   -1.6873 N   0  0  0  0  0  0  0  0  0  0  0  0
    0.1007   -2.0131   -1.2538 H   0  0  0  0  0  0  0  0  0  0  0  0
    1.6107   -1.7468   -2.7434 C   0  0  0  0  0  0  0  0  0  0  0  0
    2.5849   -2.0186   -2.3242 H   0  0  0  0  0  0  0  0  0  0  0  0
    1.1981   -2.6185   -3.2600 H   0  0  0  0  0  0  0  0  0  0  0  0
    1.7541   -0.9479   -3.4787 H   0  0  0  0  0  0  0  0  0  0  0  0
  1  2  1  0  0  0  0
  2  3  1  0  0  0  0
  2  4  1  0  0  0  0
  2  5  1  0  0  0  0
  5  6  2  0  0  0  0
  5  7  1  0  0  0  0
  7  8  1  0  0  0  0
  7  9  1  0  0  0  0
  9 10  1  0  0  0  0
  9 11  1  0  0  0  0
  9 18  1  0  0  0  0
 11 12  1  0  0  0  0
 11 13  1  0  0  0  0
 11 14  1  0  0  0  0
 14 15  2  0  0  0  0
 14 16  1  0  0  0  0
 16 17  1  0  0  0  0
 18 19  2  0  0  0  0
 18 20  1  0  0  0  0
 20 21  1  0  0  0  0
 20 22  1  0  0  0  0
 22 23  1  0  0  0  0
 22 24  1  0  0  0  0
 22 25  1  0  0  0  0
M  END
$$$$

  -OEChem-01062216063D

 25 24  0     1  0  0  0  0  0999 V2000
   -2.8700   -3.3873    1.1876 H   0  0  0  0  0  0  0  0  0  0  0  0
   -2.8817   -2.3216    0.9412 C   0  0  0  0  0  0  0  0  0  0  0  0
   -3.2631   -1.7674    1.8022 H   0  0  0  0  0  0  0  0  0  0  0  0
   -3.5482   -2.1639    0.0899 H   0  0  0  0  0  0  0  0  0  0  0  0
   -1.4813   -1.8500    0.5987 C   0  0  0  0  0  0  0  0  0  0  0  0
   -0.5757   -2.6596    0.4969 O   0  0  0  0  0  0  0  0  0  0  0  0
   -1.2600   -0.5230    0.2838 N   0  0  0  0  0  0  0  0  0  0  0  0
   -2.0754    0.0781    0.3773 H   0  0  0  0  0  0  0  0  0  0  0  0
    0.0518    0.1659    0.2949 C   0  0  1  0  0  0  0  0  0  0  0  0
   -0.1343    1.2380    0.1672 H   0  0  0  0  0  0  0  0  0  0  0  0
    0.7869   -0.0393    1.6436 C   0  0  0  0  0  0  0  0  0  0  0  0
    0.8819   -1.1026    1.8749 H   0  0  0  0  0  0  0  0  0  0  0  0
    1.8031    0.3572    1.5643 H   0  0  0  0  0  0  0  0  0  0  0  0
    0.1217    0.6754    2.8148 C   0  0  0  0  0  0  0  0  0  0  0  0
   -0.5135    1.6993    2.6174 O   0  0  0  0  0  0  0  0  0  0  0  0
    0.2777    0.1215    4.0395 O   0  0  0  0  0  0  0  0  0  0  0  0
   -0.1754    0.7096    4.6622 H   0  0  0  0  0  0  0  0  0  0  0  0
    0.9652   -0.1975   -0.9005 C   0  0  0  0  0  0  0  0  0  0  0  0
    2.0255    0.3964   -1.0492 O   0  0  0  0  0  0  0  0  0  0  0  0
    0.5531   -1.0940   -1.8681 N   0  0  0  0  0  0  0  0  0  0  0  0
   -0.1802   -1.7302   -1.5610 H   0  0  0  0  0  0  0  0  0  0  0  0
    1.4218   -1.5268   -2.9555 C   0  0  0  0  0  0  0  0  0  0  0  0
    2.3037   -2.0409   -2.5591 H   0  0  0  0  0  0  0  0  0  0  0  0
    0.8854   -2.2144   -3.6163 H   0  0  0  0  0  0  0  0  0  0  0  0
    1.7517   -0.6676   -3.5490 H   0  0  0  0  0  0  0  0  0  0  0  0
  1  2  1  0  0  0  0
  2  3  1  0  0  0  0
  2  4  1  0  0  0  0
  2  5  1  0  0  0  0
  5  6  2  0  0  0  0
  5  7  1  0  0  0  0
  7  8  1  0  0  0  0
  7  9  1  0  0  0  0
  9 10  1  0  0  0  0
  9 11  1  0  0  0  0
  9 18  1  0  0  0  0
 11 12  1  0  0  0  0
 11 13  1  0  0  0  0
 11 14  1  0  0  0  0
 14 15  2  0  0  0  0
 14 16  1  0  0  0  0
 16 17  1  0  0  0  0
 18 19  2  0  0  0  0
 18 20  1  0  0  0  0
 20 21  1  0  0  0  0
 20 22  1  0  0  0  0
 22 23  1  0  0  0  0
 22 24  1  0  0  0  0
 22 25  1  0  0  0  0
M  END
$$$$

  -OEChem-01062216063D

 25 24  0     1  0  0  0  0  0999 V2000
   -2.8258   -3.4048    1.1588 H   0  0  0  0  0  0  0  0  0  0  0  0
   -2.8458   -2.3385    0.9158 C   0  0  0  0  0  0  0  0  0  0  0  0
   -3.2370   -1.7908    1.7766 H   0  0  0  0  0  0  0  0  0  0  0  0
   -3.5086   -2.1840    0.0611 H   0  0  0  0  0  0  0  0  0  0  0  0
   -1.4478   -1.8528    0.5839 C   0  0  0  0  0  0  0  0  0  0  0  0
   -0.5334   -2.6533    0.4981 O   0  0  0  0  0  0  0  0  0  0  0  0
   -1.2388   -0.5201    0.2826 N   0  0  0  0  0  0  0  0  0  0  0  0
   -2.0562    0.0748    0.3958 H   0  0  0  0  0  0  0  0  0  0  0  0
    0.0711    0.1712    0.3053 C   0  0  1  0  0  0  0  0  0  0  0  0
   -0.1143    1.2432    0.1800 H   0  0  0  0  0  0  0  0  0  0  0  0
    0.7947   -0.0339    1.6623 C   0  0  0  0  0  0  0  0  0  0  0  0
    0.8917   -1.0968    1.8937 H   0  0  0  0  0  0  0  0  0  0  0  0
    1.8104    0.3660    1.5961 H   0  0  0  0  0  0  0  0  0  0  0  0
    0.1162    0.6795    2.8270 C   0  0  0  0  0  0  0  0  0  0  0  0
   -0.5188    1.7023    2.6223 O   0  0  0  0  0  0  0  0  0  0  0  0
    0.2580    0.1254    4.0533 O   0  0  0  0  0  0  0  0  0  0  0  0
   -0.2037    0.7117    4.6713 H   0  0  0  0  0  0  0  0  0  0  0  0
    0.9754   -0.1888   -0.8993 C   0  0  0  0  0  0  0  0  0  0  0  0
    2.1344    0.2047   -0.9369 O   0  0  0  0  0  0  0  0  0  0  0  0
    0.4476   -0.8203   -2.0101 N   0  0  0  0  0  0  0  0  0  0  0  0
   -0.4408   -1.2876   -1.8550 H   0  0  0  0  0  0  0  0  0  0  0  0
    1.2707   -1.2552   -3.1318 C   0  0  0  0  0  0  0  0  0  0  0  0
    2.0141   -1.9872   -2.7990 H   0  0  0  0  0  0  0  0  0  0  0  0
    0.6461   -1.7185   -3.9014 H   0  0  0  0  0  0  0  0  0  0  0  0
    1.7919   -0.4024   -3.5797 H   0  0  0  0  0  0  0  0  0  0  0  0
  1  2  1  0  0  0  0
  2  3  1  0  0  0  0
  2  4  1  0  0  0  0
  2  5  1  0  0  0  0
  5  6  2  0  0  0  0
  5  7  1  0  0  0  0
  7  8  1  0  0  0  0
  7  9  1  0  0  0  0
  9 10  1  0  0  0  0
  9 11  1  0  0  0  0
  9 18  1  0  0  0  0
 11 12  1  0  0  0  0
 11 13  1  0  0  0  0
 11 14  1  0  0  0  0
 14 15  2  0  0  0  0
 14 16  1  0  0  0  0
 16 17  1  0  0  0  0
 18 19  2  0  0  0  0
 18 20  1  0  0  0  0
 20 21  1  0  0  0  0
 20 22  1  0  0  0  0
 22 23  1  0  0  0  0
 22 24  1  0  0  0  0
 22 25  1  0  0  0  0
M  END
$$$$

  -OEChem-01062216063D

 25 24  0     1  0  0  0  0  0999 V2000
   -2.8005   -3.4190    1.1256 H   0  0  0  0  0  0  0  0  0  0  0  0
   -2.8218   -2.3531    0.8806 C   0  0  0  0  0  0  0  0  0  0  0  0
   -3.2316   -1.8064    1.7334 H   0  0  0  0  0  0  0  0  0  0  0  0
   -3.4699   -2.2040    0.0138 H   0  0  0  0  0  0  0  0  0  0  0  0
   -1.4203   -1.8604    0.5728 C   0  0  0  0  0  0  0  0  0  0  0  0
   -0.4997   -2.6560    0.5178 O   0  0  0  0  0  0  0  0  0  0  0  0
   -1.2159   -0.5244    0.2801 N   0  0  0  0  0  0  0  0  0  0  0  0
   -2.0358    0.0660    0.3976 H   0  0  0  0  0  0  0  0  0  0  0  0
    0.0923    0.1681    0.3160 C   0  0  1  0  0  0  0  0  0  0  0  0
   -0.0919    1.2398    0.1882 H   0  0  0  0  0  0  0  0  0  0  0  0
    0.8031   -0.0303    1.6818 C   0  0  0  0  0  0  0  0  0  0  0  0
    0.9007   -1.0921    1.9180 H   0  0  0  0  0  0  0  0  0  0  0  0
    1.8180    0.3727    1.6260 H   0  0  0  0  0  0  0  0  0  0  0  0
    0.1114    0.6865    2.8365 C   0  0  0  0  0  0  0  0  0  0  0  0
   -0.5235    1.7073    2.6200 O   0  0  0  0  0  0  0  0  0  0  0  0
    0.2460    0.1417    4.0679 O   0  0  0  0  0  0  0  0  0  0  0  0
   -0.2205    0.7314    4.6790 H   0  0  0  0  0  0  0  0  0  0  0  0
    0.9898   -0.1969   -0.8930 C   0  0  0  0  0  0  0  0  0  0  0  0
    2.2028   -0.0356   -0.8465 O   0  0  0  0  0  0  0  0  0  0  0  0
    0.4111   -0.5322   -2.1035 N   0  0  0  0  0  0  0  0  0  0  0  0
   -0.5692   -0.7924   -2.0629 H   0  0  0  0  0  0  0  0  0  0  0  0
    1.1916   -0.9357   -3.2670 C   0  0  0  0  0  0  0  0  0  0  0  0
    1.7702   -1.8385   -3.0445 H   0  0  0  0  0  0  0  0  0  0  0  0
    0.5295   -1.1462   -4.1123 H   0  0  0  0  0  0  0  0  0  0  0  0
    1.8826   -0.1385   -3.5614 H   0  0  0  0  0  0  0  0  0  0  0  0
  1  2  1  0  0  0  0
  2  3  1  0  0  0  0
  2  4  1  0  0  0  0
  2  5  1  0  0  0  0
  5  6  2  0  0  0  0
  5  7  1  0  0  0  0
  7  8  1  0  0  0  0
  7  9  1  0  0  0  0
  9 10  1  0  0  0  0
  9 11  1  0  0  0  0
  9 18  1  0  0  0  0
 11 12  1  0  0  0  0
 11 13  1  0  0  0  0
 11 14  1  0  0  0  0
 14 15  2  0  0  0  0
 14 16  1  0  0  0  0
 16 17  1  0  0  0  0
 18 19  2  0  0  0  0
 18 20  1  0  0  0  0
 20 21  1  0  0  0  0
 20 22  1  0  0  0  0
 22 23  1  0  0  0  0
 22 24  1  0  0  0  0
 22 25  1  0  0  0  0
M  END
$$$$

  -OEChem-01062216063D

 25 24  0     1  0  0  0  0  0999 V2000
   -2.7917   -3.4230    1.1178 H   0  0  0  0  0  0  0  0  0  0  0  0
   -2.8130   -2.3627    0.8503 C   0  0  0  0  0  0  0  0  0  0  0  0
   -3.2502   -1.8017    1.6796 H   0  0  0  0  0  0  0  0  0  0  0  0
   -3.4365   -2.2360   -0.0379 H   0  0  0  0  0  0  0  0  0  0  0  0
   -1.4064   -1.8673    0.5718 C   0  0  0  0  0  0  0  0  0  0  0  0
   -0.4836   -2.6617    0.5514 O   0  0  0  0  0  0  0  0  0  0  0  0
   -1.2005   -0.5308    0.2805 N   0  0  0  0  0  0  0  0  0  0  0  0
   -2.0227    0.0578    0.3881 H   0  0  0  0  0  0  0  0  0  0  0  0
    0.1068    0.1613    0.3220 C   0  0  1  0  0  0  0  0  0  0  0  0
   -0.0749    1.2330    0.1910 H   0  0  0  0  0  0  0  0  0  0  0  0
    0.8131   -0.0294    1.6911 C   0  0  0  0  0  0  0  0  0  0  0  0
    0.9117   -1.0900    1.9328 H   0  0  0  0  0  0  0  0  0  0  0  0
    1.8277    0.3743    1.6358 H   0  0  0  0  0  0  0  0  0  0  0  0
    0.1159    0.6928    2.8387 C   0  0  0  0  0  0  0  0  0  0  0  0
   -0.5189    1.7117    2.6128 O   0  0  0  0  0  0  0  0  0  0  0  0
    0.2441    0.1554    4.0739 O   0  0  0  0  0  0  0  0  0  0  0  0
   -0.2304    0.7455    4.6781 H   0  0  0  0  0  0  0  0  0  0  0  0
    0.9977   -0.2124   -0.8885 C   0  0  0  0  0  0  0  0  0  0  0  0
    2.2144   -0.3018   -0.7833 O   0  0  0  0  0  0  0  0  0  0  0  0
    0.4404   -0.2414   -2.1541 N   0  0  0  0  0  0  0  0  0  0  0  0
   -0.5730   -0.2732   -2.1960 H   0  0  0  0  0  0  0  0  0  0  0  0
    1.2028   -0.5926   -3.3462 C   0  0  0  0  0  0  0  0  0  0  0  0
    1.6075   -1.6063   -3.2557 H   0  0  0  0  0  0  0  0  0  0  0  0
    0.5619   -0.5517   -4.2320 H   0  0  0  0  0  0  0  0  0  0  0  0
    2.0335    0.1065   -3.4900 H   0  0  0  0  0  0  0  0  0  0  0  0
  1  2  1  0  0  0  0
  2  3  1  0  0  0  0
  2  4  1  0  0  0  0
  2  5  1  0  0  0  0
  5  6  2  0  0  0  0
  5  7  1  0  0  0  0
  7  8  1  0  0  0  0
  7  9  1  0  0  0  0
  9 10  1  0  0  0  0
  9 11  1  0  0  0  0
  9 18  1  0  0  0  0
 11 12  1  0  0  0  0
 11 13  1  0  0  0  0
 11 14  1  0  0  0  0
 14 15  2  0  0  0  0
 14 16  1  0  0  0  0
 16 17  1  0  0  0  0
 18 19  2  0  0  0  0
 18 20  1  0  0  0  0
 20 21  1  0  0  0  0
 20 22  1  0  0  0  0
 22 23  1  0  0  0  0
 22 24  1  0  0  0  0
 22 25  1  0  0  0  0
M  END
$$$$

  -OEChem-01062216063D

 25 24  0     1  0  0  0  0  0999 V2000
   -2.8064   -3.4272    1.1041 H   0  0  0  0  0  0  0  0  0  0  0  0
   -2.8187   -2.3687    0.8284 C   0  0  0  0  0  0  0  0  0  0  0  0
   -3.2758   -1.8004    1.6419 H   0  0  0  0  0  0  0  0  0  0  0  0
   -3.4188   -2.2473   -0.0764 H   0  0  0  0  0  0  0  0  0  0  0  0
   -1.4045   -1.8775    0.5819 C   0  0  0  0  0  0  0  0  0  0  0  0
   -0.4833   -2.6733    0.6023 O   0  0  0  0  0  0  0  0  0  0  0  0
   -1.1937   -0.5425    0.2859 N   0  0  0  0  0  0  0  0  0  0  0  0
   -2.0205    0.0439    0.3619 H   0  0  0  0  0  0  0  0  0  0  0  0
    0.1101    0.1544    0.3227 C   0  0  1  0  0  0  0  0  0  0  0  0
   -0.0745    1.2252    0.1904 H   0  0  0  0  0  0  0  0  0  0  0  0
    0.8213   -0.0272    1.6902 C   0  0  0  0  0  0  0  0  0  0  0  0
    0.9249   -1.0863    1.9364 H   0  0  0  0  0  0  0  0  0  0  0  0
    1.8342    0.3797    1.6266 H   0  0  0  0  0  0  0  0  0  0  0  0
    0.1253    0.6965    2.8378 C   0  0  0  0  0  0  0  0  0  0  0  0
   -0.5145    1.7121    2.6095 O   0  0  0  0  0  0  0  0  0  0  0  0
    0.2613    0.1659    4.0751 O   0  0  0  0  0  0  0  0  0  0  0  0
   -0.2165    0.7539    4.6787 H   0  0  0  0  0  0  0  0  0  0  0  0
    0.9969   -0.2249   -0.8890 C   0  0  0  0  0  0  0  0  0  0  0  0
    2.1680   -0.5550   -0.7528 O   0  0  0  0  0  0  0  0  0  0  0  0
    0.5329    0.0367   -2.1661 N   0  0  0  0  0  0  0  0  0  0  0  0
   -0.4574    0.2373   -2.2593 H   0  0  0  0  0  0  0  0  0  0  0  0
    1.3060   -0.2555   -3.3678 C   0  0  0  0  0  0  0  0  0  0  0  0
    1.5307   -1.3258   -3.4273 H   0  0  0  0  0  0  0  0  0  0  0  0
    0.7418    0.0311   -4.2604 H   0  0  0  0  0  0  0  0  0  0  0  0
    2.2483    0.3024   -3.3629 H   0  0  0  0  0  0  0  0  0  0  0  0
  1  2  1  0  0  0  0
  2  3  1  0  0  0  0
  2  4  1  0  0  0  0
  2  5  1  0  0  0  0
  5  6  2  0  0  0  0
  5  7  1  0  0  0  0
  7  8  1  0  0  0  0
  7  9  1  0  0  0  0
  9 10  1  0  0  0  0
  9 11  1  0  0  0  0
  9 18  1  0  0  0  0
 11 12  1  0  0  0  0
 11 13  1  0  0  0  0
 11 14  1  0  0  0  0
 14 15  2  0  0  0  0
 14 16  1  0  0  0  0
 16 17  1  0  0  0  0
 18 19  2  0  0  0  0
 18 20  1  0  0  0  0
 20 21  1  0  0  0  0
 20 22  1  0  0  0  0
 22 23  1  0  0  0  0
 22 24  1  0  0  0  0
 22 25  1  0  0  0  0
M  END
$$$$

  -OEChem-01062216063D

 25 24  0     1  0  0  0  0  0999 V2000
   -2.8336   -3.4353    1.0785 H   0  0  0  0  0  0  0  0  0  0  0  0
   -2.8361   -2.3786    0.7955 C   0  0  0  0  0  0  0  0  0  0  0  0
   -3.3277   -1.8056    1.5852 H   0  0  0  0  0  0  0  0  0  0  0  0
   -3.3984   -2.2650   -0.1343 H   0  0  0  0  0  0  0  0  0  0  0  0
   -1.4134   -1.8866    0.6049 C   0  0  0  0  0  0  0  0  0  0  0  0
   -0.4950   -2.6811    0.6852 O   0  0  0  0  0  0  0  0  0  0  0  0
   -1.1969   -0.5539    0.3013 N   0  0  0  0  0  0  0  0  0  0  0  0
   -2.0296    0.0282    0.3246 H   0  0  0  0  0  0  0  0  0  0  0  0
    0.1029    0.1503    0.3239 C   0  0  1  0  0  0  0  0  0  0  0  0
   -0.0900    1.2199    0.1944 H   0  0  0  0  0  0  0  0  0  0  0  0
    0.8333   -0.0213    1.6820 C   0  0  0  0  0  0  0  0  0  0  0  0
    0.9465   -1.0786    1.9317 H   0  0  0  0  0  0  0  0  0  0  0  0
    1.8436    0.3889    1.5989 H   0  0  0  0  0  0  0  0  0  0  0  0
    0.1491    0.7013    2.8371 C   0  0  0  0  0  0  0  0  0  0  0  0
   -0.5005    1.7118    2.6135 O   0  0  0  0  0  0  0  0  0  0  0  0
    0.3095    0.1792    4.0752 O   0  0  0  0  0  0  0  0  0  0  0  0
   -0.1686    0.7628    4.6825 H   0  0  0  0  0  0  0  0  0  0  0  0
    0.9849   -0.2295   -0.8911 C   0  0  0  0  0  0  0  0  0  0  0  0
    2.0624   -0.7941   -0.7560 O   0  0  0  0  0  0  0  0  0  0  0  0
    0.6733    0.2917   -2.1350 N   0  0  0  0  0  0  0  0  0  0  0  0
   -0.2375    0.7259   -2.2417 H   0  0  0  0  0  0  0  0  0  0  0  0
    1.4802    0.0485   -3.3253 C   0  0  0  0  0  0  0  0  0  0  0  0
    1.5352   -1.0245   -3.5374 H   0  0  0  0  0  0  0  0  0  0  0  0
    1.0395    0.5515   -4.1912 H   0  0  0  0  0  0  0  0  0  0  0  0
    2.4964    0.4318   -3.1846 H   0  0  0  0  0  0  0  0  0  0  0  0
  1  2  1  0  0  0  0
  2  3  1  0  0  0  0
  2  4  1  0  0  0  0
  2  5  1  0  0  0  0
  5  6  2  0  0  0  0
  5  7  1  0  0  0  0
  7  8  1  0  0  0  0
  7  9  1  0  0  0  0
  9 10  1  0  0  0  0
  9 11  1  0  0  0  0
  9 18  1  0  0  0  0
 11 12  1  0  0  0  0
 11 13  1  0  0  0  0
 11 14  1  0  0  0  0
 14 15  2  0  0  0  0
 14 16  1  0  0  0  0
 16 17  1  0  0  0  0
 18 19  2  0  0  0  0
 18 20  1  0  0  0  0
 20 21  1  0  0  0  0
 20 22  1  0  0  0  0
 22 23  1  0  0  0  0
 22 24  1  0  0  0  0
 22 25  1  0  0  0  0
M  END
$$$$

  -OEChem-01062216063D

 25 24  0     1  0  0  0  0  0999 V2000
   -2.8735   -3.4534    1.0239 H   0  0  0  0  0  0  0  0  0  0  0  0
   -2.8619   -2.3973    0.7394 C   0  0  0  0  0  0  0  0  0  0  0  0
   -3.4075   -1.8252    1.4935 H   0  0  0  0  0  0  0  0  0  0  0  0
   -3.3620   -2.2883   -0.2258 H   0  0  0  0  0  0  0  0  0  0  0  0
   -1.4319   -1.8986    0.6417 C   0  0  0  0  0  0  0  0  0  0  0  0
   -0.5211   -2.6859    0.8176 O   0  0  0  0  0  0  0  0  0  0  0  0
   -1.2074   -0.5685    0.3303 N   0  0  0  0  0  0  0  0  0  0  0  0
   -2.0450    0.0023    0.2608 H   0  0  0  0  0  0  0  0  0  0  0  0
    0.0883    0.1443    0.3312 C   0  0  1  0  0  0  0  0  0  0  0  0
   -0.1202    1.2110    0.2049 H   0  0  0  0  0  0  0  0  0  0  0  0
    0.8511   -0.0107    1.6721 C   0  0  0  0  0  0  0  0  0  0  0  0
    0.9794   -1.0649    1.9272 H   0  0  0  0  0  0  0  0  0  0  0  0
    1.8558    0.4056    1.5600 H   0  0  0  0  0  0  0  0  0  0  0  0
    0.1884    0.7131    2.8391 C   0  0  0  0  0  0  0  0  0  0  0  0
   -0.4757    1.7164    2.6244 O   0  0  0  0  0  0  0  0  0  0  0  0
    0.3950    0.2093    4.0779 O   0  0  0  0  0  0  0  0  0  0  0  0
   -0.0750    0.7923    4.6920 H   0  0  0  0  0  0  0  0  0  0  0  0
    0.9651   -0.2291   -0.8894 C   0  0  0  0  0  0  0  0  0  0  0  0
    1.8947   -1.0190   -0.8000 O   0  0  0  0  0  0  0  0  0  0  0  0
    0.8497    0.5087   -2.0555 N   0  0  0  0  0  0  0  0  0  0  0  0
    0.0804    1.1671   -2.1229 H   0  0  0  0  0  0  0  0  0  0  0  0
    1.7025    0.3000   -3.2205 C   0  0  0  0  0  0  0  0  0  0  0  0
    1.5950   -0.7234   -3.5950 H   0  0  0  0  0  0  0  0  0  0  0  0
    1.4270    0.9927   -4.0212 H   0  0  0  0  0  0  0  0  0  0  0  0
    2.7528    0.4718   -2.9623 H   0  0  0  0  0  0  0  0  0  0  0  0
  1  2  1  0  0  0  0
  2  3  1  0  0  0  0
  2  4  1  0  0  0  0
  2  5  1  0  0  0  0
  5  6  2  0  0  0  0
  5  7  1  0  0  0  0
  7  8  1  0  0  0  0
  7  9  1  0  0  0  0
  9 10  1  0  0  0  0
  9 11  1  0  0  0  0
  9 18  1  0  0  0  0
 11 12  1  0  0  0  0
 11 13  1  0  0  0  0
 11 14  1  0  0  0  0
 14 15  2  0  0  0  0
 14 16  1  0  0  0  0
 16 17  1  0  0  0  0
 18 19  2  0  0  0  0
 18 20  1  0  0  0  0
 20 21  1  0  0  0  0
 20 22  1  0  0  0  0
 22 23  1  0  0  0  0
 22 24  1  0  0  0  0
 22 25  1  0  0  0  0
M  END
$$$$

  -OEChem-01062216063D

 25 24  0     1  0  0  0  0  0999 V2000
   -2.8923   -3.4728    0.9243 H   0  0  0  0  0  0  0  0  0  0  0  0
   -2.8665   -2.4170    0.6396 C   0  0  0  0  0  0  0  0  0  0  0  0
   -3.4978   -1.8520    1.3293 H   0  0  0  0  0  0  0  0  0  0  0  0
   -3.2617   -2.3176   -0.3740 H   0  0  0  0  0  0  0  0  0  0  0  0
   -1.4423   -1.8960    0.6931 C   0  0  0  0  0  0  0  0  0  0  0  0
   -0.5543   -2.6590    1.0242 O   0  0  0  0  0  0  0  0  0  0  0  0
   -1.2115   -0.5675    0.3762 N   0  0  0  0  0  0  0  0  0  0  0  0
   -2.0423   -0.0312    0.1450 H   0  0  0  0  0  0  0  0  0  0  0  0
    0.0802    0.1535    0.3577 C   0  0  1  0  0  0  0  0  0  0  0  0
   -0.1464    1.2168    0.2365 H   0  0  0  0  0  0  0  0  0  0  0  0
    0.8792    0.0108    1.6773 C   0  0  0  0  0  0  0  0  0  0  0  0
    1.0271   -1.0401    1.9332 H   0  0  0  0  0  0  0  0  0  0  0  0
    1.8758    0.4372    1.5368 H   0  0  0  0  0  0  0  0  0  0  0  0
    0.2390    0.7320    2.8587 C   0  0  0  0  0  0  0  0  0  0  0  0
   -0.4409    1.7277    2.6578 O   0  0  0  0  0  0  0  0  0  0  0  0
    0.4865    0.2373    4.0936 O   0  0  0  0  0  0  0  0  0  0  0  0
    0.0144    0.8088    4.7167 H   0  0  0  0  0  0  0  0  0  0  0  0
    0.9485   -0.2132   -0.8701 C   0  0  0  0  0  0  0  0  0  0  0  0
    1.6375   -1.2221   -0.8992 O   0  0  0  0  0  0  0  0  0  0  0  0
    1.0611    0.6848   -1.9182 N   0  0  0  0  0  0  0  0  0  0  0  0
    0.5192    1.5416   -1.8701 H   0  0  0  0  0  0  0  0  0  0  0  0
    1.9213    0.4594   -3.0747 C   0  0  0  0  0  0  0  0  0  0  0  0
    1.6429   -0.4692   -3.5844 H   0  0  0  0  0  0  0  0  0  0  0  0
    1.8243    1.2856   -3.7854 H   0  0  0  0  0  0  0  0  0  0  0  0
    2.9696    0.3903   -2.7650 H   0  0  0  0  0  0  0  0  0  0  0  0
  1  2  1  0  0  0  0
  2  3  1  0  0  0  0
  2  4  1  0  0  0  0
  2  5  1  0  0  0  0
  5  6  2  0  0  0  0
  5  7  1  0  0  0  0
  7  8  1  0  0  0  0
  7  9  1  0  0  0  0
  9 10  1  0  0  0  0
  9 11  1  0  0  0  0
  9 18  1  0  0  0  0
 11 12  1  0  0  0  0
 11 13  1  0  0  0  0
 11 14  1  0  0  0  0
 14 15  2  0  0  0  0
 14 16  1  0  0  0  0
 16 17  1  0  0  0  0
 18 19  2  0  0  0  0
 18 20  1  0  0  0  0
 20 21  1  0  0  0  0
 20 22  1  0  0  0  0
 22 23  1  0  0  0  0
 22 24  1  0  0  0  0
 22 25  1  0  0  0  0
M  END
$$$$

  -OEChem-01062216063D

 25 24  0     1  0  0  0  0  0999 V2000
   -2.8566   -3.5061    0.7675 H   0  0  0  0  0  0  0  0  0  0  0  0
   -2.8295   -2.4493    0.4869 C   0  0  0  0  0  0  0  0  0  0  0  0
   -3.5819   -1.9112    1.0681 H   0  0  0  0  0  0  0  0  0  0  0  0
   -3.0660   -2.3635   -0.5761 H   0  0  0  0  0  0  0  0  0  0  0  0
   -1.4528   -1.8717    0.7581 C   0  0  0  0  0  0  0  0  0  0  0  0
   -0.6177   -2.5834    1.2863 O   0  0  0  0  0  0  0  0  0  0  0  0
   -1.2218   -0.5433    0.4375 N   0  0  0  0  0  0  0  0  0  0  0  0
   -2.0071   -0.0761   -0.0052 H   0  0  0  0  0  0  0  0  0  0  0  0
    0.0740    0.1714    0.4114 C   0  0  1  0  0  0  0  0  0  0  0  0
   -0.1599    1.2329    0.2886 H   0  0  0  0  0  0  0  0  0  0  0  0
    0.9061    0.0403    1.7113 C   0  0  0  0  0  0  0  0  0  0  0  0
    1.0703   -1.0070    1.9703 H   0  0  0  0  0  0  0  0  0  0  0  0
    1.8958    0.4729    1.5445 H   0  0  0  0  0  0  0  0  0  0  0  0
    0.2950    0.7674    2.9046 C   0  0  0  0  0  0  0  0  0  0  0  0
   -0.3924    1.7599    2.7146 O   0  0  0  0  0  0  0  0  0  0  0  0
    0.5915    0.2926    4.1365 O   0  0  0  0  0  0  0  0  0  0  0  0
    0.1273    0.8623    4.7671 H   0  0  0  0  0  0  0  0  0  0  0  0
    0.9312   -0.2013   -0.8218 C   0  0  0  0  0  0  0  0  0  0  0  0
    1.2559   -1.3548   -1.0605 O   0  0  0  0  0  0  0  0  0  0  0  0
    1.3050    0.7847   -1.7192 N   0  0  0  0  0  0  0  0  0  0  0  0
    1.0516    1.7440   -1.5039 H   0  0  0  0  0  0  0  0  0  0  0  0
    2.1133    0.5201   -2.9045 C   0  0  0  0  0  0  0  0  0  0  0  0
    1.6121   -0.2034   -3.5564 H   0  0  0  0  0  0  0  0  0  0  0  0
    2.2703    1.4433   -3.4704 H   0  0  0  0  0  0  0  0  0  0  0  0
    3.0914    0.1182   -2.6193 H   0  0  0  0  0  0  0  0  0  0  0  0
  1  2  1  0  0  0  0
  2  3  1  0  0  0  0
  2  4  1  0  0  0  0
  2  5  1  0  0  0  0
  5  6  2  0  0  0  0
  5  7  1  0  0  0  0
  7  8  1  0  0  0  0
  7  9  1  0  0  0  0
  9 10  1  0  0  0  0
  9 11  1  0  0  0  0
  9 18  1  0  0  0  0
 11 12  1  0  0  0  0
 11 13  1  0  0  0  0
 11 14  1  0  0  0  0
 14 15  2  0  0  0  0
 14 16  1  0  0  0  0
 16 17  1  0  0  0  0
 18 19  2  0  0  0  0
 18 20  1  0  0  0  0
 20 21  1  0  0  0  0
 20 22  1  0  0  0  0
 22 23  1  0  0  0  0
 22 24  1  0  0  0  0
 22 25  1  0  0  0  0
M  END
$$$$

  -OEChem-01062216063D

 25 24  0     1  0  0  0  0  0999 V2000
   -2.8371   -3.5133    0.7406 H   0  0  0  0  0  0  0  0  0  0  0  0
   -2.8089   -2.4591    0.4507 C   0  0  0  0  0  0  0  0  0  0  0  0
   -3.5935   -1.9239    0.9905 H   0  0  0  0  0  0  0  0  0  0  0  0
   -2.9968   -2.3866   -0.6231 H   0  0  0  0  0  0  0  0  0  0  0  0
   -1.4526   -1.8627    0.7785 C   0  0  0  0  0  0  0  0  0  0  0  0
   -0.6338   -2.5582    1.3536 O   0  0  0  0  0  0  0  0  0  0  0  0
   -1.2204   -0.5350    0.4555 N   0  0  0  0  0  0  0  0  0  0  0  0
   -1.9785   -0.0943   -0.0561 H   0  0  0  0  0  0  0  0  0  0  0  0
    0.0823    0.1677    0.4308 C   0  0  1  0  0  0  0  0  0  0  0  0
   -0.1478    1.2291    0.2979 H   0  0  0  0  0  0  0  0  0  0  0  0
    0.9121    0.0419    1.7332 C   0  0  0  0  0  0  0  0  0  0  0  0
    1.0712   -1.0031    2.0031 H   0  0  0  0  0  0  0  0  0  0  0  0
    1.9042    0.4682    1.5653 H   0  0  0  0  0  0  0  0  0  0  0  0
    0.3039    0.7849    2.9183 C   0  0  0  0  0  0  0  0  0  0  0  0
   -0.3755    1.7805    2.7183 O   0  0  0  0  0  0  0  0  0  0  0  0
    0.5929    0.3172    4.1545 O   0  0  0  0  0  0  0  0  0  0  0  0
    0.1249    0.8907    4.7790 H   0  0  0  0  0  0  0  0  0  0  0  0
    0.9424   -0.2100   -0.7997 C   0  0  0  0  0  0  0  0  0  0  0  0
    0.9532   -1.3434   -1.2589 O   0  0  0  0  0  0  0  0  0  0  0  0
    1.5848    0.7888   -1.5116 N   0  0  0  0  0  0  0  0  0  0  0  0
    1.5679    1.7293   -1.1290 H   0  0  0  0  0  0  0  0  0  0  0  0
    2.3583    0.5360   -2.7226 C   0  0  0  0  0  0  0  0  0  0  0  0
    1.7258    0.0861   -3.4954 H   0  0  0  0  0  0  0  0  0  0  0  0
    2.7664    1.4726   -3.1140 H   0  0  0  0  0  0  0  0  0  0  0  0
    3.1911   -0.1428   -2.5102 H   0  0  0  0  0  0  0  0  0  0  0  0
  1  2  1  0  0  0  0
  2  3  1  0  0  0  0
  2  4  1  0  0  0  0
  2  5  1  0  0  0  0
  5  6  2  0  0  0  0
  5  7  1  0  0  0  0
  7  8  1  0  0  0  0
  7  9  1  0  0  0  0
  9 10  1  0  0  0  0
  9 11  1  0  0  0  0
  9 18  1  0  0  0  0
 11 12  1  0  0  0  0
 11 13  1  0  0  0  0
 11 14  1  0  0  0  0
 14 15  2  0  0  0  0
 14 16  1  0  0  0  0
 16 17  1  0  0  0  0
 18 19  2  0  0  0  0
 18 20  1  0  0  0  0
 20 21  1  0  0  0  0
 20 22  1  0  0  0  0
 22 23  1  0  0  0  0
 22 24  1  0  0  0  0
 22 25  1  0  0  0  0
M  END
$$$$

  -OEChem-01062216063D

 25 24  0     1  0  0  0  0  0999 V2000
   -2.8456   -3.5052    0.7775 H   0  0  0  0  0  0  0  0  0  0  0  0
   -2.8073   -2.4598    0.4588 C   0  0  0  0  0  0  0  0  0  0  0  0
   -3.5905   -1.9039    0.9794 H   0  0  0  0  0  0  0  0  0  0  0  0
   -2.9884   -2.4152   -0.6179 H   0  0  0  0  0  0  0  0  0  0  0  0
   -1.4483   -1.8653    0.7777 C   0  0  0  0  0  0  0  0  0  0  0  0
   -0.6174   -2.5671    1.3286 O   0  0  0  0  0  0  0  0  0  0  0  0
   -1.2154   -0.5376    0.4574 N   0  0  0  0  0  0  0  0  0  0  0  0
   -1.9657   -0.0994   -0.0683 H   0  0  0  0  0  0  0  0  0  0  0  0
    0.0915    0.1567    0.4361 C   0  0  1  0  0  0  0  0  0  0  0  0
   -0.1324    1.2185    0.2945 H   0  0  0  0  0  0  0  0  0  0  0  0
    0.9095    0.0339    1.7475 C   0  0  0  0  0  0  0  0  0  0  0  0
    1.0582   -1.0096    2.0281 H   0  0  0  0  0  0  0  0  0  0  0  0
    1.9064    0.4514    1.5876 H   0  0  0  0  0  0  0  0  0  0  0  0
    0.2956    0.7894    2.9221 C   0  0  0  0  0  0  0  0  0  0  0  0
   -0.3749    1.7881    2.7098 O   0  0  0  0  0  0  0  0  0  0  0  0
    0.5709    0.3282    4.1638 O   0  0  0  0  0  0  0  0  0  0  0  0
    0.1025    0.9106    4.7799 H   0  0  0  0  0  0  0  0  0  0  0  0
    0.9532   -0.2225   -0.7935 C   0  0  0  0  0  0  0  0  0  0  0  0
    0.7345   -1.2335   -1.4479 O   0  0  0  0  0  0  0  0  0  0  0  0
    1.8428    0.7053   -1.3082 N   0  0  0  0  0  0  0  0  0  0  0  0
    1.9977    1.5574   -0.7779 H   0  0  0  0  0  0  0  0  0  0  0  0
    2.6167    0.4834   -2.5247 C   0  0  0  0  0  0  0  0  0  0  0  0
    1.9505    0.3426   -3.3826 H   0  0  0  0  0  0  0  0  0  0  0  0
    3.2614    1.3443   -2.7262 H   0  0  0  0  0  0  0  0  0  0  0  0
    3.2483   -0.4051   -2.4199 H   0  0  0  0  0  0  0  0  0  0  0  0
  1  2  1  0  0  0  0
  2  3  1  0  0  0  0
  2  4  1  0  0  0  0
  2  5  1  0  0  0  0
  5  6  2  0  0  0  0
  5  7  1  0  0  0  0
  7  8  1  0  0  0  0
  7  9  1  0  0  0  0
  9 10  1  0  0  0  0
  9 11  1  0  0  0  0
  9 18  1  0  0  0  0
 11 12  1  0  0  0  0
 11 13  1  0  0  0  0
 11 14  1  0  0  0  0
 14 15  2  0  0  0  0
 14 16  1  0  0  0  0
 16 17  1  0  0  0  0
 18 19  2  0  0  0  0
 18 20  1  0  0  0  0
 20 21  1  0  0  0  0
 20 22  1  0  0  0  0
 22 23  1  0  0  0  0
 22 24  1  0  0  0  0
 22 25  1  0  0  0  0
M  END
$$$$

  -OEChem-01062216063D

 25 24  0     1  0  0  0  0  0999 V2000
   -2.8345   -3.5069    0.7726 H   0  0  0  0  0  0  0  0  0  0  0  0
   -2.8050   -2.4558    0.4720 C   0  0  0  0  0  0  0  0  0  0  0  0
   -3.5753   -1.9099    1.0217 H   0  0  0  0  0  0  0  0  0  0  0  0
   -3.0124   -2.3915   -0.5990 H   0  0  0  0  0  0  0  0  0  0  0  0
   -1.4392   -1.8653    0.7683 C   0  0  0  0  0  0  0  0  0  0  0  0
   -0.5894   -2.5772    1.2765 O   0  0  0  0  0  0  0  0  0  0  0  0
   -1.2112   -0.5352    0.4568 N   0  0  0  0  0  0  0  0  0  0  0  0
   -1.9619   -0.0945   -0.0663 H   0  0  0  0  0  0  0  0  0  0  0  0
    0.0945    0.1607    0.4403 C   0  0  1  0  0  0  0  0  0  0  0  0
   -0.1247    1.2237    0.2987 H   0  0  0  0  0  0  0  0  0  0  0  0
    0.9026    0.0333    1.7598 C   0  0  0  0  0  0  0  0  0  0  0  0
    1.0464   -1.0106    2.0399 H   0  0  0  0  0  0  0  0  0  0  0  0
    1.9014    0.4499    1.6147 H   0  0  0  0  0  0  0  0  0  0  0  0
    0.2791    0.7860    2.9311 C   0  0  0  0  0  0  0  0  0  0  0  0
   -0.3891    1.7857    2.7172 O   0  0  0  0  0  0  0  0  0  0  0  0
    0.5453    0.3205    4.1732 O   0  0  0  0  0  0  0  0  0  0  0  0
    0.0736    0.9019    4.7880 H   0  0  0  0  0  0  0  0  0  0  0  0
    0.9503   -0.2159   -0.7950 C   0  0  0  0  0  0  0  0  0  0  0  0
    0.5724   -1.0558   -1.6026 O   0  0  0  0  0  0  0  0  0  0  0  0
    2.0470    0.5599   -1.1303 N   0  0  0  0  0  0  0  0  0  0  0  0
    2.3329    1.2821   -0.4765 H   0  0  0  0  0  0  0  0  0  0  0  0
    2.8533    0.3321   -2.3241 C   0  0  0  0  0  0  0  0  0  0  0  0
    2.2446    0.4524   -3.2266 H   0  0  0  0  0  0  0  0  0  0  0  0
    3.6791    1.0488   -2.3665 H   0  0  0  0  0  0  0  0  0  0  0  0
    3.2734   -0.6794   -2.3148 H   0  0  0  0  0  0  0  0  0  0  0  0
  1  2  1  0  0  0  0
  2  3  1  0  0  0  0
  2  4  1  0  0  0  0
  2  5  1  0  0  0  0
  5  6  2  0  0  0  0
  5  7  1  0  0  0  0
  7  8  1  0  0  0  0
  7  9  1  0  0  0  0
  9 10  1  0  0  0  0
  9 11  1  0  0  0  0
  9 18  1  0  0  0  0
 11 12  1  0  0  0  0
 11 13  1  0  0  0  0
 11 14  1  0  0  0  0
 14 15  2  0  0  0  0
 14 16  1  0  0  0  0
 16 17  1  0  0  0  0
 18 19  2  0  0  0  0
 18 20  1  0  0  0  0
 20 21  1  0  0  0  0
 20 22  1  0  0  0  0
 22 23  1  0  0  0  0
 22 24  1  0  0  0  0
 22 25  1  0  0  0  0
M  END
$$$$

  -OEChem-01062216063D

 25 24  0     1  0  0  0  0  0999 V2000
   -2.8920   -3.4783    0.6465 H   0  0  0  0  0  0  0  0  0  0  0  0
   -2.8331   -2.4147    0.3988 C   0  0  0  0  0  0  0  0  0  0  0  0
   -3.6033   -1.8791    0.9586 H   0  0  0  0  0  0  0  0  0  0  0  0
   -3.0173   -2.2935   -0.6716 H   0  0  0  0  0  0  0  0  0  0  0  0
   -1.4617   -1.8689    0.7510 C   0  0  0  0  0  0  0  0  0  0  0  0
   -0.6517   -2.6182    1.2686 O   0  0  0  0  0  0  0  0  0  0  0  0
   -1.1920   -0.5424    0.4616 N   0  0  0  0  0  0  0  0  0  0  0  0
   -1.9166   -0.0999   -0.0975 H   0  0  0  0  0  0  0  0  0  0  0  0
    0.1108    0.1650    0.4646 C   0  0  1  0  0  0  0  0  0  0  0  0
   -0.1107    1.2287    0.5983 H   0  0  0  0  0  0  0  0  0  0  0  0
    1.0959   -0.2377    1.5977 C   0  0  0  0  0  0  0  0  0  0  0  0
    1.2988   -1.3090    1.5917 H   0  0  0  0  0  0  0  0  0  0  0  0
    2.0583    0.2500    1.4338 H   0  0  0  0  0  0  0  0  0  0  0  0
    0.6387    0.1984    2.9864 C   0  0  0  0  0  0  0  0  0  0  0  0
   -0.0561    1.1956    3.1060 O   0  0  0  0  0  0  0  0  0  0  0  0
    1.0919   -0.5233    4.0371 O   0  0  0  0  0  0  0  0  0  0  0  0
    0.7009   -0.1242    4.8283 H   0  0  0  0  0  0  0  0  0  0  0  0
    0.7780    0.0780   -0.9324 C   0  0  0  0  0  0  0  0  0  0  0  0
    0.1652   -0.3813   -1.8898 O   0  0  0  0  0  0  0  0  0  0  0  0
    2.0079    0.6679   -1.1695 N   0  0  0  0  0  0  0  0  0  0  0  0
    2.5006    1.0681   -0.3774 H   0  0  0  0  0  0  0  0  0  0  0  0
    2.6564    0.6725   -2.4761 C   0  0  0  0  0  0  0  0  0  0  0  0
    2.0334    1.1921   -3.2119 H   0  0  0  0  0  0  0  0  0  0  0  0
    3.6216    1.1846   -2.4181 H   0  0  0  0  0  0  0  0  0  0  0  0
    2.8290   -0.3523   -2.8220 H   0  0  0  0  0  0  0  0  0  0  0  0
  1  2  1  0  0  0  0
  2  3  1  0  0  0  0
  2  4  1  0  0  0  0
  2  5  1  0  0  0  0
  5  6  2  0  0  0  0
  5  7  1  0  0  0  0
  7  8  1  0  0  0  0
  7  9  1  0  0  0  0
  9 10  1  0  0  0  0
  9 11  1  0  0  0  0
  9 18  1  0  0  0  0
 11 12  1  0  0  0  0
 11 13  1  0  0  0  0
 11 14  1  0  0  0  0
 14 15  2  0  0  0  0
 14 16  1  0  0  0  0
 16 17  1  0  0  0  0
 18 19  2  0  0  0  0
 18 20  1  0  0  0  0
 20 21  1  0  0  0  0
 20 22  1  0  0  0  0
 22 23  1  0  0  0  0
 22 24  1  0  0  0  0
 22 25  1  0  0  0  0
M  END
$$$$

  -OEChem-01062216063D

 25 24  0     1  0  0  0  0  0999 V2000
   -2.8790   -3.4803    0.6431 H   0  0  0  0  0  0  0  0  0  0  0  0
   -2.8243   -2.4123    0.4141 C   0  0  0  0  0  0  0  0  0  0  0  0
   -3.5685   -1.8843    1.0149 H   0  0  0  0  0  0  0  0  0  0  0  0
   -3.0507   -2.2686   -0.6454 H   0  0  0  0  0  0  0  0  0  0  0  0
   -1.4371   -1.8796    0.7218 C   0  0  0  0  0  0  0  0  0  0  0  0
   -0.6034   -2.6459    1.1726 O   0  0  0  0  0  0  0  0  0  0  0  0
   -1.1704   -0.5490    0.4520 N   0  0  0  0  0  0  0  0  0  0  0  0
   -1.9059   -0.0860   -0.0759 H   0  0  0  0  0  0  0  0  0  0  0  0
    0.1276    0.1651    0.4739 C   0  0  1  0  0  0  0  0  0  0  0  0
   -0.0980    1.2281    0.6071 H   0  0  0  0  0  0  0  0  0  0  0  0
    1.0913   -0.2345    1.6275 C   0  0  0  0  0  0  0  0  0  0  0  0
    1.2996   -1.3049    1.6277 H   0  0  0  0  0  0  0  0  0  0  0  0
    2.0527    0.2615    1.4874 H   0  0  0  0  0  0  0  0  0  0  0  0
    0.6029    0.2026    3.0056 C   0  0  0  0  0  0  0  0  0  0  0  0
   -0.0970    1.1975    3.1106 O   0  0  0  0  0  0  0  0  0  0  0  0
    1.0295   -0.5219    4.0654 O   0  0  0  0  0  0  0  0  0  0  0  0
    0.6210   -0.1219    4.8474 H   0  0  0  0  0  0  0  0  0  0  0  0
    0.7934    0.0900   -0.9253 C   0  0  0  0  0  0  0  0  0  0  0  0
    0.1057   -0.1189   -1.9187 O   0  0  0  0  0  0  0  0  0  0  0  0
    2.1301    0.3987   -1.1136 N   0  0  0  0  0  0  0  0  0  0  0  0
    2.6994    0.5468   -0.2867 H   0  0  0  0  0  0  0  0  0  0  0  0
    2.7845    0.3631   -2.4167 C   0  0  0  0  0  0  0  0  0  0  0  0
    2.3048    1.0656   -3.1066 H   0  0  0  0  0  0  0  0  0  0  0  0
    3.8382    0.6419   -2.3190 H   0  0  0  0  0  0  0  0  0  0  0  0
    2.7307   -0.6436   -2.8445 H   0  0  0  0  0  0  0  0  0  0  0  0
  1  2  1  0  0  0  0
  2  3  1  0  0  0  0
  2  4  1  0  0  0  0
  2  5  1  0  0  0  0
  5  6  2  0  0  0  0
  5  7  1  0  0  0  0
  7  8  1  0  0  0  0
  7  9  1  0  0  0  0
  9 10  1  0  0  0  0
  9 11  1  0  0  0  0
  9 18  1  0  0  0  0
 11 12  1  0  0  0  0
 11 13  1  0  0  0  0
 11 14  1  0  0  0  0
 14 15  2  0  0  0  0
 14 16  1  0  0  0  0
 16 17  1  0  0  0  0
 18 19  2  0  0  0  0
 18 20  1  0  0  0  0
 20 21  1  0  0  0  0
 20 22  1  0  0  0  0
 22 23  1  0  0  0  0
 22 24  1  0  0  0  0
 22 25  1  0  0  0  0
M  END
$$$$

  -OEChem-01062216063D

 25 24  0     1  0  0  0  0  0999 V2000
   -2.8672   -3.4775    0.6724 H   0  0  0  0  0  0  0  0  0  0  0  0
   -2.8157   -2.4108    0.4369 C   0  0  0  0  0  0  0  0  0  0  0  0
   -3.5291   -1.8762    1.0685 H   0  0  0  0  0  0  0  0  0  0  0  0
   -3.0878   -2.2686   -0.6118 H   0  0  0  0  0  0  0  0  0  0  0  0
   -1.4132   -1.8867    0.6824 C   0  0  0  0  0  0  0  0  0  0  0  0
   -0.5536   -2.6645    1.0596 O   0  0  0  0  0  0  0  0  0  0  0  0
   -1.1533   -0.5520    0.4294 N   0  0  0  0  0  0  0  0  0  0  0  0
   -1.9066   -0.0635   -0.0483 H   0  0  0  0  0  0  0  0  0  0  0  0
    0.1396    0.1670    0.4758 C   0  0  1  0  0  0  0  0  0  0  0  0
   -0.0913    1.2292    0.6080 H   0  0  0  0  0  0  0  0  0  0  0  0
    1.0841   -0.2268    1.6464 C   0  0  0  0  0  0  0  0  0  0  0  0
    1.2989   -1.2959    1.6519 H   0  0  0  0  0  0  0  0  0  0  0  0
    2.0422    0.2810    1.5223 H   0  0  0  0  0  0  0  0  0  0  0  0
    0.5693    0.2076    3.0158 C   0  0  0  0  0  0  0  0  0  0  0  0
   -0.1378    1.1983    3.1111 O   0  0  0  0  0  0  0  0  0  0  0  0
    0.9786   -0.5194    4.0807 O   0  0  0  0  0  0  0  0  0  0  0  0
    0.5600   -0.1192    4.8575 H   0  0  0  0  0  0  0  0  0  0  0  0
    0.8118    0.1010   -0.9191 C   0  0  0  0  0  0  0  0  0  0  0  0
    0.1121    0.1493   -1.9245 O   0  0  0  0  0  0  0  0  0  0  0  0
    2.1875    0.1091   -1.0763 N   0  0  0  0  0  0  0  0  0  0  0  0
    2.7493   -0.0305   -0.2426 H   0  0  0  0  0  0  0  0  0  0  0  0
    2.8400    0.0215   -2.3778 C   0  0  0  0  0  0  0  0  0  0  0  0
    2.5368    0.8578   -3.0165 H   0  0  0  0  0  0  0  0  0  0  0  0
    3.9272    0.0562   -2.2591 H   0  0  0  0  0  0  0  0  0  0  0  0
    2.5751   -0.9169   -2.8765 H   0  0  0  0  0  0  0  0  0  0  0  0
  1  2  1  0  0  0  0
  2  3  1  0  0  0  0
  2  4  1  0  0  0  0
  2  5  1  0  0  0  0
  5  6  2  0  0  0  0
  5  7  1  0  0  0  0
  7  8  1  0  0  0  0
  7  9  1  0  0  0  0
  9 10  1  0  0  0  0
  9 11  1  0  0  0  0
  9 18  1  0  0  0  0
 11 12  1  0  0  0  0
 11 13  1  0  0  0  0
 11 14  1  0  0  0  0
 14 15  2  0  0  0  0
 14 16  1  0  0  0  0
 16 17  1  0  0  0  0
 18 19  2  0  0  0  0
 18 20  1  0  0  0  0
 20 21  1  0  0  0  0
 20 22  1  0  0  0  0
 22 23  1  0  0  0  0
 22 24  1  0  0  0  0
 22 25  1  0  0  0  0
M  END
$$$$

  -OEChem-01062216063D

 25 24  0     1  0  0  0  0  0999 V2000
   -2.8626   -3.4774    0.6883 H   0  0  0  0  0  0  0  0  0  0  0  0
   -2.8164   -2.4087    0.4606 C   0  0  0  0  0  0  0  0  0  0  0  0
   -3.5023   -1.8776    1.1249 H   0  0  0  0  0  0  0  0  0  0  0  0
   -3.1305   -2.2561   -0.5749 H   0  0  0  0  0  0  0  0  0  0  0  0
   -1.4031   -1.8917    0.6545 C   0  0  0  0  0  0  0  0  0  0  0  0
   -0.5257   -2.6762    0.9728 O   0  0  0  0  0  0  0  0  0  0  0  0
   -1.1443   -0.5561    0.4078 N   0  0  0  0  0  0  0  0  0  0  0  0
   -1.9156   -0.0420   -0.0111 H   0  0  0  0  0  0  0  0  0  0  0  0
    0.1470    0.1612    0.4702 C   0  0  1  0  0  0  0  0  0  0  0  0
   -0.0861    1.2238    0.5972 H   0  0  0  0  0  0  0  0  0  0  0  0
    1.0795   -0.2256    1.6523 C   0  0  0  0  0  0  0  0  0  0  0  0
    1.2915   -1.2951    1.6686 H   0  0  0  0  0  0  0  0  0  0  0  0
    2.0388    0.2820    1.5289 H   0  0  0  0  0  0  0  0  0  0  0  0
    0.5509    0.2141    3.0147 C   0  0  0  0  0  0  0  0  0  0  0  0
   -0.1584    1.2039    3.0993 O   0  0  0  0  0  0  0  0  0  0  0  0
    0.9503   -0.5084    4.0864 O   0  0  0  0  0  0  0  0  0  0  0  0
    0.5301   -0.1003    4.8583 H   0  0  0  0  0  0  0  0  0  0  0  0
    0.8292    0.0963   -0.9169 C   0  0  0  0  0  0  0  0  0  0  0  0
    0.1760    0.3820   -1.9134 O   0  0  0  0  0  0  0  0  0  0  0  0
    2.1729   -0.2015   -1.0636 N   0  0  0  0  0  0  0  0  0  0  0  0
    2.6492   -0.5759   -0.2485 H   0  0  0  0  0  0  0  0  0  0  0  0
    2.8216   -0.3215   -2.3641 C   0  0  0  0  0  0  0  0  0  0  0  0
    2.7217    0.6107   -2.9304 H   0  0  0  0  0  0  0  0  0  0  0  0
    3.8876   -0.5332   -2.2371 H   0  0  0  0  0  0  0  0  0  0  0  0
    2.3720   -1.1352   -2.9428 H   0  0  0  0  0  0  0  0  0  0  0  0
  1  2  1  0  0  0  0
  2  3  1  0  0  0  0
  2  4  1  0  0  0  0
  2  5  1  0  0  0  0
  5  6  2  0  0  0  0
  5  7  1  0  0  0  0
  7  8  1  0  0  0  0
  7  9  1  0  0  0  0
  9 10  1  0  0  0  0
  9 11  1  0  0  0  0
  9 18  1  0  0  0  0
 11 12  1  0  0  0  0
 11 13  1  0  0  0  0
 11 14  1  0  0  0  0
 14 15  2  0  0  0  0
 14 16  1  0  0  0  0
 16 17  1  0  0  0  0
 18 19  2  0  0  0  0
 18 20  1  0  0  0  0
 20 21  1  0  0  0  0
 20 22  1  0  0  0  0
 22 23  1  0  0  0  0
 22 24  1  0  0  0  0
 22 25  1  0  0  0  0
M  END
$$$$

  -OEChem-01062216063D

 25 24  0     1  0  0  0  0  0999 V2000
   -2.8657   -3.4702    0.7375 H   0  0  0  0  0  0  0  0  0  0  0  0
   -2.8226   -2.4020    0.5062 C   0  0  0  0  0  0  0  0  0  0  0  0
   -3.4695   -1.8650    1.2042 H   0  0  0  0  0  0  0  0  0  0  0  0
   -3.1877   -2.2473   -0.5122 H   0  0  0  0  0  0  0  0  0  0  0  0
   -1.3971   -1.8962    0.6263 C   0  0  0  0  0  0  0  0  0  0  0  0
   -0.5042   -2.6886    0.8759 O   0  0  0  0  0  0  0  0  0  0  0  0
   -1.1399   -0.5607    0.3795 N   0  0  0  0  0  0  0  0  0  0  0  0
   -1.9332   -0.0205    0.0427 H   0  0  0  0  0  0  0  0  0  0  0  0
    0.1506    0.1551    0.4522 C   0  0  1  0  0  0  0  0  0  0  0  0
   -0.0831    1.2181    0.5763 H   0  0  0  0  0  0  0  0  0  0  0  0
    1.0723   -0.2300    1.6422 C   0  0  0  0  0  0  0  0  0  0  0  0
    1.2769   -1.3008    1.6662 H   0  0  0  0  0  0  0  0  0  0  0  0
    2.0355    0.2712    1.5179 H   0  0  0  0  0  0  0  0  0  0  0  0
    0.5337    0.2126    2.9997 C   0  0  0  0  0  0  0  0  0  0  0  0
   -0.1751    1.2033    3.0771 O   0  0  0  0  0  0  0  0  0  0  0  0
    0.9184   -0.5125    4.0751 O   0  0  0  0  0  0  0  0  0  0  0  0
    0.4969   -0.0986    4.8433 H   0  0  0  0  0  0  0  0  0  0  0  0
    0.8491    0.0911   -0.9239 C   0  0  0  0  0  0  0  0  0  0  0  0
    0.2975    0.5961   -1.8937 O   0  0  0  0  0  0  0  0  0  0  0  0
    2.0929   -0.4940   -1.0831 N   0  0  0  0  0  0  0  0  0  0  0  0
    2.4315   -1.0546   -0.3061 H   0  0  0  0  0  0  0  0  0  0  0  0
    2.7371   -0.6447   -2.3823 C   0  0  0  0  0  0  0  0  0  0  0  0
    2.8561    0.3300   -2.8674 H   0  0  0  0  0  0  0  0  0  0  0  0
    3.7288   -1.0916   -2.2635 H   0  0  0  0  0  0  0  0  0  0  0  0
    2.1393   -1.2914   -3.0330 H   0  0  0  0  0  0  0  0  0  0  0  0
  1  2  1  0  0  0  0
  2  3  1  0  0  0  0
  2  4  1  0  0  0  0
  2  5  1  0  0  0  0
  5  6  2  0  0  0  0
  5  7  1  0  0  0  0
  7  8  1  0  0  0  0
  7  9  1  0  0  0  0
  9 10  1  0  0  0  0
  9 11  1  0  0  0  0
  9 18  1  0  0  0  0
 11 12  1  0  0  0  0
 11 13  1  0  0  0  0
 11 14  1  0  0  0  0
 14 15  2  0  0  0  0
 14 16  1  0  0  0  0
 16 17  1  0  0  0  0
 18 19  2  0  0  0  0
 18 20  1  0  0  0  0
 20 21  1  0  0  0  0
 20 22  1  0  0  0  0
 22 23  1  0  0  0  0
 22 24  1  0  0  0  0
 22 25  1  0  0  0  0
M  END
$$$$

  -OEChem-01062216063D

 25 24  0     1  0  0  0  0  0999 V2000
   -2.8461   -3.4628    0.7982 H   0  0  0  0  0  0  0  0  0  0  0  0
   -2.8160   -2.3962    0.5588 C   0  0  0  0  0  0  0  0  0  0  0  0
   -3.4181   -1.8544    1.2921 H   0  0  0  0  0  0  0  0  0  0  0  0
   -3.2423   -2.2462   -0.4361 H   0  0  0  0  0  0  0  0  0  0  0  0
   -1.3853   -1.8929    0.5893 C   0  0  0  0  0  0  0  0  0  0  0  0
   -0.4749   -2.6884    0.7536 O   0  0  0  0  0  0  0  0  0  0  0  0
   -1.1372   -0.5562    0.3416 N   0  0  0  0  0  0  0  0  0  0  0  0
   -1.9511    0.0068    0.1073 H   0  0  0  0  0  0  0  0  0  0  0  0
    0.1529    0.1564    0.4305 C   0  0  1  0  0  0  0  0  0  0  0  0
   -0.0794    1.2201    0.5538 H   0  0  0  0  0  0  0  0  0  0  0  0
    1.0632   -0.2326    1.6271 C   0  0  0  0  0  0  0  0  0  0  0  0
    1.2638   -1.3039    1.6535 H   0  0  0  0  0  0  0  0  0  0  0  0
    2.0302    0.2632    1.5063 H   0  0  0  0  0  0  0  0  0  0  0  0
    0.5128    0.2071    2.9807 C   0  0  0  0  0  0  0  0  0  0  0  0
   -0.1959    1.1981    3.0547 O   0  0  0  0  0  0  0  0  0  0  0  0
    0.8792   -0.5271    4.0563 O   0  0  0  0  0  0  0  0  0  0  0  0
    0.4554   -0.1128    4.8230 H   0  0  0  0  0  0  0  0  0  0  0  0
    0.8682    0.0890   -0.9339 C   0  0  0  0  0  0  0  0  0  0  0  0
    0.4786    0.7989   -1.8519 O   0  0  0  0  0  0  0  0  0  0  0  0
    1.9463   -0.7540   -1.1314 N   0  0  0  0  0  0  0  0  0  0  0  0
    2.0876   -1.4683   -0.4207 H   0  0  0  0  0  0  0  0  0  0  0  0
    2.5760   -0.9368   -2.4332 C   0  0  0  0  0  0  0  0  0  0  0  0
    2.9352    0.0213   -2.8238 H   0  0  0  0  0  0  0  0  0  0  0  0
    3.4307   -1.6146   -2.3477 H   0  0  0  0  0  0  0  0  0  0  0  0
    1.8631   -1.3630   -3.1467 H   0  0  0  0  0  0  0  0  0  0  0  0
  1  2  1  0  0  0  0
  2  3  1  0  0  0  0
  2  4  1  0  0  0  0
  2  5  1  0  0  0  0
  5  6  2  0  0  0  0
  5  7  1  0  0  0  0
  7  8  1  0  0  0  0
  7  9  1  0  0  0  0
  9 10  1  0  0  0  0
  9 11  1  0  0  0  0
  9 18  1  0  0  0  0
 11 12  1  0  0  0  0
 11 13  1  0  0  0  0
 11 14  1  0  0  0  0
 14 15  2  0  0  0  0
 14 16  1  0  0  0  0
 16 17  1  0  0  0  0
 18 19  2  0  0  0  0
 18 20  1  0  0  0  0
 20 21  1  0  0  0  0
 20 22  1  0  0  0  0
 22 23  1  0  0  0  0
 22 24  1  0  0  0  0
 22 25  1  0  0  0  0
M  END
$$$$

  -OEChem-01062216063D

 25 24  0     1  0  0  0  0  0999 V2000
   -2.8133   -3.4568    0.8661 H   0  0  0  0  0  0  0  0  0  0  0  0
   -2.8035   -2.3895    0.6274 C   0  0  0  0  0  0  0  0  0  0  0  0
   -3.3446   -1.8500    1.4084 H   0  0  0  0  0  0  0  0  0  0  0  0
   -3.3091   -2.2370   -0.3293 H   0  0  0  0  0  0  0  0  0  0  0  0
   -1.3753   -1.8853    0.5435 C   0  0  0  0  0  0  0  0  0  0  0  0
   -0.4506   -2.6808    0.5995 O   0  0  0  0  0  0  0  0  0  0  0  0
   -1.1413   -0.5468    0.2932 N   0  0  0  0  0  0  0  0  0  0  0  0
   -1.9700    0.0332    0.1863 H   0  0  0  0  0  0  0  0  0  0  0  0
    0.1499    0.1605    0.4008 C   0  0  1  0  0  0  0  0  0  0  0  0
   -0.0785    1.2252    0.5243 H   0  0  0  0  0  0  0  0  0  0  0  0
    1.0486   -0.2381    1.6019 C   0  0  0  0  0  0  0  0  0  0  0  0
    1.2442   -1.3106    1.6236 H   0  0  0  0  0  0  0  0  0  0  0  0
    2.0189    0.2527    1.4882 H   0  0  0  0  0  0  0  0  0  0  0  0
    0.4876    0.1939    2.9534 C   0  0  0  0  0  0  0  0  0  0  0  0
   -0.2196    1.1859    3.0273 O   0  0  0  0  0  0  0  0  0  0  0  0
    0.8360   -0.5525    4.0267 O   0  0  0  0  0  0  0  0  0  0  0  0
    0.4115   -0.1383    4.7931 H   0  0  0  0  0  0  0  0  0  0  0  0
    0.8829    0.0869   -0.9511 C   0  0  0  0  0  0  0  0  0  0  0  0
    0.7211    0.9673   -1.7856 O   0  0  0  0  0  0  0  0  0  0  0  0
    1.7373   -0.9676   -1.2109 N   0  0  0  0  0  0  0  0  0  0  0  0
    1.6426   -1.7683   -0.5869 H   0  0  0  0  0  0  0  0  0  0  0  0
    2.3621   -1.1721   -2.5111 C   0  0  0  0  0  0  0  0  0  0  0  0
    2.9583   -0.2976   -2.7922 H   0  0  0  0  0  0  0  0  0  0  0  0
    3.0235   -2.0433   -2.4790 H   0  0  0  0  0  0  0  0  0  0  0  0
    1.5999   -1.3408   -3.2789 H   0  0  0  0  0  0  0  0  0  0  0  0
  1  2  1  0  0  0  0
  2  3  1  0  0  0  0
  2  4  1  0  0  0  0
  2  5  1  0  0  0  0
  5  6  2  0  0  0  0
  5  7  1  0  0  0  0
  7  8  1  0  0  0  0
  7  9  1  0  0  0  0
  9 10  1  0  0  0  0
  9 11  1  0  0  0  0
  9 18  1  0  0  0  0
 11 12  1  0  0  0  0
 11 13  1  0  0  0  0
 11 14  1  0  0  0  0
 14 15  2  0  0  0  0
 14 16  1  0  0  0  0
 16 17  1  0  0  0  0
 18 19  2  0  0  0  0
 18 20  1  0  0  0  0
 20 21  1  0  0  0  0
 20 22  1  0  0  0  0
 22 23  1  0  0  0  0
 22 24  1  0  0  0  0
 22 25  1  0  0  0  0
M  END
$$$$

  -OEChem-01062216063D

 25 24  0     1  0  0  0  0  0999 V2000
   -2.8105   -3.4471    0.9267 H   0  0  0  0  0  0  0  0  0  0  0  0
   -2.8089   -2.3778    0.6974 C   0  0  0  0  0  0  0  0  0  0  0  0
   -3.2930   -1.8420    1.5176 H   0  0  0  0  0  0  0  0  0  0  0  0
   -3.3762   -2.2135   -0.2219 H   0  0  0  0  0  0  0  0  0  0  0  0
   -1.3861   -1.8822    0.5235 C   0  0  0  0  0  0  0  0  0  0  0  0
   -0.4637   -2.6828    0.5050 O   0  0  0  0  0  0  0  0  0  0  0  0
   -1.1564   -0.5451    0.2624 N   0  0  0  0  0  0  0  0  0  0  0  0
   -1.9867    0.0418    0.2371 H   0  0  0  0  0  0  0  0  0  0  0  0
    0.1375    0.1588    0.3722 C   0  0  1  0  0  0  0  0  0  0  0  0
   -0.0861    1.2249    0.4952 H   0  0  0  0  0  0  0  0  0  0  0  0
    1.0319   -0.2501    1.5713 C   0  0  0  0  0  0  0  0  0  0  0  0
    1.2225   -1.3240    1.5855 H   0  0  0  0  0  0  0  0  0  0  0  0
    2.0049    0.2364    1.4612 H   0  0  0  0  0  0  0  0  0  0  0  0
    0.4704    0.1766    2.9242 C   0  0  0  0  0  0  0  0  0  0  0  0
   -0.2328    1.1714    3.0019 O   0  0  0  0  0  0  0  0  0  0  0  0
    0.8086   -0.5801    3.9935 O   0  0  0  0  0  0  0  0  0  0  0  0
    0.3886   -0.1653    4.7621 H   0  0  0  0  0  0  0  0  0  0  0  0
    0.8840    0.0764   -0.9707 C   0  0  0  0  0  0  0  0  0  0  0  0
    0.9733    1.0601   -1.6928 O   0  0  0  0  0  0  0  0  0  0  0  0
    1.4811   -1.1144   -1.3360 N   0  0  0  0  0  0  0  0  0  0  0  0
    1.2097   -1.9297   -0.7828 H   0  0  0  0  0  0  0  0  0  0  0  0
    2.1200   -1.3217   -2.6286 C   0  0  0  0  0  0  0  0  0  0  0  0
    2.9160   -0.5861   -2.7855 H   0  0  0  0  0  0  0  0  0  0  0  0
    2.5619   -2.3217   -2.6748 H   0  0  0  0  0  0  0  0  0  0  0  0
    1.3878   -1.2262   -3.4371 H   0  0  0  0  0  0  0  0  0  0  0  0
  1  2  1  0  0  0  0
  2  3  1  0  0  0  0
  2  4  1  0  0  0  0
  2  5  1  0  0  0  0
  5  6  2  0  0  0  0
  5  7  1  0  0  0  0
  7  8  1  0  0  0  0
  7  9  1  0  0  0  0
  9 10  1  0  0  0  0
  9 11  1  0  0  0  0
  9 18  1  0  0  0  0
 11 12  1  0  0  0  0
 11 13  1  0  0  0  0
 11 14  1  0  0  0  0
 14 15  2  0  0  0  0
 14 16  1  0  0  0  0
 16 17  1  0  0  0  0
 18 19  2  0  0  0  0
 18 20  1  0  0  0  0
 20 21  1  0  0  0  0
 20 22  1  0  0  0  0
 22 23  1  0  0  0  0
 22 24  1  0  0  0  0
 22 25  1  0  0  0  0
M  END
$$$$

  -OEChem-01062216063D

 25 24  0     1  0  0  0  0  0999 V2000
   -2.8422   -3.4346    0.9966 H   0  0  0  0  0  0  0  0  0  0  0  0
   -2.8393   -2.3633    0.7760 C   0  0  0  0  0  0  0  0  0  0  0  0
   -3.2706   -1.8290    1.6262 H   0  0  0  0  0  0  0  0  0  0  0  0
   -3.4545   -2.1842   -0.1092 H   0  0  0  0  0  0  0  0  0  0  0  0
   -1.4216   -1.8843    0.5282 C   0  0  0  0  0  0  0  0  0  0  0  0
   -0.5110   -2.6952    0.4612 O   0  0  0  0  0  0  0  0  0  0  0  0
   -1.1895   -0.5511    0.2501 N   0  0  0  0  0  0  0  0  0  0  0  0
   -2.0175    0.0394    0.2670 H   0  0  0  0  0  0  0  0  0  0  0  0
    0.1073    0.1543    0.3419 C   0  0  1  0  0  0  0  0  0  0  0  0
   -0.1130    1.2207    0.4665 H   0  0  0  0  0  0  0  0  0  0  0  0
    1.0115   -0.2638    1.5287 C   0  0  0  0  0  0  0  0  0  0  0  0
    1.1991   -1.3384    1.5318 H   0  0  0  0  0  0  0  0  0  0  0  0
    1.9846    0.2212    1.4114 H   0  0  0  0  0  0  0  0  0  0  0  0
    0.4661    0.1569    2.8895 C   0  0  0  0  0  0  0  0  0  0  0  0
   -0.2329    1.1534    2.9808 O   0  0  0  0  0  0  0  0  0  0  0  0
    0.8103   -0.6098    3.9497 O   0  0  0  0  0  0  0  0  0  0  0  0
    0.4033   -0.1965    4.7258 H   0  0  0  0  0  0  0  0  0  0  0  0
    0.8607    0.0672   -0.9976 C   0  0  0  0  0  0  0  0  0  0  0  0
    1.1904    1.0847   -1.5911 O   0  0  0  0  0  0  0  0  0  0  0  0
    1.1943   -1.1732   -1.5049 N   0  0  0  0  0  0  0  0  0  0  0  0
    0.8371   -1.9824   -0.9913 H   0  0  0  0  0  0  0  0  0  0  0  0
    1.8826   -1.3739   -2.7723 C   0  0  0  0  0  0  0  0  0  0  0  0
    2.8464   -0.8542   -2.7710 H   0  0  0  0  0  0  0  0  0  0  0  0
    2.0657   -2.4400   -2.9376 H   0  0  0  0  0  0  0  0  0  0  0  0
    1.2772   -0.9923   -3.6007 H   0  0  0  0  0  0  0  0  0  0  0  0
  1  2  1  0  0  0  0
  2  3  1  0  0  0  0
  2  4  1  0  0  0  0
  2  5  1  0  0  0  0
  5  6  2  0  0  0  0
  5  7  1  0  0  0  0
  7  8  1  0  0  0  0
  7  9  1  0  0  0  0
  9 10  1  0  0  0  0
  9 11  1  0  0  0  0
  9 18  1  0  0  0  0
 11 12  1  0  0  0  0
 11 13  1  0  0  0  0
 11 14  1  0  0  0  0
 14 15  2  0  0  0  0
 14 16  1  0  0  0  0
 16 17  1  0  0  0  0
 18 19  2  0  0  0  0
 18 20  1  0  0  0  0
 20 21  1  0  0  0  0
 20 22  1  0  0  0  0
 22 23  1  0  0  0  0
 22 24  1  0  0  0  0
 22 25  1  0  0  0  0
M  END
$$$$

  -OEChem-01062216063D

 25 24  0     1  0  0  0  0  0999 V2000
   -2.8683   -3.4359    1.0566 H   0  0  0  0  0  0  0  0  0  0  0  0
   -2.8682   -2.3613    0.8531 C   0  0  0  0  0  0  0  0  0  0  0  0
   -3.2505   -1.8381    1.7329 H   0  0  0  0  0  0  0  0  0  0  0  0
   -3.5270   -2.1633    0.0041 H   0  0  0  0  0  0  0  0  0  0  0  0
   -1.4614   -1.8886    0.5395 C   0  0  0  0  0  0  0  0  0  0  0  0
   -0.5610   -2.7037    0.4148 O   0  0  0  0  0  0  0  0  0  0  0  0
   -1.2349   -0.5567    0.2521 N   0  0  0  0  0  0  0  0  0  0  0  0
   -2.0595    0.0351    0.3181 H   0  0  0  0  0  0  0  0  0  0  0  0
    0.0646    0.1498    0.3134 C   0  0  1  0  0  0  0  0  0  0  0  0
   -0.1536    1.2161    0.4432 H   0  0  0  0  0  0  0  0  0  0  0  0
    0.9890   -0.2736    1.4817 C   0  0  0  0  0  0  0  0  0  0  0  0
    1.1713   -1.3495    1.4772 H   0  0  0  0  0  0  0  0  0  0  0  0
    1.9622    0.2073    1.3477 H   0  0  0  0  0  0  0  0  0  0  0  0
    0.4707    0.1458    2.8535 C   0  0  0  0  0  0  0  0  0  0  0  0
   -0.2231    1.1446    2.9597 O   0  0  0  0  0  0  0  0  0  0  0  0
    0.8325   -0.6235    3.9060 O   0  0  0  0  0  0  0  0  0  0  0  0
    0.4462   -0.2070    4.6910 H   0  0  0  0  0  0  0  0  0  0  0  0
    0.8075    0.0707   -1.0339 C   0  0  0  0  0  0  0  0  0  0  0  0
    1.3691    1.0595   -1.4847 O   0  0  0  0  0  0  0  0  0  0  0  0
    0.8765   -1.1327   -1.7084 N   0  0  0  0  0  0  0  0  0  0  0  0
    0.4835   -1.9419   -1.2220 H   0  0  0  0  0  0  0  0  0  0  0  0
    1.6522   -1.3361   -2.9241 C   0  0  0  0  0  0  0  0  0  0  0  0
    2.7171   -1.1697   -2.7313 H   0  0  0  0  0  0  0  0  0  0  0  0
    1.5207   -2.3596   -3.2882 H   0  0  0  0  0  0  0  0  0  0  0  0
    1.3236   -0.6459   -3.7080 H   0  0  0  0  0  0  0  0  0  0  0  0
  1  2  1  0  0  0  0
  2  3  1  0  0  0  0
  2  4  1  0  0  0  0
  2  5  1  0  0  0  0
  5  6  2  0  0  0  0
  5  7  1  0  0  0  0
  7  8  1  0  0  0  0
  7  9  1  0  0  0  0
  9 10  1  0  0  0  0
  9 11  1  0  0  0  0
  9 18  1  0  0  0  0
 11 12  1  0  0  0  0
 11 13  1  0  0  0  0
 11 14  1  0  0  0  0
 14 15  2  0  0  0  0
 14 16  1  0  0  0  0
 16 17  1  0  0  0  0
 18 19  2  0  0  0  0
 18 20  1  0  0  0  0
 20 21  1  0  0  0  0
 20 22  1  0  0  0  0
 22 23  1  0  0  0  0
 22 24  1  0  0  0  0
 22 25  1  0  0  0  0
M  END
$$$$

  -OEChem-01062216063D

 25 24  0     1  0  0  0  0  0999 V2000
   -2.8632   -3.4326    1.1181 H   0  0  0  0  0  0  0  0  0  0  0  0
   -2.8703   -2.3579    0.9149 C   0  0  0  0  0  0  0  0  0  0  0  0
   -3.2120   -1.8344    1.8112 H   0  0  0  0  0  0  0  0  0  0  0  0
   -3.5661   -2.1584    0.0963 H   0  0  0  0  0  0  0  0  0  0  0  0
   -1.4778   -1.8884    0.5393 C   0  0  0  0  0  0  0  0  0  0  0  0
   -0.5906   -2.7049    0.3521 O   0  0  0  0  0  0  0  0  0  0  0  0
   -1.2564   -0.5565    0.2496 N   0  0  0  0  0  0  0  0  0  0  0  0
   -2.0748    0.0367    0.3633 H   0  0  0  0  0  0  0  0  0  0  0  0
    0.0466    0.1474    0.2975 C   0  0  1  0  0  0  0  0  0  0  0  0
   -0.1681    1.2140    0.4297 H   0  0  0  0  0  0  0  0  0  0  0  0
    0.9716   -0.2841    1.4629 C   0  0  0  0  0  0  0  0  0  0  0  0
    1.1438   -1.3619    1.4556 H   0  0  0  0  0  0  0  0  0  0  0  0
    1.9489    0.1880    1.3275 H   0  0  0  0  0  0  0  0  0  0  0  0
    0.4602    0.1384    2.8361 C   0  0  0  0  0  0  0  0  0  0  0  0
   -0.2258    1.1425    2.9442 O   0  0  0  0  0  0  0  0  0  0  0  0
    0.8146   -0.6366    3.8870 O   0  0  0  0  0  0  0  0  0  0  0  0
    0.4348   -0.2166    4.6733 H   0  0  0  0  0  0  0  0  0  0  0  0
    0.7907    0.0779   -1.0511 C   0  0  0  0  0  0  0  0  0  0  0  0
    1.5471    0.9835   -1.3747 O   0  0  0  0  0  0  0  0  0  0  0  0
    0.6162   -1.0079   -1.8874 N   0  0  0  0  0  0  0  0  0  0  0  0
    0.1436   -1.8091   -1.4651 H   0  0  0  0  0  0  0  0  0  0  0  0
    1.3996   -1.2131   -3.0984 C   0  0  0  0  0  0  0  0  0  0  0  0
    2.4576   -1.3471   -2.8505 H   0  0  0  0  0  0  0  0  0  0  0  0
    1.0497   -2.1043   -3.6281 H   0  0  0  0  0  0  0  0  0  0  0  0
    1.3011   -0.3536   -3.7698 H   0  0  0  0  0  0  0  0  0  0  0  0
  1  2  1  0  0  0  0
  2  3  1  0  0  0  0
  2  4  1  0  0  0  0
  2  5  1  0  0  0  0
  5  6  2  0  0  0  0
  5  7  1  0  0  0  0
  7  8  1  0  0  0  0
  7  9  1  0  0  0  0
  9 10  1  0  0  0  0
  9 11  1  0  0  0  0
  9 18  1  0  0  0  0
 11 12  1  0  0  0  0
 11 13  1  0  0  0  0
 11 14  1  0  0  0  0
 14 15  2  0  0  0  0
 14 16  1  0  0  0  0
 16 17  1  0  0  0  0
 18 19  2  0  0  0  0
 18 20  1  0  0  0  0
 20 21  1  0  0  0  0
 20 22  1  0  0  0  0
 22 23  1  0  0  0  0
 22 24  1  0  0  0  0
 22 25  1  0  0  0  0
M  END
$$$$

  -OEChem-01062216063D

 25 24  0     1  0  0  0  0  0999 V2000
   -2.8486   -3.4291    1.1618 H   0  0  0  0  0  0  0  0  0  0  0  0
   -2.8614   -2.3562    0.9496 C   0  0  0  0  0  0  0  0  0  0  0  0
   -3.1837   -1.8249    1.8485 H   0  0  0  0  0  0  0  0  0  0  0  0
   -3.5749   -2.1643    0.1445 H   0  0  0  0  0  0  0  0  0  0  0  0
   -1.4778   -1.8890    0.5402 C   0  0  0  0  0  0  0  0  0  0  0  0
   -0.6001   -2.7066    0.3225 O   0  0  0  0  0  0  0  0  0  0  0  0
   -1.2602   -0.5569    0.2495 N   0  0  0  0  0  0  0  0  0  0  0  0
   -2.0748    0.0359    0.3905 H   0  0  0  0  0  0  0  0  0  0  0  0
    0.0440    0.1464    0.2924 C   0  0  1  0  0  0  0  0  0  0  0  0
   -0.1681    1.2131    0.4255 H   0  0  0  0  0  0  0  0  0  0  0  0
    0.9622   -0.2923    1.4617 C   0  0  0  0  0  0  0  0  0  0  0  0
    1.1279   -1.3710    1.4527 H   0  0  0  0  0  0  0  0  0  0  0  0
    1.9437    0.1730    1.3329 H   0  0  0  0  0  0  0  0  0  0  0  0
    0.4482    0.1313    2.8335 C   0  0  0  0  0  0  0  0  0  0  0  0
   -0.2324    1.1394    2.9402 O   0  0  0  0  0  0  0  0  0  0  0  0
    0.7928   -0.6476    3.8848 O   0  0  0  0  0  0  0  0  0  0  0  0
    0.4152   -0.2246    4.6705 H   0  0  0  0  0  0  0  0  0  0  0  0
    0.7923    0.0831   -1.0565 C   0  0  0  0  0  0  0  0  0  0  0  0
    1.7065    0.8656   -1.2790 O   0  0  0  0  0  0  0  0  0  0  0  0
    0.4093   -0.8177   -2.0319 N   0  0  0  0  0  0  0  0  0  0  0  0
   -0.1835   -1.5777   -1.7007 H   0  0  0  0  0  0  0  0  0  0  0  0
    1.1567   -1.0077   -3.2683 C   0  0  0  0  0  0  0  0  0  0  0  0
    2.1652   -1.3758   -3.0527 H   0  0  0  0  0  0  0  0  0  0  0  0
    0.6491   -1.7360   -3.9080 H   0  0  0  0  0  0  0  0  0  0  0  0
    1.2359   -0.0640   -3.8182 H   0  0  0  0  0  0  0  0  0  0  0  0
  1  2  1  0  0  0  0
  2  3  1  0  0  0  0
  2  4  1  0  0  0  0
  2  5  1  0  0  0  0
  5  6  2  0  0  0  0
  5  7  1  0  0  0  0
  7  8  1  0  0  0  0
  7  9  1  0  0  0  0
  9 10  1  0  0  0  0
  9 11  1  0  0  0  0
  9 18  1  0  0  0  0
 11 12  1  0  0  0  0
 11 13  1  0  0  0  0
 11 14  1  0  0  0  0
 14 15  2  0  0  0  0
 14 16  1  0  0  0  0
 16 17  1  0  0  0  0
 18 19  2  0  0  0  0
 18 20  1  0  0  0  0
 20 21  1  0  0  0  0
 20 22  1  0  0  0  0
 22 23  1  0  0  0  0
 22 24  1  0  0  0  0
 22 25  1  0  0  0  0
M  END
$$$$

  -OEChem-01062216063D

 25 24  0     1  0  0  0  0  0999 V2000
   -2.8425   -3.4412    1.1460 H   0  0  0  0  0  0  0  0  0  0  0  0
   -2.8490   -2.3647    0.9523 C   0  0  0  0  0  0  0  0  0  0  0  0
   -3.1613   -1.8470    1.8626 H   0  0  0  0  0  0  0  0  0  0  0  0
   -3.5669   -2.1542    0.1560 H   0  0  0  0  0  0  0  0  0  0  0  0
   -1.4648   -1.8996    0.5411 C   0  0  0  0  0  0  0  0  0  0  0  0
   -0.5857   -2.7191    0.3414 O   0  0  0  0  0  0  0  0  0  0  0  0
   -1.2493   -0.5652    0.2551 N   0  0  0  0  0  0  0  0  0  0  0  0
   -2.0627    0.0257    0.4095 H   0  0  0  0  0  0  0  0  0  0  0  0
    0.0551    0.1391    0.2946 C   0  0  1  0  0  0  0  0  0  0  0  0
   -0.1581    1.2054    0.4268 H   0  0  0  0  0  0  0  0  0  0  0  0
    0.9667   -0.2972    1.4723 C   0  0  0  0  0  0  0  0  0  0  0  0
    1.1319   -1.3759    1.4684 H   0  0  0  0  0  0  0  0  0  0  0  0
    1.9502    0.1659    1.3516 H   0  0  0  0  0  0  0  0  0  0  0  0
    0.4448    0.1352    2.8385 C   0  0  0  0  0  0  0  0  0  0  0  0
   -0.2338    1.1459    2.9351 O   0  0  0  0  0  0  0  0  0  0  0  0
    0.7755   -0.6416    3.8958 O   0  0  0  0  0  0  0  0  0  0  0  0
    0.3903   -0.2161    4.6763 H   0  0  0  0  0  0  0  0  0  0  0  0
    0.7995    0.0843   -1.0592 C   0  0  0  0  0  0  0  0  0  0  0  0
    1.8475    0.7000   -1.2034 O   0  0  0  0  0  0  0  0  0  0  0  0
    0.2466   -0.5715   -2.1431 N   0  0  0  0  0  0  0  0  0  0  0  0
   -0.5036   -1.2195   -1.9164 H   0  0  0  0  0  0  0  0  0  0  0  0
    0.9476   -0.7341   -3.4107 C   0  0  0  0  0  0  0  0  0  0  0  0
    1.8579   -1.3267   -3.2710 H   0  0  0  0  0  0  0  0  0  0  0  0
    0.3063   -1.2460   -4.1344 H   0  0  0  0  0  0  0  0  0  0  0  0
    1.2226    0.2414   -3.8257 H   0  0  0  0  0  0  0  0  0  0  0  0
  1  2  1  0  0  0  0
  2  3  1  0  0  0  0
  2  4  1  0  0  0  0
  2  5  1  0  0  0  0
  5  6  2  0  0  0  0
  5  7  1  0  0  0  0
  7  8  1  0  0  0  0
  7  9  1  0  0  0  0
  9 10  1  0  0  0  0
  9 11  1  0  0  0  0
  9 18  1  0  0  0  0
 11 12  1  0  0  0  0
 11 13  1  0  0  0  0
 11 14  1  0  0  0  0
 14 15  2  0  0  0  0
 14 16  1  0  0  0  0
 16 17  1  0  0  0  0
 18 19  2  0  0  0  0
 18 20  1  0  0  0  0
 20 21  1  0  0  0  0
 20 22  1  0  0  0  0
 22 23  1  0  0  0  0
 22 24  1  0  0  0  0
 22 25  1  0  0  0  0
M  END
$$$$

  -OEChem-01062216063D

 25 24  0     1  0  0  0  0  0999 V2000
   -2.8242   -3.4493    1.1358 H   0  0  0  0  0  0  0  0  0  0  0  0
   -2.8341   -2.3755    0.9277 C   0  0  0  0  0  0  0  0  0  0  0  0
   -3.1651   -1.8481    1.8256 H   0  0  0  0  0  0  0  0  0  0  0  0
   -3.5397   -2.1804    0.1167 H   0  0  0  0  0  0  0  0  0  0  0  0
   -1.4457   -1.9077    0.5338 C   0  0  0  0  0  0  0  0  0  0  0  0
   -0.5610   -2.7269    0.3622 O   0  0  0  0  0  0  0  0  0  0  0  0
   -1.2322   -0.5702    0.2565 N   0  0  0  0  0  0  0  0  0  0  0  0
   -2.0457    0.0179    0.4210 H   0  0  0  0  0  0  0  0  0  0  0  0
    0.0722    0.1344    0.2994 C   0  0  1  0  0  0  0  0  0  0  0  0
   -0.1411    1.2003    0.4324 H   0  0  0  0  0  0  0  0  0  0  0  0
    0.9766   -0.3003    1.4851 C   0  0  0  0  0  0  0  0  0  0  0  0
    1.1432   -1.3786    1.4850 H   0  0  0  0  0  0  0  0  0  0  0  0
    1.9611    0.1620    1.3740 H   0  0  0  0  0  0  0  0  0  0  0  0
    0.4451    0.1370    2.8459 C   0  0  0  0  0  0  0  0  0  0  0  0
   -0.2331    1.1490    2.9336 O   0  0  0  0  0  0  0  0  0  0  0  0
    0.7663   -0.6367    3.9085 O   0  0  0  0  0  0  0  0  0  0  0  0
    0.3773   -0.2076    4.6849 H   0  0  0  0  0  0  0  0  0  0  0  0
    0.8093    0.0854   -1.0603 C   0  0  0  0  0  0  0  0  0  0  0  0
    1.9596    0.4930   -1.1567 O   0  0  0  0  0  0  0  0  0  0  0  0
    0.1340   -0.2832   -2.2092 N   0  0  0  0  0  0  0  0  0  0  0  0
   -0.7515   -0.7581   -2.0610 H   0  0  0  0  0  0  0  0  0  0  0  0
    0.7901   -0.4152   -3.5044 C   0  0  0  0  0  0  0  0  0  0  0  0
    1.5607   -1.1923   -3.4647 H   0  0  0  0  0  0  0  0  0  0  0  0
    0.0600   -0.6876   -4.2725 H   0  0  0  0  0  0  0  0  0  0  0  0
    1.2585    0.5308   -3.7957 H   0  0  0  0  0  0  0  0  0  0  0  0
  1  2  1  0  0  0  0
  2  3  1  0  0  0  0
  2  4  1  0  0  0  0
  2  5  1  0  0  0  0
  5  6  2  0  0  0  0
  5  7  1  0  0  0  0
  7  8  1  0  0  0  0
  7  9  1  0  0  0  0
  9 10  1  0  0  0  0
  9 11  1  0  0  0  0
  9 18  1  0  0  0  0
 11 12  1  0  0  0  0
 11 13  1  0  0  0  0
 11 14  1  0  0  0  0
 14 15  2  0  0  0  0
 14 16  1  0  0  0  0
 16 17  1  0  0  0  0
 18 19  2  0  0  0  0
 18 20  1  0  0  0  0
 20 21  1  0  0  0  0
 20 22  1  0  0  0  0
 22 23  1  0  0  0  0
 22 24  1  0  0  0  0
 22 25  1  0  0  0  0
M  END
$$$$

  -OEChem-01062216063D

 25 24  0     1  0  0  0  0  0999 V2000
   -2.8105   -3.4508    1.1245 H   0  0  0  0  0  0  0  0  0  0  0  0
   -2.8240   -2.3835    0.8851 C   0  0  0  0  0  0  0  0  0  0  0  0
   -3.1887   -1.8345    1.7566 H   0  0  0  0  0  0  0  0  0  0  0  0
   -3.5048   -2.2193    0.0463 H   0  0  0  0  0  0  0  0  0  0  0  0
   -1.4280   -1.9133    0.5222 C   0  0  0  0  0  0  0  0  0  0  0  0
   -0.5383   -2.7328    0.3834 O   0  0  0  0  0  0  0  0  0  0  0  0
   -1.2121   -0.5739    0.2534 N   0  0  0  0  0  0  0  0  0  0  0  0
   -2.0263    0.0128    0.4182 H   0  0  0  0  0  0  0  0  0  0  0  0
    0.0929    0.1285    0.3050 C   0  0  1  0  0  0  0  0  0  0  0  0
   -0.1187    1.1947    0.4359 H   0  0  0  0  0  0  0  0  0  0  0  0
    0.9890   -0.3022    1.5000 C   0  0  0  0  0  0  0  0  0  0  0  0
    1.1556   -1.3805    1.5051 H   0  0  0  0  0  0  0  0  0  0  0  0
    1.9745    0.1593    1.3954 H   0  0  0  0  0  0  0  0  0  0  0  0
    0.4484    0.1411    2.8552 C   0  0  0  0  0  0  0  0  0  0  0  0
   -0.2295    1.1544    2.9324 O   0  0  0  0  0  0  0  0  0  0  0  0
    0.7655   -0.6242    3.9252 O   0  0  0  0  0  0  0  0  0  0  0  0
    0.3716   -0.1904    4.6966 H   0  0  0  0  0  0  0  0  0  0  0  0
    0.8219    0.0775   -1.0597 C   0  0  0  0  0  0  0  0  0  0  0  0
    2.0327    0.2408   -1.1359 O   0  0  0  0  0  0  0  0  0  0  0  0
    0.0868    0.0204   -2.2298 N   0  0  0  0  0  0  0  0  0  0  0  0
   -0.8866   -0.2487   -2.1272 H   0  0  0  0  0  0  0  0  0  0  0  0
    0.7029   -0.0688   -3.5484 C   0  0  0  0  0  0  0  0  0  0  0  0
    1.3053   -0.9799   -3.6279 H   0  0  0  0  0  0  0  0  0  0  0  0
   -0.0669   -0.0923   -4.3255 H   0  0  0  0  0  0  0  0  0  0  0  0
    1.3484    0.7971   -3.7298 H   0  0  0  0  0  0  0  0  0  0  0  0
  1  2  1  0  0  0  0
  2  3  1  0  0  0  0
  2  4  1  0  0  0  0
  2  5  1  0  0  0  0
  5  6  2  0  0  0  0
  5  7  1  0  0  0  0
  7  8  1  0  0  0  0
  7  9  1  0  0  0  0
  9 10  1  0  0  0  0
  9 11  1  0  0  0  0
  9 18  1  0  0  0  0
 11 12  1  0  0  0  0
 11 13  1  0  0  0  0
 11 14  1  0  0  0  0
 14 15  2  0  0  0  0
 14 16  1  0  0  0  0
 16 17  1  0  0  0  0
 18 19  2  0  0  0  0
 18 20  1  0  0  0  0
 20 21  1  0  0  0  0
 20 22  1  0  0  0  0
 22 23  1  0  0  0  0
 22 24  1  0  0  0  0
 22 25  1  0  0  0  0
M  END
$$$$

  -OEChem-01062216063D

 25 24  0     1  0  0  0  0  0999 V2000
   -2.8172   -3.4513    1.1001 H   0  0  0  0  0  0  0  0  0  0  0  0
   -2.8247   -2.3883    0.8422 C   0  0  0  0  0  0  0  0  0  0  0  0
   -3.2233   -1.8254    1.6897 H   0  0  0  0  0  0  0  0  0  0  0  0
   -3.4737   -2.2410   -0.0243 H   0  0  0  0  0  0  0  0  0  0  0  0
   -1.4172   -1.9196    0.5232 C   0  0  0  0  0  0  0  0  0  0  0  0
   -0.5240   -2.7414    0.4283 O   0  0  0  0  0  0  0  0  0  0  0  0
   -1.1966   -0.5802    0.2556 N   0  0  0  0  0  0  0  0  0  0  0  0
   -2.0157    0.0046    0.3984 H   0  0  0  0  0  0  0  0  0  0  0  0
    0.1059    0.1247    0.3095 C   0  0  1  0  0  0  0  0  0  0  0  0
   -0.1071    1.1907    0.4390 H   0  0  0  0  0  0  0  0  0  0  0  0
    1.0028   -0.2983    1.5065 C   0  0  0  0  0  0  0  0  0  0  0  0
    1.1758   -1.3756    1.5145 H   0  0  0  0  0  0  0  0  0  0  0  0
    1.9856    0.1686    1.3989 H   0  0  0  0  0  0  0  0  0  0  0  0
    0.4596    0.1472    2.8599 C   0  0  0  0  0  0  0  0  0  0  0  0
   -0.2223    1.1583    2.9324 O   0  0  0  0  0  0  0  0  0  0  0  0
    0.7778   -0.6133    3.9330 O   0  0  0  0  0  0  0  0  0  0  0  0
    0.3760   -0.1825    4.7017 H   0  0  0  0  0  0  0  0  0  0  0  0
    0.8284    0.0685   -1.0585 C   0  0  0  0  0  0  0  0  0  0  0  0
    2.0461   -0.0285   -1.1371 O   0  0  0  0  0  0  0  0  0  0  0  0
    0.1113    0.3200   -2.2146 N   0  0  0  0  0  0  0  0  0  0  0  0
   -0.8995    0.2884   -2.1326 H   0  0  0  0  0  0  0  0  0  0  0  0
    0.7084    0.2784   -3.5444 C   0  0  0  0  0  0  0  0  0  0  0  0
    1.1151   -0.7172   -3.7508 H   0  0  0  0  0  0  0  0  0  0  0  0
   -0.0435    0.5107   -4.3045 H   0  0  0  0  0  0  0  0  0  0  0  0
    1.5170    1.0124   -3.6253 H   0  0  0  0  0  0  0  0  0  0  0  0
  1  2  1  0  0  0  0
  2  3  1  0  0  0  0
  2  4  1  0  0  0  0
  2  5  1  0  0  0  0
  5  6  2  0  0  0  0
  5  7  1  0  0  0  0
  7  8  1  0  0  0  0
  7  9  1  0  0  0  0
  9 10  1  0  0  0  0
  9 11  1  0  0  0  0
  9 18  1  0  0  0  0
 11 12  1  0  0  0  0
 11 13  1  0  0  0  0
 11 14  1  0  0  0  0
 14 15  2  0  0  0  0
 14 16  1  0  0  0  0
 16 17  1  0  0  0  0
 18 19  2  0  0  0  0
 18 20  1  0  0  0  0
 20 21  1  0  0  0  0
 20 22  1  0  0  0  0
 22 23  1  0  0  0  0
 22 24  1  0  0  0  0
 22 25  1  0  0  0  0
M  END
$$$$

  -OEChem-01062216063D

 25 24  0     1  0  0  0  0  0999 V2000
   -2.8418   -3.4586    1.0611 H   0  0  0  0  0  0  0  0  0  0  0  0
   -2.8374   -2.3950    0.8056 C   0  0  0  0  0  0  0  0  0  0  0  0
   -3.2646   -1.8330    1.6395 H   0  0  0  0  0  0  0  0  0  0  0  0
   -3.4546   -2.2443   -0.0832 H   0  0  0  0  0  0  0  0  0  0  0  0
   -1.4186   -1.9290    0.5375 C   0  0  0  0  0  0  0  0  0  0  0  0
   -0.5228   -2.7523    0.5034 O   0  0  0  0  0  0  0  0  0  0  0  0
   -1.1925   -0.5913    0.2643 N   0  0  0  0  0  0  0  0  0  0  0  0
   -2.0188   -0.0082    0.3628 H   0  0  0  0  0  0  0  0  0  0  0  0
    0.1062    0.1195    0.3115 C   0  0  1  0  0  0  0  0  0  0  0  0
   -0.1105    1.1846    0.4407 H   0  0  0  0  0  0  0  0  0  0  0  0
    1.0136   -0.2923    1.5038 C   0  0  0  0  0  0  0  0  0  0  0  0
    1.1936   -1.3683    1.5148 H   0  0  0  0  0  0  0  0  0  0  0  0
    1.9926    0.1795    1.3837 H   0  0  0  0  0  0  0  0  0  0  0  0
    0.4772    0.1550    2.8594 C   0  0  0  0  0  0  0  0  0  0  0  0
   -0.2110    1.1621    2.9313 O   0  0  0  0  0  0  0  0  0  0  0  0
    0.8128   -0.5940    3.9350 O   0  0  0  0  0  0  0  0  0  0  0  0
    0.4118   -0.1627    4.7038 H   0  0  0  0  0  0  0  0  0  0  0  0
    0.8226    0.0575   -1.0593 C   0  0  0  0  0  0  0  0  0  0  0  0
    1.9903   -0.2945   -1.1611 O   0  0  0  0  0  0  0  0  0  0  0  0
    0.2000    0.5946   -2.1725 N   0  0  0  0  0  0  0  0  0  0  0  0
   -0.7862    0.8162   -2.0863 H   0  0  0  0  0  0  0  0  0  0  0  0
    0.8104    0.6081   -3.4971 C   0  0  0  0  0  0  0  0  0  0  0  0
    1.0085   -0.4137   -3.8378 H   0  0  0  0  0  0  0  0  0  0  0  0
    0.1432    1.0911   -4.2173 H   0  0  0  0  0  0  0  0  0  0  0  0
    1.7551    1.1619   -3.4785 H   0  0  0  0  0  0  0  0  0  0  0  0
  1  2  1  0  0  0  0
  2  3  1  0  0  0  0
  2  4  1  0  0  0  0
  2  5  1  0  0  0  0
  5  6  2  0  0  0  0
  5  7  1  0  0  0  0
  7  8  1  0  0  0  0
  7  9  1  0  0  0  0
  9 10  1  0  0  0  0
  9 11  1  0  0  0  0
  9 18  1  0  0  0  0
 11 12  1  0  0  0  0
 11 13  1  0  0  0  0
 11 14  1  0  0  0  0
 14 15  2  0  0  0  0
 14 16  1  0  0  0  0
 16 17  1  0  0  0  0
 18 19  2  0  0  0  0
 18 20  1  0  0  0  0
 20 21  1  0  0  0  0
 20 22  1  0  0  0  0
 22 23  1  0  0  0  0
 22 24  1  0  0  0  0
 22 25  1  0  0  0  0
M  END
$$$$

  -OEChem-01062216063D

 25 24  0     1  0  0  0  0  0999 V2000
   -2.8872   -3.4643    0.9884 H   0  0  0  0  0  0  0  0  0  0  0  0
   -2.8638   -2.4014    0.7312 C   0  0  0  0  0  0  0  0  0  0  0  0
   -3.3558   -1.8378    1.5274 H   0  0  0  0  0  0  0  0  0  0  0  0
   -3.4091   -2.2538   -0.2039 H   0  0  0  0  0  0  0  0  0  0  0  0
   -1.4290   -1.9337    0.5734 C   0  0  0  0  0  0  0  0  0  0  0  0
   -0.5339   -2.7545    0.6488 O   0  0  0  0  0  0  0  0  0  0  0  0
   -1.1917   -0.5989    0.2926 N   0  0  0  0  0  0  0  0  0  0  0  0
   -2.0273   -0.0214    0.2845 H   0  0  0  0  0  0  0  0  0  0  0  0
    0.1017    0.1216    0.3262 C   0  0  1  0  0  0  0  0  0  0  0  0
   -0.1224    1.1844    0.4596 H   0  0  0  0  0  0  0  0  0  0  0  0
    1.0350   -0.2761    1.5018 C   0  0  0  0  0  0  0  0  0  0  0  0
    1.2284   -1.3498    1.5115 H   0  0  0  0  0  0  0  0  0  0  0  0
    2.0059    0.2056    1.3581 H   0  0  0  0  0  0  0  0  0  0  0  0
    0.5197    0.1660    2.8671 C   0  0  0  0  0  0  0  0  0  0  0  0
   -0.1794    1.1651    2.9505 O   0  0  0  0  0  0  0  0  0  0  0  0
    0.8929   -0.5718    3.9383 O   0  0  0  0  0  0  0  0  0  0  0  0
    0.4960   -0.1487    4.7135 H   0  0  0  0  0  0  0  0  0  0  0  0
    0.8065    0.0537   -1.0495 C   0  0  0  0  0  0  0  0  0  0  0  0
    1.8583   -0.5511   -1.2069 O   0  0  0  0  0  0  0  0  0  0  0  0
    0.3377    0.8360   -2.0908 N   0  0  0  0  0  0  0  0  0  0  0  0
   -0.5442    1.3189   -1.9556 H   0  0  0  0  0  0  0  0  0  0  0  0
    0.9721    0.8808   -3.4034 C   0  0  0  0  0  0  0  0  0  0  0  0
    0.9760   -0.1146   -3.8602 H   0  0  0  0  0  0  0  0  0  0  0  0
    0.4293    1.5635   -4.0640 H   0  0  0  0  0  0  0  0  0  0  0  0
    2.0058    1.2328   -3.3176 H   0  0  0  0  0  0  0  0  0  0  0  0
  1  2  1  0  0  0  0
  2  3  1  0  0  0  0
  2  4  1  0  0  0  0
  2  5  1  0  0  0  0
  5  6  2  0  0  0  0
  5  7  1  0  0  0  0
  7  8  1  0  0  0  0
  7  9  1  0  0  0  0
  9 10  1  0  0  0  0
  9 11  1  0  0  0  0
  9 18  1  0  0  0  0
 11 12  1  0  0  0  0
 11 13  1  0  0  0  0
 11 14  1  0  0  0  0
 14 15  2  0  0  0  0
 14 16  1  0  0  0  0
 16 17  1  0  0  0  0
 18 19  2  0  0  0  0
 18 20  1  0  0  0  0
 20 21  1  0  0  0  0
 20 22  1  0  0  0  0
 22 23  1  0  0  0  0
 22 24  1  0  0  0  0
 22 25  1  0  0  0  0
M  END
$$$$

  -OEChem-01062216063D

 25 24  0     1  0  0  0  0  0999 V2000
   -2.9366   -3.4658    0.8987 H   0  0  0  0  0  0  0  0  0  0  0  0
   -2.8901   -2.4086    0.6217 C   0  0  0  0  0  0  0  0  0  0  0  0
   -3.4838   -1.8327    1.3356 H   0  0  0  0  0  0  0  0  0  0  0  0
   -3.3136   -2.2888   -0.3782 H   0  0  0  0  0  0  0  0  0  0  0  0
   -1.4507   -1.9277    0.6350 C   0  0  0  0  0  0  0  0  0  0  0  0
   -0.5726   -2.7316    0.8854 O   0  0  0  0  0  0  0  0  0  0  0  0
   -1.1986   -0.5968    0.3444 N   0  0  0  0  0  0  0  0  0  0  0  0
   -2.0298   -0.0434    0.1602 H   0  0  0  0  0  0  0  0  0  0  0  0
    0.0919    0.1306    0.3555 C   0  0  1  0  0  0  0  0  0  0  0  0
   -0.1394    1.1904    0.4973 H   0  0  0  0  0  0  0  0  0  0  0  0
    1.0634   -0.2567    1.5016 C   0  0  0  0  0  0  0  0  0  0  0  0
    1.2712   -1.3279    1.5034 H   0  0  0  0  0  0  0  0  0  0  0  0
    2.0237    0.2357    1.3282 H   0  0  0  0  0  0  0  0  0  0  0  0
    0.5841    0.1776    2.8826 C   0  0  0  0  0  0  0  0  0  0  0  0
   -0.1238    1.1685    2.9870 O   0  0  0  0  0  0  0  0  0  0  0  0
    1.0080   -0.5481    3.9430 O   0  0  0  0  0  0  0  0  0  0  0  0
    0.6202   -0.1354    4.7283 H   0  0  0  0  0  0  0  0  0  0  0  0
    0.7797    0.0571   -1.0276 C   0  0  0  0  0  0  0  0  0  0  0  0
    1.6311   -0.7833   -1.2803 O   0  0  0  0  0  0  0  0  0  0  0  0
    0.5168    1.0330   -1.9740 N   0  0  0  0  0  0  0  0  0  0  0  0
   -0.1663    1.7468   -1.7422 H   0  0  0  0  0  0  0  0  0  0  0  0
    1.1753    1.0834   -3.2747 C   0  0  0  0  0  0  0  0  0  0  0  0
    0.9944    0.1582   -3.8322 H   0  0  0  0  0  0  0  0  0  0  0  0
    0.7894    1.9216   -3.8627 H   0  0  0  0  0  0  0  0  0  0  0  0
    2.2556    1.2152   -3.1523 H   0  0  0  0  0  0  0  0  0  0  0  0
  1  2  1  0  0  0  0
  2  3  1  0  0  0  0
  2  4  1  0  0  0  0
  2  5  1  0  0  0  0
  5  6  2  0  0  0  0
  5  7  1  0  0  0  0
  7  8  1  0  0  0  0
  7  9  1  0  0  0  0
  9 10  1  0  0  0  0
  9 11  1  0  0  0  0
  9 18  1  0  0  0  0
 11 12  1  0  0  0  0
 11 13  1  0  0  0  0
 11 14  1  0  0  0  0
 14 15  2  0  0  0  0
 14 16  1  0  0  0  0
 16 17  1  0  0  0  0
 18 19  2  0  0  0  0
 18 20  1  0  0  0  0
 20 21  1  0  0  0  0
 20 22  1  0  0  0  0
 22 23  1  0  0  0  0
 22 24  1  0  0  0  0
 22 25  1  0  0  0  0
M  END
$$$$

  -OEChem-01062216063D

 25 24  0     1  0  0  0  0  0999 V2000
   -2.9297   -3.4782    0.7395 H   0  0  0  0  0  0  0  0  0  0  0  0
   -2.8786   -2.4153    0.4860 C   0  0  0  0  0  0  0  0  0  0  0  0
   -3.5830   -1.8690    1.1177 H   0  0  0  0  0  0  0  0  0  0  0  0
   -3.1636   -2.2915   -0.5615 H   0  0  0  0  0  0  0  0  0  0  0  0
   -1.4709   -1.8922    0.7057 C   0  0  0  0  0  0  0  0  0  0  0  0
   -0.6374   -2.6522    1.1630 O   0  0  0  0  0  0  0  0  0  0  0  0
   -1.2123   -0.5644    0.4047 N   0  0  0  0  0  0  0  0  0  0  0  0
   -2.0085   -0.0646    0.0207 H   0  0  0  0  0  0  0  0  0  0  0  0
    0.0803    0.1605    0.4028 C   0  0  1  0  0  0  0  0  0  0  0  0
   -0.1520    1.2189    0.5532 H   0  0  0  0  0  0  0  0  0  0  0  0
    1.0873   -0.2303    1.5149 C   0  0  0  0  0  0  0  0  0  0  0  0
    1.3046   -1.2995    1.4971 H   0  0  0  0  0  0  0  0  0  0  0  0
    2.0381    0.2717    1.3191 H   0  0  0  0  0  0  0  0  0  0  0  0
    0.6470    0.1872    2.9138 C   0  0  0  0  0  0  0  0  0  0  0  0
   -0.0641    1.1722    3.0485 O   0  0  0  0  0  0  0  0  0  0  0  0
    1.1194   -0.5369    3.9547 O   0  0  0  0  0  0  0  0  0  0  0  0
    0.7404   -0.1435    4.7539 H   0  0  0  0  0  0  0  0  0  0  0  0
    0.7541    0.0747   -0.9854 C   0  0  0  0  0  0  0  0  0  0  0  0
    1.2992   -0.9498   -1.3693 O   0  0  0  0  0  0  0  0  0  0  0  0
    0.7489    1.1765   -1.8236 N   0  0  0  0  0  0  0  0  0  0  0  0
    0.3247    2.0326   -1.4805 H   0  0  0  0  0  0  0  0  0  0  0  0
    1.3932    1.1861   -3.1324 C   0  0  0  0  0  0  0  0  0  0  0  0
    0.9705    0.4056   -3.7741 H   0  0  0  0  0  0  0  0  0  0  0  0
    1.2430    2.1531   -3.6217 H   0  0  0  0  0  0  0  0  0  0  0  0
    2.4698    1.0130   -3.0308 H   0  0  0  0  0  0  0  0  0  0  0  0
  1  2  1  0  0  0  0
  2  3  1  0  0  0  0
  2  4  1  0  0  0  0
  2  5  1  0  0  0  0
  5  6  2  0  0  0  0
  5  7  1  0  0  0  0
  7  8  1  0  0  0  0
  7  9  1  0  0  0  0
  9 10  1  0  0  0  0
  9 11  1  0  0  0  0
  9 18  1  0  0  0  0
 11 12  1  0  0  0  0
 11 13  1  0  0  0  0
 11 14  1  0  0  0  0
 14 15  2  0  0  0  0
 14 16  1  0  0  0  0
 16 17  1  0  0  0  0
 18 19  2  0  0  0  0
 18 20  1  0  0  0  0
 20 21  1  0  0  0  0
 20 22  1  0  0  0  0
 22 23  1  0  0  0  0
 22 24  1  0  0  0  0
 22 25  1  0  0  0  0
M  END
$$$$

  -OEChem-01062216063D

 25 24  0     1  0  0  0  0  0999 V2000
   -2.9019   -3.4792    0.6719 H   0  0  0  0  0  0  0  0  0  0  0  0
   -2.8507   -2.4188    0.4085 C   0  0  0  0  0  0  0  0  0  0  0  0
   -3.6215   -1.8802    0.9648 H   0  0  0  0  0  0  0  0  0  0  0  0
   -3.0406   -2.3154   -0.6625 H   0  0  0  0  0  0  0  0  0  0  0  0
   -1.4808   -1.8605    0.7476 C   0  0  0  0  0  0  0  0  0  0  0  0
   -0.6881   -2.5844    1.3229 O   0  0  0  0  0  0  0  0  0  0  0  0
   -1.2209   -0.5345    0.4397 N   0  0  0  0  0  0  0  0  0  0  0  0
   -1.9782   -0.0783   -0.0596 H   0  0  0  0  0  0  0  0  0  0  0  0
    0.0776    0.1802    0.4342 C   0  0  1  0  0  0  0  0  0  0  0  0
   -0.1511    1.2393    0.5852 H   0  0  0  0  0  0  0  0  0  0  0  0
    1.0971   -0.2199    1.5303 C   0  0  0  0  0  0  0  0  0  0  0  0
    1.3113   -1.2896    1.5014 H   0  0  0  0  0  0  0  0  0  0  0  0
    2.0464    0.2822    1.3278 H   0  0  0  0  0  0  0  0  0  0  0  0
    0.6761    0.1908    2.9374 C   0  0  0  0  0  0  0  0  0  0  0  0
   -0.0299    1.1772    3.0871 O   0  0  0  0  0  0  0  0  0  0  0  0
    1.1643   -0.5385    3.9672 O   0  0  0  0  0  0  0  0  0  0  0  0
    0.7879   -0.1568    4.7734 H   0  0  0  0  0  0  0  0  0  0  0  0
    0.7491    0.0843   -0.9541 C   0  0  0  0  0  0  0  0  0  0  0  0
    0.9590   -0.9973   -1.4843 O   0  0  0  0  0  0  0  0  0  0  0  0
    1.0330    1.2374   -1.6656 N   0  0  0  0  0  0  0  0  0  0  0  0
    0.8722    2.1298   -1.2082 H   0  0  0  0  0  0  0  0  0  0  0  0
    1.6457    1.2263   -2.9894 C   0  0  0  0  0  0  0  0  0  0  0  0
    1.0252    0.6631   -3.6947 H   0  0  0  0  0  0  0  0  0  0  0  0
    1.7542    2.2480   -3.3660 H   0  0  0  0  0  0  0  0  0  0  0  0
    2.6381    0.7649   -2.9481 H   0  0  0  0  0  0  0  0  0  0  0  0
  1  2  1  0  0  0  0
  2  3  1  0  0  0  0
  2  4  1  0  0  0  0
  2  5  1  0  0  0  0
  5  6  2  0  0  0  0
  5  7  1  0  0  0  0
  7  8  1  0  0  0  0
  7  9  1  0  0  0  0
  9 10  1  0  0  0  0
  9 11  1  0  0  0  0
  9 18  1  0  0  0  0
 11 12  1  0  0  0  0
 11 13  1  0  0  0  0
 11 14  1  0  0  0  0
 14 15  2  0  0  0  0
 14 16  1  0  0  0  0
 16 17  1  0  0  0  0
 18 19  2  0  0  0  0
 18 20  1  0  0  0  0
 20 21  1  0  0  0  0
 20 22  1  0  0  0  0
 22 23  1  0  0  0  0
 22 24  1  0  0  0  0
 22 25  1  0  0  0  0
M  END
$$$$

  -OEChem-01062216063D

 25 24  0     1  0  0  0  0  0999 V2000
   -2.9045   -3.4744    0.6745 H   0  0  0  0  0  0  0  0  0  0  0  0
   -2.8392   -2.4232    0.3799 C   0  0  0  0  0  0  0  0  0  0  0  0
   -3.6365   -1.8673    0.8785 H   0  0  0  0  0  0  0  0  0  0  0  0
   -2.9739   -2.3538   -0.7022 H   0  0  0  0  0  0  0  0  0  0  0  0
   -1.4874   -1.8532    0.7680 C   0  0  0  0  0  0  0  0  0  0  0  0
   -0.7094   -2.5679    1.3751 O   0  0  0  0  0  0  0  0  0  0  0  0
   -1.2230   -0.5291    0.4571 N   0  0  0  0  0  0  0  0  0  0  0  0
   -1.9575   -0.0925   -0.0917 H   0  0  0  0  0  0  0  0  0  0  0  0
    0.0823    0.1730    0.4460 C   0  0  1  0  0  0  0  0  0  0  0  0
   -0.1425    1.2341    0.5902 H   0  0  0  0  0  0  0  0  0  0  0  0
    1.1009   -0.2267    1.5429 C   0  0  0  0  0  0  0  0  0  0  0  0
    1.3055   -1.2984    1.5231 H   0  0  0  0  0  0  0  0  0  0  0  0
    2.0546    0.2651    1.3362 H   0  0  0  0  0  0  0  0  0  0  0  0
    0.6859    0.1992    2.9475 C   0  0  0  0  0  0  0  0  0  0  0  0
   -0.0115    1.1924    3.0906 O   0  0  0  0  0  0  0  0  0  0  0  0
    1.1754   -0.5217    3.9823 O   0  0  0  0  0  0  0  0  0  0  0  0
    0.8032   -0.1298    4.7857 H   0  0  0  0  0  0  0  0  0  0  0  0
    0.7554    0.0751   -0.9421 C   0  0  0  0  0  0  0  0  0  0  0  0
    0.6736   -0.9412   -1.6187 O   0  0  0  0  0  0  0  0  0  0  0  0
    1.3278    1.2013   -1.5077 N   0  0  0  0  0  0  0  0  0  0  0  0
    1.3852    2.0409   -0.9388 H   0  0  0  0  0  0  0  0  0  0  0  0
    1.9260    1.2108   -2.8382 C   0  0  0  0  0  0  0  0  0  0  0  0
    1.1835    0.9364   -3.5950 H   0  0  0  0  0  0  0  0  0  0  0  0
    2.3068    2.2088   -3.0755 H   0  0  0  0  0  0  0  0  0  0  0  0
    2.7586    0.5011   -2.8891 H   0  0  0  0  0  0  0  0  0  0  0  0
  1  2  1  0  0  0  0
  2  3  1  0  0  0  0
  2  4  1  0  0  0  0
  2  5  1  0  0  0  0
  5  6  2  0  0  0  0
  5  7  1  0  0  0  0
  7  8  1  0  0  0  0
  7  9  1  0  0  0  0
  9 10  1  0  0  0  0
  9 11  1  0  0  0  0
  9 18  1  0  0  0  0
 11 12  1  0  0  0  0
 11 13  1  0  0  0  0
 11 14  1  0  0  0  0
 14 15  2  0  0  0  0
 14 16  1  0  0  0  0
 16 17  1  0  0  0  0
 18 19  2  0  0  0  0
 18 20  1  0  0  0  0
 20 21  1  0  0  0  0
 20 22  1  0  0  0  0
 22 23  1  0  0  0  0
 22 24  1  0  0  0  0
 22 25  1  0  0  0  0
M  END
$$$$

  -OEChem-01062216063D

 25 24  0     1  0  0  0  0  0999 V2000
   -2.9013   -3.4742    0.6718 H   0  0  0  0  0  0  0  0  0  0  0  0
   -2.8358   -2.4226    0.3788 C   0  0  0  0  0  0  0  0  0  0  0  0
   -3.6376   -1.8684    0.8724 H   0  0  0  0  0  0  0  0  0  0  0  0
   -2.9632   -2.3526   -0.7043 H   0  0  0  0  0  0  0  0  0  0  0  0
   -1.4876   -1.8508    0.7761 C   0  0  0  0  0  0  0  0  0  0  0  0
   -0.7092   -2.5664    1.3822 O   0  0  0  0  0  0  0  0  0  0  0  0
   -1.2205   -0.5280    0.4640 N   0  0  0  0  0  0  0  0  0  0  0  0
   -1.9421   -0.1021   -0.1104 H   0  0  0  0  0  0  0  0  0  0  0  0
    0.0871    0.1705    0.4515 C   0  0  1  0  0  0  0  0  0  0  0  0
   -0.1345    1.2334    0.5896 H   0  0  0  0  0  0  0  0  0  0  0  0
    1.1015   -0.2309    1.5535 C   0  0  0  0  0  0  0  0  0  0  0  0
    1.3029   -1.3032    1.5382 H   0  0  0  0  0  0  0  0  0  0  0  0
    2.0579    0.2566    1.3508 H   0  0  0  0  0  0  0  0  0  0  0  0
    0.6842    0.2008    2.9558 C   0  0  0  0  0  0  0  0  0  0  0  0
   -0.0090    1.1972    3.0948 O   0  0  0  0  0  0  0  0  0  0  0  0
    1.1658   -0.5220    3.9933 O   0  0  0  0  0  0  0  0  0  0  0  0
    0.7889   -0.1304    4.7947 H   0  0  0  0  0  0  0  0  0  0  0  0
    0.7609    0.0700   -0.9374 C   0  0  0  0  0  0  0  0  0  0  0  0
    0.4503   -0.8069   -1.7339 O   0  0  0  0  0  0  0  0  0  0  0  0
    1.5977    1.0848   -1.3688 N   0  0  0  0  0  0  0  0  0  0  0  0
    1.8302    1.8208   -0.7086 H   0  0  0  0  0  0  0  0  0  0  0  0
    2.2073    1.1099   -2.6938 C   0  0  0  0  0  0  0  0  0  0  0  0
    1.4356    1.1287   -3.4706 H   0  0  0  0  0  0  0  0  0  0  0  0
    2.8322    2.0010   -2.8072 H   0  0  0  0  0  0  0  0  0  0  0  0
    2.8357    0.2254   -2.8433 H   0  0  0  0  0  0  0  0  0  0  0  0
  1  2  1  0  0  0  0
  2  3  1  0  0  0  0
  2  4  1  0  0  0  0
  2  5  1  0  0  0  0
  5  6  2  0  0  0  0
  5  7  1  0  0  0  0
  7  8  1  0  0  0  0
  7  9  1  0  0  0  0
  9 10  1  0  0  0  0
  9 11  1  0  0  0  0
  9 18  1  0  0  0  0
 11 12  1  0  0  0  0
 11 13  1  0  0  0  0
 11 14  1  0  0  0  0
 14 15  2  0  0  0  0
 14 16  1  0  0  0  0
 16 17  1  0  0  0  0
 18 19  2  0  0  0  0
 18 20  1  0  0  0  0
 20 21  1  0  0  0  0
 20 22  1  0  0  0  0
 22 23  1  0  0  0  0
 22 24  1  0  0  0  0
 22 25  1  0  0  0  0
M  END
$$$$

  -OEChem-01062216063D

 25 24  0     1  0  0  0  0  0999 V2000
   -2.9009   -3.4761    0.6702 H   0  0  0  0  0  0  0  0  0  0  0  0
   -2.8387   -2.4192    0.3963 C   0  0  0  0  0  0  0  0  0  0  0  0
   -3.6226   -1.8712    0.9243 H   0  0  0  0  0  0  0  0  0  0  0  0
   -2.9983   -2.3264   -0.6809 H   0  0  0  0  0  0  0  0  0  0  0  0
   -1.4772   -1.8605    0.7655 C   0  0  0  0  0  0  0  0  0  0  0  0
   -0.6817   -2.5920    1.3289 O   0  0  0  0  0  0  0  0  0  0  0  0
   -1.2107   -0.5362    0.4617 N   0  0  0  0  0  0  0  0  0  0  0  0
   -1.9330   -0.1070   -0.1098 H   0  0  0  0  0  0  0  0  0  0  0  0
    0.0937    0.1685    0.4530 C   0  0  1  0  0  0  0  0  0  0  0  0
   -0.1288    1.2316    0.5895 H   0  0  0  0  0  0  0  0  0  0  0  0
    1.0982   -0.2338    1.5662 C   0  0  0  0  0  0  0  0  0  0  0  0
    1.3010   -1.3054    1.5530 H   0  0  0  0  0  0  0  0  0  0  0  0
    2.0573    0.2536    1.3793 H   0  0  0  0  0  0  0  0  0  0  0  0
    0.6663    0.1975    2.9643 C   0  0  0  0  0  0  0  0  0  0  0  0
   -0.0284    1.1932    3.0984 O   0  0  0  0  0  0  0  0  0  0  0  0
    1.1392   -0.5261    4.0051 O   0  0  0  0  0  0  0  0  0  0  0  0
    0.7581   -0.1328    4.8038 H   0  0  0  0  0  0  0  0  0  0  0  0
    0.7652    0.0753   -0.9394 C   0  0  0  0  0  0  0  0  0  0  0  0
    0.2834   -0.6132   -1.8312 O   0  0  0  0  0  0  0  0  0  0  0  0
    1.8228    0.9105   -1.2560 N   0  0  0  0  0  0  0  0  0  0  0  0
    2.1973    1.5001   -0.5189 H   0  0  0  0  0  0  0  0  0  0  0  0
    2.4657    0.9269   -2.5653 C   0  0  0  0  0  0  0  0  0  0  0  0
    1.7474    1.2095   -3.3420 H   0  0  0  0  0  0  0  0  0  0  0  0
    3.2868    1.6499   -2.5748 H   0  0  0  0  0  0  0  0  0  0  0  0
    2.8724   -0.0615   -2.8046 H   0  0  0  0  0  0  0  0  0  0  0  0
  1  2  1  0  0  0  0
  2  3  1  0  0  0  0
  2  4  1  0  0  0  0
  2  5  1  0  0  0  0
  5  6  2  0  0  0  0
  5  7  1  0  0  0  0
  7  8  1  0  0  0  0
  7  9  1  0  0  0  0
  9 10  1  0  0  0  0
  9 11  1  0  0  0  0
  9 18  1  0  0  0  0
 11 12  1  0  0  0  0
 11 13  1  0  0  0  0
 11 14  1  0  0  0  0
 14 15  2  0  0  0  0
 14 16  1  0  0  0  0
 16 17  1  0  0  0  0
 18 19  2  0  0  0  0
 18 20  1  0  0  0  0
 20 21  1  0  0  0  0
 20 22  1  0  0  0  0
 22 23  1  0  0  0  0
 22 24  1  0  0  0  0
 22 25  1  0  0  0  0
M  END
$$$$

  -OEChem-01062216063D

 25 24  0     1  0  0  0  0  0999 V2000
   -2.9440   -3.4227    0.6095 H   0  0  0  0  0  0  0  0  0  0  0  0
   -2.8584   -2.3617    0.3582 C   0  0  0  0  0  0  0  0  0  0  0  0
   -3.6476   -1.8120    0.8763 H   0  0  0  0  0  0  0  0  0  0  0  0
   -2.9889   -2.2453   -0.7205 H   0  0  0  0  0  0  0  0  0  0  0  0
   -1.4989   -1.8313    0.7744 C   0  0  0  0  0  0  0  0  0  0  0  0
   -0.7427   -2.5785    1.3711 O   0  0  0  0  0  0  0  0  0  0  0  0
   -1.1941   -0.5138    0.4772 N   0  0  0  0  0  0  0  0  0  0  0  0
   -1.8841   -0.0843   -0.1355 H   0  0  0  0  0  0  0  0  0  0  0  0
    0.1172    0.1808    0.4752 C   0  0  1  0  0  0  0  0  0  0  0  0
   -0.0522    1.1839    0.8799 H   0  0  0  0  0  0  0  0  0  0  0  0
    1.2482   -0.4716    1.3170 C   0  0  0  0  0  0  0  0  0  0  0  0
    1.4041   -1.5091    1.0126 H   0  0  0  0  0  0  0  0  0  0  0  0
    2.1916    0.0462    1.1363 H   0  0  0  0  0  0  0  0  0  0  0  0
    1.0128   -0.4006    2.8235 C   0  0  0  0  0  0  0  0  0  0  0  0
    0.3642    0.5250    3.2866 O   0  0  0  0  0  0  0  0  0  0  0  0
    1.6220   -1.3382    3.5853 O   0  0  0  0  0  0  0  0  0  0  0  0
    1.3430   -1.1672    4.4966 H   0  0  0  0  0  0  0  0  0  0  0  0
    0.5873    0.3964   -0.9867 C   0  0  0  0  0  0  0  0  0  0  0  0
   -0.1559    0.1238   -1.9234 O   0  0  0  0  0  0  0  0  0  0  0  0
    1.7882    1.0258   -1.2669 N   0  0  0  0  0  0  0  0  0  0  0  0
    2.3860    1.2732   -0.4844 H   0  0  0  0  0  0  0  0  0  0  0  0
    2.2582    1.2909   -2.6222 C   0  0  0  0  0  0  0  0  0  0  0  0
    1.5507    1.9348   -3.1553 H   0  0  0  0  0  0  0  0  0  0  0  0
    3.2292    1.7944   -2.5945 H   0  0  0  0  0  0  0  0  0  0  0  0
    2.3701    0.3542   -3.1785 H   0  0  0  0  0  0  0  0  0  0  0  0
  1  2  1  0  0  0  0
  2  3  1  0  0  0  0
  2  4  1  0  0  0  0
  2  5  1  0  0  0  0
  5  6  2  0  0  0  0
  5  7  1  0  0  0  0
  7  8  1  0  0  0  0
  7  9  1  0  0  0  0
  9 10  1  0  0  0  0
  9 11  1  0  0  0  0
  9 18  1  0  0  0  0
 11 12  1  0  0  0  0
 11 13  1  0  0  0  0
 11 14  1  0  0  0  0
 14 15  2  0  0  0  0
 14 16  1  0  0  0  0
 16 17  1  0  0  0  0
 18 19  2  0  0  0  0
 18 20  1  0  0  0  0
 20 21  1  0  0  0  0
 20 22  1  0  0  0  0
 22 23  1  0  0  0  0
 22 24  1  0  0  0  0
 22 25  1  0  0  0  0
M  END
$$$$

  -OEChem-01062216063D

 25 24  0     1  0  0  0  0  0999 V2000
   -2.9413   -3.4210    0.5862 H   0  0  0  0  0  0  0  0  0  0  0  0
   -2.8534   -2.3556    0.3558 C   0  0  0  0  0  0  0  0  0  0  0  0
   -3.6229   -1.8109    0.9079 H   0  0  0  0  0  0  0  0  0  0  0  0
   -3.0131   -2.2142   -0.7160 H   0  0  0  0  0  0  0  0  0  0  0  0
   -1.4785   -1.8454    0.7453 C   0  0  0  0  0  0  0  0  0  0  0  0
   -0.7083   -2.6132    1.2961 O   0  0  0  0  0  0  0  0  0  0  0  0
   -1.1695   -0.5253    0.4661 N   0  0  0  0  0  0  0  0  0  0  0  0
   -1.8681   -0.0707   -0.1189 H   0  0  0  0  0  0  0  0  0  0  0  0
    0.1382    0.1746    0.4855 C   0  0  1  0  0  0  0  0  0  0  0  0
   -0.0388    1.1778    0.8871 H   0  0  0  0  0  0  0  0  0  0  0  0
    1.2548   -0.4735    1.3510 C   0  0  0  0  0  0  0  0  0  0  0  0
    1.4287   -1.5091    1.0505 H   0  0  0  0  0  0  0  0  0  0  0  0
    2.1963    0.0555    1.1968 H   0  0  0  0  0  0  0  0  0  0  0  0
    0.9867   -0.3991    2.8520 C   0  0  0  0  0  0  0  0  0  0  0  0
    0.3260    0.5251    3.3001 O   0  0  0  0  0  0  0  0  0  0  0  0
    1.5787   -1.3361    3.6279 O   0  0  0  0  0  0  0  0  0  0  0  0
    1.2815   -1.1620    4.5330 H   0  0  0  0  0  0  0  0  0  0  0  0
    0.6062    0.3970   -0.9774 C   0  0  0  0  0  0  0  0  0  0  0  0
   -0.2139    0.3665   -1.8891 O   0  0  0  0  0  0  0  0  0  0  0  0
    1.9106    0.7441   -1.2869 N   0  0  0  0  0  0  0  0  0  0  0  0
    2.5873    0.7570   -0.5306 H   0  0  0  0  0  0  0  0  0  0  0  0
    2.3773    0.9774   -2.6491 C   0  0  0  0  0  0  0  0  0  0  0  0
    1.8128    1.7924   -3.1145 H   0  0  0  0  0  0  0  0  0  0  0  0
    3.4366    1.2515   -2.6446 H   0  0  0  0  0  0  0  0  0  0  0  0
    2.2563    0.0735   -3.2553 H   0  0  0  0  0  0  0  0  0  0  0  0
  1  2  1  0  0  0  0
  2  3  1  0  0  0  0
  2  4  1  0  0  0  0
  2  5  1  0  0  0  0
  5  6  2  0  0  0  0
  5  7  1  0  0  0  0
  7  8  1  0  0  0  0
  7  9  1  0  0  0  0
  9 10  1  0  0  0  0
  9 11  1  0  0  0  0
  9 18  1  0  0  0  0
 11 12  1  0  0  0  0
 11 13  1  0  0  0  0
 11 14  1  0  0  0  0
 14 15  2  0  0  0  0
 14 16  1  0  0  0  0
 16 17  1  0  0  0  0
 18 19  2  0  0  0  0
 18 20  1  0  0  0  0
 20 21  1  0  0  0  0
 20 22  1  0  0  0  0
 22 23  1  0  0  0  0
 22 24  1  0  0  0  0
 22 25  1  0  0  0  0
M  END
$$$$

  -OEChem-01062216063D

 25 24  0     1  0  0  0  0  0999 V2000
   -2.9428   -3.4211    0.5810 H   0  0  0  0  0  0  0  0  0  0  0  0
   -2.8537   -2.3533    0.3620 C   0  0  0  0  0  0  0  0  0  0  0  0
   -3.5993   -1.8100    0.9475 H   0  0  0  0  0  0  0  0  0  0  0  0
   -3.0486   -2.1955   -0.7017 H   0  0  0  0  0  0  0  0  0  0  0  0
   -1.4621   -1.8598    0.7122 C   0  0  0  0  0  0  0  0  0  0  0  0
   -0.6747   -2.6439    1.2133 O   0  0  0  0  0  0  0  0  0  0  0  0
   -1.1511   -0.5377    0.4465 N   0  0  0  0  0  0  0  0  0  0  0  0
   -1.8635   -0.0570   -0.0998 H   0  0  0  0  0  0  0  0  0  0  0  0
    0.1527    0.1658    0.4869 C   0  0  1  0  0  0  0  0  0  0  0  0
   -0.0332    1.1694    0.8837 H   0  0  0  0  0  0  0  0  0  0  0  0
    1.2582   -0.4711    1.3746 C   0  0  0  0  0  0  0  0  0  0  0  0
    1.4485   -1.5064    1.0834 H   0  0  0  0  0  0  0  0  0  0  0  0
    2.1951    0.0710    1.2355 H   0  0  0  0  0  0  0  0  0  0  0  0
    0.9646   -0.3908    2.8706 C   0  0  0  0  0  0  0  0  0  0  0  0
    0.2912    0.5310    3.3042 O   0  0  0  0  0  0  0  0  0  0  0  0
    1.5481   -1.3222    3.6596 O   0  0  0  0  0  0  0  0  0  0  0  0
    1.2422   -1.1404    4.5605 H   0  0  0  0  0  0  0  0  0  0  0  0
    0.6253    0.3921   -0.9727 C   0  0  0  0  0  0  0  0  0  0  0  0
   -0.2113    0.6015   -1.8444 O   0  0  0  0  0  0  0  0  0  0  0  0
    1.9638    0.4435   -1.3238 N   0  0  0  0  0  0  0  0  0  0  0  0
    2.6442    0.1995   -0.6111 H   0  0  0  0  0  0  0  0  0  0  0  0
    2.4254    0.6426   -2.6931 C   0  0  0  0  0  0  0  0  0  0  0  0
    2.0426    1.5873   -3.0937 H   0  0  0  0  0  0  0  0  0  0  0  0
    3.5187    0.6745   -2.7231 H   0  0  0  0  0  0  0  0  0  0  0  0
    2.0844   -0.1763   -3.3351 H   0  0  0  0  0  0  0  0  0  0  0  0
  1  2  1  0  0  0  0
  2  3  1  0  0  0  0
  2  4  1  0  0  0  0
  2  5  1  0  0  0  0
  5  6  2  0  0  0  0
  5  7  1  0  0  0  0
  7  8  1  0  0  0  0
  7  9  1  0  0  0  0
  9 10  1  0  0  0  0
  9 11  1  0  0  0  0
  9 18  1  0  0  0  0
 11 12  1  0  0  0  0
 11 13  1  0  0  0  0
 11 14  1  0  0  0  0
 14 15  2  0  0  0  0
 14 16  1  0  0  0  0
 16 17  1  0  0  0  0
 18 19  2  0  0  0  0
 18 20  1  0  0  0  0
 20 21  1  0  0  0  0
 20 22  1  0  0  0  0
 22 23  1  0  0  0  0
 22 24  1  0  0  0  0
 22 25  1  0  0  0  0
M  END
$$$$

  -OEChem-01062216063D

 25 24  0     1  0  0  0  0  0999 V2000
   -2.9512   -3.4198    0.6142 H   0  0  0  0  0  0  0  0  0  0  0  0
   -2.8611   -2.3527    0.3917 C   0  0  0  0  0  0  0  0  0  0  0  0
   -3.5712   -1.8024    1.0139 H   0  0  0  0  0  0  0  0  0  0  0  0
   -3.1067   -2.1910   -0.6609 H   0  0  0  0  0  0  0  0  0  0  0  0
   -1.4486   -1.8751    0.6733 C   0  0  0  0  0  0  0  0  0  0  0  0
   -0.6357   -2.6759    1.1015 O   0  0  0  0  0  0  0  0  0  0  0  0
   -1.1401   -0.5508    0.4173 N   0  0  0  0  0  0  0  0  0  0  0  0
   -1.8770   -0.0403   -0.0657 H   0  0  0  0  0  0  0  0  0  0  0  0
    0.1590    0.1578    0.4757 C   0  0  1  0  0  0  0  0  0  0  0  0
   -0.0382    1.1608    0.8694 H   0  0  0  0  0  0  0  0  0  0  0  0
    1.2592   -0.4661    1.3785 C   0  0  0  0  0  0  0  0  0  0  0  0
    1.4638   -1.5005    1.0960 H   0  0  0  0  0  0  0  0  0  0  0  0
    2.1906    0.0882    1.2432 H   0  0  0  0  0  0  0  0  0  0  0  0
    0.9477   -0.3831    2.8702 C   0  0  0  0  0  0  0  0  0  0  0  0
    0.2615    0.5338    3.2934 O   0  0  0  0  0  0  0  0  0  0  0  0
    1.5240   -1.3117    3.6680 O   0  0  0  0  0  0  0  0  0  0  0  0
    1.2111   -1.1255    4.5656 H   0  0  0  0  0  0  0  0  0  0  0  0
    0.6432    0.3898   -0.9761 C   0  0  0  0  0  0  0  0  0  0  0  0
   -0.1527    0.8224   -1.8015 O   0  0  0  0  0  0  0  0  0  0  0  0
    1.9479    0.1511   -1.3729 N   0  0  0  0  0  0  0  0  0  0  0  0
    2.5553   -0.3181   -0.7078 H   0  0  0  0  0  0  0  0  0  0  0  0
    2.4054    0.3059   -2.7487 C   0  0  0  0  0  0  0  0  0  0  0  0
    2.2346    1.3300   -3.0971 H   0  0  0  0  0  0  0  0  0  0  0  0
    3.4768    0.0941   -2.8172 H   0  0  0  0  0  0  0  0  0  0  0  0
    1.8718   -0.3847   -3.4101 H   0  0  0  0  0  0  0  0  0  0  0  0
  1  2  1  0  0  0  0
  2  3  1  0  0  0  0
  2  4  1  0  0  0  0
  2  5  1  0  0  0  0
  5  6  2  0  0  0  0
  5  7  1  0  0  0  0
  7  8  1  0  0  0  0
  7  9  1  0  0  0  0
  9 10  1  0  0  0  0
  9 11  1  0  0  0  0
  9 18  1  0  0  0  0
 11 12  1  0  0  0  0
 11 13  1  0  0  0  0
 11 14  1  0  0  0  0
 14 15  2  0  0  0  0
 14 16  1  0  0  0  0
 16 17  1  0  0  0  0
 18 19  2  0  0  0  0
 18 20  1  0  0  0  0
 20 21  1  0  0  0  0
 20 22  1  0  0  0  0
 22 23  1  0  0  0  0
 22 24  1  0  0  0  0
 22 25  1  0  0  0  0
M  END
$$$$

  -OEChem-01062216063D

 25 24  0     1  0  0  0  0  0999 V2000
   -2.9598   -3.4190    0.6515 H   0  0  0  0  0  0  0  0  0  0  0  0
   -2.8717   -2.3518    0.4288 C   0  0  0  0  0  0  0  0  0  0  0  0
   -3.5451   -1.7984    1.0877 H   0  0  0  0  0  0  0  0  0  0  0  0
   -3.1682   -2.1838   -0.6095 H   0  0  0  0  0  0  0  0  0  0  0  0
   -1.4430   -1.8874    0.6424 C   0  0  0  0  0  0  0  0  0  0  0  0
   -0.6105   -2.7011    1.0032 O   0  0  0  0  0  0  0  0  0  0  0  0
   -1.1359   -0.5627    0.3884 N   0  0  0  0  0  0  0  0  0  0  0  0
   -1.8980   -0.0247   -0.0190 H   0  0  0  0  0  0  0  0  0  0  0  0
    0.1606    0.1475    0.4574 C   0  0  1  0  0  0  0  0  0  0  0  0
   -0.0441    1.1505    0.8476 H   0  0  0  0  0  0  0  0  0  0  0  0
    1.2567   -0.4658    1.3710 C   0  0  0  0  0  0  0  0  0  0  0  0
    1.4672   -1.5018    1.1001 H   0  0  0  0  0  0  0  0  0  0  0  0
    2.1866    0.0912    1.2304 H   0  0  0  0  0  0  0  0  0  0  0  0
    0.9344   -0.3768    2.8598 C   0  0  0  0  0  0  0  0  0  0  0  0
    0.2408    0.5382    3.2746 O   0  0  0  0  0  0  0  0  0  0  0  0
    1.5057   -1.3020    3.6648 O   0  0  0  0  0  0  0  0  0  0  0  0
    1.1935   -1.1074    4.5608 H   0  0  0  0  0  0  0  0  0  0  0  0
    0.6601    0.3809   -0.9858 C   0  0  0  0  0  0  0  0  0  0  0  0
   -0.0433    1.0228   -1.7558 O   0  0  0  0  0  0  0  0  0  0  0  0
    1.8622   -0.1314   -1.4418 N   0  0  0  0  0  0  0  0  0  0  0  0
    2.3476   -0.7804   -0.8289 H   0  0  0  0  0  0  0  0  0  0  0  0
    2.3106   -0.0039   -2.8231 C   0  0  0  0  0  0  0  0  0  0  0  0
    2.3687    1.0510   -3.1113 H   0  0  0  0  0  0  0  0  0  0  0  0
    3.3040   -0.4473   -2.9407 H   0  0  0  0  0  0  0  0  0  0  0  0
    1.6187   -0.5164   -3.4996 H   0  0  0  0  0  0  0  0  0  0  0  0
  1  2  1  0  0  0  0
  2  3  1  0  0  0  0
  2  4  1  0  0  0  0
  2  5  1  0  0  0  0
  5  6  2  0  0  0  0
  5  7  1  0  0  0  0
  7  8  1  0  0  0  0
  7  9  1  0  0  0  0
  9 10  1  0  0  0  0
  9 11  1  0  0  0  0
  9 18  1  0  0  0  0
 11 12  1  0  0  0  0
 11 13  1  0  0  0  0
 11 14  1  0  0  0  0
 14 15  2  0  0  0  0
 14 16  1  0  0  0  0
 16 17  1  0  0  0  0
 18 19  2  0  0  0  0
 18 20  1  0  0  0  0
 20 21  1  0  0  0  0
 20 22  1  0  0  0  0
 22 23  1  0  0  0  0
 22 24  1  0  0  0  0
 22 25  1  0  0  0  0
M  END
$$$$

  -OEChem-01062216063D

 25 24  0     1  0  0  0  0  0999 V2000
   -2.9662   -3.4174    0.7196 H   0  0  0  0  0  0  0  0  0  0  0  0
   -2.8829   -2.3518    0.4884 C   0  0  0  0  0  0  0  0  0  0  0  0
   -3.5080   -1.7911    1.1876 H   0  0  0  0  0  0  0  0  0  0  0  0
   -3.2434   -2.1831   -0.5293 H   0  0  0  0  0  0  0  0  0  0  0  0
   -1.4391   -1.9002    0.6073 C   0  0  0  0  0  0  0  0  0  0  0  0
   -0.5850   -2.7270    0.8761 O   0  0  0  0  0  0  0  0  0  0  0  0
   -1.1369   -0.5746    0.3528 N   0  0  0  0  0  0  0  0  0  0  0  0
   -1.9255   -0.0102    0.0441 H   0  0  0  0  0  0  0  0  0  0  0  0
    0.1580    0.1369    0.4305 C   0  0  1  0  0  0  0  0  0  0  0  0
   -0.0521    1.1400    0.8180 H   0  0  0  0  0  0  0  0  0  0  0  0
    1.2496   -0.4687    1.3536 C   0  0  0  0  0  0  0  0  0  0  0  0
    1.4660   -1.5056    1.0929 H   0  0  0  0  0  0  0  0  0  0  0  0
    2.1787    0.0893    1.2096 H   0  0  0  0  0  0  0  0  0  0  0  0
    0.9167   -0.3740    2.8397 C   0  0  0  0  0  0  0  0  0  0  0  0
    0.2173    0.5406    3.2457 O   0  0  0  0  0  0  0  0  0  0  0  0
    1.4767   -1.2997    3.6521 O   0  0  0  0  0  0  0  0  0  0  0  0
    1.1624   -1.0981    4.5460 H   0  0  0  0  0  0  0  0  0  0  0  0
    0.6757    0.3721   -1.0033 C   0  0  0  0  0  0  0  0  0  0  0  0
    0.1244    1.2107   -1.7040 O   0  0  0  0  0  0  0  0  0  0  0  0
    1.7121   -0.3776   -1.5303 N   0  0  0  0  0  0  0  0  0  0  0  0
    2.0288   -1.1710   -0.9792 H   0  0  0  0  0  0  0  0  0  0  0  0
    2.1536   -0.2643   -2.9151 C   0  0  0  0  0  0  0  0  0  0  0  0
    2.4487    0.7661   -3.1406 H   0  0  0  0  0  0  0  0  0  0  0  0
    3.0159   -0.9144   -3.0920 H   0  0  0  0  0  0  0  0  0  0  0  0
    1.3500   -0.5583   -3.5984 H   0  0  0  0  0  0  0  0  0  0  0  0
  1  2  1  0  0  0  0
  2  3  1  0  0  0  0
  2  4  1  0  0  0  0
  2  5  1  0  0  0  0
  5  6  2  0  0  0  0
  5  7  1  0  0  0  0
  7  8  1  0  0  0  0
  7  9  1  0  0  0  0
  9 10  1  0  0  0  0
  9 11  1  0  0  0  0
  9 18  1  0  0  0  0
 11 12  1  0  0  0  0
 11 13  1  0  0  0  0
 11 14  1  0  0  0  0
 14 15  2  0  0  0  0
 14 16  1  0  0  0  0
 16 17  1  0  0  0  0
 18 19  2  0  0  0  0
 18 20  1  0  0  0  0
 20 21  1  0  0  0  0
 20 22  1  0  0  0  0
 22 23  1  0  0  0  0
 22 24  1  0  0  0  0
 22 25  1  0  0  0  0
M  END
$$$$

  -OEChem-01062216063D

 25 24  0     1  0  0  0  0  0999 V2000
   -2.9511   -3.4161    0.7958 H   0  0  0  0  0  0  0  0  0  0  0  0
   -2.8820   -2.3512    0.5562 C   0  0  0  0  0  0  0  0  0  0  0  0
   -3.4506   -1.7871    1.2995 H   0  0  0  0  0  0  0  0  0  0  0  0
   -3.3185   -2.1833   -0.4313 H   0  0  0  0  0  0  0  0  0  0  0  0
   -1.4319   -1.9048    0.5645 C   0  0  0  0  0  0  0  0  0  0  0  0
   -0.5575   -2.7394    0.7216 O   0  0  0  0  0  0  0  0  0  0  0  0
   -1.1424   -0.5770    0.3092 N   0  0  0  0  0  0  0  0  0  0  0  0
   -1.9525    0.0060    0.1117 H   0  0  0  0  0  0  0  0  0  0  0  0
    0.1498    0.1371    0.4020 C   0  0  1  0  0  0  0  0  0  0  0  0
   -0.0667    1.1393    0.7893 H   0  0  0  0  0  0  0  0  0  0  0  0
    1.2373   -0.4665    1.3307 C   0  0  0  0  0  0  0  0  0  0  0  0
    1.4636   -1.5009    1.0692 H   0  0  0  0  0  0  0  0  0  0  0  0
    2.1642    0.0961    1.1913 H   0  0  0  0  0  0  0  0  0  0  0  0
    0.8930   -0.3790    2.8146 C   0  0  0  0  0  0  0  0  0  0  0  0
    0.1861    0.5306    3.2188 O   0  0  0  0  0  0  0  0  0  0  0  0
    1.4423   -1.3113    3.6268 O   0  0  0  0  0  0  0  0  0  0  0  0
    1.1248   -1.1116    4.5200 H   0  0  0  0  0  0  0  0  0  0  0  0
    0.6864    0.3711   -1.0224 C   0  0  0  0  0  0  0  0  0  0  0  0
    0.3479    1.3712   -1.6406 O   0  0  0  0  0  0  0  0  0  0  0  0
    1.5033   -0.5668   -1.6265 N   0  0  0  0  0  0  0  0  0  0  0  0
    1.6105   -1.4540   -1.1393 H   0  0  0  0  0  0  0  0  0  0  0  0
    1.9342   -0.4712   -3.0156 C   0  0  0  0  0  0  0  0  0  0  0  0
    2.4712    0.4676   -3.1874 H   0  0  0  0  0  0  0  0  0  0  0  0
    2.6050   -1.3001   -3.2611 H   0  0  0  0  0  0  0  0  0  0  0  0
    1.0711   -0.5115   -3.6881 H   0  0  0  0  0  0  0  0  0  0  0  0
  1  2  1  0  0  0  0
  2  3  1  0  0  0  0
  2  4  1  0  0  0  0
  2  5  1  0  0  0  0
  5  6  2  0  0  0  0
  5  7  1  0  0  0  0
  7  8  1  0  0  0  0
  7  9  1  0  0  0  0
  9 10  1  0  0  0  0
  9 11  1  0  0  0  0
  9 18  1  0  0  0  0
 11 12  1  0  0  0  0
 11 13  1  0  0  0  0
 11 14  1  0  0  0  0
 14 15  2  0  0  0  0
 14 16  1  0  0  0  0
 16 17  1  0  0  0  0
 18 19  2  0  0  0  0
 18 20  1  0  0  0  0
 20 21  1  0  0  0  0
 20 22  1  0  0  0  0
 22 23  1  0  0  0  0
 22 24  1  0  0  0  0
 22 25  1  0  0  0  0
M  END
$$$$

  -OEChem-01062216063D

 25 24  0     1  0  0  0  0  0999 V2000
   -2.9225   -3.4170    0.8837 H   0  0  0  0  0  0  0  0  0  0  0  0
   -2.8756   -2.3511    0.6432 C   0  0  0  0  0  0  0  0  0  0  0  0
   -3.3732   -1.7902    1.4383 H   0  0  0  0  0  0  0  0  0  0  0  0
   -3.4001   -2.1788   -0.2998 H   0  0  0  0  0  0  0  0  0  0  0  0
   -1.4311   -1.9047    0.5212 C   0  0  0  0  0  0  0  0  0  0  0  0
   -0.5447   -2.7414    0.5475 O   0  0  0  0  0  0  0  0  0  0  0  0
   -1.1586   -0.5747    0.2628 N   0  0  0  0  0  0  0  0  0  0  0  0
   -1.9814    0.0174    0.1792 H   0  0  0  0  0  0  0  0  0  0  0  0
    0.1328    0.1398    0.3698 C   0  0  1  0  0  0  0  0  0  0  0  0
   -0.0861    1.1414    0.7575 H   0  0  0  0  0  0  0  0  0  0  0  0
    1.2152   -0.4669    1.3002 C   0  0  0  0  0  0  0  0  0  0  0  0
    1.4475   -1.4984    1.0329 H   0  0  0  0  0  0  0  0  0  0  0  0
    2.1410    0.0999    1.1684 H   0  0  0  0  0  0  0  0  0  0  0  0
    0.8614   -0.3896    2.7821 C   0  0  0  0  0  0  0  0  0  0  0  0
    0.1498    0.5157    3.1877 O   0  0  0  0  0  0  0  0  0  0  0  0
    1.4005   -1.3311    3.5903 O   0  0  0  0  0  0  0  0  0  0  0  0
    1.0842   -1.1329    4.4842 H   0  0  0  0  0  0  0  0  0  0  0  0
    0.6854    0.3700   -1.0466 C   0  0  0  0  0  0  0  0  0  0  0  0
    0.6182    1.4759   -1.5649 O   0  0  0  0  0  0  0  0  0  0  0  0
    1.2373   -0.6906   -1.7392 N   0  0  0  0  0  0  0  0  0  0  0  0
    1.1352   -1.6102   -1.3117 H   0  0  0  0  0  0  0  0  0  0  0  0
    1.6833   -0.5981   -3.1228 C   0  0  0  0  0  0  0  0  0  0  0  0
    2.4441    0.1823   -3.2288 H   0  0  0  0  0  0  0  0  0  0  0  0
    2.1191   -1.5492   -3.4436 H   0  0  0  0  0  0  0  0  0  0  0  0
    0.8412   -0.3613   -3.7813 H   0  0  0  0  0  0  0  0  0  0  0  0
  1  2  1  0  0  0  0
  2  3  1  0  0  0  0
  2  4  1  0  0  0  0
  2  5  1  0  0  0  0
  5  6  2  0  0  0  0
  5  7  1  0  0  0  0
  7  8  1  0  0  0  0
  7  9  1  0  0  0  0
  9 10  1  0  0  0  0
  9 11  1  0  0  0  0
  9 18  1  0  0  0  0
 11 12  1  0  0  0  0
 11 13  1  0  0  0  0
 11 14  1  0  0  0  0
 14 15  2  0  0  0  0
 14 16  1  0  0  0  0
 16 17  1  0  0  0  0
 18 19  2  0  0  0  0
 18 20  1  0  0  0  0
 20 21  1  0  0  0  0
 20 22  1  0  0  0  0
 22 23  1  0  0  0  0
 22 24  1  0  0  0  0
 22 25  1  0  0  0  0
M  END
$$$$

  -OEChem-01062216063D

 25 24  0     1  0  0  0  0  0999 V2000
   -2.9038   -3.4168    0.9902 H   0  0  0  0  0  0  0  0  0  0  0  0
   -2.8770   -2.3521    0.7415 C   0  0  0  0  0  0  0  0  0  0  0  0
   -3.3115   -1.7880    1.5706 H   0  0  0  0  0  0  0  0  0  0  0  0
   -3.4740   -2.1848   -0.1583 H   0  0  0  0  0  0  0  0  0  0  0  0
   -1.4468   -1.9060    0.5044 C   0  0  0  0  0  0  0  0  0  0  0  0
   -0.5644   -2.7432    0.4209 O   0  0  0  0  0  0  0  0  0  0  0  0
   -1.1888   -0.5752    0.2372 N   0  0  0  0  0  0  0  0  0  0  0  0
   -2.0146    0.0187    0.2442 H   0  0  0  0  0  0  0  0  0  0  0  0
    0.1040    0.1401    0.3384 C   0  0  1  0  0  0  0  0  0  0  0  0
   -0.1119    1.1418    0.7272 H   0  0  0  0  0  0  0  0  0  0  0  0
    1.1866   -0.4737    1.2622 C   0  0  0  0  0  0  0  0  0  0  0  0
    1.4139   -1.5048    0.9886 H   0  0  0  0  0  0  0  0  0  0  0  0
    2.1142    0.0899    1.1293 H   0  0  0  0  0  0  0  0  0  0  0  0
    0.8363   -0.4006    2.7449 C   0  0  0  0  0  0  0  0  0  0  0  0
    0.1287    0.5059    3.1549 O   0  0  0  0  0  0  0  0  0  0  0  0
    1.3648   -1.3527    3.5476 O   0  0  0  0  0  0  0  0  0  0  0  0
    1.0541   -1.1542    4.4434 H   0  0  0  0  0  0  0  0  0  0  0  0
    0.6639    0.3701   -1.0747 C   0  0  0  0  0  0  0  0  0  0  0  0
    0.8801    1.5024   -1.4830 O   0  0  0  0  0  0  0  0  0  0  0  0
    0.9281   -0.7233   -1.8765 N   0  0  0  0  0  0  0  0  0  0  0  0
    0.6902   -1.6379   -1.4924 H   0  0  0  0  0  0  0  0  0  0  0  0
    1.4262   -0.6249   -3.2415 C   0  0  0  0  0  0  0  0  0  0  0  0
    2.3752   -0.0792   -3.2644 H   0  0  0  0  0  0  0  0  0  0  0  0
    1.5926   -1.6240   -3.6555 H   0  0  0  0  0  0  0  0  0  0  0  0
    0.7031   -0.1020   -3.8758 H   0  0  0  0  0  0  0  0  0  0  0  0
  1  2  1  0  0  0  0
  2  3  1  0  0  0  0
  2  4  1  0  0  0  0
  2  5  1  0  0  0  0
  5  6  2  0  0  0  0
  5  7  1  0  0  0  0
  7  8  1  0  0  0  0
  7  9  1  0  0  0  0
  9 10  1  0  0  0  0
  9 11  1  0  0  0  0
  9 18  1  0  0  0  0
 11 12  1  0  0  0  0
 11 13  1  0  0  0  0
 11 14  1  0  0  0  0
 14 15  2  0  0  0  0
 14 16  1  0  0  0  0
 16 17  1  0  0  0  0
 18 19  2  0  0  0  0
 18 20  1  0  0  0  0
 20 21  1  0  0  0  0
 20 22  1  0  0  0  0
 22 23  1  0  0  0  0
 22 24  1  0  0  0  0
 22 25  1  0  0  0  0
M  END
$$$$

  -OEChem-01062216063D

 25 24  0     1  0  0  0  0  0999 V2000
   -2.9099   -3.4410    1.0150 H   0  0  0  0  0  0  0  0  0  0  0  0
   -2.8904   -2.3638    0.8256 C   0  0  0  0  0  0  0  0  0  0  0  0
   -3.2587   -1.8450    1.7141 H   0  0  0  0  0  0  0  0  0  0  0  0
   -3.5493   -2.1418   -0.0174 H   0  0  0  0  0  0  0  0  0  0  0  0
   -1.4762   -1.9135    0.5123 C   0  0  0  0  0  0  0  0  0  0  0  0
   -0.5996   -2.7474    0.3650 O   0  0  0  0  0  0  0  0  0  0  0  0
   -1.2344   -0.5821    0.2350 N   0  0  0  0  0  0  0  0  0  0  0  0
   -2.0617    0.0067    0.2917 H   0  0  0  0  0  0  0  0  0  0  0  0
    0.0562    0.1430    0.3133 C   0  0  1  0  0  0  0  0  0  0  0  0
   -0.1599    1.1434    0.7060 H   0  0  0  0  0  0  0  0  0  0  0  0
    1.1546   -0.4697    1.2182 C   0  0  0  0  0  0  0  0  0  0  0  0
    1.3805   -1.4988    0.9353 H   0  0  0  0  0  0  0  0  0  0  0  0
    2.0782    0.0976    1.0728 H   0  0  0  0  0  0  0  0  0  0  0  0
    0.8293   -0.4029    2.7066 C   0  0  0  0  0  0  0  0  0  0  0  0
    0.1256    0.4999    3.1315 O   0  0  0  0  0  0  0  0  0  0  0  0
    1.3767   -1.3544    3.4975 O   0  0  0  0  0  0  0  0  0  0  0  0
    1.0867   -1.1562    4.4003 H   0  0  0  0  0  0  0  0  0  0  0  0
    0.6096    0.3804   -1.1023 C   0  0  0  0  0  0  0  0  0  0  0  0
    1.0848    1.4653   -1.4071 O   0  0  0  0  0  0  0  0  0  0  0  0
    0.5911   -0.6536   -2.0185 N   0  0  0  0  0  0  0  0  0  0  0  0
    0.2748   -1.5586   -1.6703 H   0  0  0  0  0  0  0  0  0  0  0  0
    1.1833   -0.5650   -3.3462 C   0  0  0  0  0  0  0  0  0  0  0  0
    2.2631   -0.3988   -3.2730 H   0  0  0  0  0  0  0  0  0  0  0  0
    1.0113   -1.4934   -3.8994 H   0  0  0  0  0  0  0  0  0  0  0  0
    0.7368    0.2604   -3.9106 H   0  0  0  0  0  0  0  0  0  0  0  0
  1  2  1  0  0  0  0
  2  3  1  0  0  0  0
  2  4  1  0  0  0  0
  2  5  1  0  0  0  0
  5  6  2  0  0  0  0
  5  7  1  0  0  0  0
  7  8  1  0  0  0  0
  7  9  1  0  0  0  0
  9 10  1  0  0  0  0
  9 11  1  0  0  0  0
  9 18  1  0  0  0  0
 11 12  1  0  0  0  0
 11 13  1  0  0  0  0
 11 14  1  0  0  0  0
 14 15  2  0  0  0  0
 14 16  1  0  0  0  0
 16 17  1  0  0  0  0
 18 19  2  0  0  0  0
 18 20  1  0  0  0  0
 20 21  1  0  0  0  0
 20 22  1  0  0  0  0
 22 23  1  0  0  0  0
 22 24  1  0  0  0  0
 22 25  1  0  0  0  0
M  END
$$$$

  -OEChem-01062216063D

 25 24  0     1  0  0  0  0  0999 V2000
   -2.9006   -3.4279    1.1310 H   0  0  0  0  0  0  0  0  0  0  0  0
   -2.8955   -2.3663    0.8680 C   0  0  0  0  0  0  0  0  0  0  0  0
   -3.2722   -1.7936    1.7191 H   0  0  0  0  0  0  0  0  0  0  0  0
   -3.5558   -2.2114    0.0114 H   0  0  0  0  0  0  0  0  0  0  0  0
   -1.4866   -1.9205    0.5252 C   0  0  0  0  0  0  0  0  0  0  0  0
   -0.6190   -2.7590    0.3576 O   0  0  0  0  0  0  0  0  0  0  0  0
   -1.2462   -0.5887    0.2460 N   0  0  0  0  0  0  0  0  0  0  0  0
   -2.0708    0.0008    0.3304 H   0  0  0  0  0  0  0  0  0  0  0  0
    0.0463    0.1379    0.3063 C   0  0  1  0  0  0  0  0  0  0  0  0
   -0.1657    1.1377    0.7015 H   0  0  0  0  0  0  0  0  0  0  0  0
    1.1459   -0.4812    1.2061 C   0  0  0  0  0  0  0  0  0  0  0  0
    1.3633   -1.5122    0.9228 H   0  0  0  0  0  0  0  0  0  0  0  0
    2.0735    0.0788    1.0560 H   0  0  0  0  0  0  0  0  0  0  0  0
    0.8278   -0.4082    2.6960 C   0  0  0  0  0  0  0  0  0  0  0  0
    0.1326    0.5011    3.1216 O   0  0  0  0  0  0  0  0  0  0  0  0
    1.3623   -1.3677    3.4861 O   0  0  0  0  0  0  0  0  0  0  0  0
    1.0737   -1.1672    4.3888 H   0  0  0  0  0  0  0  0  0  0  0  0
    0.5985    0.3883   -1.1102 C   0  0  0  0  0  0  0  0  0  0  0  0
    1.2900    1.3724   -1.3324 O   0  0  0  0  0  0  0  0  0  0  0  0
    0.3155   -0.5007   -2.1296 N   0  0  0  0  0  0  0  0  0  0  0  0
   -0.1248   -1.3738   -1.8445 H   0  0  0  0  0  0  0  0  0  0  0  0
    0.9008   -0.4043   -3.4603 C   0  0  0  0  0  0  0  0  0  0  0  0
    1.9915   -0.4843   -3.4058 H   0  0  0  0  0  0  0  0  0  0  0  0
    0.5247   -1.2101   -4.0978 H   0  0  0  0  0  0  0  0  0  0  0  0
    0.6406    0.5528   -3.9246 H   0  0  0  0  0  0  0  0  0  0  0  0
  1  2  1  0  0  0  0
  2  3  1  0  0  0  0
  2  4  1  0  0  0  0
  2  5  1  0  0  0  0
  5  6  2  0  0  0  0
  5  7  1  0  0  0  0
  7  8  1  0  0  0  0
  7  9  1  0  0  0  0
  9 10  1  0  0  0  0
  9 11  1  0  0  0  0
  9 18  1  0  0  0  0
 11 12  1  0  0  0  0
 11 13  1  0  0  0  0
 11 14  1  0  0  0  0
 14 15  2  0  0  0  0
 14 16  1  0  0  0  0
 16 17  1  0  0  0  0
 18 19  2  0  0  0  0
 18 20  1  0  0  0  0
 20 21  1  0  0  0  0
 20 22  1  0  0  0  0
 22 23  1  0  0  0  0
 22 24  1  0  0  0  0
 22 25  1  0  0  0  0
M  END
$$$$

  -OEChem-01062216063D

 25 24  0     1  0  0  0  0  0999 V2000
   -2.9019   -3.4359    1.1475 H   0  0  0  0  0  0  0  0  0  0  0  0
   -2.8946   -2.3745    0.8834 C   0  0  0  0  0  0  0  0  0  0  0  0
   -3.2663   -1.8000    1.7355 H   0  0  0  0  0  0  0  0  0  0  0  0
   -3.5578   -2.2188    0.0291 H   0  0  0  0  0  0  0  0  0  0  0  0
   -1.4858   -1.9334    0.5347 C   0  0  0  0  0  0  0  0  0  0  0  0
   -0.6209   -2.7761    0.3790 O   0  0  0  0  0  0  0  0  0  0  0  0
   -1.2468   -0.6008    0.2548 N   0  0  0  0  0  0  0  0  0  0  0  0
   -2.0707   -0.0124    0.3523 H   0  0  0  0  0  0  0  0  0  0  0  0
    0.0459    0.1289    0.3033 C   0  0  1  0  0  0  0  0  0  0  0  0
   -0.1665    1.1283    0.6983 H   0  0  0  0  0  0  0  0  0  0  0  0
    1.1438   -0.4896    1.2075 C   0  0  0  0  0  0  0  0  0  0  0  0
    1.3575   -1.5226    0.9299 H   0  0  0  0  0  0  0  0  0  0  0  0
    2.0748    0.0642    1.0563 H   0  0  0  0  0  0  0  0  0  0  0  0
    0.8259   -0.4056    2.6968 C   0  0  0  0  0  0  0  0  0  0  0  0
    0.1343    0.5094    3.1165 O   0  0  0  0  0  0  0  0  0  0  0  0
    1.3584   -1.3605    3.4938 O   0  0  0  0  0  0  0  0  0  0  0  0
    1.0735   -1.1509    4.3954 H   0  0  0  0  0  0  0  0  0  0  0  0
    0.5984    0.3906   -1.1138 C   0  0  0  0  0  0  0  0  0  0  0  0
    1.4672    1.2351   -1.2832 O   0  0  0  0  0  0  0  0  0  0  0  0
    0.0888   -0.2904   -2.2034 N   0  0  0  0  0  0  0  0  0  0  0  0
   -0.5024   -1.0887   -1.9847 H   0  0  0  0  0  0  0  0  0  0  0  0
    0.6378   -0.1678   -3.5480 C   0  0  0  0  0  0  0  0  0  0  0  0
    1.6800   -0.5034   -3.5681 H   0  0  0  0  0  0  0  0  0  0  0  0
    0.0619   -0.7798   -4.2485 H   0  0  0  0  0  0  0  0  0  0  0  0
    0.5962    0.8731   -3.8855 H   0  0  0  0  0  0  0  0  0  0  0  0
  1  2  1  0  0  0  0
  2  3  1  0  0  0  0
  2  4  1  0  0  0  0
  2  5  1  0  0  0  0
  5  6  2  0  0  0  0
  5  7  1  0  0  0  0
  7  8  1  0  0  0  0
  7  9  1  0  0  0  0
  9 10  1  0  0  0  0
  9 11  1  0  0  0  0
  9 18  1  0  0  0  0
 11 12  1  0  0  0  0
 11 13  1  0  0  0  0
 11 14  1  0  0  0  0
 14 15  2  0  0  0  0
 14 16  1  0  0  0  0
 16 17  1  0  0  0  0
 18 19  2  0  0  0  0
 18 20  1  0  0  0  0
 20 21  1  0  0  0  0
 20 22  1  0  0  0  0
 22 23  1  0  0  0  0
 22 24  1  0  0  0  0
 22 25  1  0  0  0  0
M  END
$$$$

  -OEChem-01062216063D

 25 24  0     1  0  0  0  0  0999 V2000
   -2.9097   -3.4547    1.0886 H   0  0  0  0  0  0  0  0  0  0  0  0
   -2.8905   -2.3827    0.8720 C   0  0  0  0  0  0  0  0  0  0  0  0
   -3.2515   -1.8418    1.7501 H   0  0  0  0  0  0  0  0  0  0  0  0
   -3.5554   -2.1820    0.0285 H   0  0  0  0  0  0  0  0  0  0  0  0
   -1.4778   -1.9425    0.5370 C   0  0  0  0  0  0  0  0  0  0  0  0
   -0.6102   -2.7864    0.4091 O   0  0  0  0  0  0  0  0  0  0  0  0
   -1.2401   -0.6081    0.2600 N   0  0  0  0  0  0  0  0  0  0  0  0
   -2.0646   -0.0221    0.3655 H   0  0  0  0  0  0  0  0  0  0  0  0
    0.0519    0.1253    0.3036 C   0  0  1  0  0  0  0  0  0  0  0  0
   -0.1628    1.1241    0.6987 H   0  0  0  0  0  0  0  0  0  0  0  0
    1.1486   -0.4921    1.2137 C   0  0  0  0  0  0  0  0  0  0  0  0
    1.3631   -1.5256    0.9391 H   0  0  0  0  0  0  0  0  0  0  0  0
    2.0820    0.0584    1.0672 H   0  0  0  0  0  0  0  0  0  0  0  0
    0.8289   -0.4026    2.7020 C   0  0  0  0  0  0  0  0  0  0  0  0
    0.1378    0.5153    3.1165 O   0  0  0  0  0  0  0  0  0  0  0  0
    1.3628   -1.3520    3.5046 O   0  0  0  0  0  0  0  0  0  0  0  0
    1.0785   -1.1375    4.4051 H   0  0  0  0  0  0  0  0  0  0  0  0
    0.6003    0.3952   -1.1165 C   0  0  0  0  0  0  0  0  0  0  0  0
    1.6112    1.0681   -1.2672 O   0  0  0  0  0  0  0  0  0  0  0  0
   -0.0930   -0.0327   -2.2337 N   0  0  0  0  0  0  0  0  0  0  0  0
   -0.8269   -0.7136   -2.0603 H   0  0  0  0  0  0  0  0  0  0  0  0
    0.4178    0.1189   -3.5907 C   0  0  0  0  0  0  0  0  0  0  0  0
    1.3571   -0.4315   -3.7094 H   0  0  0  0  0  0  0  0  0  0  0  0
   -0.3064   -0.2689   -4.3134 H   0  0  0  0  0  0  0  0  0  0  0  0
    0.5978    1.1752   -3.8174 H   0  0  0  0  0  0  0  0  0  0  0  0
  1  2  1  0  0  0  0
  2  3  1  0  0  0  0
  2  4  1  0  0  0  0
  2  5  1  0  0  0  0
  5  6  2  0  0  0  0
  5  7  1  0  0  0  0
  7  8  1  0  0  0  0
  7  9  1  0  0  0  0
  9 10  1  0  0  0  0
  9 11  1  0  0  0  0
  9 18  1  0  0  0  0
 11 12  1  0  0  0  0
 11 13  1  0  0  0  0
 11 14  1  0  0  0  0
 14 15  2  0  0  0  0
 14 16  1  0  0  0  0
 16 17  1  0  0  0  0
 18 19  2  0  0  0  0
 18 20  1  0  0  0  0
 20 21  1  0  0  0  0
 20 22  1  0  0  0  0
 22 23  1  0  0  0  0
 22 24  1  0  0  0  0
 22 25  1  0  0  0  0
M  END
$$$$

  -OEChem-01062216063D

 25 24  0     1  0  0  0  0  0999 V2000
   -2.8933   -3.4522    1.0942 H   0  0  0  0  0  0  0  0  0  0  0  0
   -2.8763   -2.3865    0.8483 C   0  0  0  0  0  0  0  0  0  0  0  0
   -3.2530   -1.8241    1.7062 H   0  0  0  0  0  0  0  0  0  0  0  0
   -3.5299   -2.2128   -0.0097 H   0  0  0  0  0  0  0  0  0  0  0  0
   -1.4610   -1.9484    0.5213 C   0  0  0  0  0  0  0  0  0  0  0  0
   -0.5943   -2.7948    0.4070 O   0  0  0  0  0  0  0  0  0  0  0  0
   -1.2212   -0.6118    0.2538 N   0  0  0  0  0  0  0  0  0  0  0  0
   -2.0429   -0.0258    0.3788 H   0  0  0  0  0  0  0  0  0  0  0  0
    0.0731    0.1176    0.3021 C   0  0  1  0  0  0  0  0  0  0  0  0
   -0.1401    1.1169    0.6962 H   0  0  0  0  0  0  0  0  0  0  0  0
    1.1587   -0.5019    1.2263 C   0  0  0  0  0  0  0  0  0  0  0  0
    1.3716   -1.5374    0.9578 H   0  0  0  0  0  0  0  0  0  0  0  0
    2.0966    0.0431    1.0902 H   0  0  0  0  0  0  0  0  0  0  0  0
    0.8247   -0.4020    2.7110 C   0  0  0  0  0  0  0  0  0  0  0  0
    0.1348    0.5226    3.1129 O   0  0  0  0  0  0  0  0  0  0  0  0
    1.3460   -1.3487    3.5251 O   0  0  0  0  0  0  0  0  0  0  0  0
    1.0565   -1.1255    4.4218 H   0  0  0  0  0  0  0  0  0  0  0  0
    0.6160    0.3936   -1.1213 C   0  0  0  0  0  0  0  0  0  0  0  0
    1.7386    0.8530   -1.2843 O   0  0  0  0  0  0  0  0  0  0  0  0
   -0.2104    0.2576   -2.2222 N   0  0  0  0  0  0  0  0  0  0  0  0
   -1.0729   -0.2546   -2.0660 H   0  0  0  0  0  0  0  0  0  0  0  0
    0.2516    0.4523   -3.5914 C   0  0  0  0  0  0  0  0  0  0  0  0
    1.0442   -0.2637   -3.8333 H   0  0  0  0  0  0  0  0  0  0  0  0
   -0.5744    0.3071   -4.2940 H   0  0  0  0  0  0  0  0  0  0  0  0
    0.6415    1.4670   -3.7246 H   0  0  0  0  0  0  0  0  0  0  0  0
  1  2  1  0  0  0  0
  2  3  1  0  0  0  0
  2  4  1  0  0  0  0
  2  5  1  0  0  0  0
  5  6  2  0  0  0  0
  5  7  1  0  0  0  0
  7  8  1  0  0  0  0
  7  9  1  0  0  0  0
  9 10  1  0  0  0  0
  9 11  1  0  0  0  0
  9 18  1  0  0  0  0
 11 12  1  0  0  0  0
 11 13  1  0  0  0  0
 11 14  1  0  0  0  0
 14 15  2  0  0  0  0
 14 16  1  0  0  0  0
 16 17  1  0  0  0  0
 18 19  2  0  0  0  0
 18 20  1  0  0  0  0
 20 21  1  0  0  0  0
 20 22  1  0  0  0  0
 22 23  1  0  0  0  0
 22 24  1  0  0  0  0
 22 25  1  0  0  0  0
M  END
$$$$

  -OEChem-01062216063D

 25 24  0     1  0  0  0  0  0999 V2000
   -2.8896   -3.4557    1.0567 H   0  0  0  0  0  0  0  0  0  0  0  0
   -2.8679   -2.3887    0.8164 C   0  0  0  0  0  0  0  0  0  0  0  0
   -3.2548   -1.8301    1.6722 H   0  0  0  0  0  0  0  0  0  0  0  0
   -3.5098   -2.2100   -0.0494 H   0  0  0  0  0  0  0  0  0  0  0  0
   -1.4477   -1.9513    0.5097 C   0  0  0  0  0  0  0  0  0  0  0  0
   -0.5789   -2.7988    0.4232 O   0  0  0  0  0  0  0  0  0  0  0  0
   -1.2052   -0.6135    0.2478 N   0  0  0  0  0  0  0  0  0  0  0  0
   -2.0274   -0.0290    0.3741 H   0  0  0  0  0  0  0  0  0  0  0  0
    0.0900    0.1134    0.3009 C   0  0  1  0  0  0  0  0  0  0  0  0
   -0.1229    1.1131    0.6934 H   0  0  0  0  0  0  0  0  0  0  0  0
    1.1689   -0.5045    1.2354 C   0  0  0  0  0  0  0  0  0  0  0  0
    1.3842   -1.5405    0.9714 H   0  0  0  0  0  0  0  0  0  0  0  0
    2.1081    0.0397    1.1051 H   0  0  0  0  0  0  0  0  0  0  0  0
    0.8258   -0.3976    2.7173 C   0  0  0  0  0  0  0  0  0  0  0  0
    0.1350    0.5308    3.1098 O   0  0  0  0  0  0  0  0  0  0  0  0
    1.3386   -1.3416    3.5397 O   0  0  0  0  0  0  0  0  0  0  0  0
    1.0421   -1.1150    4.4332 H   0  0  0  0  0  0  0  0  0  0  0  0
    0.6271    0.3893   -1.1259 C   0  0  0  0  0  0  0  0  0  0  0  0
    1.8153    0.6017   -1.3289 O   0  0  0  0  0  0  0  0  0  0  0  0
   -0.2581    0.5597   -2.1758 N   0  0  0  0  0  0  0  0  0  0  0  0
   -1.2103    0.2500   -2.0115 H   0  0  0  0  0  0  0  0  0  0  0  0
    0.1736    0.7983   -3.5484 C   0  0  0  0  0  0  0  0  0  0  0  0
    0.7690   -0.0448   -3.9140 H   0  0  0  0  0  0  0  0  0  0  0  0
   -0.6947    0.9208   -4.2027 H   0  0  0  0  0  0  0  0  0  0  0  0
    0.7793    1.7088   -3.6078 H   0  0  0  0  0  0  0  0  0  0  0  0
  1  2  1  0  0  0  0
  2  3  1  0  0  0  0
  2  4  1  0  0  0  0
  2  5  1  0  0  0  0
  5  6  2  0  0  0  0
  5  7  1  0  0  0  0
  7  8  1  0  0  0  0
  7  9  1  0  0  0  0
  9 10  1  0  0  0  0
  9 11  1  0  0  0  0
  9 18  1  0  0  0  0
 11 12  1  0  0  0  0
 11 13  1  0  0  0  0
 11 14  1  0  0  0  0
 14 15  2  0  0  0  0
 14 16  1  0  0  0  0
 16 17  1  0  0  0  0
 18 19  2  0  0  0  0
 18 20  1  0  0  0  0
 20 21  1  0  0  0  0
 20 22  1  0  0  0  0
 22 23  1  0  0  0  0
 22 24  1  0  0  0  0
 22 25  1  0  0  0  0
M  END
$$$$

  -OEChem-01062216063D

 25 24  0     1  0  0  0  0  0999 V2000
   -2.9146   -3.4501    0.9987 H   0  0  0  0  0  0  0  0  0  0  0  0
   -2.8785   -2.3866    0.7450 C   0  0  0  0  0  0  0  0  0  0  0  0
   -3.3189   -1.8164    1.5664 H   0  0  0  0  0  0  0  0  0  0  0  0
   -3.4647   -2.2221   -0.1621 H   0  0  0  0  0  0  0  0  0  0  0  0
   -1.4419   -1.9514    0.5219 C   0  0  0  0  0  0  0  0  0  0  0  0
   -0.5699   -2.7998    0.5211 O   0  0  0  0  0  0  0  0  0  0  0  0
   -1.1885   -0.6151    0.2595 N   0  0  0  0  0  0  0  0  0  0  0  0
   -2.0164   -0.0313    0.3330 H   0  0  0  0  0  0  0  0  0  0  0  0
    0.1055    0.1130    0.3115 C   0  0  1  0  0  0  0  0  0  0  0  0
   -0.1060    1.1133    0.7030 H   0  0  0  0  0  0  0  0  0  0  0  0
    1.1895   -0.4984    1.2442 C   0  0  0  0  0  0  0  0  0  0  0  0
    1.4092   -1.5337    0.9800 H   0  0  0  0  0  0  0  0  0  0  0  0
    2.1250    0.0511    1.1086 H   0  0  0  0  0  0  0  0  0  0  0  0
    0.8508   -0.3905    2.7271 C   0  0  0  0  0  0  0  0  0  0  0  0
    0.1571    0.5363    3.1187 O   0  0  0  0  0  0  0  0  0  0  0  0
    1.3745   -1.3272    3.5516 O   0  0  0  0  0  0  0  0  0  0  0  0
    1.0730   -1.1041    4.4441 H   0  0  0  0  0  0  0  0  0  0  0  0
    0.6312    0.3805   -1.1215 C   0  0  0  0  0  0  0  0  0  0  0  0
    1.8227    0.3180   -1.3944 O   0  0  0  0  0  0  0  0  0  0  0  0
   -0.2378    0.8480   -2.0923 N   0  0  0  0  0  0  0  0  0  0  0  0
   -1.2281    0.8066   -1.8784 H   0  0  0  0  0  0  0  0  0  0  0  0
    0.1734    1.1248   -3.4642 C   0  0  0  0  0  0  0  0  0  0  0  0
    0.5486    0.2141   -3.9431 H   0  0  0  0  0  0  0  0  0  0  0  0
   -0.6745    1.4994   -4.0458 H   0  0  0  0  0  0  0  0  0  0  0  0
    0.9641    1.8824   -3.4821 H   0  0  0  0  0  0  0  0  0  0  0  0
  1  2  1  0  0  0  0
  2  3  1  0  0  0  0
  2  4  1  0  0  0  0
  2  5  1  0  0  0  0
  5  6  2  0  0  0  0
  5  7  1  0  0  0  0
  7  8  1  0  0  0  0
  7  9  1  0  0  0  0
  9 10  1  0  0  0  0
  9 11  1  0  0  0  0
  9 18  1  0  0  0  0
 11 12  1  0  0  0  0
 11 13  1  0  0  0  0
 11 14  1  0  0  0  0
 14 15  2  0  0  0  0
 14 16  1  0  0  0  0
 16 17  1  0  0  0  0
 18 19  2  0  0  0  0
 18 20  1  0  0  0  0
 20 21  1  0  0  0  0
 20 22  1  0  0  0  0
 22 23  1  0  0  0  0
 22 24  1  0  0  0  0
 22 25  1  0  0  0  0
M  END
$$$$

  -OEChem-01062216063D

 25 24  0     1  0  0  0  0  0999 V2000
   -2.9833   -3.4320    0.8905 H   0  0  0  0  0  0  0  0  0  0  0  0
   -2.9125   -2.3765    0.6119 C   0  0  0  0  0  0  0  0  0  0  0  0
   -3.4744   -1.7846    1.3384 H   0  0  0  0  0  0  0  0  0  0  0  0
   -3.3544   -2.2449   -0.3786 H   0  0  0  0  0  0  0  0  0  0  0  0
   -1.4602   -1.9364    0.5941 C   0  0  0  0  0  0  0  0  0  0  0  0
   -0.6005   -2.7722    0.7996 O   0  0  0  0  0  0  0  0  0  0  0  0
   -1.1816   -0.6080    0.3149 N   0  0  0  0  0  0  0  0  0  0  0  0
   -2.0111   -0.0346    0.1981 H   0  0  0  0  0  0  0  0  0  0  0  0
    0.1137    0.1184    0.3456 C   0  0  1  0  0  0  0  0  0  0  0  0
   -0.0873    1.1199    0.7387 H   0  0  0  0  0  0  0  0  0  0  0  0
    1.2221   -0.4869    1.2509 C   0  0  0  0  0  0  0  0  0  0  0  0
    1.4372   -1.5216    0.9784 H   0  0  0  0  0  0  0  0  0  0  0  0
    2.1512    0.0657    1.0870 H   0  0  0  0  0  0  0  0  0  0  0  0
    0.9211   -0.3831    2.7423 C   0  0  0  0  0  0  0  0  0  0  0  0
    0.2323    0.5402    3.1516 O   0  0  0  0  0  0  0  0  0  0  0  0
    1.4837   -1.3079    3.5545 O   0  0  0  0  0  0  0  0  0  0  0  0
    1.1940   -1.0935    4.4528 H   0  0  0  0  0  0  0  0  0  0  0  0
    0.6140    0.3589   -1.1004 C   0  0  0  0  0  0  0  0  0  0  0  0
    1.7213   -0.0029   -1.4754 O   0  0  0  0  0  0  0  0  0  0  0  0
   -0.1652    1.0946   -1.9774 N   0  0  0  0  0  0  0  0  0  0  0  0
   -1.0766    1.4008   -1.6552 H   0  0  0  0  0  0  0  0  0  0  0  0
    0.2402    1.4043   -3.3441 C   0  0  0  0  0  0  0  0  0  0  0  0
    0.4376    0.4837   -3.9036 H   0  0  0  0  0  0  0  0  0  0  0  0
   -0.5518    1.9574   -3.8582 H   0  0  0  0  0  0  0  0  0  0  0  0
    1.1473    2.0179   -3.3449 H   0  0  0  0  0  0  0  0  0  0  0  0
  1  2  1  0  0  0  0
  2  3  1  0  0  0  0
  2  4  1  0  0  0  0
  2  5  1  0  0  0  0
  5  6  2  0  0  0  0
  5  7  1  0  0  0  0
  7  8  1  0  0  0  0
  7  9  1  0  0  0  0
  9 10  1  0  0  0  0
  9 11  1  0  0  0  0
  9 18  1  0  0  0  0
 11 12  1  0  0  0  0
 11 13  1  0  0  0  0
 11 14  1  0  0  0  0
 14 15  2  0  0  0  0
 14 16  1  0  0  0  0
 16 17  1  0  0  0  0
 18 19  2  0  0  0  0
 18 20  1  0  0  0  0
 20 21  1  0  0  0  0
 20 22  1  0  0  0  0
 22 23  1  0  0  0  0
 22 24  1  0  0  0  0
 22 25  1  0  0  0  0
M  END
$$$$

  -OEChem-01062216063D

 25 24  0     1  0  0  0  0  0999 V2000
   -2.9970   -3.4313    0.7669 H   0  0  0  0  0  0  0  0  0  0  0  0
   -2.9158   -2.3708    0.5112 C   0  0  0  0  0  0  0  0  0  0  0  0
   -3.5667   -1.7990    1.1768 H   0  0  0  0  0  0  0  0  0  0  0  0
   -3.2468   -2.2338   -0.5210 H   0  0  0  0  0  0  0  0  0  0  0  0
   -1.4795   -1.9042    0.6624 C   0  0  0  0  0  0  0  0  0  0  0  0
   -0.6511   -2.7067    1.0505 O   0  0  0  0  0  0  0  0  0  0  0  0
   -1.1890   -0.5812    0.3677 N   0  0  0  0  0  0  0  0  0  0  0  0
   -1.9939   -0.0454    0.0587 H   0  0  0  0  0  0  0  0  0  0  0  0
    0.1094    0.1384    0.3794 C   0  0  1  0  0  0  0  0  0  0  0  0
   -0.0775    1.1400    0.7787 H   0  0  0  0  0  0  0  0  0  0  0  0
    1.2380   -0.4727    1.2522 C   0  0  0  0  0  0  0  0  0  0  0  0
    1.4374   -1.5082    0.9684 H   0  0  0  0  0  0  0  0  0  0  0  0
    2.1648    0.0751    1.0630 H   0  0  0  0  0  0  0  0  0  0  0  0
    0.9731   -0.3800    2.7513 C   0  0  0  0  0  0  0  0  0  0  0  0
    0.2942    0.5409    3.1826 O   0  0  0  0  0  0  0  0  0  0  0  0
    1.5641   -1.3032    3.5449 O   0  0  0  0  0  0  0  0  0  0  0  0
    1.2827   -1.1033    4.4490 H   0  0  0  0  0  0  0  0  0  0  0  0
    0.5890    0.3578   -1.0749 C   0  0  0  0  0  0  0  0  0  0  0  0
    1.5191   -0.2743   -1.5563 O   0  0  0  0  0  0  0  0  0  0  0  0
   -0.0212    1.3280   -1.8515 N   0  0  0  0  0  0  0  0  0  0  0  0
   -0.7490    1.8897   -1.4219 H   0  0  0  0  0  0  0  0  0  0  0  0
    0.3896    1.6327   -3.2177 C   0  0  0  0  0  0  0  0  0  0  0  0
    0.3229    0.7385   -3.8467 H   0  0  0  0  0  0  0  0  0  0  0  0
   -0.2590    2.4029   -3.6457 H   0  0  0  0  0  0  0  0  0  0  0  0
    1.4216    1.9989   -3.2347 H   0  0  0  0  0  0  0  0  0  0  0  0
  1  2  1  0  0  0  0
  2  3  1  0  0  0  0
  2  4  1  0  0  0  0
  2  5  1  0  0  0  0
  5  6  2  0  0  0  0
  5  7  1  0  0  0  0
  7  8  1  0  0  0  0
  7  9  1  0  0  0  0
  9 10  1  0  0  0  0
  9 11  1  0  0  0  0
  9 18  1  0  0  0  0
 11 12  1  0  0  0  0
 11 13  1  0  0  0  0
 11 14  1  0  0  0  0
 14 15  2  0  0  0  0
 14 16  1  0  0  0  0
 16 17  1  0  0  0  0
 18 19  2  0  0  0  0
 18 20  1  0  0  0  0
 20 21  1  0  0  0  0
 20 22  1  0  0  0  0
 22 23  1  0  0  0  0
 22 24  1  0  0  0  0
 22 25  1  0  0  0  0
M  END
$$$$

  -OEChem-01062216063D

 25 24  0     1  0  0  0  0  0999 V2000
   -2.9846   -3.4297    0.6954 H   0  0  0  0  0  0  0  0  0  0  0  0
   -2.9064   -2.3688    0.4408 C   0  0  0  0  0  0  0  0  0  0  0  0
   -3.6277   -1.8094    1.0411 H   0  0  0  0  0  0  0  0  0  0  0  0
   -3.1457   -2.2448   -0.6181 H   0  0  0  0  0  0  0  0  0  0  0  0
   -1.5010   -1.8664    0.7166 C   0  0  0  0  0  0  0  0  0  0  0  0
   -0.7046   -2.6337    1.2256 O   0  0  0  0  0  0  0  0  0  0  0  0
   -1.2085   -0.5462    0.4125 N   0  0  0  0  0  0  0  0  0  0  0  0
   -1.9833   -0.0473   -0.0138 H   0  0  0  0  0  0  0  0  0  0  0  0
    0.0950    0.1625    0.4119 C   0  0  1  0  0  0  0  0  0  0  0  0
   -0.0803    1.1622    0.8209 H   0  0  0  0  0  0  0  0  0  0  0  0
    1.2408   -0.4601    1.2516 C   0  0  0  0  0  0  0  0  0  0  0  0
    1.4219   -1.4953    0.9527 H   0  0  0  0  0  0  0  0  0  0  0  0
    2.1665    0.0828    1.0445 H   0  0  0  0  0  0  0  0  0  0  0  0
    1.0118   -0.3856    2.7578 C   0  0  0  0  0  0  0  0  0  0  0  0
    0.3451    0.5311    3.2156 O   0  0  0  0  0  0  0  0  0  0  0  0
    1.6310   -1.3117    3.5264 O   0  0  0  0  0  0  0  0  0  0  0  0
    1.3639   -1.1287    4.4384 H   0  0  0  0  0  0  0  0  0  0  0  0
    0.5630    0.3707   -1.0460 C   0  0  0  0  0  0  0  0  0  0  0  0
    1.2420   -0.4636   -1.6279 O   0  0  0  0  0  0  0  0  0  0  0  0
    0.1966    1.5193   -1.7263 N   0  0  0  0  0  0  0  0  0  0  0  0
   -0.3248    2.2264   -1.2174 H   0  0  0  0  0  0  0  0  0  0  0  0
    0.6195    1.8045   -3.0930 C   0  0  0  0  0  0  0  0  0  0  0  0
    0.2949    1.0066   -3.7695 H   0  0  0  0  0  0  0  0  0  0  0  0
    0.1820    2.7466   -3.4372 H   0  0  0  0  0  0  0  0  0  0  0  0
    1.7102    1.8885   -3.1467 H   0  0  0  0  0  0  0  0  0  0  0  0
  1  2  1  0  0  0  0
  2  3  1  0  0  0  0
  2  4  1  0  0  0  0
  2  5  1  0  0  0  0
  5  6  2  0  0  0  0
  5  7  1  0  0  0  0
  7  8  1  0  0  0  0
  7  9  1  0  0  0  0
  9 10  1  0  0  0  0
  9 11  1  0  0  0  0
  9 18  1  0  0  0  0
 11 12  1  0  0  0  0
 11 13  1  0  0  0  0
 11 14  1  0  0  0  0
 14 15  2  0  0  0  0
 14 16  1  0  0  0  0
 16 17  1  0  0  0  0
 18 19  2  0  0  0  0
 18 20  1  0  0  0  0
 20 21  1  0  0  0  0
 20 22  1  0  0  0  0
 22 23  1  0  0  0  0
 22 24  1  0  0  0  0
 22 25  1  0  0  0  0
M  END
$$$$

  -OEChem-01062216063D

 25 24  0     1  0  0  0  0  0999 V2000
   -2.9688   -3.4289    0.6671 H   0  0  0  0  0  0  0  0  0  0  0  0
   -2.8932   -2.3700    0.4036 C   0  0  0  0  0  0  0  0  0  0  0  0
   -3.6532   -1.8143    0.9578 H   0  0  0  0  0  0  0  0  0  0  0  0
   -3.0785   -2.2625   -0.6678 H   0  0  0  0  0  0  0  0  0  0  0  0
   -1.5117   -1.8428    0.7462 C   0  0  0  0  0  0  0  0  0  0  0  0
   -0.7373   -2.5860    1.3220 O   0  0  0  0  0  0  0  0  0  0  0  0
   -1.2211   -0.5231    0.4380 N   0  0  0  0  0  0  0  0  0  0  0  0
   -1.9728   -0.0505   -0.0550 H   0  0  0  0  0  0  0  0  0  0  0  0
    0.0866    0.1771    0.4321 C   0  0  1  0  0  0  0  0  0  0  0  0
   -0.0851    1.1744    0.8482 H   0  0  0  0  0  0  0  0  0  0  0  0
    1.2403   -0.4538    1.2522 C   0  0  0  0  0  0  0  0  0  0  0  0
    1.4095   -1.4887    0.9441 H   0  0  0  0  0  0  0  0  0  0  0  0
    2.1666    0.0848    1.0373 H   0  0  0  0  0  0  0  0  0  0  0  0
    1.0301   -0.3901    2.7620 C   0  0  0  0  0  0  0  0  0  0  0  0
    0.3714    0.5248    3.2345 O   0  0  0  0  0  0  0  0  0  0  0  0
    1.6616   -1.3196    3.5161 O   0  0  0  0  0  0  0  0  0  0  0  0
    1.3992   -1.1477    4.4317 H   0  0  0  0  0  0  0  0  0  0  0  0
    0.5570    0.3849   -1.0239 C   0  0  0  0  0  0  0  0  0  0  0  0
    0.9398   -0.5553   -1.7058 O   0  0  0  0  0  0  0  0  0  0  0  0
    0.4788    1.6395   -1.6029 N   0  0  0  0  0  0  0  0  0  0  0  0
    0.1872    2.4155   -1.0161 H   0  0  0  0  0  0  0  0  0  0  0  0
    0.8995    1.9131   -2.9727 C   0  0  0  0  0  0  0  0  0  0  0  0
    0.3450    1.2845   -3.6777 H   0  0  0  0  0  0  0  0  0  0  0  0
    0.7110    2.9610   -3.2251 H   0  0  0  0  0  0  0  0  0  0  0  0
    1.9700    1.7148   -3.0916 H   0  0  0  0  0  0  0  0  0  0  0  0
  1  2  1  0  0  0  0
  2  3  1  0  0  0  0
  2  4  1  0  0  0  0
  2  5  1  0  0  0  0
  5  6  2  0  0  0  0
  5  7  1  0  0  0  0
  7  8  1  0  0  0  0
  7  9  1  0  0  0  0
  9 10  1  0  0  0  0
  9 11  1  0  0  0  0
  9 18  1  0  0  0  0
 11 12  1  0  0  0  0
 11 13  1  0  0  0  0
 11 14  1  0  0  0  0
 14 15  2  0  0  0  0
 14 16  1  0  0  0  0
 16 17  1  0  0  0  0
 18 19  2  0  0  0  0
 18 20  1  0  0  0  0
 20 21  1  0  0  0  0
 20 22  1  0  0  0  0
 22 23  1  0  0  0  0
 22 24  1  0  0  0  0
 22 25  1  0  0  0  0
M  END
$$$$

  -OEChem-01062216063D

 25 24  0     1  0  0  0  0  0999 V2000
   -2.9556   -3.4275    0.6453 H   0  0  0  0  0  0  0  0  0  0  0  0
   -2.8794   -2.3705    0.3743 C   0  0  0  0  0  0  0  0  0  0  0  0
   -3.6686   -1.8170    0.8884 H   0  0  0  0  0  0  0  0  0  0  0  0
   -3.0180   -2.2758   -0.7053 H   0  0  0  0  0  0  0  0  0  0  0  0
   -1.5197   -1.8250    0.7701 C   0  0  0  0  0  0  0  0  0  0  0  0
   -0.7634   -2.5520    1.3902 O   0  0  0  0  0  0  0  0  0  0  0  0
   -1.2285   -0.5066    0.4580 N   0  0  0  0  0  0  0  0  0  0  0  0
   -1.9564   -0.0583   -0.0908 H   0  0  0  0  0  0  0  0  0  0  0  0
    0.0842    0.1838    0.4470 C   0  0  1  0  0  0  0  0  0  0  0  0
   -0.0854    1.1815    0.8634 H   0  0  0  0  0  0  0  0  0  0  0  0
    1.2400   -0.4529    1.2578 C   0  0  0  0  0  0  0  0  0  0  0  0
    1.3974   -1.4892    0.9478 H   0  0  0  0  0  0  0  0  0  0  0  0
    2.1685    0.0793    1.0371 H   0  0  0  0  0  0  0  0  0  0  0  0
    1.0420   -0.3901    2.7695 C   0  0  0  0  0  0  0  0  0  0  0  0
    0.3916    0.5272    3.2487 O   0  0  0  0  0  0  0  0  0  0  0  0
    1.6786   -1.3219    3.5165 O   0  0  0  0  0  0  0  0  0  0  0  0
    1.4200   -1.1539    4.4340 H   0  0  0  0  0  0  0  0  0  0  0  0
    0.5574    0.3897   -1.0079 C   0  0  0  0  0  0  0  0  0  0  0  0
    0.6314   -0.5530   -1.7839 O   0  0  0  0  0  0  0  0  0  0  0  0
    0.7860    1.6677   -1.4867 N   0  0  0  0  0  0  0  0  0  0  0  0
    0.7373    2.4375   -0.8257 H   0  0  0  0  0  0  0  0  0  0  0  0
    1.2004    1.9438   -2.8577 C   0  0  0  0  0  0  0  0  0  0  0  0
    0.4664    1.5481   -3.5678 H   0  0  0  0  0  0  0  0  0  0  0  0
    1.2865    3.0228   -3.0175 H   0  0  0  0  0  0  0  0  0  0  0  0
    2.1728    1.4842   -3.0637 H   0  0  0  0  0  0  0  0  0  0  0  0
  1  2  1  0  0  0  0
  2  3  1  0  0  0  0
  2  4  1  0  0  0  0
  2  5  1  0  0  0  0
  5  6  2  0  0  0  0
  5  7  1  0  0  0  0
  7  8  1  0  0  0  0
  7  9  1  0  0  0  0
  9 10  1  0  0  0  0
  9 11  1  0  0  0  0
  9 18  1  0  0  0  0
 11 12  1  0  0  0  0
 11 13  1  0  0  0  0
 11 14  1  0  0  0  0
 14 15  2  0  0  0  0
 14 16  1  0  0  0  0
 16 17  1  0  0  0  0
 18 19  2  0  0  0  0
 18 20  1  0  0  0  0
 20 21  1  0  0  0  0
 20 22  1  0  0  0  0
 22 23  1  0  0  0  0
 22 24  1  0  0  0  0
 22 25  1  0  0  0  0
M  END
$$$$

  -OEChem-01062216063D

 25 24  0     1  0  0  0  0  0999 V2000
   -2.9487   -3.4275    0.6449 H   0  0  0  0  0  0  0  0  0  0  0  0
   -2.8723   -2.3720    0.3684 C   0  0  0  0  0  0  0  0  0  0  0  0
   -3.6733   -1.8190    0.8645 H   0  0  0  0  0  0  0  0  0  0  0  0
   -2.9925   -2.2850   -0.7141 H   0  0  0  0  0  0  0  0  0  0  0  0
   -1.5223   -1.8174    0.7847 C   0  0  0  0  0  0  0  0  0  0  0  0
   -0.7727   -2.5370    1.4219 O   0  0  0  0  0  0  0  0  0  0  0  0
   -1.2296   -0.5008    0.4679 N   0  0  0  0  0  0  0  0  0  0  0  0
   -1.9398   -0.0713   -0.1183 H   0  0  0  0  0  0  0  0  0  0  0  0
    0.0859    0.1850    0.4528 C   0  0  1  0  0  0  0  0  0  0  0  0
   -0.0826    1.1846    0.8649 H   0  0  0  0  0  0  0  0  0  0  0  0
    1.2404   -0.4556    1.2624 C   0  0  0  0  0  0  0  0  0  0  0  0
    1.3921   -1.4928    0.9530 H   0  0  0  0  0  0  0  0  0  0  0  0
    2.1714    0.0722    1.0416 H   0  0  0  0  0  0  0  0  0  0  0  0
    1.0447   -0.3896    2.7743 C   0  0  0  0  0  0  0  0  0  0  0  0
    0.3992    0.5310    3.2533 O   0  0  0  0  0  0  0  0  0  0  0  0
    1.6763   -1.3248    3.5210 O   0  0  0  0  0  0  0  0  0  0  0  0
    1.4137   -1.1584    4.4377 H   0  0  0  0  0  0  0  0  0  0  0  0
    0.5653    0.3891   -1.0013 C   0  0  0  0  0  0  0  0  0  0  0  0
    0.3610   -0.4625   -1.8565 O   0  0  0  0  0  0  0  0  0  0  0  0
    1.0942    1.6075   -1.3892 N   0  0  0  0  0  0  0  0  0  0  0  0
    1.2559    2.3052   -0.6687 H   0  0  0  0  0  0  0  0  0  0  0  0
    1.5139    1.8976   -2.7558 C   0  0  0  0  0  0  0  0  0  0  0  0
    0.6764    1.7704   -3.4499 H   0  0  0  0  0  0  0  0  0  0  0  0
    1.8699    2.9294   -2.8320 H   0  0  0  0  0  0  0  0  0  0  0  0
    2.3258    1.2276   -3.0578 H   0  0  0  0  0  0  0  0  0  0  0  0
  1  2  1  0  0  0  0
  2  3  1  0  0  0  0
  2  4  1  0  0  0  0
  2  5  1  0  0  0  0
  5  6  2  0  0  0  0
  5  7  1  0  0  0  0
  7  8  1  0  0  0  0
  7  9  1  0  0  0  0
  9 10  1  0  0  0  0
  9 11  1  0  0  0  0
  9 18  1  0  0  0  0
 11 12  1  0  0  0  0
 11 13  1  0  0  0  0
 11 14  1  0  0  0  0
 14 15  2  0  0  0  0
 14 16  1  0  0  0  0
 16 17  1  0  0  0  0
 18 19  2  0  0  0  0
 18 20  1  0  0  0  0
 20 21  1  0  0  0  0
 20 22  1  0  0  0  0
 22 23  1  0  0  0  0
 22 24  1  0  0  0  0
 22 25  1  0  0  0  0
M  END
$$$$

  -OEChem-01062216063D

 25 24  0     1  0  0  0  0  0999 V2000
   -2.9590   -3.4212    0.6598 H   0  0  0  0  0  0  0  0  0  0  0  0
   -2.8693   -2.3716    0.3652 C   0  0  0  0  0  0  0  0  0  0  0  0
   -3.6717   -1.8026    0.8406 H   0  0  0  0  0  0  0  0  0  0  0  0
   -2.9735   -2.3021   -0.7205 H   0  0  0  0  0  0  0  0  0  0  0  0
   -1.5205   -1.8209    0.7898 C   0  0  0  0  0  0  0  0  0  0  0  0
   -0.7729   -2.5437    1.4260 O   0  0  0  0  0  0  0  0  0  0  0  0
   -1.2229   -0.5060    0.4728 N   0  0  0  0  0  0  0  0  0  0  0  0
   -1.9214   -0.0845   -0.1338 H   0  0  0  0  0  0  0  0  0  0  0  0
    0.0940    0.1771    0.4541 C   0  0  1  0  0  0  0  0  0  0  0  0
   -0.0732    1.1799    0.8598 H   0  0  0  0  0  0  0  0  0  0  0  0
    1.2434   -0.4648    1.2721 C   0  0  0  0  0  0  0  0  0  0  0  0
    1.3912   -1.5049    0.9713 H   0  0  0  0  0  0  0  0  0  0  0  0
    2.1788    0.0554    1.0532 H   0  0  0  0  0  0  0  0  0  0  0  0
    1.0423   -0.3878    2.7830 C   0  0  0  0  0  0  0  0  0  0  0  0
    0.4000    0.5388    3.2539 O   0  0  0  0  0  0  0  0  0  0  0  0
    1.6682   -1.3202    3.5378 O   0  0  0  0  0  0  0  0  0  0  0  0
    1.4036   -1.1466    4.4528 H   0  0  0  0  0  0  0  0  0  0  0  0
    0.5740    0.3823   -1.0011 C   0  0  0  0  0  0  0  0  0  0  0  0
    0.1361   -0.3078   -1.9136 O   0  0  0  0  0  0  0  0  0  0  0  0
    1.3774    1.4643   -1.3150 N   0  0  0  0  0  0  0  0  0  0  0  0
    1.7127    2.0433   -0.5505 H   0  0  0  0  0  0  0  0  0  0  0  0
    1.8068    1.7746   -2.6740 C   0  0  0  0  0  0  0  0  0  0  0  0
    0.9398    1.9519   -3.3193 H   0  0  0  0  0  0  0  0  0  0  0  0
    2.4296    2.6743   -2.6788 H   0  0  0  0  0  0  0  0  0  0  0  0
    2.3912    0.9468   -3.0894 H   0  0  0  0  0  0  0  0  0  0  0  0
  1  2  1  0  0  0  0
  2  3  1  0  0  0  0
  2  4  1  0  0  0  0
  2  5  1  0  0  0  0
  5  6  2  0  0  0  0
  5  7  1  0  0  0  0
  7  8  1  0  0  0  0
  7  9  1  0  0  0  0
  9 10  1  0  0  0  0
  9 11  1  0  0  0  0
  9 18  1  0  0  0  0
 11 12  1  0  0  0  0
 11 13  1  0  0  0  0
 11 14  1  0  0  0  0
 14 15  2  0  0  0  0
 14 16  1  0  0  0  0
 16 17  1  0  0  0  0
 18 19  2  0  0  0  0
 18 20  1  0  0  0  0
 20 21  1  0  0  0  0
 20 22  1  0  0  0  0
 22 23  1  0  0  0  0
 22 24  1  0  0  0  0
 22 25  1  0  0  0  0
M  END
$$$$

  -OEChem-01062216063D

 25 24  0     1  0  0  0  0  0999 V2000
   -2.9541   -3.4233    0.6433 H   0  0  0  0  0  0  0  0  0  0  0  0
   -2.8668   -2.3695    0.3642 C   0  0  0  0  0  0  0  0  0  0  0  0
   -3.6665   -1.8084    0.8532 H   0  0  0  0  0  0  0  0  0  0  0  0
   -2.9787   -2.2837   -0.7196 H   0  0  0  0  0  0  0  0  0  0  0  0
   -1.5157   -1.8240    0.7887 C   0  0  0  0  0  0  0  0  0  0  0  0
   -0.7648   -2.5550    1.4117 O   0  0  0  0  0  0  0  0  0  0  0  0
   -1.2153   -0.5085    0.4774 N   0  0  0  0  0  0  0  0  0  0  0  0
   -1.9078   -0.0881   -0.1377 H   0  0  0  0  0  0  0  0  0  0  0  0
    0.0996    0.1795    0.4617 C   0  0  1  0  0  0  0  0  0  0  0  0
   -0.0670    1.1830    0.8666 H   0  0  0  0  0  0  0  0  0  0  0  0
    1.2433   -0.4679    1.2864 C   0  0  0  0  0  0  0  0  0  0  0  0
    1.3924   -1.5070    0.9833 H   0  0  0  0  0  0  0  0  0  0  0  0
    2.1829    0.0493    1.0809 H   0  0  0  0  0  0  0  0  0  0  0  0
    1.0329   -0.3943    2.7963 C   0  0  0  0  0  0  0  0  0  0  0  0
    0.3901    0.5321    3.2664 O   0  0  0  0  0  0  0  0  0  0  0  0
    1.6571   -1.3275    3.5515 O   0  0  0  0  0  0  0  0  0  0  0  0
    1.3912   -1.1544    4.4663 H   0  0  0  0  0  0  0  0  0  0  0  0
    0.5763    0.3888   -0.9963 C   0  0  0  0  0  0  0  0  0  0  0  0
   -0.0367   -0.1058   -1.9355 O   0  0  0  0  0  0  0  0  0  0  0  0
    1.6077    1.2693   -1.2732 N   0  0  0  0  0  0  0  0  0  0  0  0
    2.0858    1.7004   -0.4874 H   0  0  0  0  0  0  0  0  0  0  0  0
    2.0679    1.5645   -2.6256 C   0  0  0  0  0  0  0  0  0  0  0  0
    1.2576    1.9988   -3.2206 H   0  0  0  0  0  0  0  0  0  0  0  0
    2.8961    2.2791   -2.5966 H   0  0  0  0  0  0  0  0  0  0  0  0
    2.4164    0.6512   -3.1195 H   0  0  0  0  0  0  0  0  0  0  0  0
  1  2  1  0  0  0  0
  2  3  1  0  0  0  0
  2  4  1  0  0  0  0
  2  5  1  0  0  0  0
  5  6  2  0  0  0  0
  5  7  1  0  0  0  0
  7  8  1  0  0  0  0
  7  9  1  0  0  0  0
  9 10  1  0  0  0  0
  9 11  1  0  0  0  0
  9 18  1  0  0  0  0
 11 12  1  0  0  0  0
 11 13  1  0  0  0  0
 11 14  1  0  0  0  0
 14 15  2  0  0  0  0
 14 16  1  0  0  0  0
 16 17  1  0  0  0  0
 18 19  2  0  0  0  0
 18 20  1  0  0  0  0
 20 21  1  0  0  0  0
 20 22  1  0  0  0  0
 22 23  1  0  0  0  0
 22 24  1  0  0  0  0
 22 25  1  0  0  0  0
M  END
$$$$

  -OEChem-01062216063D

 25 24  0     1  0  0  0  0  0999 V2000
   -3.0381   -3.3675    0.6749 H   0  0  0  0  0  0  0  0  0  0  0  0
   -2.9197   -2.3119    0.4145 C   0  0  0  0  0  0  0  0  0  0  0  0
   -3.6467   -1.7257    0.9817 H   0  0  0  0  0  0  0  0  0  0  0  0
   -3.1155   -2.1895   -0.6536 H   0  0  0  0  0  0  0  0  0  0  0  0
   -1.5128   -1.8453    0.7396 C   0  0  0  0  0  0  0  0  0  0  0  0
   -0.7387   -2.6431    1.2398 O   0  0  0  0  0  0  0  0  0  0  0  0
   -1.1779   -0.5345    0.4457 N   0  0  0  0  0  0  0  0  0  0  0  0
   -1.8857   -0.0598   -0.1127 H   0  0  0  0  0  0  0  0  0  0  0  0
    0.1375    0.1518    0.4413 C   0  0  1  0  0  0  0  0  0  0  0  0
    0.0341    1.0368    1.0776 H   0  0  0  0  0  0  0  0  0  0  0  0
    1.3560   -0.6522    0.9732 C   0  0  0  0  0  0  0  0  0  0  0  0
    1.4276   -1.6038    0.4392 H   0  0  0  0  0  0  0  0  0  0  0  0
    2.2823   -0.1090    0.7801 H   0  0  0  0  0  0  0  0  0  0  0  0
    1.3220   -0.9211    2.4765 C   0  0  0  0  0  0  0  0  0  0  0  0
    0.7518   -0.1304    3.2126 O   0  0  0  0  0  0  0  0  0  0  0  0
    2.0248   -1.9864    2.9268 O   0  0  0  0  0  0  0  0  0  0  0  0
    1.8567   -2.0329    3.8792 H   0  0  0  0  0  0  0  0  0  0  0  0
    0.4258    0.6971   -0.9808 C   0  0  0  0  0  0  0  0  0  0  0  0
   -0.4314    0.6275   -1.8553 O   0  0  0  0  0  0  0  0  0  0  0  0
    1.5945    1.3839   -1.2619 N   0  0  0  0  0  0  0  0  0  0  0  0
    2.2800    1.4748   -0.5183 H   0  0  0  0  0  0  0  0  0  0  0  0
    1.8906    1.9662   -2.5660 C   0  0  0  0  0  0  0  0  0  0  0  0
    1.1425    2.7219   -2.8276 H   0  0  0  0  0  0  0  0  0  0  0  0
    2.8746    2.4445   -2.5526 H   0  0  0  0  0  0  0  0  0  0  0  0
    1.8938    1.1911   -3.3396 H   0  0  0  0  0  0  0  0  0  0  0  0
  1  2  1  0  0  0  0
  2  3  1  0  0  0  0
  2  4  1  0  0  0  0
  2  5  1  0  0  0  0
  5  6  2  0  0  0  0
  5  7  1  0  0  0  0
  7  8  1  0  0  0  0
  7  9  1  0  0  0  0
  9 10  1  0  0  0  0
  9 11  1  0  0  0  0
  9 18  1  0  0  0  0
 11 12  1  0  0  0  0
 11 13  1  0  0  0  0
 11 14  1  0  0  0  0
 14 15  2  0  0  0  0
 14 16  1  0  0  0  0
 16 17  1  0  0  0  0
 18 19  2  0  0  0  0
 18 20  1  0  0  0  0
 20 21  1  0  0  0  0
 20 22  1  0  0  0  0
 22 23  1  0  0  0  0
 22 24  1  0  0  0  0
 22 25  1  0  0  0  0
M  END
$$$$

  -OEChem-01062216063D

 25 24  0     1  0  0  0  0  0999 V2000
   -3.0317   -3.3624    0.6318 H   0  0  0  0  0  0  0  0  0  0  0  0
   -2.9114   -2.3007    0.3989 C   0  0  0  0  0  0  0  0  0  0  0  0
   -3.6268   -1.7270    0.9928 H   0  0  0  0  0  0  0  0  0  0  0  0
   -3.1223   -2.1479   -0.6623 H   0  0  0  0  0  0  0  0  0  0  0  0
   -1.4973   -1.8501    0.7150 C   0  0  0  0  0  0  0  0  0  0  0  0
   -0.7195   -2.6636    1.1832 O   0  0  0  0  0  0  0  0  0  0  0  0
   -1.1556   -0.5371    0.4404 N   0  0  0  0  0  0  0  0  0  0  0  0
   -1.8698   -0.0368   -0.0875 H   0  0  0  0  0  0  0  0  0  0  0  0
    0.1588    0.1501    0.4564 C   0  0  1  0  0  0  0  0  0  0  0  0
    0.0505    1.0340    1.0939 H   0  0  0  0  0  0  0  0  0  0  0  0
    1.3672   -0.6586    1.0058 C   0  0  0  0  0  0  0  0  0  0  0  0
    1.4528   -1.6070    0.4686 H   0  0  0  0  0  0  0  0  0  0  0  0
    2.2962   -0.1113    0.8405 H   0  0  0  0  0  0  0  0  0  0  0  0
    1.3046   -0.9302    2.5079 C   0  0  0  0  0  0  0  0  0  0  0  0
    0.7235   -0.1406    3.2365 O   0  0  0  0  0  0  0  0  0  0  0  0
    1.9961   -1.9992    2.9670 O   0  0  0  0  0  0  0  0  0  0  0  0
    1.8137   -2.0462    3.9169 H   0  0  0  0  0  0  0  0  0  0  0  0
    0.4410    0.7037   -0.9653 C   0  0  0  0  0  0  0  0  0  0  0  0
   -0.4879    0.8544   -1.7526 O   0  0  0  0  0  0  0  0  0  0  0  0
    1.7012    1.1246   -1.3553 N   0  0  0  0  0  0  0  0  0  0  0  0
    2.4668    0.9912   -0.7023 H   0  0  0  0  0  0  0  0  0  0  0  0
    1.9945    1.6585   -2.6807 C   0  0  0  0  0  0  0  0  0  0  0  0
    1.3900    2.5501   -2.8785 H   0  0  0  0  0  0  0  0  0  0  0  0
    3.0507    1.9360   -2.7520 H   0  0  0  0  0  0  0  0  0  0  0  0
    1.7805    0.9097   -3.4507 H   0  0  0  0  0  0  0  0  0  0  0  0
  1  2  1  0  0  0  0
  2  3  1  0  0  0  0
  2  4  1  0  0  0  0
  2  5  1  0  0  0  0
  5  6  2  0  0  0  0
  5  7  1  0  0  0  0
  7  8  1  0  0  0  0
  7  9  1  0  0  0  0
  9 10  1  0  0  0  0
  9 11  1  0  0  0  0
  9 18  1  0  0  0  0
 11 12  1  0  0  0  0
 11 13  1  0  0  0  0
 11 14  1  0  0  0  0
 14 15  2  0  0  0  0
 14 16  1  0  0  0  0
 16 17  1  0  0  0  0
 18 19  2  0  0  0  0
 18 20  1  0  0  0  0
 20 21  1  0  0  0  0
 20 22  1  0  0  0  0
 22 23  1  0  0  0  0
 22 24  1  0  0  0  0
 22 25  1  0  0  0  0
M  END
$$$$

  -OEChem-01062216063D

 25 24  0     1  0  0  0  0  0999 V2000
   -3.0334   -3.3573    0.6294 H   0  0  0  0  0  0  0  0  0  0  0  0
   -2.9097   -2.2946    0.4028 C   0  0  0  0  0  0  0  0  0  0  0  0
   -3.6006   -1.7196    1.0240 H   0  0  0  0  0  0  0  0  0  0  0  0
   -3.1523   -2.1289   -0.6497 H   0  0  0  0  0  0  0  0  0  0  0  0
   -1.4823   -1.8609    0.6802 C   0  0  0  0  0  0  0  0  0  0  0  0
   -0.6952   -2.6875    1.1083 O   0  0  0  0  0  0  0  0  0  0  0  0
   -1.1374   -0.5463    0.4185 N   0  0  0  0  0  0  0  0  0  0  0  0
   -1.8645   -0.0192   -0.0639 H   0  0  0  0  0  0  0  0  0  0  0  0
    0.1744    0.1427    0.4568 C   0  0  1  0  0  0  0  0  0  0  0  0
    0.0557    1.0270    1.0918 H   0  0  0  0  0  0  0  0  0  0  0  0
    1.3759   -0.6607    1.0275 C   0  0  0  0  0  0  0  0  0  0  0  0
    1.4824   -1.6078    0.4916 H   0  0  0  0  0  0  0  0  0  0  0  0
    2.3013   -0.1004    0.8848 H   0  0  0  0  0  0  0  0  0  0  0  0
    1.2857   -0.9299    2.5284 C   0  0  0  0  0  0  0  0  0  0  0  0
    0.6883   -0.1423    3.2457 O   0  0  0  0  0  0  0  0  0  0  0  0
    1.9702   -1.9974    3.0010 O   0  0  0  0  0  0  0  0  0  0  0  0
    1.7754   -2.0399    3.9488 H   0  0  0  0  0  0  0  0  0  0  0  0
    0.4611    0.6986   -0.9623 C   0  0  0  0  0  0  0  0  0  0  0  0
   -0.4794    1.0676   -1.6578 O   0  0  0  0  0  0  0  0  0  0  0  0
    1.7435    0.8444   -1.4638 N   0  0  0  0  0  0  0  0  0  0  0  0
    2.5092    0.4776   -0.9074 H   0  0  0  0  0  0  0  0  0  0  0  0
    2.0283    1.3400   -2.8058 C   0  0  0  0  0  0  0  0  0  0  0  0
    1.6016    2.3389   -2.9453 H   0  0  0  0  0  0  0  0  0  0  0  0
    3.1091    1.4029   -2.9645 H   0  0  0  0  0  0  0  0  0  0  0  0
    1.6054    0.6679   -3.5600 H   0  0  0  0  0  0  0  0  0  0  0  0
  1  2  1  0  0  0  0
  2  3  1  0  0  0  0
  2  4  1  0  0  0  0
  2  5  1  0  0  0  0
  5  6  2  0  0  0  0
  5  7  1  0  0  0  0
  7  8  1  0  0  0  0
  7  9  1  0  0  0  0
  9 10  1  0  0  0  0
  9 11  1  0  0  0  0
  9 18  1  0  0  0  0
 11 12  1  0  0  0  0
 11 13  1  0  0  0  0
 11 14  1  0  0  0  0
 14 15  2  0  0  0  0
 14 16  1  0  0  0  0
 16 17  1  0  0  0  0
 18 19  2  0  0  0  0
 18 20  1  0  0  0  0
 20 21  1  0  0  0  0
 20 22  1  0  0  0  0
 22 23  1  0  0  0  0
 22 24  1  0  0  0  0
 22 25  1  0  0  0  0
M  END
$$$$

  -OEChem-01062216063D

 25 24  0     1  0  0  0  0  0999 V2000
   -3.0336   -3.3580    0.6446 H   0  0  0  0  0  0  0  0  0  0  0  0
   -2.9130   -2.2947    0.4182 C   0  0  0  0  0  0  0  0  0  0  0  0
   -3.5830   -1.7200    1.0622 H   0  0  0  0  0  0  0  0  0  0  0  0
   -3.1863   -2.1245   -0.6260 H   0  0  0  0  0  0  0  0  0  0  0  0
   -1.4760   -1.8677    0.6534 C   0  0  0  0  0  0  0  0  0  0  0  0
   -0.6766   -2.7025    1.0405 O   0  0  0  0  0  0  0  0  0  0  0  0
   -1.1313   -0.5524    0.3950 N   0  0  0  0  0  0  0  0  0  0  0  0
   -1.8741   -0.0027   -0.0347 H   0  0  0  0  0  0  0  0  0  0  0  0
    0.1791    0.1367    0.4478 C   0  0  1  0  0  0  0  0  0  0  0  0
    0.0520    1.0226    1.0794 H   0  0  0  0  0  0  0  0  0  0  0  0
    1.3788   -0.6578    1.0330 C   0  0  0  0  0  0  0  0  0  0  0  0
    1.4991   -1.6059    0.5024 H   0  0  0  0  0  0  0  0  0  0  0  0
    2.2994   -0.0867    0.8944 H   0  0  0  0  0  0  0  0  0  0  0  0
    1.2751   -0.9231    2.5336 C   0  0  0  0  0  0  0  0  0  0  0  0
    0.6664   -0.1376    3.2433 O   0  0  0  0  0  0  0  0  0  0  0  0
    1.9575   -1.9879    3.0148 O   0  0  0  0  0  0  0  0  0  0  0  0
    1.7607   -2.0237    3.9624 H   0  0  0  0  0  0  0  0  0  0  0  0
    0.4767    0.6899   -0.9674 C   0  0  0  0  0  0  0  0  0  0  0  0
   -0.4195    1.2654   -1.5739 O   0  0  0  0  0  0  0  0  0  0  0  0
    1.7129    0.5608   -1.5773 N   0  0  0  0  0  0  0  0  0  0  0  0
    2.4081   -0.0089   -1.1048 H   0  0  0  0  0  0  0  0  0  0  0  0
    1.9886    1.0228   -2.9328 C   0  0  0  0  0  0  0  0  0  0  0  0
    1.7747    2.0931   -3.0247 H   0  0  0  0  0  0  0  0  0  0  0  0
    3.0420    0.8607   -3.1808 H   0  0  0  0  0  0  0  0  0  0  0  0
    1.3733    0.4773   -3.6561 H   0  0  0  0  0  0  0  0  0  0  0  0
  1  2  1  0  0  0  0
  2  3  1  0  0  0  0
  2  4  1  0  0  0  0
  2  5  1  0  0  0  0
  5  6  2  0  0  0  0
  5  7  1  0  0  0  0
  7  8  1  0  0  0  0
  7  9  1  0  0  0  0
  9 10  1  0  0  0  0
  9 11  1  0  0  0  0
  9 18  1  0  0  0  0
 11 12  1  0  0  0  0
 11 13  1  0  0  0  0
 11 14  1  0  0  0  0
 14 15  2  0  0  0  0
 14 16  1  0  0  0  0
 16 17  1  0  0  0  0
 18 19  2  0  0  0  0
 18 20  1  0  0  0  0
 20 21  1  0  0  0  0
 20 22  1  0  0  0  0
 22 23  1  0  0  0  0
 22 24  1  0  0  0  0
 22 25  1  0  0  0  0
M  END
$$$$

  -OEChem-01062216063D

 25 24  0     1  0  0  0  0  0999 V2000
   -3.0340   -3.3581    0.6751 H   0  0  0  0  0  0  0  0  0  0  0  0
   -2.9165   -2.2955    0.4440 C   0  0  0  0  0  0  0  0  0  0  0  0
   -3.5600   -1.7176    1.1119 H   0  0  0  0  0  0  0  0  0  0  0  0
   -3.2265   -2.1239   -0.5897 H   0  0  0  0  0  0  0  0  0  0  0  0
   -1.4699   -1.8753    0.6279 C   0  0  0  0  0  0  0  0  0  0  0  0
   -0.6571   -2.7165    0.9707 O   0  0  0  0  0  0  0  0  0  0  0  0
   -1.1299   -0.5590    0.3691 N   0  0  0  0  0  0  0  0  0  0  0  0
   -1.8919    0.0084    0.0016 H   0  0  0  0  0  0  0  0  0  0  0  0
    0.1766    0.1346    0.4336 C   0  0  1  0  0  0  0  0  0  0  0  0
    0.0406    1.0210    1.0630 H   0  0  0  0  0  0  0  0  0  0  0  0
    1.3780   -0.6504    1.0264 C   0  0  0  0  0  0  0  0  0  0  0  0
    1.5095   -1.5989    0.4995 H   0  0  0  0  0  0  0  0  0  0  0  0
    2.2935   -0.0702    0.8863 H   0  0  0  0  0  0  0  0  0  0  0  0
    1.2667   -0.9171    2.5259 C   0  0  0  0  0  0  0  0  0  0  0  0
    0.6472   -0.1372    3.2324 O   0  0  0  0  0  0  0  0  0  0  0  0
    1.9491   -1.9808    3.0100 O   0  0  0  0  0  0  0  0  0  0  0  0
    1.7492   -2.0170    3.9570 H   0  0  0  0  0  0  0  0  0  0  0  0
    0.4872    0.6843   -0.9769 C   0  0  0  0  0  0  0  0  0  0  0  0
   -0.3186    1.4430   -1.5016 O   0  0  0  0  0  0  0  0  0  0  0  0
    1.6112    0.3033   -1.6895 N   0  0  0  0  0  0  0  0  0  0  0  0
    2.1918   -0.4252   -1.2840 H   0  0  0  0  0  0  0  0  0  0  0  0
    1.8727    0.7287   -3.0594 C   0  0  0  0  0  0  0  0  0  0  0  0
    1.8999    1.8217   -3.1233 H   0  0  0  0  0  0  0  0  0  0  0  0
    2.8383    0.3407   -3.3977 H   0  0  0  0  0  0  0  0  0  0  0  0
    1.0932    0.3555   -3.7319 H   0  0  0  0  0  0  0  0  0  0  0  0
  1  2  1  0  0  0  0
  2  3  1  0  0  0  0
  2  4  1  0  0  0  0
  2  5  1  0  0  0  0
  5  6  2  0  0  0  0
  5  7  1  0  0  0  0
  7  8  1  0  0  0  0
  7  9  1  0  0  0  0
  9 10  1  0  0  0  0
  9 11  1  0  0  0  0
  9 18  1  0  0  0  0
 11 12  1  0  0  0  0
 11 13  1  0  0  0  0
 11 14  1  0  0  0  0
 14 15  2  0  0  0  0
 14 16  1  0  0  0  0
 16 17  1  0  0  0  0
 18 19  2  0  0  0  0
 18 20  1  0  0  0  0
 20 21  1  0  0  0  0
 20 22  1  0  0  0  0
 22 23  1  0  0  0  0
 22 24  1  0  0  0  0
 22 25  1  0  0  0  0
M  END
$$$$

  -OEChem-01062216063D

 25 24  0     1  0  0  0  0  0999 V2000
   -3.0370   -3.3600    0.7243 H   0  0  0  0  0  0  0  0  0  0  0  0
   -2.9241   -2.2986    0.4854 C   0  0  0  0  0  0  0  0  0  0  0  0
   -3.5351   -1.7158    1.1788 H   0  0  0  0  0  0  0  0  0  0  0  0
   -3.2777   -2.1277   -0.5341 H   0  0  0  0  0  0  0  0  0  0  0  0
   -1.4691   -1.8854    0.6052 C   0  0  0  0  0  0  0  0  0  0  0  0
   -0.6424   -2.7328    0.8950 O   0  0  0  0  0  0  0  0  0  0  0  0
   -1.1355   -0.5685    0.3413 N   0  0  0  0  0  0  0  0  0  0  0  0
   -1.9162    0.0129    0.0425 H   0  0  0  0  0  0  0  0  0  0  0  0
    0.1678    0.1300    0.4121 C   0  0  1  0  0  0  0  0  0  0  0  0
    0.0244    1.0169    1.0393 H   0  0  0  0  0  0  0  0  0  0  0  0
    1.3721   -0.6454    1.0098 C   0  0  0  0  0  0  0  0  0  0  0  0
    1.5134   -1.5946    0.4877 H   0  0  0  0  0  0  0  0  0  0  0  0
    2.2831   -0.0587    0.8650 H   0  0  0  0  0  0  0  0  0  0  0  0
    1.2574   -0.9114    2.5088 C   0  0  0  0  0  0  0  0  0  0  0  0
    0.6299   -0.1353    3.2122 O   0  0  0  0  0  0  0  0  0  0  0  0
    1.9407   -1.9731    2.9958 O   0  0  0  0  0  0  0  0  0  0  0  0
    1.7421   -2.0069    3.9432 H   0  0  0  0  0  0  0  0  0  0  0  0
    0.4934    0.6750   -0.9940 C   0  0  0  0  0  0  0  0  0  0  0  0
   -0.1659    1.6077   -1.4335 O   0  0  0  0  0  0  0  0  0  0  0  0
    1.4421    0.0777   -1.8050 N   0  0  0  0  0  0  0  0  0  0  0  0
    1.8682   -0.7790   -1.4629 H   0  0  0  0  0  0  0  0  0  0  0  0
    1.6934    0.4886   -3.1810 C   0  0  0  0  0  0  0  0  0  0  0  0
    1.9641    1.5490   -3.2212 H   0  0  0  0  0  0  0  0  0  0  0  0
    2.5180   -0.0930   -3.6046 H   0  0  0  0  0  0  0  0  0  0  0  0
    0.8027    0.3290   -3.7975 H   0  0  0  0  0  0  0  0  0  0  0  0
  1  2  1  0  0  0  0
  2  3  1  0  0  0  0
  2  4  1  0  0  0  0
  2  5  1  0  0  0  0
  5  6  2  0  0  0  0
  5  7  1  0  0  0  0
  7  8  1  0  0  0  0
  7  9  1  0  0  0  0
  9 10  1  0  0  0  0
  9 11  1  0  0  0  0
  9 18  1  0  0  0  0
 11 12  1  0  0  0  0
 11 13  1  0  0  0  0
 11 14  1  0  0  0  0
 14 15  2  0  0  0  0
 14 16  1  0  0  0  0
 16 17  1  0  0  0  0
 18 19  2  0  0  0  0
 18 20  1  0  0  0  0
 20 21  1  0  0  0  0
 20 22  1  0  0  0  0
 22 23  1  0  0  0  0
 22 24  1  0  0  0  0
 22 25  1  0  0  0  0
M  END
$$$$

  -OEChem-01062216063D

 25 24  0     1  0  0  0  0  0999 V2000
   -3.0353   -3.3649    0.7821 H   0  0  0  0  0  0  0  0  0  0  0  0
   -2.9325   -2.3047    0.5340 C   0  0  0  0  0  0  0  0  0  0  0  0
   -3.5111   -1.7192    1.2526 H   0  0  0  0  0  0  0  0  0  0  0  0
   -3.3327   -2.1374   -0.4690 H   0  0  0  0  0  0  0  0  0  0  0  0
   -1.4727   -1.8928    0.5859 C   0  0  0  0  0  0  0  0  0  0  0  0
   -0.6319   -2.7435    0.8196 O   0  0  0  0  0  0  0  0  0  0  0  0
   -1.1479   -0.5754    0.3142 N   0  0  0  0  0  0  0  0  0  0  0  0
   -1.9435    0.0145    0.0802 H   0  0  0  0  0  0  0  0  0  0  0  0
    0.1526    0.1286    0.3904 C   0  0  1  0  0  0  0  0  0  0  0  0
    0.0037    1.0155    1.0169 H   0  0  0  0  0  0  0  0  0  0  0  0
    1.3620   -0.6383    0.9866 C   0  0  0  0  0  0  0  0  0  0  0  0
    1.5149   -1.5846    0.4631 H   0  0  0  0  0  0  0  0  0  0  0  0
    2.2675   -0.0430    0.8410 H   0  0  0  0  0  0  0  0  0  0  0  0
    1.2469   -0.9087    2.4847 C   0  0  0  0  0  0  0  0  0  0  0  0
    0.6120   -0.1396    3.1894 O   0  0  0  0  0  0  0  0  0  0  0  0
    1.9339   -1.9690    2.9699 O   0  0  0  0  0  0  0  0  0  0  0  0
    1.7384   -2.0026    3.9179 H   0  0  0  0  0  0  0  0  0  0  0  0
    0.4924    0.6667   -1.0125 C   0  0  0  0  0  0  0  0  0  0  0  0
    0.0417    1.7479   -1.3648 O   0  0  0  0  0  0  0  0  0  0  0  0
    1.2120   -0.0967   -1.9137 N   0  0  0  0  0  0  0  0  0  0  0  0
    1.4522   -1.0427   -1.6284 H   0  0  0  0  0  0  0  0  0  0  0  0
    1.4597    0.3121   -3.2908 C   0  0  0  0  0  0  0  0  0  0  0  0
    1.9728    1.2794   -3.3167 H   0  0  0  0  0  0  0  0  0  0  0  0
    2.0902   -0.4251   -3.7970 H   0  0  0  0  0  0  0  0  0  0  0  0
    0.5164    0.3992   -3.8403 H   0  0  0  0  0  0  0  0  0  0  0  0
  1  2  1  0  0  0  0
  2  3  1  0  0  0  0
  2  4  1  0  0  0  0
  2  5  1  0  0  0  0
  5  6  2  0  0  0  0
  5  7  1  0  0  0  0
  7  8  1  0  0  0  0
  7  9  1  0  0  0  0
  9 10  1  0  0  0  0
  9 11  1  0  0  0  0
  9 18  1  0  0  0  0
 11 12  1  0  0  0  0
 11 13  1  0  0  0  0
 11 14  1  0  0  0  0
 14 15  2  0  0  0  0
 14 16  1  0  0  0  0
 16 17  1  0  0  0  0
 18 19  2  0  0  0  0
 18 20  1  0  0  0  0
 20 21  1  0  0  0  0
 20 22  1  0  0  0  0
 22 23  1  0  0  0  0
 22 24  1  0  0  0  0
 22 25  1  0  0  0  0
M  END
$$$$

  -OEChem-01062216063D

 25 24  0     1  0  0  0  0  0999 V2000
   -3.0281   -3.3751    0.8345 H   0  0  0  0  0  0  0  0  0  0  0  0
   -2.9383   -2.3132    0.5878 C   0  0  0  0  0  0  0  0  0  0  0  0
   -3.4835   -1.7324    1.3358 H   0  0  0  0  0  0  0  0  0  0  0  0
   -3.3850   -2.1415   -0.3945 H   0  0  0  0  0  0  0  0  0  0  0  0
   -1.4783   -1.8995    0.5737 C   0  0  0  0  0  0  0  0  0  0  0  0
   -0.6251   -2.7520    0.7464 O   0  0  0  0  0  0  0  0  0  0  0  0
   -1.1673   -0.5807    0.2932 N   0  0  0  0  0  0  0  0  0  0  0  0
   -1.9765    0.0126    0.1236 H   0  0  0  0  0  0  0  0  0  0  0  0
    0.1292    0.1319    0.3710 C   0  0  1  0  0  0  0  0  0  0  0  0
   -0.0251    1.0177    0.9982 H   0  0  0  0  0  0  0  0  0  0  0  0
    1.3460   -0.6281    0.9592 C   0  0  0  0  0  0  0  0  0  0  0  0
    1.5104   -1.5680    0.4274 H   0  0  0  0  0  0  0  0  0  0  0  0
    2.2449   -0.0225    0.8148 H   0  0  0  0  0  0  0  0  0  0  0  0
    1.2362   -0.9078    2.4557 C   0  0  0  0  0  0  0  0  0  0  0  0
    0.5962   -0.1473    3.1653 O   0  0  0  0  0  0  0  0  0  0  0  0
    1.9263   -1.9692    2.9335 O   0  0  0  0  0  0  0  0  0  0  0  0
    1.7356   -2.0073    3.8821 H   0  0  0  0  0  0  0  0  0  0  0  0
    0.4784    0.6646   -1.0303 C   0  0  0  0  0  0  0  0  0  0  0  0
    0.2917    1.8428   -1.2989 O   0  0  0  0  0  0  0  0  0  0  0  0
    0.9287   -0.1995   -2.0110 N   0  0  0  0  0  0  0  0  0  0  0  0
    0.9723   -1.1868   -1.7697 H   0  0  0  0  0  0  0  0  0  0  0  0
    1.1908    0.2099   -3.3850 C   0  0  0  0  0  0  0  0  0  0  0  0
    1.9347    1.0133   -3.4108 H   0  0  0  0  0  0  0  0  0  0  0  0
    1.5763   -0.6346   -3.9642 H   0  0  0  0  0  0  0  0  0  0  0  0
    0.2710    0.5664   -3.8602 H   0  0  0  0  0  0  0  0  0  0  0  0
  1  2  1  0  0  0  0
  2  3  1  0  0  0  0
  2  4  1  0  0  0  0
  2  5  1  0  0  0  0
  5  6  2  0  0  0  0
  5  7  1  0  0  0  0
  7  8  1  0  0  0  0
  7  9  1  0  0  0  0
  9 10  1  0  0  0  0
  9 11  1  0  0  0  0
  9 18  1  0  0  0  0
 11 12  1  0  0  0  0
 11 13  1  0  0  0  0
 11 14  1  0  0  0  0
 14 15  2  0  0  0  0
 14 16  1  0  0  0  0
 16 17  1  0  0  0  0
 18 19  2  0  0  0  0
 18 20  1  0  0  0  0
 20 21  1  0  0  0  0
 20 22  1  0  0  0  0
 22 23  1  0  0  0  0
 22 24  1  0  0  0  0
 22 25  1  0  0  0  0
M  END
$$$$

  -OEChem-01062216063D

 25 24  0     1  0  0  0  0  0999 V2000
   -3.0206   -3.3956    0.8978 H   0  0  0  0  0  0  0  0  0  0  0  0
   -2.9488   -2.3292    0.6653 C   0  0  0  0  0  0  0  0  0  0  0  0
   -3.4478   -1.7640    1.4562 H   0  0  0  0  0  0  0  0  0  0  0  0
   -3.4558   -2.1412   -0.2841 H   0  0  0  0  0  0  0  0  0  0  0  0
   -1.4936   -1.9104    0.5686 C   0  0  0  0  0  0  0  0  0  0  0  0
   -0.6290   -2.7620    0.6735 O   0  0  0  0  0  0  0  0  0  0  0  0
   -1.2019   -0.5892    0.2787 N   0  0  0  0  0  0  0  0  0  0  0  0
   -2.0232    0.0014    0.1715 H   0  0  0  0  0  0  0  0  0  0  0  0
    0.0888    0.1376    0.3501 C   0  0  1  0  0  0  0  0  0  0  0  0
   -0.0687    1.0210    0.9799 H   0  0  0  0  0  0  0  0  0  0  0  0
    1.3170   -0.6144    0.9212 C   0  0  0  0  0  0  0  0  0  0  0  0
    1.4880   -1.5461    0.3770 H   0  0  0  0  0  0  0  0  0  0  0  0
    2.2078    0.0030    0.7752 H   0  0  0  0  0  0  0  0  0  0  0  0
    1.2225   -0.9069    2.4160 C   0  0  0  0  0  0  0  0  0  0  0  0
    0.5808   -0.1582    3.1365 O   0  0  0  0  0  0  0  0  0  0  0  0
    1.9245   -1.9666    2.8801 O   0  0  0  0  0  0  0  0  0  0  0  0
    1.7473   -2.0101    3.8311 H   0  0  0  0  0  0  0  0  0  0  0  0
    0.4393    0.6695   -1.0505 C   0  0  0  0  0  0  0  0  0  0  0  0
    0.5497    1.8717   -1.2430 O   0  0  0  0  0  0  0  0  0  0  0  0
    0.5987   -0.2145   -2.1011 N   0  0  0  0  0  0  0  0  0  0  0  0
    0.4852   -1.2038   -1.8915 H   0  0  0  0  0  0  0  0  0  0  0  0
    0.9281    0.1967   -3.4597 C   0  0  0  0  0  0  0  0  0  0  0  0
    1.8814    0.7354   -3.4761 H   0  0  0  0  0  0  0  0  0  0  0  0
    1.0150   -0.6794   -4.1096 H   0  0  0  0  0  0  0  0  0  0  0  0
    0.1470    0.8502   -3.8619 H   0  0  0  0  0  0  0  0  0  0  0  0
  1  2  1  0  0  0  0
  2  3  1  0  0  0  0
  2  4  1  0  0  0  0
  2  5  1  0  0  0  0
  5  6  2  0  0  0  0
  5  7  1  0  0  0  0
  7  8  1  0  0  0  0
  7  9  1  0  0  0  0
  9 10  1  0  0  0  0
  9 11  1  0  0  0  0
  9 18  1  0  0  0  0
 11 12  1  0  0  0  0
 11 13  1  0  0  0  0
 11 14  1  0  0  0  0
 14 15  2  0  0  0  0
 14 16  1  0  0  0  0
 16 17  1  0  0  0  0
 18 19  2  0  0  0  0
 18 20  1  0  0  0  0
 20 21  1  0  0  0  0
 20 22  1  0  0  0  0
 22 23  1  0  0  0  0
 22 24  1  0  0  0  0
 22 25  1  0  0  0  0
M  END
$$$$

  -OEChem-01062216063D

 25 24  0     1  0  0  0  0  0999 V2000
   -3.0160   -3.4078    0.9777 H   0  0  0  0  0  0  0  0  0  0  0  0
   -2.9588   -2.3451    0.7245 C   0  0  0  0  0  0  0  0  0  0  0  0
   -3.4354   -1.7698    1.5220 H   0  0  0  0  0  0  0  0  0  0  0  0
   -3.4981   -2.1767   -0.2107 H   0  0  0  0  0  0  0  0  0  0  0  0
   -1.5099   -1.9198    0.5746 C   0  0  0  0  0  0  0  0  0  0  0  0
   -0.6400   -2.7689    0.6437 O   0  0  0  0  0  0  0  0  0  0  0  0
   -1.2328   -0.5961    0.2802 N   0  0  0  0  0  0  0  0  0  0  0  0
   -2.0609   -0.0093    0.2135 H   0  0  0  0  0  0  0  0  0  0  0  0
    0.0544    0.1418    0.3385 C   0  0  1  0  0  0  0  0  0  0  0  0
   -0.1019    1.0216    0.9733 H   0  0  0  0  0  0  0  0  0  0  0  0
    1.2922   -0.6071    0.8917 C   0  0  0  0  0  0  0  0  0  0  0  0
    1.4631   -1.5332    0.3380 H   0  0  0  0  0  0  0  0  0  0  0  0
    2.1782    0.0164    0.7408 H   0  0  0  0  0  0  0  0  0  0  0  0
    1.2166   -0.9081    2.3857 C   0  0  0  0  0  0  0  0  0  0  0  0
    0.5795   -0.1661    3.1174 O   0  0  0  0  0  0  0  0  0  0  0  0
    1.9285   -1.9672    2.8363 O   0  0  0  0  0  0  0  0  0  0  0  0
    1.7649   -2.0148    3.7894 H   0  0  0  0  0  0  0  0  0  0  0  0
    0.4027    0.6831   -1.0601 C   0  0  0  0  0  0  0  0  0  0  0  0
    0.8028    1.8306   -1.1930 O   0  0  0  0  0  0  0  0  0  0  0  0
    0.2665   -0.1305   -2.1691 N   0  0  0  0  0  0  0  0  0  0  0  0
    0.0060   -1.0984   -1.9947 H   0  0  0  0  0  0  0  0  0  0  0  0
    0.6506    0.2747   -3.5153 C   0  0  0  0  0  0  0  0  0  0  0  0
    1.7167    0.5227   -3.5508 H   0  0  0  0  0  0  0  0  0  0  0  0
    0.4600   -0.5371   -4.2239 H   0  0  0  0  0  0  0  0  0  0  0  0
    0.0745    1.1510   -3.8306 H   0  0  0  0  0  0  0  0  0  0  0  0
  1  2  1  0  0  0  0
  2  3  1  0  0  0  0
  2  4  1  0  0  0  0
  2  5  1  0  0  0  0
  5  6  2  0  0  0  0
  5  7  1  0  0  0  0
  7  8  1  0  0  0  0
  7  9  1  0  0  0  0
  9 10  1  0  0  0  0
  9 11  1  0  0  0  0
  9 18  1  0  0  0  0
 11 12  1  0  0  0  0
 11 13  1  0  0  0  0
 11 14  1  0  0  0  0
 14 15  2  0  0  0  0
 14 16  1  0  0  0  0
 16 17  1  0  0  0  0
 18 19  2  0  0  0  0
 18 20  1  0  0  0  0
 20 21  1  0  0  0  0
 20 22  1  0  0  0  0
 22 23  1  0  0  0  0
 22 24  1  0  0  0  0
 22 25  1  0  0  0  0
M  END
$$$$

  -OEChem-01062216063D

 25 24  0     1  0  0  0  0  0999 V2000
   -3.0113   -3.4155    1.0195 H   0  0  0  0  0  0  0  0  0  0  0  0
   -2.9599   -2.3558    0.7537 C   0  0  0  0  0  0  0  0  0  0  0  0
   -3.4306   -1.7732    1.5494 H   0  0  0  0  0  0  0  0  0  0  0  0
   -3.5090   -2.1996   -0.1779 H   0  0  0  0  0  0  0  0  0  0  0  0
   -1.5136   -1.9285    0.5837 C   0  0  0  0  0  0  0  0  0  0  0  0
   -0.6429   -2.7774    0.6397 O   0  0  0  0  0  0  0  0  0  0  0  0
   -1.2440   -0.6030    0.2882 N   0  0  0  0  0  0  0  0  0  0  0  0
   -2.0754   -0.0188    0.2429 H   0  0  0  0  0  0  0  0  0  0  0  0
    0.0414    0.1424    0.3349 C   0  0  1  0  0  0  0  0  0  0  0  0
   -0.1135    1.0208    0.9717 H   0  0  0  0  0  0  0  0  0  0  0  0
    1.2822   -0.6075    0.8812 C   0  0  0  0  0  0  0  0  0  0  0  0
    1.4490   -1.5329    0.3253 H   0  0  0  0  0  0  0  0  0  0  0  0
    2.1693    0.0134    0.7259 H   0  0  0  0  0  0  0  0  0  0  0  0
    1.2143   -0.9076    2.3757 C   0  0  0  0  0  0  0  0  0  0  0  0
    0.5815   -0.1641    3.1099 O   0  0  0  0  0  0  0  0  0  0  0  0
    1.9246   -1.9687    2.8239 O   0  0  0  0  0  0  0  0  0  0  0  0
    1.7652   -2.0145    3.7777 H   0  0  0  0  0  0  0  0  0  0  0  0
    0.3893    0.6949   -1.0615 C   0  0  0  0  0  0  0  0  0  0  0  0
    1.0226    1.7357   -1.1664 O   0  0  0  0  0  0  0  0  0  0  0  0
   -0.0216    0.0274   -2.2003 N   0  0  0  0  0  0  0  0  0  0  0  0
   -0.4334   -0.8916   -2.0587 H   0  0  0  0  0  0  0  0  0  0  0  0
    0.3578    0.4365   -3.5468 C   0  0  0  0  0  0  0  0  0  0  0  0
    1.4467    0.4134   -3.6612 H   0  0  0  0  0  0  0  0  0  0  0  0
   -0.0830   -0.2385   -4.2867 H   0  0  0  0  0  0  0  0  0  0  0  0
    0.0033    1.4521   -3.7523 H   0  0  0  0  0  0  0  0  0  0  0  0
  1  2  1  0  0  0  0
  2  3  1  0  0  0  0
  2  4  1  0  0  0  0
  2  5  1  0  0  0  0
  5  6  2  0  0  0  0
  5  7  1  0  0  0  0
  7  8  1  0  0  0  0
  7  9  1  0  0  0  0
  9 10  1  0  0  0  0
  9 11  1  0  0  0  0
  9 18  1  0  0  0  0
 11 12  1  0  0  0  0
 11 13  1  0  0  0  0
 11 14  1  0  0  0  0
 14 15  2  0  0  0  0
 14 16  1  0  0  0  0
 16 17  1  0  0  0  0
 18 19  2  0  0  0  0
 18 20  1  0  0  0  0
 20 21  1  0  0  0  0
 20 22  1  0  0  0  0
 22 23  1  0  0  0  0
 22 24  1  0  0  0  0
 22 25  1  0  0  0  0
M  END
$$$$

  -OEChem-01062216063D

 25 24  0     1  0  0  0  0  0999 V2000
   -3.0064   -3.4137    1.0479 H   0  0  0  0  0  0  0  0  0  0  0  0
   -2.9541   -2.3598    0.7598 C   0  0  0  0  0  0  0  0  0  0  0  0
   -3.4267   -1.7603    1.5419 H   0  0  0  0  0  0  0  0  0  0  0  0
   -3.5004   -2.2235   -0.1767 H   0  0  0  0  0  0  0  0  0  0  0  0
   -1.5076   -1.9361    0.5849 C   0  0  0  0  0  0  0  0  0  0  0  0
   -0.6400   -2.7874    0.6432 O   0  0  0  0  0  0  0  0  0  0  0  0
   -1.2398   -0.6093    0.2911 N   0  0  0  0  0  0  0  0  0  0  0  0
   -2.0716   -0.0246    0.2683 H   0  0  0  0  0  0  0  0  0  0  0  0
    0.0458    0.1385    0.3325 C   0  0  1  0  0  0  0  0  0  0  0  0
   -0.1085    1.0163    0.9699 H   0  0  0  0  0  0  0  0  0  0  0  0
    1.2827   -0.6163    0.8844 C   0  0  0  0  0  0  0  0  0  0  0  0
    1.4470   -1.5438    0.3312 H   0  0  0  0  0  0  0  0  0  0  0  0
    2.1744   -0.0017    0.7314 H   0  0  0  0  0  0  0  0  0  0  0  0
    1.2109   -0.9097    2.3800 C   0  0  0  0  0  0  0  0  0  0  0  0
    0.5806   -0.1594    3.1100 O   0  0  0  0  0  0  0  0  0  0  0  0
    1.9153   -1.9725    2.8342 O   0  0  0  0  0  0  0  0  0  0  0  0
    1.7569   -2.0129    3.7883 H   0  0  0  0  0  0  0  0  0  0  0  0
    0.3947    0.7002   -1.0632 C   0  0  0  0  0  0  0  0  0  0  0  0
    1.2156    1.6003   -1.1729 O   0  0  0  0  0  0  0  0  0  0  0  0
   -0.2546    0.2370   -2.1931 N   0  0  0  0  0  0  0  0  0  0  0  0
   -0.8221   -0.5970   -2.0713 H   0  0  0  0  0  0  0  0  0  0  0  0
    0.0802    0.6734   -3.5432 C   0  0  0  0  0  0  0  0  0  0  0  0
    1.1245    0.4380   -3.7743 H   0  0  0  0  0  0  0  0  0  0  0  0
   -0.5589    0.1681   -4.2735 H   0  0  0  0  0  0  0  0  0  0  0  0
   -0.0684    1.7537   -3.6448 H   0  0  0  0  0  0  0  0  0  0  0  0
  1  2  1  0  0  0  0
  2  3  1  0  0  0  0
  2  4  1  0  0  0  0
  2  5  1  0  0  0  0
  5  6  2  0  0  0  0
  5  7  1  0  0  0  0
  7  8  1  0  0  0  0
  7  9  1  0  0  0  0
  9 10  1  0  0  0  0
  9 11  1  0  0  0  0
  9 18  1  0  0  0  0
 11 12  1  0  0  0  0
 11 13  1  0  0  0  0
 11 14  1  0  0  0  0
 14 15  2  0  0  0  0
 14 16  1  0  0  0  0
 16 17  1  0  0  0  0
 18 19  2  0  0  0  0
 18 20  1  0  0  0  0
 20 21  1  0  0  0  0
 20 22  1  0  0  0  0
 22 23  1  0  0  0  0
 22 24  1  0  0  0  0
 22 25  1  0  0  0  0
M  END
$$$$

  -OEChem-01062216063D

 25 24  0     1  0  0  0  0  0999 V2000
   -2.9951   -3.4216    1.0456 H   0  0  0  0  0  0  0  0  0  0  0  0
   -2.9440   -2.3661    0.7626 C   0  0  0  0  0  0  0  0  0  0  0  0
   -3.4079   -1.7704    1.5525 H   0  0  0  0  0  0  0  0  0  0  0  0
   -3.4995   -2.2245   -0.1675 H   0  0  0  0  0  0  0  0  0  0  0  0
   -1.4982   -1.9441    0.5755 C   0  0  0  0  0  0  0  0  0  0  0  0
   -0.6332   -2.7981    0.6288 O   0  0  0  0  0  0  0  0  0  0  0  0
   -1.2308   -0.6154    0.2863 N   0  0  0  0  0  0  0  0  0  0  0  0
   -2.0614   -0.0288    0.2934 H   0  0  0  0  0  0  0  0  0  0  0  0
    0.0569    0.1314    0.3242 C   0  0  1  0  0  0  0  0  0  0  0  0
   -0.0971    1.0100    0.9598 H   0  0  0  0  0  0  0  0  0  0  0  0
    1.2878   -0.6282    0.8888 C   0  0  0  0  0  0  0  0  0  0  0  0
    1.4511   -1.5597    0.3424 H   0  0  0  0  0  0  0  0  0  0  0  0
    2.1859   -0.0222    0.7402 H   0  0  0  0  0  0  0  0  0  0  0  0
    1.2043   -0.9076    2.3866 C   0  0  0  0  0  0  0  0  0  0  0  0
    0.5746   -0.1459    3.1053 O   0  0  0  0  0  0  0  0  0  0  0  0
    1.8963   -1.9717    2.8559 O   0  0  0  0  0  0  0  0  0  0  0  0
    1.7321   -2.0005    3.8094 H   0  0  0  0  0  0  0  0  0  0  0  0
    0.4035    0.7021   -1.0717 C   0  0  0  0  0  0  0  0  0  0  0  0
    1.3712    1.4368   -1.2149 O   0  0  0  0  0  0  0  0  0  0  0  0
   -0.4357    0.4897   -2.1510 N   0  0  0  0  0  0  0  0  0  0  0  0
   -1.1384   -0.2335   -2.0316 H   0  0  0  0  0  0  0  0  0  0  0  0
   -0.1394    0.9672   -3.4966 C   0  0  0  0  0  0  0  0  0  0  0  0
    0.7953    0.5284   -3.8616 H   0  0  0  0  0  0  0  0  0  0  0  0
   -0.9450    0.6895   -4.1831 H   0  0  0  0  0  0  0  0  0  0  0  0
   -0.0424    2.0582   -3.5035 H   0  0  0  0  0  0  0  0  0  0  0  0
  1  2  1  0  0  0  0
  2  3  1  0  0  0  0
  2  4  1  0  0  0  0
  2  5  1  0  0  0  0
  5  6  2  0  0  0  0
  5  7  1  0  0  0  0
  7  8  1  0  0  0  0
  7  9  1  0  0  0  0
  9 10  1  0  0  0  0
  9 11  1  0  0  0  0
  9 18  1  0  0  0  0
 11 12  1  0  0  0  0
 11 13  1  0  0  0  0
 11 14  1  0  0  0  0
 14 15  2  0  0  0  0
 14 16  1  0  0  0  0
 16 17  1  0  0  0  0
 18 19  2  0  0  0  0
 18 20  1  0  0  0  0
 20 21  1  0  0  0  0
 20 22  1  0  0  0  0
 22 23  1  0  0  0  0
 22 24  1  0  0  0  0
 22 25  1  0  0  0  0
M  END
$$$$

  -OEChem-01062216063D

 25 24  0     1  0  0  0  0  0999 V2000
   -2.9821   -3.4237    1.0269 H   0  0  0  0  0  0  0  0  0  0  0  0
   -2.9295   -2.3665    0.7503 C   0  0  0  0  0  0  0  0  0  0  0  0
   -3.3880   -1.7746    1.5462 H   0  0  0  0  0  0  0  0  0  0  0  0
   -3.4894   -2.2179   -0.1761 H   0  0  0  0  0  0  0  0  0  0  0  0
   -1.4834   -1.9476    0.5576 C   0  0  0  0  0  0  0  0  0  0  0  0
   -0.6215   -2.8046    0.6101 O   0  0  0  0  0  0  0  0  0  0  0  0
   -1.2157   -0.6169    0.2753 N   0  0  0  0  0  0  0  0  0  0  0  0
   -2.0446   -0.0297    0.3128 H   0  0  0  0  0  0  0  0  0  0  0  0
    0.0741    0.1270    0.3162 C   0  0  1  0  0  0  0  0  0  0  0  0
   -0.0800    1.0066    0.9501 H   0  0  0  0  0  0  0  0  0  0  0  0
    1.2962   -0.6377    0.8972 C   0  0  0  0  0  0  0  0  0  0  0  0
    1.4614   -1.5721    0.3566 H   0  0  0  0  0  0  0  0  0  0  0  0
    2.2006   -0.0395    0.7578 H   0  0  0  0  0  0  0  0  0  0  0  0
    1.1971   -0.9059    2.3960 C   0  0  0  0  0  0  0  0  0  0  0  0
    0.5658   -0.1345    3.1031 O   0  0  0  0  0  0  0  0  0  0  0  0
    1.8753   -1.9726    2.8796 O   0  0  0  0  0  0  0  0  0  0  0  0
    1.7004   -1.9950    3.8313 H   0  0  0  0  0  0  0  0  0  0  0  0
    0.4155    0.7031   -1.0818 C   0  0  0  0  0  0  0  0  0  0  0  0
    1.4979    1.2322   -1.2960 O   0  0  0  0  0  0  0  0  0  0  0  0
   -0.5516    0.7674   -2.0702 N   0  0  0  0  0  0  0  0  0  0  0  0
   -1.3805    0.2015   -1.9212 H   0  0  0  0  0  0  0  0  0  0  0  0
   -0.2908    1.2885   -3.4074 C   0  0  0  0  0  0  0  0  0  0  0  0
    0.4802    0.6927   -3.9070 H   0  0  0  0  0  0  0  0  0  0  0  0
   -1.2024    1.2552   -4.0117 H   0  0  0  0  0  0  0  0  0  0  0  0
    0.0479    2.3287   -3.3541 H   0  0  0  0  0  0  0  0  0  0  0  0
  1  2  1  0  0  0  0
  2  3  1  0  0  0  0
  2  4  1  0  0  0  0
  2  5  1  0  0  0  0
  5  6  2  0  0  0  0
  5  7  1  0  0  0  0
  7  8  1  0  0  0  0
  7  9  1  0  0  0  0
  9 10  1  0  0  0  0
  9 11  1  0  0  0  0
  9 18  1  0  0  0  0
 11 12  1  0  0  0  0
 11 13  1  0  0  0  0
 11 14  1  0  0  0  0
 14 15  2  0  0  0  0
 14 16  1  0  0  0  0
 16 17  1  0  0  0  0
 18 19  2  0  0  0  0
 18 20  1  0  0  0  0
 20 21  1  0  0  0  0
 20 22  1  0  0  0  0
 22 23  1  0  0  0  0
 22 24  1  0  0  0  0
 22 25  1  0  0  0  0
M  END
$$$$

  -OEChem-01062216063D

 25 24  0     1  0  0  0  0  0999 V2000
   -2.9787   -3.4255    0.9720 H   0  0  0  0  0  0  0  0  0  0  0  0
   -2.9208   -2.3628    0.7186 C   0  0  0  0  0  0  0  0  0  0  0  0
   -3.3817   -1.7863    1.5243 H   0  0  0  0  0  0  0  0  0  0  0  0
   -3.4743   -2.1926   -0.2079 H   0  0  0  0  0  0  0  0  0  0  0  0
   -1.4723   -1.9452    0.5436 C   0  0  0  0  0  0  0  0  0  0  0  0
   -0.6123   -2.8030    0.6126 O   0  0  0  0  0  0  0  0  0  0  0  0
   -1.2021   -0.6132    0.2693 N   0  0  0  0  0  0  0  0  0  0  0  0
   -2.0310   -0.0277    0.3145 H   0  0  0  0  0  0  0  0  0  0  0  0
    0.0894    0.1267    0.3149 C   0  0  1  0  0  0  0  0  0  0  0  0
   -0.0644    1.0060    0.9489 H   0  0  0  0  0  0  0  0  0  0  0  0
    1.3065   -0.6407    0.9061 C   0  0  0  0  0  0  0  0  0  0  0  0
    1.4737   -1.5761    0.3675 H   0  0  0  0  0  0  0  0  0  0  0  0
    2.2129   -0.0444    0.7730 H   0  0  0  0  0  0  0  0  0  0  0  0
    1.1981   -0.9040    2.4050 C   0  0  0  0  0  0  0  0  0  0  0  0
    0.5651   -0.1278    3.1058 O   0  0  0  0  0  0  0  0  0  0  0  0
    1.8702   -1.9710    2.8965 O   0  0  0  0  0  0  0  0  0  0  0  0
    1.6896   -1.9906    3.8470 H   0  0  0  0  0  0  0  0  0  0  0  0
    0.4228    0.7065   -1.0854 C   0  0  0  0  0  0  0  0  0  0  0  0
    1.5702    0.9873   -1.4058 O   0  0  0  0  0  0  0  0  0  0  0  0
   -0.5968    1.0609   -1.9529 N   0  0  0  0  0  0  0  0  0  0  0  0
   -1.5211    0.7067   -1.7343 H   0  0  0  0  0  0  0  0  0  0  0  0
   -0.3551    1.6068   -3.2841 C   0  0  0  0  0  0  0  0  0  0  0  0
    0.1985    0.8887   -3.8983 H   0  0  0  0  0  0  0  0  0  0  0  0
   -1.3044    1.8296   -3.7804 H   0  0  0  0  0  0  0  0  0  0  0  0
    0.2244    2.5339   -3.2189 H   0  0  0  0  0  0  0  0  0  0  0  0
  1  2  1  0  0  0  0
  2  3  1  0  0  0  0
  2  4  1  0  0  0  0
  2  5  1  0  0  0  0
  5  6  2  0  0  0  0
  5  7  1  0  0  0  0
  7  8  1  0  0  0  0
  7  9  1  0  0  0  0
  9 10  1  0  0  0  0
  9 11  1  0  0  0  0
  9 18  1  0  0  0  0
 11 12  1  0  0  0  0
 11 13  1  0  0  0  0
 11 14  1  0  0  0  0
 14 15  2  0  0  0  0
 14 16  1  0  0  0  0
 16 17  1  0  0  0  0
 18 19  2  0  0  0  0
 18 20  1  0  0  0  0
 20 21  1  0  0  0  0
 20 22  1  0  0  0  0
 22 23  1  0  0  0  0
 22 24  1  0  0  0  0
 22 25  1  0  0  0  0
M  END
$$$$

  -OEChem-01062216063D

 25 24  0     1  0  0  0  0  0999 V2000
   -3.0222   -3.4091    0.8986 H   0  0  0  0  0  0  0  0  0  0  0  0
   -2.9394   -2.3539    0.6225 C   0  0  0  0  0  0  0  0  0  0  0  0
   -3.4867   -1.7570    1.3559 H   0  0  0  0  0  0  0  0  0  0  0  0
   -3.3888   -2.2134   -0.3634 H   0  0  0  0  0  0  0  0  0  0  0  0
   -1.4811   -1.9333    0.5933 C   0  0  0  0  0  0  0  0  0  0  0  0
   -0.6339   -2.7802    0.8074 O   0  0  0  0  0  0  0  0  0  0  0  0
   -1.1897   -0.6082    0.3065 N   0  0  0  0  0  0  0  0  0  0  0  0
   -2.0175   -0.0301    0.2077 H   0  0  0  0  0  0  0  0  0  0  0  0
    0.1089    0.1185    0.3294 C   0  0  1  0  0  0  0  0  0  0  0  0
   -0.0278    1.0037    0.9586 H   0  0  0  0  0  0  0  0  0  0  0  0
    1.3285   -0.6492    0.9129 C   0  0  0  0  0  0  0  0  0  0  0  0
    1.4748   -1.5942    0.3841 H   0  0  0  0  0  0  0  0  0  0  0  0
    2.2371   -0.0621    0.7542 H   0  0  0  0  0  0  0  0  0  0  0  0
    1.2429   -0.8961    2.4160 C   0  0  0  0  0  0  0  0  0  0  0  0
    0.6253   -0.1080    3.1177 O   0  0  0  0  0  0  0  0  0  0  0  0
    1.9265   -1.9550    2.9097 O   0  0  0  0  0  0  0  0  0  0  0  0
    1.7535   -1.9685    3.8616 H   0  0  0  0  0  0  0  0  0  0  0  0
    0.4200    0.6797   -1.0838 C   0  0  0  0  0  0  0  0  0  0  0  0
    1.5448    0.6449   -1.5649 O   0  0  0  0  0  0  0  0  0  0  0  0
   -0.5723    1.3184   -1.8095 N   0  0  0  0  0  0  0  0  0  0  0  0
   -1.5018    1.3552   -1.4083 H   0  0  0  0  0  0  0  0  0  0  0  0
   -0.3506    1.9046   -3.1268 C   0  0  0  0  0  0  0  0  0  0  0  0
    0.0096    1.1451   -3.8289 H   0  0  0  0  0  0  0  0  0  0  0  0
   -1.2833    2.3219   -3.5186 H   0  0  0  0  0  0  0  0  0  0  0  0
    0.3907    2.7086   -3.0681 H   0  0  0  0  0  0  0  0  0  0  0  0
  1  2  1  0  0  0  0
  2  3  1  0  0  0  0
  2  4  1  0  0  0  0
  2  5  1  0  0  0  0
  5  6  2  0  0  0  0
  5  7  1  0  0  0  0
  7  8  1  0  0  0  0
  7  9  1  0  0  0  0
  9 10  1  0  0  0  0
  9 11  1  0  0  0  0
  9 18  1  0  0  0  0
 11 12  1  0  0  0  0
 11 13  1  0  0  0  0
 11 14  1  0  0  0  0
 14 15  2  0  0  0  0
 14 16  1  0  0  0  0
 16 17  1  0  0  0  0
 18 19  2  0  0  0  0
 18 20  1  0  0  0  0
 20 21  1  0  0  0  0
 20 22  1  0  0  0  0
 22 23  1  0  0  0  0
 22 24  1  0  0  0  0
 22 25  1  0  0  0  0
M  END
$$$$

  -OEChem-01062216063D

 25 24  0     1  0  0  0  0  0999 V2000
   -3.0437   -3.4030    0.7777 H   0  0  0  0  0  0  0  0  0  0  0  0
   -2.9484   -2.3428    0.5255 C   0  0  0  0  0  0  0  0  0  0  0  0
   -3.5818   -1.7633    1.2014 H   0  0  0  0  0  0  0  0  0  0  0  0
   -3.2896   -2.1960   -0.5021 H   0  0  0  0  0  0  0  0  0  0  0  0
   -1.5031   -1.9000    0.6616 C   0  0  0  0  0  0  0  0  0  0  0  0
   -0.6837   -2.7189    1.0350 O   0  0  0  0  0  0  0  0  0  0  0  0
   -1.1925   -0.5835    0.3572 N   0  0  0  0  0  0  0  0  0  0  0  0
   -1.9905   -0.0423    0.0402 H   0  0  0  0  0  0  0  0  0  0  0  0
    0.1167    0.1208    0.3528 C   0  0  1  0  0  0  0  0  0  0  0  0
    0.0045    1.0118    0.9785 H   0  0  0  0  0  0  0  0  0  0  0  0
    1.3422   -0.6495    0.9160 C   0  0  0  0  0  0  0  0  0  0  0  0
    1.4550   -1.6056    0.3981 H   0  0  0  0  0  0  0  0  0  0  0  0
    2.2519   -0.0767    0.7174 H   0  0  0  0  0  0  0  0  0  0  0  0
    1.2925   -0.8834    2.4234 C   0  0  0  0  0  0  0  0  0  0  0  0
    0.6977   -0.0839    3.1321 O   0  0  0  0  0  0  0  0  0  0  0  0
    1.9882   -1.9371    2.9113 O   0  0  0  0  0  0  0  0  0  0  0  0
    1.8247   -1.9482    3.8648 H   0  0  0  0  0  0  0  0  0  0  0  0
    0.3993    0.6565   -1.0724 C   0  0  0  0  0  0  0  0  0  0  0  0
    1.3835    0.3176   -1.7155 O   0  0  0  0  0  0  0  0  0  0  0  0
   -0.4822    1.5577   -1.6464 N   0  0  0  0  0  0  0  0  0  0  0  0
   -1.2307    1.9184   -1.0644 H   0  0  0  0  0  0  0  0  0  0  0  0
   -0.2640    2.1589   -2.9579 C   0  0  0  0  0  0  0  0  0  0  0  0
   -0.1716    1.3831   -3.7257 H   0  0  0  0  0  0  0  0  0  0  0  0
   -1.1056    2.8061   -3.2231 H   0  0  0  0  0  0  0  0  0  0  0  0
    0.6502    2.7620   -2.9557 H   0  0  0  0  0  0  0  0  0  0  0  0
  1  2  1  0  0  0  0
  2  3  1  0  0  0  0
  2  4  1  0  0  0  0
  2  5  1  0  0  0  0
  5  6  2  0  0  0  0
  5  7  1  0  0  0  0
  7  8  1  0  0  0  0
  7  9  1  0  0  0  0
  9 10  1  0  0  0  0
  9 11  1  0  0  0  0
  9 18  1  0  0  0  0
 11 12  1  0  0  0  0
 11 13  1  0  0  0  0
 11 14  1  0  0  0  0
 14 15  2  0  0  0  0
 14 16  1  0  0  0  0
 16 17  1  0  0  0  0
 18 19  2  0  0  0  0
 18 20  1  0  0  0  0
 20 21  1  0  0  0  0
 20 22  1  0  0  0  0
 22 23  1  0  0  0  0
 22 24  1  0  0  0  0
 22 25  1  0  0  0  0
M  END
$$$$

  -OEChem-01062216063D

 25 24  0     1  0  0  0  0  0999 V2000
   -3.0472   -3.3923    0.7526 H   0  0  0  0  0  0  0  0  0  0  0  0
   -2.9489   -2.3338    0.4947 C   0  0  0  0  0  0  0  0  0  0  0  0
   -3.6132   -1.7528    1.1385 H   0  0  0  0  0  0  0  0  0  0  0  0
   -3.2483   -2.1986   -0.5473 H   0  0  0  0  0  0  0  0  0  0  0  0
   -1.5134   -1.8793    0.6853 C   0  0  0  0  0  0  0  0  0  0  0  0
   -0.7051   -2.6867    1.1057 O   0  0  0  0  0  0  0  0  0  0  0  0
   -1.2000   -0.5639    0.3797 N   0  0  0  0  0  0  0  0  0  0  0  0
   -1.9846   -0.0359    0.0099 H   0  0  0  0  0  0  0  0  0  0  0  0
    0.1106    0.1346    0.3720 C   0  0  1  0  0  0  0  0  0  0  0  0
    0.0058    1.0214    1.0049 H   0  0  0  0  0  0  0  0  0  0  0  0
    1.3419   -0.6391    0.9148 C   0  0  0  0  0  0  0  0  0  0  0  0
    1.4423   -1.5934    0.3904 H   0  0  0  0  0  0  0  0  0  0  0  0
    2.2493   -0.0673    0.7036 H   0  0  0  0  0  0  0  0  0  0  0  0
    1.3108   -0.8879    2.4207 C   0  0  0  0  0  0  0  0  0  0  0  0
    0.7238   -0.0954    3.1437 O   0  0  0  0  0  0  0  0  0  0  0  0
    2.0185   -1.9420    2.8906 O   0  0  0  0  0  0  0  0  0  0  0  0
    1.8636   -1.9651    3.8455 H   0  0  0  0  0  0  0  0  0  0  0  0
    0.3879    0.6668   -1.0531 C   0  0  0  0  0  0  0  0  0  0  0  0
    1.1864    0.1247   -1.8048 O   0  0  0  0  0  0  0  0  0  0  0  0
   -0.2945    1.7834   -1.5052 N   0  0  0  0  0  0  0  0  0  0  0  0
   -0.8911    2.2716   -0.8446 H   0  0  0  0  0  0  0  0  0  0  0  0
   -0.0651    2.3791   -2.8172 C   0  0  0  0  0  0  0  0  0  0  0  0
   -0.2395    1.6430   -3.6094 H   0  0  0  0  0  0  0  0  0  0  0  0
   -0.7452    3.2216   -2.9754 H   0  0  0  0  0  0  0  0  0  0  0  0
    0.9643    2.7439   -2.8975 H   0  0  0  0  0  0  0  0  0  0  0  0
  1  2  1  0  0  0  0
  2  3  1  0  0  0  0
  2  4  1  0  0  0  0
  2  5  1  0  0  0  0
  5  6  2  0  0  0  0
  5  7  1  0  0  0  0
  7  8  1  0  0  0  0
  7  9  1  0  0  0  0
  9 10  1  0  0  0  0
  9 11  1  0  0  0  0
  9 18  1  0  0  0  0
 11 12  1  0  0  0  0
 11 13  1  0  0  0  0
 11 14  1  0  0  0  0
 14 15  2  0  0  0  0
 14 16  1  0  0  0  0
 16 17  1  0  0  0  0
 18 19  2  0  0  0  0
 18 20  1  0  0  0  0
 20 21  1  0  0  0  0
 20 22  1  0  0  0  0
 22 23  1  0  0  0  0
 22 24  1  0  0  0  0
 22 25  1  0  0  0  0
M  END
$$$$

  -OEChem-01062216063D

 25 24  0     1  0  0  0  0  0999 V2000
   -3.0465   -3.3864    0.7403 H   0  0  0  0  0  0  0  0  0  0  0  0
   -2.9467   -2.3298    0.4758 C   0  0  0  0  0  0  0  0  0  0  0  0
   -3.6314   -1.7467    1.0961 H   0  0  0  0  0  0  0  0  0  0  0  0
   -3.2181   -2.2050   -0.5751 H   0  0  0  0  0  0  0  0  0  0  0  0
   -1.5192   -1.8659    0.7006 C   0  0  0  0  0  0  0  0  0  0  0  0
   -0.7184   -2.6646    1.1519 O   0  0  0  0  0  0  0  0  0  0  0  0
   -1.2068   -0.5501    0.3967 N   0  0  0  0  0  0  0  0  0  0  0  0
   -1.9807   -0.0348   -0.0123 H   0  0  0  0  0  0  0  0  0  0  0  0
    0.1036    0.1465    0.3896 C   0  0  1  0  0  0  0  0  0  0  0  0
    0.0001    1.0270    1.0312 H   0  0  0  0  0  0  0  0  0  0  0  0
    1.3401   -0.6283    0.9150 C   0  0  0  0  0  0  0  0  0  0  0  0
    1.4337   -1.5794    0.3827 H   0  0  0  0  0  0  0  0  0  0  0  0
    2.2453   -0.0554    0.6982 H   0  0  0  0  0  0  0  0  0  0  0  0
    1.3226   -0.8930    2.4184 C   0  0  0  0  0  0  0  0  0  0  0  0
    0.7391   -0.1094    3.1537 O   0  0  0  0  0  0  0  0  0  0  0  0
    2.0412   -1.9468    2.8721 O   0  0  0  0  0  0  0  0  0  0  0  0
    1.8898   -1.9825    3.8271 H   0  0  0  0  0  0  0  0  0  0  0  0
    0.3843    0.6819   -1.0314 C   0  0  0  0  0  0  0  0  0  0  0  0
    0.9405   -0.0058   -1.8762 O   0  0  0  0  0  0  0  0  0  0  0  0
   -0.0389    1.9529   -1.3798 N   0  0  0  0  0  0  0  0  0  0  0  0
   -0.4540    2.5293   -0.6539 H   0  0  0  0  0  0  0  0  0  0  0  0
    0.1988    2.5404   -2.6937 C   0  0  0  0  0  0  0  0  0  0  0  0
   -0.2383    1.9143   -3.4789 H   0  0  0  0  0  0  0  0  0  0  0  0
   -0.2562    3.5337   -2.7527 H   0  0  0  0  0  0  0  0  0  0  0  0
    1.2733    2.6396   -2.8802 H   0  0  0  0  0  0  0  0  0  0  0  0
  1  2  1  0  0  0  0
  2  3  1  0  0  0  0
  2  4  1  0  0  0  0
  2  5  1  0  0  0  0
  5  6  2  0  0  0  0
  5  7  1  0  0  0  0
  7  8  1  0  0  0  0
  7  9  1  0  0  0  0
  9 10  1  0  0  0  0
  9 11  1  0  0  0  0
  9 18  1  0  0  0  0
 11 12  1  0  0  0  0
 11 13  1  0  0  0  0
 11 14  1  0  0  0  0
 14 15  2  0  0  0  0
 14 16  1  0  0  0  0
 16 17  1  0  0  0  0
 18 19  2  0  0  0  0
 18 20  1  0  0  0  0
 20 21  1  0  0  0  0
 20 22  1  0  0  0  0
 22 23  1  0  0  0  0
 22 24  1  0  0  0  0
 22 25  1  0  0  0  0
M  END
$$$$

  -OEChem-01062216063D

 25 24  0     1  0  0  0  0  0999 V2000
   -3.0394   -3.3842    0.7168 H   0  0  0  0  0  0  0  0  0  0  0  0
   -2.9405   -2.3280    0.4504 C   0  0  0  0  0  0  0  0  0  0  0  0
   -3.6533   -1.7481    1.0414 H   0  0  0  0  0  0  0  0  0  0  0  0
   -3.1742   -2.2114   -0.6106 H   0  0  0  0  0  0  0  0  0  0  0  0
   -1.5269   -1.8485    0.7245 C   0  0  0  0  0  0  0  0  0  0  0  0
   -0.7363   -2.6349    1.2148 O   0  0  0  0  0  0  0  0  0  0  0  0
   -1.2143   -0.5334    0.4193 N   0  0  0  0  0  0  0  0  0  0  0  0
   -1.9729   -0.0350   -0.0372 H   0  0  0  0  0  0  0  0  0  0  0  0
    0.0985    0.1575    0.4097 C   0  0  1  0  0  0  0  0  0  0  0  0
   -0.0040    1.0336    1.0575 H   0  0  0  0  0  0  0  0  0  0  0  0
    1.3387   -0.6203    0.9182 C   0  0  0  0  0  0  0  0  0  0  0  0
    1.4229   -1.5682    0.3786 H   0  0  0  0  0  0  0  0  0  0  0  0
    2.2428   -0.0476    0.6965 H   0  0  0  0  0  0  0  0  0  0  0  0
    1.3361   -0.8972    2.4196 C   0  0  0  0  0  0  0  0  0  0  0  0
    0.7599   -0.1198    3.1669 O   0  0  0  0  0  0  0  0  0  0  0  0
    2.0607   -1.9538    2.8570 O   0  0  0  0  0  0  0  0  0  0  0  0
    1.9128   -2.0019    3.8121 H   0  0  0  0  0  0  0  0  0  0  0  0
    0.3849    0.6943   -1.0084 C   0  0  0  0  0  0  0  0  0  0  0  0
    0.6460   -0.0670   -1.9292 O   0  0  0  0  0  0  0  0  0  0  0  0
    0.2628    2.0467   -1.2736 N   0  0  0  0  0  0  0  0  0  0  0  0
    0.0683    2.6674   -0.4936 H   0  0  0  0  0  0  0  0  0  0  0  0
    0.5002    2.6256   -2.5912 C   0  0  0  0  0  0  0  0  0  0  0  0
   -0.1672    2.1759   -3.3339 H   0  0  0  0  0  0  0  0  0  0  0  0
    0.3152    3.7039   -2.5704 H   0  0  0  0  0  0  0  0  0  0  0  0
    1.5367    2.4577   -2.9023 H   0  0  0  0  0  0  0  0  0  0  0  0
  1  2  1  0  0  0  0
  2  3  1  0  0  0  0
  2  4  1  0  0  0  0
  2  5  1  0  0  0  0
  5  6  2  0  0  0  0
  5  7  1  0  0  0  0
  7  8  1  0  0  0  0
  7  9  1  0  0  0  0
  9 10  1  0  0  0  0
  9 11  1  0  0  0  0
  9 18  1  0  0  0  0
 11 12  1  0  0  0  0
 11 13  1  0  0  0  0
 11 14  1  0  0  0  0
 14 15  2  0  0  0  0
 14 16  1  0  0  0  0
 16 17  1  0  0  0  0
 18 19  2  0  0  0  0
 18 20  1  0  0  0  0
 20 21  1  0  0  0  0
 20 22  1  0  0  0  0
 22 23  1  0  0  0  0
 22 24  1  0  0  0  0
 22 25  1  0  0  0  0
M  END
$$$$

  -OEChem-01062216063D

 25 24  0     1  0  0  0  0  0999 V2000
   -3.0364   -3.3797    0.7022 H   0  0  0  0  0  0  0  0  0  0  0  0
   -2.9338   -2.3257    0.4291 C   0  0  0  0  0  0  0  0  0  0  0  0
   -3.6672   -1.7434    0.9918 H   0  0  0  0  0  0  0  0  0  0  0  0
   -3.1341   -2.2199   -0.6400 H   0  0  0  0  0  0  0  0  0  0  0  0
   -1.5319   -1.8367    0.7430 C   0  0  0  0  0  0  0  0  0  0  0  0
   -0.7525   -2.6142    1.2649 O   0  0  0  0  0  0  0  0  0  0  0  0
   -1.2164   -0.5232    0.4357 N   0  0  0  0  0  0  0  0  0  0  0  0
   -1.9558   -0.0434   -0.0701 H   0  0  0  0  0  0  0  0  0  0  0  0
    0.1001    0.1606    0.4221 C   0  0  1  0  0  0  0  0  0  0  0  0
   -0.0025    1.0365    1.0700 H   0  0  0  0  0  0  0  0  0  0  0  0
    1.3399   -0.6207    0.9243 C   0  0  0  0  0  0  0  0  0  0  0  0
    1.4155   -1.5691    0.3846 H   0  0  0  0  0  0  0  0  0  0  0  0
    2.2457   -0.0525    0.6984 H   0  0  0  0  0  0  0  0  0  0  0  0
    1.3447   -0.8989    2.4259 C   0  0  0  0  0  0  0  0  0  0  0  0
    0.7750   -0.1209    3.1774 O   0  0  0  0  0  0  0  0  0  0  0  0
    2.0700   -1.9575    2.8573 O   0  0  0  0  0  0  0  0  0  0  0  0
    1.9233   -2.0095    3.8127 H   0  0  0  0  0  0  0  0  0  0  0  0
    0.3925    0.6979   -0.9947 C   0  0  0  0  0  0  0  0  0  0  0  0
    0.3426   -0.0433   -1.9668 O   0  0  0  0  0  0  0  0  0  0  0  0
    0.5872    2.0527   -1.1971 N   0  0  0  0  0  0  0  0  0  0  0  0
    0.6314    2.6531   -0.3788 H   0  0  0  0  0  0  0  0  0  0  0  0
    0.8175    2.6384   -2.5129 C   0  0  0  0  0  0  0  0  0  0  0  0
   -0.0229    2.4229   -3.1815 H   0  0  0  0  0  0  0  0  0  0  0  0
    0.9224    3.7245   -2.4312 H   0  0  0  0  0  0  0  0  0  0  0  0
    1.7332    2.2342   -2.9572 H   0  0  0  0  0  0  0  0  0  0  0  0
  1  2  1  0  0  0  0
  2  3  1  0  0  0  0
  2  4  1  0  0  0  0
  2  5  1  0  0  0  0
  5  6  2  0  0  0  0
  5  7  1  0  0  0  0
  7  8  1  0  0  0  0
  7  9  1  0  0  0  0
  9 10  1  0  0  0  0
  9 11  1  0  0  0  0
  9 18  1  0  0  0  0
 11 12  1  0  0  0  0
 11 13  1  0  0  0  0
 11 14  1  0  0  0  0
 14 15  2  0  0  0  0
 14 16  1  0  0  0  0
 16 17  1  0  0  0  0
 18 19  2  0  0  0  0
 18 20  1  0  0  0  0
 20 21  1  0  0  0  0
 20 22  1  0  0  0  0
 22 23  1  0  0  0  0
 22 24  1  0  0  0  0
 22 25  1  0  0  0  0
M  END
$$$$

  -OEChem-01062216063D

 25 24  0     1  0  0  0  0  0999 V2000
   -3.0375   -3.3778    0.6992 H   0  0  0  0  0  0  0  0  0  0  0  0
   -2.9312   -2.3252    0.4223 C   0  0  0  0  0  0  0  0  0  0  0  0
   -3.6731   -1.7404    0.9712 H   0  0  0  0  0  0  0  0  0  0  0  0
   -3.1159   -2.2244   -0.6500 H   0  0  0  0  0  0  0  0  0  0  0  0
   -1.5344   -1.8336    0.7542 C   0  0  0  0  0  0  0  0  0  0  0  0
   -0.7597   -2.6079    1.2887 O   0  0  0  0  0  0  0  0  0  0  0  0
   -1.2153   -0.5223    0.4430 N   0  0  0  0  0  0  0  0  0  0  0  0
   -1.9384   -0.0577   -0.1001 H   0  0  0  0  0  0  0  0  0  0  0  0
    0.1037    0.1562    0.4232 C   0  0  1  0  0  0  0  0  0  0  0  0
    0.0009    1.0357    1.0666 H   0  0  0  0  0  0  0  0  0  0  0  0
    1.3410   -0.6270    0.9278 C   0  0  0  0  0  0  0  0  0  0  0  0
    1.4104   -1.5794    0.3945 H   0  0  0  0  0  0  0  0  0  0  0  0
    2.2498   -0.0655    0.6979 H   0  0  0  0  0  0  0  0  0  0  0  0
    1.3475   -0.8963    2.4309 C   0  0  0  0  0  0  0  0  0  0  0  0
    0.7825   -0.1119    3.1789 O   0  0  0  0  0  0  0  0  0  0  0  0
    2.0705   -1.9542    2.8667 O   0  0  0  0  0  0  0  0  0  0  0  0
    1.9226   -2.0022    3.8221 H   0  0  0  0  0  0  0  0  0  0  0  0
    0.4016    0.6932   -0.9932 C   0  0  0  0  0  0  0  0  0  0  0  0
    0.0678    0.0597   -1.9859 O   0  0  0  0  0  0  0  0  0  0  0  0
    0.9053    1.9714   -1.1562 N   0  0  0  0  0  0  0  0  0  0  0  0
    1.1637    2.4894   -0.3212 H   0  0  0  0  0  0  0  0  0  0  0  0
    1.1416    2.5774   -2.4617 C   0  0  0  0  0  0  0  0  0  0  0  0
    0.2109    2.6245   -3.0371 H   0  0  0  0  0  0  0  0  0  0  0  0
    1.5250    3.5954   -2.3431 H   0  0  0  0  0  0  0  0  0  0  0  0
    1.8761    1.9945   -3.0276 H   0  0  0  0  0  0  0  0  0  0  0  0
  1  2  1  0  0  0  0
  2  3  1  0  0  0  0
  2  4  1  0  0  0  0
  2  5  1  0  0  0  0
  5  6  2  0  0  0  0
  5  7  1  0  0  0  0
  7  8  1  0  0  0  0
  7  9  1  0  0  0  0
  9 10  1  0  0  0  0
  9 11  1  0  0  0  0
  9 18  1  0  0  0  0
 11 12  1  0  0  0  0
 11 13  1  0  0  0  0
 11 14  1  0  0  0  0
 14 15  2  0  0  0  0
 14 16  1  0  0  0  0
 16 17  1  0  0  0  0
 18 19  2  0  0  0  0
 18 20  1  0  0  0  0
 20 21  1  0  0  0  0
 20 22  1  0  0  0  0
 22 23  1  0  0  0  0
 22 24  1  0  0  0  0
 22 25  1  0  0  0  0
M  END
$$$$

  -OEChem-01062216063D

 25 24  0     1  0  0  0  0  0999 V2000
   -3.0361   -3.3792    0.7026 H   0  0  0  0  0  0  0  0  0  0  0  0
   -2.9291   -2.3265    0.4259 C   0  0  0  0  0  0  0  0  0  0  0  0
   -3.6718   -1.7412    0.9730 H   0  0  0  0  0  0  0  0  0  0  0  0
   -3.1118   -2.2256   -0.6467 H   0  0  0  0  0  0  0  0  0  0  0  0
   -1.5330   -1.8349    0.7604 C   0  0  0  0  0  0  0  0  0  0  0  0
   -0.7601   -2.6094    1.2973 O   0  0  0  0  0  0  0  0  0  0  0  0
   -1.2109   -0.5251    0.4467 N   0  0  0  0  0  0  0  0  0  0  0  0
   -1.9240   -0.0692   -0.1180 H   0  0  0  0  0  0  0  0  0  0  0  0
    0.1086    0.1530    0.4216 C   0  0  1  0  0  0  0  0  0  0  0  0
    0.0071    1.0363    1.0601 H   0  0  0  0  0  0  0  0  0  0  0  0
    1.3424   -0.6349    0.9309 C   0  0  0  0  0  0  0  0  0  0  0  0
    1.4072   -1.5902    0.4021 H   0  0  0  0  0  0  0  0  0  0  0  0
    2.2554   -0.0806    0.7015 H   0  0  0  0  0  0  0  0  0  0  0  0
    1.3454   -0.8969    2.4355 C   0  0  0  0  0  0  0  0  0  0  0  0
    0.7841   -0.1062    3.1790 O   0  0  0  0  0  0  0  0  0  0  0  0
    2.0609   -1.9575    2.8769 O   0  0  0  0  0  0  0  0  0  0  0  0
    1.9092   -2.0015    3.8321 H   0  0  0  0  0  0  0  0  0  0  0  0
    0.4081    0.6904   -0.9959 C   0  0  0  0  0  0  0  0  0  0  0  0
   -0.1560    0.2221   -1.9773 O   0  0  0  0  0  0  0  0  0  0  0  0
    1.1896    1.8212   -1.1544 N   0  0  0  0  0  0  0  0  0  0  0  0
    1.6216    2.2186   -0.3251 H   0  0  0  0  0  0  0  0  0  0  0  0
    1.4490    2.4408   -2.4490 C   0  0  0  0  0  0  0  0  0  0  0  0
    0.5107    2.7531   -2.9195 H   0  0  0  0  0  0  0  0  0  0  0  0
    2.0836    3.3239   -2.3262 H   0  0  0  0  0  0  0  0  0  0  0  0
    1.9601    1.7375   -3.1148 H   0  0  0  0  0  0  0  0  0  0  0  0
  1  2  1  0  0  0  0
  2  3  1  0  0  0  0
  2  4  1  0  0  0  0
  2  5  1  0  0  0  0
  5  6  2  0  0  0  0
  5  7  1  0  0  0  0
  7  8  1  0  0  0  0
  7  9  1  0  0  0  0
  9 10  1  0  0  0  0
  9 11  1  0  0  0  0
  9 18  1  0  0  0  0
 11 12  1  0  0  0  0
 11 13  1  0  0  0  0
 11 14  1  0  0  0  0
 14 15  2  0  0  0  0
 14 16  1  0  0  0  0
 16 17  1  0  0  0  0
 18 19  2  0  0  0  0
 18 20  1  0  0  0  0
 20 21  1  0  0  0  0
 20 22  1  0  0  0  0
 22 23  1  0  0  0  0
 22 24  1  0  0  0  0
 22 25  1  0  0  0  0
M  END
$$$$

  -OEChem-01062216063D

 25 24  0     1  0  0  0  0  0999 V2000
   -3.0387   -3.3752    0.7024 H   0  0  0  0  0  0  0  0  0  0  0  0
   -2.9267   -2.3227    0.4269 C   0  0  0  0  0  0  0  0  0  0  0  0
   -3.6609   -1.7338    0.9820 H   0  0  0  0  0  0  0  0  0  0  0  0
   -3.1178   -2.2177   -0.6439 H   0  0  0  0  0  0  0  0  0  0  0  0
   -1.5245   -1.8413    0.7515 C   0  0  0  0  0  0  0  0  0  0  0  0
   -0.7489   -2.6250    1.2713 O   0  0  0  0  0  0  0  0  0  0  0  0
   -1.1985   -0.5309    0.4454 N   0  0  0  0  0  0  0  0  0  0  0  0
   -1.9076   -0.0703   -0.1218 H   0  0  0  0  0  0  0  0  0  0  0  0
    0.1181    0.1532    0.4279 C   0  0  1  0  0  0  0  0  0  0  0  0
    0.0153    1.0376    1.0648 H   0  0  0  0  0  0  0  0  0  0  0  0
    1.3470   -0.6409    0.9451 C   0  0  0  0  0  0  0  0  0  0  0  0
    1.4154   -1.5942    0.4138 H   0  0  0  0  0  0  0  0  0  0  0  0
    2.2656   -0.0910    0.7301 H   0  0  0  0  0  0  0  0  0  0  0  0
    1.3359   -0.9069    2.4490 C   0  0  0  0  0  0  0  0  0  0  0  0
    0.7707   -0.1171    3.1902 O   0  0  0  0  0  0  0  0  0  0  0  0
    2.0478   -1.9687    2.8932 O   0  0  0  0  0  0  0  0  0  0  0  0
    1.8896   -2.0147    3.8473 H   0  0  0  0  0  0  0  0  0  0  0  0
    0.4131    0.6946   -0.9914 C   0  0  0  0  0  0  0  0  0  0  0  0
   -0.3210    0.4161   -1.9329 O   0  0  0  0  0  0  0  0  0  0  0  0
    1.4187    1.6247   -1.1890 N   0  0  0  0  0  0  0  0  0  0  0  0
    1.9915    1.8793   -0.3896 H   0  0  0  0  0  0  0  0  0  0  0  0
    1.7080    2.2312   -2.4835 C   0  0  0  0  0  0  0  0  0  0  0  0
    0.8407    2.7919   -2.8475 H   0  0  0  0  0  0  0  0  0  0  0  0
    2.5535    2.9206   -2.3982 H   0  0  0  0  0  0  0  0  0  0  0  0
    1.9633    1.4609   -3.2188 H   0  0  0  0  0  0  0  0  0  0  0  0
  1  2  1  0  0  0  0
  2  3  1  0  0  0  0
  2  4  1  0  0  0  0
  2  5  1  0  0  0  0
  5  6  2  0  0  0  0
  5  7  1  0  0  0  0
  7  8  1  0  0  0  0
  7  9  1  0  0  0  0
  9 10  1  0  0  0  0
  9 11  1  0  0  0  0
  9 18  1  0  0  0  0
 11 12  1  0  0  0  0
 11 13  1  0  0  0  0
 11 14  1  0  0  0  0
 14 15  2  0  0  0  0
 14 16  1  0  0  0  0
 16 17  1  0  0  0  0
 18 19  2  0  0  0  0
 18 20  1  0  0  0  0
 20 21  1  0  0  0  0
 20 22  1  0  0  0  0
 22 23  1  0  0  0  0
 22 24  1  0  0  0  0
 22 25  1  0  0  0  0
M  END
$$$$

  -OEChem-01062216063D

 25 24  0     1  0  0  0  0  0999 V2000
   -3.1139   -3.3188    0.7193 H   0  0  0  0  0  0  0  0  0  0  0  0
   -2.9721   -2.2618    0.4771 C   0  0  0  0  0  0  0  0  0  0  0  0
   -3.6262   -1.6637    1.1161 H   0  0  0  0  0  0  0  0  0  0  0  0
   -3.2472   -2.1005   -0.5682 H   0  0  0  0  0  0  0  0  0  0  0  0
   -1.5253   -1.8610    0.6980 C   0  0  0  0  0  0  0  0  0  0  0  0
   -0.7397   -2.7129    1.0736 O   0  0  0  0  0  0  0  0  0  0  0  0
   -1.1637   -0.5566    0.4104 N   0  0  0  0  0  0  0  0  0  0  0  0
   -1.8987   -0.0266   -0.0574 H   0  0  0  0  0  0  0  0  0  0  0  0
    0.1527    0.1270    0.4011 C   0  0  1  0  0  0  0  0  0  0  0  0
    0.1361    0.8445    1.2281 H   0  0  0  0  0  0  0  0  0  0  0  0
    1.4211   -0.7493    0.5954 C   0  0  0  0  0  0  0  0  0  0  0  0
    1.3962   -1.5695   -0.1277 H   0  0  0  0  0  0  0  0  0  0  0  0
    2.3227   -0.1677    0.3972 H   0  0  0  0  0  0  0  0  0  0  0  0
    1.5859   -1.3436    1.9929 C   0  0  0  0  0  0  0  0  0  0  0  0
    1.1236   -0.7463    2.9533 O   0  0  0  0  0  0  0  0  0  0  0  0
    2.3334   -2.4669    2.0999 O   0  0  0  0  0  0  0  0  0  0  0  0
    2.2799   -2.7312    3.0300 H   0  0  0  0  0  0  0  0  0  0  0  0
    0.2666    0.9876   -0.8827 C   0  0  0  0  0  0  0  0  0  0  0  0
   -0.6934    1.0959   -1.6387 O   0  0  0  0  0  0  0  0  0  0  0  0
    1.3997    1.7370   -1.1483 N   0  0  0  0  0  0  0  0  0  0  0  0
    2.1733    1.6737   -0.4935 H   0  0  0  0  0  0  0  0  0  0  0  0
    1.5354    2.5992   -2.3169 C   0  0  0  0  0  0  0  0  0  0  0  0
    0.7677    3.3802   -2.3092 H   0  0  0  0  0  0  0  0  0  0  0  0
    2.5177    3.0810   -2.3205 H   0  0  0  0  0  0  0  0  0  0  0  0
    1.4342    2.0145   -3.2375 H   0  0  0  0  0  0  0  0  0  0  0  0
  1  2  1  0  0  0  0
  2  3  1  0  0  0  0
  2  4  1  0  0  0  0
  2  5  1  0  0  0  0
  5  6  2  0  0  0  0
  5  7  1  0  0  0  0
  7  8  1  0  0  0  0
  7  9  1  0  0  0  0
  9 10  1  0  0  0  0
  9 11  1  0  0  0  0
  9 18  1  0  0  0  0
 11 12  1  0  0  0  0
 11 13  1  0  0  0  0
 11 14  1  0  0  0  0
 14 15  2  0  0  0  0
 14 16  1  0  0  0  0
 16 17  1  0  0  0  0
 18 19  2  0  0  0  0
 18 20  1  0  0  0  0
 20 21  1  0  0  0  0
 20 22  1  0  0  0  0
 22 23  1  0  0  0  0
 22 24  1  0  0  0  0
 22 25  1  0  0  0  0
M  END
$$$$

  -OEChem-01062216063D

 25 24  0     1  0  0  0  0  0999 V2000
   -3.1163   -3.3093    0.7159 H   0  0  0  0  0  0  0  0  0  0  0  0
   -2.9687   -2.2520    0.4783 C   0  0  0  0  0  0  0  0  0  0  0  0
   -3.5962   -1.6518    1.1416 H   0  0  0  0  0  0  0  0  0  0  0  0
   -3.2730   -2.0779   -0.5568 H   0  0  0  0  0  0  0  0  0  0  0  0
   -1.5111   -1.8703    0.6601 C   0  0  0  0  0  0  0  0  0  0  0  0
   -0.7218   -2.7376    0.9909 O   0  0  0  0  0  0  0  0  0  0  0  0
   -1.1431   -0.5639    0.3904 N   0  0  0  0  0  0  0  0  0  0  0  0
   -1.8873   -0.0049   -0.0268 H   0  0  0  0  0  0  0  0  0  0  0  0
    0.1731    0.1196    0.4037 C   0  0  1  0  0  0  0  0  0  0  0  0
    0.1481    0.8361    1.2314 H   0  0  0  0  0  0  0  0  0  0  0  0
    1.4347   -0.7634    0.6190 C   0  0  0  0  0  0  0  0  0  0  0  0
    1.4256   -1.5796   -0.1091 H   0  0  0  0  0  0  0  0  0  0  0  0
    2.3427   -0.1831    0.4507 H   0  0  0  0  0  0  0  0  0  0  0  0
    1.5671   -1.3591    2.0200 C   0  0  0  0  0  0  0  0  0  0  0  0
    1.0887   -0.7608    2.9715 O   0  0  0  0  0  0  0  0  0  0  0  0
    2.3083   -2.4852    2.1413 O   0  0  0  0  0  0  0  0  0  0  0  0
    2.2379   -2.7484    3.0707 H   0  0  0  0  0  0  0  0  0  0  0  0
    0.2861    0.9884   -0.8769 C   0  0  0  0  0  0  0  0  0  0  0  0
   -0.7297    1.2896   -1.4956 O   0  0  0  0  0  0  0  0  0  0  0  0
    1.4936    1.5069   -1.3133 N   0  0  0  0  0  0  0  0  0  0  0  0
    2.3301    1.2572   -0.7953 H   0  0  0  0  0  0  0  0  0  0  0  0
    1.6277    2.3340   -2.5074 C   0  0  0  0  0  0  0  0  0  0  0  0
    1.0126    3.2361   -2.4211 H   0  0  0  0  0  0  0  0  0  0  0  0
    2.6698    2.6392   -2.6416 H   0  0  0  0  0  0  0  0  0  0  0  0
    1.3134    1.7769   -3.3963 H   0  0  0  0  0  0  0  0  0  0  0  0
  1  2  1  0  0  0  0
  2  3  1  0  0  0  0
  2  4  1  0  0  0  0
  2  5  1  0  0  0  0
  5  6  2  0  0  0  0
  5  7  1  0  0  0  0
  7  8  1  0  0  0  0
  7  9  1  0  0  0  0
  9 10  1  0  0  0  0
  9 11  1  0  0  0  0
  9 18  1  0  0  0  0
 11 12  1  0  0  0  0
 11 13  1  0  0  0  0
 11 14  1  0  0  0  0
 14 15  2  0  0  0  0
 14 16  1  0  0  0  0
 16 17  1  0  0  0  0
 18 19  2  0  0  0  0
 18 20  1  0  0  0  0
 20 21  1  0  0  0  0
 20 22  1  0  0  0  0
 22 23  1  0  0  0  0
 22 24  1  0  0  0  0
 22 25  1  0  0  0  0
M  END
$$$$

  -OEChem-01062216063D

 25 24  0     1  0  0  0  0  0999 V2000
   -3.1148   -3.3021    0.7150 H   0  0  0  0  0  0  0  0  0  0  0  0
   -2.9654   -2.2446    0.4795 C   0  0  0  0  0  0  0  0  0  0  0  0
   -3.5711   -1.6439    1.1623 H   0  0  0  0  0  0  0  0  0  0  0  0
   -3.2951   -2.0624   -0.5462 H   0  0  0  0  0  0  0  0  0  0  0  0
   -1.5008   -1.8748    0.6260 C   0  0  0  0  0  0  0  0  0  0  0  0
   -0.7067   -2.7521    0.9164 O   0  0  0  0  0  0  0  0  0  0  0  0
   -1.1291   -0.5670    0.3683 N   0  0  0  0  0  0  0  0  0  0  0  0
   -1.8821    0.0163    0.0035 H   0  0  0  0  0  0  0  0  0  0  0  0
    0.1877    0.1129    0.4029 C   0  0  1  0  0  0  0  0  0  0  0  0
    0.1531    0.8299    1.2300 H   0  0  0  0  0  0  0  0  0  0  0  0
    1.4454   -0.7697    0.6386 C   0  0  0  0  0  0  0  0  0  0  0  0
    1.4546   -1.5843   -0.0914 H   0  0  0  0  0  0  0  0  0  0  0  0
    2.3536   -0.1825    0.4940 H   0  0  0  0  0  0  0  0  0  0  0  0
    1.5522   -1.3644    2.0422 C   0  0  0  0  0  0  0  0  0  0  0  0
    1.0572   -0.7664    2.9853 O   0  0  0  0  0  0  0  0  0  0  0  0
    2.2908   -2.4907    2.1764 O   0  0  0  0  0  0  0  0  0  0  0  0
    2.2083   -2.7509    3.1058 H   0  0  0  0  0  0  0  0  0  0  0  0
    0.3050    0.9836   -0.8750 C   0  0  0  0  0  0  0  0  0  0  0  0
   -0.7113    1.4754   -1.3544 O   0  0  0  0  0  0  0  0  0  0  0  0
    1.5171    1.2599   -1.4849 N   0  0  0  0  0  0  0  0  0  0  0  0
    2.3450    0.8038   -1.1147 H   0  0  0  0  0  0  0  0  0  0  0  0
    1.6388    2.0501   -2.7048 C   0  0  0  0  0  0  0  0  0  0  0  0
    1.2115    3.0481   -2.5601 H   0  0  0  0  0  0  0  0  0  0  0  0
    2.6921    2.1635   -2.9791 H   0  0  0  0  0  0  0  0  0  0  0  0
    1.1158    1.5595   -3.5325 H   0  0  0  0  0  0  0  0  0  0  0  0
  1  2  1  0  0  0  0
  2  3  1  0  0  0  0
  2  4  1  0  0  0  0
  2  5  1  0  0  0  0
  5  6  2  0  0  0  0
  5  7  1  0  0  0  0
  7  8  1  0  0  0  0
  7  9  1  0  0  0  0
  9 10  1  0  0  0  0
  9 11  1  0  0  0  0
  9 18  1  0  0  0  0
 11 12  1  0  0  0  0
 11 13  1  0  0  0  0
 11 14  1  0  0  0  0
 14 15  2  0  0  0  0
 14 16  1  0  0  0  0
 16 17  1  0  0  0  0
 18 19  2  0  0  0  0
 18 20  1  0  0  0  0
 20 21  1  0  0  0  0
 20 22  1  0  0  0  0
 22 23  1  0  0  0  0
 22 24  1  0  0  0  0
 22 25  1  0  0  0  0
M  END
$$$$

  -OEChem-01062216063D

 25 24  0     1  0  0  0  0  0999 V2000
   -3.1116   -3.2991    0.7392 H   0  0  0  0  0  0  0  0  0  0  0  0
   -2.9650   -2.2428    0.4969 C   0  0  0  0  0  0  0  0  0  0  0  0
   -3.5477   -1.6380    1.1960 H   0  0  0  0  0  0  0  0  0  0  0  0
   -3.3240   -2.0617   -0.5190 H   0  0  0  0  0  0  0  0  0  0  0  0
   -1.4952   -1.8792    0.5987 C   0  0  0  0  0  0  0  0  0  0  0  0
   -0.6930   -2.7617    0.8489 O   0  0  0  0  0  0  0  0  0  0  0  0
   -1.1259   -0.5705    0.3431 N   0  0  0  0  0  0  0  0  0  0  0  0
   -1.8909    0.0295    0.0359 H   0  0  0  0  0  0  0  0  0  0  0  0
    0.1897    0.1085    0.3933 C   0  0  1  0  0  0  0  0  0  0  0  0
    0.1457    0.8277    1.2184 H   0  0  0  0  0  0  0  0  0  0  0  0
    1.4482   -0.7679    0.6434 C   0  0  0  0  0  0  0  0  0  0  0  0
    1.4728   -1.5834   -0.0852 H   0  0  0  0  0  0  0  0  0  0  0  0
    2.3519   -0.1695    0.5086 H   0  0  0  0  0  0  0  0  0  0  0  0
    1.5410   -1.3616    2.0482 C   0  0  0  0  0  0  0  0  0  0  0  0
    1.0325   -0.7668    2.9860 O   0  0  0  0  0  0  0  0  0  0  0  0
    2.2816   -2.4855    2.1897 O   0  0  0  0  0  0  0  0  0  0  0  0
    2.1954   -2.7432    3.1193 H   0  0  0  0  0  0  0  0  0  0  0  0
    0.3168    0.9745   -0.8839 C   0  0  0  0  0  0  0  0  0  0  0  0
   -0.6478    1.6415   -1.2403 O   0  0  0  0  0  0  0  0  0  0  0  0
    1.4667    1.0089   -1.6544 N   0  0  0  0  0  0  0  0  0  0  0  0
    2.2203    0.3785   -1.3979 H   0  0  0  0  0  0  0  0  0  0  0  0
    1.5792    1.7688   -2.8940 C   0  0  0  0  0  0  0  0  0  0  0  0
    1.3622    2.8275   -2.7162 H   0  0  0  0  0  0  0  0  0  0  0  0
    2.5938    1.6889   -3.2959 H   0  0  0  0  0  0  0  0  0  0  0  0
    0.8780    1.3865   -3.6432 H   0  0  0  0  0  0  0  0  0  0  0  0
  1  2  1  0  0  0  0
  2  3  1  0  0  0  0
  2  4  1  0  0  0  0
  2  5  1  0  0  0  0
  5  6  2  0  0  0  0
  5  7  1  0  0  0  0
  7  8  1  0  0  0  0
  7  9  1  0  0  0  0
  9 10  1  0  0  0  0
  9 11  1  0  0  0  0
  9 18  1  0  0  0  0
 11 12  1  0  0  0  0
 11 13  1  0  0  0  0
 11 14  1  0  0  0  0
 14 15  2  0  0  0  0
 14 16  1  0  0  0  0
 16 17  1  0  0  0  0
 18 19  2  0  0  0  0
 18 20  1  0  0  0  0
 20 21  1  0  0  0  0
 20 22  1  0  0  0  0
 22 23  1  0  0  0  0
 22 24  1  0  0  0  0
 22 25  1  0  0  0  0
M  END
$$$$

  -OEChem-01062216063D

 25 24  0     1  0  0  0  0  0999 V2000
   -3.1032   -3.3024    0.7853 H   0  0  0  0  0  0  0  0  0  0  0  0
   -2.9647   -2.2483    0.5283 C   0  0  0  0  0  0  0  0  0  0  0  0
   -3.5214   -1.6371    1.2430 H   0  0  0  0  0  0  0  0  0  0  0  0
   -3.3607   -2.0753   -0.4754 H   0  0  0  0  0  0  0  0  0  0  0  0
   -1.4917   -1.8861    0.5734 C   0  0  0  0  0  0  0  0  0  0  0  0
   -0.6802   -2.7708    0.7827 O   0  0  0  0  0  0  0  0  0  0  0  0
   -1.1296   -0.5757    0.3156 N   0  0  0  0  0  0  0  0  0  0  0  0
   -1.9074    0.0358    0.0715 H   0  0  0  0  0  0  0  0  0  0  0  0
    0.1836    0.1060    0.3763 C   0  0  1  0  0  0  0  0  0  0  0  0
    0.1308    0.8264    1.2002 H   0  0  0  0  0  0  0  0  0  0  0  0
    1.4448   -0.7617    0.6358 C   0  0  0  0  0  0  0  0  0  0  0  0
    1.4799   -1.5793   -0.0897 H   0  0  0  0  0  0  0  0  0  0  0  0
    2.3434   -0.1546    0.5007 H   0  0  0  0  0  0  0  0  0  0  0  0
    1.5295   -1.3537    2.0417 C   0  0  0  0  0  0  0  0  0  0  0  0
    1.0100   -0.7621    2.9754 O   0  0  0  0  0  0  0  0  0  0  0  0
    2.2707   -2.4766    2.1889 O   0  0  0  0  0  0  0  0  0  0  0  0
    2.1803   -2.7325    3.1186 H   0  0  0  0  0  0  0  0  0  0  0  0
    0.3250    0.9675   -0.8988 C   0  0  0  0  0  0  0  0  0  0  0  0
   -0.5393    1.8006   -1.1414 O   0  0  0  0  0  0  0  0  0  0  0  0
    1.3476    0.7787   -1.8126 N   0  0  0  0  0  0  0  0  0  0  0  0
    1.9812    0.0019   -1.6478 H   0  0  0  0  0  0  0  0  0  0  0  0
    1.4480    1.5150   -3.0674 C   0  0  0  0  0  0  0  0  0  0  0  0
    1.4660    2.5939   -2.8793 H   0  0  0  0  0  0  0  0  0  0  0  0
    2.3683    1.2427   -3.5930 H   0  0  0  0  0  0  0  0  0  0  0  0
    0.5964    1.2849   -3.7160 H   0  0  0  0  0  0  0  0  0  0  0  0
  1  2  1  0  0  0  0
  2  3  1  0  0  0  0
  2  4  1  0  0  0  0
  2  5  1  0  0  0  0
  5  6  2  0  0  0  0
  5  7  1  0  0  0  0
  7  8  1  0  0  0  0
  7  9  1  0  0  0  0
  9 10  1  0  0  0  0
  9 11  1  0  0  0  0
  9 18  1  0  0  0  0
 11 12  1  0  0  0  0
 11 13  1  0  0  0  0
 11 14  1  0  0  0  0
 14 15  2  0  0  0  0
 14 16  1  0  0  0  0
 16 17  1  0  0  0  0
 18 19  2  0  0  0  0
 18 20  1  0  0  0  0
 20 21  1  0  0  0  0
 20 22  1  0  0  0  0
 22 23  1  0  0  0  0
 22 24  1  0  0  0  0
 22 25  1  0  0  0  0
M  END
$$$$

  -OEChem-01062216063D

 25 24  0     1  0  0  0  0  0999 V2000
   -3.0916   -3.3089    0.8058 H   0  0  0  0  0  0  0  0  0  0  0  0
   -2.9628   -2.2531    0.5516 C   0  0  0  0  0  0  0  0  0  0  0  0
   -3.4992   -1.6483    1.2867 H   0  0  0  0  0  0  0  0  0  0  0  0
   -3.3882   -2.0743   -0.4388 H   0  0  0  0  0  0  0  0  0  0  0  0
   -1.4898   -1.8889    0.5565 C   0  0  0  0  0  0  0  0  0  0  0  0
   -0.6704   -2.7745    0.7274 O   0  0  0  0  0  0  0  0  0  0  0  0
   -1.1357   -0.5771    0.2944 N   0  0  0  0  0  0  0  0  0  0  0  0
   -1.9235    0.0399    0.1047 H   0  0  0  0  0  0  0  0  0  0  0  0
    0.1756    0.1070    0.3631 C   0  0  1  0  0  0  0  0  0  0  0  0
    0.1158    0.8274    1.1869 H   0  0  0  0  0  0  0  0  0  0  0  0
    1.4400   -0.7533    0.6272 C   0  0  0  0  0  0  0  0  0  0  0  0
    1.4840   -1.5718   -0.0962 H   0  0  0  0  0  0  0  0  0  0  0  0
    2.3337   -0.1392    0.4896 H   0  0  0  0  0  0  0  0  0  0  0  0
    1.5213   -1.3464    2.0328 C   0  0  0  0  0  0  0  0  0  0  0  0
    0.9937   -0.7585    2.9644 O   0  0  0  0  0  0  0  0  0  0  0  0
    2.2646   -2.4676    2.1825 O   0  0  0  0  0  0  0  0  0  0  0  0
    2.1754   -2.7212    3.1129 H   0  0  0  0  0  0  0  0  0  0  0  0
    0.3316    0.9639   -0.9103 C   0  0  0  0  0  0  0  0  0  0  0  0
   -0.3818    1.9486   -1.0485 O   0  0  0  0  0  0  0  0  0  0  0  0
    1.1648    0.5849   -1.9482 N   0  0  0  0  0  0  0  0  0  0  0  0
    1.6394   -0.3091   -1.8590 H   0  0  0  0  0  0  0  0  0  0  0  0
    1.2369    1.2981   -3.2180 C   0  0  0  0  0  0  0  0  0  0  0  0
    1.5095    2.3461   -3.0545 H   0  0  0  0  0  0  0  0  0  0  0  0
    1.9932    0.8438   -3.8653 H   0  0  0  0  0  0  0  0  0  0  0  0
    0.2715    1.2613   -3.7333 H   0  0  0  0  0  0  0  0  0  0  0  0
  1  2  1  0  0  0  0
  2  3  1  0  0  0  0
  2  4  1  0  0  0  0
  2  5  1  0  0  0  0
  5  6  2  0  0  0  0
  5  7  1  0  0  0  0
  7  8  1  0  0  0  0
  7  9  1  0  0  0  0
  9 10  1  0  0  0  0
  9 11  1  0  0  0  0
  9 18  1  0  0  0  0
 11 12  1  0  0  0  0
 11 13  1  0  0  0  0
 11 14  1  0  0  0  0
 14 15  2  0  0  0  0
 14 16  1  0  0  0  0
 16 17  1  0  0  0  0
 18 19  2  0  0  0  0
 18 20  1  0  0  0  0
 20 21  1  0  0  0  0
 20 22  1  0  0  0  0
 22 23  1  0  0  0  0
 22 24  1  0  0  0  0
 22 25  1  0  0  0  0
M  END
$$$$

  -OEChem-01062216063D

 25 24  0     1  0  0  0  0  0999 V2000
   -3.0787   -3.3204    0.8482 H   0  0  0  0  0  0  0  0  0  0  0  0
   -2.9625   -2.2634    0.5925 C   0  0  0  0  0  0  0  0  0  0  0  0
   -3.4691   -1.6621    1.3513 H   0  0  0  0  0  0  0  0  0  0  0  0
   -3.4293   -2.0824   -0.3787 H   0  0  0  0  0  0  0  0  0  0  0  0
   -1.4914   -1.8957    0.5374 C   0  0  0  0  0  0  0  0  0  0  0  0
   -0.6625   -2.7802    0.6620 O   0  0  0  0  0  0  0  0  0  0  0  0
   -1.1500   -0.5818    0.2685 N   0  0  0  0  0  0  0  0  0  0  0  0
   -1.9479    0.0359    0.1334 H   0  0  0  0  0  0  0  0  0  0  0  0
    0.1578    0.1088    0.3458 C   0  0  1  0  0  0  0  0  0  0  0  0
    0.0903    0.8285    1.1699 H   0  0  0  0  0  0  0  0  0  0  0  0
    1.4287   -0.7407    0.6106 C   0  0  0  0  0  0  0  0  0  0  0  0
    1.4850   -1.5557   -0.1157 H   0  0  0  0  0  0  0  0  0  0  0  0
    2.3163   -0.1167    0.4757 H   0  0  0  0  0  0  0  0  0  0  0  0
    1.5092   -1.3387    2.0142 C   0  0  0  0  0  0  0  0  0  0  0  0
    0.9722   -0.7594    2.9458 O   0  0  0  0  0  0  0  0  0  0  0  0
    2.2588   -2.4559    2.1628 O   0  0  0  0  0  0  0  0  0  0  0  0
    2.1722   -2.7110    3.0930 H   0  0  0  0  0  0  0  0  0  0  0  0
    0.3280    0.9593   -0.9275 C   0  0  0  0  0  0  0  0  0  0  0  0
   -0.1742    2.0736   -0.9734 O   0  0  0  0  0  0  0  0  0  0  0  0
    0.9234    0.4362   -2.0611 N   0  0  0  0  0  0  0  0  0  0  0  0
    1.2071   -0.5393   -2.0259 H   0  0  0  0  0  0  0  0  0  0  0  0
    0.9828    1.1443   -3.3340 C   0  0  0  0  0  0  0  0  0  0  0  0
    1.4979    2.1036   -3.2154 H   0  0  0  0  0  0  0  0  0  0  0  0
    1.5286    0.5497   -4.0730 H   0  0  0  0  0  0  0  0  0  0  0  0
   -0.0265    1.3313   -3.7156 H   0  0  0  0  0  0  0  0  0  0  0  0
  1  2  1  0  0  0  0
  2  3  1  0  0  0  0
  2  4  1  0  0  0  0
  2  5  1  0  0  0  0
  5  6  2  0  0  0  0
  5  7  1  0  0  0  0
  7  8  1  0  0  0  0
  7  9  1  0  0  0  0
  9 10  1  0  0  0  0
  9 11  1  0  0  0  0
  9 18  1  0  0  0  0
 11 12  1  0  0  0  0
 11 13  1  0  0  0  0
 11 14  1  0  0  0  0
 14 15  2  0  0  0  0
 14 16  1  0  0  0  0
 16 17  1  0  0  0  0
 18 19  2  0  0  0  0
 18 20  1  0  0  0  0
 20 21  1  0  0  0  0
 20 22  1  0  0  0  0
 22 23  1  0  0  0  0
 22 24  1  0  0  0  0
 22 25  1  0  0  0  0
M  END
$$$$

  -OEChem-01062216063D

 25 24  0     1  0  0  0  0  0999 V2000
   -3.0639   -3.3391    0.8988 H   0  0  0  0  0  0  0  0  0  0  0  0
   -2.9653   -2.2802    0.6434 C   0  0  0  0  0  0  0  0  0  0  0  0
   -3.4452   -1.6859    1.4247 H   0  0  0  0  0  0  0  0  0  0  0  0
   -3.4719   -2.0986   -0.3074 H   0  0  0  0  0  0  0  0  0  0  0  0
   -1.5000   -1.9025    0.5317 C   0  0  0  0  0  0  0  0  0  0  0  0
   -0.6615   -2.7828    0.6107 O   0  0  0  0  0  0  0  0  0  0  0  0
   -1.1753   -0.5865    0.2525 N   0  0  0  0  0  0  0  0  0  0  0  0
   -1.9827    0.0266    0.1630 H   0  0  0  0  0  0  0  0  0  0  0  0
    0.1279    0.1146    0.3318 C   0  0  1  0  0  0  0  0  0  0  0  0
    0.0560    0.8332    1.1567 H   0  0  0  0  0  0  0  0  0  0  0  0
    1.4070   -0.7235    0.5865 C   0  0  0  0  0  0  0  0  0  0  0  0
    1.4721   -1.5301   -0.1480 H   0  0  0  0  0  0  0  0  0  0  0  0
    2.2870   -0.0884    0.4532 H   0  0  0  0  0  0  0  0  0  0  0  0
    1.4980   -1.3317    1.9848 C   0  0  0  0  0  0  0  0  0  0  0  0
    0.9579   -0.7651    2.9224 O   0  0  0  0  0  0  0  0  0  0  0  0
    2.2579   -2.4433    2.1224 O   0  0  0  0  0  0  0  0  0  0  0  0
    2.1820   -2.7033    3.0521 H   0  0  0  0  0  0  0  0  0  0  0  0
    0.3051    0.9576   -0.9438 C   0  0  0  0  0  0  0  0  0  0  0  0
    0.0782    2.1586   -0.9169 O   0  0  0  0  0  0  0  0  0  0  0  0
    0.6226    0.3477   -2.1431 N   0  0  0  0  0  0  0  0  0  0  0  0
    0.7087   -0.6654   -2.1371 H   0  0  0  0  0  0  0  0  0  0  0  0
    0.7071    1.0613   -3.4110 C   0  0  0  0  0  0  0  0  0  0  0  0
    1.4480    1.8655   -3.3493 H   0  0  0  0  0  0  0  0  0  0  0  0
    1.0068    0.3773   -4.2108 H   0  0  0  0  0  0  0  0  0  0  0  0
   -0.2636    1.4960   -3.6715 H   0  0  0  0  0  0  0  0  0  0  0  0
  1  2  1  0  0  0  0
  2  3  1  0  0  0  0
  2  4  1  0  0  0  0
  2  5  1  0  0  0  0
  5  6  2  0  0  0  0
  5  7  1  0  0  0  0
  7  8  1  0  0  0  0
  7  9  1  0  0  0  0
  9 10  1  0  0  0  0
  9 11  1  0  0  0  0
  9 18  1  0  0  0  0
 11 12  1  0  0  0  0
 11 13  1  0  0  0  0
 11 14  1  0  0  0  0
 14 15  2  0  0  0  0
 14 16  1  0  0  0  0
 16 17  1  0  0  0  0
 18 19  2  0  0  0  0
 18 20  1  0  0  0  0
 20 21  1  0  0  0  0
 20 22  1  0  0  0  0
 22 23  1  0  0  0  0
 22 24  1  0  0  0  0
 22 25  1  0  0  0  0
M  END
$$$$

  -OEChem-01062216063D

 25 24  0     1  0  0  0  0  0999 V2000
   -3.0528   -3.3644    0.9497 H   0  0  0  0  0  0  0  0  0  0  0  0
   -2.9703   -2.3029    0.6989 C   0  0  0  0  0  0  0  0  0  0  0  0
   -3.4245   -1.7173    1.5019 H   0  0  0  0  0  0  0  0  0  0  0  0
   -3.5130   -2.1179   -0.2312 H   0  0  0  0  0  0  0  0  0  0  0  0
   -1.5125   -1.9141    0.5366 C   0  0  0  0  0  0  0  0  0  0  0  0
   -0.6654   -2.7882    0.5777 O   0  0  0  0  0  0  0  0  0  0  0  0
   -1.2072   -0.5953    0.2482 N   0  0  0  0  0  0  0  0  0  0  0  0
   -2.0236    0.0095    0.1947 H   0  0  0  0  0  0  0  0  0  0  0  0
    0.0896    0.1212    0.3231 C   0  0  1  0  0  0  0  0  0  0  0  0
    0.0146    0.8374    1.1497 H   0  0  0  0  0  0  0  0  0  0  0  0
    1.3795   -0.7038    0.5606 C   0  0  0  0  0  0  0  0  0  0  0  0
    1.4499   -1.5007   -0.1843 H   0  0  0  0  0  0  0  0  0  0  0  0
    2.2506   -0.0561    0.4278 H   0  0  0  0  0  0  0  0  0  0  0  0
    1.4891   -1.3228    1.9521 C   0  0  0  0  0  0  0  0  0  0  0  0
    0.9497   -0.7703    2.8987 O   0  0  0  0  0  0  0  0  0  0  0  0
    2.2622   -2.4275    2.0736 O   0  0  0  0  0  0  0  0  0  0  0  0
    2.1993   -2.6956    3.0019 H   0  0  0  0  0  0  0  0  0  0  0  0
    0.2669    0.9614   -0.9537 C   0  0  0  0  0  0  0  0  0  0  0  0
    0.3481    2.1790   -0.8832 O   0  0  0  0  0  0  0  0  0  0  0  0
    0.2858    0.3415   -2.1889 N   0  0  0  0  0  0  0  0  0  0  0  0
    0.1915   -0.6711   -2.1983 H   0  0  0  0  0  0  0  0  0  0  0  0
    0.4249    1.0585   -3.4500 C   0  0  0  0  0  0  0  0  0  0  0  0
    1.3587    1.6304   -3.4644 H   0  0  0  0  0  0  0  0  0  0  0  0
    0.4389    0.3535   -4.2869 H   0  0  0  0  0  0  0  0  0  0  0  0
   -0.4134    1.7485   -3.5925 H   0  0  0  0  0  0  0  0  0  0  0  0
  1  2  1  0  0  0  0
  2  3  1  0  0  0  0
  2  4  1  0  0  0  0
  2  5  1  0  0  0  0
  5  6  2  0  0  0  0
  5  7  1  0  0  0  0
  7  8  1  0  0  0  0
  7  9  1  0  0  0  0
  9 10  1  0  0  0  0
  9 11  1  0  0  0  0
  9 18  1  0  0  0  0
 11 12  1  0  0  0  0
 11 13  1  0  0  0  0
 11 14  1  0  0  0  0
 14 15  2  0  0  0  0
 14 16  1  0  0  0  0
 16 17  1  0  0  0  0
 18 19  2  0  0  0  0
 18 20  1  0  0  0  0
 20 21  1  0  0  0  0
 20 22  1  0  0  0  0
 22 23  1  0  0  0  0
 22 24  1  0  0  0  0
 22 25  1  0  0  0  0
M  END
$$$$

  -OEChem-01062216063D

 25 24  0     1  0  0  0  0  0999 V2000
   -3.0406   -3.4029    0.9635 H   0  0  0  0  0  0  0  0  0  0  0  0
   -2.9733   -2.3329    0.7463 C   0  0  0  0  0  0  0  0  0  0  0  0
   -3.4045   -1.7783    1.5834 H   0  0  0  0  0  0  0  0  0  0  0  0
   -3.5480   -2.1207   -0.1583 H   0  0  0  0  0  0  0  0  0  0  0  0
   -1.5239   -1.9288    0.5496 C   0  0  0  0  0  0  0  0  0  0  0  0
   -0.6686   -2.7954    0.5628 O   0  0  0  0  0  0  0  0  0  0  0  0
   -1.2391   -0.6058    0.2578 N   0  0  0  0  0  0  0  0  0  0  0  0
   -2.0635   -0.0100    0.2385 H   0  0  0  0  0  0  0  0  0  0  0  0
    0.0519    0.1263    0.3179 C   0  0  1  0  0  0  0  0  0  0  0  0
   -0.0208    0.8392    1.1475 H   0  0  0  0  0  0  0  0  0  0  0  0
    1.3513   -0.6882    0.5367 C   0  0  0  0  0  0  0  0  0  0  0  0
    1.4191   -1.4808   -0.2133 H   0  0  0  0  0  0  0  0  0  0  0  0
    2.2153   -0.0325    0.3955 H   0  0  0  0  0  0  0  0  0  0  0  0
    1.4828   -1.3099    1.9251 C   0  0  0  0  0  0  0  0  0  0  0  0
    0.9499   -0.7637    2.8793 O   0  0  0  0  0  0  0  0  0  0  0  0
    2.2659   -2.4084    2.0361 O   0  0  0  0  0  0  0  0  0  0  0  0
    2.2196   -2.6752    2.9656 H   0  0  0  0  0  0  0  0  0  0  0  0
    0.2211    0.9757   -0.9551 C   0  0  0  0  0  0  0  0  0  0  0  0
    0.6049    2.1335   -0.8756 O   0  0  0  0  0  0  0  0  0  0  0  0
   -0.0642    0.4306   -2.1928 N   0  0  0  0  0  0  0  0  0  0  0  0
   -0.3102   -0.5559   -2.2111 H   0  0  0  0  0  0  0  0  0  0  0  0
    0.1461    1.1368   -3.4504 C   0  0  0  0  0  0  0  0  0  0  0  0
    1.2046    1.3877   -3.5764 H   0  0  0  0  0  0  0  0  0  0  0  0
   -0.1642    0.5106   -4.2924 H   0  0  0  0  0  0  0  0  0  0  0  0
   -0.4404    2.0614   -3.4737 H   0  0  0  0  0  0  0  0  0  0  0  0
  1  2  1  0  0  0  0
  2  3  1  0  0  0  0
  2  4  1  0  0  0  0
  2  5  1  0  0  0  0
  5  6  2  0  0  0  0
  5  7  1  0  0  0  0
  7  8  1  0  0  0  0
  7  9  1  0  0  0  0
  9 10  1  0  0  0  0
  9 11  1  0  0  0  0
  9 18  1  0  0  0  0
 11 12  1  0  0  0  0
 11 13  1  0  0  0  0
 11 14  1  0  0  0  0
 14 15  2  0  0  0  0
 14 16  1  0  0  0  0
 16 17  1  0  0  0  0
 18 19  2  0  0  0  0
 18 20  1  0  0  0  0
 20 21  1  0  0  0  0
 20 22  1  0  0  0  0
 22 23  1  0  0  0  0
 22 24  1  0  0  0  0
 22 25  1  0  0  0  0
M  END
$$$$

  -OEChem-01062216063D

 25 24  0     1  0  0  0  0  0999 V2000
   -3.0290   -3.4132    1.0109 H   0  0  0  0  0  0  0  0  0  0  0  0
   -2.9702   -2.3476    0.7707 C   0  0  0  0  0  0  0  0  0  0  0  0
   -3.3996   -1.7783    1.5987 H   0  0  0  0  0  0  0  0  0  0  0  0
   -3.5519   -2.1589   -0.1347 H   0  0  0  0  0  0  0  0  0  0  0  0
   -1.5247   -1.9387    0.5559 C   0  0  0  0  0  0  0  0  0  0  0  0
   -0.6675   -2.8030    0.5606 O   0  0  0  0  0  0  0  0  0  0  0  0
   -1.2495   -0.6132    0.2639 N   0  0  0  0  0  0  0  0  0  0  0  0
   -2.0774   -0.0221    0.2651 H   0  0  0  0  0  0  0  0  0  0  0  0
    0.0391    0.1272    0.3164 C   0  0  1  0  0  0  0  0  0  0  0  0
   -0.0323    0.8378    1.1477 H   0  0  0  0  0  0  0  0  0  0  0  0
    1.3405   -0.6870    0.5292 C   0  0  0  0  0  0  0  0  0  0  0  0
    1.4057   -1.4785   -0.2222 H   0  0  0  0  0  0  0  0  0  0  0  0
    2.2046   -0.0323    0.3846 H   0  0  0  0  0  0  0  0  0  0  0  0
    1.4788   -1.3084    1.9172 C   0  0  0  0  0  0  0  0  0  0  0  0
    0.9501   -0.7621    2.8739 O   0  0  0  0  0  0  0  0  0  0  0  0
    2.2599   -2.4089    2.0245 O   0  0  0  0  0  0  0  0  0  0  0  0
    2.2171   -2.6759    2.9540 H   0  0  0  0  0  0  0  0  0  0  0  0
    0.2099    0.9864   -0.9524 C   0  0  0  0  0  0  0  0  0  0  0  0
    0.8335    2.0366   -0.9007 O   0  0  0  0  0  0  0  0  0  0  0  0
   -0.3500    0.5843   -2.1511 N   0  0  0  0  0  0  0  0  0  0  0  0
   -0.7545   -0.3480   -2.1700 H   0  0  0  0  0  0  0  0  0  0  0  0
   -0.1489    1.2970   -3.4068 C   0  0  0  0  0  0  0  0  0  0  0  0
    0.9135    1.3134   -3.6719 H   0  0  0  0  0  0  0  0  0  0  0  0
   -0.7006    0.8054   -4.2138 H   0  0  0  0  0  0  0  0  0  0  0  0
   -0.5067    2.3287   -3.3241 H   0  0  0  0  0  0  0  0  0  0  0  0
  1  2  1  0  0  0  0
  2  3  1  0  0  0  0
  2  4  1  0  0  0  0
  2  5  1  0  0  0  0
  5  6  2  0  0  0  0
  5  7  1  0  0  0  0
  7  8  1  0  0  0  0
  7  9  1  0  0  0  0
  9 10  1  0  0  0  0
  9 11  1  0  0  0  0
  9 18  1  0  0  0  0
 11 12  1  0  0  0  0
 11 13  1  0  0  0  0
 11 14  1  0  0  0  0
 14 15  2  0  0  0  0
 14 16  1  0  0  0  0
 16 17  1  0  0  0  0
 18 19  2  0  0  0  0
 18 20  1  0  0  0  0
 20 21  1  0  0  0  0
 20 22  1  0  0  0  0
 22 23  1  0  0  0  0
 22 24  1  0  0  0  0
 22 25  1  0  0  0  0
M  END
$$$$

  -OEChem-01062216063D

 25 24  0     1  0  0  0  0  0999 V2000
   -3.0194   -3.4250    1.0009 H   0  0  0  0  0  0  0  0  0  0  0  0
   -2.9619   -2.3554    0.7784 C   0  0  0  0  0  0  0  0  0  0  0  0
   -3.3800   -1.8001    1.6217 H   0  0  0  0  0  0  0  0  0  0  0  0
   -3.5550   -2.1502   -0.1159 H   0  0  0  0  0  0  0  0  0  0  0  0
   -1.5185   -1.9447    0.5527 C   0  0  0  0  0  0  0  0  0  0  0  0
   -0.6617   -2.8091    0.5504 O   0  0  0  0  0  0  0  0  0  0  0  0
   -1.2481   -0.6170    0.2642 N   0  0  0  0  0  0  0  0  0  0  0  0
   -2.0771   -0.0281    0.2895 H   0  0  0  0  0  0  0  0  0  0  0  0
    0.0388    0.1295    0.3152 C   0  0  1  0  0  0  0  0  0  0  0  0
   -0.0327    0.8387    1.1475 H   0  0  0  0  0  0  0  0  0  0  0  0
    1.3388   -0.6887    0.5302 C   0  0  0  0  0  0  0  0  0  0  0  0
    1.4029   -1.4799   -0.2216 H   0  0  0  0  0  0  0  0  0  0  0  0
    2.2071   -0.0390    0.3881 H   0  0  0  0  0  0  0  0  0  0  0  0
    1.4737   -1.3084    1.9191 C   0  0  0  0  0  0  0  0  0  0  0  0
    0.9453   -0.7588    2.8744 O   0  0  0  0  0  0  0  0  0  0  0  0
    2.2501   -2.4120    2.0292 O   0  0  0  0  0  0  0  0  0  0  0  0
    2.2042   -2.6785    2.9585 H   0  0  0  0  0  0  0  0  0  0  0  0
    0.2098    0.9973   -0.9510 C   0  0  0  0  0  0  0  0  0  0  0  0
    1.0150    1.9176   -0.9598 O   0  0  0  0  0  0  0  0  0  0  0  0
   -0.5826    0.7833   -2.0643 N   0  0  0  0  0  0  0  0  0  0  0  0
   -1.1251   -0.0758   -2.0664 H   0  0  0  0  0  0  0  0  0  0  0  0
   -0.4138    1.5135   -3.3149 C   0  0  0  0  0  0  0  0  0  0  0  0
    0.5750    1.3173   -3.7425 H   0  0  0  0  0  0  0  0  0  0  0  0
   -1.1736    1.2047   -4.0391 H   0  0  0  0  0  0  0  0  0  0  0  0
   -0.5169    2.5908   -3.1470 H   0  0  0  0  0  0  0  0  0  0  0  0
  1  2  1  0  0  0  0
  2  3  1  0  0  0  0
  2  4  1  0  0  0  0
  2  5  1  0  0  0  0
  5  6  2  0  0  0  0
  5  7  1  0  0  0  0
  7  8  1  0  0  0  0
  7  9  1  0  0  0  0
  9 10  1  0  0  0  0
  9 11  1  0  0  0  0
  9 18  1  0  0  0  0
 11 12  1  0  0  0  0
 11 13  1  0  0  0  0
 11 14  1  0  0  0  0
 14 15  2  0  0  0  0
 14 16  1  0  0  0  0
 16 17  1  0  0  0  0
 18 19  2  0  0  0  0
 18 20  1  0  0  0  0
 20 21  1  0  0  0  0
 20 22  1  0  0  0  0
 22 23  1  0  0  0  0
 22 24  1  0  0  0  0
 22 25  1  0  0  0  0
M  END
$$$$

  -OEChem-01062216063D

 25 24  0     1  0  0  0  0  0999 V2000
   -2.9989   -3.4196    1.0602 H   0  0  0  0  0  0  0  0  0  0  0  0
   -2.9494   -2.3604    0.7911 C   0  0  0  0  0  0  0  0  0  0  0  0
   -3.3659   -1.7724    1.6127 H   0  0  0  0  0  0  0  0  0  0  0  0
   -3.5488   -2.1975   -0.1077 H   0  0  0  0  0  0  0  0  0  0  0  0
   -1.5097   -1.9524    0.5377 C   0  0  0  0  0  0  0  0  0  0  0  0
   -0.6564   -2.8198    0.5221 O   0  0  0  0  0  0  0  0  0  0  0  0
   -1.2414   -0.6227    0.2528 N   0  0  0  0  0  0  0  0  0  0  0  0
   -2.0679   -0.0335    0.3132 H   0  0  0  0  0  0  0  0  0  0  0  0
    0.0473    0.1229    0.3018 C   0  0  1  0  0  0  0  0  0  0  0  0
   -0.0236    0.8327    1.1331 H   0  0  0  0  0  0  0  0  0  0  0  0
    1.3414   -0.7052    0.5285 C   0  0  0  0  0  0  0  0  0  0  0  0
    1.4048   -1.5004   -0.2190 H   0  0  0  0  0  0  0  0  0  0  0  0
    2.2181   -0.0665    0.3908 H   0  0  0  0  0  0  0  0  0  0  0  0
    1.4625   -1.3143    1.9233 C   0  0  0  0  0  0  0  0  0  0  0  0
    0.9326   -0.7514    2.8701 O   0  0  0  0  0  0  0  0  0  0  0  0
    2.2294   -2.4228    2.0489 O   0  0  0  0  0  0  0  0  0  0  0  0
    2.1783   -2.6786    2.9810 H   0  0  0  0  0  0  0  0  0  0  0  0
    0.2195    0.9993   -0.9621 C   0  0  0  0  0  0  0  0  0  0  0  0
    1.1636    1.7717   -1.0539 O   0  0  0  0  0  0  0  0  0  0  0  0
   -0.7497    1.0160   -1.9499 N   0  0  0  0  0  0  0  0  0  0  0  0
   -1.4220    0.2556   -1.9251 H   0  0  0  0  0  0  0  0  0  0  0  0
   -0.6188    1.7955   -3.1757 C   0  0  0  0  0  0  0  0  0  0  0  0
    0.2544    1.4654   -3.7484 H   0  0  0  0  0  0  0  0  0  0  0  0
   -1.5097    1.6743   -3.7992 H   0  0  0  0  0  0  0  0  0  0  0  0
   -0.5045    2.8596   -2.9426 H   0  0  0  0  0  0  0  0  0  0  0  0
  1  2  1  0  0  0  0
  2  3  1  0  0  0  0
  2  4  1  0  0  0  0
  2  5  1  0  0  0  0
  5  6  2  0  0  0  0
  5  7  1  0  0  0  0
  7  8  1  0  0  0  0
  7  9  1  0  0  0  0
  9 10  1  0  0  0  0
  9 11  1  0  0  0  0
  9 18  1  0  0  0  0
 11 12  1  0  0  0  0
 11 13  1  0  0  0  0
 11 14  1  0  0  0  0
 14 15  2  0  0  0  0
 14 16  1  0  0  0  0
 16 17  1  0  0  0  0
 18 19  2  0  0  0  0
 18 20  1  0  0  0  0
 20 21  1  0  0  0  0
 20 22  1  0  0  0  0
 22 23  1  0  0  0  0
 22 24  1  0  0  0  0
 22 25  1  0  0  0  0
M  END
$$$$

  -OEChem-01062216063D

 25 24  0     1  0  0  0  0  0999 V2000
   -2.9976   -3.4159    1.0300 H   0  0  0  0  0  0  0  0  0  0  0  0
   -2.9418   -2.3544    0.7718 C   0  0  0  0  0  0  0  0  0  0  0  0
   -3.3554   -1.7723    1.5990 H   0  0  0  0  0  0  0  0  0  0  0  0
   -3.5395   -2.1793   -0.1259 H   0  0  0  0  0  0  0  0  0  0  0  0
   -1.4999   -1.9521    0.5221 C   0  0  0  0  0  0  0  0  0  0  0  0
   -0.6511   -2.8239    0.5044 O   0  0  0  0  0  0  0  0  0  0  0  0
   -1.2284   -0.6214    0.2444 N   0  0  0  0  0  0  0  0  0  0  0  0
   -2.0513   -0.0321    0.3354 H   0  0  0  0  0  0  0  0  0  0  0  0
    0.0632    0.1197    0.2935 C   0  0  1  0  0  0  0  0  0  0  0  0
   -0.0066    0.8302    1.1240 H   0  0  0  0  0  0  0  0  0  0  0  0
    1.3513   -0.7177    0.5335 C   0  0  0  0  0  0  0  0  0  0  0  0
    1.4149   -1.5171   -0.2095 H   0  0  0  0  0  0  0  0  0  0  0  0
    2.2355   -0.0890    0.4006 H   0  0  0  0  0  0  0  0  0  0  0  0
    1.4601   -1.3174    1.9332 C   0  0  0  0  0  0  0  0  0  0  0  0
    0.9291   -0.7430    2.8727 O   0  0  0  0  0  0  0  0  0  0  0  0
    2.2235   -2.4268    2.0730 O   0  0  0  0  0  0  0  0  0  0  0  0
    2.1699   -2.6731    3.0073 H   0  0  0  0  0  0  0  0  0  0  0  0
    0.2289    1.0026   -0.9703 C   0  0  0  0  0  0  0  0  0  0  0  0
    1.2770    1.5947   -1.1897 O   0  0  0  0  0  0  0  0  0  0  0  0
   -0.8540    1.2681   -1.7914 N   0  0  0  0  0  0  0  0  0  0  0  0
   -1.6491    0.6457   -1.6949 H   0  0  0  0  0  0  0  0  0  0  0  0
   -0.7530    2.0839   -2.9967 C   0  0  0  0  0  0  0  0  0  0  0  0
   -0.0514    1.6334   -3.7067 H   0  0  0  0  0  0  0  0  0  0  0  0
   -1.7310    2.1681   -3.4801 H   0  0  0  0  0  0  0  0  0  0  0  0
   -0.4043    3.0924   -2.7499 H   0  0  0  0  0  0  0  0  0  0  0  0
  1  2  1  0  0  0  0
  2  3  1  0  0  0  0
  2  4  1  0  0  0  0
  2  5  1  0  0  0  0
  5  6  2  0  0  0  0
  5  7  1  0  0  0  0
  7  8  1  0  0  0  0
  7  9  1  0  0  0  0
  9 10  1  0  0  0  0
  9 11  1  0  0  0  0
  9 18  1  0  0  0  0
 11 12  1  0  0  0  0
 11 13  1  0  0  0  0
 11 14  1  0  0  0  0
 14 15  2  0  0  0  0
 14 16  1  0  0  0  0
 16 17  1  0  0  0  0
 18 19  2  0  0  0  0
 18 20  1  0  0  0  0
 20 21  1  0  0  0  0
 20 22  1  0  0  0  0
 22 23  1  0  0  0  0
 22 24  1  0  0  0  0
 22 25  1  0  0  0  0
M  END
$$$$

  -OEChem-01062216063D

 25 24  0     1  0  0  0  0  0999 V2000
   -3.0000   -3.4167    0.9767 H   0  0  0  0  0  0  0  0  0  0  0  0
   -2.9374   -2.3510    0.7380 C   0  0  0  0  0  0  0  0  0  0  0  0
   -3.3581   -1.7820    1.5705 H   0  0  0  0  0  0  0  0  0  0  0  0
   -3.5245   -2.1586   -0.1631 H   0  0  0  0  0  0  0  0  0  0  0  0
   -1.4912   -1.9499    0.5117 C   0  0  0  0  0  0  0  0  0  0  0  0
   -0.6430   -2.8224    0.5191 O   0  0  0  0  0  0  0  0  0  0  0  0
   -1.2155   -0.6181    0.2414 N   0  0  0  0  0  0  0  0  0  0  0  0
   -2.0396   -0.0314    0.3242 H   0  0  0  0  0  0  0  0  0  0  0  0
    0.0791    0.1177    0.2891 C   0  0  1  0  0  0  0  0  0  0  0  0
    0.0110    0.8277    1.1199 H   0  0  0  0  0  0  0  0  0  0  0  0
    1.3632   -0.7252    0.5395 C   0  0  0  0  0  0  0  0  0  0  0  0
    1.4277   -1.5275   -0.2003 H   0  0  0  0  0  0  0  0  0  0  0  0
    2.2509   -0.1007    0.4098 H   0  0  0  0  0  0  0  0  0  0  0  0
    1.4653   -1.3161    1.9436 C   0  0  0  0  0  0  0  0  0  0  0  0
    0.9345   -0.7321    2.8776 O   0  0  0  0  0  0  0  0  0  0  0  0
    2.2207   -2.4296    2.0933 O   0  0  0  0  0  0  0  0  0  0  0  0
    2.1611   -2.6705    3.0285 H   0  0  0  0  0  0  0  0  0  0  0  0
    0.2361    1.0076   -0.9741 C   0  0  0  0  0  0  0  0  0  0  0  0
    1.3364    1.3649   -1.3732 O   0  0  0  0  0  0  0  0  0  0  0  0
   -0.8787    1.5337   -1.6066 N   0  0  0  0  0  0  0  0  0  0  0  0
   -1.7771    1.1383   -1.3563 H   0  0  0  0  0  0  0  0  0  0  0  0
   -0.7953    2.3692   -2.8001 C   0  0  0  0  0  0  0  0  0  0  0  0
   -0.3244    1.8183   -3.6213 H   0  0  0  0  0  0  0  0  0  0  0  0
   -1.7958    2.6777   -3.1180 H   0  0  0  0  0  0  0  0  0  0  0  0
   -0.2059    3.2698   -2.5974 H   0  0  0  0  0  0  0  0  0  0  0  0
  1  2  1  0  0  0  0
  2  3  1  0  0  0  0
  2  4  1  0  0  0  0
  2  5  1  0  0  0  0
  5  6  2  0  0  0  0
  5  7  1  0  0  0  0
  7  8  1  0  0  0  0
  7  9  1  0  0  0  0
  9 10  1  0  0  0  0
  9 11  1  0  0  0  0
  9 18  1  0  0  0  0
 11 12  1  0  0  0  0
 11 13  1  0  0  0  0
 11 14  1  0  0  0  0
 14 15  2  0  0  0  0
 14 16  1  0  0  0  0
 16 17  1  0  0  0  0
 18 19  2  0  0  0  0
 18 20  1  0  0  0  0
 20 21  1  0  0  0  0
 20 22  1  0  0  0  0
 22 23  1  0  0  0  0
 22 24  1  0  0  0  0
 22 25  1  0  0  0  0
M  END
$$$$

  -OEChem-01062216063D

 25 24  0     1  0  0  0  0  0999 V2000
   -3.0753   -3.3847    0.8873 H   0  0  0  0  0  0  0  0  0  0  0  0
   -2.9751   -2.3305    0.6129 C   0  0  0  0  0  0  0  0  0  0  0  0
   -3.5233   -1.7268    1.3401 H   0  0  0  0  0  0  0  0  0  0  0  0
   -3.4105   -2.1836   -0.3784 H   0  0  0  0  0  0  0  0  0  0  0  0
   -1.5115   -1.9288    0.6024 C   0  0  0  0  0  0  0  0  0  0  0  0
   -0.6792   -2.7877    0.8258 O   0  0  0  0  0  0  0  0  0  0  0  0
   -1.1991   -0.6116    0.3030 N   0  0  0  0  0  0  0  0  0  0  0  0
   -2.0143   -0.0440    0.0986 H   0  0  0  0  0  0  0  0  0  0  0  0
    0.1088    0.0991    0.2953 C   0  0  1  0  0  0  0  0  0  0  0  0
    0.0737    0.8272    1.1120 H   0  0  0  0  0  0  0  0  0  0  0  0
    1.3909   -0.7471    0.5368 C   0  0  0  0  0  0  0  0  0  0  0  0
    1.4165   -1.5774   -0.1741 H   0  0  0  0  0  0  0  0  0  0  0  0
    2.2784   -0.1363    0.3507 H   0  0  0  0  0  0  0  0  0  0  0  0
    1.5344   -1.2963    1.9544 C   0  0  0  0  0  0  0  0  0  0  0  0
    1.0383   -0.6787    2.8860 O   0  0  0  0  0  0  0  0  0  0  0  0
    2.2882   -2.4096    2.1148 O   0  0  0  0  0  0  0  0  0  0  0  0
    2.2411   -2.6297    3.0558 H   0  0  0  0  0  0  0  0  0  0  0  0
    0.2267    0.9592   -0.9903 C   0  0  0  0  0  0  0  0  0  0  0  0
    1.2466    0.9847   -1.6660 O   0  0  0  0  0  0  0  0  0  0  0  0
   -0.8445    1.7367   -1.4015 N   0  0  0  0  0  0  0  0  0  0  0  0
   -1.6313    1.8222   -0.7685 H   0  0  0  0  0  0  0  0  0  0  0  0
   -0.7856    2.6200   -2.5614 C   0  0  0  0  0  0  0  0  0  0  0  0
   -0.5221    2.0548   -3.4619 H   0  0  0  0  0  0  0  0  0  0  0  0
   -1.7577    3.0943   -2.7264 H   0  0  0  0  0  0  0  0  0  0  0  0
   -0.0373    3.4048   -2.4077 H   0  0  0  0  0  0  0  0  0  0  0  0
  1  2  1  0  0  0  0
  2  3  1  0  0  0  0
  2  4  1  0  0  0  0
  2  5  1  0  0  0  0
  5  6  2  0  0  0  0
  5  7  1  0  0  0  0
  7  8  1  0  0  0  0
  7  9  1  0  0  0  0
  9 10  1  0  0  0  0
  9 11  1  0  0  0  0
  9 18  1  0  0  0  0
 11 12  1  0  0  0  0
 11 13  1  0  0  0  0
 11 14  1  0  0  0  0
 14 15  2  0  0  0  0
 14 16  1  0  0  0  0
 16 17  1  0  0  0  0
 18 19  2  0  0  0  0
 18 20  1  0  0  0  0
 20 21  1  0  0  0  0
 20 22  1  0  0  0  0
 22 23  1  0  0  0  0
 22 24  1  0  0  0  0
 22 25  1  0  0  0  0
M  END
$$$$

  -OEChem-01062216063D

 25 24  0     1  0  0  0  0  0999 V2000
   -3.0996   -3.3608    0.8154 H   0  0  0  0  0  0  0  0  0  0  0  0
   -2.9860   -2.3044    0.5553 C   0  0  0  0  0  0  0  0  0  0  0  0
   -3.5825   -1.7070    1.2489 H   0  0  0  0  0  0  0  0  0  0  0  0
   -3.3561   -2.1523   -0.4615 H   0  0  0  0  0  0  0  0  0  0  0  0
   -1.5264   -1.8972    0.6423 C   0  0  0  0  0  0  0  0  0  0  0  0
   -0.7099   -2.7470    0.9455 O   0  0  0  0  0  0  0  0  0  0  0  0
   -1.1978   -0.5858    0.3366 N   0  0  0  0  0  0  0  0  0  0  0  0
   -1.9922   -0.0335    0.0289 H   0  0  0  0  0  0  0  0  0  0  0  0
    0.1165    0.1090    0.3183 C   0  0  1  0  0  0  0  0  0  0  0  0
    0.0984    0.8379    1.1348 H   0  0  0  0  0  0  0  0  0  0  0  0
    1.3982   -0.7399    0.5413 C   0  0  0  0  0  0  0  0  0  0  0  0
    1.4050   -1.5719   -0.1687 H   0  0  0  0  0  0  0  0  0  0  0  0
    2.2821   -0.1309    0.3335 H   0  0  0  0  0  0  0  0  0  0  0  0
    1.5633   -1.2953    1.9541 C   0  0  0  0  0  0  0  0  0  0  0  0
    1.0826   -0.6799    2.8952 O   0  0  0  0  0  0  0  0  0  0  0  0
    2.3220   -2.4074    2.0991 O   0  0  0  0  0  0  0  0  0  0  0  0
    2.2863   -2.6325    3.0396 H   0  0  0  0  0  0  0  0  0  0  0  0
    0.2189    0.9555   -0.9730 C   0  0  0  0  0  0  0  0  0  0  0  0
    1.0845    0.7605   -1.8154 O   0  0  0  0  0  0  0  0  0  0  0  0
   -0.7112    1.9562   -1.2013 N   0  0  0  0  0  0  0  0  0  0  0  0
   -1.3401    2.1921   -0.4405 H   0  0  0  0  0  0  0  0  0  0  0  0
   -0.6611    2.8363   -2.3640 C   0  0  0  0  0  0  0  0  0  0  0  0
   -0.6914    2.2515   -3.2894 H   0  0  0  0  0  0  0  0  0  0  0  0
   -1.5171    3.5179   -2.3608 H   0  0  0  0  0  0  0  0  0  0  0  0
    0.2579    3.4318   -2.3549 H   0  0  0  0  0  0  0  0  0  0  0  0
  1  2  1  0  0  0  0
  2  3  1  0  0  0  0
  2  4  1  0  0  0  0
  2  5  1  0  0  0  0
  5  6  2  0  0  0  0
  5  7  1  0  0  0  0
  7  8  1  0  0  0  0
  7  9  1  0  0  0  0
  9 10  1  0  0  0  0
  9 11  1  0  0  0  0
  9 18  1  0  0  0  0
 11 12  1  0  0  0  0
 11 13  1  0  0  0  0
 11 14  1  0  0  0  0
 14 15  2  0  0  0  0
 14 16  1  0  0  0  0
 16 17  1  0  0  0  0
 18 19  2  0  0  0  0
 18 20  1  0  0  0  0
 20 21  1  0  0  0  0
 20 22  1  0  0  0  0
 22 23  1  0  0  0  0
 22 24  1  0  0  0  0
 22 25  1  0  0  0  0
M  END
$$$$

  -OEChem-01062216063D

 25 24  0     1  0  0  0  0  0999 V2000
   -3.1013   -3.3532    0.8107 H   0  0  0  0  0  0  0  0  0  0  0  0
   -2.9862   -2.2978    0.5471 C   0  0  0  0  0  0  0  0  0  0  0  0
   -3.5939   -1.6981    1.2289 H   0  0  0  0  0  0  0  0  0  0  0  0
   -3.3423   -2.1518   -0.4755 H   0  0  0  0  0  0  0  0  0  0  0  0
   -1.5288   -1.8867    0.6524 C   0  0  0  0  0  0  0  0  0  0  0  0
   -0.7148   -2.7326    0.9732 O   0  0  0  0  0  0  0  0  0  0  0  0
   -1.2006   -0.5747    0.3496 N   0  0  0  0  0  0  0  0  0  0  0  0
   -1.9915   -0.0251    0.0266 H   0  0  0  0  0  0  0  0  0  0  0  0
    0.1116    0.1208    0.3358 C   0  0  1  0  0  0  0  0  0  0  0  0
    0.0945    0.8417    1.1592 H   0  0  0  0  0  0  0  0  0  0  0  0
    1.3972   -0.7242    0.5425 C   0  0  0  0  0  0  0  0  0  0  0  0
    1.4004   -1.5498   -0.1753 H   0  0  0  0  0  0  0  0  0  0  0  0
    2.2763   -0.1098    0.3312 H   0  0  0  0  0  0  0  0  0  0  0  0
    1.5725   -1.2971    1.9470 C   0  0  0  0  0  0  0  0  0  0  0  0
    1.0937   -0.6954    2.8979 O   0  0  0  0  0  0  0  0  0  0  0  0
    2.3330   -2.4101    2.0738 O   0  0  0  0  0  0  0  0  0  0  0  0
    2.2936   -2.6535    3.0096 H   0  0  0  0  0  0  0  0  0  0  0  0
    0.2144    0.9677   -0.9524 C   0  0  0  0  0  0  0  0  0  0  0  0
    0.8869    0.6103   -1.9097 O   0  0  0  0  0  0  0  0  0  0  0  0
   -0.4993    2.1501   -1.0461 N   0  0  0  0  0  0  0  0  0  0  0  0
   -0.9848    2.4749   -0.2153 H   0  0  0  0  0  0  0  0  0  0  0  0
   -0.4335    3.0281   -2.2094 C   0  0  0  0  0  0  0  0  0  0  0  0
   -0.7353    2.4897   -3.1142 H   0  0  0  0  0  0  0  0  0  0  0  0
   -1.1040    3.8827   -2.0785 H   0  0  0  0  0  0  0  0  0  0  0  0
    0.5854    3.4050   -2.3478 H   0  0  0  0  0  0  0  0  0  0  0  0
  1  2  1  0  0  0  0
  2  3  1  0  0  0  0
  2  4  1  0  0  0  0
  2  5  1  0  0  0  0
  5  6  2  0  0  0  0
  5  7  1  0  0  0  0
  7  8  1  0  0  0  0
  7  9  1  0  0  0  0
  9 10  1  0  0  0  0
  9 11  1  0  0  0  0
  9 18  1  0  0  0  0
 11 12  1  0  0  0  0
 11 13  1  0  0  0  0
 11 14  1  0  0  0  0
 14 15  2  0  0  0  0
 14 16  1  0  0  0  0
 16 17  1  0  0  0  0
 18 19  2  0  0  0  0
 18 20  1  0  0  0  0
 20 21  1  0  0  0  0
 20 22  1  0  0  0  0
 22 23  1  0  0  0  0
 22 24  1  0  0  0  0
 22 25  1  0  0  0  0
M  END
$$$$

  -OEChem-01062216063D

 25 24  0     1  0  0  0  0  0999 V2000
   -3.1035   -3.3526    0.7951 H   0  0  0  0  0  0  0  0  0  0  0  0
   -2.9885   -2.2965    0.5346 C   0  0  0  0  0  0  0  0  0  0  0  0
   -3.6142   -1.7005    1.2031 H   0  0  0  0  0  0  0  0  0  0  0  0
   -3.3224   -2.1514   -0.4957 H   0  0  0  0  0  0  0  0  0  0  0  0
   -1.5363   -1.8775    0.6720 C   0  0  0  0  0  0  0  0  0  0  0  0
   -0.7264   -2.7165    1.0208 O   0  0  0  0  0  0  0  0  0  0  0  0
   -1.2080   -0.5657    0.3699 N   0  0  0  0  0  0  0  0  0  0  0  0
   -1.9929   -0.0240    0.0194 H   0  0  0  0  0  0  0  0  0  0  0  0
    0.1035    0.1289    0.3544 C   0  0  1  0  0  0  0  0  0  0  0  0
    0.0878    0.8419    1.1846 H   0  0  0  0  0  0  0  0  0  0  0  0
    1.3934   -0.7119    0.5428 C   0  0  0  0  0  0  0  0  0  0  0  0
    1.3905   -1.5322   -0.1811 H   0  0  0  0  0  0  0  0  0  0  0  0
    2.2681   -0.0932    0.3270 H   0  0  0  0  0  0  0  0  0  0  0  0
    1.5839   -1.2983    1.9396 C   0  0  0  0  0  0  0  0  0  0  0  0
    1.1108   -0.7082    2.9006 O   0  0  0  0  0  0  0  0  0  0  0  0
    2.3520   -2.4080    2.0481 O   0  0  0  0  0  0  0  0  0  0  0  0
    2.3174   -2.6639    2.9808 H   0  0  0  0  0  0  0  0  0  0  0  0
    0.2100    0.9779   -0.9304 C   0  0  0  0  0  0  0  0  0  0  0  0
    0.6316    0.5014   -1.9749 O   0  0  0  0  0  0  0  0  0  0  0  0
   -0.2302    2.2899   -0.9241 N   0  0  0  0  0  0  0  0  0  0  0  0
   -0.5313    2.6835   -0.0374 H   0  0  0  0  0  0  0  0  0  0  0  0
   -0.1436    3.1645   -2.0883 C   0  0  0  0  0  0  0  0  0  0  0  0
   -0.6910    2.7337   -2.9335 H   0  0  0  0  0  0  0  0  0  0  0  0
   -0.5770    4.1431   -1.8606 H   0  0  0  0  0  0  0  0  0  0  0  0
    0.9015    3.3081   -2.3822 H   0  0  0  0  0  0  0  0  0  0  0  0
  1  2  1  0  0  0  0
  2  3  1  0  0  0  0
  2  4  1  0  0  0  0
  2  5  1  0  0  0  0
  5  6  2  0  0  0  0
  5  7  1  0  0  0  0
  7  8  1  0  0  0  0
  7  9  1  0  0  0  0
  9 10  1  0  0  0  0
  9 11  1  0  0  0  0
  9 18  1  0  0  0  0
 11 12  1  0  0  0  0
 11 13  1  0  0  0  0
 11 14  1  0  0  0  0
 14 15  2  0  0  0  0
 14 16  1  0  0  0  0
 16 17  1  0  0  0  0
 18 19  2  0  0  0  0
 18 20  1  0  0  0  0
 20 21  1  0  0  0  0
 20 22  1  0  0  0  0
 22 23  1  0  0  0  0
 22 24  1  0  0  0  0
 22 25  1  0  0  0  0
M  END
$$$$

  -OEChem-01062216063D

 25 24  0     1  0  0  0  0  0999 V2000
   -3.1054   -3.3454    0.7717 H   0  0  0  0  0  0  0  0  0  0  0  0
   -2.9859   -2.2899    0.5108 C   0  0  0  0  0  0  0  0  0  0  0  0
   -3.6357   -1.6931    1.1551 H   0  0  0  0  0  0  0  0  0  0  0  0
   -3.2856   -2.1503   -0.5306 H   0  0  0  0  0  0  0  0  0  0  0  0
   -1.5411   -1.8636    0.6943 C   0  0  0  0  0  0  0  0  0  0  0  0
   -0.7399   -2.6951    1.0797 O   0  0  0  0  0  0  0  0  0  0  0  0
   -1.2090   -0.5533    0.3924 N   0  0  0  0  0  0  0  0  0  0  0  0
   -1.9796   -0.0257   -0.0084 H   0  0  0  0  0  0  0  0  0  0  0  0
    0.1044    0.1364    0.3762 C   0  0  1  0  0  0  0  0  0  0  0  0
    0.0889    0.8432    1.2115 H   0  0  0  0  0  0  0  0  0  0  0  0
    1.3943   -0.7051    0.5500 C   0  0  0  0  0  0  0  0  0  0  0  0
    1.3835   -1.5202   -0.1800 H   0  0  0  0  0  0  0  0  0  0  0  0
    2.2682   -0.0858    0.3322 H   0  0  0  0  0  0  0  0  0  0  0  0
    1.5958   -1.3040    1.9401 C   0  0  0  0  0  0  0  0  0  0  0  0
    1.1300   -0.7227    2.9097 O   0  0  0  0  0  0  0  0  0  0  0  0
    2.3647   -2.4145    2.0325 O   0  0  0  0  0  0  0  0  0  0  0  0
    2.3328   -2.6810    2.9625 H   0  0  0  0  0  0  0  0  0  0  0  0
    0.2194    0.9872   -0.9056 C   0  0  0  0  0  0  0  0  0  0  0  0
    0.3405    0.4569   -2.0010 O   0  0  0  0  0  0  0  0  0  0  0  0
    0.0891    2.3629   -0.8389 N   0  0  0  0  0  0  0  0  0  0  0  0
    0.0068    2.7875    0.0803 H   0  0  0  0  0  0  0  0  0  0  0  0
    0.1659    3.2295   -2.0097 C   0  0  0  0  0  0  0  0  0  0  0  0
   -0.6114    2.9654   -2.7346 H   0  0  0  0  0  0  0  0  0  0  0  0
    0.0237    4.2742   -1.7175 H   0  0  0  0  0  0  0  0  0  0  0  0
    1.1442    3.1350   -2.4927 H   0  0  0  0  0  0  0  0  0  0  0  0
  1  2  1  0  0  0  0
  2  3  1  0  0  0  0
  2  4  1  0  0  0  0
  2  5  1  0  0  0  0
  5  6  2  0  0  0  0
  5  7  1  0  0  0  0
  7  8  1  0  0  0  0
  7  9  1  0  0  0  0
  9 10  1  0  0  0  0
  9 11  1  0  0  0  0
  9 18  1  0  0  0  0
 11 12  1  0  0  0  0
 11 13  1  0  0  0  0
 11 14  1  0  0  0  0
 14 15  2  0  0  0  0
 14 16  1  0  0  0  0
 16 17  1  0  0  0  0
 18 19  2  0  0  0  0
 18 20  1  0  0  0  0
 20 21  1  0  0  0  0
 20 22  1  0  0  0  0
 22 23  1  0  0  0  0
 22 24  1  0  0  0  0
 22 25  1  0  0  0  0
M  END
$$$$

  -OEChem-01062216063D

 25 24  0     1  0  0  0  0  0999 V2000
   -3.1072   -3.3383    0.7566 H   0  0  0  0  0  0  0  0  0  0  0  0
   -2.9835   -2.2846    0.4910 C   0  0  0  0  0  0  0  0  0  0  0  0
   -3.6533   -1.6852    1.1120 H   0  0  0  0  0  0  0  0  0  0  0  0
   -3.2538   -2.1540   -0.5598 H   0  0  0  0  0  0  0  0  0  0  0  0
   -1.5458   -1.8520    0.7131 C   0  0  0  0  0  0  0  0  0  0  0  0
   -0.7540   -2.6777    1.1301 O   0  0  0  0  0  0  0  0  0  0  0  0
   -1.2075   -0.5440    0.4086 N   0  0  0  0  0  0  0  0  0  0  0  0
   -1.9592   -0.0330   -0.0471 H   0  0  0  0  0  0  0  0  0  0  0  0
    0.1097    0.1382    0.3882 C   0  0  1  0  0  0  0  0  0  0  0  0
    0.0941    0.8449    1.2238 H   0  0  0  0  0  0  0  0  0  0  0  0
    1.3973   -0.7073    0.5567 C   0  0  0  0  0  0  0  0  0  0  0  0
    1.3784   -1.5223   -0.1730 H   0  0  0  0  0  0  0  0  0  0  0  0
    2.2729   -0.0919    0.3350 H   0  0  0  0  0  0  0  0  0  0  0  0
    1.6044   -1.3082    1.9454 C   0  0  0  0  0  0  0  0  0  0  0  0
    1.1456   -0.7265    2.9180 O   0  0  0  0  0  0  0  0  0  0  0  0
    2.3710   -2.4207    2.0321 O   0  0  0  0  0  0  0  0  0  0  0  0
    2.3402   -2.6902    2.9614 H   0  0  0  0  0  0  0  0  0  0  0  0
    0.2323    0.9889   -0.8931 C   0  0  0  0  0  0  0  0  0  0  0  0
    0.0374    0.4881   -1.9922 O   0  0  0  0  0  0  0  0  0  0  0  0
    0.4250    2.3561   -0.8061 N   0  0  0  0  0  0  0  0  0  0  0  0
    0.5785    2.7563    0.1152 H   0  0  0  0  0  0  0  0  0  0  0  0
    0.4902    3.2297   -1.9725 C   0  0  0  0  0  0  0  0  0  0  0  0
   -0.4416    3.1749   -2.5454 H   0  0  0  0  0  0  0  0  0  0  0  0
    0.6426    4.2675   -1.6606 H   0  0  0  0  0  0  0  0  0  0  0  0
    1.3211    2.9384   -2.6238 H   0  0  0  0  0  0  0  0  0  0  0  0
  1  2  1  0  0  0  0
  2  3  1  0  0  0  0
  2  4  1  0  0  0  0
  2  5  1  0  0  0  0
  5  6  2  0  0  0  0
  5  7  1  0  0  0  0
  7  8  1  0  0  0  0
  7  9  1  0  0  0  0
  9 10  1  0  0  0  0
  9 11  1  0  0  0  0
  9 18  1  0  0  0  0
 11 12  1  0  0  0  0
 11 13  1  0  0  0  0
 11 14  1  0  0  0  0
 14 15  2  0  0  0  0
 14 16  1  0  0  0  0
 16 17  1  0  0  0  0
 18 19  2  0  0  0  0
 18 20  1  0  0  0  0
 20 21  1  0  0  0  0
 20 22  1  0  0  0  0
 22 23  1  0  0  0  0
 22 24  1  0  0  0  0
 22 25  1  0  0  0  0
M  END
$$$$

  -OEChem-01062216063D

 25 24  0     1  0  0  0  0  0999 V2000
   -3.1085   -3.3334    0.7452 H   0  0  0  0  0  0  0  0  0  0  0  0
   -2.9809   -2.2803    0.4793 C   0  0  0  0  0  0  0  0  0  0  0  0
   -3.6645   -1.6796    1.0839 H   0  0  0  0  0  0  0  0  0  0  0  0
   -3.2297   -2.1526   -0.5771 H   0  0  0  0  0  0  0  0  0  0  0  0
   -1.5487   -1.8451    0.7294 C   0  0  0  0  0  0  0  0  0  0  0  0
   -0.7635   -2.6667    1.1668 O   0  0  0  0  0  0  0  0  0  0  0  0
   -1.2048   -0.5404    0.4199 N   0  0  0  0  0  0  0  0  0  0  0  0
   -1.9388   -0.0448   -0.0811 H   0  0  0  0  0  0  0  0  0  0  0  0
    0.1151    0.1356    0.3914 C   0  0  1  0  0  0  0  0  0  0  0  0
    0.1019    0.8474    1.2229 H   0  0  0  0  0  0  0  0  0  0  0  0
    1.3995   -0.7147    0.5597 C   0  0  0  0  0  0  0  0  0  0  0  0
    1.3739   -1.5339   -0.1648 H   0  0  0  0  0  0  0  0  0  0  0  0
    2.2780   -0.1057    0.3331 H   0  0  0  0  0  0  0  0  0  0  0  0
    1.6093   -1.3092    1.9506 C   0  0  0  0  0  0  0  0  0  0  0  0
    1.1571   -0.7208    2.9218 O   0  0  0  0  0  0  0  0  0  0  0  0
    2.3726   -2.4236    2.0398 O   0  0  0  0  0  0  0  0  0  0  0  0
    2.3418   -2.6893    2.9705 H   0  0  0  0  0  0  0  0  0  0  0  0
    0.2404    0.9839   -0.8919 C   0  0  0  0  0  0  0  0  0  0  0  0
   -0.2391    0.5898   -1.9472 O   0  0  0  0  0  0  0  0  0  0  0  0
    0.7434    2.2709   -0.8266 N   0  0  0  0  0  0  0  0  0  0  0  0
    1.1135    2.5909    0.0640 H   0  0  0  0  0  0  0  0  0  0  0  0
    0.8136    3.1613   -1.9797 C   0  0  0  0  0  0  0  0  0  0  0  0
   -0.1873    3.3427   -2.3858 H   0  0  0  0  0  0  0  0  0  0  0  0
    1.2476    4.1230   -1.6897 H   0  0  0  0  0  0  0  0  0  0  0  0
    1.4381    2.7227   -2.7651 H   0  0  0  0  0  0  0  0  0  0  0  0
  1  2  1  0  0  0  0
  2  3  1  0  0  0  0
  2  4  1  0  0  0  0
  2  5  1  0  0  0  0
  5  6  2  0  0  0  0
  5  7  1  0  0  0  0
  7  8  1  0  0  0  0
  7  9  1  0  0  0  0
  9 10  1  0  0  0  0
  9 11  1  0  0  0  0
  9 18  1  0  0  0  0
 11 12  1  0  0  0  0
 11 13  1  0  0  0  0
 11 14  1  0  0  0  0
 14 15  2  0  0  0  0
 14 16  1  0  0  0  0
 16 17  1  0  0  0  0
 18 19  2  0  0  0  0
 18 20  1  0  0  0  0
 20 21  1  0  0  0  0
 20 22  1  0  0  0  0
 22 23  1  0  0  0  0
 22 24  1  0  0  0  0
 22 25  1  0  0  0  0
M  END
$$$$

  -OEChem-01062216063D

 25 24  0     1  0  0  0  0  0999 V2000
   -3.1112   -3.3325    0.7611 H   0  0  0  0  0  0  0  0  0  0  0  0
   -2.9808   -2.2816    0.4877 C   0  0  0  0  0  0  0  0  0  0  0  0
   -3.6561   -1.6744    1.0950 H   0  0  0  0  0  0  0  0  0  0  0  0
   -3.2381   -2.1582   -0.5672 H   0  0  0  0  0  0  0  0  0  0  0  0
   -1.5445   -1.8518    0.7229 C   0  0  0  0  0  0  0  0  0  0  0  0
   -0.7573   -2.6777    1.1489 O   0  0  0  0  0  0  0  0  0  0  0  0
   -1.1980   -0.5481    0.4130 N   0  0  0  0  0  0  0  0  0  0  0  0
   -1.9287   -0.0511   -0.0930 H   0  0  0  0  0  0  0  0  0  0  0  0
    0.1205    0.1309    0.3841 C   0  0  1  0  0  0  0  0  0  0  0  0
    0.1045    0.8481    1.2110 H   0  0  0  0  0  0  0  0  0  0  0  0
    1.4023   -0.7231    0.5609 C   0  0  0  0  0  0  0  0  0  0  0  0
    1.3762   -1.5464   -0.1589 H   0  0  0  0  0  0  0  0  0  0  0  0
    2.2857   -0.1210    0.3356 H   0  0  0  0  0  0  0  0  0  0  0  0
    1.6035   -1.3104    1.9563 C   0  0  0  0  0  0  0  0  0  0  0  0
    1.1492   -0.7155    2.9223 O   0  0  0  0  0  0  0  0  0  0  0  0
    2.3643   -2.4258    2.0547 O   0  0  0  0  0  0  0  0  0  0  0  0
    2.3288   -2.6869    2.9866 H   0  0  0  0  0  0  0  0  0  0  0  0
    0.2490    0.9802   -0.8997 C   0  0  0  0  0  0  0  0  0  0  0  0
   -0.4429    0.7376   -1.8813 O   0  0  0  0  0  0  0  0  0  0  0  0
    1.0224    2.1275   -0.8962 N   0  0  0  0  0  0  0  0  0  0  0  0
    1.5561    2.3365   -0.0572 H   0  0  0  0  0  0  0  0  0  0  0  0
    1.1191    3.0321   -2.0362 C   0  0  0  0  0  0  0  0  0  0  0  0
    0.1368    3.4522   -2.2769 H   0  0  0  0  0  0  0  0  0  0  0  0
    1.8010    3.8571   -1.8082 H   0  0  0  0  0  0  0  0  0  0  0  0
    1.5000    2.5017   -2.9154 H   0  0  0  0  0  0  0  0  0  0  0  0
  1  2  1  0  0  0  0
  2  3  1  0  0  0  0
  2  4  1  0  0  0  0
  2  5  1  0  0  0  0
  5  6  2  0  0  0  0
  5  7  1  0  0  0  0
  7  8  1  0  0  0  0
  7  9  1  0  0  0  0
  9 10  1  0  0  0  0
  9 11  1  0  0  0  0
  9 18  1  0  0  0  0
 11 12  1  0  0  0  0
 11 13  1  0  0  0  0
 11 14  1  0  0  0  0
 14 15  2  0  0  0  0
 14 16  1  0  0  0  0
 16 17  1  0  0  0  0
 18 19  2  0  0  0  0
 18 20  1  0  0  0  0
 20 21  1  0  0  0  0
 20 22  1  0  0  0  0
 22 23  1  0  0  0  0
 22 24  1  0  0  0  0
 22 25  1  0  0  0  0
M  END
$$$$

  -OEChem-01062216063D

 25 24  0     1  0  0  0  0  0999 V2000
   -3.1097   -3.3315    0.7501 H   0  0  0  0  0  0  0  0  0  0  0  0
   -2.9775   -2.2776    0.4894 C   0  0  0  0  0  0  0  0  0  0  0  0
   -3.6436   -1.6757    1.1121 H   0  0  0  0  0  0  0  0  0  0  0  0
   -3.2461   -2.1392   -0.5608 H   0  0  0  0  0  0  0  0  0  0  0  0
   -1.5370   -1.8569    0.7155 C   0  0  0  0  0  0  0  0  0  0  0  0
   -0.7492   -2.6923    1.1219 O   0  0  0  0  0  0  0  0  0  0  0  0
   -1.1858   -0.5526    0.4132 N   0  0  0  0  0  0  0  0  0  0  0  0
   -1.9172   -0.0454   -0.0835 H   0  0  0  0  0  0  0  0  0  0  0  0
    0.1309    0.1304    0.3887 C   0  0  1  0  0  0  0  0  0  0  0  0
    0.1159    0.8482    1.2153 H   0  0  0  0  0  0  0  0  0  0  0  0
    1.4073   -0.7335    0.5706 C   0  0  0  0  0  0  0  0  0  0  0  0
    1.3780   -1.5568   -0.1490 H   0  0  0  0  0  0  0  0  0  0  0  0
    2.2989   -0.1425    0.3517 H   0  0  0  0  0  0  0  0  0  0  0  0
    1.5963   -1.3226    1.9670 C   0  0  0  0  0  0  0  0  0  0  0  0
    1.1412   -0.7254    2.9309 O   0  0  0  0  0  0  0  0  0  0  0  0
    2.3504   -2.4420    2.0684 O   0  0  0  0  0  0  0  0  0  0  0  0
    2.3083   -2.7036    2.9999 H   0  0  0  0  0  0  0  0  0  0  0  0
    0.2536    0.9856   -0.8947 C   0  0  0  0  0  0  0  0  0  0  0  0
   -0.5984    0.9158   -1.7736 O   0  0  0  0  0  0  0  0  0  0  0  0
    1.2417    1.9485   -1.0040 N   0  0  0  0  0  0  0  0  0  0  0  0
    1.9119    2.0272   -0.2446 H   0  0  0  0  0  0  0  0  0  0  0  0
    1.3701    2.8393   -2.1519 C   0  0  0  0  0  0  0  0  0  0  0  0
    0.4694    3.4519   -2.2650 H   0  0  0  0  0  0  0  0  0  0  0  0
    2.2271    3.5068   -2.0196 H   0  0  0  0  0  0  0  0  0  0  0  0
    1.5206    2.2617   -3.0701 H   0  0  0  0  0  0  0  0  0  0  0  0
  1  2  1  0  0  0  0
  2  3  1  0  0  0  0
  2  4  1  0  0  0  0
  2  5  1  0  0  0  0
  5  6  2  0  0  0  0
  5  7  1  0  0  0  0
  7  8  1  0  0  0  0
  7  9  1  0  0  0  0
  9 10  1  0  0  0  0
  9 11  1  0  0  0  0
  9 18  1  0  0  0  0
 11 12  1  0  0  0  0
 11 13  1  0  0  0  0
 11 14  1  0  0  0  0
 14 15  2  0  0  0  0
 14 16  1  0  0  0  0
 16 17  1  0  0  0  0
 18 19  2  0  0  0  0
 18 20  1  0  0  0  0
 20 21  1  0  0  0  0
 20 22  1  0  0  0  0
 22 23  1  0  0  0  0
 22 24  1  0  0  0  0
 22 25  1  0  0  0  0
M  END
$$$$

  -OEChem-01062216063D

 25 24  0     1  0  0  0  0  0999 V2000
   -3.1669   -3.2712    0.8018 H   0  0  0  0  0  0  0  0  0  0  0  0
   -3.0058   -2.2180    0.5552 C   0  0  0  0  0  0  0  0  0  0  0  0
   -3.5910   -1.6029    1.2429 H   0  0  0  0  0  0  0  0  0  0  0  0
   -3.3498   -2.0391   -0.4663 H   0  0  0  0  0  0  0  0  0  0  0  0
   -1.5336   -1.8693    0.6731 C   0  0  0  0  0  0  0  0  0  0  0  0
   -0.7531   -2.7568    0.9637 O   0  0  0  0  0  0  0  0  0  0  0  0
   -1.1521   -0.5727    0.3780 N   0  0  0  0  0  0  0  0  0  0  0  0
   -1.9080   -0.0018   -0.0019 H   0  0  0  0  0  0  0  0  0  0  0  0
    0.1616    0.1161    0.3596 C   0  0  1  0  0  0  0  0  0  0  0  0
    0.2545    0.6334    1.3204 H   0  0  0  0  0  0  0  0  0  0  0  0
    1.4375   -0.7575    0.1985 C   0  0  0  0  0  0  0  0  0  0  0  0
    1.3055   -1.4002   -0.6766 H   0  0  0  0  0  0  0  0  0  0  0  0
    2.3106   -0.1291    0.0154 H   0  0  0  0  0  0  0  0  0  0  0  0
    1.7875   -1.6465    1.3893 C   0  0  0  0  0  0  0  0  0  0  0  0
    1.4637   -1.2894    2.5120 O   0  0  0  0  0  0  0  0  0  0  0  0
    2.5104   -2.7626    1.1371 O   0  0  0  0  0  0  0  0  0  0  0  0
    2.5602   -3.2354    1.9814 H   0  0  0  0  0  0  0  0  0  0  0  0
    0.1232    1.2389   -0.7075 C   0  0  0  0  0  0  0  0  0  0  0  0
   -0.9191    1.4826   -1.3070 O   0  0  0  0  0  0  0  0  0  0  0  0
    1.2215    2.0483   -0.9404 N   0  0  0  0  0  0  0  0  0  0  0  0
    2.0625    1.8713   -0.3995 H   0  0  0  0  0  0  0  0  0  0  0  0
    1.2159    3.1541   -1.8914 C   0  0  0  0  0  0  0  0  0  0  0  0
    0.4786    3.9086   -1.5976 H   0  0  0  0  0  0  0  0  0  0  0  0
    2.2013    3.6286   -1.9266 H   0  0  0  0  0  0  0  0  0  0  0  0
    0.9707    2.7944   -2.8964 H   0  0  0  0  0  0  0  0  0  0  0  0
  1  2  1  0  0  0  0
  2  3  1  0  0  0  0
  2  4  1  0  0  0  0
  2  5  1  0  0  0  0
  5  6  2  0  0  0  0
  5  7  1  0  0  0  0
  7  8  1  0  0  0  0
  7  9  1  0  0  0  0
  9 10  1  0  0  0  0
  9 11  1  0  0  0  0
  9 18  1  0  0  0  0
 11 12  1  0  0  0  0
 11 13  1  0  0  0  0
 11 14  1  0  0  0  0
 14 15  2  0  0  0  0
 14 16  1  0  0  0  0
 16 17  1  0  0  0  0
 18 19  2  0  0  0  0
 18 20  1  0  0  0  0
 20 21  1  0  0  0  0
 20 22  1  0  0  0  0
 22 23  1  0  0  0  0
 22 24  1  0  0  0  0
 22 25  1  0  0  0  0
M  END
$$$$

  -OEChem-01062216063D

 25 24  0     1  0  0  0  0  0999 V2000
   -3.1715   -3.2596    0.8001 H   0  0  0  0  0  0  0  0  0  0  0  0
   -3.0052   -2.2060    0.5588 C   0  0  0  0  0  0  0  0  0  0  0  0
   -3.5574   -1.5909    1.2733 H   0  0  0  0  0  0  0  0  0  0  0  0
   -3.3832   -2.0115   -0.4478 H   0  0  0  0  0  0  0  0  0  0  0  0
   -1.5251   -1.8776    0.6287 C   0  0  0  0  0  0  0  0  0  0  0  0
   -0.7438   -2.7821    0.8598 O   0  0  0  0  0  0  0  0  0  0  0  0
   -1.1361   -0.5793    0.3515 N   0  0  0  0  0  0  0  0  0  0  0  0
   -1.8998    0.0221    0.0405 H   0  0  0  0  0  0  0  0  0  0  0  0
    0.1799    0.1048    0.3535 C   0  0  1  0  0  0  0  0  0  0  0  0
    0.2632    0.6208    1.3157 H   0  0  0  0  0  0  0  0  0  0  0  0
    1.4534   -0.7777    0.2156 C   0  0  0  0  0  0  0  0  0  0  0  0
    1.3354   -1.4196   -0.6621 H   0  0  0  0  0  0  0  0  0  0  0  0
    2.3357   -0.1567    0.0563 H   0  0  0  0  0  0  0  0  0  0  0  0
    1.7738   -1.6653    1.4162 C   0  0  0  0  0  0  0  0  0  0  0  0
    1.4315   -1.3033    2.5316 O   0  0  0  0  0  0  0  0  0  0  0  0
    2.5010   -2.7823    1.1818 O   0  0  0  0  0  0  0  0  0  0  0  0
    2.5378   -3.2508    2.0292 H   0  0  0  0  0  0  0  0  0  0  0  0
    0.1407    1.2365   -0.7068 C   0  0  0  0  0  0  0  0  0  0  0  0
   -0.9414    1.6370   -1.1244 O   0  0  0  0  0  0  0  0  0  0  0  0
    1.2890    1.8595   -1.1650 N   0  0  0  0  0  0  0  0  0  0  0  0
    2.1801    1.5350   -0.8026 H   0  0  0  0  0  0  0  0  0  0  0  0
    1.2807    2.9398   -2.1450 C   0  0  0  0  0  0  0  0  0  0  0  0
    0.7125    3.7962   -1.7671 H   0  0  0  0  0  0  0  0  0  0  0  0
    2.3029    3.2691   -2.3545 H   0  0  0  0  0  0  0  0  0  0  0  0
    0.8275    2.6025   -3.0831 H   0  0  0  0  0  0  0  0  0  0  0  0
  1  2  1  0  0  0  0
  2  3  1  0  0  0  0
  2  4  1  0  0  0  0
  2  5  1  0  0  0  0
  5  6  2  0  0  0  0
  5  7  1  0  0  0  0
  7  8  1  0  0  0  0
  7  9  1  0  0  0  0
  9 10  1  0  0  0  0
  9 11  1  0  0  0  0
  9 18  1  0  0  0  0
 11 12  1  0  0  0  0
 11 13  1  0  0  0  0
 11 14  1  0  0  0  0
 14 15  2  0  0  0  0
 14 16  1  0  0  0  0
 16 17  1  0  0  0  0
 18 19  2  0  0  0  0
 18 20  1  0  0  0  0
 20 21  1  0  0  0  0
 20 22  1  0  0  0  0
 22 23  1  0  0  0  0
 22 24  1  0  0  0  0
 22 25  1  0  0  0  0
M  END
$$$$

  -OEChem-01062216063D

 25 24  0     1  0  0  0  0  0999 V2000
   -3.1696   -3.2461    0.8143 H   0  0  0  0  0  0  0  0  0  0  0  0
   -3.0017   -2.1946    0.5642 C   0  0  0  0  0  0  0  0  0  0  0  0
   -3.5263   -1.5721    1.2929 H   0  0  0  0  0  0  0  0  0  0  0  0
   -3.4085   -1.9998   -0.4310 H   0  0  0  0  0  0  0  0  0  0  0  0
   -1.5172   -1.8797    0.5874 C   0  0  0  0  0  0  0  0  0  0  0  0
   -0.7340   -2.7962    0.7588 O   0  0  0  0  0  0  0  0  0  0  0  0
   -1.1243   -0.5797    0.3246 N   0  0  0  0  0  0  0  0  0  0  0  0
   -1.8935    0.0465    0.0841 H   0  0  0  0  0  0  0  0  0  0  0  0
    0.1950    0.0958    0.3486 C   0  0  1  0  0  0  0  0  0  0  0  0
    0.2670    0.6106    1.3126 H   0  0  0  0  0  0  0  0  0  0  0  0
    1.4686   -0.7887    0.2324 C   0  0  0  0  0  0  0  0  0  0  0  0
    1.3719   -1.4283   -0.6495 H   0  0  0  0  0  0  0  0  0  0  0  0
    2.3536   -0.1642    0.1008 H   0  0  0  0  0  0  0  0  0  0  0  0
    1.7615   -1.6765    1.4403 C   0  0  0  0  0  0  0  0  0  0  0  0
    1.3983   -1.3144    2.5491 O   0  0  0  0  0  0  0  0  0  0  0  0
    2.4914   -2.7947    1.2196 O   0  0  0  0  0  0  0  0  0  0  0  0
    2.5145   -3.2616    2.0682 H   0  0  0  0  0  0  0  0  0  0  0  0
    0.1588    1.2316   -0.7068 C   0  0  0  0  0  0  0  0  0  0  0  0
   -0.9087    1.7870   -0.9449 O   0  0  0  0  0  0  0  0  0  0  0  0
    1.2858    1.6602   -1.3875 N   0  0  0  0  0  0  0  0  0  0  0  0
    2.1537    1.1596   -1.2247 H   0  0  0  0  0  0  0  0  0  0  0  0
    1.2595    2.7081   -2.4018 C   0  0  0  0  0  0  0  0  0  0  0  0
    0.8653    3.6395   -1.9814 H   0  0  0  0  0  0  0  0  0  0  0  0
    2.2703    2.8997   -2.7746 H   0  0  0  0  0  0  0  0  0  0  0  0
    0.6295    2.4078   -3.2457 H   0  0  0  0  0  0  0  0  0  0  0  0
  1  2  1  0  0  0  0
  2  3  1  0  0  0  0
  2  4  1  0  0  0  0
  2  5  1  0  0  0  0
  5  6  2  0  0  0  0
  5  7  1  0  0  0  0
  7  8  1  0  0  0  0
  7  9  1  0  0  0  0
  9 10  1  0  0  0  0
  9 11  1  0  0  0  0
  9 18  1  0  0  0  0
 11 12  1  0  0  0  0
 11 13  1  0  0  0  0
 11 14  1  0  0  0  0
 14 15  2  0  0  0  0
 14 16  1  0  0  0  0
 16 17  1  0  0  0  0
 18 19  2  0  0  0  0
 18 20  1  0  0  0  0
 20 21  1  0  0  0  0
 20 22  1  0  0  0  0
 22 23  1  0  0  0  0
 22 24  1  0  0  0  0
 22 25  1  0  0  0  0
M  END
$$$$

  -OEChem-01062216063D

 25 24  0     1  0  0  0  0  0999 V2000
   -3.1579   -3.2522    0.8113 H   0  0  0  0  0  0  0  0  0  0  0  0
   -2.9989   -2.1950    0.5804 C   0  0  0  0  0  0  0  0  0  0  0  0
   -3.4925   -1.5905    1.3452 H   0  0  0  0  0  0  0  0  0  0  0  0
   -3.4456   -1.9758   -0.3923 H   0  0  0  0  0  0  0  0  0  0  0  0
   -1.5143   -1.8818    0.5512 C   0  0  0  0  0  0  0  0  0  0  0  0
   -0.7250   -2.8011    0.6732 O   0  0  0  0  0  0  0  0  0  0  0  0
   -1.1268   -0.5792    0.2941 N   0  0  0  0  0  0  0  0  0  0  0  0
   -1.9025    0.0591    0.1166 H   0  0  0  0  0  0  0  0  0  0  0  0
    0.1931    0.0926    0.3373 C   0  0  1  0  0  0  0  0  0  0  0  0
    0.2521    0.6077    1.3023 H   0  0  0  0  0  0  0  0  0  0  0  0
    1.4711   -0.7863    0.2398 C   0  0  0  0  0  0  0  0  0  0  0  0
    1.3912   -1.4266   -0.6433 H   0  0  0  0  0  0  0  0  0  0  0  0
    2.3526   -0.1526    0.1223 H   0  0  0  0  0  0  0  0  0  0  0  0
    1.7487   -1.6741    1.4514 C   0  0  0  0  0  0  0  0  0  0  0  0
    1.3673   -1.3162    2.5554 O   0  0  0  0  0  0  0  0  0  0  0  0
    2.4921   -2.7853    1.2403 O   0  0  0  0  0  0  0  0  0  0  0  0
    2.5133   -3.2497    2.0903 H   0  0  0  0  0  0  0  0  0  0  0  0
    0.1689    1.2274   -0.7155 C   0  0  0  0  0  0  0  0  0  0  0  0
   -0.8323    1.9296   -0.7994 O   0  0  0  0  0  0  0  0  0  0  0  0
    1.2140    1.4568   -1.5939 N   0  0  0  0  0  0  0  0  0  0  0  0
    1.9926    0.8053   -1.5751 H   0  0  0  0  0  0  0  0  0  0  0  0
    1.1725    2.4704   -2.6418 C   0  0  0  0  0  0  0  0  0  0  0  0
    1.0127    3.4636   -2.2089 H   0  0  0  0  0  0  0  0  0  0  0  0
    2.1176    2.4833   -3.1932 H   0  0  0  0  0  0  0  0  0  0  0  0
    0.3621    2.2591   -3.3474 H   0  0  0  0  0  0  0  0  0  0  0  0
  1  2  1  0  0  0  0
  2  3  1  0  0  0  0
  2  4  1  0  0  0  0
  2  5  1  0  0  0  0
  5  6  2  0  0  0  0
  5  7  1  0  0  0  0
  7  8  1  0  0  0  0
  7  9  1  0  0  0  0
  9 10  1  0  0  0  0
  9 11  1  0  0  0  0
  9 18  1  0  0  0  0
 11 12  1  0  0  0  0
 11 13  1  0  0  0  0
 11 14  1  0  0  0  0
 14 15  2  0  0  0  0
 14 16  1  0  0  0  0
 16 17  1  0  0  0  0
 18 19  2  0  0  0  0
 18 20  1  0  0  0  0
 20 21  1  0  0  0  0
 20 22  1  0  0  0  0
 22 23  1  0  0  0  0
 22 24  1  0  0  0  0
 22 25  1  0  0  0  0
M  END
$$$$

  -OEChem-01062216063D

 25 24  0     1  0  0  0  0  0999 V2000
   -3.1468   -3.2582    0.8228 H   0  0  0  0  0  0  0  0  0  0  0  0
   -2.9952   -2.1974    0.6040 C   0  0  0  0  0  0  0  0  0  0  0  0
   -3.4588   -1.6063    1.3975 H   0  0  0  0  0  0  0  0  0  0  0  0
   -3.4780   -1.9611   -0.3472 H   0  0  0  0  0  0  0  0  0  0  0  0
   -1.5125   -1.8842    0.5238 C   0  0  0  0  0  0  0  0  0  0  0  0
   -0.7177   -2.8039    0.6007 O   0  0  0  0  0  0  0  0  0  0  0  0
   -1.1326   -0.5791    0.2675 N   0  0  0  0  0  0  0  0  0  0  0  0
   -1.9145    0.0638    0.1456 H   0  0  0  0  0  0  0  0  0  0  0  0
    0.1861    0.0925    0.3249 C   0  0  1  0  0  0  0  0  0  0  0  0
    0.2338    0.6067    1.2912 H   0  0  0  0  0  0  0  0  0  0  0  0
    1.4692   -0.7787    0.2384 C   0  0  0  0  0  0  0  0  0  0  0  0
    1.4014   -1.4212   -0.6439 H   0  0  0  0  0  0  0  0  0  0  0  0
    2.3452   -0.1353    0.1244 H   0  0  0  0  0  0  0  0  0  0  0  0
    1.7389   -1.6674    1.4511 C   0  0  0  0  0  0  0  0  0  0  0  0
    1.3441   -1.3141    2.5516 O   0  0  0  0  0  0  0  0  0  0  0  0
    2.4904   -2.7741    1.2455 O   0  0  0  0  0  0  0  0  0  0  0  0
    2.5103   -3.2377    2.0959 H   0  0  0  0  0  0  0  0  0  0  0  0
    0.1773    1.2248   -0.7264 C   0  0  0  0  0  0  0  0  0  0  0  0
   -0.7178    2.0595   -0.6802 O   0  0  0  0  0  0  0  0  0  0  0  0
    1.0779    1.2683   -1.7767 N   0  0  0  0  0  0  0  0  0  0  0  0
    1.7320    0.4958   -1.8617 H   0  0  0  0  0  0  0  0  0  0  0  0
    1.0074    2.2516   -2.8513 C   0  0  0  0  0  0  0  0  0  0  0  0
    1.0747    3.2673   -2.4474 H   0  0  0  0  0  0  0  0  0  0  0  0
    1.8339    2.1049   -3.5533 H   0  0  0  0  0  0  0  0  0  0  0  0
    0.0648    2.1525   -3.4000 H   0  0  0  0  0  0  0  0  0  0  0  0
  1  2  1  0  0  0  0
  2  3  1  0  0  0  0
  2  4  1  0  0  0  0
  2  5  1  0  0  0  0
  5  6  2  0  0  0  0
  5  7  1  0  0  0  0
  7  8  1  0  0  0  0
  7  9  1  0  0  0  0
  9 10  1  0  0  0  0
  9 11  1  0  0  0  0
  9 18  1  0  0  0  0
 11 12  1  0  0  0  0
 11 13  1  0  0  0  0
 11 14  1  0  0  0  0
 14 15  2  0  0  0  0
 14 16  1  0  0  0  0
 16 17  1  0  0  0  0
 18 19  2  0  0  0  0
 18 20  1  0  0  0  0
 20 21  1  0  0  0  0
 20 22  1  0  0  0  0
 22 23  1  0  0  0  0
 22 24  1  0  0  0  0
 22 25  1  0  0  0  0
M  END
$$$$

  -OEChem-01062216063D

 25 24  0     1  0  0  0  0  0999 V2000
   -3.1233   -3.2540    0.9445 H   0  0  0  0  0  0  0  0  0  0  0  0
   -2.9903   -2.2115    0.6413 C   0  0  0  0  0  0  0  0  0  0  0  0
   -3.4461   -1.5667    1.3968 H   0  0  0  0  0  0  0  0  0  0  0  0
   -3.4951   -2.0544   -0.3149 H   0  0  0  0  0  0  0  0  0  0  0  0
   -1.5135   -1.8899    0.5063 C   0  0  0  0  0  0  0  0  0  0  0  0
   -0.7130   -2.8070    0.5425 O   0  0  0  0  0  0  0  0  0  0  0  0
   -1.1468   -0.5822    0.2435 N   0  0  0  0  0  0  0  0  0  0  0  0
   -1.9353    0.0592    0.1736 H   0  0  0  0  0  0  0  0  0  0  0  0
    0.1702    0.0923    0.3059 C   0  0  1  0  0  0  0  0  0  0  0  0
    0.2127    0.6072    1.2723 H   0  0  0  0  0  0  0  0  0  0  0  0
    1.4577   -0.7713    0.2240 C   0  0  0  0  0  0  0  0  0  0  0  0
    1.3958   -1.4170   -0.6562 H   0  0  0  0  0  0  0  0  0  0  0  0
    2.3281   -0.1208    0.1058 H   0  0  0  0  0  0  0  0  0  0  0  0
    1.7274   -1.6588    1.4377 C   0  0  0  0  0  0  0  0  0  0  0  0
    1.3263   -1.3082    2.5369 O   0  0  0  0  0  0  0  0  0  0  0  0
    2.4810   -2.7647    1.2342 O   0  0  0  0  0  0  0  0  0  0  0  0
    2.5020   -3.2263    2.0856 H   0  0  0  0  0  0  0  0  0  0  0  0
    0.1761    1.2205   -0.7459 C   0  0  0  0  0  0  0  0  0  0  0  0
   -0.5545    2.1875   -0.5759 O   0  0  0  0  0  0  0  0  0  0  0  0
    0.8711    1.1034   -1.9366 N   0  0  0  0  0  0  0  0  0  0  0  0
    1.3647    0.2311   -2.1031 H   0  0  0  0  0  0  0  0  0  0  0  0
    0.7889    2.0845   -3.0121 C   0  0  0  0  0  0  0  0  0  0  0  0
    1.0834    3.0756   -2.6508 H   0  0  0  0  0  0  0  0  0  0  0  0
    1.4575    1.8046   -3.8319 H   0  0  0  0  0  0  0  0  0  0  0  0
   -0.2330    2.1411   -3.4014 H   0  0  0  0  0  0  0  0  0  0  0  0
  1  2  1  0  0  0  0
  2  3  1  0  0  0  0
  2  4  1  0  0  0  0
  2  5  1  0  0  0  0
  5  6  2  0  0  0  0
  5  7  1  0  0  0  0
  7  8  1  0  0  0  0
  7  9  1  0  0  0  0
  9 10  1  0  0  0  0
  9 11  1  0  0  0  0
  9 18  1  0  0  0  0
 11 12  1  0  0  0  0
 11 13  1  0  0  0  0
 11 14  1  0  0  0  0
 14 15  2  0  0  0  0
 14 16  1  0  0  0  0
 16 17  1  0  0  0  0
 18 19  2  0  0  0  0
 18 20  1  0  0  0  0
 20 21  1  0  0  0  0
 20 22  1  0  0  0  0
 22 23  1  0  0  0  0
 22 24  1  0  0  0  0
 22 25  1  0  0  0  0
M  END
$$$$

  -OEChem-01062216063D

 25 24  0     1  0  0  0  0  0999 V2000
   -3.1121   -3.2947    0.8875 H   0  0  0  0  0  0  0  0  0  0  0  0
   -2.9872   -2.2280    0.6806 C   0  0  0  0  0  0  0  0  0  0  0  0
   -3.3961   -1.6582    1.5185 H   0  0  0  0  0  0  0  0  0  0  0  0
   -3.5419   -1.9784   -0.2269 H   0  0  0  0  0  0  0  0  0  0  0  0
   -1.5174   -1.8968    0.4990 C   0  0  0  0  0  0  0  0  0  0  0  0
   -0.7095   -2.8081    0.4996 O   0  0  0  0  0  0  0  0  0  0  0  0
   -1.1673   -0.5867    0.2246 N   0  0  0  0  0  0  0  0  0  0  0  0
   -1.9632    0.0477    0.1940 H   0  0  0  0  0  0  0  0  0  0  0  0
    0.1451    0.0973    0.2926 C   0  0  1  0  0  0  0  0  0  0  0  0
    0.1802    0.6146    1.2583 H   0  0  0  0  0  0  0  0  0  0  0  0
    1.4409   -0.7522    0.2122 C   0  0  0  0  0  0  0  0  0  0  0  0
    1.3902   -1.3962   -0.6698 H   0  0  0  0  0  0  0  0  0  0  0  0
    2.3035   -0.0908    0.0950 H   0  0  0  0  0  0  0  0  0  0  0  0
    1.7159   -1.6404    1.4237 C   0  0  0  0  0  0  0  0  0  0  0  0
    1.3076   -1.2975    2.5228 O   0  0  0  0  0  0  0  0  0  0  0  0
    2.4799   -2.7389    1.2188 O   0  0  0  0  0  0  0  0  0  0  0  0
    2.5077   -3.2007    2.0698 H   0  0  0  0  0  0  0  0  0  0  0  0
    0.1617    1.2160   -0.7663 C   0  0  0  0  0  0  0  0  0  0  0  0
   -0.3456    2.2971   -0.5029 O   0  0  0  0  0  0  0  0  0  0  0  0
    0.6077    0.9723   -2.0527 N   0  0  0  0  0  0  0  0  0  0  0  0
    0.9060    0.0251   -2.2682 H   0  0  0  0  0  0  0  0  0  0  0  0
    0.5274    1.9513   -3.1298 C   0  0  0  0  0  0  0  0  0  0  0  0
    1.0541    2.8705   -2.8521 H   0  0  0  0  0  0  0  0  0  0  0  0
    0.9877    1.5523   -4.0388 H   0  0  0  0  0  0  0  0  0  0  0  0
   -0.5173    2.1959   -3.3478 H   0  0  0  0  0  0  0  0  0  0  0  0
  1  2  1  0  0  0  0
  2  3  1  0  0  0  0
  2  4  1  0  0  0  0
  2  5  1  0  0  0  0
  5  6  2  0  0  0  0
  5  7  1  0  0  0  0
  7  8  1  0  0  0  0
  7  9  1  0  0  0  0
  9 10  1  0  0  0  0
  9 11  1  0  0  0  0
  9 18  1  0  0  0  0
 11 12  1  0  0  0  0
 11 13  1  0  0  0  0
 11 14  1  0  0  0  0
 14 15  2  0  0  0  0
 14 16  1  0  0  0  0
 16 17  1  0  0  0  0
 18 19  2  0  0  0  0
 18 20  1  0  0  0  0
 20 21  1  0  0  0  0
 20 22  1  0  0  0  0
 22 23  1  0  0  0  0
 22 24  1  0  0  0  0
 22 25  1  0  0  0  0
M  END
$$$$

  -OEChem-01062216063D

 25 24  0     1  0  0  0  0  0999 V2000
   -3.0894   -3.3175    0.9551 H   0  0  0  0  0  0  0  0  0  0  0  0
   -2.9850   -2.2534    0.7250 C   0  0  0  0  0  0  0  0  0  0  0  0
   -3.3797   -1.6745    1.5636 H   0  0  0  0  0  0  0  0  0  0  0  0
   -3.5670   -2.0281   -0.1720 H   0  0  0  0  0  0  0  0  0  0  0  0
   -1.5249   -1.9074    0.4981 C   0  0  0  0  0  0  0  0  0  0  0  0
   -0.7098   -2.8113    0.4625 O   0  0  0  0  0  0  0  0  0  0  0  0
   -1.1942   -0.5941    0.2139 N   0  0  0  0  0  0  0  0  0  0  0  0
   -1.9973    0.0312    0.2158 H   0  0  0  0  0  0  0  0  0  0  0  0
    0.1134    0.1011    0.2827 C   0  0  1  0  0  0  0  0  0  0  0  0
    0.1447    0.6169    1.2496 H   0  0  0  0  0  0  0  0  0  0  0  0
    1.4176   -0.7332    0.1940 C   0  0  0  0  0  0  0  0  0  0  0  0
    1.3738   -1.3697   -0.6937 H   0  0  0  0  0  0  0  0  0  0  0  0
    2.2720   -0.0606    0.0792 H   0  0  0  0  0  0  0  0  0  0  0  0
    1.7045   -1.6259    1.3996 C   0  0  0  0  0  0  0  0  0  0  0  0
    1.2943   -1.2936    2.5014 O   0  0  0  0  0  0  0  0  0  0  0  0
    2.4781   -2.7163    1.1873 O   0  0  0  0  0  0  0  0  0  0  0  0
    2.5145   -3.1806    2.0365 H   0  0  0  0  0  0  0  0  0  0  0  0
    0.1346    1.2143   -0.7799 C   0  0  0  0  0  0  0  0  0  0  0  0
   -0.0842    2.3719   -0.4541 O   0  0  0  0  0  0  0  0  0  0  0  0
    0.2928    0.9001   -2.1168 N   0  0  0  0  0  0  0  0  0  0  0  0
    0.3860   -0.0840   -2.3539 H   0  0  0  0  0  0  0  0  0  0  0  0
    0.2428    1.8885   -3.1868 C   0  0  0  0  0  0  0  0  0  0  0  0
    0.9946    2.6679   -3.0233 H   0  0  0  0  0  0  0  0  0  0  0  0
    0.4445    1.4126   -4.1513 H   0  0  0  0  0  0  0  0  0  0  0  0
   -0.7461    2.3565   -3.2304 H   0  0  0  0  0  0  0  0  0  0  0  0
  1  2  1  0  0  0  0
  2  3  1  0  0  0  0
  2  4  1  0  0  0  0
  2  5  1  0  0  0  0
  5  6  2  0  0  0  0
  5  7  1  0  0  0  0
  7  8  1  0  0  0  0
  7  9  1  0  0  0  0
  9 10  1  0  0  0  0
  9 11  1  0  0  0  0
  9 18  1  0  0  0  0
 11 12  1  0  0  0  0
 11 13  1  0  0  0  0
 11 14  1  0  0  0  0
 14 15  2  0  0  0  0
 14 16  1  0  0  0  0
 16 17  1  0  0  0  0
 18 19  2  0  0  0  0
 18 20  1  0  0  0  0
 20 21  1  0  0  0  0
 20 22  1  0  0  0  0
 22 23  1  0  0  0  0
 22 24  1  0  0  0  0
 22 25  1  0  0  0  0
M  END
$$$$

  -OEChem-01062216063D

 25 24  0     1  0  0  0  0  0999 V2000
   -3.0682   -3.3341    1.0259 H   0  0  0  0  0  0  0  0  0  0  0  0
   -2.9826   -2.2774    0.7567 C   0  0  0  0  0  0  0  0  0  0  0  0
   -3.3791   -1.6750    1.5776 H   0  0  0  0  0  0  0  0  0  0  0  0
   -3.5754   -2.0935   -0.1424 H   0  0  0  0  0  0  0  0  0  0  0  0
   -1.5303   -1.9183    0.5032 C   0  0  0  0  0  0  0  0  0  0  0  0
   -0.7102   -2.8158    0.4417 O   0  0  0  0  0  0  0  0  0  0  0  0
   -1.2160   -0.6018    0.2147 N   0  0  0  0  0  0  0  0  0  0  0  0
   -2.0256    0.0141    0.2395 H   0  0  0  0  0  0  0  0  0  0  0  0
    0.0867    0.1059    0.2820 C   0  0  1  0  0  0  0  0  0  0  0  0
    0.1172    0.6194    1.2503 H   0  0  0  0  0  0  0  0  0  0  0  0
    1.3972   -0.7153    0.1806 C   0  0  0  0  0  0  0  0  0  0  0  0
    1.3565   -1.3428   -0.7138 H   0  0  0  0  0  0  0  0  0  0  0  0
    2.2445   -0.0332    0.0682 H   0  0  0  0  0  0  0  0  0  0  0  0
    1.6970   -1.6138    1.3786 C   0  0  0  0  0  0  0  0  0  0  0  0
    1.2885   -1.2926    2.4845 O   0  0  0  0  0  0  0  0  0  0  0  0
    2.4748   -2.6990    1.1551 O   0  0  0  0  0  0  0  0  0  0  0  0
    2.5181   -3.1691    2.0007 H   0  0  0  0  0  0  0  0  0  0  0  0
    0.1058    1.2185   -0.7808 C   0  0  0  0  0  0  0  0  0  0  0  0
    0.2009    2.3897   -0.4448 O   0  0  0  0  0  0  0  0  0  0  0  0
   -0.0418    0.8987   -2.1173 N   0  0  0  0  0  0  0  0  0  0  0  0
   -0.1458   -0.0859   -2.3488 H   0  0  0  0  0  0  0  0  0  0  0  0
   -0.0637    1.8904   -3.1851 C   0  0  0  0  0  0  0  0  0  0  0  0
    0.8612    2.4771   -3.1823 H   0  0  0  0  0  0  0  0  0  0  0  0
   -0.1567    1.3976   -4.1577 H   0  0  0  0  0  0  0  0  0  0  0  0
   -0.9125    2.5707   -3.0587 H   0  0  0  0  0  0  0  0  0  0  0  0
  1  2  1  0  0  0  0
  2  3  1  0  0  0  0
  2  4  1  0  0  0  0
  2  5  1  0  0  0  0
  5  6  2  0  0  0  0
  5  7  1  0  0  0  0
  7  8  1  0  0  0  0
  7  9  1  0  0  0  0
  9 10  1  0  0  0  0
  9 11  1  0  0  0  0
  9 18  1  0  0  0  0
 11 12  1  0  0  0  0
 11 13  1  0  0  0  0
 11 14  1  0  0  0  0
 14 15  2  0  0  0  0
 14 16  1  0  0  0  0
 16 17  1  0  0  0  0
 18 19  2  0  0  0  0
 18 20  1  0  0  0  0
 20 21  1  0  0  0  0
 20 22  1  0  0  0  0
 22 23  1  0  0  0  0
 22 24  1  0  0  0  0
 22 25  1  0  0  0  0
M  END
$$$$

  -OEChem-01062216063D

 25 24  0     1  0  0  0  0  0999 V2000
   -3.0511   -3.3777    1.0366 H   0  0  0  0  0  0  0  0  0  0  0  0
   -2.9811   -2.3128    0.7963 C   0  0  0  0  0  0  0  0  0  0  0  0
   -3.3579   -1.7377    1.6456 H   0  0  0  0  0  0  0  0  0  0  0  0
   -3.6015   -2.1079   -0.0794 H   0  0  0  0  0  0  0  0  0  0  0  0
   -1.5392   -1.9346    0.5124 C   0  0  0  0  0  0  0  0  0  0  0  0
   -0.7111   -2.8224    0.4252 O   0  0  0  0  0  0  0  0  0  0  0  0
   -1.2466   -0.6126    0.2246 N   0  0  0  0  0  0  0  0  0  0  0  0
   -2.0633   -0.0081    0.2762 H   0  0  0  0  0  0  0  0  0  0  0  0
    0.0489    0.1126    0.2849 C   0  0  1  0  0  0  0  0  0  0  0  0
    0.0813    0.6208    1.2558 H   0  0  0  0  0  0  0  0  0  0  0  0
    1.3664   -0.6938    0.1659 C   0  0  0  0  0  0  0  0  0  0  0  0
    1.3233   -1.3140   -0.7335 H   0  0  0  0  0  0  0  0  0  0  0  0
    2.2057   -0.0019    0.0512 H   0  0  0  0  0  0  0  0  0  0  0  0
    1.6876   -1.5970    1.3544 C   0  0  0  0  0  0  0  0  0  0  0  0
    1.2863   -1.2872    2.4663 O   0  0  0  0  0  0  0  0  0  0  0  0
    2.4755   -2.6717    1.1167 O   0  0  0  0  0  0  0  0  0  0  0  0
    2.5362   -3.1440    1.9598 H   0  0  0  0  0  0  0  0  0  0  0  0
    0.0613    1.2328   -0.7710 C   0  0  0  0  0  0  0  0  0  0  0  0
    0.4603    2.3504   -0.4791 O   0  0  0  0  0  0  0  0  0  0  0  0
   -0.3865    0.9772   -2.0535 N   0  0  0  0  0  0  0  0  0  0  0  0
   -0.6431    0.0164   -2.2657 H   0  0  0  0  0  0  0  0  0  0  0  0
   -0.3403    1.9577   -3.1309 C   0  0  0  0  0  0  0  0  0  0  0  0
    0.6910    2.2772   -3.3145 H   0  0  0  0  0  0  0  0  0  0  0  0
   -0.7377    1.5247   -4.0538 H   0  0  0  0  0  0  0  0  0  0  0  0
   -0.9411    2.8368   -2.8754 H   0  0  0  0  0  0  0  0  0  0  0  0
  1  2  1  0  0  0  0
  2  3  1  0  0  0  0
  2  4  1  0  0  0  0
  2  5  1  0  0  0  0
  5  6  2  0  0  0  0
  5  7  1  0  0  0  0
  7  8  1  0  0  0  0
  7  9  1  0  0  0  0
  9 10  1  0  0  0  0
  9 11  1  0  0  0  0
  9 18  1  0  0  0  0
 11 12  1  0  0  0  0
 11 13  1  0  0  0  0
 11 14  1  0  0  0  0
 14 15  2  0  0  0  0
 14 16  1  0  0  0  0
 16 17  1  0  0  0  0
 18 19  2  0  0  0  0
 18 20  1  0  0  0  0
 20 21  1  0  0  0  0
 20 22  1  0  0  0  0
 22 23  1  0  0  0  0
 22 24  1  0  0  0  0
 22 25  1  0  0  0  0
M  END
$$$$

  -OEChem-01062216063D

 25 24  0     1  0  0  0  0  0999 V2000
   -3.0350   -3.4000    1.0566 H   0  0  0  0  0  0  0  0  0  0  0  0
   -2.9745   -2.3333    0.8217 C   0  0  0  0  0  0  0  0  0  0  0  0
   -3.3344   -1.7656    1.6832 H   0  0  0  0  0  0  0  0  0  0  0  0
   -3.6152   -2.1255   -0.0385 H   0  0  0  0  0  0  0  0  0  0  0  0
   -1.5408   -1.9469    0.5082 C   0  0  0  0  0  0  0  0  0  0  0  0
   -0.7107   -2.8299    0.3974 O   0  0  0  0  0  0  0  0  0  0  0  0
   -1.2613   -0.6209    0.2248 N   0  0  0  0  0  0  0  0  0  0  0  0
   -2.0811   -0.0237    0.3021 H   0  0  0  0  0  0  0  0  0  0  0  0
    0.0302    0.1143    0.2855 C   0  0  1  0  0  0  0  0  0  0  0  0
    0.0607    0.6185    1.2582 H   0  0  0  0  0  0  0  0  0  0  0  0
    1.3506   -0.6883    0.1628 C   0  0  0  0  0  0  0  0  0  0  0  0
    1.3084   -1.3050   -0.7391 H   0  0  0  0  0  0  0  0  0  0  0  0
    2.1888    0.0049    0.0485 H   0  0  0  0  0  0  0  0  0  0  0  0
    1.6777   -1.5936    1.3479 C   0  0  0  0  0  0  0  0  0  0  0  0
    1.2774   -1.2881    2.4615 O   0  0  0  0  0  0  0  0  0  0  0  0
    2.4744   -2.6614    1.1068 O   0  0  0  0  0  0  0  0  0  0  0  0
    2.5457   -3.1321    1.9498 H   0  0  0  0  0  0  0  0  0  0  0  0
    0.0448    1.2444   -0.7628 C   0  0  0  0  0  0  0  0  0  0  0  0
    0.6746    2.2701   -0.5502 O   0  0  0  0  0  0  0  0  0  0  0  0
   -0.6672    1.1126   -1.9409 N   0  0  0  0  0  0  0  0  0  0  0  0
   -1.0690    0.1970   -2.1248 H   0  0  0  0  0  0  0  0  0  0  0  0
   -0.6170    2.0940   -3.0178 C   0  0  0  0  0  0  0  0  0  0  0  0
    0.4032    2.1851   -3.4056 H   0  0  0  0  0  0  0  0  0  0  0  0
   -1.2743    1.7901   -3.8381 H   0  0  0  0  0  0  0  0  0  0  0  0
   -0.9458    3.0750   -2.6584 H   0  0  0  0  0  0  0  0  0  0  0  0
  1  2  1  0  0  0  0
  2  3  1  0  0  0  0
  2  4  1  0  0  0  0
  2  5  1  0  0  0  0
  5  6  2  0  0  0  0
  5  7  1  0  0  0  0
  7  8  1  0  0  0  0
  7  9  1  0  0  0  0
  9 10  1  0  0  0  0
  9 11  1  0  0  0  0
  9 18  1  0  0  0  0
 11 12  1  0  0  0  0
 11 13  1  0  0  0  0
 11 14  1  0  0  0  0
 14 15  2  0  0  0  0
 14 16  1  0  0  0  0
 16 17  1  0  0  0  0
 18 19  2  0  0  0  0
 18 20  1  0  0  0  0
 20 21  1  0  0  0  0
 20 22  1  0  0  0  0
 22 23  1  0  0  0  0
 22 24  1  0  0  0  0
 22 25  1  0  0  0  0
M  END
$$$$

  -OEChem-01062216063D

 25 24  0     1  0  0  0  0  0999 V2000
   -3.0161   -3.4155    1.0590 H   0  0  0  0  0  0  0  0  0  0  0  0
   -2.9610   -2.3464    0.8343 C   0  0  0  0  0  0  0  0  0  0  0  0
   -3.3075   -1.7883    1.7074 H   0  0  0  0  0  0  0  0  0  0  0  0
   -3.6159   -2.1311   -0.0133 H   0  0  0  0  0  0  0  0  0  0  0  0
   -1.5328   -1.9551    0.5015 C   0  0  0  0  0  0  0  0  0  0  0  0
   -0.7037   -2.8371    0.3775 O   0  0  0  0  0  0  0  0  0  0  0  0
   -1.2603   -0.6265    0.2206 N   0  0  0  0  0  0  0  0  0  0  0  0
   -2.0797   -0.0332    0.3257 H   0  0  0  0  0  0  0  0  0  0  0  0
    0.0300    0.1139    0.2779 C   0  0  1  0  0  0  0  0  0  0  0  0
    0.0604    0.6186    1.2502 H   0  0  0  0  0  0  0  0  0  0  0  0
    1.3487   -0.6955    0.1607 C   0  0  0  0  0  0  0  0  0  0  0  0
    1.3037   -1.3177   -0.7372 H   0  0  0  0  0  0  0  0  0  0  0  0
    2.1926   -0.0098    0.0431 H   0  0  0  0  0  0  0  0  0  0  0  0
    1.6691   -1.5936    1.3533 C   0  0  0  0  0  0  0  0  0  0  0  0
    1.2678   -1.2774    2.4638 O   0  0  0  0  0  0  0  0  0  0  0  0
    2.4573   -2.6699    1.1218 O   0  0  0  0  0  0  0  0  0  0  0  0
    2.5206   -3.1368    1.9674 H   0  0  0  0  0  0  0  0  0  0  0  0
    0.0471    1.2524   -0.7657 C   0  0  0  0  0  0  0  0  0  0  0  0
    0.8503    2.1684   -0.6611 O   0  0  0  0  0  0  0  0  0  0  0  0
   -0.8827    1.2853   -1.7898 N   0  0  0  0  0  0  0  0  0  0  0  0
   -1.4173    0.4335   -1.9342 H   0  0  0  0  0  0  0  0  0  0  0  0
   -0.8651    2.2911   -2.8457 C   0  0  0  0  0  0  0  0  0  0  0  0
    0.0637    2.2252   -3.4221 H   0  0  0  0  0  0  0  0  0  0  0  0
   -1.7082    2.1404   -3.5267 H   0  0  0  0  0  0  0  0  0  0  0  0
   -0.9436    3.2968   -2.4192 H   0  0  0  0  0  0  0  0  0  0  0  0
  1  2  1  0  0  0  0
  2  3  1  0  0  0  0
  2  4  1  0  0  0  0
  2  5  1  0  0  0  0
  5  6  2  0  0  0  0
  5  7  1  0  0  0  0
  7  8  1  0  0  0  0
  7  9  1  0  0  0  0
  9 10  1  0  0  0  0
  9 11  1  0  0  0  0
  9 18  1  0  0  0  0
 11 12  1  0  0  0  0
 11 13  1  0  0  0  0
 11 14  1  0  0  0  0
 14 15  2  0  0  0  0
 14 16  1  0  0  0  0
 16 17  1  0  0  0  0
 18 19  2  0  0  0  0
 18 20  1  0  0  0  0
 20 21  1  0  0  0  0
 20 22  1  0  0  0  0
 22 23  1  0  0  0  0
 22 24  1  0  0  0  0
 22 25  1  0  0  0  0
M  END
$$$$

  -OEChem-01062216063D

 25 24  0     1  0  0  0  0  0999 V2000
   -3.0075   -3.4224    1.0315 H   0  0  0  0  0  0  0  0  0  0  0  0
   -2.9477   -2.3472    0.8390 C   0  0  0  0  0  0  0  0  0  0  0  0
   -3.2667   -1.8137    1.7377 H   0  0  0  0  0  0  0  0  0  0  0  0
   -3.6217   -2.1001    0.0155 H   0  0  0  0  0  0  0  0  0  0  0  0
   -1.5246   -1.9583    0.4828 C   0  0  0  0  0  0  0  0  0  0  0  0
   -0.7002   -2.8418    0.3410 O   0  0  0  0  0  0  0  0  0  0  0  0
   -1.2549   -0.6279    0.2065 N   0  0  0  0  0  0  0  0  0  0  0  0
   -2.0704   -0.0376    0.3483 H   0  0  0  0  0  0  0  0  0  0  0  0
    0.0355    0.1134    0.2678 C   0  0  1  0  0  0  0  0  0  0  0  0
    0.0624    0.6180    1.2398 H   0  0  0  0  0  0  0  0  0  0  0  0
    1.3515   -0.7059    0.1620 C   0  0  0  0  0  0  0  0  0  0  0  0
    1.3090   -1.3301   -0.7346 H   0  0  0  0  0  0  0  0  0  0  0  0
    2.2032   -0.0296    0.0489 H   0  0  0  0  0  0  0  0  0  0  0  0
    1.6589   -1.5995    1.3613 C   0  0  0  0  0  0  0  0  0  0  0  0
    1.2525   -1.2743    2.4675 O   0  0  0  0  0  0  0  0  0  0  0  0
    2.4474   -2.6785    1.1423 O   0  0  0  0  0  0  0  0  0  0  0  0
    2.5086   -3.1379    1.9920 H   0  0  0  0  0  0  0  0  0  0  0  0
    0.0543    1.2582   -0.7737 C   0  0  0  0  0  0  0  0  0  0  0  0
    0.9822    2.0547   -0.8000 O   0  0  0  0  0  0  0  0  0  0  0  0
   -1.0315    1.4770   -1.6044 N   0  0  0  0  0  0  0  0  0  0  0  0
   -1.6872    0.7064   -1.6885 H   0  0  0  0  0  0  0  0  0  0  0  0
   -1.0482    2.5184   -2.6257 C   0  0  0  0  0  0  0  0  0  0  0  0
   -0.2640    2.3393   -3.3690 H   0  0  0  0  0  0  0  0  0  0  0  0
   -2.0156    2.5323   -3.1370 H   0  0  0  0  0  0  0  0  0  0  0  0
   -0.8856    3.5023   -2.1730 H   0  0  0  0  0  0  0  0  0  0  0  0
  1  2  1  0  0  0  0
  2  3  1  0  0  0  0
  2  4  1  0  0  0  0
  2  5  1  0  0  0  0
  5  6  2  0  0  0  0
  5  7  1  0  0  0  0
  7  8  1  0  0  0  0
  7  9  1  0  0  0  0
  9 10  1  0  0  0  0
  9 11  1  0  0  0  0
  9 18  1  0  0  0  0
 11 12  1  0  0  0  0
 11 13  1  0  0  0  0
 11 14  1  0  0  0  0
 14 15  2  0  0  0  0
 14 16  1  0  0  0  0
 16 17  1  0  0  0  0
 18 19  2  0  0  0  0
 18 20  1  0  0  0  0
 20 21  1  0  0  0  0
 20 22  1  0  0  0  0
 22 23  1  0  0  0  0
 22 24  1  0  0  0  0
 22 25  1  0  0  0  0
M  END
$$$$

  -OEChem-01062216063D

 25 24  0     1  0  0  0  0  0999 V2000
   -2.9996   -3.4254    1.0044 H   0  0  0  0  0  0  0  0  0  0  0  0
   -2.9373   -2.3475    0.8286 C   0  0  0  0  0  0  0  0  0  0  0  0
   -3.2498   -1.8274    1.7372 H   0  0  0  0  0  0  0  0  0  0  0  0
   -3.6147   -2.0855    0.0124 H   0  0  0  0  0  0  0  0  0  0  0  0
   -1.5150   -1.9581    0.4697 C   0  0  0  0  0  0  0  0  0  0  0  0
   -0.6929   -2.8431    0.3251 O   0  0  0  0  0  0  0  0  0  0  0  0
   -1.2461   -0.6259    0.1987 N   0  0  0  0  0  0  0  0  0  0  0  0
   -2.0581   -0.0397    0.3678 H   0  0  0  0  0  0  0  0  0  0  0  0
    0.0469    0.1130    0.2548 C   0  0  1  0  0  0  0  0  0  0  0  0
    0.0765    0.6182    1.2262 H   0  0  0  0  0  0  0  0  0  0  0  0
    1.3585   -0.7187    0.1587 C   0  0  0  0  0  0  0  0  0  0  0  0
    1.3135   -1.3497   -0.7330 H   0  0  0  0  0  0  0  0  0  0  0  0
    2.2193   -0.0547    0.0438 H   0  0  0  0  0  0  0  0  0  0  0  0
    1.6556   -1.6022    1.3682 C   0  0  0  0  0  0  0  0  0  0  0  0
    1.2488   -1.2613    2.4698 O   0  0  0  0  0  0  0  0  0  0  0  0
    2.4350   -2.6903    1.1636 O   0  0  0  0  0  0  0  0  0  0  0  0
    2.4891   -3.1418    2.0179 H   0  0  0  0  0  0  0  0  0  0  0  0
    0.0606    1.2661   -0.7826 C   0  0  0  0  0  0  0  0  0  0  0  0
    1.0785    1.9132   -0.9871 O   0  0  0  0  0  0  0  0  0  0  0  0
   -1.1126    1.6933   -1.3827 N   0  0  0  0  0  0  0  0  0  0  0  0
   -1.8914    1.0445   -1.3526 H   0  0  0  0  0  0  0  0  0  0  0  0
   -1.1466    2.7647   -2.3728 C   0  0  0  0  0  0  0  0  0  0  0  0
   -0.5424    2.4987   -3.2468 H   0  0  0  0  0  0  0  0  0  0  0  0
   -2.1744    2.9429   -2.7029 H   0  0  0  0  0  0  0  0  0  0  0  0
   -0.7572    3.6953   -1.9458 H   0  0  0  0  0  0  0  0  0  0  0  0
  1  2  1  0  0  0  0
  2  3  1  0  0  0  0
  2  4  1  0  0  0  0
  2  5  1  0  0  0  0
  5  6  2  0  0  0  0
  5  7  1  0  0  0  0
  7  8  1  0  0  0  0
  7  9  1  0  0  0  0
  9 10  1  0  0  0  0
  9 11  1  0  0  0  0
  9 18  1  0  0  0  0
 11 12  1  0  0  0  0
 11 13  1  0  0  0  0
 11 14  1  0  0  0  0
 14 15  2  0  0  0  0
 14 16  1  0  0  0  0
 16 17  1  0  0  0  0
 18 19  2  0  0  0  0
 18 20  1  0  0  0  0
 20 21  1  0  0  0  0
 20 22  1  0  0  0  0
 22 23  1  0  0  0  0
 22 24  1  0  0  0  0
 22 25  1  0  0  0  0
M  END
$$$$

  -OEChem-01062216063D

 25 24  0     1  0  0  0  0  0999 V2000
   -3.0105   -3.4131    0.9883 H   0  0  0  0  0  0  0  0  0  0  0  0
   -2.9443   -2.3416    0.7776 C   0  0  0  0  0  0  0  0  0  0  0  0
   -3.2994   -1.7916    1.6525 H   0  0  0  0  0  0  0  0  0  0  0  0
   -3.5850   -2.1120   -0.0772 H   0  0  0  0  0  0  0  0  0  0  0  0
   -1.5087   -1.9573    0.4699 C   0  0  0  0  0  0  0  0  0  0  0  0
   -0.6830   -2.8461    0.3797 O   0  0  0  0  0  0  0  0  0  0  0  0
   -1.2299   -0.6257    0.2031 N   0  0  0  0  0  0  0  0  0  0  0  0
   -2.0489   -0.0404    0.3239 H   0  0  0  0  0  0  0  0  0  0  0  0
    0.0669    0.1080    0.2446 C   0  0  1  0  0  0  0  0  0  0  0  0
    0.1035    0.6152    1.2142 H   0  0  0  0  0  0  0  0  0  0  0  0
    1.3746   -0.7335    0.1574 C   0  0  0  0  0  0  0  0  0  0  0  0
    1.3250   -1.3755   -0.7261 H   0  0  0  0  0  0  0  0  0  0  0  0
    2.2396   -0.0768    0.0347 H   0  0  0  0  0  0  0  0  0  0  0  0
    1.6706   -1.6007    1.3791 C   0  0  0  0  0  0  0  0  0  0  0  0
    1.2690   -1.2405    2.4766 O   0  0  0  0  0  0  0  0  0  0  0  0
    2.4402   -2.6984    1.1885 O   0  0  0  0  0  0  0  0  0  0  0  0
    2.4879   -3.1416    2.0474 H   0  0  0  0  0  0  0  0  0  0  0  0
    0.0696    1.2680   -0.7893 C   0  0  0  0  0  0  0  0  0  0  0  0
    1.1125    1.7098   -1.2521 O   0  0  0  0  0  0  0  0  0  0  0  0
   -1.1073    1.9119   -1.1385 N   0  0  0  0  0  0  0  0  0  0  0  0
   -1.9773    1.4953   -0.8319 H   0  0  0  0  0  0  0  0  0  0  0  0
   -1.1626    3.0039   -2.1053 C   0  0  0  0  0  0  0  0  0  0  0  0
   -0.8355    2.6590   -3.0918 H   0  0  0  0  0  0  0  0  0  0  0  0
   -2.1855    3.3826   -2.1916 H   0  0  0  0  0  0  0  0  0  0  0  0
   -0.5165    3.8301   -1.7894 H   0  0  0  0  0  0  0  0  0  0  0  0
  1  2  1  0  0  0  0
  2  3  1  0  0  0  0
  2  4  1  0  0  0  0
  2  5  1  0  0  0  0
  5  6  2  0  0  0  0
  5  7  1  0  0  0  0
  7  8  1  0  0  0  0
  7  9  1  0  0  0  0
  9 10  1  0  0  0  0
  9 11  1  0  0  0  0
  9 18  1  0  0  0  0
 11 12  1  0  0  0  0
 11 13  1  0  0  0  0
 11 14  1  0  0  0  0
 14 15  2  0  0  0  0
 14 16  1  0  0  0  0
 16 17  1  0  0  0  0
 18 19  2  0  0  0  0
 18 20  1  0  0  0  0
 20 21  1  0  0  0  0
 20 22  1  0  0  0  0
 22 23  1  0  0  0  0
 22 24  1  0  0  0  0
 22 25  1  0  0  0  0
M  END
$$$$

  -OEChem-01062216063D

 25 24  0     1  0  0  0  0  0999 V2000
   -3.1394   -3.3225    0.8853 H   0  0  0  0  0  0  0  0  0  0  0  0
   -3.0108   -2.2727    0.6061 C   0  0  0  0  0  0  0  0  0  0  0  0
   -3.5734   -1.6530    1.3084 H   0  0  0  0  0  0  0  0  0  0  0  0
   -3.4088   -2.1269   -0.4010 H   0  0  0  0  0  0  0  0  0  0  0  0
   -1.5407   -1.8965    0.6429 C   0  0  0  0  0  0  0  0  0  0  0  0
   -0.7344   -2.7697    0.8980 O   0  0  0  0  0  0  0  0  0  0  0  0
   -1.1986   -0.5917    0.3245 N   0  0  0  0  0  0  0  0  0  0  0  0
   -1.9930   -0.0391    0.0175 H   0  0  0  0  0  0  0  0  0  0  0  0
    0.1167    0.1037    0.2743 C   0  0  1  0  0  0  0  0  0  0  0  0
    0.2162    0.6404    1.2235 H   0  0  0  0  0  0  0  0  0  0  0  0
    1.4069   -0.7556    0.1459 C   0  0  0  0  0  0  0  0  0  0  0  0
    1.2960   -1.4260   -0.7107 H   0  0  0  0  0  0  0  0  0  0  0  0
    2.2645   -0.1079   -0.0545 H   0  0  0  0  0  0  0  0  0  0  0  0
    1.7728   -1.5915    1.3692 C   0  0  0  0  0  0  0  0  0  0  0  0
    1.4433   -1.1956    2.4784 O   0  0  0  0  0  0  0  0  0  0  0  0
    2.5104   -2.7078    1.1621 O   0  0  0  0  0  0  0  0  0  0  0  0
    2.5913   -3.1314    2.0288 H   0  0  0  0  0  0  0  0  0  0  0  0
    0.0589    1.2195   -0.7993 C   0  0  0  0  0  0  0  0  0  0  0  0
    0.9387    1.3664   -1.6366 O   0  0  0  0  0  0  0  0  0  0  0  0
   -1.0449    2.0560   -0.8542 N   0  0  0  0  0  0  0  0  0  0  0  0
   -1.6723    2.0448   -0.0566 H   0  0  0  0  0  0  0  0  0  0  0  0
   -1.1522    3.1600   -1.8030 C   0  0  0  0  0  0  0  0  0  0  0  0
   -1.0594    2.7937   -2.8311 H   0  0  0  0  0  0  0  0  0  0  0  0
   -2.1234    3.6539   -1.7021 H   0  0  0  0  0  0  0  0  0  0  0  0
   -0.3651    3.8996   -1.6214 H   0  0  0  0  0  0  0  0  0  0  0  0
  1  2  1  0  0  0  0
  2  3  1  0  0  0  0
  2  4  1  0  0  0  0
  2  5  1  0  0  0  0
  5  6  2  0  0  0  0
  5  7  1  0  0  0  0
  7  8  1  0  0  0  0
  7  9  1  0  0  0  0
  9 10  1  0  0  0  0
  9 11  1  0  0  0  0
  9 18  1  0  0  0  0
 11 12  1  0  0  0  0
 11 13  1  0  0  0  0
 11 14  1  0  0  0  0
 14 15  2  0  0  0  0
 14 16  1  0  0  0  0
 16 17  1  0  0  0  0
 18 19  2  0  0  0  0
 18 20  1  0  0  0  0
 20 21  1  0  0  0  0
 20 22  1  0  0  0  0
 22 23  1  0  0  0  0
 22 24  1  0  0  0  0
 22 25  1  0  0  0  0
M  END
$$$$

  -OEChem-01062216063D

 25 24  0     1  0  0  0  0  0999 V2000
   -3.1475   -3.3083    0.8832 H   0  0  0  0  0  0  0  0  0  0  0  0
   -3.0159   -2.2591    0.6031 C   0  0  0  0  0  0  0  0  0  0  0  0
   -3.5819   -1.6377    1.3010 H   0  0  0  0  0  0  0  0  0  0  0  0
   -3.4075   -2.1147   -0.4066 H   0  0  0  0  0  0  0  0  0  0  0  0
   -1.5456   -1.8845    0.6481 C   0  0  0  0  0  0  0  0  0  0  0  0
   -0.7417   -2.7565    0.9152 O   0  0  0  0  0  0  0  0  0  0  0  0
   -1.1992   -0.5809    0.3306 N   0  0  0  0  0  0  0  0  0  0  0  0
   -1.9915   -0.0219    0.0270 H   0  0  0  0  0  0  0  0  0  0  0  0
    0.1162    0.1113    0.2872 C   0  0  1  0  0  0  0  0  0  0  0  0
    0.2187    0.6431    1.2387 H   0  0  0  0  0  0  0  0  0  0  0  0
    1.4077   -0.7422    0.1483 C   0  0  0  0  0  0  0  0  0  0  0  0
    1.2959   -1.4050   -0.7142 H   0  0  0  0  0  0  0  0  0  0  0  0
    2.2598   -0.0869   -0.0518 H   0  0  0  0  0  0  0  0  0  0  0  0
    1.7780   -1.5911    1.3612 C   0  0  0  0  0  0  0  0  0  0  0  0
    1.4483   -1.2081    2.4749 O   0  0  0  0  0  0  0  0  0  0  0  0
    2.5194   -2.7023    1.1414 O   0  0  0  0  0  0  0  0  0  0  0  0
    2.5986   -3.1374    2.0026 H   0  0  0  0  0  0  0  0  0  0  0  0
    0.0552    1.2212   -0.7880 C   0  0  0  0  0  0  0  0  0  0  0  0
    0.7775    1.2147   -1.7752 O   0  0  0  0  0  0  0  0  0  0  0  0
   -0.8785    2.2353   -0.6563 N   0  0  0  0  0  0  0  0  0  0  0  0
   -1.3773    2.2968    0.2261 H   0  0  0  0  0  0  0  0  0  0  0  0
   -0.9738    3.3514   -1.5913 C   0  0  0  0  0  0  0  0  0  0  0  0
   -1.1376    2.9863   -2.6109 H   0  0  0  0  0  0  0  0  0  0  0  0
   -1.8115    4.0017   -1.3216 H   0  0  0  0  0  0  0  0  0  0  0  0
   -0.0535    3.9447   -1.5745 H   0  0  0  0  0  0  0  0  0  0  0  0
  1  2  1  0  0  0  0
  2  3  1  0  0  0  0
  2  4  1  0  0  0  0
  2  5  1  0  0  0  0
  5  6  2  0  0  0  0
  5  7  1  0  0  0  0
  7  8  1  0  0  0  0
  7  9  1  0  0  0  0
  9 10  1  0  0  0  0
  9 11  1  0  0  0  0
  9 18  1  0  0  0  0
 11 12  1  0  0  0  0
 11 13  1  0  0  0  0
 11 14  1  0  0  0  0
 14 15  2  0  0  0  0
 14 16  1  0  0  0  0
 16 17  1  0  0  0  0
 18 19  2  0  0  0  0
 18 20  1  0  0  0  0
 20 21  1  0  0  0  0
 20 22  1  0  0  0  0
 22 23  1  0  0  0  0
 22 24  1  0  0  0  0
 22 25  1  0  0  0  0
M  END
$$$$

  -OEChem-01062216063D

 25 24  0     1  0  0  0  0  0999 V2000
   -3.1451   -3.3124    0.8797 H   0  0  0  0  0  0  0  0  0  0  0  0
   -3.0168   -2.2617    0.6032 C   0  0  0  0  0  0  0  0  0  0  0  0
   -3.5918   -1.6444    1.2973 H   0  0  0  0  0  0  0  0  0  0  0  0
   -3.4004   -2.1166   -0.4095 H   0  0  0  0  0  0  0  0  0  0  0  0
   -1.5488   -1.8800    0.6613 C   0  0  0  0  0  0  0  0  0  0  0  0
   -0.7445   -2.7481    0.9404 O   0  0  0  0  0  0  0  0  0  0  0  0
   -1.2047   -0.5755    0.3454 N   0  0  0  0  0  0  0  0  0  0  0  0
   -1.9969   -0.0165    0.0406 H   0  0  0  0  0  0  0  0  0  0  0  0
    0.1085    0.1184    0.3031 C   0  0  1  0  0  0  0  0  0  0  0  0
    0.2138    0.6418    1.2589 H   0  0  0  0  0  0  0  0  0  0  0  0
    1.4015   -0.7281    0.1496 C   0  0  0  0  0  0  0  0  0  0  0  0
    1.2831   -1.3857   -0.7163 H   0  0  0  0  0  0  0  0  0  0  0  0
    2.2484   -0.0680   -0.0556 H   0  0  0  0  0  0  0  0  0  0  0  0
    1.7819   -1.5882    1.3513 C   0  0  0  0  0  0  0  0  0  0  0  0
    1.4569   -1.2179    2.4707 O   0  0  0  0  0  0  0  0  0  0  0  0
    2.5246   -2.6952    1.1155 O   0  0  0  0  0  0  0  0  0  0  0  0
    2.6059   -3.1411    1.9709 H   0  0  0  0  0  0  0  0  0  0  0  0
    0.0506    1.2292   -0.7686 C   0  0  0  0  0  0  0  0  0  0  0  0
    0.5663    1.0922   -1.8693 O   0  0  0  0  0  0  0  0  0  0  0  0
   -0.6443    2.3949   -0.4976 N   0  0  0  0  0  0  0  0  0  0  0  0
   -0.9942    2.5234    0.4473 H   0  0  0  0  0  0  0  0  0  0  0  0
   -0.7149    3.5152   -1.4294 C   0  0  0  0  0  0  0  0  0  0  0  0
   -1.1334    3.1921   -2.3886 H   0  0  0  0  0  0  0  0  0  0  0  0
   -1.3548    4.3051   -1.0243 H   0  0  0  0  0  0  0  0  0  0  0  0
    0.2828    3.9317   -1.6035 H   0  0  0  0  0  0  0  0  0  0  0  0
  1  2  1  0  0  0  0
  2  3  1  0  0  0  0
  2  4  1  0  0  0  0
  2  5  1  0  0  0  0
  5  6  2  0  0  0  0
  5  7  1  0  0  0  0
  7  8  1  0  0  0  0
  7  9  1  0  0  0  0
  9 10  1  0  0  0  0
  9 11  1  0  0  0  0
  9 18  1  0  0  0  0
 11 12  1  0  0  0  0
 11 13  1  0  0  0  0
 11 14  1  0  0  0  0
 14 15  2  0  0  0  0
 14 16  1  0  0  0  0
 16 17  1  0  0  0  0
 18 19  2  0  0  0  0
 18 20  1  0  0  0  0
 20 21  1  0  0  0  0
 20 22  1  0  0  0  0
 22 23  1  0  0  0  0
 22 24  1  0  0  0  0
 22 25  1  0  0  0  0
M  END
$$$$

  -OEChem-01062216063D

 25 24  0     1  0  0  0  0  0999 V2000
   -3.1480   -3.3114    0.8573 H   0  0  0  0  0  0  0  0  0  0  0  0
   -3.0178   -2.2588    0.5892 C   0  0  0  0  0  0  0  0  0  0  0  0
   -3.6100   -1.6470    1.2736 H   0  0  0  0  0  0  0  0  0  0  0  0
   -3.3794   -2.1100   -0.4312 H   0  0  0  0  0  0  0  0  0  0  0  0
   -1.5530   -1.8722    0.6813 C   0  0  0  0  0  0  0  0  0  0  0  0
   -0.7521   -2.7353    0.9851 O   0  0  0  0  0  0  0  0  0  0  0  0
   -1.2074   -0.5676    0.3696 N   0  0  0  0  0  0  0  0  0  0  0  0
   -1.9939   -0.0150    0.0389 H   0  0  0  0  0  0  0  0  0  0  0  0
    0.1048    0.1258    0.3313 C   0  0  1  0  0  0  0  0  0  0  0  0
    0.2105    0.6367    1.2934 H   0  0  0  0  0  0  0  0  0  0  0  0
    1.3983   -0.7142    0.1582 C   0  0  0  0  0  0  0  0  0  0  0  0
    1.2758   -1.3595   -0.7164 H   0  0  0  0  0  0  0  0  0  0  0  0
    2.2414   -0.0483   -0.0435 H   0  0  0  0  0  0  0  0  0  0  0  0
    1.7901   -1.5925    1.3428 C   0  0  0  0  0  0  0  0  0  0  0  0
    1.4716   -1.2411    2.4699 O   0  0  0  0  0  0  0  0  0  0  0  0
    2.5363   -2.6921    1.0841 O   0  0  0  0  0  0  0  0  0  0  0  0
    2.6241   -3.1523    1.9315 H   0  0  0  0  0  0  0  0  0  0  0  0
    0.0533    1.2395   -0.7354 C   0  0  0  0  0  0  0  0  0  0  0  0
    0.3037    1.0039   -1.9091 O   0  0  0  0  0  0  0  0  0  0  0  0
   -0.3553    2.5130   -0.3809 N   0  0  0  0  0  0  0  0  0  0  0  0
   -0.5231    2.6986    0.6038 H   0  0  0  0  0  0  0  0  0  0  0  0
   -0.4136    3.6228   -1.3256 C   0  0  0  0  0  0  0  0  0  0  0  0
   -1.0892    3.3861   -2.1544 H   0  0  0  0  0  0  0  0  0  0  0  0
   -0.7815    4.5254   -0.8286 H   0  0  0  0  0  0  0  0  0  0  0  0
    0.5818    3.8324   -1.7316 H   0  0  0  0  0  0  0  0  0  0  0  0
  1  2  1  0  0  0  0
  2  3  1  0  0  0  0
  2  4  1  0  0  0  0
  2  5  1  0  0  0  0
  5  6  2  0  0  0  0
  5  7  1  0  0  0  0
  7  8  1  0  0  0  0
  7  9  1  0  0  0  0
  9 10  1  0  0  0  0
  9 11  1  0  0  0  0
  9 18  1  0  0  0  0
 11 12  1  0  0  0  0
 11 13  1  0  0  0  0
 11 14  1  0  0  0  0
 14 15  2  0  0  0  0
 14 16  1  0  0  0  0
 16 17  1  0  0  0  0
 18 19  2  0  0  0  0
 18 20  1  0  0  0  0
 20 21  1  0  0  0  0
 20 22  1  0  0  0  0
 22 23  1  0  0  0  0
 22 24  1  0  0  0  0
 22 25  1  0  0  0  0
M  END
$$$$

  -OEChem-01062216063D

 25 24  0     1  0  0  0  0  0999 V2000
   -3.1488   -3.3062    0.8301 H   0  0  0  0  0  0  0  0  0  0  0  0
   -3.0139   -2.2531    0.5670 C   0  0  0  0  0  0  0  0  0  0  0  0
   -3.6328   -1.6437    1.2296 H   0  0  0  0  0  0  0  0  0  0  0  0
   -3.3399   -2.1051   -0.4655 H   0  0  0  0  0  0  0  0  0  0  0  0
   -1.5554   -1.8587    0.7114 C   0  0  0  0  0  0  0  0  0  0  0  0
   -0.7634   -2.7138    1.0588 O   0  0  0  0  0  0  0  0  0  0  0  0
   -1.2045   -0.5560    0.3988 N   0  0  0  0  0  0  0  0  0  0  0  0
   -1.9763   -0.0190    0.0114 H   0  0  0  0  0  0  0  0  0  0  0  0
    0.1096    0.1327    0.3578 C   0  0  1  0  0  0  0  0  0  0  0  0
    0.2193    0.6366    1.3232 H   0  0  0  0  0  0  0  0  0  0  0  0
    1.3990   -0.7074    0.1668 C   0  0  0  0  0  0  0  0  0  0  0  0
    1.2662   -1.3437   -0.7132 H   0  0  0  0  0  0  0  0  0  0  0  0
    2.2413   -0.0413   -0.0362 H   0  0  0  0  0  0  0  0  0  0  0  0
    1.8004   -1.5993    1.3381 C   0  0  0  0  0  0  0  0  0  0  0  0
    1.4932   -1.2596    2.4718 O   0  0  0  0  0  0  0  0  0  0  0  0
    2.5354   -2.7013    1.0598 O   0  0  0  0  0  0  0  0  0  0  0  0
    2.6212   -3.1746    1.9003 H   0  0  0  0  0  0  0  0  0  0  0  0
    0.0646    1.2468   -0.7073 C   0  0  0  0  0  0  0  0  0  0  0  0
    0.0075    0.9679   -1.8967 O   0  0  0  0  0  0  0  0  0  0  0  0
   -0.0283    2.5728   -0.3249 N   0  0  0  0  0  0  0  0  0  0  0  0
    0.0249    2.7849    0.6674 H   0  0  0  0  0  0  0  0  0  0  0  0
   -0.0933    3.6749   -1.2780 C   0  0  0  0  0  0  0  0  0  0  0  0
   -0.9684    3.5695   -1.9278 H   0  0  0  0  0  0  0  0  0  0  0  0
   -0.1695    4.6298   -0.7489 H   0  0  0  0  0  0  0  0  0  0  0  0
    0.8069    3.6950   -1.9013 H   0  0  0  0  0  0  0  0  0  0  0  0
  1  2  1  0  0  0  0
  2  3  1  0  0  0  0
  2  4  1  0  0  0  0
  2  5  1  0  0  0  0
  5  6  2  0  0  0  0
  5  7  1  0  0  0  0
  7  8  1  0  0  0  0
  7  9  1  0  0  0  0
  9 10  1  0  0  0  0
  9 11  1  0  0  0  0
  9 18  1  0  0  0  0
 11 12  1  0  0  0  0
 11 13  1  0  0  0  0
 11 14  1  0  0  0  0
 14 15  2  0  0  0  0
 14 16  1  0  0  0  0
 16 17  1  0  0  0  0
 18 19  2  0  0  0  0
 18 20  1  0  0  0  0
 20 21  1  0  0  0  0
 20 22  1  0  0  0  0
 22 23  1  0  0  0  0
 22 24  1  0  0  0  0
 22 25  1  0  0  0  0
M  END
$$$$

  -OEChem-01062216063D

 25 24  0     1  0  0  0  0  0999 V2000
   -3.1554   -3.2903    0.8190 H   0  0  0  0  0  0  0  0  0  0  0  0
   -3.0112   -2.2406    0.5479 C   0  0  0  0  0  0  0  0  0  0  0  0
   -3.6460   -1.6227    1.1872 H   0  0  0  0  0  0  0  0  0  0  0  0
   -3.3092   -2.1034   -0.4945 H   0  0  0  0  0  0  0  0  0  0  0  0
   -1.5564   -1.8472    0.7262 C   0  0  0  0  0  0  0  0  0  0  0  0
   -0.7747   -2.6987    1.1050 O   0  0  0  0  0  0  0  0  0  0  0  0
   -1.1960   -0.5482    0.4109 N   0  0  0  0  0  0  0  0  0  0  0  0
   -1.9499   -0.0231   -0.0267 H   0  0  0  0  0  0  0  0  0  0  0  0
    0.1215    0.1328    0.3694 C   0  0  1  0  0  0  0  0  0  0  0  0
    0.2290    0.6364    1.3353 H   0  0  0  0  0  0  0  0  0  0  0  0
    1.4061   -0.7122    0.1747 C   0  0  0  0  0  0  0  0  0  0  0  0
    1.2687   -1.3458   -0.7063 H   0  0  0  0  0  0  0  0  0  0  0  0
    2.2522   -0.0503   -0.0267 H   0  0  0  0  0  0  0  0  0  0  0  0
    1.8056   -1.6085    1.3432 C   0  0  0  0  0  0  0  0  0  0  0  0
    1.5025   -1.2706    2.4783 O   0  0  0  0  0  0  0  0  0  0  0  0
    2.5347   -2.7132    1.0598 O   0  0  0  0  0  0  0  0  0  0  0  0
    2.6192   -3.1899    1.8987 H   0  0  0  0  0  0  0  0  0  0  0  0
    0.0870    1.2453   -0.6978 C   0  0  0  0  0  0  0  0  0  0  0  0
   -0.2752    0.9935   -1.8391 O   0  0  0  0  0  0  0  0  0  0  0  0
    0.3141    2.5625   -0.3420 N   0  0  0  0  0  0  0  0  0  0  0  0
    0.5880    2.7543    0.6175 H   0  0  0  0  0  0  0  0  0  0  0  0
    0.2247    3.6721   -1.2843 C   0  0  0  0  0  0  0  0  0  0  0  0
   -0.7870    3.7440   -1.6973 H   0  0  0  0  0  0  0  0  0  0  0  0
    0.4604    4.6154   -0.7823 H   0  0  0  0  0  0  0  0  0  0  0  0
    0.9324    3.5330   -2.1085 H   0  0  0  0  0  0  0  0  0  0  0  0
  1  2  1  0  0  0  0
  2  3  1  0  0  0  0
  2  4  1  0  0  0  0
  2  5  1  0  0  0  0
  5  6  2  0  0  0  0
  5  7  1  0  0  0  0
  7  8  1  0  0  0  0
  7  9  1  0  0  0  0
  9 10  1  0  0  0  0
  9 11  1  0  0  0  0
  9 18  1  0  0  0  0
 11 12  1  0  0  0  0
 11 13  1  0  0  0  0
 11 14  1  0  0  0  0
 14 15  2  0  0  0  0
 14 16  1  0  0  0  0
 16 17  1  0  0  0  0
 18 19  2  0  0  0  0
 18 20  1  0  0  0  0
 20 21  1  0  0  0  0
 20 22  1  0  0  0  0
 22 23  1  0  0  0  0
 22 24  1  0  0  0  0
 22 25  1  0  0  0  0
M  END
$$$$

  -OEChem-01062216063D

 25 24  0     1  0  0  0  0  0999 V2000
   -3.1588   -3.2870    0.8198 H   0  0  0  0  0  0  0  0  0  0  0  0
   -3.0115   -2.2382    0.5467 C   0  0  0  0  0  0  0  0  0  0  0  0
   -3.6478   -1.6172    1.1816 H   0  0  0  0  0  0  0  0  0  0  0  0
   -3.3049   -2.1028   -0.4973 H   0  0  0  0  0  0  0  0  0  0  0  0
   -1.5570   -1.8462    0.7304 C   0  0  0  0  0  0  0  0  0  0  0  0
   -0.7771   -2.6975    1.1140 O   0  0  0  0  0  0  0  0  0  0  0  0
   -1.1931   -0.5496    0.4121 N   0  0  0  0  0  0  0  0  0  0  0  0
   -1.9375   -0.0300   -0.0499 H   0  0  0  0  0  0  0  0  0  0  0  0
    0.1246    0.1300    0.3669 C   0  0  1  0  0  0  0  0  0  0  0  0
    0.2296    0.6382    1.3308 H   0  0  0  0  0  0  0  0  0  0  0  0
    1.4072   -0.7187    0.1751 C   0  0  0  0  0  0  0  0  0  0  0  0
    1.2667   -1.3562   -0.7026 H   0  0  0  0  0  0  0  0  0  0  0  0
    2.2554   -0.0607   -0.0298 H   0  0  0  0  0  0  0  0  0  0  0  0
    1.8059   -1.6107    1.3472 C   0  0  0  0  0  0  0  0  0  0  0  0
    1.5045   -1.2672    2.4808 O   0  0  0  0  0  0  0  0  0  0  0  0
    2.5358   -2.7157    1.0679 O   0  0  0  0  0  0  0  0  0  0  0  0
    2.6207   -3.1890    1.9089 H   0  0  0  0  0  0  0  0  0  0  0  0
    0.0954    1.2420   -0.7021 C   0  0  0  0  0  0  0  0  0  0  0  0
   -0.5244    1.0798   -1.7458 O   0  0  0  0  0  0  0  0  0  0  0  0
    0.6221    2.4902   -0.4227 N   0  0  0  0  0  0  0  0  0  0  0  0
    1.0985    2.6161    0.4661 H   0  0  0  0  0  0  0  0  0  0  0  0
    0.5502    3.6147   -1.3488 C   0  0  0  0  0  0  0  0  0  0  0  0
   -0.4934    3.8718   -1.5598 H   0  0  0  0  0  0  0  0  0  0  0  0
    1.0414    4.4925   -0.9179 H   0  0  0  0  0  0  0  0  0  0  0  0
    1.0496    3.3671   -2.2916 H   0  0  0  0  0  0  0  0  0  0  0  0
  1  2  1  0  0  0  0
  2  3  1  0  0  0  0
  2  4  1  0  0  0  0
  2  5  1  0  0  0  0
  5  6  2  0  0  0  0
  5  7  1  0  0  0  0
  7  8  1  0  0  0  0
  7  9  1  0  0  0  0
  9 10  1  0  0  0  0
  9 11  1  0  0  0  0
  9 18  1  0  0  0  0
 11 12  1  0  0  0  0
 11 13  1  0  0  0  0
 11 14  1  0  0  0  0
 14 15  2  0  0  0  0
 14 16  1  0  0  0  0
 16 17  1  0  0  0  0
 18 19  2  0  0  0  0
 18 20  1  0  0  0  0
 20 21  1  0  0  0  0
 20 22  1  0  0  0  0
 22 23  1  0  0  0  0
 22 24  1  0  0  0  0
 22 25  1  0  0  0  0
M  END
$$$$

  -OEChem-01062216063D

 25 24  0     1  0  0  0  0  0999 V2000
   -3.1619   -3.2848    0.8208 H   0  0  0  0  0  0  0  0  0  0  0  0
   -3.0112   -2.2360    0.5499 C   0  0  0  0  0  0  0  0  0  0  0  0
   -3.6384   -1.6140    1.1930 H   0  0  0  0  0  0  0  0  0  0  0  0
   -3.3137   -2.0948   -0.4907 H   0  0  0  0  0  0  0  0  0  0  0  0
   -1.5529   -1.8523    0.7216 C   0  0  0  0  0  0  0  0  0  0  0  0
   -0.7720   -2.7101    1.0890 O   0  0  0  0  0  0  0  0  0  0  0  0
   -1.1852   -0.5565    0.4050 N   0  0  0  0  0  0  0  0  0  0  0  0
   -1.9293   -0.0289   -0.0501 H   0  0  0  0  0  0  0  0  0  0  0  0
    0.1305    0.1271    0.3637 C   0  0  1  0  0  0  0  0  0  0  0  0
    0.2311    0.6406    1.3254 H   0  0  0  0  0  0  0  0  0  0  0  0
    1.4127   -0.7253    0.1783 C   0  0  0  0  0  0  0  0  0  0  0  0
    1.2740   -1.3659   -0.6973 H   0  0  0  0  0  0  0  0  0  0  0  0
    2.2652   -0.0725   -0.0245 H   0  0  0  0  0  0  0  0  0  0  0  0
    1.8038   -1.6151    1.3549 C   0  0  0  0  0  0  0  0  0  0  0  0
    1.4983   -1.2680    2.4862 O   0  0  0  0  0  0  0  0  0  0  0  0
    2.5341   -2.7214    1.0816 O   0  0  0  0  0  0  0  0  0  0  0  0
    2.6132   -3.1942    1.9235 H   0  0  0  0  0  0  0  0  0  0  0  0
    0.1023    1.2396   -0.7071 C   0  0  0  0  0  0  0  0  0  0  0  0
   -0.7100    1.1982   -1.6237 O   0  0  0  0  0  0  0  0  0  0  0  0
    0.8822    2.3720   -0.5557 N   0  0  0  0  0  0  0  0  0  0  0  0
    1.5146    2.4095    0.2388 H   0  0  0  0  0  0  0  0  0  0  0  0
    0.8392    3.5023   -1.4766 C   0  0  0  0  0  0  0  0  0  0  0  0
   -0.1596    3.9513   -1.4862 H   0  0  0  0  0  0  0  0  0  0  0  0
    1.5591    4.2677   -1.1712 H   0  0  0  0  0  0  0  0  0  0  0  0
    1.0895    3.1789   -2.4926 H   0  0  0  0  0  0  0  0  0  0  0  0
  1  2  1  0  0  0  0
  2  3  1  0  0  0  0
  2  4  1  0  0  0  0
  2  5  1  0  0  0  0
  5  6  2  0  0  0  0
  5  7  1  0  0  0  0
  7  8  1  0  0  0  0
  7  9  1  0  0  0  0
  9 10  1  0  0  0  0
  9 11  1  0  0  0  0
  9 18  1  0  0  0  0
 11 12  1  0  0  0  0
 11 13  1  0  0  0  0
 11 14  1  0  0  0  0
 14 15  2  0  0  0  0
 14 16  1  0  0  0  0
 16 17  1  0  0  0  0
 18 19  2  0  0  0  0
 18 20  1  0  0  0  0
 20 21  1  0  0  0  0
 20 22  1  0  0  0  0
 22 23  1  0  0  0  0
 22 24  1  0  0  0  0
 22 25  1  0  0  0  0
M  END
$$$$

  -OEChem-01062216063D

 25 24  0     1  0  0  0  0  0999 V2000
   -3.1620   -3.2820    0.8135 H   0  0  0  0  0  0  0  0  0  0  0  0
   -3.0085   -2.2308    0.5535 C   0  0  0  0  0  0  0  0  0  0  0  0
   -3.6193   -1.6119    1.2149 H   0  0  0  0  0  0  0  0  0  0  0  0
   -3.3282   -2.0737   -0.4795 H   0  0  0  0  0  0  0  0  0  0  0  0
   -1.5443   -1.8607    0.7039 C   0  0  0  0  0  0  0  0  0  0  0  0
   -0.7627   -2.7314    1.0383 O   0  0  0  0  0  0  0  0  0  0  0  0
   -1.1710   -0.5647    0.3949 N   0  0  0  0  0  0  0  0  0  0  0  0
   -1.9217   -0.0176   -0.0265 H   0  0  0  0  0  0  0  0  0  0  0  0
    0.1427    0.1232    0.3602 C   0  0  1  0  0  0  0  0  0  0  0  0
    0.2409    0.6397    1.3205 H   0  0  0  0  0  0  0  0  0  0  0  0
    1.4218   -0.7390    0.1840 C   0  0  0  0  0  0  0  0  0  0  0  0
    1.2822   -1.3832   -0.6888 H   0  0  0  0  0  0  0  0  0  0  0  0
    2.2833   -0.0988   -0.0165 H   0  0  0  0  0  0  0  0  0  0  0  0
    1.7974   -1.6265    1.3675 C   0  0  0  0  0  0  0  0  0  0  0  0
    1.4865   -1.2733    2.4952 O   0  0  0  0  0  0  0  0  0  0  0  0
    2.5236   -2.7375    1.1036 O   0  0  0  0  0  0  0  0  0  0  0  0
    2.5905   -3.2093    1.9471 H   0  0  0  0  0  0  0  0  0  0  0  0
    0.1098    1.2401   -0.7091 C   0  0  0  0  0  0  0  0  0  0  0  0
   -0.8420    1.3368   -1.4762 O   0  0  0  0  0  0  0  0  0  0  0  0
    1.0851    2.2215   -0.7320 N   0  0  0  0  0  0  0  0  0  0  0  0
    1.8343    2.1609   -0.0484 H   0  0  0  0  0  0  0  0  0  0  0  0
    1.0690    3.3453   -1.6617 C   0  0  0  0  0  0  0  0  0  0  0  0
    0.1799    3.9638   -1.4999 H   0  0  0  0  0  0  0  0  0  0  0  0
    1.9559    3.9695   -1.5167 H   0  0  0  0  0  0  0  0  0  0  0  0
    1.0653    2.9867   -2.6965 H   0  0  0  0  0  0  0  0  0  0  0  0
  1  2  1  0  0  0  0
  2  3  1  0  0  0  0
  2  4  1  0  0  0  0
  2  5  1  0  0  0  0
  5  6  2  0  0  0  0
  5  7  1  0  0  0  0
  7  8  1  0  0  0  0
  7  9  1  0  0  0  0
  9 10  1  0  0  0  0
  9 11  1  0  0  0  0
  9 18  1  0  0  0  0
 11 12  1  0  0  0  0
 11 13  1  0  0  0  0
 11 14  1  0  0  0  0
 14 15  2  0  0  0  0
 14 16  1  0  0  0  0
 16 17  1  0  0  0  0
 18 19  2  0  0  0  0
 18 20  1  0  0  0  0
 20 21  1  0  0  0  0
 20 22  1  0  0  0  0
 22 23  1  0  0  0  0
 22 24  1  0  0  0  0
 22 25  1  0  0  0  0
M  END
$$$$

  -OEChem-01062216063D

 25 24  0     1  0  0  0  0  0999 V2000
   -3.1829   -3.2353    0.9122 H   0  0  0  0  0  0  0  0  0  0  0  0
   -3.0147   -2.1891    0.6413 C   0  0  0  0  0  0  0  0  0  0  0  0
   -3.5442   -1.5521    1.3539 H   0  0  0  0  0  0  0  0  0  0  0  0
   -3.4160   -2.0162   -0.3602 H   0  0  0  0  0  0  0  0  0  0  0  0
   -1.5310   -1.8709    0.6656 C   0  0  0  0  0  0  0  0  0  0  0  0
   -0.7545   -2.7791    0.8911 O   0  0  0  0  0  0  0  0  0  0  0  0
   -1.1443   -0.5782    0.3604 N   0  0  0  0  0  0  0  0  0  0  0  0
   -1.9201    0.0241    0.0805 H   0  0  0  0  0  0  0  0  0  0  0  0
    0.1640    0.1209    0.3263 C   0  0  1  0  0  0  0  0  0  0  0  0
    0.3904    0.4116    1.3577 H   0  0  0  0  0  0  0  0  0  0  0  0
    1.3890   -0.6827   -0.1934 C   0  0  0  0  0  0  0  0  0  0  0  0
    1.1235   -1.1142   -1.1626 H   0  0  0  0  0  0  0  0  0  0  0  0
    2.2390   -0.0172   -0.3534 H   0  0  0  0  0  0  0  0  0  0  0  0
    1.8925   -1.8128    0.6991 C   0  0  0  0  0  0  0  0  0  0  0  0
    1.7409   -1.7241    1.9080 O   0  0  0  0  0  0  0  0  0  0  0  0
    2.5270   -2.8450    0.0972 O   0  0  0  0  0  0  0  0  0  0  0  0
    2.6866   -3.4924    0.8008 H   0  0  0  0  0  0  0  0  0  0  0  0
    0.0039    1.4512   -0.4514 C   0  0  0  0  0  0  0  0  0  0  0  0
   -1.0996    1.7909   -0.8664 O   0  0  0  0  0  0  0  0  0  0  0  0
    1.0735    2.3099   -0.6369 N   0  0  0  0  0  0  0  0  0  0  0  0
    1.9706    2.0393   -0.2451 H   0  0  0  0  0  0  0  0  0  0  0  0
    0.9631    3.5934   -1.3210 C   0  0  0  0  0  0  0  0  0  0  0  0
    0.2379    4.2381   -0.8133 H   0  0  0  0  0  0  0  0  0  0  0  0
    1.9315    4.1030   -1.3291 H   0  0  0  0  0  0  0  0  0  0  0  0
    0.6407    3.4484   -2.3576 H   0  0  0  0  0  0  0  0  0  0  0  0
  1  2  1  0  0  0  0
  2  3  1  0  0  0  0
  2  4  1  0  0  0  0
  2  5  1  0  0  0  0
  5  6  2  0  0  0  0
  5  7  1  0  0  0  0
  7  8  1  0  0  0  0
  7  9  1  0  0  0  0
  9 10  1  0  0  0  0
  9 11  1  0  0  0  0
  9 18  1  0  0  0  0
 11 12  1  0  0  0  0
 11 13  1  0  0  0  0
 11 14  1  0  0  0  0
 14 15  2  0  0  0  0
 14 16  1  0  0  0  0
 16 17  1  0  0  0  0
 18 19  2  0  0  0  0
 18 20  1  0  0  0  0
 20 21  1  0  0  0  0
 20 22  1  0  0  0  0
 22 23  1  0  0  0  0
 22 24  1  0  0  0  0
 22 25  1  0  0  0  0
M  END
$$$$

  -OEChem-01062216063D

 25 24  0     1  0  0  0  0  0999 V2000
   -3.1888   -3.2195    0.9143 H   0  0  0  0  0  0  0  0  0  0  0  0
   -3.0171   -2.1717    0.6519 C   0  0  0  0  0  0  0  0  0  0  0  0
   -3.5000   -1.5391    1.4007 H   0  0  0  0  0  0  0  0  0  0  0  0
   -3.4649   -1.9754   -0.3253 H   0  0  0  0  0  0  0  0  0  0  0  0
   -1.5286   -1.8780    0.6084 C   0  0  0  0  0  0  0  0  0  0  0  0
   -0.7561   -2.8054    0.7598 O   0  0  0  0  0  0  0  0  0  0  0  0
   -1.1336   -0.5844    0.3185 N   0  0  0  0  0  0  0  0  0  0  0  0
   -1.9118    0.0450    0.1152 H   0  0  0  0  0  0  0  0  0  0  0  0
    0.1795    0.1064    0.3066 C   0  0  1  0  0  0  0  0  0  0  0  0
    0.3902    0.3985    1.3409 H   0  0  0  0  0  0  0  0  0  0  0  0
    1.4114   -0.7077   -0.1829 C   0  0  0  0  0  0  0  0  0  0  0  0
    1.1684   -1.1415   -1.1568 H   0  0  0  0  0  0  0  0  0  0  0  0
    2.2724   -0.0518   -0.3183 H   0  0  0  0  0  0  0  0  0  0  0  0
    1.8852   -1.8349    0.7300 C   0  0  0  0  0  0  0  0  0  0  0  0
    1.7059   -1.7379    1.9345 O   0  0  0  0  0  0  0  0  0  0  0  0
    2.5367   -2.8694    0.1503 O   0  0  0  0  0  0  0  0  0  0  0  0
    2.6795   -3.5127    0.8610 H   0  0  0  0  0  0  0  0  0  0  0  0
    0.0207    1.4424   -0.4657 C   0  0  0  0  0  0  0  0  0  0  0  0
   -1.1024    1.8945   -0.6655 O   0  0  0  0  0  0  0  0  0  0  0  0
    1.1092    2.1711   -0.9145 N   0  0  0  0  0  0  0  0  0  0  0  0
    2.0361    1.8035   -0.7238 H   0  0  0  0  0  0  0  0  0  0  0  0
    0.9894    3.4436   -1.6174 C   0  0  0  0  0  0  0  0  0  0  0  0
    0.4712    4.1796   -0.9935 H   0  0  0  0  0  0  0  0  0  0  0  0
    1.9812    3.8363   -1.8615 H   0  0  0  0  0  0  0  0  0  0  0  0
    0.4294    3.3147   -2.5496 H   0  0  0  0  0  0  0  0  0  0  0  0
  1  2  1  0  0  0  0
  2  3  1  0  0  0  0
  2  4  1  0  0  0  0
  2  5  1  0  0  0  0
  5  6  2  0  0  0  0
  5  7  1  0  0  0  0
  7  8  1  0  0  0  0
  7  9  1  0  0  0  0
  9 10  1  0  0  0  0
  9 11  1  0  0  0  0
  9 18  1  0  0  0  0
 11 12  1  0  0  0  0
 11 13  1  0  0  0  0
 11 14  1  0  0  0  0
 14 15  2  0  0  0  0
 14 16  1  0  0  0  0
 16 17  1  0  0  0  0
 18 19  2  0  0  0  0
 18 20  1  0  0  0  0
 20 21  1  0  0  0  0
 20 22  1  0  0  0  0
 22 23  1  0  0  0  0
 22 24  1  0  0  0  0
 22 25  1  0  0  0  0
M  END
$$$$

  -OEChem-01062216063D

 25 24  0     1  0  0  0  0  0999 V2000
   -3.1835   -3.2064    0.9339 H   0  0  0  0  0  0  0  0  0  0  0  0
   -3.0144   -2.1605    0.6628 C   0  0  0  0  0  0  0  0  0  0  0  0
   -3.4613   -1.5232    1.4297 H   0  0  0  0  0  0  0  0  0  0  0  0
   -3.5001   -1.9614   -0.2955 H   0  0  0  0  0  0  0  0  0  0  0  0
   -1.5267   -1.8795    0.5578 C   0  0  0  0  0  0  0  0  0  0  0  0
   -0.7570   -2.8190    0.6318 O   0  0  0  0  0  0  0  0  0  0  0  0
   -1.1293   -0.5831    0.2847 N   0  0  0  0  0  0  0  0  0  0  0  0
   -1.9076    0.0664    0.1632 H   0  0  0  0  0  0  0  0  0  0  0  0
    0.1890    0.0966    0.2948 C   0  0  1  0  0  0  0  0  0  0  0  0
    0.3854    0.3851    1.3331 H   0  0  0  0  0  0  0  0  0  0  0  0
    1.4288   -0.7191   -0.1707 C   0  0  0  0  0  0  0  0  0  0  0  0
    1.2088   -1.1504   -1.1512 H   0  0  0  0  0  0  0  0  0  0  0  0
    2.2941   -0.0634   -0.2778 H   0  0  0  0  0  0  0  0  0  0  0  0
    1.8782   -1.8474    0.7540 C   0  0  0  0  0  0  0  0  0  0  0  0
    1.6725   -1.7505    1.9543 O   0  0  0  0  0  0  0  0  0  0  0  0
    2.5428   -2.8818    0.1888 O   0  0  0  0  0  0  0  0  0  0  0  0
    2.6694   -3.5259    0.9020 H   0  0  0  0  0  0  0  0  0  0  0  0
    0.0346    1.4387   -0.4669 C   0  0  0  0  0  0  0  0  0  0  0  0
   -1.0538    2.0044   -0.4583 O   0  0  0  0  0  0  0  0  0  0  0  0
    1.0739    2.0280   -1.1671 N   0  0  0  0  0  0  0  0  0  0  0  0
    1.9573    1.5298   -1.2085 H   0  0  0  0  0  0  0  0  0  0  0  0
    0.9354    3.2728   -1.9148 C   0  0  0  0  0  0  0  0  0  0  0  0
    0.6054    4.0824   -1.2553 H   0  0  0  0  0  0  0  0  0  0  0  0
    1.8954    3.5585   -2.3557 H   0  0  0  0  0  0  0  0  0  0  0  0
    0.2045    3.1554   -2.7218 H   0  0  0  0  0  0  0  0  0  0  0  0
  1  2  1  0  0  0  0
  2  3  1  0  0  0  0
  2  4  1  0  0  0  0
  2  5  1  0  0  0  0
  5  6  2  0  0  0  0
  5  7  1  0  0  0  0
  7  8  1  0  0  0  0
  7  9  1  0  0  0  0
  9 10  1  0  0  0  0
  9 11  1  0  0  0  0
  9 18  1  0  0  0  0
 11 12  1  0  0  0  0
 11 13  1  0  0  0  0
 11 14  1  0  0  0  0
 14 15  2  0  0  0  0
 14 16  1  0  0  0  0
 16 17  1  0  0  0  0
 18 19  2  0  0  0  0
 18 20  1  0  0  0  0
 20 21  1  0  0  0  0
 20 22  1  0  0  0  0
 22 23  1  0  0  0  0
 22 24  1  0  0  0  0
 22 25  1  0  0  0  0
M  END
$$$$

  -OEChem-01062216063D

 25 24  0     1  0  0  0  0  0999 V2000
   -3.1735   -3.2065    0.9433 H   0  0  0  0  0  0  0  0  0  0  0  0
   -3.0112   -2.1575    0.6799 C   0  0  0  0  0  0  0  0  0  0  0  0
   -3.4293   -1.5297    1.4704 H   0  0  0  0  0  0  0  0  0  0  0  0
   -3.5294   -1.9450   -0.2582 H   0  0  0  0  0  0  0  0  0  0  0  0
   -1.5274   -1.8781    0.5259 C   0  0  0  0  0  0  0  0  0  0  0  0
   -0.7577   -2.8203    0.5515 O   0  0  0  0  0  0  0  0  0  0  0  0
   -1.1336   -0.5800    0.2557 N   0  0  0  0  0  0  0  0  0  0  0  0
   -1.9116    0.0772    0.1906 H   0  0  0  0  0  0  0  0  0  0  0  0
    0.1876    0.0915    0.2810 C   0  0  1  0  0  0  0  0  0  0  0  0
    0.3712    0.3812    1.3215 H   0  0  0  0  0  0  0  0  0  0  0  0
    1.4359   -0.7206   -0.1651 C   0  0  0  0  0  0  0  0  0  0  0  0
    1.2346   -1.1534   -1.1489 H   0  0  0  0  0  0  0  0  0  0  0  0
    2.2981   -0.0568   -0.2551 H   0  0  0  0  0  0  0  0  0  0  0  0
    1.8728   -1.8476    0.7670 C   0  0  0  0  0  0  0  0  0  0  0  0
    1.6478   -1.7521    1.9638 O   0  0  0  0  0  0  0  0  0  0  0  0
    2.5500   -2.8793    0.2117 O   0  0  0  0  0  0  0  0  0  0  0  0
    2.6689   -3.5227    0.9267 H   0  0  0  0  0  0  0  0  0  0  0  0
    0.0422    1.4315   -0.4810 C   0  0  0  0  0  0  0  0  0  0  0  0
   -0.9642    2.1060   -0.2950 O   0  0  0  0  0  0  0  0  0  0  0  0
    0.9701    1.8712   -1.4099 N   0  0  0  0  0  0  0  0  0  0  0  0
    1.7509    1.2570   -1.6204 H   0  0  0  0  0  0  0  0  0  0  0  0
    0.8109    3.0966   -2.1846 C   0  0  0  0  0  0  0  0  0  0  0  0
    0.6977    3.9589   -1.5190 H   0  0  0  0  0  0  0  0  0  0  0  0
    1.6894    3.2623   -2.8155 H   0  0  0  0  0  0  0  0  0  0  0  0
   -0.0718    3.0310   -2.8294 H   0  0  0  0  0  0  0  0  0  0  0  0
  1  2  1  0  0  0  0
  2  3  1  0  0  0  0
  2  4  1  0  0  0  0
  2  5  1  0  0  0  0
  5  6  2  0  0  0  0
  5  7  1  0  0  0  0
  7  8  1  0  0  0  0
  7  9  1  0  0  0  0
  9 10  1  0  0  0  0
  9 11  1  0  0  0  0
  9 18  1  0  0  0  0
 11 12  1  0  0  0  0
 11 13  1  0  0  0  0
 11 14  1  0  0  0  0
 14 15  2  0  0  0  0
 14 16  1  0  0  0  0
 16 17  1  0  0  0  0
 18 19  2  0  0  0  0
 18 20  1  0  0  0  0
 20 21  1  0  0  0  0
 20 22  1  0  0  0  0
 22 23  1  0  0  0  0
 22 24  1  0  0  0  0
 22 25  1  0  0  0  0
M  END
$$$$

  -OEChem-01062216063D

 25 24  0     1  0  0  0  0  0999 V2000
   -3.1546   -3.2182    0.9567 H   0  0  0  0  0  0  0  0  0  0  0  0
   -3.0045   -2.1641    0.7064 C   0  0  0  0  0  0  0  0  0  0  0  0
   -3.3903   -1.5517    1.5250 H   0  0  0  0  0  0  0  0  0  0  0  0
   -3.5618   -1.9354   -0.2051 H   0  0  0  0  0  0  0  0  0  0  0  0
   -1.5282   -1.8802    0.4974 C   0  0  0  0  0  0  0  0  0  0  0  0
   -0.7567   -2.8211    0.4710 O   0  0  0  0  0  0  0  0  0  0  0  0
   -1.1445   -0.5789    0.2277 N   0  0  0  0  0  0  0  0  0  0  0  0
   -1.9246    0.0780    0.2173 H   0  0  0  0  0  0  0  0  0  0  0  0
    0.1762    0.0920    0.2668 C   0  0  1  0  0  0  0  0  0  0  0  0
    0.3482    0.3821    1.3095 H   0  0  0  0  0  0  0  0  0  0  0  0
    1.4336   -0.7118   -0.1653 C   0  0  0  0  0  0  0  0  0  0  0  0
    1.2457   -1.1483   -1.1502 H   0  0  0  0  0  0  0  0  0  0  0  0
    2.2897   -0.0377   -0.2488 H   0  0  0  0  0  0  0  0  0  0  0  0
    1.8646   -1.8378    0.7711 C   0  0  0  0  0  0  0  0  0  0  0  0
    1.6245   -1.7464    1.9654 O   0  0  0  0  0  0  0  0  0  0  0  0
    2.5529   -2.8653    0.2217 O   0  0  0  0  0  0  0  0  0  0  0  0
    2.6696   -3.5082    0.9375 H   0  0  0  0  0  0  0  0  0  0  0  0
    0.0432    1.4292   -0.4957 C   0  0  0  0  0  0  0  0  0  0  0  0
   -0.8426    2.2065   -0.1627 O   0  0  0  0  0  0  0  0  0  0  0  0
    0.8039    1.7240   -1.6141 N   0  0  0  0  0  0  0  0  0  0  0  0
    1.4507    1.0122   -1.9406 H   0  0  0  0  0  0  0  0  0  0  0  0
    0.6208    2.9290   -2.4144 C   0  0  0  0  0  0  0  0  0  0  0  0
    0.7322    3.8236   -1.7925 H   0  0  0  0  0  0  0  0  0  0  0  0
    1.3682    2.9706   -3.2126 H   0  0  0  0  0  0  0  0  0  0  0  0
   -0.3748    2.9390   -2.8702 H   0  0  0  0  0  0  0  0  0  0  0  0
  1  2  1  0  0  0  0
  2  3  1  0  0  0  0
  2  4  1  0  0  0  0
  2  5  1  0  0  0  0
  5  6  2  0  0  0  0
  5  7  1  0  0  0  0
  7  8  1  0  0  0  0
  7  9  1  0  0  0  0
  9 10  1  0  0  0  0
  9 11  1  0  0  0  0
  9 18  1  0  0  0  0
 11 12  1  0  0  0  0
 11 13  1  0  0  0  0
 11 14  1  0  0  0  0
 14 15  2  0  0  0  0
 14 16  1  0  0  0  0
 16 17  1  0  0  0  0
 18 19  2  0  0  0  0
 18 20  1  0  0  0  0
 20 21  1  0  0  0  0
 20 22  1  0  0  0  0
 22 23  1  0  0  0  0
 22 24  1  0  0  0  0
 22 25  1  0  0  0  0
M  END
$$$$

  -OEChem-01062216063D

 25 24  0     1  0  0  0  0  0999 V2000
   -3.1314   -3.2341    0.9788 H   0  0  0  0  0  0  0  0  0  0  0  0
   -2.9952   -2.1762    0.7371 C   0  0  0  0  0  0  0  0  0  0  0  0
   -3.3505   -1.5764    1.5785 H   0  0  0  0  0  0  0  0  0  0  0  0
   -3.5888   -1.9373   -0.1485 H   0  0  0  0  0  0  0  0  0  0  0  0
   -1.5296   -1.8835    0.4740 C   0  0  0  0  0  0  0  0  0  0  0  0
   -0.7563   -2.8202    0.3977 O   0  0  0  0  0  0  0  0  0  0  0  0
   -1.1603   -0.5786    0.2016 N   0  0  0  0  0  0  0  0  0  0  0  0
   -1.9436    0.0725    0.2335 H   0  0  0  0  0  0  0  0  0  0  0  0
    0.1589    0.0940    0.2518 C   0  0  1  0  0  0  0  0  0  0  0  0
    0.3208    0.3834    1.2965 H   0  0  0  0  0  0  0  0  0  0  0  0
    1.4241   -0.7014   -0.1699 C   0  0  0  0  0  0  0  0  0  0  0  0
    1.2465   -1.1417   -1.1545 H   0  0  0  0  0  0  0  0  0  0  0  0
    2.2737   -0.0182   -0.2521 H   0  0  0  0  0  0  0  0  0  0  0  0
    1.8524   -1.8264    0.7692 C   0  0  0  0  0  0  0  0  0  0  0  0
    1.5998   -1.7376    1.9612 O   0  0  0  0  0  0  0  0  0  0  0  0
    2.5535   -2.8488    0.2262 O   0  0  0  0  0  0  0  0  0  0  0  0
    2.6720   -3.4890    0.9440 H   0  0  0  0  0  0  0  0  0  0  0  0
    0.0408    1.4286   -0.5121 C   0  0  0  0  0  0  0  0  0  0  0  0
   -0.6738    2.3087   -0.0516 O   0  0  0  0  0  0  0  0  0  0  0  0
    0.5819    1.5958   -1.7747 N   0  0  0  0  0  0  0  0  0  0  0  0
    1.0613    0.8001   -2.1857 H   0  0  0  0  0  0  0  0  0  0  0  0
    0.3734    2.7898   -2.5852 C   0  0  0  0  0  0  0  0  0  0  0  0
    0.7073    3.6825   -2.0457 H   0  0  0  0  0  0  0  0  0  0  0  0
    0.9420    2.7189   -3.5176 H   0  0  0  0  0  0  0  0  0  0  0  0
   -0.6871    2.9041   -2.8330 H   0  0  0  0  0  0  0  0  0  0  0  0
  1  2  1  0  0  0  0
  2  3  1  0  0  0  0
  2  4  1  0  0  0  0
  2  5  1  0  0  0  0
  5  6  2  0  0  0  0
  5  7  1  0  0  0  0
  7  8  1  0  0  0  0
  7  9  1  0  0  0  0
  9 10  1  0  0  0  0
  9 11  1  0  0  0  0
  9 18  1  0  0  0  0
 11 12  1  0  0  0  0
 11 13  1  0  0  0  0
 11 14  1  0  0  0  0
 14 15  2  0  0  0  0
 14 16  1  0  0  0  0
 16 17  1  0  0  0  0
 18 19  2  0  0  0  0
 18 20  1  0  0  0  0
 20 21  1  0  0  0  0
 20 22  1  0  0  0  0
 22 23  1  0  0  0  0
 22 24  1  0  0  0  0
 22 25  1  0  0  0  0
M  END
$$$$

  -OEChem-01062216063D

 25 24  0     1  0  0  0  0  0999 V2000
   -3.1144   -3.2571    1.0045 H   0  0  0  0  0  0  0  0  0  0  0  0
   -2.9923   -2.1967    0.7658 C   0  0  0  0  0  0  0  0  0  0  0  0
   -3.3342   -1.6051    1.6186 H   0  0  0  0  0  0  0  0  0  0  0  0
   -3.6067   -1.9586   -0.1056 H   0  0  0  0  0  0  0  0  0  0  0  0
   -1.5353   -1.8900    0.4724 C   0  0  0  0  0  0  0  0  0  0  0  0
   -0.7562   -2.8196    0.3731 O   0  0  0  0  0  0  0  0  0  0  0  0
   -1.1820   -0.5825    0.1903 N   0  0  0  0  0  0  0  0  0  0  0  0
   -1.9707    0.0595    0.2458 H   0  0  0  0  0  0  0  0  0  0  0  0
    0.1339    0.0977    0.2438 C   0  0  1  0  0  0  0  0  0  0  0  0
    0.2915    0.3870    1.2896 H   0  0  0  0  0  0  0  0  0  0  0  0
    1.4068   -0.6843   -0.1776 C   0  0  0  0  0  0  0  0  0  0  0  0
    1.2366   -1.1234   -1.1640 H   0  0  0  0  0  0  0  0  0  0  0  0
    2.2480    0.0094   -0.2591 H   0  0  0  0  0  0  0  0  0  0  0  0
    1.8456   -1.8090    0.7570 C   0  0  0  0  0  0  0  0  0  0  0  0
    1.5910   -1.7278    1.9489 O   0  0  0  0  0  0  0  0  0  0  0  0
    2.5577   -2.8219    0.2104 O   0  0  0  0  0  0  0  0  0  0  0  0
    2.6874   -3.4617    0.9265 H   0  0  0  0  0  0  0  0  0  0  0  0
    0.0253    1.4272   -0.5273 C   0  0  0  0  0  0  0  0  0  0  0  0
   -0.4518    2.4049    0.0310 O   0  0  0  0  0  0  0  0  0  0  0  0
    0.3014    1.4906   -1.8813 N   0  0  0  0  0  0  0  0  0  0  0  0
    0.5803    0.6279   -2.3403 H   0  0  0  0  0  0  0  0  0  0  0  0
    0.0931    2.6868   -2.6887 C   0  0  0  0  0  0  0  0  0  0  0  0
    0.6525    3.5319   -2.2737 H   0  0  0  0  0  0  0  0  0  0  0  0
    0.4375    2.5167   -3.7132 H   0  0  0  0  0  0  0  0  0  0  0  0
   -0.9698    2.9489   -2.7187 H   0  0  0  0  0  0  0  0  0  0  0  0
  1  2  1  0  0  0  0
  2  3  1  0  0  0  0
  2  4  1  0  0  0  0
  2  5  1  0  0  0  0
  5  6  2  0  0  0  0
  5  7  1  0  0  0  0
  7  8  1  0  0  0  0
  7  9  1  0  0  0  0
  9 10  1  0  0  0  0
  9 11  1  0  0  0  0
  9 18  1  0  0  0  0
 11 12  1  0  0  0  0
 11 13  1  0  0  0  0
 11 14  1  0  0  0  0
 14 15  2  0  0  0  0
 14 16  1  0  0  0  0
 16 17  1  0  0  0  0
 18 19  2  0  0  0  0
 18 20  1  0  0  0  0
 20 21  1  0  0  0  0
 20 22  1  0  0  0  0
 22 23  1  0  0  0  0
 22 24  1  0  0  0  0
 22 25  1  0  0  0  0
M  END
$$$$

  -OEChem-01062216063D

 25 24  0     1  0  0  0  0  0999 V2000
   -3.0876   -3.2860    1.0463 H   0  0  0  0  0  0  0  0  0  0  0  0
   -2.9849   -2.2250    0.8006 C   0  0  0  0  0  0  0  0  0  0  0  0
   -3.3101   -1.6348    1.6607 H   0  0  0  0  0  0  0  0  0  0  0  0
   -3.6263   -1.9976   -0.0541 H   0  0  0  0  0  0  0  0  0  0  0  0
   -1.5400   -1.9023    0.4667 C   0  0  0  0  0  0  0  0  0  0  0  0
   -0.7559   -2.8233    0.3343 O   0  0  0  0  0  0  0  0  0  0  0  0
   -1.2066   -0.5906    0.1787 N   0  0  0  0  0  0  0  0  0  0  0  0
   -2.0023    0.0393    0.2578 H   0  0  0  0  0  0  0  0  0  0  0  0
    0.1034    0.1025    0.2396 C   0  0  1  0  0  0  0  0  0  0  0  0
    0.2549    0.3902    1.2868 H   0  0  0  0  0  0  0  0  0  0  0  0
    1.3852   -0.6617   -0.1847 C   0  0  0  0  0  0  0  0  0  0  0  0
    1.2244   -1.0925   -1.1762 H   0  0  0  0  0  0  0  0  0  0  0  0
    2.2177    0.0432   -0.2584 H   0  0  0  0  0  0  0  0  0  0  0  0
    1.8339   -1.7885    0.7424 C   0  0  0  0  0  0  0  0  0  0  0  0
    1.5752   -1.7193    1.9345 O   0  0  0  0  0  0  0  0  0  0  0  0
    2.5537   -2.7925    0.1894 O   0  0  0  0  0  0  0  0  0  0  0  0
    2.6888   -3.4356    0.9015 H   0  0  0  0  0  0  0  0  0  0  0  0
   -0.0027    1.4279   -0.5365 C   0  0  0  0  0  0  0  0  0  0  0  0
   -0.1921    2.4740    0.0666 O   0  0  0  0  0  0  0  0  0  0  0  0
   -0.0161    1.4280   -1.9189 N   0  0  0  0  0  0  0  0  0  0  0  0
    0.0608    0.5277   -2.3842 H   0  0  0  0  0  0  0  0  0  0  0  0
   -0.2034    2.6304   -2.7219 C   0  0  0  0  0  0  0  0  0  0  0  0
    0.5683    3.3717   -2.4884 H   0  0  0  0  0  0  0  0  0  0  0  0
   -0.1370    2.3880   -3.7869 H   0  0  0  0  0  0  0  0  0  0  0  0
   -1.1864    3.0723   -2.5277 H   0  0  0  0  0  0  0  0  0  0  0  0
  1  2  1  0  0  0  0
  2  3  1  0  0  0  0
  2  4  1  0  0  0  0
  2  5  1  0  0  0  0
  5  6  2  0  0  0  0
  5  7  1  0  0  0  0
  7  8  1  0  0  0  0
  7  9  1  0  0  0  0
  9 10  1  0  0  0  0
  9 11  1  0  0  0  0
  9 18  1  0  0  0  0
 11 12  1  0  0  0  0
 11 13  1  0  0  0  0
 11 14  1  0  0  0  0
 14 15  2  0  0  0  0
 14 16  1  0  0  0  0
 16 17  1  0  0  0  0
 18 19  2  0  0  0  0
 18 20  1  0  0  0  0
 20 21  1  0  0  0  0
 20 22  1  0  0  0  0
 22 23  1  0  0  0  0
 22 24  1  0  0  0  0
 22 25  1  0  0  0  0
M  END
$$$$

  -OEChem-01062216063D

 25 24  0     1  0  0  0  0  0999 V2000
   -3.0655   -3.3277    1.0711 H   0  0  0  0  0  0  0  0  0  0  0  0
   -2.9800   -2.2629    0.8358 C   0  0  0  0  0  0  0  0  0  0  0  0
   -3.2907   -1.6863    1.7105 H   0  0  0  0  0  0  0  0  0  0  0  0
   -3.6442   -2.0325   -0.0005 H   0  0  0  0  0  0  0  0  0  0  0  0
   -1.5469   -1.9211    0.4718 C   0  0  0  0  0  0  0  0  0  0  0  0
   -0.7557   -2.8314    0.3134 O   0  0  0  0  0  0  0  0  0  0  0  0
   -1.2364   -0.6042    0.1814 N   0  0  0  0  0  0  0  0  0  0  0  0
   -2.0411    0.0117    0.2742 H   0  0  0  0  0  0  0  0  0  0  0  0
    0.0653    0.1070    0.2438 C   0  0  1  0  0  0  0  0  0  0  0  0
    0.2154    0.3912    1.2921 H   0  0  0  0  0  0  0  0  0  0  0  0
    1.3548   -0.6344   -0.1923 C   0  0  0  0  0  0  0  0  0  0  0  0
    1.1967   -1.0547   -1.1888 H   0  0  0  0  0  0  0  0  0  0  0  0
    2.1770    0.0834   -0.2609 H   0  0  0  0  0  0  0  0  0  0  0  0
    1.8218   -1.7633    0.7227 C   0  0  0  0  0  0  0  0  0  0  0  0
    1.5660   -1.7083    1.9163 O   0  0  0  0  0  0  0  0  0  0  0  0
    2.5518   -2.7534    0.1584 O   0  0  0  0  0  0  0  0  0  0  0  0
    2.7013   -3.3987    0.8654 H   0  0  0  0  0  0  0  0  0  0  0  0
   -0.0468    1.4314   -0.5315 C   0  0  0  0  0  0  0  0  0  0  0  0
    0.0893    2.4984    0.0483 O   0  0  0  0  0  0  0  0  0  0  0  0
   -0.3632    1.4184   -1.8771 N   0  0  0  0  0  0  0  0  0  0  0  0
   -0.4738    0.5091   -2.3182 H   0  0  0  0  0  0  0  0  0  0  0  0
   -0.4878    2.6245   -2.6863 C   0  0  0  0  0  0  0  0  0  0  0  0
    0.4512    3.1882   -2.6811 H   0  0  0  0  0  0  0  0  0  0  0  0
   -0.7280    2.3629   -3.7213 H   0  0  0  0  0  0  0  0  0  0  0  0
   -1.2857    3.2660   -2.2975 H   0  0  0  0  0  0  0  0  0  0  0  0
  1  2  1  0  0  0  0
  2  3  1  0  0  0  0
  2  4  1  0  0  0  0
  2  5  1  0  0  0  0
  5  6  2  0  0  0  0
  5  7  1  0  0  0  0
  7  8  1  0  0  0  0
  7  9  1  0  0  0  0
  9 10  1  0  0  0  0
  9 11  1  0  0  0  0
  9 18  1  0  0  0  0
 11 12  1  0  0  0  0
 11 13  1  0  0  0  0
 11 14  1  0  0  0  0
 14 15  2  0  0  0  0
 14 16  1  0  0  0  0
 16 17  1  0  0  0  0
 18 19  2  0  0  0  0
 18 20  1  0  0  0  0
 20 21  1  0  0  0  0
 20 22  1  0  0  0  0
 22 23  1  0  0  0  0
 22 24  1  0  0  0  0
 22 25  1  0  0  0  0
M  END
$$$$

  -OEChem-01062216063D

 25 24  0     1  0  0  0  0  0999 V2000
   -3.0522   -3.3507    1.1042 H   0  0  0  0  0  0  0  0  0  0  0  0
   -2.9812   -2.2893    0.8493 C   0  0  0  0  0  0  0  0  0  0  0  0
   -3.3056   -1.7015    1.7115 H   0  0  0  0  0  0  0  0  0  0  0  0
   -3.6437   -2.0846    0.0048 H   0  0  0  0  0  0  0  0  0  0  0  0
   -1.5510   -1.9338    0.4869 C   0  0  0  0  0  0  0  0  0  0  0  0
   -0.7530   -2.8373    0.3255 O   0  0  0  0  0  0  0  0  0  0  0  0
   -1.2541   -0.6129    0.1988 N   0  0  0  0  0  0  0  0  0  0  0  0
   -2.0644   -0.0062    0.3009 H   0  0  0  0  0  0  0  0  0  0  0  0
    0.0423    0.1114    0.2563 C   0  0  1  0  0  0  0  0  0  0  0  0
    0.1974    0.3921    1.3049 H   0  0  0  0  0  0  0  0  0  0  0  0
    1.3337   -0.6163   -0.1962 C   0  0  0  0  0  0  0  0  0  0  0  0
    1.1700   -1.0282   -1.1954 H   0  0  0  0  0  0  0  0  0  0  0  0
    2.1502    0.1082   -0.2656 H   0  0  0  0  0  0  0  0  0  0  0  0
    1.8190   -1.7481    0.7051 C   0  0  0  0  0  0  0  0  0  0  0  0
    1.5739   -1.7049    1.9016 O   0  0  0  0  0  0  0  0  0  0  0  0
    2.5519   -2.7278    0.1258 O   0  0  0  0  0  0  0  0  0  0  0  0
    2.7141   -3.3775    0.8258 H   0  0  0  0  0  0  0  0  0  0  0  0
   -0.0768    1.4398   -0.5124 C   0  0  0  0  0  0  0  0  0  0  0  0
    0.3529    2.4749   -0.0257 O   0  0  0  0  0  0  0  0  0  0  0  0
   -0.6883    1.4674   -1.7520 N   0  0  0  0  0  0  0  0  0  0  0  0
   -0.9565    0.5714   -2.1508 H   0  0  0  0  0  0  0  0  0  0  0  0
   -0.7765    2.6677   -2.5747 C   0  0  0  0  0  0  0  0  0  0  0  0
    0.2245    3.0362   -2.8230 H   0  0  0  0  0  0  0  0  0  0  0  0
   -1.3063    2.4498   -3.5070 H   0  0  0  0  0  0  0  0  0  0  0  0
   -1.3209    3.4566   -2.0449 H   0  0  0  0  0  0  0  0  0  0  0  0
  1  2  1  0  0  0  0
  2  3  1  0  0  0  0
  2  4  1  0  0  0  0
  2  5  1  0  0  0  0
  5  6  2  0  0  0  0
  5  7  1  0  0  0  0
  7  8  1  0  0  0  0
  7  9  1  0  0  0  0
  9 10  1  0  0  0  0
  9 11  1  0  0  0  0
  9 18  1  0  0  0  0
 11 12  1  0  0  0  0
 11 13  1  0  0  0  0
 11 14  1  0  0  0  0
 14 15  2  0  0  0  0
 14 16  1  0  0  0  0
 16 17  1  0  0  0  0
 18 19  2  0  0  0  0
 18 20  1  0  0  0  0
 20 21  1  0  0  0  0
 20 22  1  0  0  0  0
 22 23  1  0  0  0  0
 22 24  1  0  0  0  0
 22 25  1  0  0  0  0
M  END
$$$$

  -OEChem-01062216063D

 25 24  0     1  0  0  0  0  0999 V2000
   -3.0229   -3.3818    1.1219 H   0  0  0  0  0  0  0  0  0  0  0  0
   -2.9668   -2.3175    0.8760 C   0  0  0  0  0  0  0  0  0  0  0  0
   -3.2688   -1.7409    1.7537 H   0  0  0  0  0  0  0  0  0  0  0  0
   -3.6560   -2.1091    0.0543 H   0  0  0  0  0  0  0  0  0  0  0  0
   -1.5508   -1.9483    0.4737 C   0  0  0  0  0  0  0  0  0  0  0  0
   -0.7532   -2.8448    0.2759 O   0  0  0  0  0  0  0  0  0  0  0  0
   -1.2698   -0.6220    0.1933 N   0  0  0  0  0  0  0  0  0  0  0  0
   -2.0820   -0.0245    0.3276 H   0  0  0  0  0  0  0  0  0  0  0  0
    0.0223    0.1126    0.2556 C   0  0  1  0  0  0  0  0  0  0  0  0
    0.1743    0.3886    1.3056 H   0  0  0  0  0  0  0  0  0  0  0  0
    1.3168   -0.6103   -0.1975 C   0  0  0  0  0  0  0  0  0  0  0  0
    1.1558   -1.0195   -1.1983 H   0  0  0  0  0  0  0  0  0  0  0  0
    2.1324    0.1155   -0.2645 H   0  0  0  0  0  0  0  0  0  0  0  0
    1.8035   -1.7422    0.7029 C   0  0  0  0  0  0  0  0  0  0  0  0
    1.5556   -1.7005    1.8991 O   0  0  0  0  0  0  0  0  0  0  0  0
    2.5434   -2.7177    0.1253 O   0  0  0  0  0  0  0  0  0  0  0  0
    2.7101   -3.3654    0.8259 H   0  0  0  0  0  0  0  0  0  0  0  0
   -0.0922    1.4503   -0.5015 C   0  0  0  0  0  0  0  0  0  0  0  0
    0.5614    2.4179   -0.1409 O   0  0  0  0  0  0  0  0  0  0  0  0
   -0.9504    1.5709   -1.5796 N   0  0  0  0  0  0  0  0  0  0  0  0
   -1.3596    0.7084   -1.9291 H   0  0  0  0  0  0  0  0  0  0  0  0
   -1.0322    2.7738   -2.4000 C   0  0  0  0  0  0  0  0  0  0  0  0
   -0.0733    2.9678   -2.8922 H   0  0  0  0  0  0  0  0  0  0  0  0
   -1.8002    2.6556   -3.1703 H   0  0  0  0  0  0  0  0  0  0  0  0
   -1.2933    3.6411   -1.7842 H   0  0  0  0  0  0  0  0  0  0  0  0
  1  2  1  0  0  0  0
  2  3  1  0  0  0  0
  2  4  1  0  0  0  0
  2  5  1  0  0  0  0
  5  6  2  0  0  0  0
  5  7  1  0  0  0  0
  7  8  1  0  0  0  0
  7  9  1  0  0  0  0
  9 10  1  0  0  0  0
  9 11  1  0  0  0  0
  9 18  1  0  0  0  0
 11 12  1  0  0  0  0
 11 13  1  0  0  0  0
 11 14  1  0  0  0  0
 14 15  2  0  0  0  0
 14 16  1  0  0  0  0
 16 17  1  0  0  0  0
 18 19  2  0  0  0  0
 18 20  1  0  0  0  0
 20 21  1  0  0  0  0
 20 22  1  0  0  0  0
 22 23  1  0  0  0  0
 22 24  1  0  0  0  0
 22 25  1  0  0  0  0
M  END
$$$$

  -OEChem-01062216063D

 25 24  0     1  0  0  0  0  0999 V2000
   -3.0001   -3.3959    1.1285 H   0  0  0  0  0  0  0  0  0  0  0  0
   -2.9506   -2.3295    0.8890 C   0  0  0  0  0  0  0  0  0  0  0  0
   -3.2347   -1.7597    1.7771 H   0  0  0  0  0  0  0  0  0  0  0  0
   -3.6576   -2.1161    0.0837 H   0  0  0  0  0  0  0  0  0  0  0  0
   -1.5437   -1.9556    0.4597 C   0  0  0  0  0  0  0  0  0  0  0  0
   -0.7511   -2.8504    0.2360 O   0  0  0  0  0  0  0  0  0  0  0  0
   -1.2704   -0.6263    0.1834 N   0  0  0  0  0  0  0  0  0  0  0  0
   -2.0797   -0.0348    0.3548 H   0  0  0  0  0  0  0  0  0  0  0  0
    0.0202    0.1137    0.2481 C   0  0  1  0  0  0  0  0  0  0  0  0
    0.1696    0.3885    1.2985 H   0  0  0  0  0  0  0  0  0  0  0  0
    1.3145   -0.6158   -0.2000 C   0  0  0  0  0  0  0  0  0  0  0  0
    1.1528   -1.0290   -1.1991 H   0  0  0  0  0  0  0  0  0  0  0  0
    2.1356    0.1034   -0.2698 H   0  0  0  0  0  0  0  0  0  0  0  0
    1.7934   -1.7445    0.7083 C   0  0  0  0  0  0  0  0  0  0  0  0
    1.5413   -1.6946    1.9036 O   0  0  0  0  0  0  0  0  0  0  0  0
    2.5299   -2.7275    0.1393 O   0  0  0  0  0  0  0  0  0  0  0  0
    2.6881   -3.3734    0.8433 H   0  0  0  0  0  0  0  0  0  0  0  0
   -0.0892    1.4585   -0.5032 C   0  0  0  0  0  0  0  0  0  0  0  0
    0.7199    2.3493   -0.2877 O   0  0  0  0  0  0  0  0  0  0  0  0
   -1.1408    1.6980   -1.3705 N   0  0  0  0  0  0  0  0  0  0  0  0
   -1.6715    0.8821   -1.6622 H   0  0  0  0  0  0  0  0  0  0  0  0
   -1.2532    2.9210   -2.1573 C   0  0  0  0  0  0  0  0  0  0  0  0
   -0.4079    3.0117   -2.8477 H   0  0  0  0  0  0  0  0  0  0  0  0
   -2.1791    2.9127   -2.7403 H   0  0  0  0  0  0  0  0  0  0  0  0
   -1.2680    3.7989   -1.5026 H   0  0  0  0  0  0  0  0  0  0  0  0
  1  2  1  0  0  0  0
  2  3  1  0  0  0  0
  2  4  1  0  0  0  0
  2  5  1  0  0  0  0
  5  6  2  0  0  0  0
  5  7  1  0  0  0  0
  7  8  1  0  0  0  0
  7  9  1  0  0  0  0
  9 10  1  0  0  0  0
  9 11  1  0  0  0  0
  9 18  1  0  0  0  0
 11 12  1  0  0  0  0
 11 13  1  0  0  0  0
 11 14  1  0  0  0  0
 14 15  2  0  0  0  0
 14 16  1  0  0  0  0
 16 17  1  0  0  0  0
 18 19  2  0  0  0  0
 18 20  1  0  0  0  0
 20 21  1  0  0  0  0
 20 22  1  0  0  0  0
 22 23  1  0  0  0  0
 22 24  1  0  0  0  0
 22 25  1  0  0  0  0
M  END
$$$$

  -OEChem-01062216063D

 25 24  0     1  0  0  0  0  0999 V2000
   -2.9830   -3.4133    1.0897 H   0  0  0  0  0  0  0  0  0  0  0  0
   -2.9278   -2.3368    0.9030 C   0  0  0  0  0  0  0  0  0  0  0  0
   -3.1658   -1.8097    1.8301 H   0  0  0  0  0  0  0  0  0  0  0  0
   -3.6643   -2.0745    0.1398 H   0  0  0  0  0  0  0  0  0  0  0  0
   -1.5346   -1.9587    0.4350 C   0  0  0  0  0  0  0  0  0  0  0  0
   -0.7498   -2.8515    0.1775 O   0  0  0  0  0  0  0  0  0  0  0  0
   -1.2697   -0.6268    0.1629 N   0  0  0  0  0  0  0  0  0  0  0  0
   -2.0743   -0.0432    0.3747 H   0  0  0  0  0  0  0  0  0  0  0  0
    0.0202    0.1154    0.2329 C   0  0  1  0  0  0  0  0  0  0  0  0
    0.1643    0.3909    1.2838 H   0  0  0  0  0  0  0  0  0  0  0  0
    1.3148   -0.6255   -0.2027 C   0  0  0  0  0  0  0  0  0  0  0  0
    1.1565   -1.0451   -1.1996 H   0  0  0  0  0  0  0  0  0  0  0  0
    2.1442    0.0837   -0.2728 H   0  0  0  0  0  0  0  0  0  0  0  0
    1.7799   -1.7497    0.7186 C   0  0  0  0  0  0  0  0  0  0  0  0
    1.5189   -1.6877    1.9116 O   0  0  0  0  0  0  0  0  0  0  0  0
    2.5159   -2.7416    0.1641 O   0  0  0  0  0  0  0  0  0  0  0  0
    2.6651   -3.3829    0.8740 H   0  0  0  0  0  0  0  0  0  0  0  0
   -0.0851    1.4668   -0.5141 C   0  0  0  0  0  0  0  0  0  0  0  0
    0.8328    2.2734   -0.4619 O   0  0  0  0  0  0  0  0  0  0  0  0
   -1.2639    1.8433   -1.1360 N   0  0  0  0  0  0  0  0  0  0  0  0
   -1.9122    1.0911   -1.3473 H   0  0  0  0  0  0  0  0  0  0  0  0
   -1.3988    3.0959   -1.8717 C   0  0  0  0  0  0  0  0  0  0  0  0
   -0.7034    3.1206   -2.7173 H   0  0  0  0  0  0  0  0  0  0  0  0
   -2.4177    3.2023   -2.2559 H   0  0  0  0  0  0  0  0  0  0  0  0
   -1.1881    3.9496   -1.2186 H   0  0  0  0  0  0  0  0  0  0  0  0
  1  2  1  0  0  0  0
  2  3  1  0  0  0  0
  2  4  1  0  0  0  0
  2  5  1  0  0  0  0
  5  6  2  0  0  0  0
  5  7  1  0  0  0  0
  7  8  1  0  0  0  0
  7  9  1  0  0  0  0
  9 10  1  0  0  0  0
  9 11  1  0  0  0  0
  9 18  1  0  0  0  0
 11 12  1  0  0  0  0
 11 13  1  0  0  0  0
 11 14  1  0  0  0  0
 14 15  2  0  0  0  0
 14 16  1  0  0  0  0
 16 17  1  0  0  0  0
 18 19  2  0  0  0  0
 18 20  1  0  0  0  0
 20 21  1  0  0  0  0
 20 22  1  0  0  0  0
 22 23  1  0  0  0  0
 22 24  1  0  0  0  0
 22 25  1  0  0  0  0
M  END
$$$$

  -OEChem-01062216063D

 25 24  0     1  0  0  0  0  0999 V2000
   -2.9744   -3.4085    1.0918 H   0  0  0  0  0  0  0  0  0  0  0  0
   -2.9228   -2.3346    0.8895 C   0  0  0  0  0  0  0  0  0  0  0  0
   -3.1683   -1.7951    1.8075 H   0  0  0  0  0  0  0  0  0  0  0  0
   -3.6568   -2.0871    0.1189 H   0  0  0  0  0  0  0  0  0  0  0  0
   -1.5289   -1.9584    0.4218 C   0  0  0  0  0  0  0  0  0  0  0  0
   -0.7465   -2.8535    0.1661 O   0  0  0  0  0  0  0  0  0  0  0  0
   -1.2628   -0.6256    0.1527 N   0  0  0  0  0  0  0  0  0  0  0  0
   -2.0640   -0.0466    0.3832 H   0  0  0  0  0  0  0  0  0  0  0  0
    0.0297    0.1146    0.2133 C   0  0  1  0  0  0  0  0  0  0  0  0
    0.1769    0.3927    1.2626 H   0  0  0  0  0  0  0  0  0  0  0  0
    1.3208   -0.6434   -0.2132 C   0  0  0  0  0  0  0  0  0  0  0  0
    1.1592   -1.0742   -1.2047 H   0  0  0  0  0  0  0  0  0  0  0  0
    2.1589    0.0539   -0.2921 H   0  0  0  0  0  0  0  0  0  0  0  0
    1.7788   -1.7578    0.7237 C   0  0  0  0  0  0  0  0  0  0  0  0
    1.5191   -1.6764    1.9160 O   0  0  0  0  0  0  0  0  0  0  0  0
    2.5119   -2.7602    0.1843 O   0  0  0  0  0  0  0  0  0  0  0  0
    2.6597   -3.3912    0.9034 H   0  0  0  0  0  0  0  0  0  0  0  0
   -0.0781    1.4729   -0.5288 C   0  0  0  0  0  0  0  0  0  0  0  0
    0.9098    2.1757   -0.6910 O   0  0  0  0  0  0  0  0  0  0  0  0
   -1.3127    2.0022   -0.8701 N   0  0  0  0  0  0  0  0  0  0  0  0
   -2.0817    1.3446   -0.9291 H   0  0  0  0  0  0  0  0  0  0  0  0
   -1.4572    3.2868   -1.5477 C   0  0  0  0  0  0  0  0  0  0  0  0
   -0.9510    3.2676   -2.5186 H   0  0  0  0  0  0  0  0  0  0  0  0
   -2.5154    3.5117   -1.7117 H   0  0  0  0  0  0  0  0  0  0  0  0
   -1.0259    4.0910   -0.9421 H   0  0  0  0  0  0  0  0  0  0  0  0
  1  2  1  0  0  0  0
  2  3  1  0  0  0  0
  2  4  1  0  0  0  0
  2  5  1  0  0  0  0
  5  6  2  0  0  0  0
  5  7  1  0  0  0  0
  7  8  1  0  0  0  0
  7  9  1  0  0  0  0
  9 10  1  0  0  0  0
  9 11  1  0  0  0  0
  9 18  1  0  0  0  0
 11 12  1  0  0  0  0
 11 13  1  0  0  0  0
 11 14  1  0  0  0  0
 14 15  2  0  0  0  0
 14 16  1  0  0  0  0
 16 17  1  0  0  0  0
 18 19  2  0  0  0  0
 18 20  1  0  0  0  0
 20 21  1  0  0  0  0
 20 22  1  0  0  0  0
 22 23  1  0  0  0  0
 22 24  1  0  0  0  0
 22 25  1  0  0  0  0
M  END
$$$$

  -OEChem-01062216063D

 25 24  0     1  0  0  0  0  0999 V2000
   -3.1343   -3.3035    0.9414 H   0  0  0  0  0  0  0  0  0  0  0  0
   -3.0019   -2.2611    0.6371 C   0  0  0  0  0  0  0  0  0  0  0  0
   -3.5872   -1.6252    1.3056 H   0  0  0  0  0  0  0  0  0  0  0  0
   -3.3715   -2.1452   -0.3846 H   0  0  0  0  0  0  0  0  0  0  0  0
   -1.5350   -1.8765    0.7064 C   0  0  0  0  0  0  0  0  0  0  0  0
   -0.7399   -2.7353    1.0281 O   0  0  0  0  0  0  0  0  0  0  0  0
   -1.1935   -0.5800    0.3556 N   0  0  0  0  0  0  0  0  0  0  0  0
   -1.9809   -0.0664   -0.0285 H   0  0  0  0  0  0  0  0  0  0  0  0
    0.1145    0.1271    0.2521 C   0  0  1  0  0  0  0  0  0  0  0  0
    0.3676    0.4530    1.2667 H   0  0  0  0  0  0  0  0  0  0  0  0
    1.3452   -0.6855   -0.2471 C   0  0  0  0  0  0  0  0  0  0  0  0
    1.0820   -1.1614   -1.1951 H   0  0  0  0  0  0  0  0  0  0  0  0
    2.1804   -0.0081   -0.4430 H   0  0  0  0  0  0  0  0  0  0  0  0
    1.8887   -1.7579    0.6912 C   0  0  0  0  0  0  0  0  0  0  0  0
    1.7613   -1.6098    1.8978 O   0  0  0  0  0  0  0  0  0  0  0  0
    2.5126   -2.8196    0.1298 O   0  0  0  0  0  0  0  0  0  0  0  0
    2.7142   -3.4152    0.8668 H   0  0  0  0  0  0  0  0  0  0  0  0
   -0.0720    1.4467   -0.5427 C   0  0  0  0  0  0  0  0  0  0  0  0
    0.8002    1.8925   -1.2754 O   0  0  0  0  0  0  0  0  0  0  0  0
   -1.2861    2.1149   -0.4924 N   0  0  0  0  0  0  0  0  0  0  0  0
   -1.9054    1.8716    0.2741 H   0  0  0  0  0  0  0  0  0  0  0  0
   -1.5175    3.3786   -1.1856 C   0  0  0  0  0  0  0  0  0  0  0  0
   -1.3458    3.2639   -2.2612 H   0  0  0  0  0  0  0  0  0  0  0  0
   -2.5503    3.7084   -1.0374 H   0  0  0  0  0  0  0  0  0  0  0  0
   -0.8459    4.1548   -0.8037 H   0  0  0  0  0  0  0  0  0  0  0  0
  1  2  1  0  0  0  0
  2  3  1  0  0  0  0
  2  4  1  0  0  0  0
  2  5  1  0  0  0  0
  5  6  2  0  0  0  0
  5  7  1  0  0  0  0
  7  8  1  0  0  0  0
  7  9  1  0  0  0  0
  9 10  1  0  0  0  0
  9 11  1  0  0  0  0
  9 18  1  0  0  0  0
 11 12  1  0  0  0  0
 11 13  1  0  0  0  0
 11 14  1  0  0  0  0
 14 15  2  0  0  0  0
 14 16  1  0  0  0  0
 16 17  1  0  0  0  0
 18 19  2  0  0  0  0
 18 20  1  0  0  0  0
 20 21  1  0  0  0  0
 20 22  1  0  0  0  0
 22 23  1  0  0  0  0
 22 24  1  0  0  0  0
 22 25  1  0  0  0  0
M  END
$$$$

  -OEChem-01062216063D

 25 24  0     1  0  0  0  0  0999 V2000
   -3.1494   -3.2760    0.9472 H   0  0  0  0  0  0  0  0  0  0  0  0
   -3.0112   -2.2344    0.6428 C   0  0  0  0  0  0  0  0  0  0  0  0
   -3.5832   -1.5941    1.3185 H   0  0  0  0  0  0  0  0  0  0  0  0
   -3.3913   -2.1139   -0.3746 H   0  0  0  0  0  0  0  0  0  0  0  0
   -1.5402   -1.8635    0.6954 C   0  0  0  0  0  0  0  0  0  0  0  0
   -0.7471   -2.7308    0.9996 O   0  0  0  0  0  0  0  0  0  0  0  0
   -1.1896   -0.5685    0.3491 N   0  0  0  0  0  0  0  0  0  0  0  0
   -1.9785   -0.0316   -0.0012 H   0  0  0  0  0  0  0  0  0  0  0  0
    0.1216    0.1308    0.2574 C   0  0  1  0  0  0  0  0  0  0  0  0
    0.3728    0.4529    1.2734 H   0  0  0  0  0  0  0  0  0  0  0  0
    1.3538   -0.6760   -0.2427 C   0  0  0  0  0  0  0  0  0  0  0  0
    1.0962   -1.1428   -1.1969 H   0  0  0  0  0  0  0  0  0  0  0  0
    2.1861    0.0082   -0.4287 H   0  0  0  0  0  0  0  0  0  0  0  0
    1.8916   -1.7580    0.6876 C   0  0  0  0  0  0  0  0  0  0  0  0
    1.7568   -1.6214    1.8948 O   0  0  0  0  0  0  0  0  0  0  0  0
    2.5185   -2.8147    0.1200 O   0  0  0  0  0  0  0  0  0  0  0  0
    2.7149   -3.4181    0.8520 H   0  0  0  0  0  0  0  0  0  0  0  0
   -0.0712    1.4448   -0.5380 C   0  0  0  0  0  0  0  0  0  0  0  0
    0.6643    1.7669   -1.4608 O   0  0  0  0  0  0  0  0  0  0  0  0
   -1.1578    2.2531   -0.2462 N   0  0  0  0  0  0  0  0  0  0  0  0
   -1.6510    2.0612    0.6208 H   0  0  0  0  0  0  0  0  0  0  0  0
   -1.3969    3.5291   -0.9126 C   0  0  0  0  0  0  0  0  0  0  0  0
   -1.4611    3.3907   -1.9973 H   0  0  0  0  0  0  0  0  0  0  0  0
   -2.3388    3.9660   -0.5671 H   0  0  0  0  0  0  0  0  0  0  0  0
   -0.5864    4.2327   -0.6957 H   0  0  0  0  0  0  0  0  0  0  0  0
  1  2  1  0  0  0  0
  2  3  1  0  0  0  0
  2  4  1  0  0  0  0
  2  5  1  0  0  0  0
  5  6  2  0  0  0  0
  5  7  1  0  0  0  0
  7  8  1  0  0  0  0
  7  9  1  0  0  0  0
  9 10  1  0  0  0  0
  9 11  1  0  0  0  0
  9 18  1  0  0  0  0
 11 12  1  0  0  0  0
 11 13  1  0  0  0  0
 11 14  1  0  0  0  0
 14 15  2  0  0  0  0
 14 16  1  0  0  0  0
 16 17  1  0  0  0  0
 18 19  2  0  0  0  0
 18 20  1  0  0  0  0
 20 21  1  0  0  0  0
 20 22  1  0  0  0  0
 22 23  1  0  0  0  0
 22 24  1  0  0  0  0
 22 25  1  0  0  0  0
M  END
$$$$

  -OEChem-01062216063D

 25 24  0     1  0  0  0  0  0999 V2000
   -3.1560   -3.2681    0.9596 H   0  0  0  0  0  0  0  0  0  0  0  0
   -3.0166   -2.2273    0.6528 C   0  0  0  0  0  0  0  0  0  0  0  0
   -3.5788   -1.5840    1.3336 H   0  0  0  0  0  0  0  0  0  0  0  0
   -3.4064   -2.1055   -0.3606 H   0  0  0  0  0  0  0  0  0  0  0  0
   -1.5435   -1.8624    0.6896 C   0  0  0  0  0  0  0  0  0  0  0  0
   -0.7491   -2.7348    0.9765 O   0  0  0  0  0  0  0  0  0  0  0  0
   -1.1916   -0.5663    0.3504 N   0  0  0  0  0  0  0  0  0  0  0  0
   -1.9845   -0.0142    0.0336 H   0  0  0  0  0  0  0  0  0  0  0  0
    0.1184    0.1329    0.2712 C   0  0  1  0  0  0  0  0  0  0  0  0
    0.3673    0.4457    1.2906 H   0  0  0  0  0  0  0  0  0  0  0  0
    1.3539   -0.6628   -0.2352 C   0  0  0  0  0  0  0  0  0  0  0  0
    1.0982   -1.1201   -1.1949 H   0  0  0  0  0  0  0  0  0  0  0  0
    2.1807    0.0300   -0.4146 H   0  0  0  0  0  0  0  0  0  0  0  0
    1.8933   -1.7559    0.6810 C   0  0  0  0  0  0  0  0  0  0  0  0
    1.7546   -1.6363    1.8897 O   0  0  0  0  0  0  0  0  0  0  0  0
    2.5296   -2.7999    0.1006 O   0  0  0  0  0  0  0  0  0  0  0  0
    2.7258   -3.4140    0.8236 H   0  0  0  0  0  0  0  0  0  0  0  0
   -0.0739    1.4460   -0.5209 C   0  0  0  0  0  0  0  0  0  0  0  0
    0.4847    1.6509   -1.5896 O   0  0  0  0  0  0  0  0  0  0  0  0
   -0.9611    2.3939   -0.0408 N   0  0  0  0  0  0  0  0  0  0  0  0
   -1.3294    2.2531    0.8956 H   0  0  0  0  0  0  0  0  0  0  0  0
   -1.1837    3.6788   -0.6948 C   0  0  0  0  0  0  0  0  0  0  0  0
   -1.5036    3.5323   -1.7320 H   0  0  0  0  0  0  0  0  0  0  0  0
   -1.9636    4.2403   -0.1714 H   0  0  0  0  0  0  0  0  0  0  0  0
   -0.2648    4.2744   -0.6915 H   0  0  0  0  0  0  0  0  0  0  0  0
  1  2  1  0  0  0  0
  2  3  1  0  0  0  0
  2  4  1  0  0  0  0
  2  5  1  0  0  0  0
  5  6  2  0  0  0  0
  5  7  1  0  0  0  0
  7  8  1  0  0  0  0
  7  9  1  0  0  0  0
  9 10  1  0  0  0  0
  9 11  1  0  0  0  0
  9 18  1  0  0  0  0
 11 12  1  0  0  0  0
 11 13  1  0  0  0  0
 11 14  1  0  0  0  0
 14 15  2  0  0  0  0
 14 16  1  0  0  0  0
 16 17  1  0  0  0  0
 18 19  2  0  0  0  0
 18 20  1  0  0  0  0
 20 21  1  0  0  0  0
 20 22  1  0  0  0  0
 22 23  1  0  0  0  0
 22 24  1  0  0  0  0
 22 25  1  0  0  0  0
M  END
$$$$

  -OEChem-01062216063D

 25 24  0     1  0  0  0  0  0999 V2000
   -3.1566   -3.2720    0.9584 H   0  0  0  0  0  0  0  0  0  0  0  0
   -3.0173   -2.2303    0.6545 C   0  0  0  0  0  0  0  0  0  0  0  0
   -3.5840   -1.5892    1.3340 H   0  0  0  0  0  0  0  0  0  0  0  0
   -3.4021   -2.1068   -0.3608 H   0  0  0  0  0  0  0  0  0  0  0  0
   -1.5450   -1.8631    0.6994 C   0  0  0  0  0  0  0  0  0  0  0  0
   -0.7498   -2.7338    0.9900 O   0  0  0  0  0  0  0  0  0  0  0  0
   -1.1941   -0.5656    0.3659 N   0  0  0  0  0  0  0  0  0  0  0  0
   -1.9867   -0.0122    0.0503 H   0  0  0  0  0  0  0  0  0  0  0  0
    0.1139    0.1354    0.2932 C   0  0  1  0  0  0  0  0  0  0  0  0
    0.3645    0.4364    1.3159 H   0  0  0  0  0  0  0  0  0  0  0  0
    1.3494   -0.6493   -0.2272 C   0  0  0  0  0  0  0  0  0  0  0  0
    1.0897   -1.0963   -1.1910 H   0  0  0  0  0  0  0  0  0  0  0  0
    2.1711    0.0497   -0.4045 H   0  0  0  0  0  0  0  0  0  0  0  0
    1.8947   -1.7543    0.6710 C   0  0  0  0  0  0  0  0  0  0  0  0
    1.7595   -1.6526    1.8817 O   0  0  0  0  0  0  0  0  0  0  0  0
    2.5333   -2.7871    0.0733 O   0  0  0  0  0  0  0  0  0  0  0  0
    2.7319   -3.4124    0.7860 H   0  0  0  0  0  0  0  0  0  0  0  0
   -0.0737    1.4504   -0.4934 C   0  0  0  0  0  0  0  0  0  0  0  0
    0.2578    1.5503   -1.6665 O   0  0  0  0  0  0  0  0  0  0  0  0
   -0.7030    2.5208    0.1169 N   0  0  0  0  0  0  0  0  0  0  0  0
   -0.9218    2.4354    1.1056 H   0  0  0  0  0  0  0  0  0  0  0  0
   -0.9049    3.8080   -0.5395 C   0  0  0  0  0  0  0  0  0  0  0  0
   -1.4712    3.6816   -1.4684 H   0  0  0  0  0  0  0  0  0  0  0  0
   -1.4648    4.4835    0.1146 H   0  0  0  0  0  0  0  0  0  0  0  0
    0.0585    4.2723   -0.7753 H   0  0  0  0  0  0  0  0  0  0  0  0
  1  2  1  0  0  0  0
  2  3  1  0  0  0  0
  2  4  1  0  0  0  0
  2  5  1  0  0  0  0
  5  6  2  0  0  0  0
  5  7  1  0  0  0  0
  7  8  1  0  0  0  0
  7  9  1  0  0  0  0
  9 10  1  0  0  0  0
  9 11  1  0  0  0  0
  9 18  1  0  0  0  0
 11 12  1  0  0  0  0
 11 13  1  0  0  0  0
 11 14  1  0  0  0  0
 14 15  2  0  0  0  0
 14 16  1  0  0  0  0
 16 17  1  0  0  0  0
 18 19  2  0  0  0  0
 18 20  1  0  0  0  0
 20 21  1  0  0  0  0
 20 22  1  0  0  0  0
 22 23  1  0  0  0  0
 22 24  1  0  0  0  0
 22 25  1  0  0  0  0
M  END
$$$$

  -OEChem-01062216063D

 25 24  0     1  0  0  0  0  0999 V2000
   -3.1573   -3.2743    0.9455 H   0  0  0  0  0  0  0  0  0  0  0  0
   -3.0163   -2.2321    0.6449 C   0  0  0  0  0  0  0  0  0  0  0  0
   -3.5958   -1.5932    1.3154 H   0  0  0  0  0  0  0  0  0  0  0  0
   -3.3850   -2.1088   -0.3764 H   0  0  0  0  0  0  0  0  0  0  0  0
   -1.5463   -1.8601    0.7143 C   0  0  0  0  0  0  0  0  0  0  0  0
   -0.7538   -2.7276    1.0217 O   0  0  0  0  0  0  0  0  0  0  0  0
   -1.1933   -0.5620    0.3864 N   0  0  0  0  0  0  0  0  0  0  0  0
   -1.9798   -0.0141    0.0459 H   0  0  0  0  0  0  0  0  0  0  0  0
    0.1147    0.1381    0.3190 C   0  0  1  0  0  0  0  0  0  0  0  0
    0.3660    0.4254    1.3449 H   0  0  0  0  0  0  0  0  0  0  0  0
    1.3468   -0.6391   -0.2166 C   0  0  0  0  0  0  0  0  0  0  0  0
    1.0808   -1.0737   -1.1844 H   0  0  0  0  0  0  0  0  0  0  0  0
    2.1671    0.0622   -0.3904 H   0  0  0  0  0  0  0  0  0  0  0  0
    1.8958   -1.7571    0.6629 C   0  0  0  0  0  0  0  0  0  0  0  0
    1.7661   -1.6726    1.8753 O   0  0  0  0  0  0  0  0  0  0  0  0
    2.5313   -2.7812    0.0479 O   0  0  0  0  0  0  0  0  0  0  0  0
    2.7323   -3.4168    0.7509 H   0  0  0  0  0  0  0  0  0  0  0  0
   -0.0611    1.4569   -0.4612 C   0  0  0  0  0  0  0  0  0  0  0  0
   -0.0012    1.4777   -1.6825 O   0  0  0  0  0  0  0  0  0  0  0  0
   -0.3921    2.6180    0.2136 N   0  0  0  0  0  0  0  0  0  0  0  0
   -0.4305    2.5807    1.2284 H   0  0  0  0  0  0  0  0  0  0  0  0
   -0.5911    3.9001   -0.4530 C   0  0  0  0  0  0  0  0  0  0  0  0
   -1.3946    3.8268   -1.1936 H   0  0  0  0  0  0  0  0  0  0  0  0
   -0.8639    4.6687    0.2766 H   0  0  0  0  0  0  0  0  0  0  0  0
    0.3274    4.2144   -0.9602 H   0  0  0  0  0  0  0  0  0  0  0  0
  1  2  1  0  0  0  0
  2  3  1  0  0  0  0
  2  4  1  0  0  0  0
  2  5  1  0  0  0  0
  5  6  2  0  0  0  0
  5  7  1  0  0  0  0
  7  8  1  0  0  0  0
  7  9  1  0  0  0  0
  9 10  1  0  0  0  0
  9 11  1  0  0  0  0
  9 18  1  0  0  0  0
 11 12  1  0  0  0  0
 11 13  1  0  0  0  0
 11 14  1  0  0  0  0
 14 15  2  0  0  0  0
 14 16  1  0  0  0  0
 16 17  1  0  0  0  0
 18 19  2  0  0  0  0
 18 20  1  0  0  0  0
 20 21  1  0  0  0  0
 20 22  1  0  0  0  0
 22 23  1  0  0  0  0
 22 24  1  0  0  0  0
 22 25  1  0  0  0  0
M  END
$$$$

  -OEChem-01062216063D

 25 24  0     1  0  0  0  0  0999 V2000
   -3.1635   -3.2656    0.9151 H   0  0  0  0  0  0  0  0  0  0  0  0
   -3.0138   -2.2224    0.6222 C   0  0  0  0  0  0  0  0  0  0  0  0
   -3.6165   -1.5850    1.2736 H   0  0  0  0  0  0  0  0  0  0  0  0
   -3.3471   -2.0969   -0.4108 H   0  0  0  0  0  0  0  0  0  0  0  0
   -1.5478   -1.8476    0.7421 C   0  0  0  0  0  0  0  0  0  0  0  0
   -0.7651   -2.7077    1.0931 O   0  0  0  0  0  0  0  0  0  0  0  0
   -1.1863   -0.5529    0.4127 N   0  0  0  0  0  0  0  0  0  0  0  0
   -1.9572   -0.0168    0.0204 H   0  0  0  0  0  0  0  0  0  0  0  0
    0.1245    0.1393    0.3451 C   0  0  1  0  0  0  0  0  0  0  0  0
    0.3776    0.4188    1.3728 H   0  0  0  0  0  0  0  0  0  0  0  0
    1.3488   -0.6375   -0.2047 C   0  0  0  0  0  0  0  0  0  0  0  0
    1.0741   -1.0598   -1.1754 H   0  0  0  0  0  0  0  0  0  0  0  0
    2.1712    0.0622   -0.3756 H   0  0  0  0  0  0  0  0  0  0  0  0
    1.9002   -1.7679    0.6577 C   0  0  0  0  0  0  0  0  0  0  0  0
    1.7799   -1.6971    1.8716 O   0  0  0  0  0  0  0  0  0  0  0  0
    2.5276   -2.7870    0.0263 O   0  0  0  0  0  0  0  0  0  0  0  0
    2.7300   -3.4321    0.7205 H   0  0  0  0  0  0  0  0  0  0  0  0
   -0.0427    1.4570   -0.4364 C   0  0  0  0  0  0  0  0  0  0  0  0
   -0.2926    1.4361   -1.6336 O   0  0  0  0  0  0  0  0  0  0  0  0
   -0.0572    2.6679    0.2316 N   0  0  0  0  0  0  0  0  0  0  0  0
    0.1285    2.6604    1.2307 H   0  0  0  0  0  0  0  0  0  0  0  0
   -0.2701    3.9470   -0.4362 C   0  0  0  0  0  0  0  0  0  0  0  0
   -1.2522    3.9686   -0.9203 H   0  0  0  0  0  0  0  0  0  0  0  0
   -0.2249    4.7653    0.2890 H   0  0  0  0  0  0  0  0  0  0  0  0
    0.5008    4.1156   -1.1957 H   0  0  0  0  0  0  0  0  0  0  0  0
  1  2  1  0  0  0  0
  2  3  1  0  0  0  0
  2  4  1  0  0  0  0
  2  5  1  0  0  0  0
  5  6  2  0  0  0  0
  5  7  1  0  0  0  0
  7  8  1  0  0  0  0
  7  9  1  0  0  0  0
  9 10  1  0  0  0  0
  9 11  1  0  0  0  0
  9 18  1  0  0  0  0
 11 12  1  0  0  0  0
 11 13  1  0  0  0  0
 11 14  1  0  0  0  0
 14 15  2  0  0  0  0
 14 16  1  0  0  0  0
 16 17  1  0  0  0  0
 18 19  2  0  0  0  0
 18 20  1  0  0  0  0
 20 21  1  0  0  0  0
 20 22  1  0  0  0  0
 22 23  1  0  0  0  0
 22 24  1  0  0  0  0
 22 25  1  0  0  0  0
M  END
$$$$

  -OEChem-01062216063D

 25 24  0     1  0  0  0  0  0999 V2000
   -3.1620   -3.2579    0.8976 H   0  0  0  0  0  0  0  0  0  0  0  0
   -3.0088   -2.2143    0.6081 C   0  0  0  0  0  0  0  0  0  0  0  0
   -3.6250   -1.5783    1.2481 H   0  0  0  0  0  0  0  0  0  0  0  0
   -3.3218   -2.0886   -0.4313 H   0  0  0  0  0  0  0  0  0  0  0  0
   -1.5463   -1.8373    0.7576 C   0  0  0  0  0  0  0  0  0  0  0  0
   -0.7715   -2.6927    1.1369 O   0  0  0  0  0  0  0  0  0  0  0  0
   -1.1773   -0.5464    0.4240 N   0  0  0  0  0  0  0  0  0  0  0  0
   -1.9347   -0.0181   -0.0059 H   0  0  0  0  0  0  0  0  0  0  0  0
    0.1358    0.1399    0.3555 C   0  0  1  0  0  0  0  0  0  0  0  0
    0.3875    0.4192    1.3836 H   0  0  0  0  0  0  0  0  0  0  0  0
    1.3540   -0.6420   -0.1989 C   0  0  0  0  0  0  0  0  0  0  0  0
    1.0735   -1.0608   -1.1697 H   0  0  0  0  0  0  0  0  0  0  0  0
    2.1804    0.0526   -0.3703 H   0  0  0  0  0  0  0  0  0  0  0  0
    1.9018   -1.7775    0.6593 C   0  0  0  0  0  0  0  0  0  0  0  0
    1.7860   -1.7095    1.8735 O   0  0  0  0  0  0  0  0  0  0  0  0
    2.5159   -2.8010    0.0224 O   0  0  0  0  0  0  0  0  0  0  0  0
    2.7132   -3.4503    0.7144 H   0  0  0  0  0  0  0  0  0  0  0  0
   -0.0231    1.4557   -0.4310 C   0  0  0  0  0  0  0  0  0  0  0  0
   -0.5517    1.4474   -1.5349 O   0  0  0  0  0  0  0  0  0  0  0  0
    0.2718    2.6684    0.1648 N   0  0  0  0  0  0  0  0  0  0  0  0
    0.6636    2.6536    1.1025 H   0  0  0  0  0  0  0  0  0  0  0  0
    0.0513    3.9545   -0.4866 C   0  0  0  0  0  0  0  0  0  0  0  0
   -1.0134    4.0993   -0.6987 H   0  0  0  0  0  0  0  0  0  0  0  0
    0.3885    4.7697    0.1609 H   0  0  0  0  0  0  0  0  0  0  0  0
    0.6087    4.0086   -1.4278 H   0  0  0  0  0  0  0  0  0  0  0  0
  1  2  1  0  0  0  0
  2  3  1  0  0  0  0
  2  4  1  0  0  0  0
  2  5  1  0  0  0  0
  5  6  2  0  0  0  0
  5  7  1  0  0  0  0
  7  8  1  0  0  0  0
  7  9  1  0  0  0  0
  9 10  1  0  0  0  0
  9 11  1  0  0  0  0
  9 18  1  0  0  0  0
 11 12  1  0  0  0  0
 11 13  1  0  0  0  0
 11 14  1  0  0  0  0
 14 15  2  0  0  0  0
 14 16  1  0  0  0  0
 16 17  1  0  0  0  0
 18 19  2  0  0  0  0
 18 20  1  0  0  0  0
 20 21  1  0  0  0  0
 20 22  1  0  0  0  0
 22 23  1  0  0  0  0
 22 24  1  0  0  0  0
 22 25  1  0  0  0  0
M  END
$$$$

  -OEChem-01062216063D

 25 24  0     1  0  0  0  0  0999 V2000
   -3.1632   -3.2618    0.8993 H   0  0  0  0  0  0  0  0  0  0  0  0
   -3.0104   -2.2173    0.6134 C   0  0  0  0  0  0  0  0  0  0  0  0
   -3.6229   -1.5836    1.2590 H   0  0  0  0  0  0  0  0  0  0  0  0
   -3.3288   -2.0868   -0.4237 H   0  0  0  0  0  0  0  0  0  0  0  0
   -1.5468   -1.8416    0.7563 C   0  0  0  0  0  0  0  0  0  0  0  0
   -0.7694   -2.6996    1.1253 O   0  0  0  0  0  0  0  0  0  0  0  0
   -1.1771   -0.5512    0.4218 N   0  0  0  0  0  0  0  0  0  0  0  0
   -1.9346   -0.0171   -0.0030 H   0  0  0  0  0  0  0  0  0  0  0  0
    0.1340    0.1383    0.3507 C   0  0  1  0  0  0  0  0  0  0  0  0
    0.3815    0.4216    1.3790 H   0  0  0  0  0  0  0  0  0  0  0  0
    1.3522   -0.6446   -0.2019 C   0  0  0  0  0  0  0  0  0  0  0  0
    1.0696   -1.0693   -1.1694 H   0  0  0  0  0  0  0  0  0  0  0  0
    2.1788    0.0482   -0.3784 H   0  0  0  0  0  0  0  0  0  0  0  0
    1.9002   -1.7761    0.6615 C   0  0  0  0  0  0  0  0  0  0  0  0
    1.7840   -1.7021    1.8753 O   0  0  0  0  0  0  0  0  0  0  0  0
    2.5197   -2.7996    0.0296 O   0  0  0  0  0  0  0  0  0  0  0  0
    2.7167   -3.4468    0.7238 H   0  0  0  0  0  0  0  0  0  0  0  0
   -0.0211    1.4552   -0.4360 C   0  0  0  0  0  0  0  0  0  0  0  0
   -0.7745    1.5080   -1.4001 O   0  0  0  0  0  0  0  0  0  0  0  0
    0.5562    2.6210    0.0331 N   0  0  0  0  0  0  0  0  0  0  0  0
    1.1380    2.5610    0.8642 H   0  0  0  0  0  0  0  0  0  0  0  0
    0.3746    3.9183   -0.6078 C   0  0  0  0  0  0  0  0  0  0  0  0
   -0.6846    4.1959   -0.6186 H   0  0  0  0  0  0  0  0  0  0  0  0
    0.9280    4.6902   -0.0643 H   0  0  0  0  0  0  0  0  0  0  0  0
    0.7419    3.8909   -1.6392 H   0  0  0  0  0  0  0  0  0  0  0  0
  1  2  1  0  0  0  0
  2  3  1  0  0  0  0
  2  4  1  0  0  0  0
  2  5  1  0  0  0  0
  5  6  2  0  0  0  0
  5  7  1  0  0  0  0
  7  8  1  0  0  0  0
  7  9  1  0  0  0  0
  9 10  1  0  0  0  0
  9 11  1  0  0  0  0
  9 18  1  0  0  0  0
 11 12  1  0  0  0  0
 11 13  1  0  0  0  0
 11 14  1  0  0  0  0
 14 15  2  0  0  0  0
 14 16  1  0  0  0  0
 16 17  1  0  0  0  0
 18 19  2  0  0  0  0
 18 20  1  0  0  0  0
 20 21  1  0  0  0  0
 20 22  1  0  0  0  0
 22 23  1  0  0  0  0
 22 24  1  0  0  0  0
 22 25  1  0  0  0  0
M  END
$$$$

  -OEChem-01062216063D

 25 24  0     1  0  0  0  0  0999 V2000
   -3.1733   -3.2545    0.9162 H   0  0  0  0  0  0  0  0  0  0  0  0
   -3.0163   -2.2112    0.6280 C   0  0  0  0  0  0  0  0  0  0  0  0
   -3.5979   -1.5716    1.2961 H   0  0  0  0  0  0  0  0  0  0  0  0
   -3.3686   -2.0729   -0.3972 H   0  0  0  0  0  0  0  0  0  0  0  0
   -1.5438   -1.8552    0.7229 C   0  0  0  0  0  0  0  0  0  0  0  0
   -0.7623   -2.7302    1.0413 O   0  0  0  0  0  0  0  0  0  0  0  0
   -1.1707   -0.5639    0.3962 N   0  0  0  0  0  0  0  0  0  0  0  0
   -1.9354   -0.0085    0.0119 H   0  0  0  0  0  0  0  0  0  0  0  0
    0.1373    0.1325    0.3382 C   0  0  1  0  0  0  0  0  0  0  0  0
    0.3729    0.4204    1.3680 H   0  0  0  0  0  0  0  0  0  0  0  0
    1.3623   -0.6501   -0.2013 C   0  0  0  0  0  0  0  0  0  0  0  0
    1.0901   -1.0786   -1.1700 H   0  0  0  0  0  0  0  0  0  0  0  0
    2.1921    0.0404   -0.3713 H   0  0  0  0  0  0  0  0  0  0  0  0
    1.9000   -1.7783    0.6729 C   0  0  0  0  0  0  0  0  0  0  0  0
    1.7696   -1.7004    1.8849 O   0  0  0  0  0  0  0  0  0  0  0  0
    2.5311   -2.8011    0.0516 O   0  0  0  0  0  0  0  0  0  0  0  0
    2.7183   -3.4474    0.7492 H   0  0  0  0  0  0  0  0  0  0  0  0
   -0.0149    1.4525   -0.4473 C   0  0  0  0  0  0  0  0  0  0  0  0
   -0.9317    1.5916   -1.2488 O   0  0  0  0  0  0  0  0  0  0  0  0
    0.7913    2.5373   -0.1528 N   0  0  0  0  0  0  0  0  0  0  0  0
    1.5097    2.4158    0.5557 H   0  0  0  0  0  0  0  0  0  0  0  0
    0.6463    3.8394   -0.7935 C   0  0  0  0  0  0  0  0  0  0  0  0
   -0.3424    4.2613   -0.5846 H   0  0  0  0  0  0  0  0  0  0  0  0
    1.4044    4.5331   -0.4175 H   0  0  0  0  0  0  0  0  0  0  0  0
    0.7691    3.7488   -1.8780 H   0  0  0  0  0  0  0  0  0  0  0  0
  1  2  1  0  0  0  0
  2  3  1  0  0  0  0
  2  4  1  0  0  0  0
  2  5  1  0  0  0  0
  5  6  2  0  0  0  0
  5  7  1  0  0  0  0
  7  8  1  0  0  0  0
  7  9  1  0  0  0  0
  9 10  1  0  0  0  0
  9 11  1  0  0  0  0
  9 18  1  0  0  0  0
 11 12  1  0  0  0  0
 11 13  1  0  0  0  0
 11 14  1  0  0  0  0
 14 15  2  0  0  0  0
 14 16  1  0  0  0  0
 16 17  1  0  0  0  0
 18 19  2  0  0  0  0
 18 20  1  0  0  0  0
 20 21  1  0  0  0  0
 20 22  1  0  0  0  0
 22 23  1  0  0  0  0
 22 24  1  0  0  0  0
 22 25  1  0  0  0  0
M  END
$$$$

  -OEChem-01062216063D

 25 24  0     1  0  0  0  0  0999 V2000
   -3.1761   -3.2509    0.9135 H   0  0  0  0  0  0  0  0  0  0  0  0
   -3.0167   -2.2051    0.6358 C   0  0  0  0  0  0  0  0  0  0  0  0
   -3.5752   -1.5692    1.3269 H   0  0  0  0  0  0  0  0  0  0  0  0
   -3.3932   -2.0489   -0.3780 H   0  0  0  0  0  0  0  0  0  0  0  0
   -1.5391   -1.8640    0.6977 C   0  0  0  0  0  0  0  0  0  0  0  0
   -0.7571   -2.7526    0.9753 O   0  0  0  0  0  0  0  0  0  0  0  0
   -1.1619   -0.5722    0.3778 N   0  0  0  0  0  0  0  0  0  0  0  0
   -1.9338    0.0054    0.0423 H   0  0  0  0  0  0  0  0  0  0  0  0
    0.1448    0.1279    0.3284 C   0  0  1  0  0  0  0  0  0  0  0  0
    0.3755    0.4197    1.3583 H   0  0  0  0  0  0  0  0  0  0  0  0
    1.3715   -0.6630   -0.2007 C   0  0  0  0  0  0  0  0  0  0  0  0
    1.1024   -1.0962   -1.1682 H   0  0  0  0  0  0  0  0  0  0  0  0
    2.2087    0.0175   -0.3697 H   0  0  0  0  0  0  0  0  0  0  0  0
    1.8967   -1.7888    0.6842 C   0  0  0  0  0  0  0  0  0  0  0  0
    1.7570   -1.7032    1.8947 O   0  0  0  0  0  0  0  0  0  0  0  0
    2.5341   -2.8143    0.0742 O   0  0  0  0  0  0  0  0  0  0  0  0
    2.7123   -3.4582    0.7764 H   0  0  0  0  0  0  0  0  0  0  0  0
   -0.0091    1.4514   -0.4555 C   0  0  0  0  0  0  0  0  0  0  0  0
   -1.0435    1.6901   -1.0696 O   0  0  0  0  0  0  0  0  0  0  0  0
    0.9681    2.4281   -0.3845 N   0  0  0  0  0  0  0  0  0  0  0  0
    1.7929    2.2326    0.1757 H   0  0  0  0  0  0  0  0  0  0  0  0
    0.8503    3.7284   -1.0341 C   0  0  0  0  0  0  0  0  0  0  0  0
   -0.0140    4.2754   -0.6430 H   0  0  0  0  0  0  0  0  0  0  0  0
    1.7489    4.3254   -0.8512 H   0  0  0  0  0  0  0  0  0  0  0  0
    0.7305    3.6075   -2.1160 H   0  0  0  0  0  0  0  0  0  0  0  0
  1  2  1  0  0  0  0
  2  3  1  0  0  0  0
  2  4  1  0  0  0  0
  2  5  1  0  0  0  0
  5  6  2  0  0  0  0
  5  7  1  0  0  0  0
  7  8  1  0  0  0  0
  7  9  1  0  0  0  0
  9 10  1  0  0  0  0
  9 11  1  0  0  0  0
  9 18  1  0  0  0  0
 11 12  1  0  0  0  0
 11 13  1  0  0  0  0
 11 14  1  0  0  0  0
 14 15  2  0  0  0  0
 14 16  1  0  0  0  0
 16 17  1  0  0  0  0
 18 19  2  0  0  0  0
 18 20  1  0  0  0  0
 20 21  1  0  0  0  0
 20 22  1  0  0  0  0
 22 23  1  0  0  0  0
 22 24  1  0  0  0  0
 22 25  1  0  0  0  0
M  END
$$$$
